data_functionalizedCrystal
_audit_creation_method	'MofGen! by Chris Wilmer'
_symmetry_space_group_name_H-M	'P1'
_symmetry_Int_Tables_number	1
_symmetry_cell_setting	triclinic
loop_
_symmetry_equiv_pos_as_xyz
  x,y,z
_cell_length_a	15.995350
_cell_length_b	15.944551
_cell_length_c	14.472310
_cell_angle_alpha	89.997979
_cell_angle_beta	89.990621
_cell_angle_gamma	83.495557
loop_
_atom_site_label
_atom_site_type_symbol
_atom_site_fract_x
_atom_site_fract_y
_atom_site_fract_z
O1	O	1.111003	0.108264	-0.076765
O2	O	0.867228	0.121634	-0.076784
O3	O	0.995772	-0.007326	-0.076765
O4	O	0.982458	0.237224	-0.076783
O5	O	0.995739	-0.007319	0.076917
O6	O	0.867195	0.121641	0.076898
O7	O	1.110969	0.108272	0.076917
Cu8	Cu	0.989079	0.114957	0.090940
Cu9	Cu	0.989118	0.114948	-0.090807
O10	O	0.982425	0.237232	0.076899
C11	C	0.836017	0.121085	0.000055
C12	C	0.743066	0.119428	0.000048
C13	C	0.405318	0.113477	0.000067
C14	C	0.452747	0.021634	0.000417
C15	C	0.549438	0.023291	0.000064
C16	C	0.572879	0.116429	0.000058
C17	C	0.531813	0.161724	-0.087701
C18	C	0.435178	0.159417	-0.087768
C19	C	0.434801	0.161323	0.086997
C20	C	0.531746	0.161302	0.088150
C21	C	0.667577	0.118102	0.000050
C22	C	0.310620	0.111806	0.000069
C23	C	0.995203	-0.038616	0.000076
C24	C	0.993546	-0.131862	0.000076
C25	C	0.909908	-0.346714	0.000057
C26	C	0.948730	-0.407730	0.075834
C27	C	0.990548	-0.302588	0.000069
C28	C	0.948782	-0.407721	-0.075684
C29	C	0.987647	-0.467501	0.000058
C30	C	1.029393	-0.362376	0.075909
C31	C	1.029433	-0.362360	-0.075678
C32	C	1.068315	-0.423358	0.000119
C33	C	0.992217	-0.207586	0.000076
C34	C	0.985984	-0.562502	0.000057
C35	C	1.142181	0.108821	0.000077
C36	C	1.235131	0.110478	0.000078
C37	C	0.982995	0.268522	0.000056
C38	C	0.984652	0.361768	0.000049
N39	N	0.989058	0.114963	0.218771
N40	N	0.989146	0.114936	-0.218638
C41	C	0.989117	0.114945	0.592862
C42	C	0.920105	0.183717	0.553686
C43	C	0.920264	0.183968	0.446598
C44	C	0.989087	0.114954	0.407271
C45	C	1.076453	0.134096	0.446114
C46	C	1.076065	0.134585	0.553235
C47	C	0.971543	0.026826	0.553396
C48	C	0.969539	0.027414	0.446269
C49	C	0.989075	0.114957	0.302383
C50	C	0.989135	0.114943	0.697750
H51	H	0.577851	-0.012314	0.062974
H52	H	1.063526	-0.342235	-0.139740
H53	H	0.434210	-0.015075	0.063353
H54	H	0.559047	0.128236	0.153074
C55	C	0.819486	-0.301706	0.000146
C56	C	0.758899	-0.317071	-0.079181
C57	C	0.668481	-0.272062	-0.079087
C58	C	0.638649	-0.211686	0.000335
C59	C	0.699236	-0.196318	0.079668
C60	C	0.789655	-0.241328	0.079574
H61	H	0.780981	-0.361767	-0.137980
H62	H	0.623630	-0.283439	-0.137815
H63	H	0.571715	-0.178367	0.000405
H64	H	0.677154	-0.151622	0.138466
H65	H	0.834506	-0.229951	0.138302
H66	H	0.577307	-0.012561	-0.062951
H67	H	0.914608	-0.427833	0.139893
C68	C	1.075410	-0.335376	0.162555
C69	C	1.085443	-0.241565	0.178593
C70	C	1.131456	-0.214564	0.265239
C71	C	1.167435	-0.281373	0.335847
C72	C	1.157403	-0.375190	0.319812
C73	C	1.111390	-0.402192	0.233166
H74	H	1.058808	-0.192104	0.126322
H75	H	1.138882	-0.145114	0.277109
H76	H	1.201496	-0.261385	0.399988
H77	H	1.184038	-0.424652	0.372082
H78	H	1.103964	-0.471642	0.221295
H79	H	0.905272	0.012886	0.420882
C80	C	0.935101	0.271559	0.590000
C81	C	0.933925	0.289011	0.694673
C82	C	0.948947	0.376848	0.730976
C83	C	0.965145	0.447235	0.662606
C84	C	0.966321	0.429785	0.557927
C85	C	0.951299	0.341947	0.521624
H86	H	0.921935	0.236905	0.745290
H87	H	0.948077	0.389765	0.808466
H88	H	0.976265	0.512258	0.689479
H89	H	0.978312	0.481891	0.507310
H90	H	0.952170	0.329030	0.444134
H91	H	1.135309	-0.456521	0.000167
H92	H	0.914677	-0.427799	-0.139753
H93	H	0.855324	0.172563	0.420338
H94	H	0.547114	0.229221	0.093447
H95	H	0.854954	0.172500	0.579470
C96	C	1.039525	-0.042317	0.587623
C97	C	1.036395	-0.134778	0.558414
C98	C	1.104378	-0.203913	0.592646
C99	C	1.175492	-0.180587	0.656086
C100	C	1.178625	-0.088122	0.685299
C101	C	1.110641	-0.018987	0.651067
H102	H	0.983750	-0.152050	0.511448
H103	H	1.102059	-0.272363	0.571020
H104	H	1.225817	-0.231765	0.681427
H105	H	1.231270	-0.070850	0.732264
H106	H	1.112961	0.049462	0.672692
H107	H	0.402934	0.226847	-0.091755
H108	H	0.433165	-0.014912	-0.062167
H109	H	0.931487	0.249360	0.420961
H110	H	0.416881	0.126379	-0.153367
C111	C	1.147889	0.069769	0.587967
C112	C	1.218286	0.098914	0.648546
C113	C	1.290287	0.034235	0.683137
C114	C	1.291893	-0.059589	0.657148
C115	C	1.221494	-0.088738	0.596566
C116	C	1.149492	-0.024059	0.561976
H117	H	1.217100	0.168372	0.667787
H118	H	1.342401	0.055813	0.727984
H119	H	1.345193	-0.107468	0.682755
H120	H	1.222680	-0.158196	0.577325
H121	H	1.097378	-0.045638	0.517128
H122	H	1.091551	0.198850	0.578207
C123	C	1.147492	0.068233	0.411697
C124	C	1.201787	0.013363	0.481608
C125	C	1.272825	-0.052501	0.447190
C126	C	1.289568	-0.063495	0.342862
C127	C	1.235272	-0.008623	0.272946
C128	C	1.164234	0.057241	0.307363
H129	H	1.189394	0.021500	0.558843
H130	H	1.313019	-0.093120	0.498948
H131	H	1.342155	-0.112252	0.317384
H132	H	1.247665	-0.016760	0.195710
H133	H	1.124041	0.097861	0.255606
H134	H	1.092308	0.197628	0.419273
C135	C	0.887330	0.001972	0.589922
C136	C	0.833441	0.061380	0.656065
C137	C	0.749225	0.036537	0.692592
C138	C	0.718897	-0.047715	0.662976
C139	C	0.772787	-0.107129	0.596829
C140	C	0.857004	-0.082286	0.560302
H141	H	0.855891	0.123753	0.677992
H142	H	0.709332	0.080520	0.741558
H143	H	0.656555	-0.066105	0.690015
H144	H	0.750338	-0.169502	0.574902
H145	H	0.896896	-0.126268	0.511336
H146	H	0.545943	0.230150	-0.090969
H147	H	0.560200	0.130258	-0.153010
H148	H	0.414250	0.131301	0.153516
H149	H	0.403043	0.229039	0.087586
H150	H	1.016539	-0.026162	0.419502
