data_functionalizedCrystal
_audit_creation_method	'MofGen! by Chris Wilmer'
_symmetry_space_group_name_H-M	'P1'
_symmetry_Int_Tables_number	1
_symmetry_cell_setting	triclinic
loop_
_symmetry_equiv_pos_as_xyz
  x,y,z
_cell_length_a	12.594517
_cell_length_b	12.594516
_cell_length_c	12.594510
_cell_angle_alpha	89.968094
_cell_angle_beta	89.977213
_cell_angle_gamma	90.015853
loop_
_atom_site_label
_atom_site_type_symbol
_atom_site_fract_x
_atom_site_fract_y
_atom_site_fract_z
Zn1	Zn	1.627282	-0.423656	-0.601875
Zn2	Zn	1.627169	-0.601684	-0.423903
Zn3	Zn	1.449282	-0.423719	-0.423904
Zn4	Zn	1.449268	-0.601592	-0.601833
O5	O	1.538250	-0.512663	-0.512879
O6	O	1.776213	-0.447283	-0.578284
O7	O	1.603530	-0.578141	-0.274957
O8	O	1.472947	-0.274765	-0.447530
O9	O	1.776129	-0.578080	-0.447528
O10	O	1.603723	-0.274718	-0.578285
O11	O	1.472837	-0.447391	-0.274958
O12	O	1.300334	-0.447302	-0.447489
O13	O	1.472924	-0.577924	-0.750784
O14	O	1.300324	-0.577985	-0.578213
O15	O	1.603710	-0.447195	-0.750815
O16	O	1.603517	-0.750617	-0.447488
O17	O	1.472814	-0.750550	-0.578212
C18	C	1.261709	-0.512641	-0.512847
C19	C	1.143404	-0.512658	-0.512859
C20	C	1.074125	-0.441482	-0.441894
C21	C	1.003313	-0.538574	-0.415718
C22	C	1.003417	-0.415614	-0.539054
C23	C	1.074150	-0.609800	-0.486632
C24	C	1.074260	-0.486775	-0.610013
C25	C	1.003480	-0.583933	-0.583874
C26	C	1.538180	-0.789204	-0.512868
C27	C	1.538248	-0.907509	-0.512899
C28	C	1.467152	-0.976764	-0.583950
C29	C	1.441216	-1.047639	-0.486827
C30	C	1.564281	-1.047433	-0.610039
C31	C	1.512261	-0.976826	-0.415725
C32	C	1.635371	-0.976613	-0.539002
C33	C	1.609472	-1.047456	-0.441812
C34	C	1.815871	-0.512685	-0.512911
C35	C	1.934177	-0.512694	-0.512924
C36	C	1.538329	-0.512542	-0.790500
C37	C	1.538362	-0.512490	-0.908805
C38	C	1.538349	-0.235042	-0.512912
C39	C	1.538391	-0.116736	-0.512927
C40	C	1.609522	-0.441365	-1.048839
C41	C	1.635509	-0.538486	-0.978022
C42	C	1.512422	-0.415381	-0.978051
C43	C	1.564444	-0.609630	-1.048774
C44	C	1.441312	-0.486459	-1.048809
C45	C	1.467262	-0.583646	-0.978024
C46	C	1.538233	-0.512706	-0.236338
C47	C	1.538406	-0.512458	-0.118033
H48	H	0.972290	-0.333541	-0.561146
N49	N	1.591824	-1.086363	-0.713074
N50	N	1.528482	-1.144441	-0.762685
H51	H	1.547925	-1.171935	-0.835455
N52	N	1.113050	-0.366033	-0.366539
N53	N	1.089105	-0.270131	-0.375437
H54	H	1.116597	-0.216847	-0.322217
H55	H	1.105446	-0.464830	-0.692122
H56	H	1.669657	-1.078300	-0.381669
H57	H	0.972152	-0.560489	-0.333584
H58	H	1.407103	-0.643850	-0.947128
H59	H	1.406921	-0.945723	-0.643949
N60	N	1.738478	-0.566109	-0.938983
N61	N	1.750035	-0.646698	-0.882185
H62	H	1.822758	-0.666202	-0.854615
H63	H	1.359148	-1.078860	-0.464772
H64	H	1.105091	-0.691908	-0.464413
N65	N	0.964820	-0.659553	-0.659192
N66	N	0.987714	-0.755612	-0.649281
H67	H	0.960410	-0.809023	-0.702471
H68	H	1.359244	-0.464418	-1.079928
N69	N	1.484578	-0.938071	-0.312662
N70	N	1.480003	-0.840344	-0.296029
H71	H	1.460443	-0.812969	-0.223245
N72	N	1.592127	-0.712658	-1.087591
N73	N	1.672330	-0.724155	-1.144930
H74	H	1.691884	-0.796916	-1.172348
N75	N	1.685038	-0.366009	-1.087836
N76	N	1.739448	-0.312808	-1.024162
H77	H	1.792783	-0.259590	-1.051702
H78	H	1.717420	-0.945395	-0.561104
H79	H	1.490464	-0.333270	-0.946982
