data_functionalizedCrystal
_audit_creation_method	'MofGen! by Chris Wilmer'
_symmetry_space_group_name_H-M	'P1'
_symmetry_Int_Tables_number	1
_symmetry_cell_setting	triclinic
loop_
_symmetry_equiv_pos_as_xyz
  x,y,z
_cell_length_a	13.185407
_cell_length_b	16.098538
_cell_length_c	13.339070
_cell_angle_alpha	86.532277
_cell_angle_beta	96.198614
_cell_angle_gamma	88.194106
loop_
_atom_site_label
_atom_site_type_symbol
_atom_site_fract_x
_atom_site_fract_y
_atom_site_fract_z
O1	O	-1.376542	0.069256	-0.248891
O2	O	-0.876542	0.569256	0.251109
O3	O	-1.087710	0.069257	-0.154154
O4	O	-0.587710	0.569257	0.345846
O5	O	-1.198977	0.069254	-0.339761
O6	O	-0.698977	0.569254	0.160239
O7	O	-1.265275	0.069258	-0.063284
O8	O	-0.765275	0.569258	0.436716
O9	O	-1.192468	-0.069259	-0.328952
O10	O	-0.692468	0.430741	0.171048
O11	O	-1.081200	-0.069256	-0.143345
O12	O	-0.581200	0.430744	0.356655
O13	O	-1.370033	-0.069257	-0.238082
O14	O	-0.870033	0.430743	0.261918
Zn15	Zn	-1.224583	-0.091249	-0.188997
Zn16	Zn	-0.724583	0.408751	0.311003
Zn17	Zn	-1.233160	0.091248	-0.203239
Zn18	Zn	-0.733160	0.591248	0.296761
O19	O	-1.258765	-0.069254	-0.052475
O20	O	-0.758765	0.430746	0.447525
C21	C	-1.046733	0.000000	-0.139145
C22	C	-0.546733	0.500000	0.360855
C23	C	-0.934328	0.000001	-0.110538
C24	C	-0.434328	0.500001	0.389462
C25	C	-0.562465	-0.000012	-0.383551
C26	C	-0.062465	0.499988	0.116449
C27	C	-0.668074	-0.000017	-0.410431
C28	C	-0.168074	0.499983	0.089569
C29	C	-0.734643	-0.000013	-0.335461
C30	C	-0.234643	0.499987	0.164539
C31	C	-0.695592	-0.000003	-0.233605
C32	C	-0.195592	0.499997	0.266395
C33	C	-0.589973	-0.000003	-0.206721
C34	C	-0.089973	0.499997	0.293279
C35	C	-0.762150	-0.000004	-0.158631
C36	C	-0.262150	0.499996	0.341369
C37	C	-0.723100	0.000006	-0.056775
C38	C	-0.223100	0.500006	0.443225
C39	C	-0.617490	0.000005	-0.029897
C40	C	-0.117490	0.500005	0.470103
C41	C	-0.550922	0.000001	-0.104867
C42	C	-0.050922	0.500001	0.395133
C43	C	-0.867770	-0.000004	-0.185514
C44	C	-0.367770	0.499996	0.314486
C45	C	-0.895277	0.000005	-0.008684
C46	C	-0.395277	0.500005	0.491316
C47	C	-0.789668	0.000010	0.018196
C48	C	-0.289668	0.500010	0.518196
C49	C	-0.411010	-0.000002	-0.253091
C50	C	0.088990	0.499998	0.246909
C51	C	-0.523414	-0.000008	-0.281697
C52	C	-0.023414	0.499992	0.218303
N53	N	-1.218737	-0.215798	-0.179280
N54	N	-0.718737	0.284202	0.320720
C55	C	-1.265994	-0.259384	-0.258044
C56	C	-0.765994	0.240616	0.241956
C57	C	-1.261916	-0.346573	-0.251240
C58	C	-0.761916	0.153427	0.248760
C59	C	-1.210587	-0.390174	-0.165668
C60	C	-0.710587	0.109826	0.334332
C61	C	-1.163324	-0.346581	-0.086900
C62	C	-0.663324	0.153419	0.413100
C63	C	-1.167396	-0.259394	-0.093707
C64	C	-0.667396	0.240606	0.406293
C65	C	-1.195821	-0.653423	-0.141005
C66	C	-0.695821	-0.153423	0.358995
C67	C	-1.191755	-0.740617	-0.134202
C68	C	-0.691755	-0.240617	0.365798
C69	C	-1.290346	-0.740602	-0.298544
C70	C	-0.790346	-0.240602	0.201456
C71	C	-1.294418	-0.653413	-0.305342
C72	C	-0.794418	-0.153413	0.194658
C73	C	-1.247151	-0.609828	-0.226575
C74	C	-0.747151	-0.109828	0.273425
C75	C	-1.206421	-0.479295	-0.158710
C76	C	-0.706421	0.020705	0.341290
C77	C	-1.251312	-0.520709	-0.233537
C78	C	-0.751312	-0.020709	0.266463
C79	C	-1.184524	-0.000001	-0.368997
C80	C	-0.684524	0.499999	0.131003
C81	C	-1.151143	0.000002	-0.472211
C82	C	-0.651143	0.500002	0.027789
N83	N	-1.239012	0.215797	-0.212966
N84	N	-0.739012	0.715797	0.287034
C85	C	-1.410698	0.000001	-0.907668
C86	C	-0.910698	0.500001	-0.407668
C87	C	-1.442064	-0.000007	-0.810694
C88	C	-0.942064	0.499993	-0.310694
C89	C	-1.369336	-0.000005	-0.726069
C90	C	-0.869336	0.499995	-0.226069
C91	C	-1.265237	0.000005	-0.738426
C92	C	-0.765237	0.500005	-0.238426
C93	C	-1.233867	0.000007	-0.835409
C94	C	-0.733867	0.500007	-0.335409
C95	C	-1.192506	0.000001	-0.653810
C96	C	-0.692506	0.500001	-0.153810
C97	C	-1.088407	0.000011	-0.666168
C98	C	-0.588407	0.500011	-0.166168
C99	C	-1.057043	0.000013	-0.763142
C100	C	-0.557043	0.500013	-0.263142
C101	C	-1.129770	0.000011	-0.847767
C102	C	-0.629770	0.500011	-0.347767
C103	C	-1.223876	0.000000	-0.556828
C104	C	-0.723876	0.500000	-0.056828
C105	C	-1.047046	0.000006	-0.484569
C106	C	-0.547046	0.500006	0.015431
C107	C	-1.015679	0.000014	-0.581542
C108	C	-0.515679	0.500014	-0.081542
C109	C	-1.273219	0.000003	-0.023239
C110	C	-0.773219	0.500003	0.476761
C111	C	-1.306600	0.000005	0.079974
C112	C	-0.806600	0.500005	0.579974
H113	H	-0.464925	0.000010	-0.082987
H114	H	0.035075	0.500010	0.417013
H115	H	-1.300395	-0.382060	-0.315377
H116	H	-0.800395	0.117940	0.184623
H117	H	-1.394881	-0.000011	-0.647111
H118	H	-0.894881	0.499989	-0.147111
H119	H	-1.128913	-0.223907	-0.029570
H120	H	-0.628913	0.276093	0.470430
H121	H	-0.930920	0.000022	-0.591618
H122	H	-0.430920	0.500022	-0.091618
H123	H	-0.987824	0.000004	-0.415664
H124	H	-0.487824	0.500004	0.084336
H125	H	-1.336214	-0.617915	-0.375021
H126	H	-0.836214	-0.117915	0.124979
H127	H	-1.149955	-0.776113	-0.064514
H128	H	-0.649955	-0.276113	0.435486
H129	H	-0.899554	-0.000011	-0.268446
H130	H	-0.399554	0.499989	0.231554
H131	H	-0.585699	0.000005	0.053042
H132	H	-0.085699	0.500005	0.553042
H133	H	-1.526821	-0.000017	-0.800641
H134	H	-1.026821	0.499983	-0.300641
H135	H	-1.164630	-0.514802	-0.089035
H136	H	-0.664630	-0.014802	0.410965
H137	H	-0.757858	0.000018	0.101128
H138	H	-0.257858	0.500018	0.601128
H139	H	-0.949478	0.000006	0.052363
H140	H	-0.449478	0.500006	0.552363
H141	H	-1.307796	-0.223890	-0.327723
H142	H	-0.807796	0.276110	0.172277
H143	H	-1.293099	-0.485206	-0.303213
H144	H	-0.793099	0.014794	0.196787
H145	H	-0.820634	-0.000017	-0.357353
H146	H	-0.320634	0.499983	0.142647
H147	H	-1.328827	-0.776097	-0.362672
H148	H	-0.828827	-0.276097	0.137328
H149	H	-1.469900	-0.000008	-0.976575
H150	H	-0.969900	0.499992	-0.476575
H151	H	-1.157336	-0.617943	-0.076869
H152	H	-0.657336	-0.117943	0.423131
H153	H	-0.508256	-0.000039	-0.444579
H154	H	-0.008256	0.499961	0.055421
H155	H	-1.121525	-0.382086	-0.017227
H156	H	-0.621525	0.117914	0.482773
H157	H	-1.104237	0.000020	-0.926734
H158	H	-0.604237	0.500020	-0.426734
H159	H	-1.308633	-0.000008	-0.546777
H160	H	-0.808633	0.499992	-0.046777
H161	H	-0.699861	-0.000029	-0.493362
H162	H	-0.199861	0.499971	0.006638
H163	H	-0.972278	0.000015	-0.773197
H164	H	-0.472278	0.500015	-0.273197
