data_functionalizedCrystal
_audit_creation_method	'MofGen! by Chris Wilmer'
_symmetry_space_group_name_H-M	'P1'
_symmetry_Int_Tables_number	1
_symmetry_cell_setting	triclinic
loop_
_symmetry_equiv_pos_as_xyz
  x,y,z
_cell_length_a	14.971482
_cell_length_b	17.699092
_cell_length_c	14.048226
_cell_angle_alpha	89.995250
_cell_angle_beta	89.994098
_cell_angle_gamma	83.449488
loop_
_atom_site_label
_atom_site_type_symbol
_atom_site_fract_x
_atom_site_fract_y
_atom_site_fract_z
O1	O	1.186614	0.098619	-0.079145
O2	O	1.686614	0.598619	0.420855
O3	O	0.926173	0.110434	-0.079149
O4	O	1.426173	0.610434	0.420851
O5	O	1.063747	-0.005644	-0.079144
O6	O	1.563747	0.494356	0.420856
O7	O	1.049039	0.214697	-0.079149
O8	O	1.549039	0.714697	0.420851
O9	O	1.063731	-0.005651	0.079177
O10	O	1.563731	0.494349	0.579177
O11	O	0.926156	0.110427	0.079173
O12	O	1.426156	0.610427	0.579173
O13	O	1.186597	0.098613	0.079177
O14	O	1.686597	0.598613	0.579177
Zn15	Zn	1.056374	0.104519	0.104312
Zn16	Zn	1.556374	0.604519	0.604312
Zn17	Zn	1.056396	0.104528	-0.104284
Zn18	Zn	1.556396	0.604528	0.395716
O19	O	1.049022	0.214691	0.079172
O20	O	1.549022	0.714691	0.579172
C21	C	0.892842	0.109903	0.000011
C22	C	1.392842	0.609903	0.500011
C23	C	0.793550	0.108321	0.000010
C24	C	1.293550	0.608321	0.500010
C25	C	0.746899	0.107572	0.086312
C26	C	1.246899	0.607572	0.586312
C27	C	0.653605	0.106074	0.086313
C28	C	1.153605	0.606074	0.586313
C29	C	0.606964	0.105329	0.000011
C30	C	1.106964	0.605329	0.500011
C31	C	0.653622	0.106076	-0.086298
C32	C	1.153622	0.606076	0.413702
C33	C	0.746914	0.107569	-0.086298
C34	C	1.246914	0.607569	0.413702
C35	C	0.459170	0.102966	-0.086292
C36	C	0.959170	0.602966	0.413708
C37	C	0.365871	0.101474	-0.086292
C38	C	0.865871	0.601474	0.413708
C39	C	0.365861	0.101471	0.086319
C40	C	0.865861	0.601471	0.586319
C41	C	0.459154	0.102964	0.086319
C42	C	0.959154	0.602964	0.586319
C43	C	0.505805	0.103712	0.000010
C44	C	1.005805	0.603712	0.500010
C45	C	1.063211	-0.033846	0.000015
C46	C	1.563211	0.466154	0.500015
C47	C	1.061626	-0.117867	0.000010
C48	C	1.561626	0.382133	0.500010
C49	C	1.060892	-0.157333	-0.086292
C50	C	1.560892	0.342667	0.413708
C51	C	1.059398	-0.236280	-0.086293
C52	C	1.559398	0.263720	0.413707
C53	C	1.058643	-0.275760	0.000009
C54	C	1.558643	0.224240	0.500009
C55	C	1.059374	-0.236289	0.086318
C56	C	1.559374	0.263711	0.586318
C57	C	1.060862	-0.157343	0.086318
C58	C	1.560862	0.342657	0.586318
C59	C	1.053370	-0.554668	0.086319
C60	C	1.553370	-0.054668	0.586319
C61	C	1.051884	-0.633620	0.086312
C62	C	1.551884	-0.133620	0.586312
C63	C	1.051905	-0.633605	-0.086292
C64	C	1.551905	-0.133605	0.413708
C65	C	1.053394	-0.554659	-0.086292
C66	C	1.553394	-0.054659	0.413708
C67	C	1.054120	-0.515194	0.000017
C68	C	1.554120	-0.015194	0.500017
C69	C	1.055739	-0.429591	0.000017
C70	C	1.555739	0.070409	0.500017
C71	C	1.057030	-0.361362	0.000010
C72	C	1.557030	0.138638	0.500010
C73	C	1.219928	0.099144	0.000015
C74	C	1.719928	0.599144	0.500015
C75	C	1.319220	0.100726	0.000010
C76	C	1.819220	0.600726	0.500010
C77	C	1.049559	0.242892	0.000011
C78	C	1.549559	0.742892	0.500011
C79	C	1.051144	0.326914	0.000009
C80	C	1.551144	0.826914	0.500009
N81	N	1.056366	0.104512	0.246672
N82	N	1.556366	0.604512	0.746672
N83	N	1.056411	0.104528	-0.246644
N84	N	1.556411	0.604528	0.253356
C85	C	1.117303	0.053134	0.296492
C86	C	1.617303	0.553134	0.796492
C87	C	1.117309	0.053134	0.396150
C88	C	1.617309	0.553134	0.896150
C89	C	1.056381	0.104515	0.445986
C90	C	1.556381	0.604515	0.945986
C91	C	0.995438	0.155896	0.396159
C92	C	1.495438	0.655896	0.896159
C93	C	0.995428	0.155892	0.296503
C94	C	1.495428	0.655892	0.796503
C95	C	0.995464	0.155901	0.603873
C96	C	1.495464	0.655901	1.103873
C97	C	0.995474	0.155906	0.703536
C98	C	1.495474	0.655906	1.203536
C99	C	1.117344	0.053143	0.703520
C100	C	1.617344	0.553143	1.203520
C101	C	1.117335	0.053139	0.603864
C102	C	1.617335	0.553139	1.103864
C103	C	1.056392	0.104521	0.554044
C104	C	1.556392	0.604521	1.054044
H105	H	0.497126	0.103574	0.156594
H106	H	0.997126	0.603574	0.656594
Br107	Br	1.050920	-0.687169	-0.203427
Br108	Br	1.550920	-0.187169	0.296573
H109	H	1.058753	-0.268439	0.156586
H110	H	1.558753	0.231561	0.656586
Br111	Br	0.912783	0.225642	0.771163
Br112	Br	1.412783	0.725642	1.271163
H113	H	1.061447	-0.125209	0.156594
H114	H	1.561447	0.374791	0.656594
H115	H	0.327873	0.100862	0.156595
H116	H	0.827873	0.600862	0.656595
H117	H	1.061512	-0.125194	-0.156569
H118	H	1.561512	0.374806	0.343431
H119	H	1.166921	0.011296	0.255922
H120	H	1.666921	0.511296	0.755922
Br121	Br	1.058401	-0.289837	-0.203422
Br122	Br	1.558401	0.210163	0.296578
H123	H	1.051267	-0.665762	0.156594
H124	H	1.551267	-0.165762	0.656594
Br125	Br	1.200007	-0.016597	0.463766
Br126	Br	1.700007	0.483403	0.963766
H127	H	0.497151	0.103575	-0.156574
H128	H	0.997151	0.603575	0.343426
Br129	Br	1.054426	-0.501083	-0.203420
Br130	Br	1.554426	-0.001083	0.296580
H131	H	0.784896	0.108180	-0.156574
H132	H	1.284896	0.608180	0.343426
H133	H	0.784866	0.108184	0.156589
H134	H	1.284866	0.608184	0.656589
Br135	Br	0.590329	0.105033	-0.203424
Br136	Br	1.090329	0.605033	0.296576
Br137	Br	0.302572	0.100465	-0.203417
Br138	Br	0.802572	0.600465	0.296583
H139	H	1.053979	-0.522547	0.156596
H140	H	1.553979	-0.022547	0.656596
Br141	Br	1.200029	-0.016586	0.536226
Br142	Br	1.700029	0.483414	1.036226
H143	H	1.166965	0.011306	0.744089
H144	H	1.666965	0.511306	1.244089
H145	H	0.945834	0.197739	0.563313
H146	H	1.445834	0.697739	1.063313
Br147	Br	0.912742	0.225625	0.463789
Br148	Br	1.412742	0.725625	0.963789
H149	H	0.945806	0.197728	0.255940
H150	H	1.445806	0.697728	0.755940
H151	H	0.615628	0.105451	0.156588
H152	H	1.115628	0.605451	0.656588
