data_functionalizedCrystal
_audit_creation_method	'MofGen! by Chris Wilmer'
_symmetry_space_group_name_H-M	'P1'
_symmetry_Int_Tables_number	1
_symmetry_cell_setting	triclinic
loop_
_symmetry_equiv_pos_as_xyz
  x,y,z
_cell_length_a	16.992694
_cell_length_b	11.792241
_cell_length_c	15.455313
_cell_angle_alpha	92.683265
_cell_angle_beta	87.142206
_cell_angle_gamma	87.430819
loop_
_atom_site_label
_atom_site_type_symbol
_atom_site_fract_x
_atom_site_fract_y
_atom_site_fract_z
O1	O	1.044827	0.236106	-0.072022
O2	O	0.816531	0.233463	-0.072048
O3	O	0.936219	0.070068	-0.072029
O4	O	0.925139	0.399501	-0.072042
O5	O	0.929374	0.079370	0.072232
O6	O	0.809687	0.242766	0.072213
O7	O	1.037982	0.245409	0.072239
Cu8	Cu	0.923210	0.244937	0.085398
Cu9	Cu	0.931304	0.233935	-0.085207
O10	O	0.918295	0.408804	0.072219
C11	C	0.783882	0.234716	0.000079
C12	C	0.696795	0.224578	0.000070
C13	C	0.646971	0.322395	0.000066
C14	C	0.565143	0.312864	0.000079
C15	C	0.533142	0.205513	0.000088
C16	C	0.582973	0.107688	0.000094
C17	C	0.664799	0.117221	0.000088
C18	C	0.289375	0.166002	0.000113
C19	C	0.207543	0.156476	0.000117
C20	C	0.189719	0.361652	0.000103
C21	C	0.271548	0.371176	0.000091
C22	C	0.321371	0.273351	0.000102
N23	N	0.449501	0.195767	0.000098
N24	N	0.405010	0.283098	0.000098
C25	C	0.932101	0.032371	0.000102
C26	C	0.930017	-0.093813	0.000101
C27	C	0.926187	-0.324840	0.000086
C28	C	0.928315	-0.196280	0.000094
C29	C	1.070631	0.244155	0.000109
C30	C	1.157718	0.254293	0.000113
C31	C	0.922413	0.446501	0.000087
C32	C	0.924497	0.572684	0.000082
N33	N	0.917522	0.252674	0.205393
N34	N	0.936998	0.226189	-0.205202
C35	C	0.968388	0.183287	0.250795
C36	C	0.964094	0.189150	0.341602
C37	C	0.908938	0.264406	0.387005
C38	C	0.858067	0.333796	0.341597
C39	C	0.862358	0.327927	0.250791
C40	C	0.890417	0.289710	0.658584
C41	C	0.886132	0.295576	0.749396
C42	C	0.992158	0.150928	0.749395
C43	C	0.996447	0.145070	0.658588
C44	C	0.945574	0.214455	0.613187
N45	N	0.904549	0.270403	0.479825
N46	N	0.949959	0.208452	0.520369
H47	H	0.149144	0.441295	0.000096
N48	N	0.340264	0.066081	0.000099
N49	N	0.390789	0.044588	-0.060714
H50	H	0.426734	-0.025985	-0.060726
N51	N	1.052775	0.068189	0.612199
N52	N	1.056596	0.062957	0.531123
H53	H	1.096378	0.008660	0.498359
N54	N	0.550274	-0.001960	0.000113
N55	N	0.477215	-0.010459	0.000117
H56	H	0.454121	-0.087900	0.000129
H57	H	0.524579	0.392517	0.000075
N58	N	1.024718	0.106410	0.204408
N59	N	1.028543	0.101174	0.123332
H60	H	1.068326	0.046875	0.090571
H61	H	0.820937	0.384428	0.213825
N62	N	0.304221	0.480841	0.000071
N63	N	0.259725	0.568171	0.000063
H64	H	0.282800	0.645625	0.000042
N65	N	1.044115	0.080064	0.795785
N66	N	1.040281	0.085311	0.876860
H67	H	1.076976	0.035259	0.909624
H68	H	1.005512	0.132648	0.378568
H69	H	0.848996	0.346209	0.621625
N70	N	0.829779	0.372452	0.795762
N71	N	0.784357	0.434390	0.755217
H72	H	0.744557	0.488679	0.787962
N73	N	0.679669	0.432044	0.000049
N74	N	0.726216	0.456332	-0.060765
H75	H	0.749309	0.533774	-0.060775
H76	H	0.813154	0.395068	0.378569
H77	H	0.181491	0.069054	0.000123
N78	N	0.715684	0.017292	0.000101
N79	N	0.687104	-0.078551	0.000113
H80	H	0.723040	-0.149130	0.000128
