data_functionalizedCrystal
_audit_creation_method	'MofGen! by Chris Wilmer'
_symmetry_space_group_name_H-M	'P1'
_symmetry_Int_Tables_number	1
_symmetry_cell_setting	triclinic
loop_
_symmetry_equiv_pos_as_xyz
  x,y,z
_cell_length_a	10.489741
_cell_length_b	14.519709
_cell_length_c	13.596369
_cell_angle_alpha	89.999709
_cell_angle_beta	89.994306
_cell_angle_gamma	95.890341
loop_
_atom_site_label
_atom_site_type_symbol
_atom_site_fract_x
_atom_site_fract_y
_atom_site_fract_z
O1	O	0.167203	-1.224779	-0.081663
O2	O	0.186894	-0.956410	-0.081693
O3	O	-0.008613	-1.096701	-0.081671
O4	O	0.362710	-1.084488	-0.081684
O5	O	-0.008623	-1.096687	0.081912
O6	O	0.186883	-0.956396	0.081890
O7	O	0.167193	-1.224765	0.081920
Zn8	Zn	0.177037	-1.090578	0.107878
Zn9	Zn	0.177050	-1.090597	-0.107650
O10	O	0.362700	-1.084474	0.081899
C11	C	0.185971	-0.922038	0.000095
C12	C	0.183221	-0.819642	0.000084
C13	C	-0.056140	-1.095772	0.000120
C14	C	-0.197741	-1.093012	0.000118
N15	N	0.177026	-1.090572	0.254969
C16	C	-0.264951	-1.003749	0.000100
C17	C	-0.357518	-1.045909	0.080760
C18	C	-0.357482	-1.045944	-0.080520
C19	C	-0.288443	-1.135209	0.080844
C20	C	-0.288398	-1.135232	-0.080509
C21	C	-0.380938	-1.177457	0.000171
C22	C	0.410227	-1.085403	0.000106
C23	C	0.551828	-1.088163	0.000101
C24	C	0.168116	-1.259137	0.000130
C25	C	0.170866	-1.361533	0.000135
C26	C	0.173098	-0.444691	0.000129
C27	C	0.175909	-0.549014	0.000116
C28	C	0.178159	-0.632163	0.000105
C29	C	0.180971	-0.736493	0.000094
N30	N	0.177050	-1.090610	-0.254742
C31	C	0.177052	-1.090596	0.656260
C32	C	0.177049	-1.090586	0.544609
C33	C	0.177040	-1.090584	0.455618
C34	C	0.177035	-1.090574	0.343960
H35	H	-0.388140	-1.008134	0.148944
C36	C	-0.398790	-0.994915	-0.172642
H37	H	-0.358660	-0.933208	-0.172543
H38	H	-0.489210	-0.994013	-0.172307
H39	H	-0.373953	-1.026036	-0.229913
H40	H	-0.257742	-1.172975	-0.148696
C41	C	-0.196832	-0.904609	0.000196
H42	H	-0.220324	-0.873040	0.057573
H43	H	-0.221456	-0.872581	-0.056523
H44	H	-0.106679	-0.907049	-0.000380
H45	H	-0.431128	-1.250914	0.000224
C46	C	-0.247338	-1.186172	0.173073
H47	H	-0.156994	-1.187585	0.172534
H48	H	-0.288095	-1.247694	0.173317
H49	H	-0.271547	-1.154658	0.230272
