data_functionalizedCrystal
_audit_creation_method	'MofGen! by Chris Wilmer'
_symmetry_space_group_name_H-M	'P1'
_symmetry_Int_Tables_number	1
_symmetry_cell_setting	triclinic
loop_
_symmetry_equiv_pos_as_xyz
  x,y,z
_cell_length_a	17.077404
_cell_length_b	17.637651
_cell_length_c	17.639252
_cell_angle_alpha	109.652606
_cell_angle_beta	101.212729
_cell_angle_gamma	101.217007
loop_
_atom_site_label
_atom_site_type_symbol
_atom_site_fract_x
_atom_site_fract_y
_atom_site_fract_z
Zn1	Zn	1.233237	-0.234124	0.399543
Zn2	Zn	1.166663	-0.399808	0.233829
Zn3	Zn	1.068738	-0.261973	0.261740
Zn4	Zn	1.068688	-0.371933	0.371614
O5	O	1.134332	-0.316960	0.316682
O6	O	1.334252	-0.256114	0.377569
O7	O	1.125833	-0.404844	0.122196
O8	O	1.118441	-0.142922	0.303389
O9	O	1.285341	-0.377840	0.255819
O10	O	1.239298	-0.122461	0.404633
O11	O	1.053887	-0.303578	0.142702
O12	O	0.958885	-0.276549	0.276307
O13	O	1.118357	-0.330332	0.490654
O14	O	0.958849	-0.357336	0.357032
O15	O	1.239250	-0.229084	0.511174
O16	O	1.125785	-0.511468	0.228737
O17	O	1.053803	-0.490988	0.329968
C18	C	0.930385	-0.316940	0.316668
C19	C	0.843136	-0.316948	0.316678
C20	C	0.827611	-0.253642	0.380134
C21	C	0.745630	-0.253646	0.380137
C22	C	0.679175	-0.316961	0.316686
C23	C	0.694703	-0.380270	0.253223
C24	C	0.776683	-0.380261	0.253217
C25	C	0.523834	-0.380284	0.253239
C26	C	0.441848	-0.380294	0.253245
C27	C	0.492781	-0.253670	0.380159
C28	C	0.574761	-0.253661	0.380154
C29	C	0.590283	-0.316971	0.316691
C30	C	1.082590	-0.531135	0.273311
C31	C	1.060533	-0.622755	0.254785
C32	C	1.302469	-0.870468	0.457685
C33	C	1.281714	-0.956561	0.440262
C34	C	1.155908	-0.977995	0.334735
C35	C	1.176654	-0.891902	0.352147
C36	C	1.249935	-0.838145	0.413623
C37	C	1.124120	-0.859579	0.308084
C38	C	1.144863	-0.773493	0.325497
C39	C	1.218139	-0.719730	0.386973
C40	C	1.270677	-0.752059	0.431036
C41	C	1.050837	-0.913337	0.246612
C42	C	0.998304	-0.881014	0.202550
C43	C	1.019048	-0.794927	0.219959
C44	C	1.092324	-0.741164	0.281434
C45	C	0.966510	-0.762598	0.175895
C46	C	0.987252	-0.676512	0.193308
C47	C	1.113067	-0.655078	0.298847
C48	C	1.339075	-0.316980	0.316696
C49	C	1.426324	-0.316989	0.316702
C50	C	1.186224	-0.273492	0.531655
C51	C	1.208337	-0.254969	0.623264
C52	C	1.186301	-0.101944	0.360240
C53	C	1.208448	-0.010317	0.378801
C54	C	0.966380	-0.457626	0.871136
C55	C	0.987178	-0.440210	0.957219
C56	C	1.113054	-0.334790	0.978574
C57	C	1.092264	-0.352195	0.892492
C58	C	1.018927	-0.413614	0.838779
C59	C	1.144811	-0.308182	0.860134
C60	C	1.124025	-0.325588	0.774059
C61	C	1.050692	-0.387007	0.720341
C62	C	0.998141	-0.431020	0.752704
C63	C	1.218151	-0.246767	0.913847
C64	C	1.270697	-0.202755	0.881490
C65	C	1.249909	-0.220157	0.795415
C66	C	1.176576	-0.281575	0.741697
C67	C	1.302460	-0.176144	0.763052
C68	C	1.281674	-0.193550	0.676977
C69	C	1.155791	-0.298981	0.655621
C70	C	1.082627	-0.360278	1.102540
C71	C	1.060501	-0.378806	1.010930
H72	H	0.732997	-0.202098	0.431811
H73	H	1.235073	-0.232600	0.983934
C74	C	0.368749	-0.449938	0.183444
C75	C	0.305351	-0.507525	0.205931
C76	C	0.232252	-0.577170	0.136128
C77	C	0.222552	-0.589228	0.043838
C78	C	0.285952	-0.531638	0.021346
C79	C	0.359051	-0.461993	0.091149
H80	H	0.312529	-0.498602	0.274254
H81	H	0.185319	-0.619802	0.152779
H82	H	0.168440	-0.640783	-0.007835
H83	H	0.278773	-0.540562	-0.046977
H84	H	0.405984	-0.419362	0.074499
H85	H	1.324491	-0.982872	0.476160
H86	H	0.938637	-0.924794	0.152498
H87	H	1.362175	-0.126142	0.806796
C88	C	1.351364	-0.135194	0.940579
C89	C	1.418650	-0.158951	0.992518
C90	C	1.499316	-0.091386	1.051606
C91	C	1.512696	-0.000066	1.058755
C92	C	1.445408	0.023695	1.006815
C93	C	1.364742	-0.043869	0.947727
H94	H	1.408747	-0.226555	0.987227
H95	H	1.549126	-0.108976	1.090056
H96	H	1.572409	0.049949	1.102496
H97	H	1.455311	0.091300	1.012106
H98	H	1.314931	-0.026280	0.909277
C99	C	0.929390	-0.488636	0.992822
C100	C	0.910316	-0.584741	0.962004
C101	C	0.852541	-0.633171	0.997612
C102	C	0.813842	-0.585496	1.064038
C103	C	0.832916	-0.489385	1.094860
C104	C	0.890690	-0.440955	1.059252
H105	H	0.938964	-0.620037	0.912828
H106	H	0.838422	-0.704318	0.974795
H107	H	0.771074	-0.621347	1.090397
H108	H	0.804267	-0.454089	1.144036
H109	H	0.904810	-0.369808	1.082069
C110	C	0.540912	-0.449925	0.183432
C111	C	0.508670	-0.462002	0.091139
C112	C	0.525750	-0.531643	0.021337
C113	C	0.575073	-0.589207	0.043828
C114	C	0.607318	-0.577132	0.136126
C115	C	0.590238	-0.507492	0.205928
H116	H	0.472156	-0.419388	0.074486
H117	H	0.501880	-0.540581	-0.046988
H118	H	0.587717	-0.640759	-0.007843
H119	H	0.643832	-0.619747	0.152779
H120	H	0.614108	-0.498554	0.274252
H121	H	1.033946	-0.983431	0.232444
H122	H	1.324462	-0.157709	0.650632
C123	C	1.075129	-0.366553	0.596517
C124	C	1.007849	-0.342806	0.544560
C125	C	0.927199	-0.410380	0.485449
C126	C	0.913828	-0.501701	0.478295
C127	C	0.981110	-0.525453	0.530254
C128	C	1.061761	-0.457878	0.589364
H129	H	1.017745	-0.275200	0.549855
H130	H	0.877392	-0.392797	0.446987
H131	H	0.854126	-0.551724	0.434538
H132	H	0.971215	-0.593058	0.524959
H133	H	1.111567	-0.475461	0.627827
H134	H	1.033772	-0.401181	0.650253
H135	H	0.628869	-0.202109	0.431825
H136	H	1.096242	-1.021775	0.284683
H137	H	0.938409	-0.481014	0.708972
H138	H	0.640589	-0.431818	0.201556
C139	C	1.193720	-0.267229	1.037662
C140	C	1.261006	-0.290986	1.089601
C141	C	1.341672	-0.223422	1.148689
C142	C	1.355052	-0.132101	1.155839
C143	C	1.287764	-0.108340	1.103898
C144	C	1.207098	-0.175905	1.044810
H145	H	1.251103	-0.358591	1.084310
H146	H	1.391483	-0.241011	1.187139
H147	H	1.414765	-0.082086	1.199579
H148	H	1.297667	-0.040736	1.109189
H149	H	1.157287	-0.158315	1.006360
C150	C	0.885904	-0.821738	0.108276
C151	C	0.872612	-0.828879	0.016973
C152	C	0.792005	-0.888018	-0.050647
C153	C	0.724690	-0.940016	-0.026966
C154	C	0.737980	-0.932877	0.064341
C155	C	0.818587	-0.873737	0.131962
H156	H	0.922444	-0.790385	-0.000562
H157	H	0.782167	-0.893303	-0.118239
H158	H	0.665020	-0.983795	-0.077022
H159	H	0.688147	-0.971370	0.081876
H160	H	0.828424	-0.868452	0.199553
C161	C	0.900709	-0.183994	0.449933
C162	C	0.883629	-0.114356	0.519731
C163	C	0.956725	-0.044704	0.589530
C164	C	1.046901	-0.044690	0.589531
C165	C	1.063986	-0.114330	0.519731
C166	C	0.990890	-0.183982	0.449932
H167	H	0.816871	-0.114364	0.519732
H168	H	0.944077	0.006849	0.641201
H169	H	1.101012	0.006871	0.641201
H170	H	1.130744	-0.114322	0.519729
H171	H	1.003538	-0.235535	0.398261
H172	H	0.789319	-0.431811	0.201544
C173	C	0.475718	-0.184027	0.449976
C174	C	0.426327	-0.206791	0.507371
C175	C	0.409262	-0.137156	0.577192
C176	C	0.441589	-0.044757	0.589618
C177	C	0.490983	-0.021989	0.532221
C178	C	0.508047	-0.091624	0.462400
H179	H	0.402394	-0.275194	0.498174
H180	H	0.372697	-0.154011	0.619681
H181	H	0.428956	0.006791	0.641304
H182	H	0.514915	0.046414	0.541417
H183	H	0.544612	-0.074769	0.419911
C184	C	1.193681	-0.595935	0.366464
C185	C	1.278481	-0.609055	0.357431
C186	C	1.359092	-0.549910	0.425043
C187	C	1.354903	-0.477647	0.501686
C188	C	1.270100	-0.464524	0.510721
C189	C	1.189489	-0.523668	0.443110
H190	H	1.281584	-0.662551	0.300693
H191	H	1.421868	-0.559625	0.418354
H192	H	1.414576	-0.433865	0.551735
H193	H	1.266997	-0.411027	0.567460
H194	H	1.126713	-0.513953	0.449799
H195	H	0.906648	-0.507620	0.827404
H196	H	0.944473	-0.650195	0.157429
C197	C	1.383083	-0.811325	0.525302
C198	C	1.467883	-0.824444	0.516270
C199	C	1.548494	-0.765300	0.583881
C200	C	1.544305	-0.693037	0.660524
C201	C	1.459502	-0.679914	0.669559
C202	C	1.378891	-0.739058	0.601948
H203	H	1.470986	-0.877941	0.459531
H204	H	1.611270	-0.775015	0.577192
H205	H	1.603978	-0.649255	0.710574
H206	H	1.456398	-0.626417	0.726298
H207	H	1.316115	-0.729343	0.608637
C208	C	1.351292	-0.692915	0.498653
C209	C	1.436091	-0.706035	0.489621
C210	C	1.516702	-0.646891	0.557232
C211	C	1.512514	-0.574627	0.633875
C212	C	1.427711	-0.561504	0.642910
C213	C	1.347100	-0.620649	0.575299
H214	H	1.439195	-0.759532	0.432882
H215	H	1.579479	-0.656606	0.550543
H216	H	1.572187	-0.530845	0.683924
H217	H	1.424607	-0.508008	0.699649
H218	H	1.284323	-0.610934	0.581988
H219	H	1.235026	-0.649634	0.401149
