data_functionalizedCrystal
_audit_creation_method	'MofGen! by Chris Wilmer'
_symmetry_space_group_name_H-M	'P1'
_symmetry_Int_Tables_number	1
_symmetry_cell_setting	triclinic
loop_
_symmetry_equiv_pos_as_xyz
  x,y,z
_cell_length_a	15.995292
_cell_length_b	15.995292
_cell_length_c	9.130307
_cell_angle_alpha	89.999900
_cell_angle_beta	89.997308
_cell_angle_gamma	83.468616
loop_
_atom_site_label
_atom_site_type_symbol
_atom_site_fract_x
_atom_site_fract_y
_atom_site_fract_z
O1	O	1.110990	0.107696	-0.121829
O2	O	0.867205	0.121075	-0.121821
O3	O	0.995787	-0.007507	-0.121827
O4	O	0.982408	0.236278	-0.121823
O5	O	0.995783	-0.007508	0.121772
O6	O	0.867201	0.121074	0.121778
O7	O	1.110986	0.107695	0.121770
Cu8	Cu	0.989093	0.114384	0.144017
Cu9	Cu	0.989098	0.114386	-0.144068
O10	O	0.982404	0.236277	0.121776
C11	C	0.836008	0.120530	-0.000021
C12	C	0.743055	0.118898	-0.000019
C13	C	0.995240	-0.038703	-0.000032
C14	C	0.993608	-0.131655	-0.000043
C15	C	0.405318	0.112896	-0.000036
C16	C	0.428611	0.205703	-0.000578
C17	C	0.525286	0.207467	-0.000022
C18	C	0.572873	0.115874	-0.000028
C19	C	0.543779	0.069474	0.139073
C20	C	0.446988	0.068357	0.139183
C21	C	0.447138	0.066463	-0.137835
C22	C	0.543630	0.069903	-0.139667
C23	C	0.667569	0.117552	-0.000019
C24	C	0.310622	0.111215	-0.000035
C25	C	0.987607	-0.469393	-0.000029
C26	C	1.080413	-0.446100	0.000513
C27	C	1.082177	-0.349424	-0.000042
C28	C	0.990584	-0.301837	-0.000035
C29	C	0.944188	-0.330928	-0.139136
C30	C	0.943071	-0.427718	-0.139247
C31	C	0.941171	-0.427576	0.137771
C32	C	0.944610	-0.331084	0.139604
C33	C	0.992263	-0.207141	-0.000043
C34	C	0.985926	-0.564088	-0.000031
C35	C	1.142183	0.108240	-0.000033
C36	C	1.235136	0.109873	-0.000045
C37	C	0.982951	0.267473	-0.000023
C38	C	0.984583	0.360426	-0.000021
N39	N	0.989096	0.114383	0.346639
N40	N	0.989102	0.114381	-0.346690
C41	C	1.103001	0.000556	0.346624
C42	C	1.159959	-0.056354	0.423283
C43	C	1.159968	-0.056355	0.576617
C44	C	1.103010	0.000560	0.653294
C45	C	1.046052	0.057471	0.576635
C46	C	1.046051	0.057467	0.423298
C47	C	0.932144	0.171292	0.576651
C48	C	0.932138	0.171298	0.423317
C49	C	0.875186	0.228206	0.653328
C50	C	0.818231	0.285122	0.576669
C51	C	0.818225	0.285121	0.423327
C52	C	0.875180	0.228208	0.346658
H53	H	0.544307	0.243800	-0.099739
Cl54	Cl	0.574730	0.119219	0.298909
H55	H	0.875183	0.228205	0.221806
H56	H	1.118732	-0.331027	-0.099931
Cl57	Cl	0.875191	0.228204	0.846092
Cl58	Cl	1.103007	0.000562	0.153861
H59	H	0.575661	0.002074	0.144241
H60	H	0.975206	-0.454541	-0.243233
H61	H	0.400609	0.241475	-0.100334
Cl62	Cl	1.231557	-0.127904	0.326886
H63	H	1.103013	0.000549	0.778147
Cl64	Cl	0.746611	0.356667	0.326969
Cl65	Cl	0.996761	-0.302425	0.298488
H66	H	1.206345	-0.102700	0.639033
H67	H	0.432452	0.000311	0.145498
H68	H	1.116184	-0.474105	0.100268
H69	H	0.576614	0.003049	-0.148073
H70	H	0.399583	0.241276	0.098619
H71	H	0.433159	-0.001849	-0.138779
H72	H	0.875024	-0.442254	-0.145545
Cl73	Cl	0.553692	0.263901	0.154200
H74	H	0.420163	0.100491	0.243168
H75	H	0.771856	0.331455	0.639110
Cl76	Cl	0.403409	0.111261	-0.300614
H77	H	0.877756	-0.298101	0.148010
H78	H	0.976410	-0.310874	-0.242659
H79	H	1.118514	-0.330407	0.099669
H80	H	0.562194	0.103686	-0.242573
Cl81	Cl	0.985995	-0.471276	0.300551
Cl82	Cl	1.135343	-0.490908	-0.152640
Cl83	Cl	0.840128	-0.281702	-0.147128
H84	H	0.872858	-0.441553	0.138713
