data_functionalizedCrystal
_audit_creation_method	'MofGen! by Chris Wilmer'
_symmetry_space_group_name_H-M	'P1'
_symmetry_Int_Tables_number	1
_symmetry_cell_setting	triclinic
loop_
_symmetry_equiv_pos_as_xyz
  x,y,z
_cell_length_a	11.026607
_cell_length_b	15.944551
_cell_length_c	10.065875
_cell_angle_alpha	98.788968
_cell_angle_beta	79.302338
_cell_angle_gamma	96.042377
loop_
_atom_site_label
_atom_site_type_symbol
_atom_site_fract_x
_atom_site_fract_y
_atom_site_fract_z
O1	O	1.627949	0.342077	-0.113512
O2	O	2.127949	0.842077	0.386488
O3	O	1.274640	0.302024	-0.113511
O4	O	1.774640	0.802024	0.386489
O5	O	1.460941	0.201235	-0.113499
O6	O	1.960941	0.701235	0.386501
O7	O	1.441648	0.442866	-0.113524
O8	O	1.941648	0.942866	0.386476
O9	O	1.425416	0.220553	0.113487
O10	O	1.925416	0.720553	0.613487
O11	O	1.239115	0.321342	0.113475
O12	O	1.739115	0.821342	0.613475
O13	O	1.592424	0.361394	0.113475
O14	O	2.092424	0.861394	0.613475
Zn15	Zn	1.410129	0.344435	0.149514
Zn16	Zn	1.910129	0.844435	0.649514
Zn17	Zn	1.456935	0.318983	-0.149550
Zn18	Zn	1.956935	0.818983	0.350450
O19	O	1.406123	0.462183	0.113463
O20	O	1.906123	0.962183	0.613463
C21	C	1.211666	0.304294	-0.000018
C22	C	1.711666	0.804294	0.499982
C23	C	1.076950	0.282267	-0.000017
C24	C	1.576950	0.782267	0.499983
C25	C	1.442377	0.179479	-0.000006
C26	C	1.942377	0.679479	0.499994
C27	C	1.439975	0.085870	-0.000005
C28	C	1.939975	0.585870	0.499995
C29	C	1.003150	0.343086	-0.000024
C30	C	1.503150	0.843086	0.499976
C31	C	0.863914	0.320322	-0.000024
C32	C	1.363914	0.820322	0.499976
C33	C	1.318759	-0.147313	-0.000024
C34	C	1.818759	0.352687	0.499976
C35	C	1.357533	-0.190296	0.111894
C36	C	1.857533	0.309704	0.611894
C37	C	1.435632	-0.085514	-0.000015
C38	C	1.935632	0.414486	0.499985
C39	C	1.392586	-0.209321	-0.111896
C40	C	1.892586	0.290679	0.388104
C41	C	1.431429	-0.251063	-0.000031
C42	C	1.931429	0.248937	0.499969
C43	C	1.474424	-0.127256	0.111995
C44	C	1.974424	0.372744	0.611995
C45	C	1.509476	-0.146286	-0.111896
C46	C	2.009476	0.353714	0.388104
C47	C	1.548331	-0.189236	0.000049
C48	C	2.048331	0.310764	0.500049
C49	C	1.438050	0.009855	-0.000005
C50	C	1.938050	0.509855	0.499995
C51	C	1.429019	-0.346429	-0.000032
C52	C	1.929019	0.153571	0.499968
C53	C	1.655399	0.359124	-0.000022
C54	C	2.155399	0.859124	0.499978
C55	C	1.790116	0.381150	-0.000031
C56	C	2.290116	0.881150	0.499969
C57	C	1.424687	0.483939	-0.000034
C58	C	1.924687	0.983939	0.499966
C59	C	1.427090	0.577548	-0.000043
C60	C	1.927090	1.077548	0.499957
N61	N	1.378194	0.361806	0.353617
N62	N	1.878194	0.861806	0.853617
N63	N	1.488879	0.301607	-0.353654
N64	N	1.988879	0.801607	0.146346
C65	C	1.445816	0.325021	0.421401
C66	C	1.945816	0.825021	0.921401
C67	C	1.421248	0.338398	0.578566
C68	C	1.921248	0.838398	1.078566
H69	H	1.043047	0.412009	-0.000024
H70	H	1.543047	0.912009	0.499976
C71	C	1.270745	-0.216683	0.239715
C72	C	1.770745	0.283317	0.739715
N73	N	1.205370	-0.236557	0.335985
N74	N	1.705370	0.263443	0.835985
C75	C	1.521118	-0.079275	0.239964
C76	C	2.021118	0.420725	0.739964
N77	N	1.556281	-0.043134	0.336352
N78	N	2.056281	0.456866	0.836352
H79	H	0.830005	0.450078	-0.000029
H80	H	1.330005	0.950078	0.499971
C81	C	1.591677	0.245681	0.567570
C82	C	2.091677	0.745681	1.067570
N83	N	1.669106	0.203562	0.508234
N84	N	2.169106	0.703562	1.008234
C85	C	1.023056	0.189153	-0.000008
C86	C	1.523056	0.689153	0.499992
N87	N	0.982465	0.119018	-0.000003
N88	N	1.482465	0.619018	0.499997
C89	C	1.275404	0.417730	0.432402
C90	C	1.775404	0.917730	0.932402
N91	N	1.197979	0.459852	0.491741
N92	N	1.697979	0.959852	0.991741
C93	C	0.810026	0.227204	-0.000015
C94	C	1.310026	0.727204	0.499985
N95	N	0.769435	0.157068	-0.000010
N96	N	1.269435	0.657068	0.499990
C97	C	1.187681	-0.122106	0.000129
C98	C	1.687681	0.377894	0.500129
N99	N	1.088956	-0.103117	0.000253
N100	N	1.588956	0.396883	0.500253
H101	H	1.645418	-0.207712	0.000112
H102	H	2.145418	0.292288	0.500112
H103	H	1.573676	-0.126742	-0.206519
H104	H	2.073676	0.373258	0.293481
H105	H	1.345156	0.379794	0.636882
H106	H	1.845156	0.879794	1.136882
C107	C	1.345783	-0.257434	-0.239718
C108	C	1.845783	0.242566	0.260282
N109	N	1.310522	-0.293668	-0.335988
N110	N	1.810522	0.206332	0.164012
H111	H	1.521895	0.283620	0.363081
H112	H	2.021895	0.783620	0.863081
