data_functionalizedCrystal
_audit_creation_method	'MofGen! by Chris Wilmer'
_symmetry_space_group_name_H-M	'P1'
_symmetry_Int_Tables_number	1
_symmetry_cell_setting	triclinic
loop_
_symmetry_equiv_pos_as_xyz
  x,y,z
_cell_length_a	18.215407
_cell_length_b	29.839132
_cell_length_c	18.215399
_cell_angle_alpha	90.033088
_cell_angle_beta	89.982632
_cell_angle_gamma	89.957293
loop_
_atom_site_label
_atom_site_type_symbol
_atom_site_fract_x
_atom_site_fract_y
_atom_site_fract_z
Zn1	Zn	1.124968	0.178889	-0.416041
Zn2	Zn	1.624968	0.678889	0.083959
Zn3	Zn	1.124832	0.254018	-0.292964
Zn4	Zn	1.624832	0.754018	0.207036
Zn5	Zn	1.001900	0.178899	-0.292994
Zn6	Zn	1.501900	0.678899	0.207006
Zn7	Zn	1.001822	0.253989	-0.415994
Zn8	Zn	1.501822	0.753989	0.084006
O9	O	1.063381	0.216449	-0.354498
O10	O	1.563381	0.716449	0.145502
O11	O	1.227934	0.188862	-0.399722
O12	O	1.727934	0.688862	0.100278
O13	O	1.108501	0.244070	-0.189983
O14	O	1.608501	0.744070	0.310017
O15	O	1.018315	0.116031	-0.309349
O16	O	1.518315	0.616031	0.190651
O17	O	1.227835	0.244059	-0.309297
O18	O	1.727835	0.744059	0.190703
O19	O	1.108732	0.116023	-0.399751
O20	O	1.608732	0.616023	0.100249
O21	O	1.018183	0.188881	-0.190005
O22	O	1.518183	0.688881	0.309995
O23	O	0.898906	0.188853	-0.309303
O24	O	1.398906	0.688853	0.190697
O25	O	1.018182	0.244010	-0.518985
O26	O	1.518182	0.744010	-0.018985
O27	O	0.898848	0.244021	-0.399671
O28	O	1.398848	0.744021	0.100329
O29	O	1.108656	0.188834	-0.519019
O30	O	1.608656	0.688834	-0.019019
O31	O	1.108426	0.316881	-0.309252
O32	O	1.608426	0.816881	0.190748
O33	O	1.018051	0.316860	-0.399642
O34	O	1.518051	0.816860	0.100358
C35	C	0.872174	0.216435	-0.354485
C36	C	1.372174	0.716435	0.145515
C37	C	0.790376	0.216440	-0.354497
C38	C	1.290376	0.716440	0.145503
C39	C	0.602232	0.187758	-0.401656
C40	C	1.102232	0.687758	0.098344
C41	C	0.525374	0.187762	-0.401658
C42	C	1.025374	0.687762	0.098342
C43	C	0.525281	0.245152	-0.307354
C44	C	1.025281	0.745152	0.192646
C45	C	0.602138	0.245146	-0.307348
C46	C	1.102138	0.745146	0.192652
C47	C	0.640612	0.216449	-0.354503
C48	C	1.140612	0.716449	0.145497
C49	C	0.486896	0.216460	-0.354511
C50	C	0.986896	0.716460	0.145489
C51	C	0.403562	0.216464	-0.354514
C52	C	0.903562	0.716464	0.145486
C53	C	0.723951	0.216444	-0.354500
C54	C	1.223951	0.716444	0.145500
C55	C	1.063235	0.333171	-0.354454
C56	C	1.563235	0.833171	0.145546
C57	C	1.063240	0.383106	-0.354460
C58	C	1.563240	0.883106	0.145540
C59	C	1.110472	0.692748	-0.307471
C60	C	1.610472	1.192748	0.192529
C61	C	1.110542	0.880421	-0.307488
C62	C	1.610542	1.380421	0.192512
O63	O	1.150622	0.904684	-0.267523
O64	O	1.650622	1.404684	0.232477
N65	N	1.063458	0.903891	-0.354510
N66	N	1.563458	1.403891	0.145490
C67	C	1.016356	0.880440	-0.401535
C68	C	1.516356	1.380440	0.098465
O69	O	0.976314	0.904709	-0.441537
O70	O	1.476314	1.404709	0.058463
C71	C	1.016290	0.692768	-0.401522
C72	C	1.516290	1.192768	0.098478
C73	C	1.063372	0.669300	-0.354491
C74	C	1.563372	1.169300	0.145509
C75	C	1.157551	0.669280	-0.260444
C76	C	1.657551	1.169280	0.239556
C77	C	1.157530	0.622364	-0.260438
C78	C	1.657530	1.122364	0.239562
C79	C	1.110430	0.598917	-0.307458
C80	C	1.610430	1.098917	0.192542
C81	C	1.063351	0.622384	-0.354484
C82	C	1.563351	1.122384	0.145516
C83	C	0.969192	0.669318	-0.448550
C84	C	1.469192	1.169318	0.051450
C85	C	0.969181	0.622397	-0.448544
C86	C	1.469181	1.122397	0.051456
C87	C	1.016263	0.598929	-0.401513
C88	C	1.516263	1.098929	0.098487
C89	C	1.016230	0.552021	-0.401498
C90	C	1.516230	1.052021	0.098502
N91	N	1.063315	0.528551	-0.354475
N92	N	1.563315	1.028551	0.145525
C93	C	1.110415	0.551999	-0.307455
C94	C	1.610415	1.051999	0.192545
C95	C	1.016393	0.978970	-0.401538
C96	C	1.516393	1.478970	0.098462
C97	C	1.016408	1.025888	-0.401541
C98	C	1.516408	1.525888	0.098459
C99	C	1.110596	1.025866	-0.307494
C100	C	1.610596	1.525866	0.192506
C101	C	1.110576	0.978947	-0.307488
C102	C	1.610576	1.478947	0.192512
C103	C	1.063477	0.955500	-0.354515
C104	C	1.563477	1.455500	0.145485
C105	C	1.110367	0.453473	-0.307445
C106	C	1.610367	0.953473	0.192555
C107	C	1.110340	0.406553	-0.307440
C108	C	1.610340	0.906553	0.192560
C109	C	1.016155	0.406580	-0.401490
C110	C	1.516155	0.906580	0.098510
C111	C	1.016179	0.453495	-0.401492
C112	C	1.516179	0.953495	0.098508
C113	C	1.063291	0.476941	-0.354467
C114	C	1.563291	0.976941	0.145533
O115	O	0.976178	0.527729	-0.441448
O116	O	1.476178	1.027729	0.058552
O117	O	1.150462	0.527722	-0.267471
O118	O	1.650462	1.027722	0.232529
C119	C	1.110493	0.739663	-0.307477
C120	C	1.610493	1.239663	0.192523
C121	C	1.063414	0.763131	-0.354504
C122	C	1.563414	1.263131	0.145496
C123	C	1.016314	0.739683	-0.401524
C124	C	1.516314	1.239683	0.098476
C125	C	1.063429	0.810049	-0.354507
C126	C	1.563429	1.310049	0.145493
C127	C	1.110529	0.833496	-0.307486
C128	C	1.610529	1.333496	0.192514
C129	C	1.157614	0.810026	-0.260464
C130	C	1.657614	1.310026	0.239536
C131	C	1.157593	0.763111	-0.260457
C132	C	1.657593	1.263111	0.239543
C133	C	0.969229	0.763153	-0.448547
C134	C	1.469229	1.263153	0.051453
C135	C	0.969253	0.810069	-0.448549
C136	C	1.469253	1.310069	0.051451
C137	C	1.016353	0.833516	-0.401529
C138	C	1.516353	1.333516	0.098471
C139	C	1.255334	0.216463	-0.354512
C140	C	1.755334	0.716463	0.145488
C141	C	1.337132	0.216469	-0.354517
C142	C	1.837132	0.716469	0.145483
C143	C	1.063426	0.216418	-0.546451
C144	C	1.563426	0.716418	-0.046451
C145	C	1.063445	0.216405	-0.628250
C146	C	1.563445	0.716405	-0.128250
C147	C	1.063519	1.099270	-0.354542
C148	C	1.563519	1.599270	0.145458
C149	C	1.063508	1.049336	-0.354521
C150	C	1.563508	1.549336	0.145479
C151	C	1.110572	0.187648	-0.816463
C152	C	1.610572	0.687648	-0.316463
C153	C	1.110580	0.187634	-0.893322
C154	C	1.610580	0.687634	-0.393322
C155	C	1.016370	0.245092	-0.893275
C156	C	1.516370	0.745092	-0.393275
C157	C	1.016358	0.245103	-0.816417
C158	C	1.516358	0.745103	-0.316417
C159	C	1.063463	0.216381	-0.778014
C160	C	1.563463	0.716381	-0.278014
C161	C	1.063484	0.216357	-0.931730
C162	C	1.563484	0.716357	-0.431730
C163	C	1.063493	0.216343	-1.015064
C164	C	1.563493	0.716343	-0.515064
C165	C	1.063453	0.216394	-0.694675
C166	C	1.563453	0.716394	-0.194675
C167	C	1.063378	0.216447	-0.163292
C168	C	1.563378	0.716447	0.336708
C169	C	1.063502	0.216334	-0.081493
C170	C	1.563502	0.716334	0.418507
H171	H	0.493946	0.268516	-0.268962
H172	H	0.993946	0.768516	0.231038
O173	O	0.643727	0.156803	-0.452509
O174	O	1.143727	0.656803	0.047491
H175	H	0.703619	0.161621	-0.444590
H176	H	1.203619	0.661621	0.055410
O177	O	1.161392	0.156640	-0.934785
O178	O	1.661392	0.656640	-0.434785
H179	H	1.128487	0.133772	-0.969798
H180	H	1.628487	0.633772	-0.469798
H181	H	0.978020	0.268477	-0.924553
H182	H	1.478020	0.768477	-0.424553
H183	H	1.195962	0.829125	-0.222176
H184	H	1.695962	1.329125	0.277824
H185	H	0.494128	0.164398	-0.440053
H186	H	0.994128	0.664398	0.059947
O187	O	0.965524	0.276082	-0.774938
O188	O	1.465524	0.776082	-0.274938
H189	H	0.932771	0.296052	-0.814553
H190	H	1.432771	0.796052	-0.314553
O191	O	0.918469	0.835379	-0.499279
O192	O	1.418469	1.335379	0.000721
H193	H	0.885723	0.811188	-0.531976
H194	H	1.385723	1.311188	-0.031976
H195	H	0.633388	0.268510	-0.268947
H196	H	1.133388	0.768510	0.231053
H197	H	1.148680	0.387447	-0.269139
H198	H	1.648680	0.887447	0.230861
O199	O	1.161173	0.478758	-0.256721
O200	O	1.661173	0.978758	0.243279
H201	H	1.193896	0.454551	-0.224018
H202	H	1.693896	0.954551	0.275982
H203	H	1.148915	0.959842	-0.269192
H204	H	1.648915	1.459842	0.230808
O205	O	1.161412	1.051159	-0.256790
O206	O	1.661412	1.551159	0.243210
H207	H	1.153516	1.087726	-0.264706
H208	H	1.653516	1.587726	0.235294
O209	O	1.208323	0.597055	-0.209723
O210	O	1.708323	1.097055	0.290277
H211	H	1.241080	0.621248	-0.177039
H212	H	1.741080	1.121248	0.322961
O213	O	1.161375	0.156670	-0.775041
O214	O	1.661375	0.656670	-0.275041
H215	H	1.128465	0.133819	-0.740026
H216	H	1.628465	0.633819	-0.240026
H217	H	1.195910	0.688366	-0.222155
H218	H	1.695910	1.188366	0.277845
H219	H	0.930849	0.688417	-0.486844
H220	H	1.430849	1.188417	0.013156
H221	H	0.930828	0.603308	-0.486842
H222	H	1.430828	1.103308	0.013158
O223	O	0.965619	1.051200	-0.452257
O224	O	1.465619	1.551200	0.047743
H225	H	0.978209	1.042167	-0.510026
H226	H	1.478209	1.542167	-0.010026
O227	O	0.965573	0.953683	-0.452246
O228	O	1.465573	1.453683	0.047754
H229	H	0.932829	0.977890	-0.484929
H230	H	1.432829	1.477890	0.015071
H231	H	0.977843	0.472604	-0.439790
H232	H	1.477843	0.972604	0.060210
O233	O	0.965359	0.381286	-0.452207
O234	O	1.465359	0.881286	0.047793
H235	H	0.973266	0.344720	-0.444304
H236	H	1.473266	0.844720	0.055696
H237	H	1.195932	0.744007	-0.222160
H238	H	1.695932	1.244007	0.277840
H239	H	0.930876	0.744066	-0.486837
H240	H	1.430876	1.244066	0.013163
