data_functionalizedCrystal
_audit_creation_method	'MofGen! by Chris Wilmer'
_symmetry_space_group_name_H-M	'P1'
_symmetry_Int_Tables_number	1
_symmetry_cell_setting	triclinic
loop_
_symmetry_equiv_pos_as_xyz
  x,y,z
_cell_length_a	16.109301
_cell_length_b	17.038272
_cell_length_c	15.186229
_cell_angle_alpha	89.995962
_cell_angle_beta	89.999362
_cell_angle_gamma	87.286518
loop_
_atom_site_label
_atom_site_type_symbol
_atom_site_fract_x
_atom_site_fract_y
_atom_site_fract_z
O1	O	1.110268	0.100495	-0.073174
O2	O	0.869094	0.113001	-0.073188
O3	O	0.988247	-0.007067	-0.073174
O4	O	0.991114	0.220563	-0.073187
O5	O	0.988239	-0.007069	0.073284
O6	O	0.869085	0.113000	0.073270
O7	O	1.110259	0.100493	0.073284
Zn8	Zn	0.989671	0.106746	0.096530
Zn9	Zn	0.989682	0.106748	-0.096434
O10	O	0.991105	0.220562	0.073270
C11	C	0.838079	0.112494	0.000039
C12	C	0.745676	0.110975	0.000034
C13	C	0.985636	-0.036196	0.000055
C14	C	0.977857	-0.122989	0.000054
C15	C	0.528212	0.178690	0.000040
C16	C	0.441390	0.177257	0.000046
C17	C	0.451147	0.034799	0.000051
C18	C	0.537968	0.036233	0.000051
C19	C	0.576498	0.108181	0.000042
C20	C	0.402855	0.105314	0.000047
C21	C	0.308719	0.103759	0.000053
C22	C	0.670640	0.109736	0.000037
C23	C	1.049277	-0.173104	0.000059
C24	C	1.041963	-0.254654	0.000050
C25	C	0.963228	-0.286089	0.000043
C26	C	0.891802	-0.235967	0.000035
C27	C	0.899116	-0.154418	0.000038
C28	C	0.937385	-0.531846	0.000029
C29	C	0.930076	-0.613402	0.000029
C30	C	1.080238	-0.632083	0.000043
C31	C	1.087546	-0.550532	0.000051
C32	C	1.016120	-0.500418	0.000038
C33	C	0.955749	-0.369446	0.000037
C34	C	1.023599	-0.417062	0.000038
C35	C	1.141274	0.101001	0.000055
C36	C	1.233677	0.102519	0.000054
C37	C	0.993717	0.249691	0.000039
C38	C	1.001496	0.336484	0.000034
N39	N	0.989669	0.106744	0.228223
N40	N	0.989690	0.106744	-0.228126
C41	C	1.042451	0.053596	0.453952
C42	C	1.042453	0.053594	0.546141
C43	C	0.936902	0.159895	0.546138
C44	C	0.936896	0.159893	0.453950
C45	C	0.989675	0.106744	0.407859
C46	C	0.989684	0.106745	0.592237
C47	C	0.989686	0.106743	0.692193
C48	C	0.989672	0.106744	0.307897
H49	H	0.559580	0.237274	0.000039
H50	H	0.577284	-0.021187	0.000055
C51	C	0.844566	-0.647491	-0.000169
C52	C	0.801068	-0.622037	-0.075539
C53	C	0.722304	-0.653434	-0.075757
H54	H	0.814801	-0.630315	0.050837
H55	H	0.850411	-0.703239	-0.000214
H56	H	0.795219	-0.566301	-0.075486
H57	H	0.830807	-0.639212	-0.126558
H58	H	0.728149	-0.709182	-0.075802
H59	H	0.692547	-0.636256	-0.024747
H60	H	0.692783	-0.636174	-0.126898
C61	C	0.388922	0.253785	0.000220
C62	C	0.338810	0.257136	0.075580
C63	C	0.290474	0.327629	0.075776
H64	H	0.354777	0.256261	-0.050793
H65	H	0.424278	0.296860	0.000261
H66	H	0.303457	0.214073	0.075531
H67	H	0.372933	0.254673	0.126605
H68	H	0.325830	0.370704	0.075818
H69	H	0.256334	0.330099	0.024760
H70	H	0.256472	0.329915	0.126911
C71	C	1.134838	-0.139131	0.000019
C72	C	1.195818	-0.200478	-0.000004
C73	C	1.274648	-0.169216	-0.000057
H74	H	1.140932	-0.107722	0.051078
H75	H	1.140857	-0.107727	-0.051074
H76	H	1.189802	-0.231870	0.051084
H77	H	1.189752	-0.231892	-0.051060
H78	H	1.280667	-0.137811	-0.051151
H79	H	1.280733	-0.137807	0.051002
H80	H	1.316032	-0.210834	-0.000082
C81	C	0.859865	-0.477409	-0.000159
C82	C	0.859664	-0.430057	-0.075521
C83	C	0.788256	-0.379905	-0.075731
H84	H	0.859513	-0.445136	0.050852
H85	H	0.811908	-0.507788	-0.000209
H86	H	0.907608	-0.399681	-0.075464
H87	H	0.860003	-0.462309	-0.126545
H88	H	0.740299	-0.410284	-0.075780
H89	H	0.787911	-0.347638	-0.024716
H90	H	0.788107	-0.347776	-0.126866
H91	H	1.085427	0.010315	0.583667
C92	C	0.821474	-0.100135	0.000076
C93	C	0.750954	-0.145115	0.000092
C94	C	0.679413	-0.095137	0.000134
H95	H	0.821095	-0.067915	-0.050984
H96	H	0.821154	-0.067947	0.051169
H97	H	0.751274	-0.177289	-0.050995
H98	H	0.751305	-0.177334	0.051148
H99	H	0.679093	-0.062950	0.051226
H100	H	0.679043	-0.062920	-0.050927
H101	H	0.631557	-0.125649	0.000153
C102	C	0.409468	-0.043392	0.000093
C103	C	0.470340	-0.104834	0.000117
C104	C	0.431979	-0.176875	0.000163
H105	H	0.375809	-0.047019	-0.050968
H106	H	0.375820	-0.046959	0.051184
H107	H	0.503974	-0.101268	-0.050969
H108	H	0.504002	-0.101232	0.051175
H109	H	0.398331	-0.180443	0.051255
H110	H	0.398322	-0.180495	-0.050899
H111	H	0.473275	-0.218572	0.000188
H112	H	0.827693	-0.261567	0.000023
H113	H	1.087705	-0.391465	0.000025
C114	C	1.119481	-0.309099	-0.000127
C115	C	1.119691	-0.356437	-0.075492
C116	C	1.191096	-0.406592	-0.075695
H117	H	1.119823	-0.341382	0.050883
H118	H	1.167439	-0.278723	-0.000166
H119	H	1.071745	-0.386811	-0.075445
H120	H	1.119361	-0.324176	-0.126514
H121	H	1.239055	-0.376216	-0.075734
H122	H	1.191432	-0.438869	-0.024682
H123	H	1.191252	-0.438712	-0.126833
C124	C	0.879699	0.217568	0.596341
C125	C	0.891017	0.206212	0.686941
C126	C	0.838345	0.259337	0.733213
H127	H	0.823578	0.209116	0.581347
H128	H	0.892427	0.269767	0.581274
H129	H	0.878283	0.154026	0.702002
H130	H	0.947127	0.214671	0.701961
H131	H	0.851073	0.311535	0.718146
H132	H	0.782226	0.250879	0.718212
H133	H	0.846022	0.251644	0.794690
H134	H	0.893916	0.203173	0.416419
H135	H	1.151661	-0.524945	0.000057
H136	H	1.138389	-0.672894	0.000051
H137	H	0.891642	-0.395049	0.000032
C138	C	1.099776	-0.004200	0.404068
C139	C	1.145978	-0.050760	0.464171
C140	C	1.198785	-0.104020	0.418254
H141	H	1.136445	0.023839	0.368096
H142	H	1.067582	-0.036798	0.368132
H143	H	1.178169	-0.018166	0.500092
H144	H	1.109330	-0.078816	0.500145
H145	H	1.166591	-0.136618	0.382317
H146	H	1.235449	-0.075974	0.382283
H147	H	1.230134	-0.135621	0.459026
