data_functionalizedCrystal
_audit_creation_method	'MofGen! by Chris Wilmer'
_symmetry_space_group_name_H-M	'P1'
_symmetry_Int_Tables_number	1
_symmetry_cell_setting	triclinic
loop_
_symmetry_equiv_pos_as_xyz
  x,y,z
_cell_length_a	14.853569
_cell_length_b	23.532357
_cell_length_c	13.930277
_cell_angle_alpha	89.989902
_cell_angle_beta	89.994756
_cell_angle_gamma	83.231928
loop_
_atom_site_label
_atom_site_type_symbol
_atom_site_fract_x
_atom_site_fract_y
_atom_site_fract_z
O1	O	1.195533	0.074359	-0.079799
O2	O	0.932974	0.083215	-0.079812
O3	O	1.072195	-0.004112	-0.079785
O4	O	1.056313	0.161686	-0.079826
O5	O	1.072175	-0.004114	0.079876
O6	O	0.932955	0.083213	0.079850
O7	O	1.195514	0.074357	0.079863
Zn8	Zn	1.064232	0.078785	0.105206
Zn9	Zn	1.064257	0.078787	-0.105155
O10	O	1.056294	0.161684	0.079836
C11	C	0.899381	0.082813	0.000018
C12	C	0.799311	0.081610	0.000013
C13	C	0.763522	0.029171	0.000023
C14	C	0.741069	0.132918	0.000008
C15	C	0.647047	0.131790	0.000010
C16	C	0.611259	0.079351	0.000019
C17	C	0.669492	0.028041	0.000027
C18	C	0.588807	0.183099	0.000012
C19	C	0.494779	0.181972	0.000014
C20	C	0.458990	0.129533	0.000016
C21	C	0.517229	0.078221	0.000023
C22	C	0.481441	0.025782	0.000033
C23	C	0.539679	-0.025531	0.000033
C24	C	0.633703	-0.024399	0.000029
C25	C	0.364966	0.128401	0.000020
C26	C	0.387411	0.024652	0.000037
C27	C	1.071788	-0.025331	0.000049
C28	C	1.070594	-0.088555	0.000057
C29	C	1.063106	-0.480598	-0.087026
C30	C	1.061970	-0.540003	-0.087032
O31	O	1.061362	-0.570721	-0.161049
N32	N	1.061397	-0.569717	-0.000001
C33	C	1.061950	-0.540024	0.087040
O34	O	1.061357	-0.570753	0.161066
C35	C	1.063079	-0.480620	0.087045
C36	C	1.063661	-0.450909	0.000009
C37	C	1.063687	-0.450887	-0.174055
C38	C	1.064824	-0.391487	-0.174050
C39	C	1.065380	-0.361798	-0.087015
C40	C	1.064798	-0.391509	0.000014
C41	C	1.063625	-0.450927	0.174085
C42	C	1.064753	-0.391519	0.174082
C43	C	1.065336	-0.361808	0.087046
C44	C	1.066491	-0.302420	0.087055
N45	N	1.067064	-0.272705	0.000025
C46	C	1.066509	-0.302394	-0.087010
C47	C	1.059577	-0.664776	0.087024
C48	C	1.058455	-0.724179	0.087021
C49	C	1.058474	-0.724154	-0.087052
C50	C	1.059603	-0.664750	-0.087047
C51	C	1.060151	-0.635061	-0.000006
C52	C	1.068897	-0.177649	-0.086991
C53	C	1.070038	-0.118244	-0.086977
C54	C	1.070014	-0.118275	0.087094
C55	C	1.068878	-0.177675	0.087081
C56	C	1.068317	-0.207361	0.000031
O57	O	1.067096	-0.271663	0.161035
O58	O	1.067090	-0.271657	-0.161023
C59	C	1.229108	0.074759	0.000031
C60	C	1.329178	0.075962	0.000029
C61	C	1.056700	0.182903	0.000000
C62	C	1.057895	0.246127	-0.000015
N63	N	1.064221	0.078783	0.248772
N64	N	1.064275	0.078785	-0.248721
C65	C	1.002608	0.117440	0.701030
C66	C	1.125931	0.040129	0.701023
C67	C	1.125920	0.040128	0.600527
C68	C	1.064253	0.078783	0.550278
C69	C	1.002597	0.117441	0.600525
C70	C	1.187581	0.001475	0.550273
C71	C	1.187573	0.001472	0.449771
C72	C	1.125902	0.040125	0.399520
C73	C	1.064242	0.078784	0.449773
C74	C	1.002576	0.117440	0.399524
C75	C	0.940911	0.156096	0.449775
C76	C	0.940925	0.156095	0.550274
C77	C	1.125888	0.040127	0.299021
C78	C	1.002565	0.117440	0.299019
H79	H	0.810944	-0.012607	0.000019
C80	C	0.874024	0.198154	0.604706
C81	C	0.888100	0.254137	0.580218
C82	C	0.826481	0.292897	0.630333
H83	H	0.882797	0.192700	0.671771
H84	H	0.813897	0.191932	0.588231
H85	H	0.948212	0.260356	0.596699
H86	H	0.879319	0.259609	0.513161
H87	H	0.766354	0.286675	0.613859
H88	H	0.835259	0.287437	0.697396
H89	H	0.836017	0.330885	0.613719
H90	H	0.617953	0.225792	0.000010
H91	H	1.237783	-0.030005	0.408863
C92	C	0.780097	0.189791	-0.000039
C93	C	0.874904	0.179799	-0.000056
C94	C	0.910891	0.232179	-0.000110
H95	H	0.760168	0.210959	0.055622
H96	H	0.760135	0.210931	-0.055740
H97	H	0.894858	0.158668	0.055639
H98	H	0.894858	0.158640	-0.055713
H99	H	0.890929	0.253319	-0.055811
H100	H	0.890956	0.253343	0.055552
H101	H	0.975220	0.225406	-0.000131
C102	C	1.065350	-0.359123	-0.268448
C103	C	1.066417	-0.300739	-0.249835
C104	C	1.066845	-0.270908	-0.336776
H105	H	1.012558	-0.364517	-0.304178
H106	H	1.117724	-0.373092	-0.304316
H107	H	1.014048	-0.286775	-0.213983
H108	H	1.119205	-0.295328	-0.214120
H109	H	1.119219	-0.284877	-0.372644
H110	H	1.014052	-0.276307	-0.372499
H111	H	1.067577	-0.231293	-0.324159
H112	H	1.176098	0.008656	0.258111
H113	H	0.358281	-0.018051	0.000039
H114	H	0.681128	-0.066175	0.000032
H115	H	1.176142	0.008660	0.741939
C116	C	1.058005	-0.756482	0.181485
C117	C	1.134929	-0.796932	0.186598
C118	C	1.134540	-0.826693	0.273611
H119	H	1.005039	-0.775398	0.185183
H120	H	1.058544	-0.730312	0.233349
H121	H	1.134383	-0.823098	0.134748
H122	H	1.187908	-0.778032	0.182917
H123	H	1.135079	-0.800524	0.325474
H124	H	1.081570	-0.845606	0.277300
H125	H	1.186736	-0.854139	0.277095
H126	H	0.447369	0.223755	0.000012
H127	H	0.317553	0.170179	0.000028
H128	H	1.063232	-0.475054	-0.244934
H129	H	0.952399	0.148913	0.741947
C130	C	1.070619	-0.086086	-0.181579
C131	C	1.069862	-0.124804	-0.257799
C132	C	1.070383	-0.095202	-0.344956
H133	H	1.123628	-0.067215	-0.185333
H134	H	1.018462	-0.058617	-0.185252
H135	H	1.122014	-0.152262	-0.254128
H136	H	1.016857	-0.143677	-0.254077
H137	H	1.018226	-0.067733	-0.348629
H138	H	1.123393	-0.076332	-0.348700
H139	H	1.069861	-0.121466	-0.396681
H140	H	1.068436	-0.201812	-0.157876
H141	H	1.060076	-0.640563	-0.157920
H142	H	0.510528	-0.068227	0.000034
H143	H	1.058019	-0.748337	-0.157921
H144	H	1.237793	-0.029995	0.591189
C145	C	1.060227	-0.632652	0.181634
C146	C	1.059506	-0.671397	0.257841
C147	C	1.060112	-0.641830	0.345007
H148	H	1.008102	-0.605175	0.185394
H149	H	1.113267	-0.613797	0.185314
H150	H	1.006471	-0.690243	0.254162
H151	H	1.111627	-0.698875	0.254113
H152	H	1.113153	-0.622974	0.348688
H153	H	1.007987	-0.614353	0.348758
H154	H	1.059631	-0.668114	0.396724
H155	H	1.063152	-0.475107	0.244960
C156	C	1.065381	-0.359392	0.268688
C157	C	1.064646	-0.398132	0.344900
C158	C	1.065232	-0.368560	0.432063
H159	H	1.013255	-0.331915	0.272433
H160	H	1.118420	-0.340536	0.272379
H161	H	1.011612	-0.416979	0.341212
H162	H	1.116768	-0.425610	0.341187
H163	H	1.118271	-0.349704	0.435754
H164	H	1.013105	-0.341084	0.435798
H165	H	1.064742	-0.394841	0.483783
C166	C	1.068124	-0.210003	0.181501
C167	C	0.989913	-0.237768	0.186576
C168	C	0.989191	-0.267557	0.273534
H169	H	1.068578	-0.183877	0.233422
H170	H	1.120233	-0.237514	0.185116
H171	H	0.937817	-0.210261	0.182970
H172	H	0.989442	-0.263903	0.134675
H173	H	1.041300	-0.295068	0.277149
H174	H	0.989647	-0.241428	0.325448
H175	H	0.936130	-0.286403	0.276985
C176	C	1.070422	-0.085982	0.181552
C177	C	0.993483	-0.045541	0.186614
C178	C	0.993811	-0.015783	0.273617
H179	H	1.123378	-0.067059	0.185268
H180	H	1.069861	-0.112155	0.233424
H181	H	0.994051	-0.019372	0.134756
H182	H	0.940514	-0.064449	0.182914
H183	H	0.993251	-0.041956	0.325489
H184	H	1.046771	0.003137	0.277325
H185	H	0.941606	0.011656	0.277067
H186	H	0.952345	0.148917	0.258112
H187	H	0.890705	0.187573	0.408851
