data_functionalizedCrystal
_audit_creation_method	'MofGen! by Chris Wilmer'
_symmetry_space_group_name_H-M	'P1'
_symmetry_Int_Tables_number	1
_symmetry_cell_setting	triclinic
loop_
_symmetry_equiv_pos_as_xyz
  x,y,z
_cell_length_a	19.077236
_cell_length_b	16.120444
_cell_length_c	19.076919
_cell_angle_alpha	95.047308
_cell_angle_beta	89.887323
_cell_angle_gamma	95.330924
loop_
_atom_site_label
_atom_site_type_symbol
_atom_site_fract_x
_atom_site_fract_y
_atom_site_fract_z
Zn1	Zn	1.044773	-0.303872	-0.452996
Zn2	Zn	1.043445	-0.438024	-0.340987
Zn3	Zn	0.932008	-0.303433	-0.330758
Zn4	Zn	0.920767	-0.449191	-0.454183
O5	O	0.985248	-0.373630	-0.394731
O6	O	1.143130	-0.317177	-0.441922
O7	O	1.032811	-0.415312	-0.241100
O8	O	0.952227	-0.186347	-0.342195
O9	O	1.142154	-0.415738	-0.359629
O10	O	1.035074	-0.186670	-0.432003
O11	O	0.950939	-0.316429	-0.233585
O12	O	0.831983	-0.327258	-0.343346
O13	O	0.933068	-0.434772	-0.552555
O14	O	0.823725	-0.434346	-0.434026
O15	O	1.024175	-0.328006	-0.551683
O16	O	1.021911	-0.556649	-0.360781
O17	O	0.931781	-0.564854	-0.443945
C18	C	0.802305	-0.381967	-0.387706
C19	C	0.724040	-0.385555	-0.384718
C20	C	0.687773	-0.336013	-0.426231
C21	C	0.614235	-0.339380	-0.423417
C22	C	0.576965	-0.392293	-0.379093
C23	C	0.613237	-0.441836	-0.337575
C24	C	0.686774	-0.438465	-0.340386
C25	C	0.356979	-0.407866	-0.366082
C26	C	0.283436	-0.411236	-0.363276
C27	C	0.284439	-0.308778	-0.449118
C28	C	0.357977	-0.305414	-0.451928
C29	C	0.394243	-0.354954	-0.410407
N30	N	0.501797	-0.395738	-0.376218
N31	N	0.469410	-0.351505	-0.413279
C32	C	0.975500	-0.591125	-0.403618
C33	C	0.971394	-0.684169	-0.407446
C34	C	1.006718	-0.891888	-0.375031
C35	C	0.963909	-0.854515	-0.414443
C36	C	0.968075	-0.759725	-0.410549
C37	C	1.002553	-0.986686	-0.378925
C38	C	1.168905	-0.365261	-0.401784
C39	C	1.247169	-0.361694	-0.404790
C40	C	0.977516	-0.382684	-0.578381
C41	C	0.974221	-0.386542	-0.656642
C42	C	0.995053	-0.155285	-0.385825
C43	C	0.999231	-0.062240	-0.382030
C44	C	1.020104	-0.332770	-0.692956
C45	C	1.017000	-0.336392	-0.766490
C46	C	0.968015	-0.393791	-0.803709
C47	C	0.922126	-0.447566	-0.767390
C48	C	0.925228	-0.443939	-0.693857
C49	C	0.953649	-0.410596	-1.023677
C50	C	0.950552	-0.414221	-1.097215
C51	C	1.045425	-0.303045	-1.096311
C52	C	1.048526	-0.299427	-1.022777
C53	C	1.002635	-0.353198	-0.986463
N54	N	0.964842	-0.397497	-0.878873
N55	N	1.005805	-0.349488	-0.911301
C56	C	0.992994	-0.364549	-0.211794
C57	C	0.996436	-0.360449	-0.133529
H58	H	0.584709	-0.299040	-0.457224
H59	H	1.082786	-0.259267	-1.125885
C60	C	0.871423	-0.854474	-0.499625
C61	C	0.910203	-0.907415	-0.463938
H62	H	0.838271	-0.887137	-0.530180
H63	H	0.847280	-0.820136	-0.466518
H64	H	0.902421	-0.820255	-0.526387
H65	H	0.879205	-0.941630	-0.437171
H66	H	0.934347	-0.941769	-0.497048
C67	C	0.198279	-0.305781	-0.540215
C68	C	0.244572	-0.254320	-0.494750
H69	H	0.173665	-0.272156	-0.568382
H70	H	0.224207	-0.342303	-0.569686
H71	H	0.165562	-0.337773	-0.513408
H72	H	0.277292	-0.222331	-0.521556
H73	H	0.218642	-0.217783	-0.465276
H74	H	1.046494	-0.852700	-0.338368
C75	C	1.113564	-0.223237	-0.699455
C76	C	1.073950	-0.269672	-0.652049
H77	H	1.146803	-0.184277	-0.674200
H78	H	1.137650	-0.259896	-0.730657
H79	H	1.083105	-0.194033	-0.725651
H80	H	1.104409	-0.298880	-0.625856
H81	H	1.049863	-0.233007	-0.620835
H82	H	0.916291	-0.454392	-0.994121
C83	C	0.707221	-0.300297	-0.544724
C84	C	0.728736	-0.277850	-0.474956
H85	H	0.732507	-0.264383	-0.574802
H86	H	0.716333	-0.356505	-0.557705
H87	H	0.658234	-0.295212	-0.548980
H88	H	0.777723	-0.282940	-0.470698
H89	H	0.719630	-0.221628	-0.461970
H90	H	0.388317	-0.262330	-0.488024
H91	H	0.910660	-0.460964	-1.127517
C92	C	1.028347	-0.227404	-0.844947
C93	C	1.067434	-0.277273	-0.806399
H94	H	1.059484	-0.190898	-0.869579
H95	H	0.998740	-0.262104	-0.877639
H96	H	1.000316	-0.195380	-0.813763
H97	H	1.095462	-0.309302	-0.837584
H98	H	1.097053	-0.242569	-0.773704
C99	C	1.090123	-0.154989	-0.995707
C100	C	1.102367	-0.236311	-0.981882
H101	H	1.123362	-0.116022	-0.970461
H102	H	1.094836	-0.149476	-1.044695
H103	H	1.043870	-0.144316	-0.981328
H104	H	1.148619	-0.246987	-0.996266
H105	H	1.097661	-0.241828	-0.932883
C106	C	0.875248	-0.502494	-0.880511
C107	C	0.868280	-0.510661	-0.808299
H108	H	0.842008	-0.541453	-0.905764
H109	H	0.866960	-0.447320	-0.889869
H110	H	0.921502	-0.513186	-0.894873
H111	H	0.822027	-0.499963	-0.793935
H112	H	0.876563	-0.565848	-0.798936
C113	C	0.289828	-0.512171	-0.278697
C114	C	0.242467	-0.469401	-0.314550
H115	H	0.264534	-0.548075	-0.248617
H116	H	0.315793	-0.544442	-0.311733
H117	H	0.321269	-0.472998	-0.251417
H118	H	0.211029	-0.508573	-0.341835
H119	H	0.216490	-0.437127	-0.281510
C120	C	0.585711	-0.582858	-0.308005
C121	C	0.572273	-0.500002	-0.288853
H122	H	0.560425	-0.618767	-0.277923
H123	H	0.571124	-0.598074	-0.355334
H124	H	0.634700	-0.587928	-0.303733
H125	H	0.523284	-0.494931	-0.293129
H126	H	0.586856	-0.484782	-0.241512
C127	C	0.435050	-0.516172	-0.363903
C128	C	0.396835	-0.462329	-0.320449
H129	H	0.459659	-0.549793	-0.335729
H130	H	0.403644	-0.551067	-0.394748
H131	H	0.467772	-0.484167	-0.390695
H132	H	0.364108	-0.494334	-0.293661
H133	H	0.428244	-0.427430	-0.289592
C134	C	0.833473	-0.455817	-0.608001
C135	C	0.874791	-0.503053	-0.653943
H136	H	0.802330	-0.492314	-0.583366
H137	H	0.863087	-0.421123	-0.575312
H138	H	0.806971	-0.421987	-0.634171
H139	H	0.901297	-0.536878	-0.627772
H140	H	0.845173	-0.537761	-0.686637
H141	H	0.716302	-0.478806	-0.306580
