data_functionalizedCrystal
_audit_creation_method	'MofGen! by Chris Wilmer'
_symmetry_space_group_name_H-M	'P1'
_symmetry_Int_Tables_number	1
_symmetry_cell_setting	triclinic
loop_
_symmetry_equiv_pos_as_xyz
  x,y,z
_cell_length_a	18.050591
_cell_length_b	10.686285
_cell_length_c	18.050591
_cell_angle_alpha	85.631906
_cell_angle_beta	90.008361
_cell_angle_gamma	94.372862
loop_
_atom_site_label
_atom_site_type_symbol
_atom_site_fract_x
_atom_site_fract_y
_atom_site_fract_z
Zn1	Zn	1.158016	0.502749	0.397399
Zn2	Zn	1.167526	0.713681	0.263713
Zn3	Zn	1.033860	0.502695	0.273212
Zn4	Zn	1.043355	0.713674	0.387849
O5	O	1.100689	0.608200	0.330543
O6	O	1.263203	0.530756	0.379686
O7	O	1.149802	0.685674	0.161050
O8	O	1.042376	0.326131	0.297658
O9	O	1.270191	0.685726	0.281468
O10	O	1.133593	0.326171	0.388897
O11	O	1.051597	0.530663	0.168029
O12	O	0.931194	0.530656	0.288398
O13	O	1.058559	0.685714	0.493040
O14	O	0.938170	0.685661	0.372621
O15	O	1.142800	0.530748	0.500056
O16	O	1.159009	0.890251	0.272208
O17	O	1.067781	0.890246	0.363410
C18	C	0.907735	0.608153	0.330504
C19	C	0.825190	0.608163	0.330504
C20	C	1.115477	0.936031	0.315758
C21	C	1.121872	1.076279	0.309458
C22	C	1.100678	0.608236	0.524247
C23	C	1.100673	0.608252	0.606792
C24	C	0.621920	0.523774	0.284822
C25	C	0.577726	0.638850	0.261366
C26	C	0.674061	0.608201	0.330536
C27	C	0.571175	0.493165	0.353989
C28	C	0.528077	0.608228	0.330566
C29	C	0.630958	0.723338	0.307041
C30	C	0.624407	0.577575	0.399699
C31	C	0.580240	0.692731	0.376265
C32	C	0.758159	0.608184	0.330517
C33	C	0.443982	0.608258	0.330584
C34	C	1.294397	0.608248	0.330583
C35	C	1.376944	0.608268	0.330600
C36	C	1.085864	0.279088	0.345402
C37	C	1.079546	0.138840	0.351735
C38	C	1.054850	0.692509	0.851803
C39	C	1.031497	0.577394	0.807596
C40	C	1.100664	0.608215	0.903914
C41	C	1.123986	0.723341	0.801040
C42	C	1.100667	0.608239	0.757928
C43	C	1.077273	0.493039	0.860797
C44	C	1.169797	0.639063	0.854242
C45	C	1.146466	0.523869	0.810060
C46	C	1.100661	0.608202	0.988013
C47	C	1.100670	0.608238	0.673832
C48	C	1.100686	0.608198	1.137591
C49	C	1.100660	0.608200	1.055045
H50	H	0.640350	0.452453	0.246115
C51	C	1.177432	1.148873	0.254038
N52	N	1.219280	1.203551	0.212296
C53	C	0.549959	0.673867	0.182366
N54	N	0.529045	0.700232	0.122864
C55	C	0.666078	0.854818	0.280164
N56	N	0.692532	0.953844	0.259917
C57	C	0.952515	0.542143	0.779857
N58	N	0.893024	0.515598	0.758968
C59	C	1.023987	1.066252	0.407150
N60	N	0.982140	1.011571	0.448892
C61	C	0.555527	0.789312	0.428500
N62	N	0.536911	0.862061	0.467838
C63	C	1.002460	0.788672	0.876746
N64	N	0.962998	0.861095	0.895535
C65	C	0.652197	0.542500	0.478677
N66	N	0.673132	0.516066	0.538164
C67	C	0.535934	0.361721	0.380773
N68	N	0.509394	0.262715	0.400942
H69	H	1.057483	0.395660	0.886784
H70	H	1.185208	0.452513	0.791748
C71	C	1.248758	0.674359	0.882008
N72	N	1.308232	0.700959	0.902923
C73	C	1.150635	0.854857	0.765813
N74	N	1.170702	0.953918	0.739283
