data_functionalizedCrystal
_audit_creation_method	'MofGen! by Chris Wilmer'
_symmetry_space_group_name_H-M	'P1'
_symmetry_Int_Tables_number	1
_symmetry_cell_setting	triclinic
loop_
_symmetry_equiv_pos_as_xyz
  x,y,z
_cell_length_a	9.065215
_cell_length_b	14.853567
_cell_length_c	8.140239
_cell_angle_alpha	89.999724
_cell_angle_beta	90.002190
_cell_angle_gamma	84.324814
loop_
_atom_site_label
_atom_site_type_symbol
_atom_site_fract_x
_atom_site_fract_y
_atom_site_fract_z
O1	O	1.957781	0.132179	0.136579
O2	O	1.528280	0.143024	0.136585
O3	O	1.754503	0.006456	0.136587
O4	O	1.731558	0.268746	0.136577
O5	O	1.754490	0.006455	-0.136641
O6	O	1.528268	0.143023	-0.136642
O7	O	1.957768	0.132177	-0.136648
Zn8	Zn	1.743016	0.137599	-0.180026
Zn9	Zn	1.743032	0.137602	0.179962
O10	O	1.731545	0.268745	-0.136650
C11	C	1.473308	0.141982	-0.000028
C12	C	1.309527	0.138867	-0.000025
C13	C	1.753457	-0.027141	-0.000022
C14	C	1.750342	-0.127248	-0.000008
C15	C	1.602790	-0.540872	-0.000037
C16	C	1.871548	-0.560166	-0.000041
C17	C	1.874478	-0.466111	-0.000031
C18	C	1.741561	-0.409432	-0.000027
C19	C	1.605716	-0.446808	-0.000032
C20	C	2.010321	-0.428727	-0.000042
C21	C	2.013256	-0.334666	-0.000035
C22	C	1.880338	-0.277986	-0.000019
C23	C	1.744487	-0.315367	-0.000022
C24	C	1.611571	-0.258688	-0.000018
C25	C	1.475718	-0.296068	-0.000010
C26	C	1.472798	-0.390127	-0.000016
C27	C	1.883258	-0.183927	-0.000012
C28	C	1.614496	-0.164624	-0.000013
C29	C	2.012740	0.133219	-0.000032
C30	C	2.176522	0.136334	-0.000024
C31	C	1.732591	0.302342	-0.000038
C32	C	1.735707	0.402449	-0.000041
N33	N	1.743015	0.137597	-0.425709
N34	N	1.743044	0.137597	0.425645
H35	H	1.367498	-0.249908	-0.000018
C36	C	1.468282	-0.102280	-0.000009
C37	C	1.357028	-0.107253	0.141875
C38	C	1.210815	-0.044909	0.141879
C39	C	1.175856	0.022408	-0.000000
C40	C	1.287113	0.027384	-0.141895
C41	C	1.433326	-0.034960	-0.141899
H42	H	1.382904	-0.157088	0.246912
H43	H	1.128455	-0.048593	0.246919
H44	H	1.067620	0.068558	0.000003
H45	H	1.261237	0.077219	-0.246932
H46	H	1.515686	-0.031276	-0.246939
C47	C	1.453360	-0.581987	-0.000023
C48	C	1.414372	-0.643998	-0.141894
C49	C	1.264941	-0.685114	-0.141876
C50	C	1.154499	-0.664219	0.000013
C51	C	1.193484	-0.602205	0.141895
C52	C	1.342914	-0.561089	0.141877
H53	H	1.496131	-0.659468	-0.246938
H54	H	1.236083	-0.731021	-0.246906
H55	H	1.043881	-0.694656	0.000027
H56	H	1.111725	-0.586735	0.246939
H57	H	1.371773	-0.515182	0.246908
H58	H	1.362194	-0.420571	-0.000012
H59	H	1.979762	-0.606319	-0.000057
H60	H	2.118534	-0.474882	-0.000061
H61	H	2.123875	-0.304240	-0.000039
H62	H	1.993867	-0.153496	-0.000030
