data_functionalizedCrystal
_audit_creation_method	'MofGen! by Chris Wilmer'
_symmetry_space_group_name_H-M	'P1'
_symmetry_Int_Tables_number	1
_symmetry_cell_setting	triclinic
loop_
_symmetry_equiv_pos_as_xyz
  x,y,z
_cell_length_a	17.699097
_cell_length_b	27.731996
_cell_length_c	16.176319
_cell_angle_alpha	90.009417
_cell_angle_beta	90.009574
_cell_angle_gamma	82.954908
loop_
_atom_site_label
_atom_site_type_symbol
_atom_site_fract_x
_atom_site_fract_y
_atom_site_fract_z
O1	O	1.003514	0.061157	0.068826
O2	O	0.783065	0.069103	0.068814
O3	O	0.900157	-0.005244	0.068803
O4	O	0.886422	0.135504	0.068838
O5	O	0.900143	-0.005244	-0.068691
O6	O	0.783051	0.069103	-0.068679
O7	O	1.003501	0.061157	-0.068667
Cu8	Cu	0.893275	0.065130	-0.081227
Cu9	Cu	0.893291	0.065130	0.081374
O10	O	0.886409	0.135503	-0.068656
C11	C	0.754864	0.068817	0.000066
C12	C	0.670854	0.067960	0.000060
C13	C	0.155191	0.062704	0.075040
C14	C	0.234128	0.063506	0.075036
C15	C	0.273583	0.063908	0.000085
C16	C	0.234098	0.063503	-0.074867
C17	C	0.155163	0.062697	-0.074862
C18	C	0.552432	0.066752	-0.074888
C19	C	0.631372	0.067559	-0.074887
C20	C	0.631397	0.067561	0.075010
C21	C	0.552462	0.066755	0.075015
C22	C	0.512985	0.066347	0.000064
C23	C	0.427393	0.065476	0.000069
C24	C	0.359173	0.064782	0.000079
C25	C	0.899868	-0.023252	0.000053
C26	C	0.899018	-0.076912	0.000045
C27	C	0.893679	-0.409647	0.075032
C28	C	0.890452	-0.611317	0.075047
O29	O	0.890008	-0.637389	0.138787
N30	N	0.890044	-0.636536	0.000100
C31	C	0.890437	-0.611334	-0.074856
O32	O	0.890008	-0.637410	-0.138603
C33	C	0.893659	-0.409664	-0.074870
C34	C	0.894075	-0.384449	0.000082
C35	C	0.894094	-0.384432	0.149978
C36	C	0.894905	-0.334018	0.149974
C37	C	0.895301	-0.308819	0.075024
C38	C	0.894885	-0.334035	0.000078
C39	C	0.894047	-0.384462	-0.149824
C40	C	0.894850	-0.334041	-0.149821
C41	C	0.895266	-0.308826	-0.074869
C42	C	0.896092	-0.258422	-0.074876
N43	N	0.896500	-0.233203	0.000070
C44	C	0.896105	-0.258402	0.075020
C45	C	0.888747	-0.717213	-0.074844
C46	C	0.887943	-0.767630	-0.074840
C47	C	0.887956	-0.767610	0.075062
C48	C	0.888766	-0.717193	0.075058
C49	C	0.889155	-0.691994	0.000103
C50	C	0.897808	-0.152528	0.075006
C51	C	0.898622	-0.102110	0.074995
C52	C	0.898605	-0.102134	-0.074908
C53	C	0.897795	-0.152548	-0.074897
C54	C	0.897394	-0.177744	0.000066
O55	O	0.896527	-0.232318	-0.138584
O56	O	0.896517	-0.232315	0.138757
C57	C	0.892868	-0.460061	0.075037
C58	C	0.892453	-0.485277	0.000091
C59	C	0.892849	-0.460078	-0.074859
C60	C	0.891649	-0.535694	0.000094
C61	C	0.891253	-0.560893	0.075044
C62	C	0.891661	-0.535674	0.149991
C63	C	0.892472	-0.485260	0.149987
C64	C	0.892440	-0.485297	-0.149806
C65	C	0.891630	-0.535711	-0.149795
C66	C	0.891235	-0.560910	-0.074845
C67	C	1.031702	0.061442	0.000083
C68	C	1.115711	0.062300	0.000094
C69	C	0.886698	0.153512	0.000096
C70	C	0.887547	0.207171	0.000110
N71	N	0.893269	0.065129	-0.195593
C72	C	0.938817	0.094412	-0.238843
C73	C	0.938825	0.094411	-0.325390
C74	C	0.893280	0.065128	-0.368685
C75	C	0.847731	0.035841	-0.325429
C76	C	0.847727	0.035841	-0.238883
C77	C	0.847745	0.035842	-0.674457
C78	C	0.847750	0.035845	-0.761009
C79	C	0.938842	0.094412	-0.760964
C80	C	0.938839	0.094411	-0.674418
C81	C	0.893293	0.065123	-0.631169
C82	C	0.893285	0.065125	-0.537325
C83	C	0.893283	0.065128	-0.462528
N84	N	0.893303	0.065127	0.195739
H85	H	0.898963	-0.081582	0.136032
H86	H	0.520342	0.066431	0.136048
C87	C	0.674772	0.067997	-0.157342
N88	N	0.707461	0.068326	-0.219445
C89	C	0.277553	0.063944	0.157483
N90	N	0.310262	0.064271	0.219585
C91	C	0.797636	0.003628	-0.626895
N92	N	0.759889	-0.020636	-0.591068
C93	C	0.674831	0.068003	0.157459
N94	N	0.707544	0.068337	0.219558
C95	C	0.111735	0.062254	-0.157308
N96	N	0.079027	0.061920	-0.219410
C97	C	0.797619	0.003628	-0.191309
N98	N	0.759878	-0.020636	-0.155476
C99	C	0.509014	0.066318	-0.157336
N100	N	0.476308	0.065996	-0.219441
H101	H	0.892764	-0.464786	-0.210841
C102	C	0.889217	-0.689460	0.157510
N103	N	0.889553	-0.668574	0.219617
C104	C	0.988943	0.126623	-0.626798
N105	N	1.026686	0.150884	-0.590932
H106	H	0.891298	-0.556238	-0.210835
C107	C	0.797630	0.003631	-0.373057
N108	N	0.759890	-0.020629	-0.408929
H109	H	0.266229	0.063827	-0.135893
H110	H	0.123072	0.062380	0.136074
C111	C	0.897380	-0.180238	0.157469
N112	N	0.897066	-0.201108	0.219581
C113	C	0.895354	-0.306286	0.232427
N114	N	0.895688	-0.285402	0.294536
C115	C	0.893691	-0.412145	0.232436
N116	N	0.893405	-0.433017	0.294549
C117	C	0.889181	-0.689502	-0.157306
N118	N	0.889511	-0.668632	-0.219417
H119	H	0.887616	-0.788157	-0.135874
C120	C	0.893580	-0.412187	-0.232279
N121	N	0.893223	-0.433068	-0.294389
C122	C	0.887515	-0.795337	0.157508
N123	N	0.887176	-0.816223	0.219603
H124	H	0.895156	-0.313527	-0.210860
H125	H	0.897463	-0.173081	-0.135929
H126	H	0.810661	0.011998	-0.796257
H127	H	0.898931	-0.081609	-0.135930
C128	C	0.988952	0.126625	-0.808545
N129	N	1.026692	0.150888	-0.844382
H130	H	0.892810	-0.464734	0.211020
C131	C	0.891224	-0.563402	0.232436
N132	N	0.890889	-0.584289	0.294530
H133	H	0.975916	0.118255	-0.360600
C134	C	0.988920	0.126626	-0.191226
N135	N	1.026663	0.150889	-0.155363
