data_functionalizedCrystal
_audit_creation_method	'MofGen! by Chris Wilmer'
_symmetry_space_group_name_H-M	'P1'
_symmetry_Int_Tables_number	1
_symmetry_cell_setting	triclinic
loop_
_symmetry_equiv_pos_as_xyz
  x,y,z
_cell_length_a	16.959455
_cell_length_b	25.639240
_cell_length_c	16.959447
_cell_angle_alpha	89.959660
_cell_angle_beta	89.980656
_cell_angle_gamma	90.031705
loop_
_atom_site_label
_atom_site_type_symbol
_atom_site_fract_x
_atom_site_fract_y
_atom_site_fract_z
Zn1	Zn	1.208335	-0.208155	-0.446905
Zn2	Zn	1.208222	-0.295596	-0.314703
Zn3	Zn	1.076157	-0.208174	-0.314737
Zn4	Zn	1.076098	-0.295559	-0.446836
O5	O	1.142203	-0.251871	-0.380795
O6	O	1.318930	-0.219761	-0.429383
O7	O	1.190680	-0.284022	-0.204097
O8	O	1.093762	-0.135006	-0.332312
O9	O	1.318848	-0.284003	-0.332255
O10	O	1.190873	-0.134992	-0.429415
O11	O	1.093653	-0.219794	-0.204121
O12	O	0.965538	-0.219759	-0.332245
O13	O	1.093663	-0.283942	-0.557456
O14	O	0.965495	-0.283961	-0.429298
O15	O	1.190816	-0.219726	-0.557507
O16	O	1.190624	-0.368756	-0.332188
O17	O	1.093553	-0.368729	-0.429266
C18	C	0.936837	-0.251858	-0.380769
C19	C	0.848980	-0.251866	-0.380776
C20	C	0.807705	-0.218391	-0.330326
C21	C	0.807702	-0.285344	-0.431238
C22	C	0.725156	-0.285350	-0.431249
C23	C	0.683881	-0.251876	-0.380799
C24	C	0.725151	-0.218395	-0.330338
C25	C	0.683879	-0.318826	-0.481716
C26	C	0.601328	-0.318833	-0.481730
C27	C	0.560051	-0.285361	-0.431275
C28	C	0.601327	-0.251879	-0.380811
C29	C	0.560052	-0.218405	-0.330361
C30	C	0.601326	-0.184926	-0.279892
C31	C	0.683875	-0.184923	-0.279883
C32	C	0.477503	-0.285364	-0.431284
C33	C	0.477499	-0.218409	-0.330373
C34	C	1.142091	-0.387714	-0.380733
C35	C	1.142116	-0.445828	-0.380733
C36	C	1.192793	-0.806145	-0.431448
C37	C	1.192817	-0.860749	-0.431464
O38	O	1.235772	-0.888947	-0.474520
N39	N	1.142313	-0.888110	-0.380872
C40	C	1.091776	-0.860864	-0.330265
O41	O	1.048820	-0.889151	-0.287234
C42	C	1.091750	-0.806261	-0.330254
C43	C	1.142263	-0.778902	-0.380844
C44	C	1.243302	-0.778786	-0.482035
C45	C	1.243279	-0.724186	-0.482018
C46	C	1.192748	-0.696944	-0.431414
C47	C	1.142240	-0.724302	-0.380827
C48	C	1.041210	-0.779016	-0.279652
C49	C	1.041187	-0.724409	-0.279645
C50	C	1.091700	-0.697050	-0.330236
C51	C	1.091687	-0.642459	-0.330205
N52	N	1.142191	-0.615098	-0.380798
C53	C	1.192722	-0.642340	-0.431402
C54	C	1.091835	-0.975535	-0.330294
C55	C	1.091865	-1.030137	-0.330301
C56	C	1.192905	-1.030018	-0.431501
C57	C	1.192878	-0.975415	-0.431490
C58	C	1.142339	-0.948173	-0.380887
C59	C	1.192671	-0.527675	-0.431361
C60	C	1.192647	-0.473070	-0.431337
C61	C	1.091604	-0.473193	-0.330141
C62	C	1.091632	-0.527794	-0.330161
C63	C	1.142168	-0.555034	-0.380778
O64	O	1.048751	-0.614227	-0.287174
O65	O	1.235663	-0.614047	-0.474433
C66	C	1.348371	-0.251884	-0.380823
C67	C	1.436228	-0.251889	-0.380834
C68	C	1.142245	-0.251827	-0.586964
C69	C	1.142263	-0.251809	-0.674820
C70	C	1.142337	-0.115498	-0.380875
C71	C	1.142394	-0.057384	-0.380909
C72	C	1.091815	-0.218313	-1.046315
C73	C	1.192851	-0.285195	-1.046277
C74	C	1.192837	-0.285207	-0.963731
C75	C	1.142311	-0.251772	-0.922473
C76	C	1.091798	-0.218326	-0.963762
C77	C	1.243343	-0.318656	-0.922437
C78	C	1.243331	-0.318670	-0.839886
C79	C	1.192808	-0.285233	-0.798626
C80	C	1.142294	-0.251785	-0.839920
C81	C	1.091768	-0.218350	-0.798662
C82	C	1.041257	-0.184899	-0.839954
C83	C	1.041276	-0.184888	-0.922502
C84	C	1.192789	-0.285243	-0.716078
C85	C	1.091751	-0.218362	-0.716108
C86	C	1.142206	-0.251877	-0.175429
C87	C	1.142341	-0.251748	-0.087573
H88	H	1.233817	-0.549847	-0.472584
H89	H	0.841313	-0.312595	-0.472315
H90	H	0.841314	-0.191135	-0.289233
C91	C	1.047027	-1.113888	-0.285379
C92	C	1.036344	-1.060206	-0.274687
H93	H	1.012749	-1.132448	-0.251044
H94	H	1.035430	-1.122809	-0.338473
H95	H	1.100147	-1.122812	-0.273859
H96	H	0.983226	-1.051281	-0.286213
H97	H	1.047936	-1.051281	-0.221581
H98	H	0.567729	-0.346095	-0.522824
H99	H	0.717488	-0.157666	-0.238794
H100	H	1.050609	-0.191133	-0.682522
C101	C	1.254169	-0.662720	-0.588346
C102	C	1.298797	-0.694118	-0.537637
H103	H	1.288446	-0.644159	-0.622683
H104	H	1.219723	-0.684025	-0.618543
H105	H	1.224082	-0.638676	-0.558201
H106	H	1.328880	-0.718165	-0.567782
H107	H	1.333257	-0.672811	-0.507437
C108	C	1.288172	-0.348387	-0.713332
C109	C	1.298853	-0.355437	-0.794501
H110	H	1.322447	-0.371087	-0.685314
H111	H	1.299774	-0.313265	-0.699837
H112	H	1.235051	-0.356039	-0.699796
H113	H	1.351972	-0.347781	-0.808038
H114	H	1.287256	-0.390567	-0.808001
H115	H	0.567710	-0.157669	-0.238819
H116	H	1.233920	-0.312476	-0.682462
C117	C	1.046975	-0.188592	-1.172868
C118	C	1.036294	-0.181546	-1.091698
H119	H	1.012693	-0.165895	-1.200884
H120	H	1.100087	-0.180939	-1.186403
H121	H	1.035374	-0.223720	-1.186365
H122	H	1.047900	-0.146419	-1.078200
H123	H	0.983169	-0.189195	-1.078157
H124	H	1.233783	-0.450796	-0.472534
C125	C	1.237728	-0.314875	-1.172801
C126	C	1.248383	-0.321947	-1.091626
H127	H	1.272016	-0.337564	-1.200798
H128	H	1.184619	-0.322521	-1.186307
H129	H	1.249336	-0.279743	-1.186352
H130	H	1.236769	-0.357078	-1.078074
H131	H	1.301504	-0.314304	-1.078114
H132	H	1.050683	-0.953357	-0.289081
C133	C	0.810419	-0.348552	-0.526487
C134	C	0.729248	-0.355622	-0.537164
H135	H	0.838429	-0.371273	-0.560715
H136	H	0.823977	-0.313436	-0.538155
H137	H	0.823902	-0.356162	-0.473350
H138	H	0.715765	-0.348008	-0.590299
H139	H	0.715685	-0.390746	-0.525501
H140	H	1.284450	-0.800961	-0.523247
H141	H	1.234010	-0.953143	-0.472685
H142	H	1.234049	-1.052209	-0.472707
H143	H	1.000077	-0.801281	-0.238456
H144	H	0.443901	-0.312619	-0.472380
C145	C	0.907460	-0.159407	-0.947917
C146	C	0.985753	-0.148124	-0.967891
H147	H	0.873184	-0.136709	-0.975939
H148	H	0.895868	-0.194531	-0.961418
H149	H	0.900228	-0.154624	-0.892849
H150	H	0.992986	-0.152911	-1.022959
H151	H	0.997349	-0.112992	-0.954397
H152	H	0.443898	-0.191150	-0.289288
C153	C	0.996375	-0.155228	-0.713423
C154	C	0.985720	-0.148148	-0.794597
H155	H	0.962092	-0.132537	-0.685422
H156	H	0.984766	-0.190355	-0.699880
H157	H	1.049491	-0.147583	-0.699916
H158	H	0.932604	-0.155796	-0.808106
H159	H	0.997323	-0.113012	-0.808146
C160	C	0.941306	-0.730015	-0.179622
C161	C	0.985632	-0.694466	-0.224019
H162	H	0.907014	-0.711529	-0.145278
H163	H	0.911066	-0.751307	-0.214042
H164	H	0.975781	-0.751311	-0.149426
H165	H	0.951158	-0.673172	-0.254219
H166	H	1.015875	-0.673164	-0.189594
C167	C	0.991754	-0.522424	-0.230130
C168	C	1.036110	-0.557869	-0.274551
H169	H	0.957469	-0.540989	-0.195807
H170	H	1.026204	-0.501131	-0.199919
H171	H	0.961497	-0.501118	-0.264542
H172	H	1.066372	-0.579173	-0.240139
H173	H	1.001655	-0.579171	-0.304765
C174	C	1.377162	-0.344136	-0.947860
C175	C	1.298873	-0.355407	-0.967791
H176	H	1.411443	-0.366828	-0.975861
H177	H	1.388765	-0.309010	-0.961413
H178	H	1.384375	-0.348937	-0.892788
H179	H	1.291659	-0.350602	-1.022863
H180	H	1.287267	-0.390542	-0.954243
H181	H	1.050465	-0.451004	-0.288937
