data_functionalizedCrystal
_audit_creation_method	'MofGen! by Chris Wilmer'
_symmetry_space_group_name_H-M	'P1'
_symmetry_Int_Tables_number	1
_symmetry_cell_setting	triclinic
loop_
_symmetry_equiv_pos_as_xyz
  x,y,z
_cell_length_a	11.026607
_cell_length_b	11.026607
_cell_length_c	8.140239
_cell_angle_alpha	89.998310
_cell_angle_beta	89.997756
_cell_angle_gamma	108.586017
loop_
_atom_site_label
_atom_site_type_symbol
_atom_site_fract_x
_atom_site_fract_y
_atom_site_fract_z
O1	O	1.726730	0.533621	-0.136609
O2	O	2.226730	1.033621	0.363391
O3	O	1.360150	0.472857	-0.136612
O4	O	1.860150	0.972857	0.363388
O5	O	1.513058	0.319949	-0.136605
O6	O	2.013058	0.819949	0.363395
O7	O	1.573822	0.686529	-0.136616
O8	O	2.073822	1.186529	0.363384
O9	O	1.513047	0.319945	0.136622
O10	O	2.013047	0.819945	0.636622
O11	O	1.360139	0.472853	0.136615
O12	O	1.860139	0.972853	0.636615
O13	O	1.726719	0.533616	0.136618
O14	O	2.226719	1.033616	0.636618
Zn15	Zn	1.543427	0.503234	0.179997
Zn16	Zn	2.043427	1.003234	0.679997
Zn17	Zn	1.543442	0.503240	-0.179991
Zn18	Zn	2.043442	1.003240	0.320009
O19	O	1.573810	0.686525	0.136611
O20	O	2.073810	1.186525	0.636611
C21	C	1.312485	0.461645	0.000001
C22	C	1.812485	0.961645	0.500001
C23	C	1.170471	0.428228	0.000000
C24	C	1.670471	0.928228	0.500000
C25	C	1.116821	0.520498	-0.000004
C26	C	1.616821	1.020498	0.499996
C27	C	0.970043	0.485962	-0.000005
C28	C	1.470043	0.985962	0.499995
C29	C	1.501843	0.272287	0.000007
C30	C	2.001843	0.772287	0.500007
C31	C	1.468426	0.130273	0.000000
C32	C	1.968426	0.630273	0.500000
C33	C	1.560695	0.076624	-0.000001
C34	C	2.060695	0.576624	0.499999
C35	C	1.526160	-0.070155	-0.000008
C36	C	2.026160	0.429845	0.499992
C37	C	1.774384	0.544828	0.000001
C38	C	2.274384	1.044828	0.500001
C39	C	1.916398	0.578245	-0.000009
C40	C	2.416398	1.078245	0.499991
C41	C	1.585026	0.734187	-0.000005
C42	C	2.085026	1.234187	0.499995
C43	C	1.618443	0.876200	-0.000009
C44	C	2.118443	1.376200	0.499991
N45	N	1.543426	0.503231	0.425680
N46	N	2.043426	1.003231	0.925680
N47	N	1.543451	0.503235	-0.425674
N48	N	2.043451	1.003235	0.074326
H49	H	1.179555	0.625061	0.000002
H50	H	1.679555	1.125061	0.500002
H51	H	1.723013	-0.061072	-0.000132
H52	H	2.223013	0.438928	0.499868
H53	H	0.907314	0.381393	-0.000044
H54	H	1.407314	0.881393	0.499956
H55	H	1.363863	0.067540	-0.000011
H56	H	1.863863	0.567540	0.499989
H57	H	1.107738	0.323666	-0.000039
H58	H	1.607738	0.823666	0.499961
H59	H	0.979125	0.682816	-0.000001
H60	H	1.479125	1.182816	0.499999
H61	H	1.421590	-0.132884	-0.000019
H62	H	1.921590	0.367116	0.499981
H63	H	1.665258	0.139357	0.000010
H64	H	2.165258	0.639357	0.500010
