data_functionalizedCrystal
_audit_creation_method	'MofGen! by Chris Wilmer'
_symmetry_space_group_name_H-M	'P1'
_symmetry_Int_Tables_number	1
_symmetry_cell_setting	triclinic
loop_
_symmetry_equiv_pos_as_xyz
  x,y,z
_cell_length_a	16.974800
_cell_length_b	10.723024
_cell_length_c	16.053934
_cell_angle_alpha	87.402214
_cell_angle_beta	96.214647
_cell_angle_gamma	83.927745
loop_
_atom_site_label
_atom_site_type_symbol
_atom_site_fract_x
_atom_site_fract_y
_atom_site_fract_z
O1	O	1.050084	0.158832	0.001551
O2	O	0.819246	0.180290	-0.014053
O3	O	0.939990	-0.012124	-0.005888
O4	O	0.929340	0.351246	-0.006614
O5	O	0.946600	-0.022678	0.133416
O6	O	0.825856	0.169736	0.125250
O7	O	1.056694	0.148277	0.140855
Zn8	Zn	0.942324	0.157331	0.155170
Zn9	Zn	0.933616	0.171237	-0.028368
O10	O	0.935950	0.340692	0.132690
C11	C	0.792993	0.174396	0.053601
C12	C	0.704921	0.172543	0.047647
C13	C	0.667152	0.165917	0.120786
C14	C	0.584401	0.164156	0.115195
C15	C	0.539419	0.169031	0.036463
C16	C	0.577193	0.175654	-0.036681
C17	C	0.659944	0.177406	-0.031089
C18	C	0.291544	0.164400	0.011595
C19	C	0.208787	0.162651	0.006008
C20	C	0.216001	0.151151	0.157885
C21	C	0.298752	0.152910	0.163470
C22	C	0.336520	0.159527	0.090326
N23	N	0.454833	0.167235	0.030746
N24	N	0.421105	0.161314	0.096044
C25	C	0.942520	-0.063885	0.063711
C26	C	0.940201	-0.202392	0.063551
C27	C	1.007763	-0.278751	0.068117
C28	C	1.005368	-0.421906	0.067952
C29	C	1.082947	0.154171	0.073199
C30	C	1.171019	0.156025	0.079147
C31	C	0.933420	0.392453	0.063089
C32	C	0.935739	0.530960	0.063244
N33	N	0.948274	0.147840	0.280430
N34	N	0.927673	0.180718	-0.153628
C35	C	0.896887	0.229682	0.320670
C36	C	0.901071	0.223037	0.408358
C37	C	0.956640	0.134544	0.455805
C38	C	1.008032	0.052697	0.415559
C39	C	1.003851	0.059349	0.327873
C40	C	0.974884	0.105523	0.718441
C41	C	0.979060	0.098875	0.806133
C42	C	0.872099	0.269218	0.798925
C43	C	0.867920	0.275856	0.711237
C44	C	0.919315	0.194015	0.671000
N45	N	0.960917	0.127747	0.545436
N46	N	0.915041	0.200818	0.581370
H47	H	0.553655	0.158739	0.174753
H48	H	0.880586	-0.242998	0.059516
H49	H	1.016730	0.038882	0.685686
H50	H	0.335372	0.148935	0.227582
H51	H	1.053281	-0.019352	0.454196
H52	H	0.859229	0.289681	0.441120
H53	H	0.822671	0.347915	0.672608
H54	H	0.830257	0.335851	0.831695
H55	H	0.851634	0.301738	0.282044
H56	H	0.185242	0.145761	0.217435
H57	H	1.045696	-0.007294	0.295111
H58	H	0.690693	0.182805	-0.090647
H59	H	0.703771	0.161957	0.184898
H60	H	0.322285	0.169784	-0.047964
H61	H	0.172164	0.166625	-0.058108
H62	H	1.067378	-0.238145	0.072152
H63	H	1.024312	0.026808	0.844760
H64	H	0.540563	0.179615	-0.100786
H65	H	1.063206	-0.487517	0.071864
H66	H	0.877898	-0.403437	0.059340
