data_functionalizedCrystal
_audit_creation_method	'MofGen! by Chris Wilmer'
_symmetry_space_group_name_H-M	'P1'
_symmetry_Int_Tables_number	1
_symmetry_cell_setting	triclinic
loop_
_symmetry_equiv_pos_as_xyz
  x,y,z
_cell_length_a	15.944551
_cell_length_b	15.944499
_cell_length_c	15.021413
_cell_angle_alpha	90.007263
_cell_angle_beta	89.997174
_cell_angle_gamma	83.488174
loop_
_atom_site_label
_atom_site_type_symbol
_atom_site_fract_x
_atom_site_fract_y
_atom_site_fract_z
O1	O	1.114509	0.108323	-0.073933
O2	O	0.869957	0.121680	-0.073954
O3	O	0.998933	-0.007276	-0.073944
O4	O	0.985532	0.237280	-0.073942
O5	O	0.998913	-0.007258	0.074120
O6	O	0.869936	0.121698	0.074110
O7	O	1.114488	0.108342	0.074132
Zn8	Zn	0.992209	0.115023	0.097629
Zn9	Zn	0.992236	0.114999	-0.097452
O10	O	0.985511	0.237298	0.074122
C11	C	0.998375	-0.038562	0.000086
C12	C	0.996730	-0.131810	0.000079
C13	C	0.838653	0.121135	0.000075
C14	C	0.745407	0.119472	0.000067
C15	C	1.071662	-0.423346	0.000090
C16	C	1.032700	-0.362312	0.073093
C17	C	0.990753	-0.467446	0.000088
C18	C	1.032699	-0.362336	-0.072886
C19	C	0.993694	-0.302538	0.000082
C20	C	0.951769	-0.407640	0.073152
C21	C	0.951779	-0.407671	-0.072893
C22	C	0.912758	-0.346654	0.000128
C23	C	0.989062	-0.562446	0.000093
C24	C	0.995379	-0.207539	0.000084
C25	C	0.530566	0.035566	0.000083
C26	C	0.469548	0.074520	-0.072920
C27	C	0.574681	0.116465	0.000077
C28	C	0.469550	0.074558	0.073060
C29	C	0.409769	0.113554	0.000091
C30	C	0.514892	0.155442	-0.072986
C31	C	0.514901	0.155468	0.073059
C32	C	0.453901	0.194481	0.000038
C33	C	0.669683	0.118140	0.000068
C34	C	0.314768	0.111886	0.000094
C35	C	1.145792	0.108887	0.000100
C36	C	1.239038	0.110550	0.000103
C37	C	0.986070	0.268583	0.000090
C38	C	0.987715	0.361832	0.000091
N39	N	0.992197	0.115039	0.230767
N40	N	0.992255	0.114976	-0.230589
C41	C	0.932549	0.174640	0.470446
C42	C	1.008446	0.190948	0.529787
C43	C	0.992218	0.115018	0.412374
C44	C	0.916341	0.098729	0.529774
C45	C	0.992232	0.115000	0.587798
C46	C	1.068154	0.131363	0.470409
C47	C	0.975999	0.039112	0.470391
C48	C	1.051951	0.055387	0.529705
C49	C	0.992209	0.115031	0.311316
C50	C	0.992250	0.114986	0.688853
H51	H	1.138808	-0.456676	0.000166
O52	O	0.832533	-0.307197	0.000211
C53	C	0.774938	-0.368078	0.000947
H54	H	0.807094	-0.429824	0.029332
H55	H	0.718202	-0.344639	0.044007
H56	H	0.752946	-0.379001	-0.069899
H57	H	1.102473	0.004956	0.555561
O58	O	1.144779	0.147754	0.439457
C59	C	1.207641	0.085208	0.470348
H60	H	1.177775	0.025555	0.487368
H61	H	1.257316	0.070417	0.416300
H62	H	1.238665	0.109075	0.532354
H63	H	0.962245	-0.025051	0.444281
H64	H	0.534882	0.189625	-0.134772
H65	H	0.852168	0.084961	0.555853
H66	H	0.917594	-0.427791	-0.134619
O67	O	0.445422	0.033757	-0.146527
C68	C	0.357036	0.033416	-0.145898
H69	H	0.327114	0.087690	-0.102914
H70	H	0.331832	0.041295	-0.216780
H71	H	0.340690	-0.029011	-0.117492
H72	H	0.420730	0.261689	-0.000002
H73	H	0.917567	-0.427614	0.134935
O74	O	1.073648	-0.338382	0.146660
C75	C	1.157389	-0.377831	0.146419
H76	H	1.176888	-0.396091	0.075378
H77	H	1.201219	-0.332395	0.173997
H78	H	1.161776	-0.436904	0.189686
O79	O	0.872514	0.234881	0.439286
C80	C	0.910937	0.292806	0.386400
H81	H	0.973985	0.261457	0.360342
H82	H	0.867996	0.313560	0.327886
H83	H	0.921900	0.350241	0.428205
H84	H	0.535017	0.189664	0.134782
H85	H	0.449462	0.040333	0.134776
H86	H	0.563911	-0.031574	-0.000007
O87	O	1.073658	-0.338504	-0.146487
C88	C	1.157408	-0.377928	-0.146189
H89	H	1.161418	-0.437326	-0.103453
H90	H	1.177550	-0.395646	-0.217185
H91	H	1.200977	-0.332692	-0.117689
H92	H	1.022177	0.255132	0.555876
