data_functionalizedCrystal
_audit_creation_method	'MofGen! by Chris Wilmer'
_symmetry_space_group_name_H-M	'P1'
_symmetry_Int_Tables_number	1
_symmetry_cell_setting	triclinic
loop_
_symmetry_equiv_pos_as_xyz
  x,y,z
_cell_length_a	12.837943
_cell_length_b	12.837942
_cell_length_c	11.892095
_cell_angle_alpha	94.302569
_cell_angle_beta	94.310763
_cell_angle_gamma	85.171060
loop_
_atom_site_label
_atom_site_type_symbol
_atom_site_fract_x
_atom_site_fract_y
_atom_site_fract_z
O1	O	1.408367	-0.266110	0.093987
O2	O	1.105234	-0.252666	0.093993
O3	O	1.250078	-0.107822	0.093983
O4	O	1.263523	-0.410955	0.093997
O5	O	1.237999	-0.119878	-0.094023
O6	O	1.093155	-0.264723	-0.094014
O7	O	1.396288	-0.278166	-0.094019
Zn8	Zn	1.242804	-0.273359	-0.123867
Zn9	Zn	1.258718	-0.257474	0.123840
O10	O	1.251444	-0.423011	-0.094010
C11	C	1.060125	-0.254153	-0.000010
C12	C	0.943710	-0.240609	-0.000008
C13	C	1.239498	-0.074781	-0.000019
C14	C	1.225953	0.041634	-0.000017
C15	C	1.441397	-0.276679	-0.000014
C16	C	1.557812	-0.290224	-0.000009
N17	N	1.231950	-0.284200	-0.292920
C18	C	1.782685	-0.127395	-0.000028
C19	C	1.892068	-0.140117	-0.000023
C20	C	1.885962	-0.328386	-0.000001
C21	C	1.776579	-0.315665	-0.000007
C22	C	1.724945	-0.215167	-0.000018
C23	C	1.615561	-0.202446	-0.000015
C24	C	1.609456	-0.390715	-0.000002
C25	C	1.718839	-0.403436	0.000003
C26	C	1.262025	-0.456052	-0.000005
C27	C	1.275569	-0.572466	0.000001
C28	C	1.388784	0.266510	0.000003
C29	C	1.376063	0.375892	0.000006
C30	C	1.187791	0.369785	-0.000003
C31	C	1.200512	0.260402	-0.000005
C32	C	1.301012	0.208768	-0.000003
C33	C	1.313732	0.099383	-0.000014
C34	C	1.125461	0.093278	-0.000014
C35	C	1.112740	0.202661	-0.000012
C36	C	1.345098	-0.171130	-0.529575
C37	C	1.337520	-0.178716	-0.647917
C38	C	1.209211	-0.306952	-0.647946
C39	C	1.216789	-0.299366	-0.529605
C40	C	1.284736	-0.231454	-0.470424
C41	C	1.292319	-0.223874	-0.352080
C42	C	1.164005	-0.352104	-0.352112
C43	C	1.156427	-0.359690	-0.470453
N44	N	1.269579	-0.246626	0.292894
H45	H	1.740644	-0.045565	-0.000026
H46	H	1.447537	0.422902	0.000015
C47	C	1.741109	-0.574030	-0.096622
C48	C	1.775601	-0.513901	0.000017
H49	H	1.776156	-0.642225	-0.096612
H50	H	1.667711	-0.579013	-0.096613
H51	H	1.756087	-0.541639	-0.162183
H52	H	1.760617	-0.546289	0.065578
H53	H	1.849017	-0.508923	0.000018
C54	C	1.036735	-0.027076	0.096629
C55	C	1.028970	0.029811	-0.000016
H56	H	0.977162	-0.066251	0.096626
H57	H	1.098395	-0.073484	0.096619
H58	H	1.039897	0.019932	0.162185
H59	H	1.025816	-0.017197	-0.065573
H60	H	0.967293	0.076223	-0.000017
C61	C	1.362314	-0.022417	-0.396444
C62	C	1.419803	-0.096516	-0.464496
H63	H	1.408444	0.023633	-0.356259
H64	H	1.312091	0.016636	-0.442610
H65	H	1.327434	-0.057268	-0.344296
H66	H	1.454678	-0.061665	-0.516650
H67	H	1.470046	-0.135573	-0.418325
C68	C	1.465108	-0.051200	-0.635995
C69	C	1.403873	-0.112407	-0.712937
H70	H	1.506076	-0.010266	-0.676139
H71	H	1.420767	-0.006263	-0.589851
H72	H	1.510025	-0.095566	-0.589827
H73	H	1.358950	-0.068041	-0.759101
H74	H	1.448219	-0.157349	-0.759101
C75	C	1.084706	0.534755	0.000001
C76	C	1.077329	0.426553	-0.000005
H77	H	1.016509	0.569798	-0.000009
H78	H	1.125502	0.558123	0.065563
H79	H	1.117095	0.549723	-0.065562
H80	H	1.044946	0.411583	0.065562
H81	H	1.036517	0.403177	-0.065574
H82	H	1.562432	-0.462185	0.000006
C83	C	0.954556	0.237331	0.096632
C84	C	1.002277	0.259426	-0.000011
H85	H	0.886362	0.272381	0.096632
H86	H	0.949568	0.163932	0.096617
H87	H	0.995368	0.260715	0.162190
H88	H	0.961468	0.236035	-0.065569
H89	H	1.007259	0.332841	-0.000007
H90	H	1.153882	-0.362237	-0.696147
H91	H	1.101102	-0.414980	-0.518652
C92	C	1.593299	-0.031849	0.096606
C93	C	1.558802	-0.091980	-0.000030
H94	H	1.558264	0.036351	0.096588
H95	H	1.578320	-0.064229	0.162161
H96	H	1.666709	-0.026876	0.096594
H97	H	1.485393	-0.096960	-0.000014
H98	H	1.573773	-0.059592	-0.065603
H99	H	1.939076	-0.068644	-0.000031
H100	H	1.114857	-0.401227	-0.303937
H101	H	1.395563	0.057345	-0.000017
C102	C	1.309411	-0.075085	-0.219055
C103	C	1.366969	-0.149174	-0.287052
H104	H	1.355489	-0.028956	-0.178917
H105	H	1.259142	-0.036117	-0.265254
H106	H	1.274580	-0.109937	-0.166866
H107	H	1.401793	-0.114322	-0.339246
H108	H	1.417256	-0.188146	-0.240849
H109	H	1.928021	-0.410209	-0.000002
C110	C	1.573605	0.283529	0.000013
C111	C	1.499249	0.209747	0.000008
H112	H	1.641802	0.248485	0.000025
H113	H	1.560522	0.321859	-0.065547
H114	H	1.568930	0.330271	0.065578
H115	H	1.503919	0.163009	-0.065562
H116	H	1.512337	0.171400	0.065575
