data_functionalizedCrystal
_audit_creation_method	'MofGen! by Chris Wilmer'
_symmetry_space_group_name_H-M	'P1'
_symmetry_Int_Tables_number	1
_symmetry_cell_setting	triclinic
loop_
_symmetry_equiv_pos_as_xyz
  x,y,z
_cell_length_a	14.628931
_cell_length_b	21.606444
_cell_length_c	21.606444
_cell_angle_alpha	60.003167
_cell_angle_beta	89.999931
_cell_angle_gamma	59.998844
loop_
_atom_site_label
_atom_site_type_symbol
_atom_site_fract_x
_atom_site_fract_y
_atom_site_fract_z
Zr1	Zr	0.880611	0.677442	-0.081196
O2	O	0.734651	0.806557	-0.180015
O3	O	0.925357	0.548325	-0.050906
O4	O	0.925359	0.677438	-0.180019
O5	O	0.734646	0.677448	0.050948
O6	O	1.075791	0.677438	-0.180019
O7	O	0.734649	0.677444	-0.050902
O8	O	1.075787	0.446478	0.050940
O9	O	0.734650	0.908408	-0.180012
O10	O	1.056705	0.601434	-0.037984
O11	O	0.944436	0.601437	0.038025
O12	O	0.944439	0.753451	-0.113989
O13	O	0.832171	0.753454	-0.037979
Zr14	Zr	1.120528	0.677449	0.081242
Zr15	Zr	1.120533	0.677442	-0.081196
Zr16	Zr	0.880606	0.677449	0.081242
Zr17	Zr	0.880609	0.839883	-0.081191
Zr18	Zr	1.120530	0.515009	0.081237
O19	O	1.075782	0.806566	0.050952
O20	O	1.075789	0.806556	-0.180015
O21	O	0.734644	0.806567	0.050952
O22	O	1.266487	0.548334	0.180061
O23	O	1.266495	0.548325	-0.050906
O24	O	0.925349	0.548335	0.180061
O25	O	1.266493	0.677443	-0.050902
O26	O	1.075779	0.677453	0.180065
O27	O	0.925347	0.677453	0.180065
O28	O	1.266490	0.677447	0.050948
O29	O	0.925356	0.908407	-0.180011
O30	O	1.075783	0.446484	0.180057
O31	O	1.266489	0.446484	0.180058
O32	O	1.266493	0.446478	0.050941
O33	O	0.734646	0.908413	-0.050895
O34	O	0.925351	0.908413	-0.050894
O35	O	1.056700	0.601440	0.114035
O36	O	1.168968	0.601437	0.038025
O37	O	1.056702	0.753454	-0.037979
O38	O	0.944434	0.753457	0.038030
C39	C	1.000573	0.474258	0.000016
C40	C	1.000574	0.405297	0.000014
C41	C	1.059174	0.372898	-0.039663
C42	C	1.059178	0.308098	-0.039658
C43	C	1.000574	0.275703	0.000020
C44	C	0.941972	0.308105	0.039702
C45	C	0.941975	0.372899	0.039701
C46	C	0.941959	0.046796	0.039709
C47	C	0.941958	-0.018001	0.039705
C48	C	1.059162	-0.018006	-0.039650
C49	C	1.059165	0.046789	-0.039652
C50	C	1.000568	0.079182	0.000033
C51	C	1.000566	0.149444	0.000029
C52	C	1.000569	0.205446	0.000021
C53	C	0.700464	0.677446	0.000023
C54	C	0.598611	0.677446	0.000023
C55	C	0.608893	0.602036	0.037726
C56	C	0.503623	0.602034	0.037727
C57	C	1.300675	0.677445	0.000023
C58	C	1.402528	0.677445	0.000023
C59	C	1.000576	0.677437	-0.203163
C60	C	1.000579	0.677434	-0.272122
C61	C	1.000566	0.880634	0.000030
C62	C	1.000565	0.949594	0.000032
C63	C	0.941962	0.756808	-0.735106
C64	C	0.941959	0.756806	-0.670309
C65	C	1.000562	0.677452	-0.598238
C66	C	1.059162	0.598095	-0.590965
C67	C	1.059158	0.598098	-0.655762
C68	C	1.059181	0.598079	-0.329647
C69	C	1.059184	0.598082	-0.264849
C70	C	0.941983	0.756787	-0.344194
C71	C	0.941978	0.756790	-0.408991
C72	C	1.000573	0.677434	-0.401712
C73	C	1.000573	0.677438	-0.471973
C74	C	1.000569	0.677447	-0.527977
C75	C	1.000563	0.677454	0.203209
C76	C	1.000560	0.677457	0.272168
C77	C	1.300678	0.474257	0.000017
C78	C	1.402532	0.405297	0.000015
C79	C	1.000566	0.474266	0.203202
C80	C	1.000565	0.405309	0.272159
C81	C	1.300671	0.474266	0.203203
C82	C	1.402523	0.405308	0.272160
C83	C	0.700467	0.880625	-0.203157
C84	C	0.598615	0.949583	-0.272114
C85	C	0.700461	0.880634	0.000029
C86	C	0.598606	0.949595	0.000031
C87	C	1.000573	0.880625	-0.203156
C88	C	1.000574	0.949582	-0.272113
C89	C	1.391764	0.372911	-0.039669
C90	C	1.487458	0.308124	-0.039687
C91	C	1.593919	0.275720	-0.000015
C92	C	1.604685	0.308113	0.039670
C93	C	1.508992	0.372903	0.039682
C94	C	1.059164	0.372928	0.344225
C95	C	1.059159	0.308144	0.409024
C96	C	1.000560	0.275739	0.401755
C97	C	0.941953	0.308127	0.329682
C98	C	0.941952	0.372913	0.264885
C99	C	1.508967	0.372923	0.264867
C100	C	1.604677	0.308140	0.329653
C101	C	1.593941	0.275738	0.401732
C102	C	1.487486	0.308129	0.409024
C103	C	1.391778	0.372916	0.344238
C104	C	0.492172	0.981976	-0.264821
C105	C	0.396462	1.046780	-0.329607
C106	C	0.407198	1.079185	-0.401686
C107	C	0.513653	1.046790	-0.408978
C108	C	0.609361	0.981991	-0.344192
C109	C	0.609375	0.981987	0.039709
C110	C	0.513681	1.046792	0.039708
C111	C	0.407220	1.079198	0.000034
C112	C	0.396454	1.046802	-0.039648
C113	C	0.492146	0.982003	-0.039651
C114	C	1.059185	0.981967	-0.264820
C115	C	1.059208	1.046751	-0.329607
C116	C	1.000613	1.079153	-0.401686
C117	C	0.942001	1.046762	-0.408977
C118	C	0.941985	0.981975	-0.344192
H119	H	1.106879	-0.044390	-0.071961
H120	H	0.894233	-0.044376	0.072018
O121	O	0.878764	0.407854	0.082491
H122	H	0.838003	0.374450	0.110076
H123	H	0.695629	0.537475	0.070008
H124	H	1.671829	0.222963	-0.000030
O125	O	1.697177	0.205852	0.471603
H126	H	1.697116	0.146811	0.505815
H127	H	1.106900	0.955595	-0.206136
H128	H	0.483363	0.955631	-0.071959
O129	O	1.520564	0.407866	0.187129
H130	H	1.479751	0.479342	0.155715
O131	O	0.878763	0.842402	-0.812836
H132	H	0.888615	0.829077	-0.856674
H133	H	0.329310	1.131961	0.000043
O134	O	0.878750	0.947058	-0.352061
H135	H	0.838002	0.980486	-0.413068
H136	H	1.106935	1.073117	-0.323655
O137	O	1.719513	0.273153	0.082466
H138	H	1.784235	0.222652	0.075793
O139	O	1.122392	0.273215	0.486751
H140	H	1.063241	0.285664	0.518176
O141	O	0.878756	0.842395	-0.678159
H142	H	0.888589	0.829064	-0.620996
O143	O	1.520612	0.407819	0.082500
H144	H	1.610720	0.374388	0.110089
O145	O	0.480578	0.947036	-0.187083
H146	H	0.390475	0.980464	-0.192908
H147	H	0.393891	0.742010	-0.032261
H148	H	0.894250	0.073159	0.072026
O149	O	1.122366	0.407876	0.352074
H150	H	1.163097	0.374474	0.413078
O151	O	1.000618	1.149042	-0.471560
H152	H	1.051209	1.166121	-0.454372
O153	O	0.281626	1.081758	-0.082439
H154	H	0.216904	1.132251	-0.075759
H155	H	0.894262	0.281720	0.072013
H156	H	0.309791	1.073145	-0.323656
H157	H	0.511874	0.742007	-0.032255
O158	O	0.878771	0.842380	-0.352041
H159	H	0.838032	0.897559	-0.413042
O160	O	0.878768	0.842378	-0.486725
H161	H	0.838010	0.897557	-0.480898
H162	H	0.894294	1.073154	-0.467672
O163	O	0.515071	0.516506	0.080488
H164	H	0.430593	0.529927	0.073782
O165	O	1.122382	0.512490	-0.187109
H166	H	1.163115	0.457308	-0.192933
H167	H	1.691348	0.281773	0.323703
O168	O	1.122447	0.512493	-0.321796
H169	H	1.163230	0.457315	-0.260795
H170	H	1.478760	0.281738	0.467719
H171	H	0.329258	1.131948	-0.454433
O172	O	1.122447	0.512501	-0.513234
H173	H	1.112643	0.525828	-0.469398
O174	O	1.000586	0.205852	0.471653
H175	H	0.913328	0.230712	0.471630
O176	O	1.122377	0.407842	-0.082462
H177	H	1.212447	0.353453	-0.059531
O178	O	1.122369	0.273159	-0.082461
H179	H	1.163104	0.306582	-0.110063
H180	H	1.106872	0.533482	-0.649834
H181	H	1.305087	0.399293	-0.071984
H182	H	1.478670	0.281758	-0.072003
O183	O	0.878787	0.273148	0.321846
H184	H	0.888663	0.222644	0.379015
O185	O	0.878926	0.407715	0.187156
H186	H	0.838254	0.374245	0.192996
O187	O	1.276970	0.407826	0.352107
H188	H	1.285596	0.374395	0.413114
H189	H	0.522382	1.073183	-0.467672
H190	H	0.696029	0.955618	-0.350139
O191	O	0.724195	0.947055	0.082490
H192	H	0.715588	0.980486	0.110065
O193	O	0.525308	1.081711	0.082523
H194	H	0.571804	1.111208	0.059611
O195	O	1.122372	0.081731	-0.082447
H196	H	1.163130	0.048309	-0.110032
