data_functionalizedCrystal
_audit_creation_method	'MofGen! by Chris Wilmer'
_symmetry_space_group_name_H-M	'P1'
_symmetry_Int_Tables_number	1
_symmetry_cell_setting	triclinic
loop_
_symmetry_equiv_pos_as_xyz
  x,y,z
_cell_length_a	12.837943
_cell_length_b	13.339070
_cell_length_c	11.295483
_cell_angle_alpha	95.212346
_cell_angle_beta	85.461227
_cell_angle_gamma	105.229117
loop_
_atom_site_label
_atom_site_type_symbol
_atom_site_fract_x
_atom_site_fract_y
_atom_site_fract_z
O1	O	1.458416	0.264173	-0.098995
O2	O	1.152768	0.250811	-0.099002
O3	O	1.270513	0.106847	-0.098996
O4	O	1.340670	0.408137	-0.099001
O5	O	1.260165	0.119470	0.099055
O6	O	1.142420	0.263434	0.099048
O7	O	1.448068	0.276796	0.099056
Cu8	Cu	1.294299	0.271267	0.117135
Cu9	Cu	1.306537	0.256339	-0.117082
O10	O	1.330322	0.420760	0.099049
C11	C	1.107675	0.252608	0.000022
C12	C	0.988726	0.239146	0.000019
C13	C	0.794315	0.400986	0.000033
C14	C	0.682553	0.388342	0.000031
C15	C	0.653436	0.201215	0.000022
C16	C	0.765199	0.213859	0.000024
C17	C	0.835635	0.313748	0.000028
C18	C	0.947400	0.326391	0.000021
C19	C	0.918281	0.139265	0.000020
C20	C	0.806518	0.126621	0.000018
C21	C	1.253488	0.074327	0.000027
C22	C	1.218164	-0.041381	0.000022
C23	C	1.492830	-0.379696	0.000029
C24	C	1.526022	-0.270983	0.000041
C25	C	1.449060	-0.213577	0.000036
C26	C	1.338901	-0.264895	0.000019
C27	C	1.305705	-0.373618	0.000017
C28	C	1.261935	-0.207499	0.000024
C29	C	1.151776	-0.258817	0.000007
C30	C	1.118585	-0.367530	0.000004
C31	C	1.195547	-0.424936	0.000009
C32	C	1.295131	-0.098776	0.000026
C33	C	1.108006	-0.092698	0.000014
C34	C	1.074814	-0.201411	0.000002
C35	C	1.493161	0.274998	0.000029
C36	C	1.612110	0.288460	0.000024
C37	C	1.347347	0.453280	0.000023
C38	C	1.382672	0.568987	0.000021
N39	N	1.285699	0.281767	0.281871
N40	N	1.315142	0.245832	-0.281818
C41	C	1.377032	0.170190	0.531166
C42	C	1.370543	0.178133	0.655829
C43	C	1.266225	0.305590	0.655863
C44	C	1.272714	0.297647	0.531200
C45	C	1.328121	0.229946	0.468856
C46	C	1.334616	0.222009	0.344190
C47	C	1.230293	0.349460	0.344227
C48	C	1.223804	0.357403	0.468890
H49	H	1.004748	0.407725	0.000026
H50	H	0.985120	-0.243210	-0.000011
C51	C	0.516161	0.071960	-0.101779
C52	C	0.575999	0.091426	0.000026
H53	H	0.468359	0.004178	-0.101776
H54	H	0.475568	0.122108	-0.101766
H55	H	0.563980	0.076375	-0.170839
H56	H	0.528180	0.087019	0.069087
H57	H	0.616595	0.041264	0.000024
C58	C	1.102393	-0.585496	-0.101830
C59	C	1.159068	-0.544440	-0.000012
H60	H	1.079883	-0.659274	-0.101846
H61	H	1.040793	-0.558665	-0.101816
H62	H	1.148078	-0.566406	-0.170881
H63	H	1.113380	-0.563524	0.069040
H64	H	1.220677	-0.571282	-0.000014
H65	H	1.379734	0.166887	0.293430
H66	H	1.410369	0.129473	0.706558
C67	C	0.933187	-0.022825	-0.101803
C68	C	0.963699	0.043363	0.000012
H69	H	0.961233	-0.082025	-0.101813
H70	H	0.856553	-0.044643	-0.101791
H71	H	0.961098	0.013306	-0.170857
H72	H	0.935781	0.007234	0.069066
H73	H	1.040348	0.065181	0.000011
C74	C	0.669263	-0.002635	-0.101805
C75	C	0.729091	0.016827	0.000007
H76	H	0.621469	-0.070422	-0.101816
H77	H	0.628660	0.047505	-0.101789
H78	H	0.717088	0.001795	-0.170861
H79	H	0.681266	0.012404	0.069063
H80	H	0.769696	-0.033328	0.000001
C81	C	1.221489	0.521078	0.305874
C82	C	1.176528	0.415154	0.275736
H83	H	1.188304	0.561635	0.263585
H84	H	1.209688	0.535483	0.389032
H85	H	1.296967	0.537955	0.285423
H86	H	1.101050	0.398276	0.296195
H87	H	1.188319	0.400743	0.192559
H88	H	0.851666	0.482319	0.000035
H89	H	1.384823	-0.057004	0.000040
H90	H	1.476092	-0.125058	0.000046
C91	C	0.936953	-0.350600	-0.000014
C92	C	0.997497	-0.423940	-0.000006
H93	H	0.862200	-0.385427	-0.000026
H94	H	0.950179	-0.303926	0.069048
H95	H	0.957411	-0.312722	-0.069082
H96	H	0.977045	-0.461813	0.069068
H97	H	0.984265	-0.470633	-0.069074
H98	H	0.648916	0.459381	0.000039
C99	C	1.707646	-0.287919	0.000055
C100	C	1.647103	-0.214578	0.000056
H101	H	1.782400	-0.253094	0.000057
H102	H	1.687195	-0.325796	0.069111
H103	H	1.694413	-0.334596	-0.069018
H104	H	1.660329	-0.167905	0.069133
H105	H	1.667561	-0.176683	-0.069008
H106	H	1.555480	-0.426445	0.000043
H107	H	1.045336	-0.045958	0.000015
H108	H	1.422155	0.115073	0.480404
C109	C	1.097193	0.351219	0.694308
C110	C	1.205311	0.379984	0.724416
H111	H	1.059584	0.397141	0.736639
H112	H	1.094065	0.355062	0.611158
H113	H	1.064601	0.281948	0.714727
H114	H	1.237905	0.449253	0.703989
H115	H	1.208444	0.376151	0.807584
H116	H	1.178689	0.412521	0.519665
