data_functionalizedCrystal
_audit_creation_method	'MofGen! by Chris Wilmer'
_symmetry_space_group_name_H-M	'P1'
_symmetry_Int_Tables_number	1
_symmetry_cell_setting	triclinic
loop_
_symmetry_equiv_pos_as_xyz
  x,y,z
_cell_length_a	13.897449
_cell_length_b	21.295417
_cell_length_c	13.897449
_cell_angle_alpha	90.015093
_cell_angle_beta	90.003875
_cell_angle_gamma	90.031786
loop_
_atom_site_label
_atom_site_type_symbol
_atom_site_fract_x
_atom_site_fract_y
_atom_site_fract_z
Zn1	Zn	1.474456	-0.250700	0.545342
Zn2	Zn	1.474362	-0.355940	0.384027
Zn3	Zn	1.313193	-0.250691	0.384060
Zn4	Zn	1.313091	-0.355938	0.545279
O5	O	1.393775	-0.303317	0.464677
O6	O	1.609425	-0.264665	0.523955
O7	O	1.452985	-0.341976	0.249050
O8	O	1.334667	-0.162603	0.405495
O9	O	1.609356	-0.341984	0.405438
O10	O	1.453146	-0.162610	0.523987
O11	O	1.334575	-0.264650	0.249074
O12	O	1.178198	-0.264647	0.405434
O13	O	1.334493	-0.341981	0.680269
O14	O	1.178123	-0.341972	0.523881
O15	O	1.453048	-0.264663	0.680315
O16	O	1.452886	-0.444029	0.405377
O17	O	1.334402	-0.444027	0.523849
C18	C	1.143161	-0.303309	0.464655
C19	C	1.035947	-0.303320	0.464668
C20	C	0.839652	-0.303323	0.464694
C21	C	0.948884	-0.303319	0.464677
C22	C	1.393649	-0.466869	0.464624
C23	C	1.393683	-0.536837	0.464633
C24	C	1.455433	-0.569684	0.403008
C25	C	1.455478	-0.635426	0.403030
C26	C	1.393756	-0.668319	0.464666
C27	C	1.332002	-0.635465	0.526303
C28	C	1.331965	-0.569724	0.526287
N29	N	1.309373	-0.771588	0.472012
N30	N	1.309411	-0.834039	0.472022
C31	C	1.393864	-0.866394	0.464722
N32	N	1.478281	-0.833938	0.457391
N33	N	1.478242	-0.771481	0.457376
C34	C	1.393790	-0.739605	0.464692
C35	C	1.455668	-0.970526	0.403117
C36	C	1.455715	-1.036270	0.403145
C37	C	1.332231	-1.036308	0.526414
C38	C	1.332192	-0.970565	0.526390
C39	C	1.393910	-0.937678	0.464737
C40	C	1.645368	-0.303326	0.464700
C41	C	1.752582	-0.303330	0.464709
C42	C	1.393770	-0.303323	0.716270
C43	C	1.393767	-0.303325	0.823484
C44	C	1.393929	-0.139127	0.464752
C45	C	1.393994	-0.069159	0.464784
C46	C	1.393765	-0.303327	0.910554
C47	C	1.393764	-0.303324	1.019786
C48	C	1.393772	-0.303325	1.214063
C49	C	1.393769	-0.303319	1.106849
H50	H	1.505689	-0.542909	0.352809
H51	H	1.506005	-1.063013	0.352965
H52	H	1.505766	-0.662175	0.352848
H53	H	1.281980	-1.063089	0.576604
O54	O	1.272107	-0.938752	0.586274
C55	C	1.149670	-0.945729	0.708576
C56	C	1.217653	-0.981835	0.640785
H57	H	1.105640	-0.980546	0.752680
H58	H	1.099189	-0.915012	0.664280
H59	H	1.193909	-0.914891	0.759004
H60	H	1.173491	-1.012707	0.590344
H61	H	1.268136	-1.012513	0.685141
H62	H	1.281749	-0.662251	0.576490
O63	O	1.515486	-0.938546	0.343136
C64	C	1.528529	-0.864322	0.212936
C65	C	1.460676	-0.900510	0.280788
H66	H	1.484243	-0.833552	0.162524
H67	H	1.572664	-0.899065	0.168827
H68	H	1.578925	-0.833526	0.257281
H69	H	1.410221	-0.931307	0.236517
H70	H	1.416608	-0.865734	0.324900
O71	O	1.271885	-0.537911	0.586180
C72	C	1.149457	-0.544886	0.708491
C73	C	1.217435	-0.580993	0.640697
H74	H	1.105431	-0.579702	0.752600
H75	H	1.098973	-0.514169	0.664198
H76	H	1.193700	-0.514047	0.758914
H77	H	1.173269	-0.611866	0.590260
H78	H	1.267921	-0.611670	0.685050
