data_functionalizedCrystal
_audit_creation_method	'MofGen! by Chris Wilmer'
_symmetry_space_group_name_H-M	'P1'
_symmetry_Int_Tables_number	1
_symmetry_cell_setting	triclinic
loop_
_symmetry_equiv_pos_as_xyz
  x,y,z
_cell_length_a	16.120566
_cell_length_b	17.077402
_cell_length_c	17.077396
_cell_angle_alpha	90.029784
_cell_angle_beta	92.919707
_cell_angle_gamma	87.118933
loop_
_atom_site_label
_atom_site_type_symbol
_atom_site_fract_x
_atom_site_fract_y
_atom_site_fract_z
Zn1	Zn	-1.274550	0.373429	-0.504679
Zn2	Zn	-0.941216	0.706762	-0.171346
Zn3	Zn	-0.607883	1.040096	0.161988
Zn4	Zn	-1.274451	0.504699	-0.373405
Zn5	Zn	-0.941118	0.838032	-0.040072
Zn6	Zn	-0.607784	1.171366	0.293261
Zn7	Zn	-1.135133	0.366792	-0.366772
Zn8	Zn	-0.801800	0.700126	-0.033438
Zn9	Zn	-0.468466	1.033459	0.299895
Zn10	Zn	-1.135099	0.497991	-0.497977
Zn11	Zn	-0.801766	0.831325	-0.164643
Zn12	Zn	-0.468432	1.164658	0.168690
O13	O	-1.204808	0.435728	-0.435708
O14	O	-0.871475	0.769061	-0.102375
O15	O	-0.538141	1.102395	0.230958
O16	O	-1.391202	0.396427	-0.492847
O17	O	-1.057869	0.729760	-0.159513
O18	O	-0.724536	1.063094	0.173820
O19	O	-1.255943	0.486435	-0.262677
O20	O	-0.922610	0.819769	0.070656
O21	O	-0.589276	1.153102	0.403990
O22	O	-1.153682	0.257828	-0.385094
O23	O	-0.820349	0.591162	-0.051761
O24	O	-0.487016	0.924495	0.281573
O25	O	-1.391130	0.492871	-0.396400
O26	O	-1.057797	0.826204	-0.063067
O27	O	-0.724463	1.159537	0.270266
O28	O	-1.256111	0.262704	-0.486414
O29	O	-0.922778	0.596038	-0.153081
O30	O	-0.589445	0.929371	0.180253
O31	O	-1.153587	0.385116	-0.257803
O32	O	-0.820253	0.718449	0.075530
O33	O	-0.486920	1.051782	0.408863
O34	O	-1.018463	0.378611	-0.378595
O35	O	-0.685129	0.711945	-0.045262
O36	O	-0.351796	1.045278	0.288072
O37	O	-1.153624	0.481438	-0.608714
O38	O	-0.820291	0.814771	-0.275381
O39	O	-0.486958	1.148105	0.057953
O40	O	-1.018438	0.475003	-0.474991
O41	O	-0.685104	0.808336	-0.141657
O42	O	-0.351771	1.141669	0.191676
O43	O	-1.256078	0.389923	-0.613638
O44	O	-0.922745	0.723256	-0.280305
O45	O	-0.589412	1.056589	0.053028
O46	O	-1.255910	0.613654	-0.389901
O47	O	-0.922577	0.946987	-0.056568
O48	O	-0.589243	1.280320	0.276765
O49	O	-1.153529	0.608725	-0.481423
O50	O	-0.820195	0.942059	-0.148090
O51	O	-0.486862	1.275392	0.185243
C52	C	-0.988200	0.425359	-0.425346
C53	C	-0.654867	0.758693	-0.092013
C54	C	-0.321533	1.092026	0.241320
C55	C	-0.895534	0.420943	-0.420932
C56	C	-0.562201	0.754276	-0.087599
C57	C	-0.228867	1.087609	0.245735
C58	C	-0.725872	0.412861	-0.412879
C59	C	-0.392539	0.746194	-0.079546
C60	C	-0.059206	1.079527	0.253787
C61	C	-0.684584	0.458663	-0.458543
C62	C	-0.351251	0.791996	-0.125210
C63	C	-0.017918	1.125330	0.208123
C64	C	-0.590179	0.454166	-0.454063
C65	C	-0.256846	0.787499	-0.120729
C66	C	0.076488	1.120833	0.212604
C67	C	-0.820286	0.417356	-0.417359
C68	C	-0.486953	0.750690	-0.084026
C69	C	-0.153620	1.084023	0.249308
C70	C	-1.204728	0.639672	-0.435673
C71	C	-0.871394	0.973005	-0.102340
C72	C	-0.538061	1.306339	0.230994
C73	C	-1.204770	0.726924	-0.435688
C74	C	-0.871436	1.060257	-0.102355
C75	C	-0.538103	1.393590	0.230979
C76	C	-1.204859	0.435672	-0.640455
C77	C	-0.871525	0.769006	-0.307122
C78	C	-0.538192	1.102339	0.026212
C79	C	-1.204880	0.435649	-0.727706
C80	C	-0.871547	0.768982	-0.394373
C81	C	-0.538213	1.102316	-0.061039
C82	C	-0.422262	0.446140	-0.446098
C83	C	-0.088929	0.779473	-0.112765
C84	C	0.244405	1.112807	0.220568
C85	C	-0.514928	0.450583	-0.450493
C86	C	-0.181595	0.783916	-0.117160
C87	C	0.151739	1.117250	0.216174
C88	C	-1.204912	0.230989	-0.435762
C89	C	-0.871578	0.564322	-0.102428
C90	C	-0.538245	0.897655	0.230905
C91	C	-1.204956	0.143741	-0.435785
C92	C	-0.871622	0.477074	-0.102451
C93	C	-0.538289	0.810408	0.230882
C94	C	-1.258134	0.770457	-0.388089
C95	C	-0.924801	1.103790	-0.054756
C96	C	-0.591467	1.437123	0.278578
C97	C	-1.258175	0.852439	-0.388111
C98	C	-0.924841	1.185772	-0.054777
C99	C	-0.591508	1.519106	0.278556
C100	C	-1.204846	0.890887	-0.435728
C101	C	-0.871513	1.224220	-0.102395
C102	C	-0.538180	1.557553	0.230938
C103	C	-1.151479	0.847348	-0.483333
C104	C	-0.818146	1.180681	-0.149999
C105	C	-0.484813	1.514015	0.183334
C106	C	-1.151443	0.765367	-0.483314
C107	C	-0.818110	1.098701	-0.149981
C108	C	-0.484777	1.432034	0.183352
C109	C	-1.151557	1.018222	-0.483366
C110	C	-0.818223	1.351555	-0.150033
C111	C	-0.484890	1.684888	0.183301
C112	C	-1.151591	1.100208	-0.483384
C113	C	-0.818258	1.433541	-0.150050
C114	C	-0.484925	1.766875	0.183283
C115	C	-1.258288	1.105293	-0.388163
C116	C	-0.924955	1.438627	-0.054829
C117	C	-0.591621	1.771960	0.278504
C118	C	-1.258252	1.023313	-0.388144
C119	C	-0.924919	1.356646	-0.054811
C120	C	-0.591585	1.689979	0.278522
C121	C	-1.204884	0.979780	-0.435748
C122	C	-0.871551	1.313113	-0.102415
C123	C	-0.538217	1.646446	0.230919
C124	C	-1.258230	0.387993	-0.771261
C125	C	-0.924896	0.721326	-0.437928
C126	C	-0.591563	1.054659	-0.104595
C127	C	-1.258240	0.387967	-0.853242
C128	C	-0.924906	0.721300	-0.519909
C129	C	-0.591573	1.054634	-0.186576
C130	C	-1.204904	0.435602	-0.891666
C131	C	-0.871570	0.768936	-0.558333
C132	C	-0.538237	1.102269	-0.225000
C133	C	-1.151548	0.483260	-0.848105
C134	C	-0.818215	0.816594	-0.514772
C135	C	-0.484881	1.149927	-0.181438
C136	C	-1.151535	0.483281	-0.766125
C137	C	-0.818201	0.816615	-0.432792
C138	C	-0.484868	1.149948	-0.099459
C139	C	-1.151582	0.483215	-1.018977
C140	C	-0.818248	0.816548	-0.685643
C141	C	-0.484915	1.149881	-0.352310
C142	C	-1.151596	0.483195	-1.100962
C143	C	-0.818263	0.816528	-0.767629
C144	C	-0.484930	1.149862	-0.434295
C145	C	-1.258287	0.387901	-1.106094
C146	C	-0.924954	0.721234	-0.772760
C147	C	-0.591620	1.054567	-0.439427
C148	C	-1.258273	0.387921	-1.024114
C149	C	-0.924940	0.721255	-0.690781
C150	C	-0.591607	1.054588	-0.357447
C151	C	-1.204919	0.435581	-0.980558
C152	C	-0.871585	0.768914	-0.647225
C153	C	-0.538252	1.102248	-0.313892
C154	C	-1.204806	0.435729	-0.231760
C155	C	-0.871473	0.769062	0.101573
C156	C	-0.538139	1.102395	0.434906
C157	C	-1.204946	0.435539	-0.144518
C158	C	-0.871613	0.768872	0.188816
C159	C	-0.538279	1.102206	0.522149
H160	H	-1.301557	0.739158	-0.349310
H161	H	-0.968223	1.072491	-0.015976
H162	H	-0.634890	1.405824	0.317357
H163	H	-1.301665	0.349205	-0.739983
H164	H	-0.968332	0.682538	-0.406649
H165	H	-0.634998	1.015872	-0.073316
H166	H	-0.690321	0.370275	-0.370423
H167	H	-0.356988	0.703608	-0.037090
H168	H	-0.023654	1.036941	0.296243
H169	H	-0.720138	0.501252	-0.501003
H170	H	-0.386805	0.834585	-0.167670
H171	H	-0.053471	1.167918	0.165663
H172	H	-1.301629	0.887880	-0.349350
H173	H	-0.968295	1.221213	-0.016017
H174	H	-0.634962	1.554547	0.317316
H175	H	-1.108163	0.521982	-1.132244
H176	H	-0.774830	0.855315	-0.798911
H177	H	-0.441497	1.188649	-0.465578
H178	H	-1.301672	0.992009	-0.349367
H179	H	-0.968338	1.325342	-0.016033
H180	H	-0.635005	1.658675	0.317300
H181	H	-1.301745	1.140742	-0.349405
H182	H	-0.968412	1.474075	-0.016072
H183	H	-0.635078	1.807409	0.317262
H184	H	-1.108182	1.131511	-0.522173
H185	H	-0.774849	1.464844	-0.188840
H186	H	-0.441515	1.798177	0.144493
H187	H	-1.108101	0.982780	-0.522133
H188	H	-0.774768	1.316113	-0.188800
H189	H	-0.441435	1.649446	0.144534
H190	H	-1.108062	0.878659	-0.522107
H191	H	-0.774729	1.211992	-0.188774
H192	H	-0.441395	1.545326	0.144560
H193	H	-1.107990	0.729924	-0.522075
H194	H	-0.774656	1.063257	-0.188742
H195	H	-0.441323	1.396590	0.144591
H196	H	-1.301684	0.349163	-0.888702
H197	H	-0.968351	0.682496	-0.555369
H198	H	-0.635018	1.015829	-0.222035
H199	H	-1.301709	0.349137	-0.992832
H200	H	-0.968376	0.682471	-0.659499
H201	H	-0.635042	1.015804	-0.326165
H202	H	-1.108083	0.522080	-0.730663
H203	H	-0.774750	0.855413	-0.397329
H204	H	-0.441417	1.188746	-0.063996
H205	H	-1.108122	0.522011	-0.983515
H206	H	-0.774788	0.855345	-0.650182
H207	H	-0.441455	1.188678	-0.316848
H208	H	-1.108118	0.522043	-0.879396
H209	H	-0.774785	0.855376	-0.546063
H210	H	-0.441451	1.188709	-0.212729
H211	H	-1.301729	0.349093	-1.141561
H212	H	-0.968396	0.682427	-0.808228
H213	H	-0.635062	1.015760	-0.474894
