data_functionalizedCrystal
_audit_creation_method	'MofGen! by Chris Wilmer'
_symmetry_space_group_name_H-M	'P1'
_symmetry_Int_Tables_number	1
_symmetry_cell_setting	triclinic
loop_
_symmetry_equiv_pos_as_xyz
  x,y,z
_cell_length_a	21.395362
_cell_length_b	18.050589
_cell_length_c	18.050582
_cell_angle_alpha	89.981795
_cell_angle_beta	89.965696
_cell_angle_gamma	90.044101
loop_
_atom_site_label
_atom_site_type_symbol
_atom_site_fract_x
_atom_site_fract_y
_atom_site_fract_z
Zn1	Zn	0.957811	-0.295392	-0.420319
Zn2	Zn	1.291144	0.037941	-0.086986
Zn3	Zn	1.624477	0.371275	0.246347
Zn4	Zn	0.957735	-0.419575	-0.296139
Zn5	Zn	1.291069	-0.086242	0.037195
Zn6	Zn	1.624402	0.247091	0.370528
Zn7	Zn	0.853043	-0.295438	-0.296101
Zn8	Zn	1.186377	0.037895	0.037232
Zn9	Zn	1.519710	0.371229	0.370565
Zn10	Zn	0.852999	-0.419579	-0.420245
Zn11	Zn	1.186333	-0.086246	-0.086912
Zn12	Zn	1.519666	0.247088	0.246422
O13	O	0.905397	-0.357496	-0.358201
O14	O	1.238731	-0.024163	-0.024868
O15	O	1.572064	0.309171	0.308466
O16	O	1.045479	-0.311844	-0.403893
O17	O	1.378812	0.021489	-0.070560
O18	O	1.712145	0.354822	0.262774
O19	O	0.943835	-0.403126	-0.192209
O20	O	1.277168	-0.069792	0.141124
O21	O	1.610501	0.263541	0.474458
O22	O	0.866991	-0.191507	-0.312594
O23	O	1.200324	0.141826	0.020739
O24	O	1.533657	0.475159	0.354072
O25	O	1.045423	-0.403081	-0.312658
O26	O	1.378757	-0.069748	0.020675
O27	O	1.712090	0.263586	0.354009
O28	O	0.943963	-0.191473	-0.403857
O29	O	1.277296	0.141860	-0.070524
O30	O	1.610630	0.475193	0.262810
O31	O	0.866918	-0.311923	-0.192182
O32	O	1.200251	0.021411	0.141152
O33	O	1.533584	0.354744	0.474485
O34	O	0.765360	-0.311926	-0.312523
O35	O	1.098693	0.021407	0.020811
O36	O	1.432026	0.354740	0.354144
O37	O	0.866916	-0.403088	-0.524180
O38	O	1.200249	-0.069754	-0.190846
O39	O	1.533583	0.263579	0.142487
O40	O	0.765327	-0.403132	-0.403731
O41	O	1.098661	-0.069799	-0.070397
O42	O	1.431994	0.263534	0.262936
O43	O	0.943920	-0.311848	-0.524234
O44	O	1.277254	0.021485	-0.190901
O45	O	1.610587	0.354819	0.142433
O46	O	0.943792	-0.523500	-0.312586
O47	O	1.277125	-0.190167	0.020747
O48	O	1.610459	0.143166	0.354080
O49	O	0.866843	-0.523503	-0.403767
O50	O	1.200176	-0.190170	-0.070433
O51	O	1.533510	0.143164	0.262900
C52	C	0.742610	-0.357535	-0.358115
C53	C	1.075943	-0.024202	-0.024782
C54	C	1.409276	0.309131	0.308552
C55	C	0.672968	-0.357570	-0.358096
C56	C	1.006302	-0.024237	-0.024762
C57	C	1.339635	0.309097	0.308571
C58	C	0.905322	-0.550448	-0.358189
C59	C	1.238655	-0.217115	-0.024855
C60	C	1.571988	0.116218	0.308478
C61	C	0.905347	-0.632994	-0.358208
C62	C	1.238680	-0.299661	-0.024875
C63	C	1.572013	0.033673	0.308458
C64	C	0.640255	-0.405124	-0.405517
C65	C	0.973588	-0.071790	-0.072183
C66	C	1.306921	0.261543	0.261150
C67	C	0.574819	-0.405106	-0.405550
C68	C	0.908153	-0.071772	-0.072216
C69	C	1.241486	0.261561	0.261117
C70	C	0.542100	-0.357541	-0.358149
C71	C	0.875433	-0.024208	-0.024815
C72	C	1.208767	0.309125	0.308518
C73	C	0.574821	-0.309978	-0.310724
C74	C	0.908155	0.023355	0.022609
C75	C	1.241488	0.356688	0.355942
C76	C	0.640255	-0.309993	-0.310698
C77	C	0.973589	0.023341	0.022635
C78	C	1.306922	0.356674	0.355969
C79	C	0.438384	-0.351565	-0.291291
C80	C	0.771718	-0.018231	0.042042
C81	C	1.105051	0.315102	0.375376
C82	C	0.372952	-0.351556	-0.291316
C83	C	0.706285	-0.018222	0.042017
C84	C	1.039618	0.315111	0.375351
C85	C	0.340279	-0.357493	-0.358231
C86	C	0.673613	-0.024160	-0.024897
C87	C	1.006946	0.309174	0.308436
C88	C	0.373048	-0.363455	-0.425122
C89	C	0.706381	-0.030121	-0.091789
C90	C	1.039715	0.303212	0.241545
C91	C	0.438482	-0.363469	-0.425095
C92	C	0.771815	-0.030136	-0.091762
C93	C	1.105149	0.303198	0.241571
C94	C	0.471148	-0.357520	-0.358172
C95	C	0.804481	-0.024187	-0.024839
C96	C	1.137814	0.309146	0.308494
C97	C	0.236613	-0.405030	-0.405691
C98	C	0.569947	-0.071696	-0.072358
C99	C	0.903280	0.261637	0.260975
C100	C	0.171177	-0.405006	-0.405726
C101	C	0.504510	-0.071673	-0.072392
C102	C	0.837843	0.261661	0.260941
C103	C	0.171180	-0.309883	-0.310894
C104	C	0.504513	0.023451	0.022440
C105	C	0.837847	0.356784	0.355773
C106	C	0.236615	-0.309902	-0.310866
C107	C	0.569949	0.023431	0.022467
C108	C	0.903282	0.356764	0.355801
C109	C	0.269328	-0.357480	-0.358264
C110	C	0.602661	-0.024146	-0.024931
C111	C	0.935995	0.309187	0.308403
C112	C	0.863543	-0.832473	-0.407775
C113	C	1.196876	-0.499140	-0.074442
C114	C	1.530209	-0.165806	0.258892
C115	C	0.848274	-0.881912	-0.340001
C116	C	1.181607	-0.548579	-0.006668
C117	C	1.514941	-0.215245	0.326665
C118	C	0.905408	-0.784124	-0.358218
C119	C	1.238741	-0.450791	-0.024885
C120	C	1.572075	-0.117458	0.308449
C121	C	0.920707	-0.881767	-0.425999
C122	C	1.254041	-0.548434	-0.092666
C123	C	1.587374	-0.215100	0.240667
C124	C	0.905466	-0.930109	-0.358233
C125	C	1.238800	-0.596776	-0.024900
C126	C	1.572133	-0.263443	0.308433
C127	C	0.890109	-0.832476	-0.290409
C128	C	1.223443	-0.499143	0.042925
C129	C	1.556776	-0.165809	0.376258
C130	C	0.962569	-0.832327	-0.376452
C131	C	1.295903	-0.498993	-0.043119
C132	C	1.629236	-0.165660	0.290215
C133	C	0.947322	-0.881743	-0.308632
C134	C	1.280656	-0.548410	0.024701
C135	C	1.613989	-0.215077	0.358035
C136	C	0.905373	-0.700026	-0.358210
C137	C	1.238706	-0.366693	-0.024877
C138	C	1.572040	-0.033359	0.308457
C139	C	0.905502	-1.014206	-0.358234
C140	C	1.238835	-0.680872	-0.024900
C141	C	1.572168	-0.347539	0.308433
C142	C	1.068821	-0.357457	-0.358288
C143	C	1.402154	-0.024124	-0.024955
C144	C	1.735487	0.309210	0.308379
C145	C	1.138462	-0.357441	-0.358325
C146	C	1.471795	-0.024107	-0.024992
C147	C	1.805128	0.309226	0.308342
C148	C	0.905422	-0.357463	-0.551907
C149	C	1.238755	-0.024130	-0.218573
C150	C	1.572088	0.309204	0.114760
C151	C	0.905432	-0.357449	-0.634453
C152	C	1.238766	-0.024116	-0.301119
C153	C	1.572099	0.309218	0.032214
C154	C	0.905490	-0.163790	-0.358230
C155	C	1.238824	0.169543	-0.024896
C156	C	1.572157	0.502876	0.308437
C157	C	0.905530	-0.081245	-0.358242
C158	C	1.238863	0.252089	-0.024909
C159	C	1.572196	0.585422	0.308425
C160	C	0.863589	-0.406997	-0.833874
C161	C	1.196923	-0.073664	-0.500540
C162	C	1.530256	0.259669	-0.167207
C163	C	0.920752	-0.425132	-0.883289
C164	C	1.254086	-0.091799	-0.549956
C165	C	1.587419	0.241535	-0.216623
C166	C	0.905463	-0.357392	-0.785583
C167	C	1.238796	-0.024059	-0.452250
C168	C	1.572130	0.309274	-0.118916
C169	C	0.848332	-0.339237	-0.883249
C170	C	1.181665	-0.005904	-0.549916
C171	C	1.514998	0.327430	-0.216583
C172	C	0.905488	-0.357339	-0.931568
C173	C	1.238821	-0.024006	-0.598235
C174	C	1.572155	0.309328	-0.264902
C175	C	0.962656	-0.375563	-0.833911
C176	C	1.295989	-0.042229	-0.500578
C177	C	1.629323	0.291104	-0.167245
C178	C	0.890197	-0.289636	-0.833867
C179	C	1.223530	0.043697	-0.500534
C180	C	1.556864	0.377031	-0.167200
C181	C	0.947399	-0.307745	-0.883260
C182	C	1.280733	0.025588	-0.549927
C183	C	1.614066	0.358922	-0.216594
C184	C	0.905448	-0.357425	-0.701485
C185	C	1.238781	-0.024092	-0.368151
C186	C	1.572115	0.309242	-0.034818
C187	C	0.905509	-0.357306	-1.015665
C188	C	1.238843	-0.023973	-0.682332
C189	C	1.572176	0.309360	-0.348998
C190	C	0.905409	-0.357475	-0.165249
C191	C	1.238742	-0.024142	0.168084
C192	C	1.572075	0.309191	0.501418
C193	C	0.905520	-0.357280	-0.082704
C194	C	1.238853	-0.023947	0.250630
C195	C	1.572186	0.309387	0.583963
H196	H	0.548179	-0.443829	-0.444168
H197	H	0.881512	-0.110496	-0.110835
H198	H	1.214845	0.222837	0.222498
H199	H	0.828211	-0.449002	-0.812190
H200	H	1.161544	-0.115668	-0.478857
H201	H	1.494878	0.217665	-0.145524
H202	H	0.877253	-0.232375	-0.812142
H203	H	1.210586	0.100958	-0.478809
H204	H	1.543919	0.434292	-0.145475
H205	H	1.010870	-0.810533	-0.391893
H206	H	1.344204	-0.477199	-0.058560
H207	H	1.677537	-0.143866	0.274774
N208	N	0.473827	-0.369897	-0.497235
N209	N	0.807160	-0.036564	-0.163902
N210	N	1.140493	0.296769	0.169431
H211	H	0.443205	-0.373658	-0.539633
H212	H	0.776538	-0.040324	-0.206299
H213	H	1.109872	0.293009	0.127034
H214	H	0.501018	-0.324663	-0.504195
H215	H	0.834351	0.008670	-0.170861
H216	H	1.167684	0.342003	0.162472
N217	N	0.539535	-0.258682	-0.259593
N218	N	0.872869	0.074651	0.073741
N219	N	1.206202	0.407985	0.407074
H220	H	0.550878	-0.270148	-0.206509
H221	H	0.884212	0.063185	0.126824
H222	H	1.217545	0.396518	0.460158
H223	H	0.550987	-0.205658	-0.271274
H224	H	0.884320	0.127675	0.062059
H225	H	1.217654	0.461009	0.395393
H226	H	0.346276	-0.346706	-0.236849
H227	H	0.679610	-0.013372	0.096484
H228	H	1.012943	0.319961	0.429818
H229	H	0.877136	-0.810914	-0.233077
H230	H	1.210470	-0.477581	0.100256
H231	H	1.543803	-0.144247	0.433589
H232	H	0.933624	-0.903419	-0.483315
H233	H	1.266958	-0.570085	-0.149982
H234	H	1.600291	-0.236752	0.183352
N235	N	0.994370	-0.252155	-0.911823
N236	N	1.327703	0.081178	-0.578489
N237	N	1.661037	0.414511	-0.245156
H238	H	1.037497	-0.265947	-0.893783
H239	H	1.370831	0.067386	-0.560450
H240	H	1.704164	0.400720	-0.227117
H241	H	0.993805	-0.252169	-0.967770
H242	H	1.327139	0.081165	-0.634436
H243	H	1.660472	0.414498	-0.301103
H244	H	0.933680	-0.482410	-0.904998
H245	H	1.267013	-0.149076	-0.571665
H246	H	1.600346	0.184257	-0.238331
N247	N	1.026689	-0.395960	-0.805333
N248	N	1.360023	-0.062627	-0.472000
N249	N	1.693356	0.270706	-0.138666
H250	H	1.026280	-0.395876	-0.749381
H251	H	1.359614	-0.062543	-0.416048
H252	H	1.692947	0.270790	-0.082715
H253	H	1.038287	-0.446942	-0.823801
H254	H	1.371620	-0.113609	-0.490468
H255	H	1.704954	0.219724	-0.157135
H256	H	0.666890	-0.271266	-0.272082
H257	H	1.000224	0.062067	0.061251
H258	H	1.333557	0.395400	0.394585
H259	H	0.982752	-0.903241	-0.266681
H260	H	1.316085	-0.569908	0.066652
H261	H	1.649418	-0.236575	0.399985
H262	H	0.800006	-0.323903	-0.904923
H263	H	1.133339	0.009430	-0.571589
H264	H	1.466672	0.342763	-0.238256
H265	H	0.346448	-0.368288	-0.479610
H266	H	0.679781	-0.034955	-0.146277
H267	H	1.013114	0.298378	0.187056
H268	H	0.666885	-0.443864	-0.444113
H269	H	1.000219	-0.110531	-0.110779
H270	H	1.333552	0.222803	0.222554
H271	H	0.263251	-0.271182	-0.272247
H272	H	0.596584	0.062151	0.061086
H273	H	0.929918	0.395484	0.394420
H274	H	0.263249	-0.443766	-0.444289
H275	H	0.596583	-0.110433	-0.110956
H276	H	0.929916	0.222901	0.222377
H277	H	0.828087	-0.810838	-0.449624
H278	H	1.161420	-0.477504	-0.116291
H279	H	1.494753	-0.144171	0.217042
N280	N	0.784275	-0.910754	-0.319574
N281	N	1.117608	-0.577420	0.013760
N282	N	1.450942	-0.244087	0.347093
H283	H	0.767548	-0.942341	-0.361277
H284	H	1.100881	-0.609007	-0.027943
H285	H	1.434215	-0.275674	0.305390
H286	H	0.787351	-0.941520	-0.272977
H287	H	1.120684	-0.608187	0.060356
H288	H	1.454018	-0.274854	0.393689
N289	N	0.135889	-0.456303	-0.456871
N290	N	0.469222	-0.122969	-0.123538
N291	N	0.802556	0.210364	0.209796
H292	H	0.147330	-0.444856	-0.509950
H293	H	0.480663	-0.111523	-0.176617
H294	H	0.813996	0.221810	0.156717
H295	H	0.147240	-0.509328	-0.445166
H296	H	0.480573	-0.175995	-0.111833
H297	H	0.813906	0.157338	0.221500
N298	N	0.135899	-0.258574	-0.259772
N299	N	0.469233	0.074759	0.073561
N300	N	0.802566	0.408093	0.406894
H301	H	0.089483	-0.265778	-0.266986
H302	H	0.422816	0.067555	0.066348
H303	H	0.756149	0.400888	0.399681
H304	H	0.147284	-0.270061	-0.206708
H305	H	0.480618	0.063272	0.126625
H306	H	0.813951	0.396606	0.459959
H307	H	0.464981	-0.346727	-0.236797
H308	H	0.798314	-0.013393	0.096536
H309	H	1.131648	0.319940	0.429869
