data_functionalizedCrystal
_audit_creation_method	'MofGen! by Chris Wilmer'
_symmetry_space_group_name_H-M	'P1'
_symmetry_Int_Tables_number	1
_symmetry_cell_setting	triclinic
loop_
_symmetry_equiv_pos_as_xyz
  x,y,z
_cell_length_a	10.489741
_cell_length_b	14.044220
_cell_length_c	12.503552
_cell_angle_alpha	86.160109
_cell_angle_beta	86.444084
_cell_angle_gamma	91.135974
loop_
_atom_site_label
_atom_site_type_symbol
_atom_site_fract_x
_atom_site_fract_y
_atom_site_fract_z
O1	O	0.300997	-1.265226	0.089205
O2	O	0.634330	-0.931893	0.422538
O3	O	0.967663	-0.598560	0.755872
O4	O	0.289890	-0.989183	0.089232
O5	O	0.623223	-0.655850	0.422566
O6	O	0.956556	-0.322516	0.755899
O7	O	0.110483	-1.133486	0.089212
O8	O	0.443816	-0.800152	0.422545
O9	O	0.777150	-0.466819	0.755878
O10	O	0.480403	-1.120924	0.089226
O11	O	0.813737	-0.787591	0.422559
O12	O	1.147070	-0.454257	0.755892
O13	O	0.123987	-1.122621	-0.089429
O14	O	0.457320	-0.789287	0.243904
O15	O	0.790654	-0.455954	0.577237
O16	O	0.303394	-0.978318	-0.089409
O17	O	0.636727	-0.644985	0.243925
O18	O	0.970060	-0.311652	0.577258
O19	O	0.314501	-1.254362	-0.089436
O20	O	0.647834	-0.921028	0.243898
O21	O	0.981167	-0.587695	0.577231
Cu22	Cu	0.310180	-1.115348	-0.105734
Cu23	Cu	0.643514	-0.782014	0.227600
Cu24	Cu	0.976847	-0.448681	0.560933
Cu25	Cu	0.294210	-1.128197	0.105530
Cu26	Cu	0.627544	-0.794864	0.438863
Cu27	Cu	0.960877	-0.461530	0.772197
O28	O	0.493907	-1.110059	-0.089415
O29	O	0.827241	-0.776726	0.243918
O30	O	1.160574	-0.443392	0.577251
C31	C	0.291780	-0.948403	-0.000085
C32	C	0.625114	-0.615070	0.333249
C33	C	0.958447	-0.281737	0.666582
C34	C	0.277280	-0.843079	-0.000074
C35	C	0.610613	-0.509746	0.333259
C36	C	0.943947	-0.176412	0.666592
C37	C	0.069607	-1.127104	-0.000108
C38	C	0.402940	-0.793771	0.333225
C39	C	0.736274	-0.460438	0.666559
C40	C	-0.072311	-1.124266	-0.000106
C41	C	0.261023	-0.790933	0.333228
C42	C	0.594356	-0.457599	0.666561
C43	C	0.312610	-1.295142	-0.000116
C44	C	0.645943	-0.961808	0.333217
C45	C	0.979277	-0.628475	0.666550
C46	C	0.327110	-1.400466	-0.000120
C47	C	0.660443	-1.067133	0.333214
C48	C	0.993776	-0.733799	0.666547
C49	C	-0.149764	-1.032451	-0.000089
C50	C	0.183569	-0.699117	0.333244
C51	C	0.516902	-0.365784	0.666578
C52	C	-0.230829	-1.070467	-0.088172
C53	C	0.102504	-0.737133	0.245161
C54	C	0.435837	-0.403800	0.578494
C55	C	-0.244116	-1.081200	0.087954
C56	C	0.089218	-0.747867	0.421287
C57	C	0.422551	-0.414534	0.754620
C58	C	-0.151501	-1.162315	-0.088262
C59	C	0.181833	-0.828982	0.245071
C60	C	0.515166	-0.495648	0.578405
C61	C	-0.164785	-1.173041	0.087943
C62	C	0.168549	-0.839708	0.421276
C63	C	0.501882	-0.506374	0.754610
C64	C	-0.245814	-1.211122	-0.000162
C65	C	0.087520	-0.877789	0.333171
C66	C	0.420853	-0.544456	0.666505
C67	C	0.534783	-1.116440	-0.000093
C68	C	0.868117	-0.783107	0.333240
C69	C	1.201450	-0.449774	0.666574
C70	C	0.676700	-1.119279	-0.000088
C71	C	1.010034	-0.785946	0.333245
C72	C	1.343367	-0.452613	0.666578
N73	N	0.321413	-1.106317	-0.254325
N74	N	0.654746	-0.772984	0.079008
N75	N	0.988079	-0.439651	0.412342
C76	C	0.250773	-0.650235	-0.000097
C77	C	0.584106	-0.316902	0.333237
C78	C	0.917440	0.016431	0.666570
C79	C	0.353611	-0.593304	-0.000097
C80	C	0.686944	-0.259971	0.333236
C81	C	1.020278	0.073362	0.666569
C82	C	0.338862	-0.485999	-0.000110
C83	C	0.672195	-0.152666	0.333224
C84	C	1.005529	0.180667	0.666557
C85	C	0.265520	-0.757550	-0.000084
C86	C	0.598853	-0.424217	0.333249
C87	C	0.932187	-0.090884	0.666582
C88	C	0.266441	-1.150514	-0.526764
C89	C	0.599774	-0.817181	-0.193431
C90	C	0.933107	-0.483847	0.139902
C91	C	0.337937	-1.093041	-0.473432
C92	C	0.671270	-0.759708	-0.140099
C93	C	1.004603	-0.426375	0.193235
C94	C	0.328740	-1.100430	-0.351510
C95	C	0.662074	-0.767097	-0.018176
C96	C	0.995407	-0.433763	0.315157
C97	C	0.275635	-1.143126	-0.648698
C98	C	0.608969	-0.809793	-0.315365
C99	C	0.942302	-0.476460	0.017969
N100	N	0.282969	-1.137235	0.254122
N101	N	0.616302	-0.803901	0.587455
N102	N	0.949635	-0.470568	0.920788
H103	H	-0.107764	-0.956955	-0.000170
H104	H	0.225570	-0.623622	0.333163
H105	H	0.558903	-0.290288	0.666496
Cl106	Cl	0.443108	-1.008510	-0.544308
Cl107	Cl	0.776441	-0.675177	-0.210975
Cl108	Cl	1.109774	-0.341843	0.122359
Cl109	Cl	0.161283	-1.235047	-0.455893
Cl110	Cl	0.494617	-0.901714	-0.122559
Cl111	Cl	0.827950	-0.568381	0.210774
H112	H	0.151662	-0.618389	-0.000106
H113	H	0.484995	-0.285056	0.333227
H114	H	0.818329	0.048278	0.666560
H115	H	-0.260152	-1.027088	-0.162633
H116	H	0.073181	-0.693755	0.170700
H117	H	0.406514	-0.360422	0.504033
Cl118	Cl	0.506645	-0.642471	-0.000085
Cl119	Cl	0.839978	-0.309138	0.333249
Cl120	Cl	1.173311	0.024196	0.666582
Cl121	Cl	-0.089128	-1.215246	-0.203364
Cl122	Cl	0.244206	-0.881913	0.129970
Cl123	Cl	0.577539	-0.548579	0.463303
H124	H	-0.135432	-1.216386	0.162408
H125	H	0.197901	-0.883053	0.495741
H126	H	0.531235	-0.549720	0.829074
Cl127	Cl	-0.310289	-1.327772	-0.000245
Cl128	Cl	0.023044	-0.994438	0.333089
Cl129	Cl	0.356377	-0.661105	0.666422
H130	H	-0.284651	-1.046869	0.162429
H131	H	0.048683	-0.713535	0.495762
H132	H	0.382016	-0.380202	0.829095
