data_functionalizedCrystal
_audit_creation_method	'MofGen! by Chris Wilmer'
_symmetry_space_group_name_H-M	'P1'
_symmetry_Int_Tables_number	1
_symmetry_cell_setting	triclinic
loop_
_symmetry_equiv_pos_as_xyz
  x,y,z
_cell_length_a	19.319731
_cell_length_b	19.318970
_cell_length_c	19.315557
_cell_angle_alpha	60.007379
_cell_angle_beta	60.014690
_cell_angle_gamma	59.991495
loop_
_atom_site_label
_atom_site_type_symbol
_atom_site_fract_x
_atom_site_fract_y
_atom_site_fract_z
O1	O	0.095954	-1.011347	0.845684
O2	O	0.036156	-0.787405	0.681392
O3	O	0.177960	-0.929104	0.681276
O4	O	-0.045850	-0.869648	0.845799
O5	O	0.225008	-0.882072	0.728208
O6	O	0.083204	-0.740373	0.728324
O7	O	0.143002	-0.964315	0.892616
Cu8	Cu	0.117399	-0.848050	0.814755
Cu9	Cu	0.061759	-0.903670	0.759252
O10	O	0.001198	-0.822616	0.892732
N11	N	0.156535	-0.808935	0.853797
N12	N	0.022631	-0.942793	0.720211
C13	C	0.182113	-0.653200	0.879374
C14	C	0.182221	-0.783395	1.009518
C15	C	0.312319	-0.783375	0.879314
C16	C	0.182127	-0.783371	0.879357
C17	C	0.214696	-0.750836	0.911890
C18	C	-0.132988	-0.968144	0.694232
C19	C	-0.002674	-0.968326	0.564242
C20	C	-0.002907	-1.098444	0.694459
C21	C	-0.002887	-0.968321	0.694542
C22	C	-0.035363	-1.000810	0.661869
N23	N	0.389025	-0.808944	0.853717
O24	O	0.660019	-0.816766	0.651282
O25	O	0.660312	-0.981573	0.874999
O26	O	0.660193	-0.981192	0.733108
O27	O	0.660138	-0.817147	0.793174
O28	O	0.519202	-0.934278	0.780210
O29	O	0.519321	-0.934658	0.922102
O30	O	0.519028	-0.769852	0.698384
Cu31	Cu	0.506300	-0.847971	0.814544
Cu32	Cu	0.673039	-0.903453	0.758840
O33	O	0.519147	-0.770232	0.840276
N34	N	0.790314	-0.942480	0.719658
N35	N	0.156514	-0.576494	0.853827
O36	O	-0.045823	-0.305328	0.845846
O37	O	0.177892	-0.305317	0.681053
O38	O	0.035967	-0.305340	0.681465
O39	O	0.096102	-0.305306	0.845434
O40	O	0.083020	-0.446347	0.728459
O41	O	0.224945	-0.446325	0.728047
O42	O	0.001230	-0.446335	0.892839
Cu43	Cu	0.117383	-0.459205	0.814734
Cu44	Cu	0.061738	-0.292448	0.759159
O45	O	0.143154	-0.446313	0.892428
N46	N	0.022597	-0.175159	0.720067
N47	N	0.156703	-0.808977	1.086224
O48	O	0.148753	-1.011298	1.357359
O49	O	-0.016009	-0.787491	1.357400
O50	O	-0.015627	-0.929387	1.357339
O51	O	0.148372	-0.869401	1.357420
O52	O	0.031342	-0.882367	1.216340
O53	O	0.030961	-0.740471	1.216400
O54	O	0.195723	-0.964278	1.216360
Cu55	Cu	0.117631	-0.848081	1.203506
Cu56	Cu	0.062083	-0.903688	1.370254
O57	O	0.195341	-0.822381	1.216420
N58	N	0.023010	-0.942801	1.487536
C59	C	0.054075	-0.735670	0.682223
C60	C	0.229681	-0.911148	0.682079
C61	C	0.125082	-1.016051	0.891784
C62	C	-0.050524	-0.840572	0.891928
C63	C	0.589851	-0.980810	0.926735
C64	C	0.589706	-0.980340	0.751019
C65	C	0.589484	-0.770613	0.646650
C66	C	0.589634	-0.771085	0.822364
C67	C	0.229543	-0.375646	0.681799
C68	C	0.053845	-0.375847	0.682366
C69	C	-0.050480	-0.375832	0.892036
C70	C	0.125277	-0.375807	0.891527
C71	C	-0.015214	-0.735785	1.286905
C72	C	-0.014732	-0.911497	1.286802
C73	C	0.194928	-1.015984	1.286855
C74	C	0.194457	-0.840261	1.286926
H75	H	0.041301	-0.671339	0.630625
C76	C	0.316155	-0.375108	0.611725
C77	C	0.397498	-0.448053	0.626736
C78	C	0.484110	-0.447514	0.556663
C79	C	0.489380	-0.374030	0.471578
C80	C	0.408035	-0.301080	0.456564
C81	C	0.321423	-0.301619	0.526638
H82	H	0.393599	-0.502454	0.689724
H83	H	0.544327	-0.501517	0.567778
H84	H	0.553496	-0.373632	0.419706
H85	H	0.411934	-0.246678	0.393576
H86	H	0.261205	-0.247615	0.515522
C87	C	0.264814	-1.102817	1.286840
C88	C	0.249429	-1.183872	1.360036
C89	C	0.319314	-1.270705	1.360022
C90	C	0.404585	-1.276482	1.286812
C91	C	0.419974	-1.195424	1.213611
C92	C	0.350088	-1.108591	1.213625
H93	H	0.186303	-1.179598	1.414235
H94	H	0.307922	-1.330709	1.414210
H95	H	0.456318	-1.340761	1.286801
H96	H	0.483100	-1.199698	1.159411
H97	H	0.361481	-1.048587	1.159436
H98	H	-0.114728	-0.375837	0.943771
H99	H	0.245979	-0.827427	1.286940
H100	H	0.137858	-1.080380	0.943384
C101	C	-0.137363	-0.823460	0.961727
C102	C	-0.207163	-0.736587	0.944643
C103	C	-0.294003	-0.719475	1.014442
C104	C	-0.311042	-0.789237	1.101325
C105	C	-0.241240	-0.876116	1.118412
C106	C	-0.154401	-0.893228	1.048613
H107	H	-0.194552	-0.684940	0.880323
H108	H	-0.345675	-0.655161	1.001792
H109	H	-0.375326	-0.776570	1.152994
H110	H	-0.253852	-0.927763	1.182732
H111	H	-0.102729	-0.957542	1.061263
C112	C	0.142666	-0.375799	0.961123
C113	C	0.136664	-0.449019	1.046405
C114	C	0.154052	-0.449011	1.116001
C115	C	0.177443	-0.375783	1.100314
C116	C	0.183446	-0.302558	1.015028
C117	C	0.166057	-0.302566	0.945433
H118	H	0.119348	-0.503231	1.058020
H119	H	0.149608	-0.503217	1.179135
H120	H	0.190314	-0.375778	1.151833
H121	H	0.200762	-0.248346	1.003413
H122	H	0.170501	-0.248360	0.882298
C123	C	0.589734	-1.049964	0.733660
C124	C	0.663011	-1.135225	0.739650
C125	C	0.663039	-1.204848	0.722291
C126	C	0.589790	-1.189212	0.698943
C127	C	0.516508	-1.103947	0.692952
C128	C	0.516480	-1.034323	0.710311
H129	H	0.717239	-1.146803	0.756935
H130	H	0.717287	-1.267967	0.726726
H131	H	0.589811	-1.240752	0.686093
H132	H	0.462281	-1.092369	0.675667
H133	H	0.462232	-0.971205	0.705876
C134	C	-0.085100	-0.648952	1.286920
C135	C	-0.171919	-0.631981	1.286898
C136	C	-0.241805	-0.545148	1.286913
C137	C	-0.224871	-0.475287	1.286949
C138	C	-0.138048	-0.492257	1.286971
C139	C	-0.068162	-0.579089	1.286956
H140	H	-0.184458	-0.683698	1.286871
H141	H	-0.306077	-0.532586	1.286897
H142	H	-0.276605	-0.411008	1.286960
H143	H	-0.125509	-0.440540	1.286997
H144	H	-0.003890	-0.591651	1.286972
C145	C	0.316519	-0.928262	0.612278
C146	C	0.386318	-1.015136	0.629361
C147	C	0.473155	-1.032250	0.559560
C148	C	0.490194	-0.962490	0.472677
C149	C	0.420393	-0.875609	0.455590
C150	C	0.333556	-0.858496	0.525391
H151	H	0.373707	-1.066783	0.693681
H152	H	0.524827	-1.096565	0.572210
H153	H	0.554476	-0.975158	0.421006
H154	H	0.433004	-0.823963	0.391270
H155	H	0.281884	-0.794181	0.512742
C156	C	0.036458	-0.375859	0.612772
C157	C	0.013068	-0.449088	0.628460
C158	C	-0.004319	-0.449100	0.558866
C159	C	0.001683	-0.375882	0.473582
C160	C	0.025074	-0.302647	0.457890
C161	C	0.042461	-0.302635	0.527484
H162	H	0.008624	-0.503293	0.691596
H163	H	-0.021634	-0.503313	0.570483
H164	H	-0.011188	-0.375890	0.422064
H165	H	0.029518	-0.248442	0.394754
H166	H	0.059776	-0.248422	0.515867
H167	H	0.589926	-1.032546	0.990990
H168	H	-0.066232	-0.924309	1.286721
H169	H	0.589622	-0.719555	0.835218
C170	C	0.589362	-0.700707	0.559856
C171	C	0.589312	-0.717646	0.489989
C172	C	0.589191	-0.647741	0.403196
C173	C	0.589119	-0.560897	0.386269
C174	C	0.589168	-0.543954	0.456137
C175	C	0.589290	-0.613860	0.542931
H176	H	0.589366	-0.781936	0.502518
H177	H	0.589154	-0.660283	0.351474
H178	H	0.589028	-0.509149	0.322019
H179	H	0.589115	-0.479664	0.443609
H180	H	0.589327	-0.601317	0.594652
