data_functionalizedCrystal
_audit_creation_method	'MofGen! by Chris Wilmer'
_symmetry_space_group_name_H-M	'P1'
_symmetry_Int_Tables_number	1
_symmetry_cell_setting	triclinic
loop_
_symmetry_equiv_pos_as_xyz
  x,y,z
_cell_length_a	19.121063
_cell_length_b	19.077142
_cell_length_c	19.076919
_cell_angle_alpha	90.074357
_cell_angle_beta	85.393653
_cell_angle_gamma	89.737710
loop_
_atom_site_label
_atom_site_type_symbol
_atom_site_fract_x
_atom_site_fract_y
_atom_site_fract_z
Zn1	Zn	-0.339751	-1.043167	0.454345
Zn2	Zn	-0.452662	-1.042788	0.341455
Zn3	Zn	-0.330341	-0.930803	0.331749
Zn4	Zn	-0.452237	-0.920629	0.454186
O5	O	-0.393748	-0.984347	0.395434
O6	O	-0.358844	-1.141265	0.443498
O7	O	-0.432676	-1.032032	0.241682
O8	O	-0.233322	-0.950125	0.344017
O9	O	-0.441800	-1.140987	0.360558
O10	O	-0.240235	-1.032678	0.434087
O11	O	-0.342808	-0.949758	0.234552
O12	O	-0.342395	-0.831305	0.343863
O13	O	-0.441075	-0.932784	0.552692
O14	O	-0.431951	-0.823830	0.433816
O15	O	-0.358432	-1.022813	0.552808
O16	O	-0.550873	-1.022167	0.360404
O17	O	-0.550561	-0.932417	0.443227
C18	C	-0.386107	-0.802118	0.387770
C19	C	-0.382855	-0.724159	0.384508
C20	C	-0.428020	-0.683660	0.429742
C21	C	-0.424956	-0.610409	0.426681
C22	C	-0.376730	-0.577658	0.378382
C23	C	-0.331561	-0.618163	0.333146
C24	C	-0.334622	-0.691412	0.336211
C25	C	-0.362564	-0.359001	0.364203
C26	C	-0.359508	-0.285746	0.361139
C27	C	-0.452902	-0.277997	0.454675
C28	C	-0.455962	-0.351248	0.457733
C29	C	-0.410791	-0.391746	0.412500
N30	N	-0.373598	-0.502784	0.375250
N31	N	-0.413919	-0.466619	0.415636
C32	C	-0.576198	-0.976165	0.402867
C33	C	-0.654255	-0.972728	0.406074
C34	C	-0.691068	-1.017875	0.364497
C35	C	-0.764411	-1.014646	0.367517
C36	C	-0.800938	-0.966267	0.412111
C37	C	-0.764120	-0.921119	0.453692
C38	C	-0.690779	-0.924351	0.450675
C39	C	-1.022374	-0.954171	0.423378
C40	C	-1.095721	-0.950941	0.426390
C41	C	-1.096006	-1.044469	0.340216
C42	C	-1.022664	-1.047695	0.337201
C43	C	-0.985852	-1.002549	0.378784
C44	C	-0.875906	-0.962964	0.415197
C45	C	-0.910885	-1.005855	0.375701
C46	C	-0.210586	-0.992579	0.387987
C47	C	-0.132534	-0.996087	0.384814
C48	C	-0.400756	-0.976706	0.579000
C49	C	-0.403742	-0.973450	0.657225
C50	C	-0.401415	-0.167287	0.403120
C51	C	-0.404672	-0.245247	0.406373
C52	C	-0.386718	-0.992001	0.212581
C53	C	-0.383540	-0.995401	0.134354
C54	C	-0.362119	-1.018791	0.694037
C55	C	-0.364922	-1.015723	0.767538
C56	C	-0.409352	-0.967317	0.804225
C57	C	-0.450976	-0.921971	0.767407
C58	C	-0.448169	-0.925036	0.693908
C59	C	-0.422357	-0.953121	1.024037
C60	C	-0.425163	-0.950061	1.097542
C61	C	-0.339107	-1.043812	1.097667
C62	C	-0.336307	-1.046875	1.024166
C63	C	-0.377929	-1.001527	0.987355
N64	N	-0.412219	-0.964181	0.879354
N65	N	-0.375057	-1.004660	0.912227
H66	H	-0.495234	-0.377908	0.497062
H67	H	-0.461734	-0.577437	0.463514
H68	H	-0.456259	-0.916205	0.994075
N69	N	-0.290928	-1.096316	0.986679
N70	N	-0.315946	-1.141605	0.948549
H71	H	-0.283899	-1.176523	0.922071
N72	N	-0.310250	-0.252282	0.311801
N73	N	-0.331467	-0.212165	0.266206
H74	H	-0.296682	-0.188530	0.231361
H75	H	-0.794381	-1.051409	0.333661
H76	H	-0.992924	-1.087088	0.300889
N77	N	-1.133620	-1.090576	0.297746
N78	N	-1.199102	-1.087685	0.300442
H79	H	-1.225668	-1.120251	0.270447
H80	H	-0.905655	-0.923573	0.451503
N81	N	-0.316423	-0.400352	0.317991
N82	N	-0.273373	-0.371099	0.274867
H83	H	-0.240785	-0.400305	0.242225
N84	N	-0.470537	-0.900609	1.135028
N85	N	-0.473036	-0.897884	1.200652
H86	H	-0.505080	-0.862961	1.227129
H87	H	-0.325941	-1.058210	0.664172
H88	H	-0.482056	-0.888108	0.663936
N89	N	-0.499047	-0.236629	0.500871
N90	N	-0.541103	-0.194783	0.476149
H91	H	-0.573695	-0.165567	0.508777
N92	N	-0.322400	-1.062042	0.805129
N93	N	-0.282738	-1.105262	0.772365
H94	H	-0.252704	-1.137978	0.798913
N95	N	-1.133032	-0.901532	0.471959
N96	N	-1.176662	-0.922510	0.519541
H97	H	-1.203013	-0.887617	0.551724
N98	N	-0.282298	-0.584700	0.283818
N99	N	-0.279570	-0.519299	0.281087
H100	H	-0.244778	-0.495666	0.246247
H101	H	-0.467293	-0.710320	0.469070
H102	H	-0.793867	-0.881730	0.490004
H103	H	-0.992408	-0.917410	0.457236
H104	H	-0.297841	-0.724386	0.299381
N105	N	-0.653770	-1.067292	0.318936
N106	N	-0.686651	-1.107597	0.281818
H107	H	-0.660312	-1.142501	0.249639
N108	N	-0.653184	-0.878234	0.493154
N109	N	-0.685804	-0.835043	0.532968
H110	H	-0.659254	-0.802473	0.562974
H111	H	-0.305220	-1.080730	1.127646
N112	N	-0.873566	-1.055261	0.330148
N113	N	-0.829935	-1.034278	0.282570
H114	H	-0.803571	-1.069169	0.250395
N115	N	-0.496351	-0.872524	0.804890
N116	N	-0.498852	-0.869793	0.870514
H117	H	-0.530900	-0.834871	0.896986
