data_functionalizedCrystal
_audit_creation_method	'MofGen! by Chris Wilmer'
_symmetry_space_group_name_H-M	'P1'
_symmetry_Int_Tables_number	1
_symmetry_cell_setting	triclinic
loop_
_symmetry_equiv_pos_as_xyz
  x,y,z
_cell_length_a	6.817900
_cell_length_b	11.102233
_cell_length_c	12.908943
_cell_angle_alpha	94.414581
_cell_angle_beta	100.860631
_cell_angle_gamma	108.604751
loop_
_atom_site_label
_atom_site_type_symbol
_atom_site_fract_x
_atom_site_fract_y
_atom_site_fract_z
V1	V	-4.022086	-0.174254	-0.328687
O2	O	-3.982824	0.010006	-0.322425
O3	O	-3.999473	-0.347086	-0.326445
O4	O	-3.959859	-0.170857	-0.472037
O5	O	-4.022712	-0.167443	-0.175825
V6	V	-4.504165	-0.152299	-0.310403
O7	O	-4.286514	-0.222414	-0.368795
O8	O	-4.689935	-0.104139	-0.270295
O9	O	-4.303572	0.020533	-0.312646
O10	O	-4.660824	-0.336558	-0.316666
O11	O	-4.620936	-0.159110	-0.463265
O12	O	-4.343186	-0.155695	-0.167054
C13	C	-3.851194	-0.389241	-0.321261
C14	C	-3.913899	-0.530528	-0.320383
C15	C	-4.184855	-0.736108	-0.324394
C16	C	-4.125941	-0.603354	-0.325226
C17	C	-3.760759	-0.590461	-0.314697
C18	C	-3.819672	-0.723211	-0.313858
C19	C	-4.395691	-0.743551	-0.330477
C20	C	-4.336777	-0.610798	-0.331309
C21	C	-3.800661	-0.164442	-0.506977
C22	C	-3.831238	-0.162808	-0.624166
C23	C	-4.253827	-0.172351	-0.855113
C24	C	-4.282565	-0.170817	-0.965222
C25	C	-3.917453	-0.158197	-0.954496
C26	C	-3.888714	-0.159731	-0.844386
C27	C	-4.056910	-0.166810	-0.794699
C28	C	-4.028173	-0.168353	-0.684588
C29	C	-3.663058	-0.155724	-0.673862
C30	C	-3.691797	-0.154190	-0.783972
C31	C	-4.115194	0.062682	-0.317827
C32	C	-4.031726	0.203968	-0.318711
C33	C	-4.165726	-0.162114	-0.132108
C34	C	-4.114387	-0.163742	-0.014918
H35	H	-3.588104	-0.531154	-0.310745
C36	C	-4.459666	-0.584326	-0.434893
C37	C	-4.618248	-0.697112	-0.517561
C38	C	-4.741125	-0.670638	-0.621142
C39	C	-4.705421	-0.531379	-0.642054
C40	C	-4.546832	-0.418584	-0.559384
C41	C	-4.423954	-0.445057	-0.455803
H42	H	-4.644684	-0.800208	-0.502083
H43	H	-4.858523	-0.754138	-0.682340
H44	H	-4.796382	-0.511782	-0.718731
H45	H	-4.520395	-0.315487	-0.574862
H46	H	-4.306556	-0.361558	-0.394605
H47	H	-3.694967	-0.771991	-0.309210
H48	H	-4.466603	-0.768848	-0.258469
H49	H	-4.506237	-0.801054	-0.408571
H50	H	-4.357086	-0.557918	-0.256986
H51	H	-4.165131	-0.174123	-0.644135
H52	H	-4.390785	-0.178129	-0.814658
H53	H	-4.442912	-0.175329	-1.014408
H54	H	-3.780521	-0.152424	-0.994970
H55	H	-3.554862	-0.148422	-0.824442
H56	H	-3.502713	-0.151218	-0.624662
