data_functionalizedCrystal
_audit_creation_method	'MofGen! by Chris Wilmer'
_symmetry_space_group_name_H-M	'P1'
_symmetry_Int_Tables_number	1
_symmetry_cell_setting	triclinic
loop_
_symmetry_equiv_pos_as_xyz
  x,y,z
_cell_length_a	17.699083
_cell_length_b	10.723024
_cell_length_c	16.776229
_cell_angle_alpha	89.994545
_cell_angle_beta	89.998886
_cell_angle_gamma	83.875442
loop_
_atom_site_label
_atom_site_type_symbol
_atom_site_fract_x
_atom_site_fract_y
_atom_site_fract_z
O1	O	1.005074	0.157797	-0.066174
O2	O	0.784825	0.178327	-0.066200
O3	O	0.900030	-0.013601	-0.066184
O4	O	0.889869	0.349725	-0.066191
O5	O	0.900014	-0.013613	0.066393
O6	O	0.784809	0.178315	0.066376
O7	O	1.005058	0.157785	0.066402
Zn8	Zn	0.894931	0.168048	0.087439
Zn9	Zn	0.894952	0.168064	-0.087237
O10	O	0.889854	0.349713	0.066386
C11	C	0.756616	0.177585	0.000085
C12	C	0.672584	0.175378	0.000075
C13	C	0.624673	0.288036	0.000073
C14	C	0.545717	0.285955	0.000083
C15	C	0.514672	0.171215	0.000090
C16	C	0.562589	0.058549	0.000094
C17	C	0.641544	0.060631	0.000090
C18	C	0.244173	0.050148	0.000114
C19	C	0.165212	0.048075	0.000116
C20	C	0.148346	0.275473	0.000108
C21	C	0.227301	0.277555	0.000103
C22	C	0.275210	0.164889	0.000112
C23	C	0.360824	0.167147	0.000102
C24	C	0.429060	0.168956	0.000094
C25	C	0.899283	-0.060094	0.000103
C26	C	0.897070	-0.198610	0.000100
C27	C	0.961533	-0.274698	0.000107
C28	C	0.959248	-0.417863	0.000104
C29	C	1.033268	0.158527	0.000115
C30	C	1.117300	0.160734	0.000120
C31	C	0.890601	0.396206	0.000097
C32	C	0.892813	0.534723	0.000095
N33	N	0.894923	0.168037	0.206650
N34	N	0.894966	0.168065	-0.206448
C35	C	0.945952	0.083086	0.248374
C36	C	0.945956	0.083085	0.331826
C37	C	0.894934	0.168042	0.373553
C38	C	0.843900	0.252997	0.331822
C39	C	0.843893	0.252991	0.248372
C40	C	0.843928	0.253021	0.668370
C41	C	0.843941	0.253023	0.751826
C42	C	0.945991	0.083115	0.751824
C43	C	0.945983	0.083109	0.668374
C44	C	0.894947	0.168059	0.626651
C45	C	0.894942	0.168058	0.536162
C46	C	0.894942	0.168050	0.464040
H47	H	0.537306	-0.034875	0.000111
H48	H	0.139939	-0.045366	0.000123
O49	O	0.995395	0.000456	0.207775
C50	C	0.954435	-0.076461	0.159557
H51	H	0.895485	-0.026595	0.147038
H52	H	0.985917	-0.096353	0.100880
H53	H	0.948783	-0.168632	0.191760
H54	H	0.680552	-0.031107	0.000091
O55	O	0.290671	-0.059327	-0.000024
C56	C	0.276490	-0.129010	-0.068675
H57	H	0.249855	-0.063046	-0.116668
H58	H	0.332237	-0.179227	-0.091721
H59	H	0.235913	-0.201105	-0.053148
O60	O	0.257550	0.388932	0.000195
C61	C	0.302708	0.396951	0.068861
H62	H	0.321855	0.298543	0.091761
H63	H	0.354662	0.446524	0.053407
H64	H	0.268124	0.452269	0.116940
H65	H	1.018413	-0.233851	0.000118
H66	H	0.802374	0.322193	0.634405
O67	O	0.101696	0.384805	0.000142
C68	C	0.025351	0.358373	0.000131
H69	H	0.021815	0.260373	0.025238
H70	H	-0.010040	0.430201	0.038619
H71	H	0.002542	0.363172	-0.063471
O72	O	0.829255	-0.247475	-0.000016
C73	C	0.823991	-0.321837	-0.068692
H74	H	0.883496	-0.354301	-0.091577
H75	H	0.793451	-0.407056	-0.053257
H76	H	0.790770	-0.264289	-0.116774
O77	O	0.995606	0.000530	0.372234
C78	C	1.040631	-0.074464	0.317510
H79	H	1.041734	-0.023310	0.258018
H80	H	1.100978	-0.093599	0.341613
H81	H	1.015593	-0.167124	0.308650
H82	H	1.014433	-0.483241	0.000113
H83	H	0.987532	0.013934	0.634403
H84	H	0.649943	0.381471	0.000067
H85	H	0.837625	-0.399906	0.000094
H86	H	0.987545	0.013940	0.785804
O87	O	0.794298	0.335595	0.792237
C88	C	0.749260	0.410591	0.737518
H89	H	0.748136	0.359433	0.678035
H90	H	0.688922	0.429739	0.761640
H91	H	0.774303	0.503245	0.728631
O92	O	0.794410	0.335478	0.372476
C93	C	0.805346	0.317251	0.455080
H94	H	0.865277	0.270491	0.466474
H95	H	0.797417	0.411770	0.486786
H96	H	0.762190	0.254757	0.478775
H97	H	0.506711	0.377693	0.000081
O98	O	0.794298	0.335636	0.207962
C99	C	0.749254	0.410604	0.262683
H100	H	0.780296	0.411957	0.322165
H101	H	0.738219	0.510278	0.238562
H102	H	0.692826	0.370202	0.271570
