data_functionalizedCrystal
_audit_creation_method	'MofGen! by Chris Wilmer'
_symmetry_space_group_name_H-M	'P1'
_symmetry_Int_Tables_number	1
_symmetry_cell_setting	triclinic
loop_
_symmetry_equiv_pos_as_xyz
  x,y,z
_cell_length_a	16.974885
_cell_length_b	15.995292
_cell_length_c	16.053802
_cell_angle_alpha	92.568169
_cell_angle_beta	91.069328
_cell_angle_gamma	83.430476
loop_
_atom_site_label
_atom_site_type_symbol
_atom_site_fract_x
_atom_site_fract_y
_atom_site_fract_z
O1	O	1.049046	0.106761	0.001393
O2	O	1.549046	0.606761	0.501393
O3	O	0.819584	0.119573	-0.014098
O4	O	1.319584	0.619573	0.485902
O5	O	0.940612	-0.008710	-0.005929
O6	O	1.440612	0.491290	0.494071
O7	O	0.928019	0.235044	-0.006777
O8	O	1.428019	0.735044	0.493223
O9	O	0.933950	-0.001678	0.132480
O10	O	1.433950	0.498322	0.632480
O11	O	0.812923	0.126605	0.124311
O12	O	1.312923	0.626605	0.624311
O13	O	1.042385	0.113793	0.139802
O14	O	1.542385	0.613793	0.639802
Zn15	Zn	0.926596	0.121315	0.154032
Zn16	Zn	1.426596	0.621315	0.654032
Zn17	Zn	0.935373	0.112050	-0.028328
Zn18	Zn	1.435373	0.612050	0.471672
O19	O	0.921357	0.242076	0.131633
O20	O	1.421357	0.742076	0.631633
C21	C	0.786891	0.122472	0.053124
C22	C	1.286891	0.622472	0.553124
C23	C	0.699399	0.120624	0.047217
C24	C	1.199399	0.620624	0.547217
C25	C	0.936769	-0.036391	0.063239
C26	C	1.436769	0.463609	0.563239
C27	C	0.935232	-0.129348	0.063129
C28	C	1.435232	0.370652	0.563129
C29	C	0.207311	0.109777	0.005813
C30	C	0.707311	0.609777	0.505813
C31	C	0.289518	0.111514	0.011374
C32	C	0.789518	0.611514	0.511374
C33	C	0.326982	0.116222	0.089602
C34	C	0.826982	0.616222	0.589602
C35	C	0.282235	0.119185	0.162274
C36	C	0.782235	0.619185	0.662274
C37	C	0.200030	0.117441	0.156712
C38	C	0.700030	0.617441	0.656712
C39	C	0.572448	0.121842	0.114327
C40	C	1.072448	0.621842	0.614327
C41	C	0.654658	0.123588	0.119884
C42	C	1.154658	0.623588	0.619884
C43	C	0.661936	0.115916	-0.031017
C44	C	1.161936	0.615916	0.468983
C45	C	0.579729	0.114178	-0.036572
C46	C	1.079729	0.614178	0.463428
C47	C	0.534990	0.117136	0.036100
C48	C	1.034990	0.617136	0.536100
N49	N	0.411010	0.118001	0.095289
N50	N	0.911010	0.618001	0.595289
N51	N	0.450964	0.115351	0.030413
N52	N	0.950964	0.615351	0.530413
C53	C	0.929583	-0.467098	0.062755
C54	C	1.429583	0.032902	0.562755
C55	C	1.016923	-0.443574	0.068962
C56	C	1.516923	0.056426	0.568962
C57	C	1.018598	-0.346911	0.068759
C58	C	1.518598	0.153089	0.568759
C59	C	0.932386	-0.299536	0.062941
C60	C	1.432386	0.200464	0.562941
C61	C	0.892517	-0.332751	-0.019043
C62	C	1.392517	0.167249	0.480957
C63	C	0.891469	-0.429547	-0.019177
C64	C	1.391469	0.070453	0.480823
C65	C	0.882109	-0.421412	0.138100
C66	C	1.382109	0.078588	0.638100
C67	C	0.885296	-0.324859	0.139360
C68	C	1.385296	0.175141	0.639360
C69	C	0.933966	-0.204837	0.063043
C70	C	1.433966	0.295163	0.563043
C71	C	0.928001	-0.561798	0.062648
C72	C	1.428001	-0.061798	0.562648
C73	C	1.075078	0.110893	0.072578
C74	C	1.575078	0.610893	0.572578
C75	C	1.162570	0.112742	0.078479
C76	C	1.662570	0.612742	0.578479
C77	C	0.925201	0.269756	0.062463
C78	C	1.425201	0.769756	0.562463
C79	C	0.926737	0.362713	0.062568
C80	C	1.426737	0.862713	0.562568
N81	N	0.920612	0.127638	0.278488
N82	N	1.420612	0.627638	0.778488
N83	N	0.941364	0.105721	-0.152784
N84	N	1.441364	0.605721	0.347216
C85	C	0.972128	0.073073	0.325660
C86	C	1.472128	0.573073	0.825660
C87	C	0.967949	0.077503	0.412784
C88	C	1.467949	0.577503	0.912784
C89	C	0.912257	0.136504	0.452736
C90	C	1.412257	0.636504	0.952736
C91	C	0.860736	0.191071	0.405559
C92	C	1.360736	0.691071	0.905559
C93	C	0.864911	0.186636	0.318435
C94	C	1.364911	0.686636	0.818435
C95	C	0.894018	0.155854	0.712915
C96	C	1.394018	0.655854	1.212915
C97	C	0.889848	0.160286	0.800045
C98	C	1.389848	0.660286	1.300045
C99	C	0.997060	0.046717	0.807264
C100	C	1.497060	0.546717	1.307264
C101	C	1.001234	0.042290	0.720139
C102	C	1.501234	0.542290	1.220139
C103	C	0.949710	0.096855	0.672969
C104	C	1.449710	0.596855	1.172969
N105	N	0.907986	0.141036	0.541792
N106	N	1.407986	0.641036	1.041792
N107	N	0.953978	0.092318	0.583915
N108	N	1.453978	0.592318	1.083915
H109	H	0.176814	0.105949	-0.057889
H110	H	0.676814	0.605949	0.442111
H111	H	0.698372	0.113507	-0.090182
H112	H	1.198372	0.613507	0.409818
H113	H	0.685157	0.127428	0.183590
H114	H	1.185157	0.627428	0.683590
F115	F	0.914064	-0.454337	0.218813
F116	F	1.414064	0.045663	0.718813
F117	F	0.807980	-0.448995	-0.029519
F118	F	1.307980	0.051005	0.470481
F119	F	0.923178	-0.296611	0.218592
F120	F	1.423178	0.203389	0.718592
H121	H	1.046583	-0.005753	0.687612
H122	H	1.546583	0.494247	1.187612
F123	F	0.802745	-0.281635	0.140050
F124	F	1.302745	0.218365	0.640050
H125	H	0.829218	-0.301175	-0.026263
H126	H	1.329218	0.198825	0.473737
H127	H	0.817784	-0.435519	0.134293
H128	H	1.317784	0.064481	0.634293
F129	F	0.152414	0.120590	0.234054
F130	F	0.652414	0.620590	0.734054
H131	H	0.815386	0.239108	0.438092
H132	H	1.315386	0.739108	0.938092
F133	F	0.524841	0.125008	0.191672
F134	F	1.024841	0.625008	0.691672
H135	H	1.017481	0.025032	0.293137
H136	H	1.517481	0.525032	0.793137
F137	F	0.539864	0.109168	-0.119833
F138	F	1.039864	0.609168	0.380167
H139	H	1.053119	-0.475380	0.014860
H140	H	1.553119	0.024620	0.514860
H141	H	0.925676	-0.315611	-0.075815
H142	H	1.425676	0.184389	0.424185
F143	F	1.022777	0.019428	0.462988
F144	F	1.522777	0.519428	0.962988
F145	F	1.051891	-0.011353	0.857471
F146	F	1.551891	0.488647	1.357471
H147	H	0.325944	0.109095	-0.047799
H148	H	0.825944	0.609095	0.452201
F149	F	0.830570	0.223088	0.842559
F150	F	1.330570	0.723088	1.342559
H151	H	0.312745	0.123013	0.225969
H152	H	0.812745	0.623013	0.725969
H153	H	0.852066	0.200284	0.674516
H154	H	1.352066	0.700284	1.174516
F155	F	0.810078	0.244710	0.268233
F156	F	1.310078	0.744710	0.768233
H157	H	1.047865	-0.468616	0.127915
H158	H	1.547865	0.031384	0.627915
F159	F	1.059724	-0.318176	0.145838
F160	F	1.559724	0.181824	0.645838
F161	F	1.067137	-0.326518	-0.002390
F162	F	1.567137	0.173482	0.497610
H163	H	0.924559	-0.459297	-0.076218
H164	H	1.424559	0.040703	0.423782
