data_functionalizedCrystal
_audit_creation_method	'MofGen! by Chris Wilmer'
_symmetry_space_group_name_H-M	'P1'
_symmetry_Int_Tables_number	1
_symmetry_cell_setting	triclinic
loop_
_symmetry_equiv_pos_as_xyz
  x,y,z
_cell_length_a	33.359672
_cell_length_b	33.359674
_cell_length_c	33.359713
_cell_angle_alpha	59.995760
_cell_angle_beta	90.003417
_cell_angle_gamma	119.999824
loop_
_atom_site_label
_atom_site_type_symbol
_atom_site_fract_x
_atom_site_fract_y
_atom_site_fract_z
O1	O	0.341660	-0.286918	0.011927
O2	O	0.283368	-0.204831	-0.011867
O3	O	0.283367	-0.286918	0.070219
O4	O	0.341661	-0.204831	-0.070160
O5	O	0.216696	-0.353589	0.070219
O6	O	0.216697	-0.271502	-0.011868
O7	O	0.274989	-0.353589	0.011927
Zn8	Zn	0.235258	-0.323131	0.000029
Zn9	Zn	0.323100	-0.235289	0.000030
O10	O	0.274990	-0.271502	-0.070160
C11	C	0.146320	-0.044921	-0.028810
C12	C	0.098077	-0.068929	-0.029147
C13	C	0.146322	-0.117508	-0.028814
C14	C	0.098078	-0.141406	-0.029152
C15	C	0.073731	-0.117511	-0.028810
C16	C	0.170557	-0.068927	-0.029152
C17	C	0.219073	0.027642	-0.022919
C18	C	0.242080	0.073497	-0.019200
C19	C	0.217275	0.096493	-0.017332
C20	C	0.242216	0.146210	-0.013296
C21	C	0.169464	0.073642	-0.019187
C22	C	0.146459	0.027792	-0.022908
C23	C	0.171264	0.004791	-0.024772
C24	C	-0.004724	-0.123216	-0.022914
C25	C	-0.054299	-0.149785	-0.019195
C26	C	-0.079162	-0.199451	-0.017331
C27	C	-0.132914	-0.228263	-0.013295
C28	C	-0.054454	-0.222554	-0.019191
C29	C	-0.004882	-0.195985	-0.022912
C30	C	0.019981	-0.146318	-0.024772
C31	C	0.219076	-0.123208	-0.022928
C32	C	0.242082	-0.149778	-0.019207
C33	C	0.217278	-0.199445	-0.017343
C34	C	0.242221	-0.228253	-0.013312
C35	C	0.169469	-0.222549	-0.019196
C36	C	0.146461	-0.195983	-0.022915
C37	C	0.171267	-0.146312	-0.024781
O38	O	-0.291015	-0.353602	0.011947
O39	O	-0.150640	-0.271515	-0.011845
O40	O	-0.232717	-0.353605	0.070241
O41	O	-0.208938	-0.271512	-0.070139
O42	O	-0.232718	-0.286937	0.070245
O43	O	-0.150642	-0.204847	-0.011841
O44	O	-0.291017	-0.286933	0.011951
Zn45	Zn	-0.220830	-0.235305	0.000056
Zn46	Zn	-0.220827	-0.323144	0.000051
O47	O	-0.208940	-0.204843	-0.070135
C48	C	0.412039	-0.117509	-0.294528
C49	C	0.387803	-0.141406	-0.318874
C50	C	0.484631	-0.044924	-0.367115
C51	C	0.460285	-0.068931	-0.391351
C52	C	0.412041	-0.117511	-0.367116
C53	C	0.460283	-0.068929	-0.318873
C54	C	0.412225	-0.123209	-0.216074
C55	C	0.389374	-0.149775	-0.166500
C56	C	0.341570	-0.199441	-0.141638
C57	C	0.316792	-0.228249	-0.087886
C58	C	0.316610	-0.222545	-0.166345
C59	C	0.339459	-0.195979	-0.215916
C60	C	0.387267	-0.146313	-0.240779
C61	C	0.339287	-0.196153	-0.366928
C62	C	0.316280	-0.222878	-0.389777
C63	C	0.341085	-0.199942	-0.437578
C64	C	0.316143	-0.228918	-0.462354
C65	C	0.388897	-0.150276	-0.462538
C66	C	0.411902	-0.123551	-0.439691
C67	C	0.387097	-0.146492	-0.391886
C68	C	0.563085	0.027637	-0.366925
C69	C	0.612663	0.073486	-0.389771
C70	C	0.637527	0.096482	-0.437572
C71	C	0.691280	0.146198	-0.462346
C72	C	0.612823	0.073632	-0.462531
C73	C	0.563248	0.027783	-0.439687
C74	C	0.538381	0.004787	-0.391884
C75	C	0.484616	-0.440929	0.028902
C76	C	0.460269	-0.489512	0.029243
C77	C	0.412027	-0.440926	0.028898
C78	C	0.387791	-0.489509	0.029239
C79	C	0.412027	-0.513518	0.028902
C80	C	0.460270	-0.417030	0.029239
C81	C	0.563070	-0.362286	0.023012
C82	C	0.612643	-0.335562	0.019296
C83	C	0.637506	-0.358503	0.017433
C84	C	0.691257	-0.329528	0.013401
C85	C	0.612799	-0.408171	0.019291
C86	C	0.563228	-0.434895	0.023009
C87	C	0.538365	-0.411950	0.024868
C88	C	0.412214	-0.586084	0.023015
C89	C	0.389365	-0.631941	0.019298
C90	C	0.341563	-0.654938	0.017431
C91	C	0.316786	-0.704657	0.013399
C92	C	0.316603	-0.632087	0.019286
C93	C	0.339450	-0.586234	0.023005
C94	C	0.387256	-0.563233	0.024867
C95	C	0.412217	-0.362281	0.023004
C96	C	0.389370	-0.335550	0.019277
C97	C	0.341568	-0.358488	0.017410
C98	C	0.316793	-0.329511	0.013373
C99	C	0.316609	-0.408152	0.019266
C100	C	0.339454	-0.434883	0.022991
C101	C	0.387258	-0.411945	0.024860
O102	O	0.274984	0.279067	0.011949
O103	O	0.216689	0.162483	-0.011842
O104	O	0.216693	0.162474	0.070243
O105	O	0.274980	0.279076	-0.070136
O106	O	0.283366	0.162477	0.070239
O107	O	0.283361	0.162485	-0.011846
O108	O	0.341656	0.279069	0.011945
Zn109	Zn	0.323095	0.220778	0.000049
Zn110	Zn	0.235251	0.220775	0.000054
O111	O	0.341652	0.279078	-0.070140
O112	O	0.849381	0.279057	-0.495768
O113	O	0.709005	0.162477	-0.437479
O114	O	0.791079	0.162464	-0.437465
O115	O	0.767306	0.279070	-0.495782
O116	O	0.791080	0.162461	-0.504135
O117	O	0.709005	0.162474	-0.504149
O118	O	0.849381	0.279054	-0.562438
Zn119	Zn	0.779193	0.220764	-0.543878
Zn120	Zn	0.779193	0.220768	-0.456038
O121	O	0.767306	0.279067	-0.562451
O122	O	0.283377	-0.286927	-0.562446
O123	O	0.341672	-0.204845	-0.504154
O124	O	0.341665	-0.286935	-0.504141
O125	O	0.283384	-0.204837	-0.562458
O126	O	0.274991	-0.353603	-0.437472
O127	O	0.274998	-0.271513	-0.437485
O128	O	0.216703	-0.353595	-0.495777
Zn129	Zn	0.235265	-0.323139	-0.456046
Zn130	Zn	0.323110	-0.235301	-0.543885
O131	O	0.216710	-0.271505	-0.495789
C132	C	0.073742	-0.513515	0.367185
C133	C	0.098089	-0.489508	0.391421
C134	C	0.146330	-0.440924	0.294594
C135	C	0.170567	-0.417027	0.318940
C136	C	0.146332	-0.440925	0.367184
C137	C	0.098087	-0.489507	0.318941
C138	C	-0.004713	-0.586079	0.366997
C139	C	-0.054287	-0.631935	0.389847
C140	C	-0.079149	-0.654934	0.437650
C141	C	-0.132901	-0.704653	0.462427
C142	C	-0.054442	-0.632085	0.462611
C143	C	-0.004870	-0.586233	0.439763
C144	C	0.019992	-0.563229	0.391956
C145	C	0.146145	-0.435225	0.439937
C146	C	0.168995	-0.408657	0.462943
C147	C	0.216797	-0.358989	0.438138
C148	C	0.241574	-0.330179	0.463080
C149	C	0.241757	-0.335884	0.390327
C150	C	0.218909	-0.362451	0.367323
C151	C	0.171103	-0.412119	0.392128
C152	C	0.146140	-0.435220	0.216139
C153	C	0.168987	-0.408647	0.166561
C154	C	0.216789	-0.358979	0.141697
C155	C	0.241564	-0.330167	0.087944
C156	C	0.241748	-0.335875	0.166402
C157	C	0.218903	-0.362444	0.215977
C158	C	0.171099	-0.412116	0.240843
C159	C	-0.249660	-0.440959	0.367212
C160	C	-0.249997	-0.489542	0.391447
C161	C	-0.249663	-0.440953	0.294619
C162	C	-0.250000	-0.489535	0.318964
C163	C	-0.249658	-0.513546	0.367208
C164	C	-0.250002	-0.417059	0.318967
C165	C	-0.243771	-0.362318	0.367026
C166	C	-0.240053	-0.335596	0.389878
C167	C	-0.238185	-0.358539	0.437681
C168	C	-0.234150	-0.329566	0.462460
C169	C	-0.240039	-0.408207	0.462641
C170	C	-0.243760	-0.434929	0.439791
C171	C	-0.245623	-0.411982	0.391984
C172	C	-0.243762	-0.586114	0.439961
C173	C	-0.240042	-0.631970	0.462966
C174	C	-0.238178	-0.654965	0.438160
C175	C	-0.234141	-0.704684	0.463100
C176	C	-0.240037	-0.632112	0.390348
C177	C	-0.243760	-0.586260	0.367345
C178	C	-0.245620	-0.563260	0.392151
C179	C	-0.243779	-0.362305	0.216164
C180	C	-0.240057	-0.335573	0.166587
C181	C	-0.238193	-0.358508	0.141721
C182	C	-0.234162	-0.329529	0.087968
C183	C	-0.240045	-0.408172	0.166425
C184	C	-0.243764	-0.434905	0.216000
C185	C	-0.245631	-0.411969	0.240868
C186	C	-0.191999	-0.044905	-0.367102
C187	C	-0.191660	-0.068909	-0.391340
C188	C	-0.191993	-0.117498	-0.294513
C189	C	-0.191655	-0.141392	-0.318861
C190	C	-0.191997	-0.117492	-0.367105
C191	C	-0.191657	-0.068915	-0.318858
C192	C	-0.197891	0.027657	-0.366911
C193	C	-0.201611	0.073514	-0.389760
C194	C	-0.203479	0.096515	-0.437563
C195	C	-0.207515	0.146234	-0.462339
C196	C	-0.201623	0.073668	-0.462526
C197	C	-0.197901	0.027815	-0.439679
C198	C	-0.196037	0.004810	-0.391872
C199	C	-0.197891	-0.123188	-0.439860
C200	C	-0.201610	-0.149753	-0.462868
C201	C	-0.203473	-0.199422	-0.438065
C202	C	-0.207507	-0.228229	-0.463008
C203	C	-0.201613	-0.222529	-0.390253
C204	C	-0.197892	-0.195964	-0.367247
C205	C	-0.196034	-0.146295	-0.392051
C206	C	-0.197880	-0.123206	-0.216055
C207	C	-0.201601	-0.149781	-0.166478
C208	C	-0.203464	-0.199449	-0.141615
C209	C	-0.207495	-0.228263	-0.087861
C210	C	-0.201610	-0.222551	-0.166321
C211	C	-0.197891	-0.195980	-0.215897
C212	C	-0.196026	-0.146307	-0.240761
C213	C	0.146330	-0.117573	0.367197
C214	C	0.098087	-0.141475	0.391435
C215	C	0.146328	-0.044973	0.294611
C216	C	0.098085	-0.068986	0.318959
C217	C	0.073740	-0.117576	0.367202
C218	C	0.170565	-0.068983	0.318955
C219	C	0.219085	-0.123271	0.367003
C220	C	0.242093	-0.149841	0.389850
C221	C	0.217290	-0.199516	0.437651
C222	C	0.242233	-0.228328	0.462424
C223	C	0.169479	-0.222626	0.462614
C224	C	0.146473	-0.196056	0.439770
C225	C	0.171276	-0.146381	0.391964
C226	C	-0.004714	-0.196231	0.439955
C227	C	-0.054288	-0.222960	0.462963
C228	C	-0.079153	-0.200019	0.438161
C229	C	-0.132905	-0.228999	0.463104
C230	C	-0.054447	-0.150344	0.390351
C231	C	-0.004875	-0.123615	0.367345
C232	C	0.019990	-0.146561	0.392147
C233	C	0.219080	0.027605	0.216155
C234	C	0.242083	0.073465	0.166579
C235	C	0.217278	0.096466	0.141718
C236	C	0.242219	0.146194	0.087966
C237	C	0.169469	0.073611	0.166424
C238	C	0.146464	0.027751	0.215998
C239	C	0.171271	0.004750	0.240862
O240	O	-0.208890	-0.271559	0.562553
O241	O	-0.232693	-0.353643	0.504261
O242	O	-0.150606	-0.271557	0.504250
O243	O	-0.290977	-0.353644	0.562564
O244	O	-0.150615	-0.204885	0.437581
O245	O	-0.232703	-0.286970	0.437591
O246	O	-0.208899	-0.204887	0.495884
Zn247	Zn	-0.220803	-0.235343	0.456152
Zn248	Zn	-0.220790	-0.323186	0.543992
O249	O	-0.290987	-0.286972	0.495894
C250	C	0.484606	0.559128	-0.367099
C251	C	0.460258	0.583027	-0.391332
C252	C	0.412017	0.486526	-0.294508
C253	C	0.387780	0.510536	-0.318852
C254	C	0.412015	0.559126	-0.367094
C255	C	0.460261	0.510538	-0.318856
C256	C	0.563061	0.564831	-0.366914
C257	C	0.612635	0.591403	-0.389765
C258	C	0.637497	0.641078	-0.437566
C259	C	0.691249	0.669893	-0.462345
C260	C	0.612790	0.664185	-0.462525
C261	C	0.563218	0.637613	-0.439676
C262	C	0.538356	0.587938	-0.391870
C263	C	0.412202	0.637779	-0.439842
C264	C	0.389351	0.664505	-0.462846
C265	C	0.341548	0.641561	-0.438039
C266	C	0.316771	0.670539	-0.462978
C267	C	0.316589	0.591886	-0.390229
C268	C	0.339437	0.565160	-0.367228
C269	C	0.387244	0.588108	-0.392034
C270	C	0.412208	0.413950	-0.216056
C271	C	0.389361	0.368089	-0.166480
C272	C	0.341559	0.345086	-0.141614
C273	C	0.316783	0.295359	-0.087863
C274	C	0.316599	0.367939	-0.166316
C275	C	0.339444	0.413799	-0.215890
C276	C	0.387248	0.436803	-0.240758
H277	H	-0.074705	-0.262997	-0.017674
C278	C	-0.195850	-0.221392	-0.243073
N279	N	-0.194313	-0.240533	-0.263543
C280	C	0.093868	0.002655	-0.024948
N281	N	0.054256	-0.016279	-0.026482
C282	C	0.486677	-0.364216	0.029973
N283	N	0.506566	-0.324437	0.030525
H284	H	0.633051	-0.426846	0.017773
H285	H	-0.203130	-0.262998	-0.146073
C286	C	0.071681	-0.041836	0.292553
N287	N	0.051795	-0.021386	0.272664
H288	H	0.239275	0.008920	-0.024441
C289	C	-0.190925	-0.041761	-0.444891
N290	N	-0.190371	-0.021315	-0.485225
C291	C	-0.238027	-0.280947	0.139419
N292	N	-0.236497	-0.239801	0.118953
C293	C	-0.245796	-0.489559	0.467244
N294	N	-0.247328	-0.530707	0.487922
C295	C	-0.081460	-0.657063	0.362388
N296	N	-0.101929	-0.675993	0.341706
H297	H	0.078542	-0.509604	0.431061
C298	C	-0.237997	-0.657104	0.515557
N299	N	-0.236456	-0.676037	0.555169
C300	C	0.246373	-0.068624	0.314418
N301	N	0.266927	-0.027464	0.274810
C302	C	0.264021	-0.277184	-0.138989
N303	N	0.224412	-0.318338	-0.118386
H304	H	0.319130	-0.214782	-0.236035
H305	H	0.078545	-0.180571	0.431075
C306	C	0.071667	-0.194229	-0.029873
N307	N	0.051772	-0.234017	-0.030411
C308	C	-0.245801	-0.561118	0.314752
N309	N	-0.247335	-0.542179	0.275138
H310	H	-0.250533	-0.509630	0.431084
H311	H	0.277351	-0.263314	-0.369450
C312	C	0.071681	-0.516651	0.292536
N313	N	0.051794	-0.537097	0.272649
H314	H	0.210203	-0.048890	0.299408
H315	H	0.281011	0.092071	0.146467
H316	H	-0.191107	-0.180485	-0.299313
C317	C	0.294336	-0.281235	0.139048
N318	N	0.333945	-0.240081	0.118444
H319	H	0.319084	-0.214834	-0.328004
C320	C	-0.237985	-0.657413	0.363062
N321	N	-0.236440	-0.676467	0.342508
H322	H	0.409091	-0.131602	-0.501464
C323	C	0.141529	-0.434066	0.139391
N324	N	0.120847	-0.453210	0.118923
C325	C	-0.081798	-0.657388	0.515198
N326	N	-0.102401	-0.676443	0.554806
C327	C	0.022307	-0.561098	0.467218
N328	N	0.042777	-0.542166	0.487897
H329	H	0.451132	0.432675	-0.236302
H330	H	-0.245300	-0.343627	0.236410
H331	H	0.479805	0.622124	-0.430971
C332	C	0.464492	-0.068920	-0.467146
N333	N	0.504105	-0.027772	-0.487825
C334	C	-0.250739	-0.364244	0.292562
N335	N	-0.251294	-0.324465	0.272673
H336	H	0.107220	-0.475669	0.460139
C337	C	0.639809	0.565985	-0.362309
N338	N	0.660278	0.546839	-0.341629
H339	H	-0.203106	-0.130964	-0.146367
H340	H	0.210203	-0.377929	0.299389
H341	H	0.277678	-0.650815	0.017761
H342	H	-0.245281	-0.567392	0.460164
C343	C	0.224109	-0.041778	-0.029897
N344	N	0.264444	-0.021329	-0.030461
C345	C	0.535712	0.510180	-0.314331
N346	N	0.515112	0.469017	-0.274724
C347	C	-0.203665	-0.277171	-0.362969
N348	N	-0.205211	-0.318327	-0.342417
C349	C	0.416822	-0.657076	0.017264
N350	N	0.437500	-0.676012	0.015734
H351	H	0.015235	-0.214793	-0.024430
H352	H	0.015529	-0.567353	0.328071
H353	H	0.277685	-0.426827	0.017742
H354	H	0.479814	0.490453	-0.299310
H355	H	-0.238515	-0.426883	0.501567
C356	C	0.294680	-0.124420	0.362389
N357	N	0.334292	-0.105273	0.341705
C358	C	-0.237994	-0.433404	0.139069
N359	N	-0.236451	-0.452408	0.118465
C360	C	-0.238011	-0.280964	0.362420
N361	N	-0.236475	-0.239814	0.341739
H362	H	0.479817	-0.509603	0.029790
H363	H	0.148668	-0.427476	0.501872
H364	H	0.543135	0.009179	-0.460011
H365	H	0.280684	-0.295438	0.370133
C366	C	0.142194	-0.277277	0.515199
N367	N	0.121641	-0.318442	0.554805
C368	C	-0.190915	-0.041772	-0.292452
N369	N	-0.190355	-0.021327	-0.272563
C370	C	0.142184	-0.277187	-0.017148
N371	N	0.121636	-0.318337	-0.015610
C372	C	-0.203654	0.098640	-0.362299
N373	N	-0.205192	0.117567	-0.341616
C374	C	-0.203682	0.098973	-0.515114
N375	N	-0.205233	0.118030	-0.554722
H376	H	-0.196359	-0.082758	-0.236299
H377	H	0.319128	-0.567627	0.024511
C378	C	0.334254	-0.194219	-0.292468
N379	N	0.293923	-0.233997	-0.272579
H380	H	0.239233	-0.343639	0.328395
C381	C	0.536048	-0.489534	0.025063
N382	N	0.515576	-0.530690	0.026611
C383	C	0.639816	-0.280930	0.017250
N384	N	0.660285	-0.239779	0.015711
C385	C	0.142179	0.098944	-0.017131
N386	N	0.121626	0.117999	-0.015582
H387	H	-0.196375	-0.214777	-0.328320
C388	C	0.486689	-0.041785	-0.292468
N389	N	0.506577	-0.021340	-0.272580
H390	H	0.239227	-0.343628	0.236090
C391	C	0.640180	0.098923	-0.515113
N392	N	0.660787	0.117972	-0.554717
C393	C	0.093885	-0.221472	0.467229
N394	N	0.054275	-0.240614	0.487913
H395	H	0.409696	-0.295114	0.017767
C396	C	0.416833	-0.124362	-0.139327
N397	N	0.437514	-0.105219	-0.118858
C398	C	0.334242	-0.516653	0.029976
N399	N	0.293909	-0.537098	0.030533
H400	H	0.239283	0.008881	0.236397
H401	H	0.451140	-0.343602	0.024528
C402	C	-0.203657	-0.124333	-0.515458
N403	N	-0.205200	-0.105190	-0.555070
H404	H	0.542827	-0.343602	0.024529
C405	C	-0.081460	-0.277604	0.515550
N406	N	-0.101929	-0.318764	0.555158
C407	C	-0.081800	-0.125097	0.363077
N408	N	-0.102397	-0.106075	0.342535
H409	H	0.107217	-0.475667	0.236384
H410	H	0.451139	-0.567361	0.024535
H411	H	0.015530	-0.214916	0.460154
H412	H	-0.245270	-0.475342	0.236112
H413	H	-0.196368	0.008932	-0.327986
C414	C	0.142181	0.098915	0.139074
N415	N	0.121630	0.117977	0.118473
H416	H	-0.196397	0.009209	-0.460002
H417	H	-0.245293	-0.343633	0.328100
H418	H	-0.250554	-0.509628	0.299417
C419	C	0.334234	0.483394	-0.292440
N420	N	0.293905	0.462953	-0.272546
H421	H	-0.196375	-0.082744	-0.460060
H422	H	0.015238	-0.083172	0.328417
H423	H	0.107533	0.009139	0.236112
H424	H	0.409687	0.349485	-0.146372
H425	H	0.633041	0.704637	-0.501451
C426	C	0.536040	0.663030	-0.467128
N427	N	0.515570	0.682175	-0.487806
H428	H	0.451125	0.656463	-0.460047
C429	C	0.264011	0.342631	-0.138961
N430	N	0.224400	0.323566	-0.118357
C431	C	0.416810	0.719146	-0.515434
N432	N	0.437490	0.760302	-0.555044
H433	H	0.319130	-0.475320	0.024499
H434	H	0.277661	0.573206	-0.370035
H435	H	0.319114	0.524714	-0.328302
H436	H	0.078533	-0.048834	-0.029695
H437	H	0.281009	-0.130961	-0.017698
H438	H	0.632772	0.092087	-0.369445
H439	H	0.319118	0.432405	-0.236002
H440	H	0.239278	-0.082762	-0.024450
H441	H	0.542840	0.008917	-0.328002
H442	H	0.281007	0.092098	-0.017691
H443	H	0.015518	-0.082772	-0.024433
H444	H	-0.074409	-0.130968	-0.017683
H445	H	0.479835	-0.048840	-0.430989
H446	H	0.107534	-0.214796	-0.024428
H447	H	0.451152	-0.082767	-0.236316
