data_functionalizedCrystal
_audit_creation_method	'MofGen! by Chris Wilmer'
_symmetry_space_group_name_H-M	'P1'
_symmetry_Int_Tables_number	1
_symmetry_cell_setting	triclinic
loop_
_symmetry_equiv_pos_as_xyz
  x,y,z
_cell_length_a	23.532407
_cell_length_b	23.532357
_cell_length_c	13.596369
_cell_angle_alpha	89.988481
_cell_angle_beta	90.000007
_cell_angle_gamma	82.838485
loop_
_atom_site_label
_atom_site_type_symbol
_atom_site_fract_x
_atom_site_fract_y
_atom_site_fract_z
O1	O	0.755248	0.069137	-0.081680
O2	O	0.589383	0.079141	-0.081711
O3	O	0.677332	-0.008795	-0.081675
O4	O	0.667299	0.157073	-0.081717
O5	O	0.677323	-0.008799	0.081908
O6	O	0.589374	0.079136	0.081872
O7	O	0.755239	0.069133	0.081903
Zn8	Zn	0.672305	0.074134	0.107860
Zn9	Zn	0.672316	0.074140	-0.107668
O10	O	0.667290	0.157068	0.081866
C11	C	0.568162	0.078884	0.000077
C12	C	0.504945	0.078118	0.000066
C13	C	0.677076	-0.030013	0.000120
C14	C	0.676322	-0.093232	0.000129
C15	C	0.105834	0.125353	0.000099
C16	C	0.046434	0.124641	0.000105
O17	O	0.009681	0.168428	0.000129
N18	N	0.023817	0.072364	0.000117
C19	C	0.060604	0.020794	0.000132
O20	O	0.035912	-0.023737	0.000144
C21	C	0.120003	0.021506	0.000133
C22	C	0.142616	0.073787	0.000111
C23	C	0.128448	0.177629	0.000078
C24	C	0.187844	0.178341	0.000070
C25	C	0.224626	0.126775	0.000083
C26	C	0.202012	0.074498	0.000103
C27	C	0.156788	-0.030063	0.000155
C28	C	0.216191	-0.029346	0.000157
C29	C	0.238804	0.022935	0.000135
C30	C	0.298190	0.023644	0.000108
N31	N	0.320807	0.075922	0.000096
C32	C	0.284025	0.127487	0.000083
C33	C	-0.064139	0.019303	0.000132
C34	C	-0.123536	0.018590	0.000124
C35	C	-0.137702	0.122437	0.000099
C36	C	-0.078303	0.123149	0.000100
C37	C	-0.041522	0.071580	0.000120
C38	C	0.408761	0.128977	0.000066
C39	C	0.468163	0.129684	0.000054
C40	C	0.482324	0.025836	0.000084
C41	C	0.422927	0.025130	0.000091
C42	C	0.386147	0.076704	0.000085
O43	O	0.334977	-0.020120	0.000087
O44	O	0.308725	0.172011	0.000085
C45	C	0.671590	-0.485241	-0.089094
C46	C	0.670873	-0.544640	-0.089100
O47	O	0.670486	-0.575354	-0.164935
N48	N	0.670512	-0.574354	0.000068
C49	C	0.670863	-0.544664	0.089247
O50	O	0.670490	-0.575392	0.165091
C51	C	0.671576	-0.485265	0.089252
C52	C	0.671943	-0.455556	0.000078
C53	C	0.671955	-0.455531	-0.178260
C54	C	0.672674	-0.396136	-0.178254
C55	C	0.673026	-0.366450	-0.089082
C56	C	0.672661	-0.396160	0.000085
C57	C	0.671923	-0.455576	0.178430
C58	C	0.672636	-0.396173	0.178427
C59	C	0.673002	-0.366463	0.089254
C60	C	0.673732	-0.307080	0.089263
N61	N	0.674092	-0.277366	0.000095
C62	C	0.673739	-0.307051	-0.089077
C63	C	0.669365	-0.669406	0.089231
C64	C	0.668656	-0.728804	0.089227
C65	C	0.668664	-0.728776	-0.089120
C66	C	0.669377	-0.669377	-0.089116
C67	C	0.669725	-0.639692	0.000063
C68	C	0.675248	-0.182317	-0.089057
C69	C	0.675969	-0.122917	-0.089043
C70	C	0.675958	-0.122950	0.089303
C71	C	0.675240	-0.182346	0.089290
C72	C	0.674883	-0.212027	0.000102
O73	O	0.674116	-0.276328	0.165059
O74	O	0.674105	-0.276315	-0.164908
C75	C	0.776459	0.069390	0.000113
C76	C	0.839676	0.070156	0.000117
C77	C	0.667545	0.178287	0.000069
C78	C	0.668300	0.241506	0.000054
N79	N	0.672301	0.074129	0.254951
N80	N	0.672325	0.074140	-0.254760
C81	C	0.672316	0.074140	0.656242
C82	C	0.672310	0.074139	0.544591
C83	C	0.672309	0.074135	0.455600
C84	C	0.672303	0.074133	0.343942
H85	H	0.486571	0.172259	0.000035
Cl86	Cl	0.128375	-0.095792	0.000166
Cl87	Cl	-0.017904	-0.045534	0.000147
Cl88	Cl	0.674801	-0.219623	-0.201181
Cl89	Cl	0.362532	0.193815	0.000057
Cl90	Cl	0.668216	-0.766105	-0.201224
Cl91	Cl	0.674791	-0.219698	0.201395
Cl92	Cl	-0.049882	0.188876	0.000076
Cl93	Cl	0.216262	0.244069	0.000050
Cl94	Cl	0.082217	0.242464	0.000060
H95	H	-0.167662	0.164425	0.000093
Cl96	Cl	0.669835	-0.632034	-0.201224
H97	H	-0.141942	-0.023982	0.000126
Cl98	Cl	0.262427	-0.094180	0.000185
Cl99	Cl	0.394498	-0.040596	0.000123
Cl100	Cl	0.676401	-0.085621	0.201400
Cl101	Cl	0.676431	-0.085572	-0.201156
Cl102	Cl	0.528575	-0.038985	0.000104
H103	H	0.671666	-0.479694	-0.250879
H104	H	0.671626	-0.479756	0.251045
H105	H	0.672970	-0.371951	-0.250869
H106	H	0.668366	-0.752990	0.161841
H107	H	0.669650	-0.645240	0.161855
H108	H	0.672911	-0.372006	0.251049
