data_functionalizedCrystal
_audit_creation_method	'MofGen! by Chris Wilmer'
_symmetry_space_group_name_H-M	'P1'
_symmetry_Int_Tables_number	1
_symmetry_cell_setting	triclinic
loop_
_symmetry_equiv_pos_as_xyz
  x,y,z
_cell_length_a	18.101398
_cell_length_b	19.077068
_cell_length_c	19.076919
_cell_angle_alpha	94.470751
_cell_angle_beta	87.724166
_cell_angle_gamma	87.677468
loop_
_atom_site_label
_atom_site_type_symbol
_atom_site_fract_x
_atom_site_fract_y
_atom_site_fract_z
Zn1	Zn	1.102247	0.296773	0.409951
Zn2	Zn	1.352247	0.546773	0.659951
Zn3	Zn	1.602247	0.796773	0.909951
Zn4	Zn	1.852247	1.046773	1.159951
Zn5	Zn	1.102156	0.409927	0.296796
Zn6	Zn	1.352156	0.659927	0.546796
Zn7	Zn	1.602156	0.909927	0.796796
Zn8	Zn	1.852156	1.159927	1.046796
Zn9	Zn	0.983594	0.292048	0.292070
Zn10	Zn	1.233594	0.542048	0.542070
Zn11	Zn	1.483594	0.792048	0.792070
Zn12	Zn	1.733594	1.042048	1.042070
Zn13	Zn	0.973186	0.414613	0.414628
Zn14	Zn	1.223186	0.664613	0.664628
Zn15	Zn	1.473186	0.914613	0.914628
Zn16	Zn	1.723186	1.164613	1.164628
O17	O	1.040296	0.353340	0.353361
O18	O	1.290296	0.603340	0.603361
O19	O	1.540296	0.853340	0.853361
O20	O	1.790296	1.103340	1.103361
O21	O	1.205867	0.311800	0.394962
O22	O	1.455867	0.561800	0.644962
O23	O	1.705867	0.811800	0.894962
O24	O	1.955867	1.061800	1.144962
O25	O	1.090746	0.390351	0.197523
O26	O	1.340746	0.640351	0.447523
O27	O	1.590746	0.890351	0.697523
O28	O	1.840746	1.140351	0.947523
O29	O	1.003728	0.194026	0.303773
O30	O	1.253728	0.444026	0.553773
O31	O	1.503728	0.694026	0.803773
O32	O	1.753728	0.944026	1.053773
O33	O	1.205799	0.394933	0.311827
O34	O	1.455799	0.644933	0.561827
O35	O	1.705799	0.894933	0.811827
O36	O	1.955799	1.144933	1.061827
O37	O	1.090902	0.197498	0.390380
O38	O	1.340902	0.447498	0.640380
O39	O	1.590902	0.697498	0.890380
O40	O	1.840902	0.947498	1.140380
O41	O	1.003639	0.303746	0.194051
O42	O	1.253639	0.553746	0.444051
O43	O	1.503639	0.803746	0.694051
O44	O	1.753639	1.053746	0.944051
O45	O	0.878582	0.308290	0.308307
O46	O	1.128582	0.558290	0.558307
O47	O	1.378582	0.808290	0.808307
O48	O	1.628582	1.058290	1.058307
O49	O	0.985988	0.402920	0.512654
O50	O	1.235988	0.652920	0.762654
O51	O	1.485988	0.902920	1.012654
O52	O	1.735988	1.152920	1.262654
O53	O	0.870935	0.398338	0.398350
O54	O	1.120935	0.648338	0.648350
O55	O	1.370935	0.898338	0.898350
O56	O	1.620935	1.148338	1.148350
O57	O	1.080809	0.316344	0.509218
O58	O	1.330809	0.566344	0.759218
O59	O	1.580809	0.816344	1.009218
O60	O	1.830809	1.066344	1.259218
O61	O	1.080653	0.509197	0.316361
O62	O	1.330653	0.759197	0.566361
O63	O	1.580653	1.009197	0.816361
O64	O	1.830653	1.259197	1.066361
O65	O	0.985899	0.512640	0.402932
O66	O	1.235899	0.762640	0.652932
O67	O	1.485899	1.012640	0.902932
O68	O	1.735899	1.262640	1.152932
C69	C	1.032156	0.536498	0.360682
C70	C	1.282156	0.786498	0.610682
C71	C	1.532156	1.036498	0.860682
C72	C	1.782156	1.286498	1.110682
C73	C	1.028741	0.614855	0.363838
C74	C	1.278741	0.864855	0.613838
C75	C	1.528741	1.114855	0.863838
C76	C	1.778741	1.364855	1.113838
C77	C	0.847888	0.353310	0.353323
C78	C	1.097888	0.603310	0.603323
C79	C	1.347888	0.853310	0.853323
C80	C	1.597888	1.103310	1.103323
C81	C	0.765574	0.353315	0.353325
C82	C	1.015574	0.603315	0.603325
C83	C	1.265574	0.853315	0.853325
C84	C	1.515574	1.103315	1.103325
C85	C	1.032248	0.360682	0.537229
C86	C	1.282248	0.610682	0.787229
C87	C	1.532248	0.860682	1.037229
C88	C	1.782248	1.110682	1.287229
C89	C	1.028819	0.363810	0.615583
C90	C	1.278819	0.613810	0.865583
C91	C	1.528819	0.863810	1.115583
C92	C	1.778819	1.113810	1.365583
C93	C	0.466478	0.353361	0.353386
C94	C	0.716478	0.603361	0.603386
C95	C	0.966478	0.853361	0.853386
C96	C	1.216478	1.103361	1.103386
C97	C	0.502590	0.296444	0.296988
C98	C	0.752590	0.546444	0.546988
C99	C	1.002590	0.796444	0.796988
C100	C	1.252590	1.046444	1.046988
C101	C	0.588212	0.296582	0.296763
C102	C	0.838212	0.546582	0.546763
C103	C	1.088212	0.796582	0.796763
C104	C	1.338212	1.046582	1.046763
C105	C	0.614863	0.353338	0.353355
C106	C	0.864863	0.603338	0.603355
C107	C	1.114863	0.853338	0.853355
C108	C	1.364863	1.103338	1.103355
C109	C	0.581378	0.426782	0.336035
C110	C	0.831378	0.676782	0.586035
C111	C	1.081378	0.926782	0.836035
C112	C	1.331378	1.176782	1.086035
C113	C	0.495763	0.426463	0.335646
C114	C	0.745763	0.676463	0.585646
C115	C	0.995763	0.926463	0.835646
C116	C	1.245763	1.176463	1.085646
C117	C	0.495637	0.337485	0.427257
C118	C	0.745637	0.587485	0.677257
C119	C	0.995637	0.837485	0.927257
C120	C	1.245637	1.087485	1.177257
C121	C	0.581378	0.335815	0.426783
C122	C	0.831378	0.585815	0.676783
C123	C	1.081378	0.835815	0.926783
C124	C	1.331378	1.085815	1.176783
C125	C	0.698724	0.353329	0.353340
C126	C	0.948724	0.603329	0.603340
C127	C	1.198724	0.853329	0.853340
C128	C	1.448724	1.103329	1.103340
C129	C	0.382618	0.353375	0.353400
C130	C	0.632618	0.603375	0.603400
C131	C	0.882618	0.853375	0.853400
C132	C	1.132618	1.103375	1.103400
C133	C	1.233455	0.353371	0.353400
C134	C	1.483455	0.603371	0.603400
C135	C	1.733455	0.853371	0.853400
C136	C	1.983455	1.103371	1.103400
C137	C	1.315767	0.353384	0.353416
C138	C	1.565767	0.603384	0.603416
C139	C	1.815767	0.853384	0.853416
C140	C	2.065767	1.103384	1.103416
C141	C	1.048486	0.169468	0.346027
C142	C	1.298486	0.419468	0.596027
C143	C	1.548486	0.669468	0.846027
C144	C	1.798486	0.919468	1.096027
C145	C	1.051977	0.091113	0.342902
C146	C	1.301977	0.341113	0.592902
C147	C	1.551977	0.591113	0.842902
C148	C	1.801977	0.841113	1.092902
C149	C	1.076505	0.649852	0.320285
C150	C	1.326505	0.899852	0.570285
C151	C	1.576505	1.149852	0.820285
C152	C	1.826505	1.399852	1.070285
C153	C	1.073297	0.723477	0.323257
C154	C	1.323297	0.973477	0.573257
C155	C	1.573297	1.223477	0.823257
C156	C	1.823297	1.473477	1.073257
C157	C	1.022321	0.762102	0.369779
C158	C	1.272321	1.012102	0.619779
C159	C	1.522321	1.262102	0.869779
C160	C	1.772321	1.512102	1.119779
C161	C	0.974555	0.727100	0.413336
C162	C	1.224555	0.977100	0.663336
C163	C	1.474555	1.227100	0.913336
C164	C	1.724555	1.477100	1.163336
C165	C	0.977767	0.653476	0.410367
C166	C	1.227767	0.903476	0.660367
C167	C	1.477767	1.153476	0.910367
C168	C	1.727767	1.403476	1.160367
C169	C	1.007423	0.982487	0.383491
C170	C	1.257423	1.232487	0.633491
C171	C	1.507423	1.482487	0.883491
C172	C	1.757423	1.732487	1.133491
C173	C	1.004213	1.056115	0.386455
C174	C	1.254213	1.306115	0.636455
C175	C	1.504213	1.556115	0.886455
C176	C	1.754213	1.806115	1.136455
C177	C	1.102956	1.052487	0.296376
C178	C	1.352956	1.302487	0.546376
C179	C	1.602956	1.552487	0.796376
C180	C	1.852956	1.802487	1.046376
C181	C	1.106161	0.978863	0.293408
C182	C	1.356161	1.228863	0.543408
C183	C	1.606161	1.478863	0.793408
C184	C	1.856161	1.728863	1.043408
C185	C	1.058398	0.943866	0.336968
C186	C	1.308398	1.193866	0.586968
C187	C	1.558398	1.443866	0.836968
C188	C	1.808398	1.693866	1.086968
N189	N	1.019039	0.837358	0.372816
N190	N	1.269039	1.087358	0.622816
N191	N	1.519039	1.337358	0.872816
N192	N	1.769039	1.587358	1.122816
N193	N	1.061684	0.868612	0.333934
N194	N	1.311684	1.118612	0.583934
N195	N	1.561684	1.368612	0.833934
N196	N	1.811684	1.618612	1.083934
C197	C	1.048357	0.345976	0.170207
C198	C	1.298357	0.595976	0.420207
C199	C	1.548357	0.845976	0.670207
C200	C	1.798357	1.095976	0.920207
C201	C	1.051939	0.342649	0.091846
C202	C	1.301939	0.592649	0.341846
C203	C	1.551939	0.842649	0.591846
C204	C	1.801939	1.092649	0.841846
C205	C	1.076573	0.320207	0.650606
C206	C	1.326573	0.570207	0.900606
C207	C	1.576573	0.820207	1.150606
C208	C	1.826573	1.070207	1.400606
C209	C	1.073342	0.323144	0.724228
C210	C	1.323342	0.573144	0.974228
C211	C	1.573342	0.823144	1.224228
C212	C	1.823342	1.073144	1.474228
C213	C	1.022359	0.369688	0.762825
C214	C	1.272359	0.619688	1.012825
C215	C	1.522359	0.869688	1.262825
C216	C	1.772359	1.119688	1.512825
C217	C	0.974599	0.413294	0.727796
C218	C	1.224599	0.663294	0.977796
C219	C	1.474599	0.913294	1.227796
C220	C	1.724599	1.163294	1.477796
C221	C	0.977828	0.410353	0.654176
C222	C	1.227828	0.660353	0.904176
C223	C	1.477828	0.910353	1.154176
C224	C	1.727828	1.160353	1.404176
C225	C	1.007407	0.383314	0.983197
C226	C	1.257407	0.633314	1.233197
C227	C	1.507407	0.883314	1.483197
C228	C	1.757407	1.133314	1.733197
C229	C	1.004184	0.386253	1.056822
C230	C	1.254184	0.636253	1.306822
C231	C	1.504184	0.886253	1.556822
C232	C	1.754184	1.136253	1.806822
C233	C	1.102926	0.296102	1.053248
C234	C	1.352926	0.546102	1.303248
C235	C	1.602926	0.796102	1.553248
C236	C	1.852926	1.046102	1.803248
C237	C	1.106153	0.293168	0.979627
C238	C	1.356153	0.543168	1.229627
C239	C	1.606153	0.793168	1.479627
C240	C	1.856153	1.043168	1.729627
C241	C	1.058390	0.336771	0.944605
C242	C	1.308390	0.586771	1.194605
C243	C	1.558390	0.836771	1.444605
C244	C	1.808390	1.086771	1.694605
N245	N	1.019057	0.372693	0.838078
N246	N	1.269057	0.622693	1.088078
N247	N	1.519057	0.872693	1.338078
N248	N	1.769057	1.122693	1.588078
N249	N	1.061690	0.333762	0.869353
N250	N	1.311690	0.583762	1.119353
N251	N	1.561690	0.833762	1.369353
N252	N	1.811690	1.083762	1.619353
H253	H	0.611110	0.242026	0.307278
H254	H	0.861110	0.492026	0.557278
H255	H	1.111110	0.742026	0.807278
H256	H	1.361110	0.992026	1.057278
F257	F	1.153789	1.089738	0.250023
F258	F	1.403789	1.339738	0.500023
F259	F	1.653789	1.589738	0.750023
F260	F	1.903789	1.839738	1.000023
F261	F	1.130840	0.270670	0.609535
F262	F	1.380840	0.520670	0.859535
F263	F	1.630840	0.770670	1.109535
F264	F	1.880840	1.020670	1.359535
H265	H	0.598221	0.470197	0.375957
H266	H	0.848221	0.720197	0.625957
H267	H	1.098221	0.970197	0.875957
H268	H	1.348221	1.220197	1.125957
H269	H	0.933085	0.451189	0.759228
H270	H	1.183085	0.701189	1.009228
H271	H	1.433085	0.951189	1.259228
H272	H	1.683085	1.201189	1.509228
H273	H	0.933052	0.758554	0.451218
H274	H	1.183052	1.008554	0.701218
H275	H	1.433052	1.258554	0.951218
H276	H	1.683052	1.508554	1.201218
F277	F	1.160416	0.243629	0.938554
F278	F	1.410416	0.493629	1.188554
F279	F	1.660416	0.743629	1.438554
F280	F	1.910416	0.993629	1.688554
H281	H	1.112230	0.287638	0.752740
H282	H	1.362230	0.537638	1.002740
H283	H	1.612230	0.787638	1.252740
H284	H	1.862230	1.037638	1.502740
F285	F	1.153753	0.249698	1.090527
F286	F	1.403753	0.499698	1.340527
F287	F	1.653753	0.749698	1.590527
F288	F	1.903753	0.999698	1.840527
F289	F	0.949916	0.435792	1.097899
F290	F	1.199916	0.685792	1.347899
F291	F	1.449916	0.935792	1.597899
F292	F	1.699916	1.185792	1.847899
F293	F	0.949947	1.097221	0.435965
F294	F	1.199947	1.347221	0.685965
F295	F	1.449947	1.597221	0.935965
F296	F	1.699947	1.847221	1.185965
F297	F	0.956574	0.429720	0.945934
F298	F	1.206574	0.679720	1.195934
F299	F	1.456574	0.929720	1.445934
F300	F	1.706574	1.179720	1.695934
H301	H	1.112191	0.751969	0.287791
H302	H	1.362191	1.001969	0.537791
H303	H	1.612191	1.251969	0.787791
H304	H	1.862191	1.501969	1.037791
H305	H	0.968531	0.953999	0.418958
H306	H	1.218531	1.203999	0.668958
H307	H	1.468531	1.453999	0.918958
H308	H	1.718531	1.703999	1.168958
H309	H	0.938933	0.445852	0.625661
H310	H	1.188933	0.695852	0.875661
H311	H	1.438933	0.945852	1.125661
H312	H	1.688933	1.195852	1.375661
H313	H	0.482919	0.306572	0.242506
H314	H	0.732919	0.556572	0.492506
H315	H	0.982919	0.806572	0.742506
H316	H	1.232919	1.056572	0.992506
F317	F	0.478150	0.224906	0.310538
F318	F	0.728150	0.474906	0.560538
F319	F	0.978150	0.724906	0.810538
F320	F	1.228150	0.974906	1.060538
H321	H	0.610552	0.306838	0.241965
H322	H	0.860552	0.556838	0.491965
H323	H	1.110552	0.806838	0.741965
H324	H	1.360552	1.056838	0.991965
H325	H	0.604453	0.440899	0.282721
H326	H	0.854453	0.690899	0.532721
H327	H	1.104453	0.940899	0.782721
H328	H	1.354453	1.190899	1.032721
F329	F	0.471824	0.444519	0.265176
F330	F	0.721824	0.694519	0.515176
F331	F	0.971824	0.944519	0.765176
F332	F	1.221824	1.194519	1.015176
H333	H	0.471528	0.470146	0.375094
H334	H	0.721528	0.720146	0.625094
H335	H	0.971528	0.970146	0.875094
H336	H	1.221528	1.220146	1.125094
H337	H	0.475589	0.285018	0.443578
H338	H	0.725589	0.535018	0.693578
H339	H	0.975589	0.785018	0.943578
H340	H	1.225589	1.035018	1.193578
F341	F	0.610234	0.265196	0.443931
F342	F	0.860234	0.515196	0.693931
F343	F	1.110234	0.765196	0.943931
F344	F	1.360234	1.015196	1.193931
F345	F	0.464549	0.391718	0.482134
F346	F	0.714549	0.641718	0.732134
F347	F	0.964549	0.891718	0.982134
F348	F	1.214549	1.141718	1.232134
F349	F	0.604783	0.386366	0.484336
F350	F	0.854783	0.636366	0.734336
F351	F	1.104783	0.886366	0.984336
F352	F	1.354783	1.136366	1.234336
H353	H	1.118012	0.618408	0.282399
H354	H	1.368012	0.868408	0.532399
H355	H	1.618012	1.118408	0.782399
H356	H	1.868012	1.368408	1.032399
F357	F	1.160424	0.937760	0.243901
F358	F	1.410424	1.187760	0.493901
F359	F	1.660424	1.437760	0.743901
F360	F	1.910424	1.687760	0.993901
F361	F	0.926932	0.616230	0.456724
F362	F	1.176932	0.866230	0.706724
F363	F	1.426932	1.116230	0.956724
F364	F	1.676932	1.366230	1.206724
