data_functionalizedCrystal
_audit_creation_method	'MofGen! by Chris Wilmer'
_symmetry_space_group_name_H-M	'P1'
_symmetry_Int_Tables_number	1
_symmetry_cell_setting	triclinic
loop_
_symmetry_equiv_pos_as_xyz
  x,y,z
_cell_length_a	15.944493
_cell_length_b	18.266242
_cell_length_c	15.944493
_cell_angle_alpha	90.000472
_cell_angle_beta	83.475044
_cell_angle_gamma	90.008470
loop_
_atom_site_label
_atom_site_type_symbol
_atom_site_fract_x
_atom_site_fract_y
_atom_site_fract_z
O1	O	1.114537	0.060862	0.108104
O2	O	1.447871	0.394195	0.441438
O3	O	1.781204	0.727528	0.774771
O4	O	0.869978	0.060864	0.121512
O5	O	1.203312	0.394197	0.454845
O6	O	1.536645	0.727531	0.788179
O7	O	0.998962	0.060869	-0.007471
O8	O	1.332295	0.394202	0.325862
O9	O	1.665628	0.727535	0.659195
O10	O	0.985554	0.060857	0.237088
O11	O	1.318887	0.394190	0.570421
O12	O	1.652221	0.727523	0.903754
O13	O	0.998940	-0.060893	-0.007478
O14	O	1.332273	0.272440	0.325855
O15	O	1.665606	0.605773	0.659189
O16	O	0.869956	-0.060898	0.121505
O17	O	1.203290	0.272435	0.454839
O18	O	1.536623	0.605769	0.788172
O19	O	1.114515	-0.060900	0.108098
O20	O	1.447849	0.272433	0.441431
O21	O	1.781182	0.605766	0.774764
Zn22	Zn	0.992232	-0.080232	0.114800
Zn23	Zn	1.325566	0.253102	0.448134
Zn24	Zn	1.658899	0.586435	0.781467
Zn25	Zn	0.992261	0.080195	0.114809
Zn26	Zn	1.325595	0.413528	0.448143
Zn27	Zn	1.658928	0.746862	0.781476
O28	O	0.985532	-0.060905	0.237081
O29	O	1.318866	0.272428	0.570414
O30	O	1.652199	0.605761	0.903748
C31	C	0.838673	-0.000017	0.120961
C32	C	1.172006	0.333317	0.454294
C33	C	1.505339	0.666650	0.787627
C34	C	0.745424	-0.000015	0.119318
C35	C	1.078758	0.333318	0.452651
C36	C	1.412091	0.666652	0.785984
N37	N	0.992219	-0.189718	0.114794
N38	N	1.325552	0.143615	0.448127
N39	N	1.658886	0.476948	0.781461
C40	C	0.509649	-0.000018	0.195240
C41	C	0.842982	0.333315	0.528574
C42	C	1.176315	0.666648	0.861907
C43	C	0.459088	-0.060055	0.154295
C44	C	0.792421	0.273279	0.487628
C45	C	1.125755	0.606612	0.820962
C46	C	0.574704	-0.000016	0.116273
C47	C	0.908037	0.333317	0.449607
C48	C	1.241371	0.666650	0.782940
C49	C	0.459114	0.059993	0.154283
C50	C	0.792448	0.393327	0.487616
C51	C	1.125781	0.726660	0.820949
C52	C	0.409795	-0.000014	0.113339
C53	C	0.743128	0.333319	0.446672
C54	C	1.076462	0.666652	0.780006
C55	C	0.525372	-0.060102	0.075350
C56	C	0.858705	0.273231	0.408683
C57	C	1.192038	0.606565	0.742016
C58	C	0.525401	0.060000	0.075349
C59	C	0.858734	0.393333	0.408682
C60	C	1.192068	0.726666	0.742016
C61	C	0.474873	-0.000051	0.034346
C62	C	0.808207	0.333282	0.367679
C63	C	1.141540	0.666615	0.701012
C64	C	0.669704	-0.000018	0.117966
C65	C	1.003037	0.333315	0.451300
C66	C	1.336370	0.666649	0.784633
C67	C	0.314798	-0.000018	0.111640
C68	C	0.648132	0.333315	0.444973
C69	C	0.981465	0.666649	0.778307
C70	C	1.049351	-0.228025	0.057708
C71	C	1.382685	0.105308	0.391042
C72	C	1.716018	0.438641	0.724375
C73	C	1.049357	-0.304670	0.057704
C74	C	1.382690	0.028663	0.391038
C75	C	1.716024	0.361997	0.724371
C76	C	0.992238	-0.343005	0.114801
C77	C	1.325571	-0.009672	0.448134
C78	C	1.658904	0.323661	0.781467
C79	C	0.935094	-0.304689	0.171891
C80	C	1.268428	0.028644	0.505224
C81	C	1.601761	0.361977	0.838557
C82	C	0.935085	-0.228046	0.171887
C83	C	1.268418	0.105287	0.505221
C84	C	1.601752	0.438621	0.838554
N85	N	0.981535	-0.463341	0.189128
N86	N	1.314868	-0.130008	0.522462
N87	N	1.648201	0.203325	0.855795
N88	N	0.981549	-0.536149	0.189129
N89	N	1.314882	-0.202816	0.522462
N90	N	1.648215	0.130517	0.855796
C91	C	0.992261	-0.573928	0.114813
C92	C	1.325595	-0.240594	0.448146
C93	C	1.658928	0.092739	0.781479
N94	N	1.002976	-0.536148	0.040494
N95	N	1.336309	-0.202814	0.373827
N96	N	1.669643	0.130519	0.707160
N97	N	1.002966	-0.463333	0.040494
N98	N	1.336300	-0.129999	0.373827
N99	N	1.669633	0.203334	0.707161
C100	C	0.992241	-0.426112	0.114810
C101	C	1.325574	-0.092779	0.448144
C102	C	1.658908	0.240554	0.781477
C103	C	1.049403	-0.695342	0.057718
C104	C	1.382736	-0.362008	0.391051
C105	C	1.716069	-0.028675	0.724385
C106	C	1.049402	-0.771988	0.057713
C107	C	1.382736	-0.438655	0.391046
C108	C	1.716069	-0.105321	0.724380
C109	C	0.935144	-0.772006	0.171907
C110	C	1.268477	-0.438672	0.505240
C111	C	1.601810	-0.105339	0.838573
C112	C	0.935140	-0.695361	0.171905
C113	C	1.268474	-0.362028	0.505238
C114	C	1.601807	-0.028694	0.838571
C115	C	0.992274	-0.657033	0.114811
C116	C	1.325607	-0.323700	0.448144
C117	C	1.658941	0.009633	0.781478
C118	C	1.145821	-0.000018	0.108649
C119	C	1.479154	0.333315	0.441982
C120	C	1.812488	0.666648	0.775316
C121	C	1.239069	-0.000015	0.110292
C122	C	1.572403	0.333318	0.443625
C123	C	1.905736	0.666652	0.776959
C124	C	0.998403	-0.000009	-0.038769
C125	C	1.331736	0.333324	0.294564
C126	C	1.665069	0.666658	0.627897
C127	C	0.996760	0.000000	-0.132018
C128	C	1.330093	0.333334	0.201316
C129	C	1.663426	0.666667	0.534649
N130	N	0.992281	0.189682	0.114809
N131	N	1.325615	0.523015	0.448142
N132	N	1.658948	0.856349	0.781476
C133	C	1.072682	-0.000014	-0.367793
C134	C	1.406016	0.333319	-0.034460
C135	C	1.739349	0.666652	0.298873
C136	C	1.031751	0.060021	-0.418350
C137	C	1.365084	0.393354	-0.085016
C138	C	1.698418	0.726687	0.248317
C139	C	0.993716	-0.000009	-0.302738
C140	C	1.327049	0.333325	0.030595
C141	C	1.660382	0.666658	0.363929
C142	C	1.031711	-0.060027	-0.418332
C143	C	1.365044	0.273306	-0.084999
C144	C	1.698378	0.606640	0.248334
C145	C	0.990781	-0.000021	-0.467647
C146	C	1.324114	0.333313	-0.134314
C147	C	1.657448	0.666646	0.199020
C148	C	0.952806	0.060076	-0.352066
C149	C	1.286139	0.393409	-0.018733
C150	C	1.619472	0.726743	0.314601
C151	C	0.952777	-0.060026	-0.352045
C152	C	1.286110	0.273308	-0.018712
C153	C	1.619444	0.606641	0.314621
C154	C	0.911788	0.000024	-0.402569
C155	C	1.245121	0.333357	-0.069235
C156	C	1.578454	0.666691	0.264098
C157	C	0.995408	-0.000001	-0.207739
C158	C	1.328742	0.333332	0.125595
C159	C	1.662075	0.666665	0.458928
C160	C	0.989082	-0.000023	-0.562644
C161	C	1.322415	0.333311	-0.229311
C162	C	1.655749	0.666644	0.104023
C163	C	0.986091	-0.000026	0.268379
C164	C	1.319424	0.333308	0.601712
C165	C	1.652758	0.666641	0.935046
C166	C	0.987734	-0.000030	0.361627
C167	C	1.321067	0.333303	0.694961
C168	C	1.654401	0.666636	1.028294
H169	H	0.525258	-0.000078	0.263261
H170	H	0.858592	0.333255	0.596595
H171	H	1.191925	0.666589	0.929928
F172	F	0.563269	0.126348	0.031803
F173	F	0.896602	0.459681	0.365136
F174	F	1.229935	0.793015	0.698470
H175	H	0.554197	-0.110908	0.042018
H176	H	0.887531	0.222425	0.375351
H177	H	1.220864	0.555758	0.708685
F178	F	1.075307	-0.126364	-0.456158
F179	F	1.408641	0.206969	-0.122825
F180	F	1.741974	0.540302	0.210508
H181	H	0.919485	0.110885	-0.323237
H182	H	1.252818	0.444218	0.010097
H183	H	1.586152	0.777552	0.343430
F184	F	0.874336	-0.654589	0.232667
F185	F	1.207669	-0.321256	0.566000
F186	F	1.541002	0.012078	0.899334
F187	F	0.421242	-0.126399	0.197879
F188	F	0.754575	0.206934	0.531212
F189	F	1.087909	0.540267	0.864546
F190	F	1.110168	-0.345446	-0.003057
F191	F	1.443502	-0.012112	0.330276
F192	F	1.776835	0.321221	0.663609
H193	H	0.459422	-0.000082	-0.033727
H194	H	0.792755	0.333251	0.299606
H195	H	1.126088	0.666584	0.632940
H196	H	1.065109	0.110776	-0.447300
H197	H	1.398442	0.444109	-0.113966
H198	H	1.731775	0.777443	0.219367
H199	H	0.919448	-0.110783	-0.323080
H200	H	1.252781	0.222551	0.010253
H201	H	1.586115	0.555884	0.343586
F202	F	1.110209	-0.812758	-0.003053
F203	F	1.443542	-0.479425	0.330281
F204	F	1.776875	-0.146092	0.663614
F205	F	0.874348	-0.812801	0.232668
F206	F	1.207681	-0.479468	0.566001
F207	F	1.541015	-0.146135	0.899334
F208	F	0.874274	-0.187275	0.232649
F209	F	1.207608	0.146058	0.565982
F210	F	1.540941	0.479391	0.899315
H211	H	1.140702	0.000045	-0.352179
H212	H	1.474035	0.333379	-0.018846
H213	H	1.807369	0.666712	0.314488
H214	H	0.430178	0.110742	0.187650
H215	H	0.763511	0.444075	0.520984
H216	H	1.096845	0.777409	0.854317
F217	F	1.110206	-0.654550	-0.003049
F218	F	1.443539	-0.321217	0.330284
F219	F	1.776873	0.012117	0.663618
H220	H	1.095871	-0.196821	0.011217
H221	H	1.429205	0.136512	0.344551
H222	H	1.762538	0.469845	0.677884
H223	H	0.888586	-0.335906	0.218378
H224	H	1.221919	-0.002572	0.551711
H225	H	1.555252	0.330761	0.885045
F226	F	0.822813	0.000066	-0.422768
F227	F	1.156146	0.333399	-0.089435
F228	F	1.489480	0.666732	0.243899
