data_functionalizedCrystal
_audit_creation_method	'MofGen! by Chris Wilmer'
_symmetry_space_group_name_H-M	'P1'
_symmetry_Int_Tables_number	1
_symmetry_cell_setting	triclinic
loop_
_symmetry_equiv_pos_as_xyz
  x,y,z
_cell_length_a	25.639243
_cell_length_b	21.295418
_cell_length_c	21.295411
_cell_angle_alpha	90.017488
_cell_angle_beta	90.027104
_cell_angle_gamma	90.031110
loop_
_atom_site_label
_atom_site_type_symbol
_atom_site_fract_x
_atom_site_fract_y
_atom_site_fract_z
Zn1	Zn	0.799320	-0.250635	0.355972
Zn2	Zn	0.799242	-0.355887	0.250705
Zn3	Zn	0.711879	-0.250641	0.250713
Zn4	Zn	0.711857	-0.355875	0.355932
O5	O	0.755575	-0.303260	0.303331
O6	O	0.872475	-0.264600	0.342022
O7	O	0.787630	-0.341933	0.162617
O8	O	0.723520	-0.162551	0.264695
O9	O	0.872418	-0.341928	0.264683
O10	O	0.787763	-0.162546	0.342029
O11	O	0.723445	-0.264609	0.162622
O12	O	0.638711	-0.264598	0.264657
O13	O	0.723483	-0.341908	0.444027
O14	O	0.638695	-0.341913	0.341961
O15	O	0.787741	-0.264588	0.444056
O16	O	0.787609	-0.443975	0.264644
O17	O	0.723407	-0.443966	0.341954
C18	C	0.619732	-0.303255	0.303306
C19	C	0.561618	-0.303269	0.303310
C20	C	0.755511	-0.466811	0.303308
C21	C	0.755532	-0.536779	0.303319
C22	C	0.789091	-1.036182	0.343679
C23	C	0.789075	-0.970439	0.343669
C24	C	0.755646	-0.937619	0.303370
C25	C	0.722239	-0.970546	0.263066
C26	C	0.722259	-1.036287	0.263073
N27	N	0.709850	-0.834451	0.298477
N28	N	0.709832	-0.771999	0.298474
C29	C	0.755584	-0.739544	0.303346
N30	N	0.801356	-0.771899	0.308234
N31	N	0.801373	-0.834356	0.308240
C32	C	0.755621	-0.866333	0.303358
C33	C	0.788975	-0.635339	0.343634
C34	C	0.788961	-0.569595	0.343619
C35	C	0.722120	-0.569703	0.263020
C36	C	0.722139	-0.635446	0.263031
C37	C	0.755566	-0.668260	0.303341
C38	C	0.201279	-0.263058	0.343668
C39	C	0.146675	-0.263058	0.343672
O40	O	0.118459	-0.228857	0.377955
N41	N	0.119336	-0.303258	0.303348
C42	C	0.146603	-0.343457	0.263013
O43	O	0.118335	-0.377649	0.228714
C44	C	0.201207	-0.343453	0.263006
C45	C	0.228543	-0.303255	0.303337
C46	C	0.228616	-0.222863	0.383996
C47	C	0.283216	-0.222864	0.383993
C48	C	0.310480	-0.263061	0.343662
C49	C	0.283144	-0.303257	0.303334
C50	C	0.228474	-0.383649	0.222668
C51	C	0.283081	-0.383642	0.222665
C52	C	0.310417	-0.343443	0.262996
C53	C	0.365008	-0.343455	0.263000
N54	N	0.392348	-0.303255	0.303324
C55	C	0.365084	-0.263058	0.343655
C56	C	0.031933	-0.343459	0.263029
C57	C	-0.022670	-0.343466	0.263038
C58	C	-0.022594	-0.263066	0.343697
C59	C	0.032009	-0.263063	0.343690
C60	C	0.059272	-0.303259	0.303353
C61	C	0.479749	-0.263065	0.343646
C62	C	0.534354	-0.263072	0.343641
C63	C	0.534274	-0.343469	0.262980
C64	C	0.479673	-0.343465	0.262987
C65	C	0.452412	-0.303257	0.303322
O66	O	0.393259	-0.377636	0.228733
O67	O	0.393358	-0.228865	0.377943
C68	C	0.891948	-0.303264	0.303356
C69	C	0.950062	-0.303266	0.303367
C70	C	0.755618	-0.303246	0.467521
C71	C	0.755637	-0.303241	0.537489
C72	C	0.755653	-0.139069	0.303368
C73	C	0.755686	-0.069101	0.303383
C74	C	0.755562	-0.303227	0.139779
C75	C	0.755644	-0.303056	0.069811
C76	C	0.789095	-0.262978	0.570372
C77	C	0.789094	-0.262951	0.636115
C78	C	0.755641	-0.303197	0.668972
C79	C	0.722176	-0.343462	0.636081
C80	C	0.722174	-0.343484	0.570340
N81	N	0.751608	-0.358265	0.772191
N82	N	0.751613	-0.358243	0.834642
C83	C	0.755644	-0.303133	0.867047
N84	N	0.759679	-0.248046	0.834640
N85	N	0.759677	-0.248069	0.772183
C86	C	0.755639	-0.303178	0.740257
C87	C	0.789103	-0.262838	0.971215
C88	C	0.789099	-0.262810	1.036959
C89	C	0.722184	-0.343327	1.036924
C90	C	0.722185	-0.343349	0.971181
C91	C	0.755648	-0.303106	0.938331
H92	H	0.816314	-1.062895	0.376498
F93	F	0.824631	-0.935397	0.386559
H94	H	0.695021	-0.943820	0.230253
H95	H	0.816190	-0.662058	0.376461
F96	F	0.686703	-1.071323	0.220183
H97	H	0.816342	-0.230208	0.543629
F98	F	0.824520	-0.534560	0.386507
F99	F	0.686545	-0.534777	0.220125
H100	H	0.694935	-0.662249	0.230220
F101	F	0.563444	-0.220287	0.386570
H102	H	0.457559	-0.230322	0.376489
H103	H	0.305469	-0.190130	0.416834
H104	H	0.206423	-0.190126	0.416838
H105	H	0.054127	-0.376197	0.230183
H106	H	0.054263	-0.230329	0.376531
F107	F	-0.051620	-0.220282	0.386619
H108	H	-0.044922	-0.376207	0.230203
F109	F	0.199392	-0.426424	0.179731
F110	F	0.824717	-0.219962	1.071955
H111	H	0.305275	-0.416374	0.189815
H112	H	0.457415	-0.376205	0.230153
H113	H	0.694940	-0.376089	1.063675
F114	F	0.563300	-0.386248	0.220060
F115	F	0.824697	-0.220087	0.671118
H116	H	0.694937	-0.376229	0.662837
H117	H	0.816347	-0.230066	0.944467
F118	F	0.686562	-0.386338	0.535342
F119	F	0.686576	-0.386205	0.936183
