data_functionalizedCrystal
_audit_creation_method	'MofGen! by Chris Wilmer'
_symmetry_space_group_name_H-M	'P1'
_symmetry_Int_Tables_number	1
_symmetry_cell_setting	triclinic
loop_
_symmetry_equiv_pos_as_xyz
  x,y,z
_cell_length_a	15.944551
_cell_length_b	15.624967
_cell_length_c	14.750779
_cell_angle_alpha	59.900665
_cell_angle_beta	102.647229
_cell_angle_gamma	83.888645
loop_
_atom_site_label
_atom_site_type_symbol
_atom_site_fract_x
_atom_site_fract_y
_atom_site_fract_z
O1	O	1.084680	0.148480	-0.131420
O2	O	1.584680	0.648480	0.368580
O3	O	0.838896	0.164159	-0.136902
O4	O	1.338896	0.664159	0.363098
O5	O	0.979711	0.012834	-0.084201
O6	O	1.479711	0.512834	0.415799
O7	O	0.943865	0.299806	-0.184121
O8	O	1.443865	0.799806	0.315879
O9	O	1.019517	-0.029939	0.090346
O10	O	1.519517	0.470061	0.590346
O11	O	0.878702	0.121386	0.037644
O12	O	1.378702	0.621386	0.537644
O13	O	1.124486	0.105707	0.043127
O14	O	1.624486	0.605707	0.543127
Zn15	Zn	1.007914	0.106755	0.068099
Zn16	Zn	1.507914	0.606755	0.568099
Zn17	Zn	0.955468	0.163111	-0.161874
Zn18	Zn	1.455468	0.663111	0.338126
O19	O	0.983671	0.257032	-0.009575
O20	O	1.483671	0.757032	0.490425
C21	C	1.001937	-0.045274	0.015857
C22	C	1.501937	0.454726	0.515857
C23	C	1.008848	-0.154694	0.053949
C24	C	1.508848	0.345306	0.553949
C25	C	0.827555	0.142123	-0.049406
C26	C	1.327555	0.642123	0.450594
C27	C	0.734460	0.140175	-0.048736
C28	C	1.234460	0.640175	0.451264
C29	C	1.040287	-0.332237	0.202779
C30	C	1.540287	0.167763	0.702779
C31	C	1.033790	-0.229418	0.166974
C32	C	1.533790	0.270582	0.666974
C33	C	0.990397	-0.182769	-0.023317
C34	C	1.490397	0.317231	0.476683
C35	C	0.996895	-0.285586	0.012472
C36	C	1.496895	0.214414	0.512472
C37	C	1.021839	-0.360313	0.125521
C38	C	1.521839	0.139687	0.625521
C39	C	0.978447	-0.313663	-0.064785
C40	C	1.478447	0.186337	0.435215
C41	C	0.984939	-0.416471	-0.028999
C42	C	1.484939	0.083529	0.471001
C43	C	1.009880	-0.491203	0.084044
C44	C	1.509880	0.008797	0.584044
C45	C	1.028331	-0.463121	0.161307
C46	C	1.528331	0.036879	0.661307
C47	C	0.953496	-0.238933	-0.177834
C48	C	1.453496	0.261067	0.322166
C49	C	0.935049	-0.267010	-0.255092
C50	C	1.435049	0.232990	0.244908
C51	C	0.941547	-0.369821	-0.219306
C52	C	1.441547	0.130179	0.280694
C53	C	0.966488	-0.444553	-0.106262
C54	C	1.466488	0.055447	0.393738
C55	C	0.923095	-0.397902	-0.296568
C56	C	1.423095	0.102098	0.203432
C57	C	0.929588	-0.500710	-0.260782
C58	C	1.429588	-0.000710	0.239218
C59	C	0.972980	-0.547361	-0.070476
C60	C	1.472980	-0.047361	0.429524
C61	C	0.527324	0.041711	-0.014434
C62	C	1.027324	0.541711	0.485566
C63	C	0.443094	0.108521	-0.116414
C64	C	0.943094	0.608521	0.383586
C65	C	0.564014	0.136643	-0.047495
C66	C	1.064014	0.636643	0.452505
C67	C	0.482361	0.066373	0.055668
C68	C	0.982361	0.566373	0.555668
C69	C	0.399372	0.133223	-0.046289
C70	C	0.899372	0.633223	0.453711
C71	C	0.480994	0.203497	-0.149556
C72	C	0.980994	0.703497	0.350444
C73	C	0.520285	0.161316	0.022608
C74	C	1.020285	0.661316	0.522608
C75	C	0.436063	0.228201	-0.079418
C76	C	0.936063	0.728201	0.420582
C77	C	0.658859	0.138610	-0.048190
C78	C	1.158859	0.638610	0.451810
C79	C	0.304525	0.131265	-0.045605
C80	C	0.804525	0.631265	0.454395
C81	C	1.135826	0.127744	-0.044372
C82	C	1.635826	0.627744	0.455628
C83	C	1.228920	0.129694	-0.045048
C84	C	1.728920	0.629694	0.454952
C85	C	0.961445	0.315141	-0.109634
C86	C	1.461445	0.815141	0.390366
C87	C	0.954532	0.424563	-0.147733
C88	C	1.454532	0.924563	0.352267
N89	N	1.043714	0.068294	0.225049
N90	N	1.543714	0.568294	0.725049
N91	N	0.919676	0.201565	-0.318822
N92	N	1.419676	0.701565	0.181178
C93	C	0.819696	0.308939	0.493059
C94	C	1.319696	0.808939	0.993059
C95	C	0.844788	0.281995	0.602942
C96	C	1.344788	0.781995	1.102942
C97	C	0.969499	0.148045	0.649555
C98	C	1.469499	0.648045	1.149555
C99	C	0.944415	0.174976	0.539674
C100	C	1.444415	0.674976	1.039674
C101	C	0.869514	0.255424	0.461434
C102	C	1.369514	0.755424	0.961434
C103	C	0.994233	0.121461	0.508050
C104	C	1.494233	0.621461	1.008050
C105	C	0.969153	0.148393	0.398178
C106	C	1.469153	0.648393	0.898178
C107	C	0.894257	0.228840	0.319930
C108	C	1.394257	0.728840	0.819930
C109	C	0.844434	0.282357	0.351562
C110	C	1.344434	0.782357	0.851562
C111	C	1.069137	0.041017	0.586290
C112	C	1.569137	0.541017	1.086290
C113	C	1.118955	-0.012498	0.554665
C114	C	1.618955	0.487502	1.054665
C115	C	1.093872	0.014429	0.444793
C116	C	1.593872	0.514429	0.944793
C117	C	1.018975	0.094876	0.366546
C118	C	1.518975	0.594876	0.866546
C119	C	1.143694	-0.039087	0.413162
C120	C	1.643694	0.460913	0.913162
C121	C	1.118615	-0.012155	0.303290
C122	C	1.618615	0.487845	0.803290
C123	C	0.993896	0.121809	0.256674
C124	C	1.493896	0.621809	0.756674
H125	H	0.993297	-0.608210	0.021580
H126	H	1.493297	-0.108210	0.521580
Cl127	Cl	0.375305	0.349978	-0.121884
Cl128	Cl	0.875305	0.849978	0.378116
H129	H	0.482014	0.008375	0.142409
H130	H	0.982014	0.508375	0.642409
Cl131	Cl	0.959062	-0.088822	-0.165429
Cl132	Cl	1.459062	0.411178	0.334571
H133	H	0.783437	0.347859	0.287856
H134	H	1.283437	0.847859	0.787856
Cl135	Cl	0.588255	-0.079912	0.027798
Cl136	Cl	1.088255	0.420088	0.527798
H137	H	0.804214	0.325581	0.628681
H138	H	1.304214	0.825581	1.128681
H139	H	0.932899	0.187311	0.192968
H140	H	1.432899	0.687311	0.692968
Cl141	Cl	0.862731	0.262703	0.181802
Cl142	Cl	1.362731	0.762703	0.681802
H143	H	0.553866	0.183604	0.081401
H144	H	1.053866	0.683604	0.581401
Cl145	Cl	0.906391	-0.536010	-0.357907
Cl146	Cl	1.406391	-0.036010	0.142093
H147	H	0.409538	0.086199	-0.175192
H148	H	0.909538	0.586199	0.324808
Cl149	Cl	1.018039	-0.620450	0.129036
Cl150	Cl	1.518039	-0.120450	0.629036
Cl151	Cl	0.903714	-0.173064	-0.397204
Cl152	Cl	1.403714	0.326936	0.102796
H153	H	1.179942	-0.077998	0.618380
H154	H	1.679942	0.422002	1.118380
Cl155	Cl	0.725524	0.410068	0.394698
Cl156	Cl	1.225524	0.910068	0.894698
Cl157	Cl	1.063659	0.046915	0.747919
Cl158	Cl	1.563659	0.546915	1.247919
Cl159	Cl	1.100666	0.007167	0.724414
Cl160	Cl	1.600666	0.507167	1.224414
Cl161	Cl	1.181247	-0.079431	0.263531
Cl162	Cl	1.681247	0.420569	0.763531
Cl163	Cl	1.059706	-0.557074	0.303429
Cl164	Cl	1.559706	-0.057074	0.803429
Cl165	Cl	1.071661	-0.426189	0.344901
Cl166	Cl	1.571661	0.073811	0.844901
Cl167	Cl	1.056994	-0.194129	0.264112
Cl168	Cl	1.556994	0.305871	0.764112
Cl169	Cl	1.237861	-0.140209	0.511527
Cl170	Cl	1.737861	0.359791	1.011527
Cl171	Cl	0.945349	-0.109689	-0.222821
Cl172	Cl	1.445349	0.390311	0.277179
H173	H	0.902778	-0.337044	-0.388613
H174	H	1.402778	0.162956	0.111387
H175	H	0.481226	0.261467	-0.236363
H176	H	0.981226	0.761467	0.263637
