data_functionalizedCrystal
_audit_creation_method	'MofGen! by Chris Wilmer'
_symmetry_space_group_name_H-M	'P1'
_symmetry_Int_Tables_number	1
_symmetry_cell_setting	triclinic
loop_
_symmetry_equiv_pos_as_xyz
  x,y,z
_cell_length_a	17.052863
_cell_length_b	17.052993
_cell_length_c	17.052862
_cell_angle_alpha	78.838944
_cell_angle_beta	87.391884
_cell_angle_gamma	78.839349
loop_
_atom_site_label
_atom_site_type_symbol
_atom_site_fract_x
_atom_site_fract_y
_atom_site_fract_z
Zr1	Zr	0.849417	0.929006	-0.029163
O2	O	0.767489	1.024928	-0.111092
O3	O	0.857166	0.795487	-0.021413
O4	O	0.896054	0.910208	-0.149979
O5	O	0.717680	0.938146	0.138642
O6	O	1.017222	0.938146	-0.160900
O7	O	0.728601	0.910207	0.017473
O8	O	0.947659	0.732933	0.069081
O9	O	0.787243	1.143360	-0.091338
O10	O	0.971879	0.885180	-0.005277
O11	O	0.873302	0.885180	0.093299
O12	O	0.919087	1.020248	-0.058070
O13	O	0.820510	1.020248	0.040507
Zr14	Zr	1.025249	1.018123	0.146669
Zr15	Zr	1.042667	0.973565	-0.046581
Zr16	Zr	0.831999	0.973564	0.164087
Zr17	Zr	0.880923	1.117891	0.002342
Zr18	Zr	0.993743	0.829238	0.115164
O19	O	1.017500	1.151642	0.138919
O20	O	1.042266	1.088285	-0.135857
O21	O	0.742723	1.088284	0.163684
O22	O	1.107177	0.922201	0.228598
O23	O	1.131943	0.858844	-0.046178
O24	O	0.832400	0.858844	0.253363
O25	O	1.156986	1.008983	-0.021136
O26	O	0.978612	1.036921	0.267485
O27	O	0.857443	1.008983	0.278406
O28	O	1.146065	1.036921	0.100033
O29	O	0.940851	1.178778	-0.105183
O30	O	0.933814	0.768351	0.222689
O31	O	1.087422	0.803769	0.208844
O32	O	1.101267	0.768351	0.055236
O33	O	0.773398	1.178778	0.062270
O34	O	0.927007	1.214196	0.048425
O35	O	0.955578	0.926881	0.175576
O36	O	1.054155	0.926881	0.076999
O37	O	1.001364	1.061949	0.024207
O38	O	0.902787	1.061949	0.122783
C39	C	0.897923	0.737298	0.019345
C40	C	0.884548	0.657111	0.005970
C41	C	0.695606	0.917828	0.080539
C42	C	0.613567	0.898912	0.087933
C43	C	0.828405	0.653910	-0.050169
C44	C	0.815836	0.578574	-0.062743
C45	C	0.859405	0.506432	-0.019174
C46	C	0.915546	0.509632	0.036970
C47	C	0.928120	0.584975	0.049541
C48	C	0.959120	0.437497	0.080536
C49	C	1.015261	0.440697	0.136680
C50	C	1.027832	0.516034	0.149249
C51	C	0.984263	0.588176	0.105680
C52	C	0.946546	0.362153	0.067965
C53	C	1.046261	0.293219	0.167675
C54	C	1.058829	0.368555	0.180249
C55	C	0.602585	0.819516	0.118962
C56	C	0.525505	0.801741	0.125911
C57	C	0.459400	0.863358	0.101827
C58	C	0.470382	0.942754	0.070793
C59	C	0.547468	0.960533	0.063848
C60	C	0.404284	1.004375	0.046714
C61	C	0.415265	1.083771	0.015679
C62	C	0.492345	1.101545	0.008736
C63	C	0.558450	1.039928	0.032820
C64	C	0.327197	0.986596	0.053658
C65	C	0.272081	1.127613	-0.001456
C66	C	0.349160	1.145388	-0.008405
C67	C	1.179059	1.029301	0.036967
C68	C	1.261099	1.048217	0.029573
C69	C	0.959120	0.917828	-0.182973
C70	C	0.966514	0.898912	-0.265013
C71	C	0.976742	1.209831	0.098161
C72	C	0.990117	1.290018	0.111536
C73	C	0.877118	1.127611	-0.606500
C74	C	0.870166	1.145386	-0.529420
C75	C	0.894253	1.083769	-0.463315
C76	C	0.925292	1.004374	-0.474296
C77	C	0.932239	0.986597	-0.551383
C78	C	0.949374	0.942755	-0.408198
C79	C	0.980413	0.863360	-0.419179
C80	C	0.987359	0.845586	-0.496259
C81	C	0.963272	0.907202	-0.562364
C82	C	0.942427	0.960532	-0.331111
C83	C	0.997547	0.819518	-0.275994
C84	C	1.004499	0.801743	-0.353074
C85	C	0.915546	1.029301	0.300479
C86	C	0.908152	1.048217	0.382519
C87	C	1.139650	0.793034	-0.002441
C88	C	1.208315	0.731764	-0.023210
C89	C	0.876137	0.793034	0.261071
C90	C	0.855367	0.731764	0.329736
C91	C	1.117863	0.848771	0.239285
C92	C	1.179133	0.806417	0.300556
C93	C	0.756803	1.098358	-0.121779
C94	C	0.695532	1.140712	-0.183050
C95	C	0.735016	1.154095	0.119947
C96	C	0.666351	1.215365	0.140716
C97	C	0.998529	1.154095	-0.143565
C98	C	1.019298	1.215365	-0.212230
C99	C	1.197613	0.681222	-0.075919
C100	C	1.262127	0.623656	-0.095449
C101	C	1.337340	0.616631	-0.062265
C102	C	1.348040	0.667180	-0.009554
C103	C	1.283529	0.724748	0.009971
C104	C	0.888560	0.724760	0.404937
C105	C	0.869043	0.667201	0.469465
C106	C	0.816337	0.616644	0.458788
C107	C	0.783140	0.623652	0.383579
C108	C	0.802653	0.681213	0.319055
C109	C	1.259371	0.786529	0.277872
C110	C	1.316951	0.746743	0.335436
C111	C	1.294290	0.726841	0.415683
C112	C	1.214045	0.746734	0.438366
C113	C	1.156468	0.786524	0.380803
C114	C	0.615296	1.160609	-0.160365
C115	C	0.557720	1.200418	-0.217925
C116	C	0.580381	1.220324	-0.298170
C117	C	0.660626	1.200426	-0.320855
C118	C	0.718201	1.160623	-0.263294
C119	C	0.677054	1.265913	0.193419
C120	C	0.612546	1.323494	0.212931
C121	C	0.537334	1.330522	0.179745
C122	C	0.526632	1.279970	0.127036
C123	C	0.591141	1.222394	0.107520
C124	C	1.072008	1.265908	-0.201529
C125	C	1.091538	1.323473	-0.266042
C126	C	1.058354	1.330499	-0.341256
C127	C	1.005642	1.279949	-0.351956
C128	C	0.986117	1.222381	-0.287444
H129	H	0.900836	0.359557	0.022251
H130	H	0.931477	0.765921	0.413646
Br131	Br	0.842345	0.404189	-0.036238
Br132	Br	0.914106	0.657704	0.571524
Br133	Br	1.117054	1.256389	-0.099461
H134	H	1.389862	0.569751	-0.078170
Br135	Br	1.298065	0.793334	0.081513
Br136	Br	0.789862	0.538528	0.546366
Br137	Br	0.627087	1.392089	0.284466
H138	H	0.740224	0.582480	0.374897
H139	H	0.943194	1.181232	-0.296168
H140	H	0.679068	1.216639	-0.386197
Br141	Br	0.757599	0.690706	0.216996
Br142	Br	0.510605	0.693997	0.168038
Br143	Br	0.312303	0.878848	0.095775
Br144	Br	1.450120	0.657633	0.035478
H145	H	0.978628	1.285679	-0.413203
H146	H	0.533492	1.252734	-0.345032
Br147	Br	0.692295	0.735910	0.151675
H148	H	1.073553	0.518635	0.194958
H149	H	0.465386	1.285701	0.100020
H150	H	1.195606	0.730524	0.503710
H151	H	0.396640	0.848881	0.107486
Br152	Br	0.576600	1.153793	0.035996
Br153	Br	0.449793	1.408666	0.206239
H154	H	0.621217	1.054395	0.027159
Br155	Br	0.507246	1.209301	-0.033365
H156	H	1.134457	1.364628	-0.257314
H157	H	1.277836	0.802726	0.212535
Br158	Br	0.844415	1.211220	-0.696211
Br159	Br	1.047573	0.813506	0.411602
Br160	Br	1.046622	0.693997	-0.367988
H161	H	1.382286	0.730550	0.316953
Br162	Br	0.739648	0.574234	-0.138934
H163	H	1.074259	1.377379	-0.393778
Br164	Br	1.372442	0.672840	0.493795
H165	H	0.358113	1.210033	-0.033673
H166	H	0.218256	1.177786	-0.021068
Br167	Br	0.584520	1.133600	-0.051465
H168	H	0.917153	1.025176	-0.322179
H169	H	0.492386	1.216611	-0.199440
Br170	Br	0.827092	1.133620	-0.294096
H171	H	0.888590	1.098246	-0.400555
H172	H	0.844895	1.210029	-0.520485
Br173	Br	1.105400	0.195316	0.226801
H174	H	0.792942	0.712652	-0.085641
Br175	Br	1.001310	0.690425	0.122752
Br176	Br	0.779121	1.256394	0.238466
H177	H	0.968933	0.892735	-0.625131
Br178	Br	1.135015	0.372909	0.256444
H179	H	1.017157	0.769343	-0.222169
Br180	Br	1.095547	0.690742	-0.120969
Br181	Br	1.247586	0.555062	-0.166985
Br182	Br	1.029465	0.737832	-0.511160
