data_functionalizedCrystal
_audit_creation_method	'MofGen! by Chris Wilmer'
_symmetry_space_group_name_H-M	'P1'
_symmetry_Int_Tables_number	1
_symmetry_cell_setting	triclinic
loop_
_symmetry_equiv_pos_as_xyz
  x,y,z
_cell_length_a	15.711784
_cell_length_b	15.944493
_cell_length_c	14.185569
_cell_angle_alpha	76.852849
_cell_angle_beta	107.179161
_cell_angle_gamma	101.531923
loop_
_atom_site_label
_atom_site_type_symbol
_atom_site_fract_x
_atom_site_fract_y
_atom_site_fract_z
O1	O	1.127257	0.473699	-0.083406
O2	O	1.627257	0.973699	0.416594
O3	O	0.875604	0.409741	-0.083406
O4	O	1.375604	0.909741	0.416594
O5	O	1.008327	0.321562	-0.083414
O6	O	1.508327	0.821562	0.416586
O7	O	0.994534	0.561877	-0.083397
O8	O	1.494534	1.061877	0.416603
O9	O	1.047534	0.295518	0.083418
O10	O	1.547534	0.795518	0.583418
O11	O	0.914811	0.383696	0.083426
O12	O	1.414811	0.883696	0.583426
O13	O	1.166465	0.447654	0.083426
O14	O	1.666465	0.947654	0.583426
Cu15	Cu	1.044218	0.413297	0.098659
Cu16	Cu	1.544218	0.913297	0.598659
Cu17	Cu	0.997850	0.444098	-0.098639
Cu18	Cu	1.497850	0.944098	0.401361
O19	O	1.033742	0.535833	0.083435
O20	O	1.533742	1.035833	0.583435
C21	C	0.863005	0.386270	0.000010
C22	C	1.363005	0.886270	0.500010
C23	C	0.767051	0.355129	0.000010
C24	C	1.267051	0.855129	0.500010
C25	C	0.642120	0.237892	0.000003
C26	C	1.142120	0.737892	0.500003
C27	C	0.732282	0.267163	0.000003
C28	C	1.232282	0.767163	0.500003
C29	C	0.711664	0.413860	0.000010
C30	C	1.211664	0.913860	0.500010
C31	C	0.621497	0.384602	0.000004
C32	C	1.121497	0.884602	0.500004
C33	C	0.586733	0.296617	0.000001
C34	C	1.086733	0.796617	0.500001
C35	C	0.566110	0.443327	0.000003
C36	C	1.066110	0.943327	0.500003
C37	C	0.475953	0.414071	0.000002
C38	C	0.975953	0.914071	0.500002
C39	C	0.441182	0.326089	0.000003
C40	C	0.941182	0.826089	0.500003
C41	C	0.496576	0.267360	0.000001
C42	C	0.996576	0.767360	0.500001
C43	C	0.600878	0.531311	0.000012
C44	C	1.100878	1.031311	0.500012
C45	C	0.545491	0.590036	0.000011
C46	C	1.045491	1.090036	0.500011
C47	C	0.455330	0.560781	0.000003
C48	C	0.955330	1.060781	0.500003
C49	C	0.420559	0.472799	0.000004
C50	C	0.920559	0.972799	0.500004
C51	C	0.399936	0.619509	0.000005
C52	C	0.899936	1.119509	0.500005
C53	C	0.309779	0.590252	0.000004
C54	C	0.809779	1.090252	0.500004
C55	C	0.330402	0.443542	0.000003
C56	C	0.830402	0.943542	0.500003
C57	C	1.027365	0.277073	-0.000002
C58	C	1.527365	0.777073	0.499998
C59	C	1.025672	0.183307	-0.000015
C60	C	1.525672	0.683307	0.499985
C61	C	1.103801	-0.028454	0.000004
C62	C	1.603801	0.471546	0.500004
C63	C	1.042340	-0.079124	-0.082253
C64	C	1.542340	0.420876	0.417747
C65	C	1.022542	0.011621	-0.000003
C66	C	1.522542	0.511621	0.499997
C67	C	1.080977	-0.104784	0.082231
C68	C	1.580977	0.395216	0.582231
C69	C	1.019526	-0.154219	0.000013
C70	C	1.519526	0.345781	0.500013
C71	C	0.961087	-0.037803	-0.082327
C72	C	1.461087	0.462197	0.417673
C73	C	0.999753	-0.063468	0.082230
C74	C	1.499753	0.436532	0.582230
C75	C	0.938228	-0.114120	-0.000046
C76	C	1.438228	0.385880	0.499954
C77	C	1.024282	0.107158	-0.000013
C78	C	1.524282	0.607158	0.499987
C79	C	1.017779	-0.249753	0.000016
C80	C	1.517779	0.250247	0.500016
C81	C	1.179063	0.471125	0.000008
C82	C	1.679063	0.971125	0.500008
C83	C	1.275015	0.502267	0.000002
C84	C	1.775015	1.002267	0.500002
C85	C	1.014702	0.580323	0.000021
C86	C	1.514702	1.080323	0.500021
C87	C	1.016394	0.674090	0.000027
C88	C	1.516394	1.174090	0.500027
N89	N	1.076837	0.391635	0.237428
N90	N	1.576837	0.891635	0.737428
N91	N	0.965239	0.465755	-0.237408
N92	N	1.465239	0.965755	0.262592
C93	C	0.869405	0.529362	0.605092
C94	C	1.369405	1.029362	1.105092
C95	C	0.894119	0.512961	0.710112
C96	C	1.394119	1.012961	1.210112
C97	C	1.011669	0.434929	0.710065
C98	C	1.511669	0.934929	1.210065
C99	C	0.986962	0.451320	0.605043
C100	C	1.486962	0.951320	1.105043
C101	C	0.915830	0.498538	0.552564
C102	C	1.415830	0.998538	1.052564
C103	C	1.033387	0.420495	0.552516
C104	C	1.533387	0.920495	1.052516
C105	C	1.008684	0.436889	0.447503
C106	C	1.508684	0.936889	0.947503
C107	C	0.937557	0.484108	0.395017
C108	C	1.437557	0.984108	0.895017
C109	C	0.891127	0.514932	0.447552
C110	C	1.391127	1.014932	0.947552
C111	C	1.104523	0.373283	0.604996
C112	C	1.604523	0.873283	1.104996
C113	C	1.150948	0.342459	0.552469
C114	C	1.650948	0.842459	1.052469
C115	C	1.126241	0.358847	0.447454
C116	C	1.626241	0.858847	0.947454
C117	C	1.055114	0.406065	0.394968
C118	C	1.555114	0.906065	0.894968
C119	C	1.172671	0.328023	0.394920
C120	C	1.672671	0.828023	0.894920
C121	C	1.147969	0.344417	0.289907
C122	C	1.647969	0.844417	0.789907
C123	C	1.030411	0.422459	0.289955
C124	C	1.530411	0.922459	0.789955
H125	H	0.302093	0.371898	-0.000009
H126	H	0.802093	0.871898	0.499991
O127	O	0.353586	0.297581	-0.000133
O128	O	0.853586	0.797581	0.499867
C129	C	0.308816	0.261076	-0.086552
C130	C	0.808816	0.761076	0.413448
H131	H	0.360026	0.239605	-0.115358
H132	H	0.860026	0.739605	0.384642
H133	H	0.258138	0.202405	-0.067122
H134	H	0.758138	0.702405	0.432878
H135	H	0.272080	0.311696	-0.147054
H136	H	0.772080	0.811696	0.352946
O137	O	0.978220	-0.054549	0.165166
O138	O	1.478220	0.445451	0.665166
C139	C	0.891588	-0.099971	0.165868
C140	C	1.391588	0.400029	0.665868
H141	H	0.874754	-0.152903	0.118407
H142	H	1.374754	0.347097	0.618407
H143	H	0.889925	-0.130954	0.246199
H144	H	1.389925	0.369046	0.746199
H145	H	0.840031	-0.052787	0.133567
H146	H	1.340031	0.447213	0.633567
O147	O	0.785950	0.210004	-0.000050
O148	O	1.285950	0.710004	0.499950
C149	C	0.735934	0.126073	-0.000028
C150	C	1.235934	0.626073	0.499972
H151	H	0.661221	0.131653	-0.031607
H152	H	1.161221	0.631653	0.468393
H153	H	0.757808	0.090785	-0.048470
H154	H	1.257808	0.590785	0.451530
H155	H	0.748329	0.087912	0.080008
H156	H	1.248329	0.587912	0.580008
H157	H	0.833198	0.553374	0.404822
H158	H	1.333198	1.053374	0.904822
H159	H	0.739982	0.485497	0.000015
H160	H	1.239982	0.985497	0.500015
O161	O	0.608256	0.152459	-0.000182
O162	O	1.108256	0.652459	0.499818
C163	C	0.536399	0.144643	-0.086573
C164	C	1.036399	0.644643	0.413427
H165	H	0.543530	0.204513	-0.146961
H166	H	1.043530	0.704513	0.353039
H167	H	0.537669	0.083960	-0.115582
H168	H	1.037669	0.583960	0.384418
H169	H	0.469894	0.139136	-0.067035
H170	H	0.969894	0.639136	0.432965
H171	H	0.674291	0.555128	0.000017
H172	H	1.174291	1.055128	0.500017
H173	H	0.468267	0.195716	-0.000012
H174	H	0.968267	0.695716	0.499988
H175	H	1.060313	-0.086671	-0.151795
H176	H	1.560313	0.413329	0.348205
H177	H	0.811476	0.567804	0.562362
H178	H	1.311476	1.067804	1.062362
H179	H	1.173775	0.008691	-0.000079
H180	H	1.673775	0.508691	0.499921
H181	H	0.573809	0.661673	0.000017
H182	H	1.073809	1.161673	0.500017
H183	H	0.868170	-0.151100	-0.000091
H184	H	1.368170	0.348900	0.499909
H185	H	1.131652	-0.134023	0.151768
H186	H	1.631652	0.365977	0.651768
H187	H	1.069588	0.396486	0.752805
H188	H	1.569588	0.896486	1.252805
H189	H	0.972483	0.460901	0.247225
H190	H	1.472483	0.960901	0.747225
H191	H	0.910430	-0.008653	-0.151943
H192	H	1.410430	0.491347	0.348057
O193	O	0.913716	0.500079	0.293007
O194	O	1.413716	1.000079	0.793007
C195	C	0.987488	0.547908	0.257897
C196	C	1.487488	1.047908	0.757897
H197	H	1.052648	0.536924	0.318393
H198	H	1.552648	1.036924	0.818393
H199	H	0.988655	0.525361	0.187629
H200	H	1.488655	1.025361	0.687629
H201	H	0.980816	0.620111	0.239279
H202	H	1.480816	1.120111	0.739279
O203	O	0.433714	0.704992	-0.000163
O204	O	0.933714	1.204992	0.499837
C205	C	0.464973	0.739788	-0.086547
C206	C	0.964973	1.239788	0.413453
H207	H	0.429464	0.698777	-0.146945
H208	H	0.929464	1.198777	0.353055
H209	H	0.450067	0.809526	-0.115544
H210	H	0.950067	1.309526	0.384456
H211	H	0.540662	0.739199	-0.067004
H212	H	1.040662	1.239199	0.432996
O213	O	0.256082	0.647418	-0.000048
O214	O	0.756082	1.147418	0.499952
C215	C	0.306102	0.731345	-0.000025
C216	C	0.806102	1.231345	0.499975
H217	H	0.365972	0.735629	-0.031607
H218	H	0.865972	1.235629	0.468393
H219	H	0.261455	0.781751	-0.048463
H220	H	0.761455	1.281751	0.451537
H221	H	0.331327	0.744523	0.080012
H222	H	0.831327	1.244523	0.580012
H223	H	0.856308	0.538067	0.752874
H224	H	1.356308	1.038067	1.252874
H225	H	1.124635	0.359940	0.690504
H226	H	1.624635	0.859940	1.190504
O227	O	1.219994	0.296573	0.603606
O228	O	1.719994	0.796573	1.103606
C229	C	1.231861	0.288733	0.707557
C230	C	1.731861	0.788733	1.207557
H231	H	1.166520	0.296735	0.721925
H232	H	1.666520	0.796735	1.221925
H233	H	1.250871	0.221853	0.747458
H234	H	1.750871	0.721853	1.247458
H235	H	1.287785	0.341268	0.737348
H236	H	1.787785	0.841268	1.237348
H237	H	1.230593	0.289585	0.437661
H238	H	1.730593	0.789585	0.937661
O239	O	1.193130	0.314378	0.239031
O240	O	1.693130	0.814378	0.739031
C241	C	1.261222	0.269204	0.307867
C242	C	1.761222	0.769204	0.807867
H243	H	1.243400	0.245656	0.382735
H244	H	1.743400	0.745656	0.882735
H245	H	1.267278	0.210924	0.277508
H246	H	1.767278	0.710924	0.777508
H247	H	1.328048	0.314500	0.319020
H248	H	1.828048	0.814500	0.819020
