data_functionalizedCrystal
_audit_creation_method	'MofGen! by Chris Wilmer'
_symmetry_space_group_name_H-M	'P1'
_symmetry_Int_Tables_number	1
_symmetry_cell_setting	triclinic
loop_
_symmetry_equiv_pos_as_xyz
  x,y,z
_cell_length_a	14.853566
_cell_length_b	15.944493
_cell_length_c	13.930277
_cell_angle_alpha	90.001318
_cell_angle_beta	89.995631
_cell_angle_gamma	83.554729
loop_
_atom_site_label
_atom_site_type_symbol
_atom_site_fract_x
_atom_site_fract_y
_atom_site_fract_z
O1	O	1.196204	0.109662	-0.079755
O2	O	0.933724	0.122728	-0.079769
O3	O	1.072159	-0.006075	-0.079769
O4	O	1.057769	0.238465	-0.079754
O5	O	1.072140	-0.006078	0.079893
O6	O	0.933705	0.122725	0.079893
O7	O	1.196185	0.109660	0.079907
Zn8	Zn	1.064942	0.116192	0.105250
Zn9	Zn	1.064967	0.116195	-0.105111
O10	O	1.057750	0.238462	0.079908
C11	C	0.900127	0.122134	0.000060
C12	C	0.800046	0.120361	0.000054
C13	C	0.376883	0.112861	-0.086961
C14	C	0.376883	0.112859	0.087108
C15	C	0.470915	0.114524	0.087105
C16	C	0.517935	0.115360	0.000068
C17	C	0.470923	0.114529	-0.086967
C18	C	0.517932	0.115363	0.174138
C19	C	0.611970	0.117029	0.174139
C20	C	0.658992	0.117859	0.087100
C21	C	0.611974	0.117028	0.000062
C22	C	0.658994	0.117863	-0.086975
C23	C	0.611979	0.117026	-0.174015
C24	C	0.517945	0.115359	-0.174006
C25	C	0.753026	0.119526	0.087091
C26	C	0.753034	0.119531	-0.086981
C27	C	1.071561	-0.037372	0.000057
C28	C	1.069798	-0.130623	0.000045
C29	C	1.151284	-0.366292	0.000068
C30	C	1.107351	-0.416907	-0.078656
C31	C	1.066531	-0.301347	0.000057
C32	C	1.107312	-0.416886	0.078758
C33	C	1.063381	-0.466260	0.000072
C34	C	1.022621	-0.350734	-0.078732
C35	C	1.022595	-0.350710	0.078753
C36	C	0.978600	-0.401293	0.000010
C37	C	1.068348	-0.206345	0.000047
C38	C	1.061558	-0.561260	0.000075
C39	C	1.229782	0.110253	0.000076
C40	C	1.329863	0.112026	0.000076
C41	C	1.058348	0.269759	0.000079
C42	C	1.060111	0.363010	0.000085
N43	N	1.064931	0.116189	0.248816
N44	N	1.064985	0.116192	-0.248678
C45	C	1.003666	0.173207	0.701085
C46	C	1.126293	0.059177	0.701054
C47	C	1.126283	0.059175	0.600559
C48	C	1.064964	0.116190	0.550322
C49	C	1.003655	0.173208	0.600580
C50	C	1.187596	0.002164	0.550293
C51	C	1.187588	0.002159	0.449791
C52	C	1.126264	0.059171	0.399552
C53	C	1.064953	0.116191	0.449817
C54	C	1.003634	0.173206	0.399580
C55	C	0.942317	0.230222	0.449843
C56	C	0.942331	0.230219	0.550342
C57	C	1.126250	0.059174	0.299053
C58	C	1.003623	0.173207	0.299075
H59	H	0.479657	0.114676	-0.244868
C60	C	1.255024	-0.060561	0.394510
H61	H	1.291540	-0.094521	0.438824
H62	H	1.292540	-0.030286	0.355292
H63	H	1.222588	-0.095587	0.355318
H64	H	0.986825	-0.321790	0.145307
C65	C	0.874899	0.292937	0.605632
H66	H	0.883697	0.284776	0.672680
H67	H	0.814731	0.283717	0.589181
H68	H	0.884685	0.349017	0.589158
C69	C	1.255036	-0.060553	0.605548
H70	H	1.291555	-0.094505	0.561222
H71	H	1.222612	-0.095574	0.644753
H72	H	1.292562	-0.030271	0.644751
H73	H	0.650242	0.117709	0.245012
H74	H	1.143115	-0.445779	0.145309
H75	H	0.905539	-0.416840	-0.000037
H76	H	0.953686	0.219632	0.258178
H77	H	0.338600	0.112176	-0.157827
H78	H	0.892394	0.276648	0.408928
H79	H	0.986857	-0.321953	-0.145357
C80	C	0.936226	0.235922	0.756368
H81	H	0.945014	0.227762	0.823418
H82	H	0.876061	0.226699	0.739906
H83	H	0.946010	0.292003	0.739897
C84	C	1.193739	-0.003533	0.756312
H85	H	1.184961	0.004630	0.823364
H86	H	1.253901	0.005688	0.739829
H87	H	1.183950	-0.059614	0.739846
C88	C	1.193689	-0.003536	0.243768
H89	H	1.230208	-0.037493	0.288081
H90	H	1.231200	0.026746	0.204552
H91	H	1.161259	-0.038565	0.204574
H92	H	0.791311	0.120208	-0.157858
C93	C	0.804742	0.120426	0.182821
H94	H	0.763272	0.119681	0.234658
H95	H	0.834554	0.170013	0.186453
H96	H	0.848297	0.072116	0.186422
H97	H	0.650274	0.117712	-0.244880
C98	C	0.325168	0.111944	0.182843
H99	H	0.366635	0.112683	0.234676
H100	H	0.295363	0.062351	0.186461
H101	H	0.281606	0.160247	0.186464
H102	H	0.479641	0.114689	0.244999
H103	H	1.224288	-0.350583	-0.000007
C104	C	1.155711	-0.455964	-0.168556
H105	H	1.217028	-0.444251	-0.168459
H106	H	1.126216	-0.432433	-0.224461
H107	H	1.153743	-0.515311	-0.168195
