data_functionalizedCrystal
_audit_creation_method	'MofGen! by Chris Wilmer'
_symmetry_space_group_name_H-M	'P1'
_symmetry_Int_Tables_number	1
_symmetry_cell_setting	triclinic
loop_
_symmetry_equiv_pos_as_xyz
  x,y,z
_cell_length_a	18.101398
_cell_length_b	18.101395
_cell_length_c	13.897441
_cell_angle_alpha	89.970274
_cell_angle_beta	89.989505
_cell_angle_gamma	90.026661
loop_
_atom_site_label
_atom_site_type_symbol
_atom_site_fract_x
_atom_site_fract_y
_atom_site_fract_z
Zn1	Zn	1.132126	-0.294901	-0.545172
Zn2	Zn	1.132021	-0.418755	-0.383873
Zn3	Zn	1.008284	-0.294922	-0.383913
Zn4	Zn	1.008236	-0.418696	-0.545148
O5	O	1.070167	-0.356818	-0.464527
O6	O	1.235745	-0.311346	-0.523768
O7	O	1.115582	-0.402361	-0.248897
O8	O	1.024776	-0.191286	-0.405331
O9	O	1.235668	-0.402341	-0.405263
O10	O	1.115763	-0.191271	-0.523807
O11	O	1.024673	-0.311382	-0.248926
O12	O	0.904645	-0.311325	-0.405308
O13	O	1.024695	-0.402241	-0.680133
O14	O	0.904610	-0.402261	-0.523767
O15	O	1.115716	-0.311289	-0.680151
O16	O	1.115536	-0.522380	-0.405240
O17	O	1.024592	-0.522336	-0.523728
C18	C	0.877756	-0.356789	-0.464540
C19	C	0.795442	-0.356794	-0.464569
C20	C	0.496351	-0.356838	-0.464528
C21	C	0.527679	-0.414329	-0.538692
C22	C	0.613297	-0.414149	-0.538996
C23	C	0.644734	-0.356817	-0.464548
C24	C	0.613680	-0.278814	-0.492325
C25	C	0.528034	-0.279159	-0.492852
C26	C	0.527898	-0.376663	-0.362410
C27	C	0.613548	-0.378374	-0.362955
C28	C	0.728593	-0.356800	-0.464558
C29	C	0.412492	-0.356850	-0.464521
C30	C	1.070068	-0.549229	-0.464498
C31	C	1.070093	-0.631543	-0.464518
C32	C	1.070256	-0.930634	-0.464570
C33	C	1.013169	-0.899312	-0.539305
C34	C	1.012897	-0.813694	-0.539071
C35	C	1.070175	-0.782251	-0.464545
C36	C	1.049045	-0.813404	-0.362891
C37	C	1.048677	-0.899049	-0.363338
C38	C	1.148597	-0.898983	-0.490596
C39	C	1.148137	-0.813332	-0.492825
C40	C	1.070131	-0.698392	-0.464525
C41	C	1.070298	-1.014493	-0.464584
C42	C	1.263329	-0.356848	-0.464514
C43	C	1.345643	-0.356861	-0.464508
C44	C	1.070212	-0.356756	-0.716120
C45	C	1.070231	-0.356730	-0.823334
C46	C	1.070286	-0.163656	-0.464576
C47	C	1.070337	-0.081342	-0.464597
C48	C	1.070247	-0.356709	-0.910404
C49	C	1.070268	-0.356675	-1.019636
C50	C	1.070164	-0.356827	-0.213912
C51	C	1.070288	-0.356645	-0.106699
H52	H	0.634947	-0.339541	-0.304731
F53	F	0.641734	-0.256438	-0.588842
F54	F	1.204193	-0.925469	-0.419461
H55	H	0.633851	-0.435773	-0.342006
F56	F	1.173778	-0.927145	-0.585833
H57	H	0.507064	-0.472362	-0.521478
F58	F	1.168966	-0.786715	-0.590611
F59	F	1.100660	-0.926137	-0.288070
H60	H	0.506284	-0.432570	-0.337167
H61	H	1.192919	-0.791924	-0.442359
F62	F	0.501416	-0.321930	-0.290182
H63	H	0.508074	-0.262345	-0.567505
F64	F	0.974983	-0.785452	-0.333554
H65	H	0.634292	-0.471993	-0.521588
F66	F	0.640297	-0.221304	-0.423928
H67	H	1.026258	-0.919858	-0.614926
F68	F	0.499552	-0.397415	-0.637015
F69	F	0.640100	-0.397004	-0.637894
H70	H	0.507312	-0.234789	-0.441312
F71	F	1.030175	-0.786158	-0.637594
F72	F	0.937732	-0.927535	-0.517074
F73	F	1.101681	-0.786787	-0.288122
H74	H	0.991409	-0.919089	-0.341290
F75	F	0.936996	-0.786991	-0.516545
