data_functionalizedCrystal
_audit_creation_method	'MofGen! by Chris Wilmer'
_symmetry_space_group_name_H-M	'P1'
_symmetry_Int_Tables_number	1
_symmetry_cell_setting	triclinic
loop_
_symmetry_equiv_pos_as_xyz
  x,y,z
_cell_length_a	11.169417
_cell_length_b	12.594516
_cell_length_c	11.169409
_cell_angle_alpha	90.033030
_cell_angle_beta	90.019824
_cell_angle_gamma	90.012694
loop_
_atom_site_label
_atom_site_type_symbol
_atom_site_fract_x
_atom_site_fract_y
_atom_site_fract_z
Zn1	Zn	1.834950	-0.423631	0.678537
Zn2	Zn	2.334950	0.076369	1.178537
Zn3	Zn	1.834834	-0.601657	0.477851
Zn4	Zn	2.334834	-0.101657	0.977851
Zn5	Zn	1.634236	-0.423696	0.477871
Zn6	Zn	2.134236	0.076304	0.977871
Zn7	Zn	1.634238	-0.601571	0.678496
Zn8	Zn	2.134238	-0.101571	1.178496
O9	O	1.734565	-0.512639	0.578189
O10	O	2.234565	-0.012639	1.078189
O11	O	2.002884	-0.447256	0.651924
O12	O	2.502884	0.052744	1.151924
O13	O	1.808175	-0.578114	0.309904
O14	O	2.308175	-0.078114	0.809904
O15	O	1.660909	-0.274741	0.504515
O16	O	2.160909	0.225259	1.004515
O17	O	2.002799	-0.578051	0.504482
O18	O	2.502799	-0.078051	1.004482
O19	O	1.808372	-0.274694	0.651944
O20	O	2.308372	0.225306	1.151944
O21	O	1.660796	-0.447366	0.309919
O22	O	2.160796	0.052634	0.809919
O23	O	1.466287	-0.447282	0.504476
O24	O	1.966287	0.052718	1.004476
O25	O	1.660912	-0.577903	0.846452
O26	O	2.160912	-0.077903	1.346452
O27	O	1.466288	-0.577966	0.651874
O28	O	1.966288	-0.077966	1.151874
O29	O	1.808375	-0.447172	0.846481
O30	O	2.308375	0.052828	1.346481
O31	O	1.808177	-0.750591	0.504442
O32	O	2.308177	-0.250591	1.004442
O33	O	1.660800	-0.750528	0.651855
O34	O	2.160800	-0.250528	1.151855
C35	C	1.422740	-0.512623	0.578174
C36	C	1.922740	-0.012623	1.078174
C37	C	1.289340	-0.512641	0.578195
C38	C	1.789340	-0.012641	1.078195
C39	C	1.734509	-0.789180	0.578168
C40	C	2.234509	-0.289180	1.078168
C41	C	1.734595	-0.907485	0.578199
C42	C	2.234595	-0.407485	1.078199
C43	C	1.814846	-0.976734	0.498107
C44	C	2.314846	-0.476734	0.998107
C45	C	1.844180	-1.047421	0.607650
C46	C	2.344180	-0.547421	1.107650
C47	C	1.705412	-1.047597	0.468726
C48	C	2.205412	-0.547597	0.968726
C49	C	1.763984	-0.976614	0.687800
C50	C	2.263984	-0.476614	1.187800
C51	C	1.625165	-0.976783	0.548802
C52	C	2.125165	-0.476783	1.048802
C53	C	1.654457	-1.047438	0.658421
C54	C	2.154457	-0.547438	1.158421
C55	C	2.047607	-0.512656	0.578205
C56	C	2.547607	-0.012656	1.078205
C57	C	2.181007	-0.512663	0.578212
C58	C	2.681007	-0.012663	1.078212
C59	C	1.734657	-0.512520	0.891232
C60	C	2.234657	-0.012520	1.391232
C61	C	1.734696	-0.512470	1.024632
C62	C	2.234696	-0.012470	1.524632
C63	C	1.734653	-0.235018	0.578236
C64	C	2.234653	0.264982	1.078236
C65	C	1.734691	-0.116712	0.578256
C66	C	2.234691	0.383288	1.078256
C67	C	1.734542	-0.512680	0.266364
C68	C	2.234542	-0.012680	0.766364
C69	C	1.734735	-0.512430	0.132965
C70	C	2.234735	-0.012430	0.632965
H71	H	1.882723	-0.945688	0.430437
H72	H	2.382723	-0.445688	0.930437
O73	O	1.514712	-0.939678	0.519279
O74	O	2.014712	-0.439678	1.019279
C75	C	1.469247	-0.878058	0.614373
C76	C	1.969247	-0.378058	1.114373
H77	H	1.515174	-0.902156	0.701372
H78	H	2.015174	-0.402156	1.201372
H79	H	1.368698	-0.891742	0.622685
H80	H	1.868698	-0.391742	1.122685
H81	H	1.487102	-0.790451	0.595960
H82	H	1.987102	-0.290451	1.095960
H83	H	1.586632	-1.078288	0.726255
H84	H	2.086632	-0.578288	1.226255
O85	O	1.676116	-1.084843	0.358221
O86	O	2.176116	-0.584843	0.858221
C87	C	1.770447	-1.147983	0.313891
C88	C	2.270447	-0.647983	0.813891
H89	H	1.857487	-1.124854	0.360431
H90	H	2.357487	-0.624854	0.860431
H91	H	1.779858	-1.134911	0.213347
H92	H	2.279858	-0.634911	0.713347
H93	H	1.750276	-1.235237	0.332047
H94	H	2.250276	-0.735237	0.832047
O95	O	1.954700	-1.084401	0.637156
O96	O	2.454700	-0.584401	1.137156
C97	C	2.038996	-1.048364	0.552480
C98	C	2.538996	-0.548364	1.052480
H99	H	1.991304	-1.028589	0.465042
H100	H	2.491304	-0.528589	0.965042
H101	H	2.108315	-1.113109	0.535731
H102	H	2.608315	-0.613109	1.035731
H103	H	2.085534	-0.974255	0.588194
H104	H	2.585534	-0.474255	1.088194
O105	O	1.793647	-0.939408	0.798223
O106	O	2.293647	-0.439408	1.298223
C107	C	1.793257	-0.827467	0.796854
C108	C	2.293257	-0.327467	1.296854
H109	H	1.806641	-0.798228	0.701217
H110	H	2.306641	-0.298228	1.201217
H111	H	1.868922	-0.796471	0.855822
H112	H	2.368922	-0.296471	1.355822
H113	H	1.703898	-0.797185	0.832415
H114	H	2.203898	-0.297185	1.332415
