data_functionalizedCrystal
_audit_creation_method	'MofGen! by Chris Wilmer'
_symmetry_space_group_name_H-M	'P1'
_symmetry_Int_Tables_number	1
_symmetry_cell_setting	triclinic
loop_
_symmetry_equiv_pos_as_xyz
  x,y,z
_cell_length_a	15.995350
_cell_length_b	15.995350
_cell_length_c	15.072220
_cell_angle_alpha	90.001101
_cell_angle_beta	89.991149
_cell_angle_gamma	83.492375
loop_
_atom_site_label
_atom_site_type_symbol
_atom_site_fract_x
_atom_site_fract_y
_atom_site_fract_z
O1	O	1.110996	0.107921	-0.073703
O2	O	0.867221	0.121249	-0.073721
O3	O	0.995772	-0.007303	-0.073710
O4	O	0.982444	0.236472	-0.073713
O5	O	0.995740	-0.007296	0.073855
O6	O	0.867189	0.121256	0.073844
O7	O	1.110964	0.107928	0.073862
Zn8	Zn	0.989071	0.114593	0.097283
Zn9	Zn	0.989113	0.114584	-0.097141
O10	O	0.982413	0.236480	0.073852
C11	C	0.836010	0.120701	0.000060
C12	C	0.743060	0.119049	0.000053
C13	C	0.405312	0.113117	0.000071
C14	C	0.452746	0.021565	0.000401
C15	C	0.549436	0.023217	0.000063
C16	C	0.572873	0.116060	0.000063
C17	C	0.531804	0.161212	-0.084201
C18	C	0.435168	0.158912	-0.084266
C19	C	0.434793	0.160812	0.083543
C20	C	0.531738	0.160790	0.084651
C21	C	0.667570	0.117727	0.000055
C22	C	0.310614	0.111452	0.000073
C23	C	0.995205	-0.038494	0.000070
C24	C	0.993553	-0.131444	0.000065
C25	C	0.987621	-0.469192	0.000068
C26	C	0.896069	-0.421758	-0.000270
C27	C	0.897721	-0.325068	0.000063
C28	C	0.990564	-0.301631	0.000066
C29	C	1.035702	-0.342705	0.084335
C30	C	1.033402	-0.439341	0.084405
C31	C	1.035330	-0.439707	-0.083404
C32	C	1.035308	-0.342761	-0.084518
C33	C	0.992231	-0.206934	0.000068
C34	C	0.985956	-0.563890	0.000072
C35	C	1.142175	0.108476	0.000080
C36	C	1.235125	0.110127	0.000081
C37	C	0.982980	0.267671	0.000069
C38	C	0.984631	0.360621	0.000069
N39	N	0.989049	0.114599	0.229971
N40	N	0.989142	0.114571	-0.229830
C41	C	0.989112	0.114580	0.589173
C42	C	0.920095	0.183135	0.551560
C43	C	0.920254	0.183385	0.448735
C44	C	0.989080	0.114590	0.410969
C45	C	1.076445	0.133671	0.448266
C46	C	1.076058	0.134159	0.551124
C47	C	0.971542	0.026741	0.551272
C48	C	0.969537	0.027327	0.448409
C49	C	0.989067	0.114593	0.310255
C50	C	0.989130	0.114579	0.689886
H51	H	0.862238	-0.296649	-0.060344
N52	N	0.847606	-0.446307	-0.080312
H53	H	0.884522	-0.488416	-0.117133
H54	H	0.796127	-0.472243	-0.060131
N55	N	0.847789	-0.447700	0.079323
H56	H	0.884964	-0.490045	0.115597
H57	H	0.829524	-0.396588	0.116882
N58	N	0.834232	0.168351	0.415316
H59	H	0.839085	0.115607	0.377950
H60	H	0.795909	0.161537	0.467447
H61	H	0.545929	0.229421	-0.087335
H62	H	1.092297	0.197002	0.422498
N63	N	0.552083	0.250474	0.091394
H64	H	0.498184	0.290031	0.090649
H65	H	0.583302	0.257965	0.148568
N66	N	0.569400	0.119670	-0.167274
H67	H	0.613025	0.071612	-0.150517
H68	H	0.523533	0.097445	-0.203380
N69	N	0.850380	-0.288142	0.080211
H70	H	0.790208	-0.301493	0.077617
H71	H	0.878024	-0.313105	0.135917
H72	H	1.004325	-0.314320	0.147042
N73	N	0.392728	0.250225	0.084304
H74	H	0.354756	0.259827	0.030872
H75	H	0.358279	0.260228	0.140246
H76	H	0.559041	0.127829	0.146989
N77	N	0.989769	-0.463588	0.167839
H78	H	0.972205	-0.411525	0.204225
H79	H	0.938381	-0.491541	0.151437
H80	H	1.021872	-0.024275	0.575595
N81	N	0.407580	0.121174	0.168150
H82	H	0.375859	0.071893	0.153224
H83	H	0.458832	0.101007	0.204712
N84	N	1.122431	-0.482065	0.089479
H85	H	1.162995	-0.438098	0.091664
H86	H	1.129120	-0.517947	0.144711
H87	H	0.931473	0.248570	0.424121
H88	H	0.433165	-0.014865	-0.059694
N89	N	1.126062	-0.324028	0.088479
H90	H	1.138635	-0.288672	0.035648
H91	H	1.135370	-0.292376	0.144949
H92	H	1.005411	-0.460250	-0.147274
N93	N	0.991650	-0.306618	-0.167101
H94	H	0.943091	-0.263777	-0.149805
H95	H	1.032882	-0.278621	-0.204495
H96	H	1.103014	-0.327400	-0.089603
N97	N	1.124743	-0.481772	-0.084158
H98	H	1.134336	-0.519747	-0.030722
H99	H	1.134755	-0.516218	-0.140096
N100	N	0.833793	0.168334	0.584352
H101	H	0.838592	0.117048	0.623910
H102	H	0.808542	0.219054	0.619021
N103	N	0.428180	-0.026903	0.080444
H104	H	0.402204	-0.078381	0.060336
H105	H	0.479838	-0.044756	0.117328
N106	N	0.934772	0.269003	0.585740
H107	H	0.985929	0.263687	0.625487
H108	H	0.944212	0.306955	0.534009
N109	N	1.096566	0.219011	0.582901
H110	H	1.105770	0.255747	0.530092
H111	H	1.048313	0.246532	0.619702
N112	N	0.586365	-0.024123	-0.080083
H113	H	0.539823	-0.046142	-0.115333
H114	H	0.616221	0.014946	-0.118418
H115	H	0.909219	0.008392	0.577258
N116	N	1.146100	0.070509	0.584089
H117	H	1.177096	0.042265	0.531801
H118	H	1.186446	0.099913	0.621235
H119	H	0.577852	-0.012275	0.060467
H120	H	1.129029	0.085068	0.423801
H121	H	0.905271	0.012846	0.424032
H122	H	0.416873	0.125979	-0.147255
N123	N	1.031801	-0.043420	0.414376
H124	H	1.073747	-0.019801	0.374027
H125	H	1.062380	-0.073060	0.466128
H126	H	0.402920	0.226128	-0.088090
