data_functionalizedCrystal
_audit_creation_method	'MofGen! by Chris Wilmer'
_symmetry_space_group_name_H-M	'P1'
_symmetry_Int_Tables_number	1
_symmetry_cell_setting	triclinic
loop_
_symmetry_equiv_pos_as_xyz
  x,y,z
_cell_length_a	17.038278
_cell_length_b	17.038272
_cell_length_c	15.186229
_cell_angle_alpha	89.995962
_cell_angle_beta	89.996532
_cell_angle_gamma	91.111028
loop_
_atom_site_label
_atom_site_type_symbol
_atom_site_fract_x
_atom_site_fract_y
_atom_site_fract_z
O1	O	1.048753	0.170526	-0.073237
O2	O	1.548753	0.670526	0.426763
O3	O	0.820941	0.167820	-0.073237
O4	O	1.320941	0.667820	0.426763
O5	O	0.933493	0.055267	-0.073230
O6	O	1.433493	0.555267	0.426770
O7	O	0.936201	0.283079	-0.073244
O8	O	1.436201	0.783079	0.426756
O9	O	0.933485	0.055265	0.073227
O10	O	1.433485	0.555265	0.573227
O11	O	0.820933	0.167818	0.073220
O12	O	1.320933	0.667818	0.573220
O13	O	1.048745	0.170524	0.073220
O14	O	1.548745	0.670524	0.573220
Zn15	Zn	0.934838	0.169171	0.096473
Zn16	Zn	1.434838	0.669171	0.596473
Zn17	Zn	0.934848	0.169173	-0.096491
Zn18	Zn	1.434848	0.669173	0.403509
O19	O	0.936193	0.283077	0.073213
O20	O	1.436193	0.783077	0.573213
C21	C	0.791645	0.165356	-0.000009
C22	C	1.291645	0.665356	0.499991
C23	C	0.704361	0.158009	-0.000009
C24	C	1.204361	0.658009	0.499991
C25	C	0.210935	0.112872	-0.000009
C26	C	0.710935	0.612872	0.499991
C27	C	0.292947	0.119781	-0.000004
C28	C	0.792947	0.619781	0.499996
C29	C	0.329347	0.194155	-0.000013
C30	C	0.829347	0.694155	0.499987
C31	C	0.283730	0.261623	-0.000017
C32	C	0.783730	0.761623	0.499983
C33	C	0.201720	0.254713	-0.000016
C34	C	0.701720	0.754713	0.499984
C35	C	0.576734	0.218567	-0.000012
C36	C	1.076734	0.718567	0.499988
C37	C	0.658751	0.225473	-0.000016
C38	C	1.158751	0.725473	0.499984
C39	C	0.667962	0.083630	-0.000001
C40	C	1.167962	0.583630	0.499999
C41	C	0.585949	0.076726	-0.000005
C42	C	1.085949	0.576726	0.499995
C43	C	0.540340	0.144194	-0.000005
C44	C	1.040340	0.644194	0.499995
C45	C	0.413176	0.201219	-0.000011
C46	C	0.913176	0.701219	0.499989
C47	C	0.456513	0.137129	-0.000001
C48	C	0.956513	0.637129	0.499999
C49	C	0.931026	0.025974	-0.000002
C50	C	1.431026	0.525974	0.499998
C51	C	0.923678	-0.061310	-0.000002
C52	C	1.423678	0.438690	0.499998
C53	C	0.991142	-0.106920	-0.000001
C54	C	1.491142	0.393080	0.499999
C55	C	0.984233	-0.188932	-0.000009
C56	C	1.484233	0.311068	0.499991
C57	C	0.909859	-0.225332	-0.000012
C58	C	1.409859	0.274668	0.499988
C59	C	0.842391	-0.179716	-0.000016
C60	C	1.342391	0.320284	0.499984
C61	C	0.849300	-0.097706	-0.000014
C62	C	1.349300	0.402294	0.499986
C63	C	0.885449	-0.472720	-0.000025
C64	C	1.385449	0.027280	0.499975
C65	C	0.878544	-0.554736	-0.000024
C66	C	1.378544	-0.054736	0.499976
C67	C	1.020387	-0.563946	-0.000019
C68	C	1.520387	-0.063946	0.499981
C69	C	1.027290	-0.481934	-0.000012
C70	C	1.527290	0.018066	0.499988
C71	C	0.959821	-0.436325	-0.000020
C72	C	1.459821	0.063675	0.499980
C73	C	0.902796	-0.309161	-0.000018
C74	C	1.402796	0.190839	0.499982
C75	C	0.966886	-0.352497	-0.000020
C76	C	1.466886	0.147503	0.499980
C77	C	1.078041	0.172988	-0.000011
C78	C	1.578041	0.672988	0.499989
C79	C	1.165325	0.180335	-0.000016
C80	C	1.665325	0.680335	0.499984
C81	C	0.938660	0.312370	-0.000017
C82	C	1.438660	0.812370	0.499983
C83	C	0.946008	0.399654	-0.000023
C84	C	1.446008	0.899654	0.499977
N85	N	0.934836	0.169168	0.228166
N86	N	1.434836	0.669168	0.728166
N87	N	0.934856	0.169170	-0.228183
N88	N	1.434856	0.669170	0.271817
C89	C	0.984693	0.119349	0.453892
C90	C	1.484693	0.619349	0.953892
C91	C	0.984696	0.119348	0.546082
C92	C	1.484696	0.619348	1.046082
C93	C	0.884993	0.218991	0.546084
C94	C	1.384993	0.718991	1.046084
C95	C	0.884987	0.218988	0.453896
C96	C	1.384987	0.718988	0.953896
C97	C	0.934842	0.169169	0.407803
C98	C	1.434842	0.669169	0.907803
C99	C	0.934850	0.169170	0.592180
C100	C	1.434850	0.669170	1.092180
C101	C	0.934852	0.169168	0.692136
C102	C	1.434852	0.669168	1.192136
C103	C	0.934839	0.169169	0.307840
C104	C	1.434839	0.669169	0.807840
H105	H	0.539609	0.273505	-0.000016
H106	H	1.039609	0.773505	0.499984
N107	N	0.152525	0.327478	-0.000034
N108	N	0.652525	0.827478	0.499966
H109	H	0.095049	0.311815	-0.000030
H110	H	0.595049	0.811815	0.499970
H111	H	0.164845	0.359657	0.054255
H112	H	0.664845	0.859657	0.554255
N113	N	0.452439	0.281434	-0.000035
N114	N	0.952439	0.781434	0.499965
H115	H	0.411104	0.323128	-0.000044
H116	H	0.911104	0.823128	0.499956
H117	H	0.486262	0.287392	0.054258
H118	H	0.986262	0.787392	0.554258
N119	N	0.776537	-0.048508	-0.000020
N120	N	1.276537	0.451492	0.499980
H121	H	0.728373	-0.084010	-0.000022
H122	H	1.228373	0.415990	0.499978
H123	H	0.776309	-0.014283	0.054272
H124	H	1.276309	0.485717	0.554272
H125	H	0.844388	0.259557	0.416368
H126	H	1.344388	0.759557	0.916368
H127	H	0.830511	-0.435595	-0.000031
H128	H	1.330511	0.064405	0.499969
N129	N	1.071360	-0.067665	0.000011
N130	N	1.571360	0.432335	0.500011
H131	H	1.101168	-0.083944	-0.054281
H132	H	1.601168	0.416056	0.445719
H133	H	1.065436	-0.008801	0.000049
H134	H	1.565436	0.491199	0.500049
N135	N	0.171678	0.032654	-0.000007
N136	N	0.671678	0.532654	0.499993
H137	H	0.213020	-0.009035	0.000000
H138	H	0.713020	0.490965	0.500000
H139	H	0.137849	0.026699	0.054287
H140	H	0.637849	0.526699	0.554287
H141	H	1.039169	-0.226064	-0.000007
H142	H	1.539169	0.273936	0.499993
H143	H	0.688384	0.286039	-0.000010
H144	H	1.188384	0.786039	0.499990
H145	H	1.027440	-0.322857	-0.000037
H146	H	1.527440	0.177143	0.499963
H147	H	0.330080	0.064845	0.000005
H148	H	0.830080	0.564845	0.500005
H149	H	0.842240	-0.338808	-0.000019
H150	H	1.342240	0.161192	0.499981
H151	H	0.556319	0.016163	0.000002
H152	H	1.056319	0.516163	0.500002
H153	H	0.817978	-0.584370	-0.000012
H154	H	1.317978	-0.084370	0.499988
N155	N	0.762172	-0.218972	-0.000025
N156	N	1.262172	0.281028	0.499975
H157	H	0.768031	-0.277846	-0.000023
H158	H	1.268031	0.222154	0.499977
H159	H	0.732407	-0.202627	0.054268
H160	H	1.232407	0.297373	0.554268
N161	N	1.038471	0.065622	0.595793
N162	N	1.538471	0.565622	1.095793
H163	H	1.075233	0.097972	0.634034
H164	H	1.575233	0.597972	1.134034
H165	H	1.006100	0.028845	0.634000
H166	H	1.506100	0.528845	1.134000
H167	H	1.025287	0.078782	0.416364
H168	H	1.525287	0.578782	0.916364
N169	N	0.417249	0.056918	0.000006
N170	N	0.917249	0.556918	0.500006
H171	H	0.433533	0.027114	-0.054284
H172	H	0.933533	0.527114	0.445716
H173	H	0.433541	0.027175	0.054335
H174	H	0.933541	0.527175	0.554335
N175	N	0.717153	0.010864	0.000003
N176	N	1.217153	0.510864	0.500003
H177	H	0.774630	0.026524	0.000003
H178	H	1.274630	0.526524	0.500003
H179	H	0.704825	-0.021308	0.054302
H180	H	1.204825	0.478692	0.554302
N181	N	0.322982	0.341844	-0.000026
N182	N	0.822982	0.841844	0.499974
H183	H	0.356802	0.347876	0.054262
H184	H	0.856802	0.847876	0.554262
H185	H	0.356760	0.347821	-0.054357
H186	H	0.856760	0.847821	0.445643
N187	N	1.107507	-0.442675	-0.000003
N188	N	1.607507	0.057325	0.499997
H189	H	1.149198	-0.484014	-0.000003
H190	H	1.649198	0.015986	0.499997
H191	H	1.113468	-0.408842	-0.054294
H192	H	1.613468	0.091158	0.445706
N193	N	1.093149	-0.613143	-0.000011
N194	N	1.593149	-0.113143	0.499989
H195	H	1.093448	-0.647370	-0.054304
H196	H	1.593448	-0.147370	0.445696
H197	H	1.141273	-0.577590	0.000024
H198	H	1.641273	-0.077590	0.500024
N199	N	0.831228	0.272723	0.595807
N200	N	1.331228	0.772723	1.095807
H201	H	0.863553	0.309508	0.634045
H202	H	1.363553	0.809508	1.134045
H203	H	0.799653	0.304230	0.552566
H204	H	1.299653	0.804230	1.052566
