data_functionalizedCrystal
_audit_creation_method	'MofGen! by Chris Wilmer'
_symmetry_space_group_name_H-M	'P1'
_symmetry_Int_Tables_number	1
_symmetry_cell_setting	triclinic
loop_
_symmetry_equiv_pos_as_xyz
  x,y,z
_cell_length_a	12.503584
_cell_length_b	17.000371
_cell_length_c	14.044220
_cell_angle_alpha	84.394063
_cell_angle_beta	93.843789
_cell_angle_gamma	86.761724
loop_
_atom_site_label
_atom_site_type_symbol
_atom_site_fract_x
_atom_site_fract_y
_atom_site_fract_z
O1	O	-0.089326	1.062690	0.028122
O2	O	-0.089328	0.833385	0.062321
O3	O	-0.089316	0.944595	-0.092475
O4	O	-0.089337	0.951480	0.182919
O5	O	0.089325	0.936232	-0.080814
O6	O	0.089313	0.825022	0.073983
O7	O	0.089315	1.054327	0.039783
Cu8	Cu	0.105626	0.938911	0.057948
Cu9	Cu	-0.105638	0.948801	0.044157
O10	O	0.089304	0.943117	0.194580
C11	C	-0.000007	0.799680	0.069989
C12	C	-0.000008	0.711710	0.075451
N13	N	0.254217	0.931961	0.067647
C14	C	0.000000	0.673716	-0.008606
C15	C	-0.000008	0.591058	-0.003469
C16	C	-0.000016	0.546395	0.085728
C17	C	-0.000028	0.584395	0.169791
C18	C	-0.000028	0.667052	0.164652
C19	C	-0.000025	0.296659	0.105577
C20	C	-0.000023	0.213997	0.110710
C21	C	-0.000004	0.220666	-0.062551
C22	C	0.000003	0.303323	-0.067681
C23	C	-0.000014	0.341316	0.016382
C24	C	-0.000021	0.461905	0.090981
C25	C	-0.000017	0.425805	0.011127
C26	C	0.473331	0.921737	0.081922
C27	C	0.526663	0.965976	0.020188
C28	C	0.648586	0.960288	0.028131
C29	C	0.351398	0.927425	0.073980
N30	N	0.745770	0.955755	0.034460
C31	C	0.000005	0.937400	-0.121708
C32	C	0.000006	0.928412	-0.226185
C33	C	-0.000008	1.088032	0.032115
C34	C	-0.000014	1.176003	0.026653
C35	C	-0.000010	0.911981	-0.417477
C36	C	-0.000012	0.975728	-0.480424
C37	C	-0.000021	0.966585	-0.586866
C38	C	-0.000001	0.921122	-0.311025
C39	C	-0.000020	0.950312	0.223812
C40	C	-0.000028	0.959300	0.328289
H41	H	-0.000002	0.560127	-0.071917
N42	N	0.534130	0.865911	0.159829
H43	H	0.613870	0.869712	0.154530
H44	H	0.514537	0.880795	0.224624
H45	H	-0.000084	1.037173	-0.454379
N46	N	0.465864	1.021806	-0.057724
H47	H	0.386122	1.018012	-0.052428
H48	H	0.485446	1.077828	-0.050334
H49	H	-0.000046	0.327583	0.174027
H50	H	-0.000013	0.850545	-0.443526
H51	H	0.000012	0.710074	-0.081239
N52	N	-0.000040	0.536232	0.266001
H53	H	-0.066261	0.504887	0.267673
H54	H	0.066228	0.498737	0.276264
N55	N	0.000027	0.351493	-0.163885
H56	H	0.000034	0.314881	-0.216357
H57	H	-0.066193	0.389038	-0.174121
H58	H	-0.000025	0.177634	0.183349
N59	N	0.000019	0.179688	-0.153214
H60	H	0.000018	0.120549	-0.136428
H61	H	-0.066201	0.198691	-0.196267
H62	H	-0.000016	0.462173	-0.061497
N63	N	-0.000046	0.708035	0.255313
H64	H	-0.000051	0.667201	0.312599
H65	H	0.066176	0.739088	0.261282
H66	H	-0.000027	0.425532	0.163605
