data_functionalizedCrystal
_audit_creation_method	'MofGen! by Chris Wilmer'
_symmetry_space_group_name_H-M	'P1'
_symmetry_Int_Tables_number	1
_symmetry_cell_setting	triclinic
loop_
_symmetry_equiv_pos_as_xyz
  x,y,z
_cell_length_a	10.654550
_cell_length_b	22.610064
_cell_length_c	10.654550
_cell_angle_alpha	89.995810
_cell_angle_beta	95.515069
_cell_angle_gamma	90.012047
loop_
_atom_site_label
_atom_site_type_symbol
_atom_site_fract_x
_atom_site_fract_y
_atom_site_fract_z
O1	O	1.667861	0.049140	-0.176396
O2	O	1.302383	0.049151	-0.193202
O3	O	1.493525	0.049142	-0.002060
O4	O	1.476719	0.049150	-0.367539
O5	O	1.493468	-0.049227	-0.002059
O6	O	1.302326	-0.049218	-0.193202
O7	O	1.667805	-0.049229	-0.176396
Zn8	Zn	1.485056	-0.064842	-0.184798
Zn9	Zn	1.485131	0.064764	-0.184800
O10	O	1.476662	-0.049220	-0.367538
C11	C	1.255556	-0.000032	-0.191968
C12	C	1.116113	-0.000028	-0.188276
N13	N	1.485015	-0.153294	-0.184797
C14	C	1.036628	-0.000027	-0.300818
C15	C	0.905607	-0.000038	-0.297341
C16	C	0.933570	-0.000047	-0.068772
C17	C	1.064588	-0.000041	-0.072250
C18	C	1.561963	-0.561936	-0.261666
C19	C	1.561979	-0.623856	-0.261663
O20	O	1.627353	-0.655876	-0.327011
N21	N	1.485155	-0.654831	-0.184785
C22	C	1.408319	-0.623883	-0.107896
O23	O	1.342977	-0.655916	-0.042504
C24	C	1.408311	-0.561965	-0.107893
C25	C	1.485131	-0.530993	-0.184786
C26	C	1.638778	-0.530964	-0.338551
C27	C	1.638760	-0.469049	-0.338556
C28	C	1.561928	-0.438105	-0.261675
C29	C	1.485113	-0.469077	-0.184790
C30	C	1.331483	-0.531018	-0.030998
C31	C	1.331482	-0.469095	-0.031001
C32	C	1.408302	-0.438123	-0.107893
C33	C	1.408263	-0.376218	-0.107913
N34	N	1.485087	-0.345243	-0.184791
C35	C	1.561920	-0.376186	-0.261672
C36	C	1.408344	-0.753917	-0.107906
C37	C	1.408345	-0.815835	-0.107915
C38	C	1.562006	-0.815803	-0.261681
C39	C	1.561998	-0.753884	-0.261678
C40	C	1.485168	-0.722942	-0.184784
C41	C	1.561876	-0.246159	-0.261676
C42	C	1.561847	-0.184238	-0.261678
C43	C	1.408191	-0.184275	-0.107907
C44	C	1.408214	-0.246190	-0.107910
C45	C	1.485066	-0.277131	-0.184799
O46	O	1.342926	-0.344159	-0.042595
O47	O	1.627263	-0.344146	-0.327041
C48	C	1.714631	-0.000044	-0.177630
C49	C	1.854074	-0.000045	-0.181322
C50	C	1.492263	-0.000043	0.044738
C51	C	1.488571	-0.000042	0.184181
N52	N	1.485182	0.153216	-0.184791
C53	C	1.477925	-0.000034	-0.414336
C54	C	1.481616	-0.000031	-0.553779
C55	C	1.601112	-0.000045	0.263667
C56	C	1.597636	-0.000037	0.394688
C57	C	1.369066	-0.000026	0.366725
C58	C	1.372544	-0.000029	0.235706
H59	H	1.078574	-0.000021	-0.395294
H60	H	1.624551	-0.728671	-0.324291
H61	H	1.129309	-0.000043	0.019401
H62	H	0.840894	-0.000038	-0.388984
N63	N	1.257579	-0.000014	0.154504
N64	N	1.180702	0.041457	0.159764
H65	H	1.099512	0.041471	0.102414
N66	N	0.880935	-0.000067	0.049740
N67	N	0.810935	-0.041537	0.077178
H68	H	0.773763	-0.041550	0.160880
N69	N	1.640324	-0.152611	-0.340237
N70	N	1.708920	-0.180251	-0.408870
H71	H	1.764346	-0.157917	-0.464350
N72	N	1.640389	-0.277749	-0.340218
N73	N	1.708962	-0.250078	-0.408854
H74	H	1.764408	-0.272388	-0.464329
H75	H	1.689279	-0.000039	0.459401
H76	H	1.701320	-0.443837	-0.401164
H77	H	1.701351	-0.556152	-0.401157
N78	N	1.329741	-0.277842	-0.029393
N79	N	1.247152	-0.312411	-0.077656
H80	H	1.191737	-0.334764	-0.022195
H81	H	1.268930	-0.556224	0.031618
N82	N	1.329715	-0.152677	-0.029347
N83	N	1.212808	-0.159605	-0.043248
H84	H	1.157395	-0.137291	0.012254
H85	H	1.624566	-0.841009	-0.324283
N86	N	1.250567	-0.000026	0.419385
N87	N	1.223112	-0.041491	0.489383
H88	H	1.139421	-0.041494	0.526576
N89	N	1.329843	-0.847467	-0.029402
N90	N	1.212937	-0.840565	-0.043359
H91	H	1.157494	-0.862904	0.012096
N92	N	1.329852	-0.722322	-0.029347
N93	N	1.261274	-0.749991	0.039288
H94	H	1.205842	-0.727680	0.094775
N95	N	1.719636	-0.000059	0.211055
N96	N	1.820110	-0.000062	0.282045
H97	H	1.903822	-0.000072	0.244893
H98	H	1.268917	-0.443904	0.031618
