data_functionalizedCrystal
_audit_creation_method	'MofGen! by Chris Wilmer'
_symmetry_space_group_name_H-M	'P1'
_symmetry_Int_Tables_number	1
_symmetry_cell_setting	triclinic
loop_
_symmetry_equiv_pos_as_xyz
  x,y,z
_cell_length_a	17.077404
_cell_length_b	17.077402
_cell_length_c	12.759393
_cell_angle_alpha	90.032432
_cell_angle_beta	90.024591
_cell_angle_gamma	90.021740
loop_
_atom_site_label
_atom_site_type_symbol
_atom_site_fract_x
_atom_site_fract_y
_atom_site_fract_z
Zn1	Zn	1.200076	-0.312507	0.594108
Zn2	Zn	1.700076	0.187493	1.094108
Zn3	Zn	1.199974	-0.443793	0.418423
Zn4	Zn	1.699974	0.056207	0.918423
Zn5	Zn	1.068800	-0.312541	0.418432
Zn6	Zn	1.568800	0.187459	0.918432
Zn7	Zn	1.068774	-0.443731	0.594049
Zn8	Zn	1.568774	0.056269	1.094049
O9	O	1.134406	-0.378143	0.506253
O10	O	1.634406	0.121857	1.006253
O11	O	1.309909	-0.329934	0.570824
O12	O	1.809909	0.170066	1.070824
O13	O	1.182542	-0.426423	0.271403
O14	O	1.682542	0.073577	0.771403
O15	O	1.086268	-0.202690	0.441765
O16	O	1.586268	0.297310	0.941765
O17	O	1.309835	-0.426389	0.441749
O18	O	1.809835	0.073611	0.941749
O19	O	1.182715	-0.202664	0.570834
O20	O	1.682715	0.297336	1.070834
O21	O	1.086169	-0.329992	0.271410
O22	O	1.586169	0.170008	0.771410
O23	O	0.958950	-0.329932	0.441707
O24	O	1.458950	0.170068	0.941707
O25	O	1.086223	-0.426283	0.741078
O26	O	1.586223	0.073717	1.241078
O27	O	0.958931	-0.426316	0.570732
O28	O	1.458931	0.073684	1.070732
O29	O	1.182690	-0.329874	0.741122
O30	O	1.682690	0.170126	1.241122
O31	O	1.182517	-0.553632	0.441691
O32	O	1.682517	-0.053632	0.941691
O33	O	1.086125	-0.553586	0.570722
O34	O	1.586125	-0.053586	1.070722
C35	C	0.930458	-0.378122	0.506215
C36	C	1.430458	0.121878	1.006215
C37	C	0.843208	-0.378131	0.506223
C38	C	1.343208	0.121869	1.006223
C39	C	1.134328	-0.582091	0.506222
C40	C	1.634328	-0.082091	1.006222
C41	C	1.134367	-0.669341	0.506244
C42	C	1.634367	-0.169341	1.006244
C43	C	0.467430	-0.328030	0.573608
C44	C	0.967430	0.171970	1.073608
C45	C	0.549410	-0.328025	0.573597
C46	C	1.049410	0.171975	1.073597
C47	C	0.590360	-0.378159	0.506279
C48	C	1.090360	0.121841	1.006279
C49	C	0.549324	-0.428309	0.438977
C50	C	1.049324	0.071691	0.938977
C51	C	0.467345	-0.428318	0.438994
C52	C	0.967345	0.071682	0.938994
C53	C	0.720194	-0.428285	0.438943
C54	C	1.220194	0.071715	0.938943
C55	C	0.802179	-0.428275	0.438924
C56	C	1.302179	0.071725	0.938924
C57	C	0.802259	-0.327992	0.573545
C58	C	1.302259	0.172008	1.073545
C59	C	0.720280	-0.328001	0.573563
C60	C	1.220280	0.171999	1.073563
C61	C	0.679251	-0.378149	0.506259
C62	C	1.179251	0.121851	1.006259
C63	C	1.184559	-0.710250	0.573504
C64	C	1.684559	-0.210250	1.073504
C65	C	1.184592	-0.792230	0.573526
C66	C	1.684592	-0.292230	1.073526
C67	C	1.134436	-0.833300	0.506282
C68	C	1.634436	-0.333300	1.006282
C69	C	1.084238	-0.792385	0.439019
C70	C	1.584238	-0.292385	0.939019
C71	C	1.084201	-0.710406	0.439003
C72	C	1.584201	-0.210406	0.939003
C73	C	1.084318	-0.963255	0.439056
C74	C	1.584318	-0.463255	0.939056
C75	C	1.084355	-1.045239	0.439070
C76	C	1.584355	-0.545239	0.939070
C77	C	1.184709	-1.045079	0.573579
C78	C	1.684709	-0.545079	1.073579
C79	C	1.184673	-0.963100	0.573563
C80	C	1.684673	-0.463100	1.073563
C81	C	1.134476	-0.922191	0.506298
C82	C	1.634476	-0.422191	1.006298
C83	C	1.339150	-0.378165	0.506292
C84	C	1.839150	0.121835	1.006292
C85	C	1.426400	-0.378174	0.506309
C86	C	1.926400	0.121826	1.006309
C87	C	1.134465	-0.378067	0.780286
C88	C	1.634465	0.121933	1.280286
C89	C	1.134490	-0.378035	0.897063
C90	C	1.634490	0.121965	1.397063
C91	C	1.134506	-0.173399	0.506307
C92	C	1.634506	0.326601	1.006307
C93	C	1.134548	-0.086149	0.506330
C94	C	1.634548	0.413851	1.006330
C95	C	1.134393	-0.378161	0.233286
C96	C	1.634393	0.121839	0.733286
C97	C	1.134520	-0.377972	0.116509
C98	C	1.634520	0.122028	0.616509
C99	C	1.184724	-0.327827	0.951950
C100	C	1.684724	0.172173	1.451950
C101	C	1.184737	-0.327793	1.061674
C102	C	1.684737	0.172207	1.561674
C103	C	1.084280	-0.428183	1.061615
C104	C	1.584280	0.071817	1.561615
C105	C	1.084264	-0.428212	0.951893
C106	C	1.584264	0.071788	1.451893
H107	H	0.434095	-0.287200	0.628420
H108	H	0.934095	0.212800	1.128420
C109	C	1.029102	-0.918256	0.365055
C110	C	1.529102	-0.418256	0.865055
N111	N	0.987519	-0.884363	0.309313
N112	N	1.487519	-0.384363	0.809313
C113	C	1.239857	-0.917926	0.647521
C114	C	1.739857	-0.417926	1.147521
N115	N	1.281424	-0.883900	0.703227
N116	N	1.781424	-0.383900	1.203227
H117	H	0.686790	-0.469124	0.384141
H118	H	1.186790	0.030876	0.884141
C119	C	1.240000	-0.272562	1.122044
C120	C	1.740000	0.227438	1.622044
N121	N	1.281627	-0.230959	1.167514
N122	N	1.781627	0.269041	1.667514
C123	C	1.029033	-0.483373	1.121938
C124	C	1.529033	0.016627	1.621938
N125	N	0.987419	-0.524943	1.167373
N126	N	1.487419	-0.024943	1.667373
C127	C	0.847221	-0.483433	0.364881
C128	C	1.347221	0.016567	0.864881
N129	N	0.881147	-0.524982	0.309115
N130	N	1.381147	-0.024982	0.809115
H131	H	1.225581	-1.078392	0.628349
H132	H	1.725581	-0.578392	1.128349
C133	C	1.028986	-0.665406	0.365011
C134	C	1.528986	-0.165406	0.865011
N135	N	0.987394	-0.631513	0.309280
N136	N	1.487394	-0.131513	0.809280
H137	H	1.043510	-1.078676	0.384319
H138	H	1.543510	-0.578676	0.884319
H139	H	1.043396	-0.825830	0.384272
H140	H	1.543396	-0.325830	0.884272
C141	C	0.422213	-0.483477	0.364957
C142	C	0.922213	0.016523	0.864957
N143	N	0.388220	-0.525027	0.309191
N144	N	0.888220	-0.025027	0.809191
H145	H	0.582813	-0.287195	0.628402
H146	H	1.082813	0.212805	1.128402
C147	C	0.675238	-0.272849	0.647614
C148	C	1.175238	0.227151	1.147614
N149	N	0.641312	-0.231310	0.703393
N150	N	1.141312	0.268690	1.203393
C151	C	1.028997	-0.483446	0.891514
C152	C	1.528997	0.016554	1.391514
N153	N	0.987370	-0.525044	0.846037
N154	N	1.487370	-0.025044	1.346037
H155	H	1.225619	-0.286968	0.907310
H156	H	1.725619	0.213032	1.407310
C157	C	0.847394	-0.272833	0.647588
C158	C	1.347394	0.227167	1.147588
N159	N	0.881393	-0.231289	0.703353
N160	N	1.381393	0.268711	1.203353
C161	C	0.594371	-0.483454	0.364922
C162	C	1.094371	0.016546	0.864922
N163	N	0.628300	-0.524987	0.309138
N164	N	1.128300	-0.024987	0.809138
H165	H	1.225406	-0.676817	0.628256
H166	H	1.725406	-0.176817	1.128256
H167	H	1.225470	-0.825535	0.628288
H168	H	1.725470	-0.325535	1.128288
