data_functionalizedCrystal
_audit_creation_method	'MofGen! by Chris Wilmer'
_symmetry_space_group_name_H-M	'P1'
_symmetry_Int_Tables_number	1
_symmetry_cell_setting	triclinic
loop_
_symmetry_equiv_pos_as_xyz
  x,y,z
_cell_length_a	10.540539
_cell_length_b	15.995292
_cell_length_c	9.016244
_cell_angle_alpha	90.000954
_cell_angle_beta	89.994699
_cell_angle_gamma	83.997054
loop_
_atom_site_label
_atom_site_type_symbol
_atom_site_fract_x
_atom_site_fract_y
_atom_site_fract_z
O1	O	1.684234	0.117997	-0.123259
O2	O	1.314665	0.129115	-0.123276
O3	O	1.509590	0.001726	-0.123269
O4	O	1.489308	0.245387	-0.123266
O5	O	1.509562	0.001729	0.123412
O6	O	1.314636	0.129118	0.123405
O7	O	1.684206	0.118000	0.123422
Cu8	Cu	1.499418	0.123559	0.145937
Cu9	Cu	1.499452	0.123556	-0.145791
O10	O	1.489280	0.245389	0.123415
C11	C	1.267359	0.128283	0.000062
C12	C	1.126446	0.125788	0.000055
C13	C	0.944363	0.030203	0.000629
C14	C	1.090946	0.032731	0.000058
C15	C	1.064160	0.170570	-0.140806
C16	C	0.917660	0.167394	-0.140908
C17	C	0.917113	0.169290	0.139614
C18	C	1.064083	0.170147	0.141460
C19	C	1.508751	-0.029473	0.000067
C20	C	1.506276	-0.122441	0.000056
C21	C	1.497178	-0.460234	0.000069
C22	C	1.637870	-0.436080	0.000627
C23	C	1.640544	-0.339389	0.000066
C24	C	1.501692	-0.292651	0.000064
C25	C	1.431369	-0.322174	-0.140802
C26	C	1.429676	-0.418975	-0.140915
C27	C	1.426770	-0.418846	0.139608
C28	C	1.431984	-0.322322	0.141464
C29	C	1.504236	-0.197940	0.000055
C30	C	1.494630	-0.554945	0.000067
C31	C	1.731511	0.118832	0.000081
C32	C	1.872424	0.121327	0.000078
C33	C	1.490120	0.276588	0.000075
C34	C	1.492594	0.369556	0.000077
N35	N	1.499404	0.123561	0.351123
N36	N	1.499476	0.123548	-0.350977
C37	C	1.394818	0.191477	0.586152
C38	C	1.395043	0.191732	0.414261
C39	C	1.631847	0.143437	0.413468
C40	C	1.631275	0.143918	0.585413
C41	C	1.472868	0.035547	0.585664
C42	C	1.469814	0.036117	0.413710
H43	H	0.889928	0.134294	-0.246204
H44	H	1.105493	0.137433	0.245669
H45	H	1.134044	-0.002504	0.101033
C46	C	1.497380	-0.294690	-0.282425
N47	N	1.547109	-0.273992	-0.389092
H48	H	0.885978	0.139176	0.246385
C49	C	1.566120	-0.035455	0.355686
N50	N	1.638675	-0.089360	0.311996
C51	C	1.575969	-0.032760	0.640598
N52	N	1.653626	-0.084202	0.681983
H53	H	1.655853	0.206914	0.370393
C54	C	1.122291	0.128537	-0.282433
N55	N	1.166073	0.096873	-0.389104
H56	H	1.330635	-0.289959	0.149970
C57	C	0.851583	0.257804	-0.149576
N58	N	0.801819	0.325900	-0.156120
H59	H	1.412025	0.257021	0.373117
C60	C	1.417449	0.279182	0.644504
N61	N	1.434499	0.345240	0.688457
H62	H	1.087354	0.237992	0.149966
C63	C	1.338190	0.015765	0.358673
N64	N	1.239049	0.000439	0.317213
C65	C	1.662932	0.230658	0.639578
N66	N	1.686767	0.295996	0.680368
C67	C	1.739670	0.079697	0.641598
N68	N	1.821326	0.031337	0.683909
H69	H	0.868941	0.236505	0.140566
H70	H	1.378396	0.016630	0.629107
C71	C	0.906415	-0.019462	0.137099
N72	N	0.877822	-0.056871	0.239890
C73	C	0.904248	-0.019262	-0.135066
N74	N	0.874027	-0.056517	-0.237273
C75	C	1.711123	-0.473469	0.137097
N76	N	1.766299	-0.501636	0.239890
C77	C	1.290321	-0.439468	-0.149583
N78	N	1.185361	-0.454899	-0.156125
H79	H	1.695620	-0.320033	0.101041
H80	H	1.085553	0.238908	-0.146046
C81	C	1.710742	-0.474844	-0.135078
N82	N	1.765626	-0.504042	-0.237293
H83	H	1.711579	0.095311	0.372567
H84	H	1.133202	-0.002755	-0.101093
H85	H	1.478402	-0.445501	-0.246213
C86	C	1.715414	-0.314075	-0.136588
N87	N	1.771807	-0.295009	-0.239525
H88	H	1.483190	-0.303449	0.245675
H89	H	1.329193	-0.290917	-0.146041
H90	H	1.471065	-0.446668	0.246383
H91	H	1.323210	-0.433456	0.140555
H92	H	1.296595	0.179773	0.372112
H93	H	1.296058	0.179702	0.627541
