data_functionalizedCrystal
_audit_creation_method	'MofGen! by Chris Wilmer'
_symmetry_space_group_name_H-M	'P1'
_symmetry_Int_Tables_number	1
_symmetry_cell_setting	triclinic
loop_
_symmetry_equiv_pos_as_xyz
  x,y,z
_cell_length_a	16.625548
_cell_length_b	29.839131
_cell_length_c	16.625539
_cell_angle_alpha	90.039748
_cell_angle_beta	90.020568
_cell_angle_gamma	90.036296
loop_
_atom_site_label
_atom_site_type_symbol
_atom_site_fract_x
_atom_site_fract_y
_atom_site_fract_z
Zn1	Zn	1.232609	-0.178840	0.455845
Zn2	Zn	1.232482	-0.253971	0.320985
Zn3	Zn	1.097771	-0.178857	0.321026
Zn4	Zn	1.097711	-0.253945	0.455775
O5	O	1.165143	-0.216403	0.388408
O6	O	1.345425	-0.188810	0.437968
O7	O	1.214584	-0.244025	0.208158
O8	O	1.115735	-0.115987	0.338956
O9	O	1.345331	-0.244008	0.338887
O10	O	1.214800	-0.115975	0.438007
O11	O	1.115612	-0.188839	0.208188
O12	O	0.984930	-0.188814	0.338888
O13	O	1.115634	-0.243964	0.568617
O14	O	0.984887	-0.243981	0.437888
O15	O	1.214743	-0.188785	0.568668
O16	O	1.214526	-0.316834	0.338820
O17	O	1.115511	-0.316815	0.437849
C18	C	0.955652	-0.216397	0.388385
C19	C	0.866031	-0.216405	0.388395
C20	C	1.165020	-0.333126	0.388340
C21	C	1.165041	-0.383060	0.388338
C22	C	0.537856	-0.216408	0.388429
C23	C	0.629164	-0.216406	0.388417
C24	C	0.701941	-0.216406	0.388411
C25	C	0.793255	-0.216404	0.388401
C26	C	1.216715	-0.692662	0.440057
C27	C	1.216803	-0.880335	0.440106
O28	O	1.260617	-0.904565	0.484029
N29	N	1.165280	-0.903845	0.388497
C30	C	1.113728	-0.880434	0.336877
O31	O	1.069901	-0.904737	0.292988
C32	C	1.113637	-0.692762	0.336833
C33	C	1.165169	-0.669254	0.388439
C34	C	1.268242	-0.669154	0.491660
C35	C	1.268223	-0.622239	0.491644
C36	C	1.216677	-0.598831	0.440026
C37	C	1.165150	-0.622339	0.388423
C38	C	1.062082	-0.669352	0.285217
C39	C	1.062063	-0.622431	0.285212
C40	C	1.113594	-0.598923	0.336818
C41	C	1.113584	-0.552016	0.336790
N42	N	1.165107	-0.528505	0.388398
C43	C	1.216653	-0.551913	0.440016
C44	C	1.113781	-0.978965	0.336902
C45	C	1.113805	-1.025882	0.336912
C46	C	1.216878	-1.025780	0.440142
C47	C	1.216858	-0.978861	0.440128
C48	C	1.165303	-0.955455	0.388511
C49	C	1.216609	-0.453387	0.439979
C50	C	1.216588	-0.406468	0.439956
C51	C	1.113511	-0.406574	0.336729
C52	C	1.113536	-0.453490	0.336749
C53	C	1.165087	-0.476895	0.388380
O54	O	1.069787	-0.527757	0.292896
O55	O	1.260461	-0.527602	0.483911
C56	C	1.216734	-0.739577	0.440073
C57	C	1.165208	-0.763085	0.388471
C58	C	1.113662	-0.739677	0.336852
C59	C	1.165231	-0.810003	0.388480
C60	C	1.216777	-0.833411	0.440099
C61	C	1.268300	-0.809901	0.491707
C62	C	1.268281	-0.762985	0.491691
C63	C	1.062139	-0.763187	0.285244
C64	C	1.062163	-0.810103	0.285263
C65	C	1.113709	-0.833511	0.336882
C66	C	1.375452	-0.216410	0.388431
C67	C	1.465073	-0.216413	0.388441
C68	C	1.165196	-0.216370	0.598717
C69	C	1.165218	-0.216355	0.688338
C70	C	1.165289	-0.099225	0.388494
C71	C	1.165351	-0.049290	0.388530
C72	C	1.165137	-0.216404	0.178917
C73	C	1.165271	-0.216292	0.089297
C74	C	1.165255	-0.216305	1.016514
C75	C	1.165243	-0.216320	0.925205
C76	C	1.165237	-0.216330	0.852429
C77	C	1.165224	-0.216345	0.761115
H78	H	1.258554	-0.387329	0.481980
H79	H	1.020201	-0.829239	0.243232
H80	H	1.310217	-0.688208	0.533699
H81	H	1.258582	-0.472439	0.482027
C82	C	1.324915	-0.596387	0.548413
N83	N	1.367619	-0.576918	0.591173
H84	H	1.020163	-0.744132	0.243211
C85	C	1.273575	-1.051537	0.496928
N86	N	1.316271	-1.070940	0.539701
C87	C	1.273543	-0.953007	0.496901
N88	N	1.316239	-0.933537	0.539667
C89	C	1.057122	-1.051736	0.280135
N90	N	1.014423	-1.071206	0.237372
H91	H	1.020120	-0.688484	0.243194
C92	C	1.057055	-0.953223	0.280124
N93	N	1.014327	-0.933836	0.237359
C94	C	1.005348	-0.596686	0.228427
N95	N	0.962633	-0.577296	0.185654
C96	C	1.056853	-0.479349	0.279975
N97	N	1.014153	-0.498823	0.237218
C98	C	1.056810	-0.380817	0.279955
N99	N	1.014097	-0.361415	0.237198
C100	C	1.324971	-0.737133	0.548462
N101	N	1.367673	-0.717664	0.591224
C102	C	1.325000	-0.835658	0.548489
N103	N	1.367700	-0.855061	0.591257
