data_functionalizedCrystal
_audit_creation_method	'MofGen! by Chris Wilmer'
_symmetry_space_group_name_H-M	'P1'
_symmetry_Int_Tables_number	1
_symmetry_cell_setting	triclinic
loop_
_symmetry_equiv_pos_as_xyz
  x,y,z
_cell_length_a	12.759401
_cell_length_b	19.121063
_cell_length_c	12.759393
_cell_angle_alpha	92.402917
_cell_angle_beta	89.981504
_cell_angle_gamma	92.469017
loop_
_atom_site_label
_atom_site_type_symbol
_atom_site_fract_x
_atom_site_fract_y
_atom_site_fract_z
Zn1	Zn	1.588321	-0.279568	-0.611771
Zn2	Zn	1.580680	-0.397037	-0.443567
Zn3	Zn	1.412621	-0.279605	-0.436113
Zn4	Zn	1.405080	-0.396983	-0.619205
O5	O	1.496676	-0.338298	-0.527664
O6	O	1.734328	-0.295158	-0.589467
O7	O	1.558345	-0.381497	-0.295559
O8	O	1.442282	-0.181316	-0.453184
O9	O	1.728714	-0.381462	-0.465888
O10	O	1.571368	-0.181289	-0.582240
O11	O	1.434872	-0.295221	-0.290083
O12	O	1.264600	-0.295168	-0.460392
O13	O	1.429429	-0.381370	-0.765237
O14	O	1.259060	-0.381405	-0.594909
O15	O	1.564056	-0.295106	-0.759776
O16	O	1.551032	-0.495314	-0.473095
O17	O	1.422020	-0.495274	-0.602136
C18	C	1.223709	-0.338285	-0.527649
C19	C	1.106932	-0.338297	-0.527668
C20	C	1.484907	-0.520778	-0.539254
C21	C	1.479969	-0.598844	-0.544247
C22	C	1.049208	-0.383272	-0.597605
C23	C	0.939483	-0.383281	-0.597616
C24	C	0.945216	-0.293337	-0.457747
C25	C	1.054939	-0.293325	-0.457741
C26	C	1.101200	-0.428244	-0.667532
C27	C	1.043476	-0.473224	-0.737473
C28	C	0.933751	-0.473233	-0.737485
C29	C	0.881751	-0.428262	-0.667556
C30	C	1.544871	-0.635516	-0.479464
C31	C	1.540233	-0.708867	-0.484167
C32	C	1.470686	-0.745544	-0.553648
C33	C	1.405781	-0.708866	-0.618438
C34	C	1.410426	-0.635517	-0.613740
C35	C	1.453305	-0.967013	-0.571195
C36	C	1.448663	-1.040368	-0.575886
C37	C	1.583116	-1.040364	-0.441616
C38	C	1.587750	-0.967013	-0.436920
C39	C	1.522849	-0.930341	-0.501714
C40	C	1.465941	-0.820521	-0.558454
C41	C	1.527600	-0.855366	-0.496912
C42	C	1.770708	-0.338312	-0.527680
C43	C	1.887484	-0.338318	-0.527686
C44	C	1.496754	-0.338227	-0.801693
C45	C	1.496787	-0.338197	-0.918468
C46	C	1.508518	-0.155106	-0.516052
C47	C	1.513565	-0.077040	-0.511103
C48	C	1.566897	-0.293275	-0.970488
C49	C	1.566923	-0.293250	-1.080210
C50	C	1.426727	-0.383075	-1.085884
C51	C	1.426696	-0.383096	-0.976163
C52	C	1.636987	-0.248377	-0.912792
C53	C	1.707103	-0.203452	-0.964812
C54	C	1.707130	-0.203426	-1.074535
C55	C	1.637040	-0.248326	-1.132237
C56	C	1.496661	-0.338318	-0.254698
C57	C	1.496844	-0.338151	-0.137911
H58	H	1.085822	-0.509833	-0.794413
O59	O	1.338365	-0.744570	-0.685988
C60	C	1.395462	-0.786917	-0.756625
H61	H	1.474408	-0.797883	-0.720342
H62	H	1.349393	-0.838513	-0.773969
H63	H	1.408756	-0.758602	-0.832681
H64	H	1.101940	-0.256697	-0.400800
H65	H	0.792406	-0.428267	-0.667580
O66	O	1.358699	-0.426790	-1.141823
C67	C	1.377145	-0.496797	-1.119458
H68	H	1.417413	-0.498269	-1.039886
H69	H	1.299285	-0.528288	-1.117694
H70	H	1.429651	-0.520443	-1.182707
O71	O	1.347277	-0.599999	-0.676713
C72	C	1.284917	-0.648098	-0.739068
H73	H	1.277980	-0.700408	-0.699378
H74	H	1.203476	-0.626941	-0.748860
H75	H	1.322867	-0.655838	-0.819384
H76	H	1.369591	-0.419664	-0.933807
O77	O	1.775036	-0.159800	-0.908649
C78	C	1.718138	-0.114436	-0.842325
H79	H	1.636914	-0.139207	-0.827446
H80	H	1.761523	-0.105040	-0.764579
H81	H	1.709968	-0.062378	-0.881318
H82	H	1.392042	-1.070228	-0.632484
H83	H	0.902869	-0.256725	-0.400813
O84	O	1.207794	-0.428106	-0.667519
C85	C	1.248795	-0.360818	-0.690423
H86	H	1.188161	-0.320352	-0.670016
H87	H	1.322985	-0.348288	-0.642262
H88	H	1.268392	-0.359402	-0.777508
O89	O	1.775333	-0.159764	-1.124904
C90	C	1.837166	-0.120130	-1.050448
H91	H	1.838920	-0.148916	-0.974057
H92	H	1.920437	-0.112638	-1.081681
H93	H	1.802144	-0.066787	-1.035398
O94	O	0.877835	-0.516986	-0.805463
C95	C	0.947259	-0.556660	-0.867196
H96	H	1.025301	-0.559049	-0.824300
H97	H	0.912002	-0.612010	-0.881781
H98	H	0.960612	-0.531005	-0.945423
H99	H	1.593082	-0.738723	-0.431413
H100	H	1.601498	-0.605659	-0.422881
H101	H	1.400458	-0.937161	-0.623951
O102	O	1.595097	-0.819818	-0.429278
C103	C	1.571028	-0.837794	-0.325696
H104	H	1.527276	-0.891077	-0.326893
H105	H	1.646715	-0.840280	-0.278802
H106	H	1.519632	-0.796562	-0.287634
O107	O	1.637228	-0.248366	-1.238827
C108	C	1.736771	-0.266383	-1.276631
H109	H	1.778210	-0.297016	-1.215340
H110	H	1.727091	-0.300047	-1.352163
H111	H	1.785506	-0.216658	-1.292961
O112	O	1.655261	-0.931467	-0.369290
C113	C	1.631206	-0.949448	-0.265708
H114	H	1.587442	-1.002726	-0.266906
H115	H	1.706901	-0.951946	-0.218828
H116	H	1.579827	-0.908213	-0.227629
O117	O	1.646130	-1.076095	-0.378799
C118	C	1.627107	-1.148700	-0.397825
H119	H	1.592010	-1.158693	-0.479510
H120	H	1.704050	-1.176534	-0.392563
H121	H	1.569883	-1.169585	-0.336788
H122	H	1.409314	-0.850391	-0.615023
O123	O	1.637180	-0.248398	-0.806209
C124	C	1.736700	-0.266470	-0.770741
H125	H	1.797984	-0.254467	-0.833242
H126	H	1.757437	-0.234805	-0.695344
H127	H	1.735152	-0.324750	-0.754957
