data_functionalizedCrystal
_audit_creation_method	'MofGen! by Chris Wilmer'
_symmetry_space_group_name_H-M	'P1'
_symmetry_Int_Tables_number	1
_symmetry_cell_setting	triclinic
loop_
_symmetry_equiv_pos_as_xyz
  x,y,z
_cell_length_a	12.594517
_cell_length_b	12.594516
_cell_length_c	15.296720
_cell_angle_alpha	80.349469
_cell_angle_beta	80.338996
_cell_angle_gamma	90.015853
loop_
_atom_site_label
_atom_site_type_symbol
_atom_site_fract_x
_atom_site_fract_y
_atom_site_fract_z
Zn1	Zn	1.523040	-0.527882	0.510115
Zn2	Zn	1.553751	-0.675091	0.359276
Zn3	Zn	1.375863	-0.497126	0.359277
Zn4	Zn	1.345034	-0.705811	0.510079
O5	O	1.449422	-0.601477	0.434687
O6	O	1.676057	-0.547424	0.490120
O7	O	1.555908	-0.625755	0.233038
O8	O	1.395437	-0.352263	0.379301
O9	O	1.698619	-0.655578	0.379299
O10	O	1.503567	-0.374860	0.490121
O11	O	1.425215	-0.495006	0.233039
O12	O	1.222831	-0.524794	0.379266
O13	O	1.342892	-0.707936	0.636322
O14	O	1.200180	-0.678114	0.490060
O15	O	1.473672	-0.577213	0.636348
O16	O	1.526014	-0.828108	0.379265
O17	O	1.372670	-0.850679	0.490059
C18	C	1.172886	-0.601451	0.434660
C19	C	1.054579	-0.601469	0.434670
C20	C	0.997591	-0.518005	0.374524
C21	C	0.931313	-0.610563	0.352338
C22	C	0.910055	-0.508962	0.456871
C23	C	0.989868	-0.694070	0.412441
C24	C	0.968608	-0.592410	0.517012
C25	C	0.902356	-0.685042	0.494858
C26	C	1.449354	-0.878017	0.434678
C27	C	1.449416	-0.996327	0.434704
C28	C	1.366014	-1.077886	0.494923
C29	C	1.356900	-1.131943	0.412607
C30	C	1.458625	-1.153073	0.517034
C31	C	1.440259	-1.048817	0.352344
C32	C	1.542018	-1.069952	0.456827
C33	C	1.532952	-1.123965	0.374455
C34	C	1.727037	-0.601505	0.434714
C35	C	1.845340	-0.601517	0.434725
C36	C	1.401417	-0.649432	0.669982
C37	C	1.380961	-0.669867	0.770251
C38	C	1.449515	-0.323862	0.434715
C39	C	1.449555	-0.205559	0.434727
C40	C	1.497301	-0.553633	0.200306
C41	C	1.517963	-0.532898	0.100038
C42	C	1.595668	-0.455236	1.052948
C43	C	1.614895	-0.436038	0.958740
C44	C	1.556413	-0.494493	0.911613
C45	C	1.478701	-0.572151	0.958703
C46	C	1.459478	-0.591357	1.052920
C47	C	1.420223	-0.630614	0.911586
C48	C	1.342512	-0.708272	0.958676
C49	C	1.323292	-0.727474	1.052883
C50	C	1.381774	-0.669018	1.100010
C51	C	1.439446	-0.611408	0.817369
C52	C	1.303256	-0.747529	0.817341
C53	C	1.284030	-0.766727	0.911549
H54	H	0.875102	-0.430714	0.475595
N55	N	1.658747	-0.392203	1.103775
H56	H	1.634778	-0.416158	1.170602
H57	H	1.645571	-0.312828	1.087321
H58	H	0.985574	-0.584685	0.586603
H59	H	1.502719	-0.548178	0.779037
N60	N	0.847740	-0.778654	0.562257
H61	H	0.767547	-0.777802	0.562282
H62	H	0.862104	-0.772363	0.624217
N63	N	1.577146	-0.473790	0.810004
H64	H	1.635247	-0.415724	0.787323
H65	H	1.508718	-0.449633	0.787379
N66	N	1.272477	-1.050528	0.562285
H67	H	1.202622	-1.072931	0.545461
H68	H	1.273576	-0.970323	0.562179
H69	H	1.432434	-1.003701	0.282709
H70	H	1.278652	-1.159344	0.393914
N71	N	1.240147	-0.810574	0.766535
H72	H	1.253297	-0.889967	0.782918
H73	H	1.264130	-0.786538	0.699721
H74	H	1.039017	-0.447468	0.323598
H75	H	0.914377	-0.618255	0.282727
H76	H	1.024657	-0.772330	0.393609
N77	N	1.626476	-1.151032	0.306943
H78	H	1.619426	-1.112515	0.244817
H79	H	1.626336	-1.231384	0.307766
H80	H	1.220756	-0.829956	0.949903
N81	N	1.645634	-1.033664	0.481632
H82	H	1.652466	-1.072013	0.543859
H83	H	1.645030	-0.953315	0.480804
H84	H	1.466359	-1.198313	0.586650
N85	N	1.698708	-0.352289	0.907952
H86	H	1.732838	-0.318170	0.952099
H87	H	1.663379	-0.295059	0.868862
N88	N	1.361006	-0.689699	1.201623
H89	H	1.409835	-0.640871	1.224328
H90	H	1.375884	-0.767358	1.224266
N91	N	1.239488	-0.811243	1.103676
H92	H	1.205355	-0.845360	1.059530
H93	H	1.182274	-0.775880	1.142767
