data_functionalizedCrystal
_audit_creation_method	'MofGen! by Chris Wilmer'
_symmetry_space_group_name_H-M	'P1'
_symmetry_Int_Tables_number	1
_symmetry_cell_setting	triclinic
loop_
_symmetry_equiv_pos_as_xyz
  x,y,z
_cell_length_a	19.077269
_cell_length_b	14.908178
_cell_length_c	19.077174
_cell_angle_alpha	89.105285
_cell_angle_beta	90.075979
_cell_angle_gamma	91.150529
loop_
_atom_site_label
_atom_site_type_symbol
_atom_site_fract_x
_atom_site_fract_y
_atom_site_fract_z
Zn1	Zn	1.070011	-0.431565	-0.335498
Zn2	Zn	1.403345	-0.098231	-0.002164
Zn3	Zn	1.736678	0.235102	0.331169
Zn4	Zn	1.058497	-0.575479	-0.211783
Zn5	Zn	1.391831	-0.242146	0.121550
Zn6	Zn	1.725164	0.091187	0.454884
Zn7	Zn	0.948356	-0.419548	-0.223248
Zn8	Zn	1.281689	-0.086214	0.110086
Zn9	Zn	1.615023	0.247119	0.443419
Zn10	Zn	0.945739	-0.575916	-0.333953
Zn11	Zn	1.279072	-0.242583	-0.000620
Zn12	Zn	1.612406	0.090751	0.332714
O13	O	1.005651	-0.500627	-0.276120
O14	O	1.338984	-0.167294	0.057213
O15	O	1.672318	0.166040	0.390546
O16	O	1.166587	-0.455502	-0.314935
O17	O	1.499920	-0.122168	0.018398
O18	O	1.833254	0.211165	0.351731
O19	O	1.040163	-0.549583	-0.115198
O20	O	1.373497	-0.216250	0.218135
O21	O	1.706830	0.117084	0.551468
O22	O	0.970408	-0.295472	-0.243582
O23	O	1.303741	0.037861	0.089751
O24	O	1.637074	0.371194	0.423084
O25	O	1.158128	-0.561235	-0.224043
O26	O	1.491461	-0.227902	0.109291
O27	O	1.824794	0.105431	0.442624
O28	O	1.059787	-0.304301	-0.326052
O29	O	1.393121	0.029032	0.007281
O30	O	1.726454	0.362366	0.340615
O31	O	0.959243	-0.435021	-0.123621
O32	O	1.292576	-0.101687	0.209712
O33	O	1.625910	0.231646	0.543045
O34	O	0.849906	-0.435444	-0.242085
O35	O	1.183239	-0.102111	0.091249
O36	O	1.516573	0.231223	0.424582
O37	O	0.965947	-0.561979	-0.432264
O38	O	1.299281	-0.228646	-0.098930
O39	O	1.632614	0.104687	0.234403
O40	O	0.847983	-0.550327	-0.323419
O41	O	1.181316	-0.216994	0.009914
O42	O	1.514650	0.116340	0.343247
O43	O	1.057250	-0.455925	-0.433398
O44	O	1.390583	-0.122592	-0.100065
O45	O	1.723916	0.210742	0.233268
O46	O	1.037626	-0.701207	-0.222545
O47	O	1.370959	-0.367874	0.110788
O48	O	1.704292	-0.034540	0.444122
O49	O	0.954783	-0.701528	-0.312303
O50	O	1.288116	-0.368194	0.021031
O51	O	1.621449	-0.034861	0.354364
C52	C	0.823507	-0.491630	-0.283829
C53	C	1.156841	-0.158296	0.049505
C54	C	1.490174	0.175037	0.382838
C55	C	0.745585	-0.487803	-0.287142
C56	C	1.078919	-0.154470	0.046191
C57	C	1.412252	0.178864	0.379525
C58	C	0.704572	-0.540958	-0.241313
C59	C	1.037905	-0.207625	0.092020
C60	C	1.371239	0.125709	0.425353
C61	C	0.631356	-0.537363	-0.244436
C62	C	0.964689	-0.204030	0.088898
C63	C	1.298023	0.129303	0.422231
C64	C	0.599155	-0.480608	-0.293384
C65	C	0.932489	-0.147275	0.039949
C66	C	1.265822	0.186059	0.373282
C67	C	0.640174	-0.427451	-0.339218
C68	C	0.973507	-0.094118	-0.005885
C69	C	1.306841	0.239216	0.327449
C70	C	0.713388	-0.431051	-0.336098
C71	C	1.046722	-0.097718	-0.002765
C72	C	1.380055	0.235616	0.330568
C73	C	0.380660	-0.463953	-0.307799
C74	C	0.713994	-0.130619	0.025534
C75	C	1.047327	0.202714	0.358868
C76	C	0.307441	-0.460354	-0.310914
C77	C	0.640774	-0.127021	0.022420
C78	C	0.974107	0.206312	0.355753
C79	C	0.298628	-0.570269	-0.216132
C80	C	0.631961	-0.236935	0.117201
C81	C	0.965295	0.096398	0.450535
C82	C	0.371844	-0.573860	-0.213014
C83	C	0.705177	-0.240526	0.120320
C84	C	1.038511	0.092807	0.453653
C85	C	0.412856	-0.520706	-0.258850
C86	C	0.746190	-0.187373	0.074483
C87	C	1.079523	0.145961	0.407817
N88	N	0.524317	-0.476930	-0.296576
N89	N	0.857650	-0.143597	0.036758
N90	N	1.190984	0.189737	0.370091
N91	N	0.487693	-0.524389	-0.255661
N92	N	0.821026	-0.191056	0.077672
N93	N	1.154360	0.142277	0.411005
C94	C	0.994690	-0.733954	-0.266027
C95	C	1.328024	-0.400620	0.067307
C96	C	1.661357	-0.067287	0.400640
C97	C	0.990066	-0.833776	-0.261729
C98	C	1.323400	-0.500443	0.071604
C99	C	1.656733	-0.167110	0.404938
C100	C	1.074384	-1.030399	-0.339628
C101	C	1.407718	-0.697066	-0.006295
C102	C	1.741051	-0.363732	0.327038
C103	C	1.070042	-1.124191	-0.335593
C104	C	1.403376	-0.790858	-0.002259
C105	C	1.736709	-0.457525	0.331074
C106	C	0.977037	-1.115156	-0.249627
C107	C	1.310371	-0.781822	0.083707
C108	C	1.643704	-0.448489	0.417040
C109	C	0.981379	-1.021363	-0.253662
C110	C	1.314713	-0.688030	0.079671
C111	C	1.648046	-0.354697	0.413005
C112	C	1.030055	-0.978988	-0.298664
C113	C	1.363389	-0.645655	0.034670
C114	C	1.696722	-0.312322	0.368003
C115	C	1.034400	-0.885194	-0.302695
C116	C	1.367734	-0.551861	0.030638
C117	C	1.701067	-0.218527	0.363971
C118	C	0.941392	-0.876160	-0.216733
C119	C	1.274726	-0.542827	0.116600
C120	C	1.608059	-0.209493	0.449934
C121	C	0.937050	-0.969953	-0.212697
C122	C	1.270384	-0.636619	0.120636
C123	C	1.603717	-0.303286	0.453969
C124	C	1.188506	-0.509660	-0.268382
C125	C	1.521839	-0.176327	0.064951
C126	C	1.855172	0.157007	0.398284
C127	C	1.266427	-0.513510	-0.265085
C128	C	1.599761	-0.180176	0.068248
C129	C	1.933094	0.153157	0.401582
C130	C	1.012591	-0.510341	-0.458980
C131	C	1.345924	-0.177008	-0.125647
C132	C	1.679258	0.156325	0.207687
C133	C	1.015548	-0.514481	-0.536904
C134	C	1.348882	-0.181148	-0.203571
C135	C	1.682215	0.152186	0.129763
C136	C	1.016674	-0.266391	-0.286268
C137	C	1.350007	0.066943	0.047065
C138	C	1.683341	0.400276	0.380398
C139	C	1.021371	-0.166573	-0.290593
C140	C	1.354704	0.166760	0.042741
C141	C	1.688038	0.500093	0.376074
C142	C	0.974809	-0.456780	-0.577897
C143	C	1.308142	-0.123447	-0.244564
C144	C	1.641475	0.209886	0.088769
C145	C	0.977585	-0.460677	-0.651115
C146	C	1.310918	-0.127344	-0.317782
C147	C	1.644251	0.205989	0.015552
C148	C	1.021104	-0.522271	-0.683338
C149	C	1.354437	-0.188938	-0.350004
C150	C	1.687771	0.144395	-0.016671
C151	C	1.061845	-0.579978	-0.642339
C152	C	1.395179	-0.246644	-0.309005
C153	C	1.728512	0.086689	0.024328
C154	C	1.059065	-0.576085	-0.569122
C155	C	1.392399	-0.242751	-0.235789
C156	C	1.725732	0.090582	0.097544
C157	C	1.033933	-0.540315	-0.901840
C158	C	1.367266	-0.206982	-0.568507
C159	C	1.700599	0.126352	-0.235173
C160	C	1.036711	-0.544202	-0.975062
C161	C	1.370044	-0.210869	-0.641728
C162	C	1.703378	0.122465	-0.308395
C163	C	0.952449	-0.424902	-0.983833
C164	C	1.285782	-0.091569	-0.650500
C165	C	1.619116	0.241764	-0.317166
C166	C	0.949676	-0.421011	-0.910615
C167	C	1.283009	-0.087678	-0.577282
C168	C	1.616343	0.245656	-0.243948
C169	C	0.990414	-0.478721	-0.869622
C170	C	1.323748	-0.145387	-0.536289
C171	C	1.657081	0.187946	-0.202956
N172	N	1.023944	-0.526254	-0.758178
N173	N	1.357277	-0.192921	-0.424844
N174	N	1.690611	0.140413	-0.091511
N175	N	0.987570	-0.474742	-0.794784
N176	N	1.320903	-0.141408	-0.461450
N177	N	1.654237	0.191925	-0.128117
C178	C	0.998781	-0.490888	-0.093973
C179	C	1.332115	-0.157554	0.239360
C180	C	1.665448	0.175779	0.572693
C181	C	0.995971	-0.486502	-0.016055
C182	C	1.329305	-0.153168	0.317278
C183	C	1.662638	0.180165	0.650612
H184	H	0.414044	-0.420672	-0.345123
H185	H	0.747377	-0.087339	-0.011789
H186	H	1.080711	0.245995	0.321544
N187	N	0.739303	-0.602174	-0.188520
N188	N	1.072636	-0.268841	0.144813
N189	N	1.405969	0.064492	0.478146
H190	H	0.770152	-0.565383	-0.156365
H191	H	1.103486	-0.232050	0.176968
H192	H	1.436819	0.101284	0.510301
H193	H	0.702168	-0.635292	-0.160012
H194	H	1.035501	-0.301959	0.173321
H195	H	1.368834	0.031374	0.506655
H196	H	0.919282	-0.377919	-1.017217
H197	H	1.252615	-0.044586	-0.683883
H198	H	1.585948	0.288747	-0.350550
H199	H	0.265228	-0.613545	-0.178816
H200	H	0.598561	-0.280211	0.154518
H201	H	0.931895	0.053122	0.487851
H202	H	1.097276	-0.630133	-0.668580
H203	H	1.430609	-0.296800	-0.335247
H204	H	1.763943	0.036533	-0.001913
H205	H	0.939375	-0.406619	-0.551667
H206	H	1.272708	-0.073286	-0.218334
H207	H	1.606041	0.260047	0.114999
N208	N	0.933652	-0.398420	-0.695317
N209	N	1.266986	-0.065086	-0.361984
N210	N	1.600319	0.268247	-0.028651
H211	H	0.965262	-0.359830	-0.726288
H212	H	1.298595	-0.026496	-0.392955
H213	H	1.631928	0.306837	-0.059622
H214	H	0.900594	-0.434965	-0.725449
H215	H	1.233928	-0.101632	-0.392115
H216	H	1.567261	0.231701	-0.058782
N217	N	0.272711	-0.399141	-0.363716
N218	N	0.606044	-0.065807	-0.030383
N219	N	0.939378	0.267526	0.302951
H220	H	0.241856	-0.435937	-0.395863
H221	H	0.575189	-0.102603	-0.062530
H222	H	0.908523	0.230730	0.270804
H223	H	0.243243	-0.354471	-0.338324
H224	H	0.576576	-0.021137	-0.004990
H225	H	0.909909	0.312196	0.328343
N226	N	1.083647	-0.610637	-1.009827
N227	N	1.416981	-0.277303	-0.676493
N228	N	1.750314	0.056030	-0.343160
H229	H	1.133911	-0.598495	-0.995571
H230	H	1.467245	-0.265162	-0.662237
H231	H	1.800578	0.068171	-0.328904
H232	H	1.069194	-0.673560	-0.994761
H233	H	1.402527	-0.340227	-0.661428
H234	H	1.735861	-0.006894	-0.328094
H235	H	1.067096	-0.587316	-0.868472
H236	H	1.400430	-0.253982	-0.535139
H237	H	1.733763	0.079351	-0.201806
N238	N	0.924544	-1.160868	-0.201089
N239	N	1.257878	-0.827534	0.132244
N240	N	1.591211	-0.494201	0.465577
H241	H	0.928524	-1.228086	-0.204750
H242	H	1.261857	-0.894752	0.128583
H243	H	1.595190	-0.561419	0.461917
H244	H	0.934366	-1.142369	-0.151272
H245	H	1.267700	-0.809036	0.182062
H246	H	1.601033	-0.475703	0.515395
H247	H	0.897418	-1.004467	-0.176060
H248	H	1.230752	-0.671134	0.157273
H249	H	1.564085	-0.337801	0.490606
N250	N	0.605447	-0.366240	-0.392017
N251	N	0.938780	-0.032907	-0.058684
N252	N	1.272114	0.300427	0.274649
H253	H	0.552842	-0.372022	-0.387039
H254	H	0.886176	-0.038688	-0.053706
H255	H	1.219509	0.294645	0.279628
H256	H	0.620843	-0.302135	-0.383419
H257	H	0.954176	0.031199	-0.050085
H258	H	1.287509	0.364532	0.283248
H259	H	1.092245	-0.623064	-0.535746
H260	H	1.425579	-0.289731	-0.202413
H261	H	1.758912	0.043603	0.130921
H262	H	1.106136	-1.166047	-0.368954
H263	H	1.439470	-0.832714	-0.035621
H264	H	1.772803	-0.499380	0.297713
H265	H	0.597966	-0.580648	-0.207117
H266	H	0.931299	-0.247314	0.126217
H267	H	1.264633	0.086019	0.459550
N268	N	1.126882	-0.984680	-0.388156
N269	N	1.460216	-0.651346	-0.054823
N270	N	1.793549	-0.318013	0.278510
H271	H	1.175817	-1.002843	-0.374489
H272	H	1.509150	-0.669510	-0.041156
H273	H	1.842483	-0.336176	0.292177
H274	H	1.117040	-1.003122	-0.437983
H275	H	1.450373	-0.669788	-0.104650
H276	H	1.783707	-0.336455	0.228683
N277	N	0.757628	-0.373724	-0.385531
N278	N	1.090961	-0.040391	-0.052197
N279	N	1.424294	0.292942	0.281136
H280	H	0.726120	-0.337223	-0.417013
H281	H	1.059454	-0.003889	-0.083679
H282	H	1.392787	0.329444	0.249654
H283	H	0.788870	-0.332087	-0.357556
H284	H	1.122204	0.001246	-0.024222
H285	H	1.455537	0.334579	0.309111
N286	N	0.902754	-0.354559	-0.875862
N287	N	1.236087	-0.021225	-0.542529
N288	N	1.569420	0.312108	-0.209195
H289	H	0.877370	-0.318590	-0.912942
H290	H	1.210704	0.014743	-0.579609
H291	H	1.544037	0.348076	-0.246275
H292	H	0.867433	-0.387876	-0.845265
H293	H	1.200766	-0.054543	-0.511931
H294	H	1.534099	0.278791	-0.178598
N295	N	0.893581	-0.820707	-0.172543
N296	N	1.226915	-0.487373	0.160790
N297	N	1.560248	-0.154040	0.494124
H298	H	0.863948	-0.781719	-0.204050
H299	H	1.197281	-0.448385	0.129283
H300	H	1.530615	-0.115052	0.462617
H301	H	0.862135	-0.861845	-0.143428
H302	H	1.195468	-0.528512	0.189905
H303	H	1.528801	-0.195179	0.523239
N304	N	0.406574	-0.635067	-0.160215
N305	N	0.739907	-0.301734	0.173119
N306	N	1.073241	0.031599	0.506452
H307	H	0.369482	-0.668195	-0.131654
H308	H	0.702815	-0.334862	0.201679
H309	H	1.036148	-0.001529	0.535013
H310	H	0.436091	-0.679692	-0.185599
H311	H	0.769424	-0.346359	0.147734
H312	H	1.102757	-0.013026	0.481067
H313	H	1.074036	-0.850693	-0.339336
H314	H	1.407370	-0.517360	-0.006003
H315	H	1.740703	-0.184027	0.327331
