data_functionalizedCrystal
_audit_creation_method	'MofGen! by Chris Wilmer'
_symmetry_space_group_name_H-M	'P1'
_symmetry_Int_Tables_number	1
_symmetry_cell_setting	triclinic
loop_
_symmetry_equiv_pos_as_xyz
  x,y,z
_cell_length_a	12.759401
_cell_length_b	10.685194
_cell_length_c	10.686551
_cell_angle_alpha	81.584560
_cell_angle_beta	85.604840
_cell_angle_gamma	94.378655
loop_
_atom_site_label
_atom_site_type_symbol
_atom_site_fract_x
_atom_site_fract_y
_atom_site_fract_z
Zn1	Zn	1.620962	-0.450178	-0.678925
Zn2	Zn	1.591682	-0.678790	-0.450389
Zn3	Zn	1.430656	-0.466539	-0.466686
Zn4	Zn	1.430685	-0.662409	-0.662596
O5	O	1.518496	-0.564479	-0.564649
O6	O	1.764099	-0.480511	-0.648623
O7	O	1.558055	-0.664337	-0.274918
O8	O	1.468142	-0.286721	-0.508495
O9	O	1.742587	-0.648472	-0.480718
O10	O	1.607959	-0.274701	-0.664426
O11	O	1.439751	-0.508397	-0.286892
O12	O	1.283639	-0.492514	-0.492661
O13	O	1.468191	-0.620554	-0.842394
O14	O	1.283660	-0.636419	-0.636595
O15	O	1.607987	-0.464628	-0.854392
O16	O	1.558083	-0.854264	-0.464884
O17	O	1.439799	-0.842230	-0.620792
C18	C	1.245528	-0.564465	-0.564625
C19	C	1.128751	-0.564488	-0.564643
C20	C	1.073910	-0.639553	-0.639452
C21	C	0.964188	-0.639555	-0.639477
C22	C	0.964156	-0.489426	-0.489872
C23	C	1.073877	-0.489417	-0.489855
C24	C	0.821460	-0.673617	-0.785628
C25	C	0.766613	-0.748703	-0.860424
C26	C	0.795035	-0.871111	-0.870190
C27	C	0.878298	-0.918461	-0.805139
C28	C	0.933138	-0.843383	-0.730332
C29	C	0.904721	-0.720955	-0.720592
C30	C	1.216606	-0.455369	-0.343701
C31	C	1.271447	-0.380297	-0.268887
C32	C	1.243027	-0.257887	-0.259109
C33	C	1.159758	-0.210543	-0.324137
C34	C	1.104917	-0.285615	-0.398952
C35	C	1.133345	-0.408024	-0.408732
C36	C	1.495798	-0.894307	-0.539325
C37	C	1.486186	-1.035405	-0.528533
C38	C	1.792530	-0.564493	-0.564674
C39	C	1.909307	-0.564500	-0.564684
C40	C	1.541358	-0.538939	-0.895739
C41	C	1.551101	-0.528055	-1.036830
C42	C	1.541314	-0.233361	-0.590100
C43	C	1.551037	-0.092258	-0.600946
C44	C	1.495789	-0.589828	-0.234854
C45	C	1.486275	-0.600354	-0.093792
H46	H	1.000929	-0.881935	-0.677368
H47	H	1.614063	-0.457830	-1.096007
H48	H	1.613914	-1.032989	-0.671203
F49	F	1.403985	-1.112879	-0.436708
F50	F	0.908529	-1.048755	-0.815520
H51	H	1.423324	-0.670583	-1.034621
H52	H	1.118586	-0.700676	-0.700352
H53	H	1.339247	-0.418855	-0.215936
H54	H	0.798320	-0.573937	-0.777698
F55	F	0.678004	-0.698304	-0.929659
F56	F	0.905746	-0.409537	-0.410281
F57	F	1.016290	-0.235227	-0.468156
F58	F	0.736664	-0.951017	-0.949801
H59	H	1.136604	-0.110877	-0.316156
H60	H	1.239761	-0.555041	-0.351667
F61	F	1.301387	-0.177999	-0.179466
