data_functionalizedCrystal
_audit_creation_method	'MofGen! by Chris Wilmer'
_symmetry_space_group_name_H-M	'P1'
_symmetry_Int_Tables_number	1
_symmetry_cell_setting	triclinic
loop_
_symmetry_equiv_pos_as_xyz
  x,y,z
_cell_length_a	11.792241
_cell_length_b	14.472310
_cell_length_c	11.792254
_cell_angle_alpha	90.001185
_cell_angle_beta	84.196007
_cell_angle_gamma	90.008847
loop_
_atom_site_label
_atom_site_type_symbol
_atom_site_fract_x
_atom_site_fract_y
_atom_site_fract_z
O1	O	1.506931	0.076752	0.155559
O2	O	2.006931	0.576752	0.655559
O3	O	1.176590	0.076773	0.171592
O4	O	1.676590	0.576773	0.671592
O5	O	1.349769	0.076755	-0.001594
O6	O	1.849769	0.576755	0.498406
O7	O	1.333752	0.076770	0.328745
O8	O	1.833752	0.576770	0.828745
O9	O	1.349725	-0.076927	-0.001584
O10	O	1.849725	0.423073	0.498416
O11	O	1.176546	-0.076909	0.171602
O12	O	1.676546	0.423091	0.671602
O13	O	1.506886	-0.076930	0.155569
O14	O	2.006886	0.423070	0.655569
Cu15	Cu	1.341712	-0.090952	0.163586
Cu16	Cu	1.841712	0.409048	0.663586
Cu17	Cu	1.341765	0.090795	0.163575
Cu18	Cu	1.841765	0.590795	0.663575
O19	O	1.333707	-0.076912	0.328755
O20	O	1.833707	0.423088	0.828755
C21	C	1.134277	-0.000065	0.170590
C22	C	1.634277	0.499935	0.670590
C23	C	1.008263	-0.000057	0.167576
C24	C	1.508263	0.499943	0.667576
C25	C	0.777551	-0.000084	0.162033
C26	C	1.277551	0.499916	0.662033
C27	C	0.905936	-0.000069	0.165112
C28	C	1.405936	0.499931	0.665112
N29	N	1.341683	-0.218783	0.163594
N30	N	1.841683	0.281217	0.663594
C31	C	1.341763	-0.592874	0.163570
C32	C	1.841763	-0.092874	0.663570
C33	C	1.248784	-0.553699	0.255924
C34	C	1.748784	-0.053699	0.755924
C35	C	1.249002	-0.446611	0.256264
C36	C	1.749002	0.053389	0.756264
C37	C	1.341722	-0.407283	0.163582
C38	C	1.841722	0.092717	0.663582
C39	C	1.460310	-0.446127	0.190177
C40	C	1.960310	0.053873	0.690177
C41	C	1.459789	-0.553248	0.190835
C42	C	1.959789	-0.053248	0.690835
C43	C	1.317209	-0.553407	0.044352
C44	C	1.817209	-0.053407	0.544352
C45	C	1.314498	-0.446279	0.045130
C46	C	1.814498	0.053721	0.545130
C47	C	1.341707	-0.302395	0.163586
C48	C	1.841707	0.197605	0.663586
C49	C	1.341786	-0.697762	0.163568
C50	C	1.841786	-0.197762	0.663568
C51	C	1.549199	-0.000090	0.156571
C52	C	2.049199	0.499910	0.656571
C53	C	1.675213	-0.000092	0.159586
C54	C	2.175213	0.499908	0.659586
C55	C	1.348738	-0.000085	-0.043880
C56	C	1.848738	0.499915	0.456120
C57	C	1.345718	-0.000084	-0.169893
C58	C	1.845718	0.499916	0.330107
N59	N	1.341802	0.218626	0.163558
N60	N	1.841802	0.718626	0.663558
C61	C	1.343264	-0.000081	-0.272229
C62	C	1.843264	0.499919	0.227771
C63	C	1.340196	-0.000072	-0.400616
C64	C	1.840196	0.499928	0.099384
C65	C	1.334738	-0.000070	0.371041
C66	C	1.834738	0.499930	0.871041
C67	C	1.337758	-0.000065	0.497054
C68	C	1.837758	0.499935	0.997054
H69	H	1.160876	-0.420350	0.240311
H70	H	1.660876	0.079650	0.740311
H71	H	1.377764	-0.419512	-0.026872
H72	H	1.877764	0.080488	0.473128
Br73	Br	1.169092	-0.403970	0.011513
Br74	Br	1.669092	0.096030	0.511513
H75	H	1.232572	-0.580470	0.018960
H76	H	1.732572	-0.080470	0.518960
Br77	Br	1.430207	-0.595628	-0.070211
Br78	Br	1.930207	-0.095628	0.429789
H79	H	1.160375	-0.579481	0.240223
H80	H	1.660375	-0.079481	0.740223
H81	H	1.264327	-0.580606	0.343880
H82	H	1.764327	-0.080606	0.843880
Br83	Br	1.275209	-0.403872	0.403709
Br84	Br	1.775209	0.096128	0.903709
H85	H	1.481314	-0.578222	0.277801
H86	H	1.981314	-0.078222	0.777801
Br87	Br	1.578517	-0.596445	0.082923
Br88	Br	2.078517	-0.096445	0.582923
H89	H	1.531183	-0.420650	0.124731
H90	H	2.031183	0.079350	0.624731
Br91	Br	1.497022	-0.401395	0.333482
Br92	Br	1.997022	0.098605	0.833482
