data_functionalizedCrystal
_audit_creation_method	'MofGen! by Chris Wilmer'
_symmetry_space_group_name_H-M	'P1'
_symmetry_Int_Tables_number	1
_symmetry_cell_setting	triclinic
loop_
_symmetry_equiv_pos_as_xyz
  x,y,z
_cell_length_a	25.639242
_cell_length_b	18.050589
_cell_length_c	18.050582
_cell_angle_alpha	89.981795
_cell_angle_beta	90.023679
_cell_angle_gamma	89.976251
loop_
_atom_site_label
_atom_site_type_symbol
_atom_site_fract_x
_atom_site_fract_y
_atom_site_fract_z
Zn1	Zn	0.799271	0.295795	0.420109
Zn2	Zn	0.799208	0.419978	0.295928
Zn3	Zn	0.711845	0.295797	0.295914
Zn4	Zn	0.711808	0.419938	0.420058
O5	O	0.755533	0.357877	0.358002
O6	O	0.872428	0.312284	0.403663
O7	O	0.787608	0.403523	0.192001
O8	O	0.723484	0.191872	0.312404
O9	O	0.872382	0.403521	0.312428
O10	O	0.787715	0.191871	0.403649
O11	O	0.723423	0.312288	0.191991
O12	O	0.638675	0.312249	0.312354
O13	O	0.723421	0.403453	0.523989
O14	O	0.638648	0.403455	0.403562
O15	O	0.787680	0.312245	0.524026
O16	O	0.787573	0.523898	0.312379
O17	O	0.723360	0.523868	0.403576
C18	C	0.755470	0.550829	0.357990
C19	C	0.755491	0.633375	0.358009
C20	C	0.619690	0.357848	0.357952
C21	C	0.561576	0.357853	0.357948
C22	C	0.755554	0.357844	0.551708
C23	C	0.755562	0.357830	0.634253
C24	C	0.201208	0.405448	0.405449
C25	C	0.146604	0.405452	0.405461
O26	O	0.118363	0.445882	0.445805
N27	N	0.119294	0.357898	0.358050
C28	C	0.146591	0.310330	0.310631
O29	O	0.118348	0.269882	0.270306
C30	C	0.201194	0.310323	0.310623
C31	C	0.228502	0.357885	0.358031
C32	C	0.228515	0.453006	0.452854
C33	C	0.283116	0.453002	0.452841
C34	C	0.310409	0.405440	0.405423
C35	C	0.283102	0.357882	0.358018
C36	C	0.228491	0.262752	0.263208
C37	C	0.283098	0.262748	0.263205
C38	C	0.310405	0.310311	0.310613
C39	C	0.364996	0.310316	0.310588
N40	N	0.392306	0.357870	0.357998
C41	C	0.365013	0.405432	0.405416
C42	C	0.031920	0.310349	0.310651
C43	C	-0.022682	0.310360	0.310654
C44	C	-0.022665	0.405481	0.405485
C45	C	0.031938	0.405473	0.405478
C46	C	0.059230	0.357904	0.358061
C47	C	0.479678	0.405421	0.405385
C48	C	0.534283	0.405415	0.405365
C49	C	0.534262	0.310292	0.310537
C50	C	0.479661	0.310300	0.310553
C51	C	0.452370	0.357867	0.357983
O52	O	0.393272	0.269904	0.270266
O53	O	0.393263	0.445867	0.445740
C54	C	0.891906	0.357907	0.358053
C55	C	0.950020	0.357920	0.358075
C56	C	0.755611	0.164172	0.358031
C57	C	0.755644	0.081626	0.358043
C58	C	0.720606	0.832837	0.407585
C59	C	0.707865	0.882269	0.339815
C60	C	0.755542	0.784506	0.358019
C61	C	0.768309	0.882155	0.425797
C62	C	0.755591	0.930491	0.358034
C63	C	0.742776	0.832851	0.290213
C64	C	0.803242	0.832732	0.376240
C65	C	0.790519	0.882142	0.308424
C66	C	0.755513	0.700407	0.358011
C67	C	0.755620	1.014587	0.358034
C68	C	0.755543	0.357856	0.165050
C69	C	0.755635	0.357661	0.082504
C70	C	0.720645	0.407361	0.833684
C71	C	0.768346	0.425520	0.883087
C72	C	0.755588	0.357774	0.785384
C73	C	0.707913	0.339594	0.883063
C74	C	0.755609	0.357720	0.931369
C75	C	0.803314	0.375968	0.833700
C76	C	0.742849	0.290011	0.833671
C77	C	0.790583	0.308144	0.883052
C78	C	0.755575	0.357806	0.701286
C79	C	0.755627	0.357688	1.015466
H80	H	0.457464	0.444153	0.444008
C81	C	0.857032	0.803798	0.396713
C82	C	0.893658	0.829882	0.345455
C83	C	0.943216	0.803251	0.364305
H84	H	0.856774	0.751179	0.396097
H85	H	0.866068	0.820671	0.444886
H86	H	0.884624	0.813005	0.297295
H87	H	0.893932	0.882497	0.346063
H88	H	0.952251	0.820124	0.412478
H89	H	0.942952	0.750633	0.363690
H90	H	0.968073	0.820951	0.329535
C91	C	0.782614	0.910931	0.502281
C92	C	0.745889	0.885932	0.553935
C93	C	0.759049	0.912414	0.624401
H94	H	0.782832	0.963551	0.501729
H95	H	0.816234	0.893218	0.515599
H96	H	0.712278	0.903648	0.540620
H97	H	0.745666	0.833315	0.554509
H98	H	0.792669	0.894702	0.637720
H99	H	0.759267	0.965033	0.623842
H100	H	0.734137	0.895451	0.659458
C101	C	0.681273	0.463408	0.804918
C102	C	0.657122	0.498698	0.864854
C103	C	0.620857	0.550340	0.838383
H104	H	0.655685	0.438717	0.775965
H105	H	0.698649	0.499202	0.775266
H106	H	0.639747	0.462910	0.894494
H107	H	0.682697	0.523403	0.893813
H108	H	0.638233	0.586134	0.808731
H109	H	0.595273	0.525644	0.809430
H110	H	0.604470	0.574296	0.879045
C111	C	0.728377	0.213721	0.804593
C112	C	0.683444	0.219164	0.760817
C113	C	0.670094	0.148904	0.734008
H114	H	0.721918	0.181367	0.845072
H115	H	0.756260	0.194727	0.775607
H116	H	0.655566	0.238148	0.789802
H117	H	0.689890	0.251505	0.720327
H118	H	0.697978	0.129910	0.705022
H119	H	0.663638	0.116555	0.774491
H120	H	0.639609	0.152588	0.704298
H121	H	0.779134	0.482803	0.904793
C122	C	0.654173	0.319163	0.912121
C123	C	0.655015	0.318771	0.989678
C124	C	0.605517	0.299969	1.016471
H125	H	0.644827	0.271376	0.894555
H126	H	0.629372	0.354473	0.895261
H127	H	0.679808	0.283462	1.006532
H128	H	0.664352	0.366551	1.007265
H129	H	0.580716	0.335280	0.999610
H130	H	0.596175	0.252183	0.998899
H131	H	0.606080	0.299708	1.069096
H132	H	0.820083	0.903655	0.266465
C133	C	0.857058	0.396559	0.804771
C134	C	0.856410	0.396396	0.727209
C135	C	0.905906	0.415373	0.700533
H136	H	0.881952	0.361567	0.821989
H137	H	0.866175	0.444546	0.822061
H138	H	0.847300	0.348416	0.709926
H139	H	0.831527	0.431389	0.709971
H140	H	0.915023	0.463360	0.717823
H141	H	0.930795	0.380379	0.717757
H142	H	0.905472	0.415272	0.647905
H143	H	0.556514	0.444150	0.443971
C144	C	0.829953	0.252094	0.911812
C145	C	0.804178	0.198646	0.954451
C146	C	0.840429	0.146997	0.980945
H147	H	0.855185	0.276651	0.941500
H148	H	0.846791	0.228744	0.871166
H149	H	0.787349	0.221994	0.995091
H150	H	0.778949	0.174070	0.924778
H151	H	0.857266	0.123647	0.940300
H152	H	0.865658	0.171561	1.010630
H153	H	0.822945	0.110723	1.009873
H154	H	-0.044897	0.444207	0.444098
H155	H	0.206299	0.491737	0.491471
C156	C	0.312665	0.504665	0.504401
C157	C	0.277066	0.546298	0.545939
C158	C	0.304264	0.593890	0.593456
H159	H	0.333950	0.537053	0.476024
H160	H	0.333972	0.476315	0.536846
H161	H	0.255769	0.574646	0.513498
H162	H	0.255780	0.513930	0.574332
H163	H	0.325570	0.565540	0.625901
H164	H	0.325548	0.626273	0.565073
H165	H	0.280114	0.622139	0.621650
H166	H	0.054168	0.444202	0.444083
C167	C	0.654151	0.911432	0.319243
C168	C	0.655022	0.988988	0.318855
C169	C	0.605551	1.015876	0.299904
H170	H	0.629305	0.894635	0.354464
H171	H	0.644853	0.893868	0.271420
H172	H	0.664314	1.006545	0.366671
H173	H	0.679857	1.005805	0.283633
H174	H	0.596253	0.998311	0.252081
H175	H	0.580709	0.999073	0.335127
H176	H	0.606137	1.068499	0.299632
C177	C	-0.052232	0.258645	0.259147
C178	C	-0.016635	0.216983	0.217635
C179	C	-0.043835	0.169323	0.170188
H180	H	-0.073555	0.286925	0.226678
H181	H	-0.073501	0.226284	0.287597
H182	H	0.004625	0.249339	0.189187
H183	H	0.004689	0.188688	0.250085
H184	H	-0.065105	0.136963	0.198638
H185	H	-0.065157	0.197609	0.137723
H186	H	-0.019688	0.141045	0.142021
H187	H	0.206266	0.224023	0.224601
C188	C	0.061617	0.258828	0.259113
C189	C	0.092946	0.300808	0.211447
C190	C	0.120312	0.253372	0.163969
H191	H	0.037589	0.230495	0.230809
H192	H	0.082966	0.226513	0.287547
H193	H	0.071599	0.333109	0.183016
H194	H	0.116984	0.329139	0.239730
H195	H	0.141661	0.221057	0.192403
H196	H	0.096280	0.225041	0.135670
H197	H	0.141575	0.281848	0.131627
C198	C	0.449949	0.258608	0.259207
C199	C	0.418632	0.211078	0.301358
C200	C	0.391256	0.163443	0.254091
H201	H	0.473972	0.230213	0.230954
H202	H	0.428591	0.286935	0.226810
H203	H	0.439988	0.182754	0.333742
H204	H	0.394600	0.239452	0.329609
H205	H	0.369898	0.191770	0.221694
H206	H	0.415282	0.135054	0.225841
H207	H	0.370000	0.131193	0.282683
C208	C	0.312634	0.211076	0.211635
C209	C	0.277028	0.169444	0.170109
C210	C	0.304216	0.121847	0.122587
H211	H	0.333958	0.178688	0.240007
H212	H	0.333902	0.239423	0.179182
H213	H	0.255769	0.141099	0.202558
H214	H	0.255703	0.201812	0.141722
H215	H	0.325484	0.150194	0.090134
H216	H	0.325539	0.089464	0.150965
H217	H	0.280062	0.093599	0.094401
H218	H	0.691019	0.811186	0.449442
C219	C	0.563995	0.258681	0.259141
C220	C	0.617658	0.268847	0.269299
C221	C	0.645066	0.221304	0.221977
H222	H	0.555092	0.269426	0.209192
H223	H	0.555095	0.208783	0.270109
H224	H	0.626555	0.318733	0.258326
H225	H	0.626577	0.258096	0.319238
H226	H	0.636165	0.171406	0.232945
H227	H	0.636159	0.232053	0.172032
H228	H	0.681479	0.228190	0.228868
C229	C	0.728322	0.803955	0.213831
C230	C	0.728430	0.726393	0.214728
C231	C	0.715109	0.699748	0.144385
H232	H	0.752979	0.821152	0.178536
H233	H	0.694547	0.821288	0.200807
H234	H	0.762200	0.709068	0.227743
H235	H	0.703773	0.709177	0.250009
H236	H	0.681334	0.717081	0.131360
H237	H	0.739768	0.716950	0.109095
H238	H	0.715176	0.647120	0.144985
