data_functionalizedCrystal
_audit_creation_method	'MofGen! by Chris Wilmer'
_symmetry_space_group_name_H-M	'P1'
_symmetry_Int_Tables_number	1
_symmetry_cell_setting	triclinic
loop_
_symmetry_equiv_pos_as_xyz
  x,y,z
_cell_length_a	17.077404
_cell_length_b	18.050589
_cell_length_c	17.077396
_cell_angle_alpha	90.024642
_cell_angle_beta	90.018362
_cell_angle_gamma	90.026191
loop_
_atom_site_label
_atom_site_type_symbol
_atom_site_fract_x
_atom_site_fract_y
_atom_site_fract_z
Zn1	Zn	1.200026	-0.295700	0.443840
Zn2	Zn	1.700026	0.204300	0.943840
Zn3	Zn	1.199920	-0.419897	0.312583
Zn4	Zn	1.699920	0.080103	0.812583
Zn5	Zn	1.068757	-0.295721	0.312590
Zn6	Zn	1.568757	0.204279	0.812590
Zn7	Zn	1.068713	-0.419848	0.443809
Zn8	Zn	1.568713	0.080152	0.943809
O9	O	1.134354	-0.357791	0.378205
O10	O	1.634354	0.142209	0.878205
O11	O	1.309858	-0.312186	0.426438
O12	O	1.809858	0.187814	0.926438
O13	O	1.182496	-0.403454	0.202737
O14	O	1.682496	0.096546	0.702737
O15	O	1.086233	-0.191793	0.330017
O16	O	1.586233	0.308207	0.830017
O17	O	1.309781	-0.403434	0.330004
O18	O	1.809781	0.096566	0.830004
O19	O	1.182675	-0.191778	0.426445
O20	O	1.682675	0.308222	0.926445
O21	O	1.086131	-0.312222	0.202742
O22	O	1.586131	0.187778	0.702742
O23	O	0.958905	-0.312175	0.329987
O24	O	1.458905	0.187825	0.829987
O25	O	1.086157	-0.403350	0.553660
O26	O	1.586157	0.096650	1.053660
O27	O	0.958872	-0.403371	0.426393
O28	O	1.458872	0.096629	0.926393
O29	O	1.182632	-0.312139	0.553683
O30	O	1.682632	0.187861	1.053683
O31	O	1.182453	-0.523815	0.329974
O32	O	1.682453	-0.023815	0.829974
O33	O	1.086056	-0.523779	0.426385
O34	O	1.586056	-0.023779	0.926385
C35	C	0.930406	-0.357770	0.378188
C36	C	1.430406	0.142230	0.878188
C37	C	0.843156	-0.357779	0.378199
C38	C	1.343156	0.142221	0.878199
C39	C	0.802207	-0.310351	0.428489
C40	C	1.302207	0.189649	0.928489
C41	C	0.720227	-0.310356	0.428492
C42	C	1.220227	0.189644	0.928492
C43	C	0.679197	-0.357793	0.378209
C44	C	1.179197	0.142207	0.878209
C45	C	0.720152	-0.405223	0.327914
C46	C	1.220152	0.094777	0.827914
C47	C	0.802131	-0.405214	0.327907
C48	C	1.302131	0.094786	0.827907
C49	C	0.549282	-0.405240	0.327933
C50	C	1.049282	0.094760	0.827933
C51	C	0.467297	-0.405250	0.327941
C52	C	0.967297	0.094750	0.827941
C53	C	0.467378	-0.310382	0.428519
C54	C	0.967378	0.189618	0.928519
C55	C	0.549357	-0.310373	0.428512
C56	C	1.049357	0.189627	0.928512
C57	C	0.590306	-0.357804	0.378217
C58	C	1.090306	0.142196	0.878217
C59	C	1.134259	-0.550744	0.378192
C60	C	1.634259	-0.050744	0.878192
C61	C	1.134291	-0.633289	0.378213
C62	C	1.634291	-0.133289	0.878213
C63	C	1.081921	-0.832747	0.430623
C64	C	1.581921	-0.332747	0.930623
C65	C	1.062786	-0.882188	0.358994
C66	C	1.562786	-0.382188	0.858994
C67	C	1.134368	-0.784420	0.378223
C68	C	1.634368	-0.284420	0.878223
C69	C	1.153541	-0.882060	0.449860
C70	C	1.653541	-0.382060	0.949860
C71	C	1.134441	-0.930405	0.378239
C72	C	1.634441	-0.430405	0.878239
C73	C	1.115195	-0.832773	0.306557
C74	C	1.615195	-0.332773	0.806557
C75	C	1.205983	-0.832641	0.397471
C76	C	1.705983	-0.332641	0.897471
C77	C	1.186876	-0.882060	0.325793
C78	C	1.686876	-0.382060	0.825793
C79	C	1.134324	-0.700321	0.378215
C80	C	1.634324	-0.200321	0.878215
C81	C	1.134485	-1.014501	0.378240
C82	C	1.634485	-0.514501	0.878240
C83	C	1.339098	-0.357813	0.378223
C84	C	1.839098	0.142187	0.878223
C85	C	1.426348	-0.357822	0.378231
C86	C	1.926348	0.142178	0.878231
C87	C	1.134402	-0.357737	0.582950
C88	C	1.634402	0.142263	1.082950
C89	C	1.134422	-0.357713	0.670200
C90	C	1.634422	0.142287	1.170200
C91	C	1.134471	-0.164086	0.378236
C92	C	1.634471	0.335914	0.878236
C93	C	1.134520	-0.081540	0.378249
C94	C	1.634520	0.418460	0.878249
C95	C	1.134352	-0.357792	0.174258
C96	C	1.634352	0.142208	0.674258
C97	C	1.134484	-0.357606	0.087008
C98	C	1.634484	0.142394	0.587008
C99	C	1.184658	-0.310216	0.711203
C100	C	1.684658	0.189784	1.211203
C101	C	1.184667	-0.310191	0.793183
C102	C	1.684667	0.189809	1.293183
C103	C	1.134444	-0.357668	0.834159
C104	C	1.634444	0.142332	1.334159
C105	C	1.084202	-0.405168	0.793150
C106	C	1.584202	0.094832	1.293150
C107	C	1.084190	-0.405188	0.711171
C108	C	1.584190	0.094812	1.211171
C109	C	1.084234	-0.405123	0.964020
C110	C	1.584234	0.094877	1.464020
C111	C	1.084248	-0.405104	1.046005
C112	C	1.584248	0.094896	1.546005
C113	C	1.184712	-0.310126	1.046032
C114	C	1.684712	0.189874	1.546032
C115	C	1.184699	-0.310146	0.964053
C116	C	1.684699	0.189854	1.464053
C117	C	1.134458	-0.357647	0.923050
C118	C	1.634458	0.142353	1.423050
H119	H	0.835471	-0.443834	0.286955
H120	H	1.335471	0.056166	0.786955
Cl121	Cl	0.969330	-0.915788	0.333861
Cl122	Cl	1.469330	-0.415788	0.833861
H123	H	0.686739	-0.443844	0.286969
H124	H	1.186739	0.056156	0.786969
H125	H	1.037504	-0.811094	0.474873
H126	H	1.537504	-0.311094	0.974873
H127	H	1.225619	-0.271448	1.079421
H128	H	1.725619	0.228552	1.579421
H129	H	0.835608	-0.271724	0.469437
H130	H	1.335608	0.228276	0.969437
H131	H	1.098937	-0.811213	0.245964
H132	H	1.598937	-0.311213	0.745964
Cl133	Cl	1.247804	-0.250530	0.659699
Cl134	Cl	1.747804	0.249470	1.159699
H135	H	1.043307	-0.443822	0.826519
H136	H	1.543307	0.056178	1.326519
H137	H	0.686890	-0.271737	0.469445
H138	H	1.186890	0.228263	0.969445
H139	H	1.231259	-0.903576	0.281435
H140	H	1.731259	-0.403576	0.781435
Cl141	Cl	0.600936	-0.250743	0.491732
Cl142	Cl	1.100936	0.249257	0.991732
Cl143	Cl	1.299415	-0.799014	0.422635
Cl144	Cl	1.799415	-0.299014	0.922635
H145	H	1.169729	-0.903710	0.510436
H146	H	1.669729	-0.403710	1.010436
Cl147	Cl	1.021030	-0.464900	0.659624
Cl148	Cl	1.521030	0.035100	1.159624
Cl149	Cl	1.247859	-0.250510	0.844727
Cl150	Cl	1.747859	0.249490	1.344727
Cl151	Cl	1.247843	-0.250464	0.912542
Cl152	Cl	1.747843	0.249536	1.412542
H153	H	1.043350	-0.443763	1.079365
H154	H	1.543350	0.056237	1.579365
Cl155	Cl	1.021072	-0.464839	0.912474
Cl156	Cl	1.521072	0.035161	1.412474
Cl157	Cl	0.415899	-0.250752	0.491744
Cl158	Cl	0.915899	0.249248	0.991744
Cl159	Cl	0.415718	-0.464904	0.264746
Cl160	Cl	0.915718	0.035096	0.764746
H161	H	0.582620	-0.443862	0.286976
H162	H	1.082620	0.056138	0.786976
