data_functionalizedCrystal
_audit_creation_method	'MofGen! by Chris Wilmer'
_symmetry_space_group_name_H-M	'P1'
_symmetry_Int_Tables_number	1
_symmetry_cell_setting	triclinic
loop_
_symmetry_equiv_pos_as_xyz
  x,y,z
_cell_length_a	17.639617
_cell_length_b	16.120444
_cell_length_c	17.639306
_cell_angle_alpha	104.592119
_cell_angle_beta	65.670249
_cell_angle_gamma	104.620503
loop_
_atom_site_label
_atom_site_type_symbol
_atom_site_fract_x
_atom_site_fract_y
_atom_site_fract_z
Zn1	Zn	1.346190	-0.200768	-0.729156
Zn2	Zn	1.313518	-0.318762	-0.596037
Zn3	Zn	1.180514	-0.200736	-0.563448
Zn4	Zn	1.201677	-0.366358	-0.707803
O5	O	1.260475	-0.271656	-0.649111
O6	O	1.457998	-0.196514	-0.734073
O7	O	1.273345	-0.283173	-0.475590
O8	O	1.207308	-0.082045	-0.580727
O9	O	1.433994	-0.283204	-0.636271
O10	O	1.329029	-0.082069	-0.702472
O11	O	1.175628	-0.196459	-0.451646
O12	O	1.067180	-0.242612	-0.560022
O13	O	1.243377	-0.364325	-0.826760
O14	O	1.082728	-0.364294	-0.666079
O15	O	1.349550	-0.242666	-0.842448
O16	O	1.293866	-0.443770	-0.615566
O17	O	1.211697	-0.478739	-0.697680
C18	C	1.044840	-0.308615	-0.607198
C19	C	0.952593	-0.324450	-0.589287
C20	C	0.711718	-0.151376	-0.785378
C21	C	0.625034	-0.166274	-0.768533
C22	C	0.600039	-0.256338	-0.666531
C23	C	0.686723	-0.241451	-0.683371
C24	C	0.742556	-0.188969	-0.742795
C25	C	0.717561	-0.279044	-0.640788
C26	C	0.804237	-0.264154	-0.657623
C27	C	0.860075	-0.211672	-0.717042
C28	C	0.829232	-0.174079	-0.759630
C29	C	0.661725	-0.331521	-0.581360
C30	C	0.692563	-0.369113	-0.538777
C31	C	0.779241	-0.354229	-0.555616
C32	C	0.835079	-0.301747	-0.615035
C33	C	0.810084	-0.391822	-0.513028
C34	C	0.896760	-0.376932	-0.529864
C35	C	0.921755	-0.286857	-0.631871
C36	C	1.251558	-0.492030	-0.657865
C37	C	1.247825	-0.586299	-0.661652
C38	C	1.280079	-0.783555	-0.629682
C39	C	1.241026	-0.758880	-0.668578
C40	C	1.244810	-0.662847	-0.664723
C41	C	1.276296	-0.879597	-0.633536
C42	C	1.476952	-0.234553	-0.691189
C43	C	1.569202	-0.218742	-0.709120
C44	C	1.302469	-0.308808	-0.865556
C45	C	1.320364	-0.324641	-0.957792
C46	C	1.269452	-0.050420	-0.640346
C47	C	1.273278	0.043857	-0.636611
C48	C	1.124862	-0.151009	-1.198844
C49	C	1.141696	-0.165900	-1.285518
C50	C	1.243438	-0.256185	-1.310427
C51	C	1.226617	-0.241298	-1.223754
C52	C	1.167327	-0.188710	-1.167969
C53	C	1.269081	-0.278999	-1.192879
C54	C	1.252257	-0.264117	-1.106213
C55	C	1.192969	-0.211533	-1.050422
C56	C	1.150503	-0.173827	-1.081303
C57	C	1.328366	-0.331592	-1.248666
C58	C	1.370831	-0.369293	-1.217791
C59	C	1.354012	-0.354406	-1.131124
C60	C	1.294723	-0.301822	-1.075333
C61	C	1.396477	-0.392112	-1.100243
C62	C	1.379653	-0.377229	-1.013577
C63	C	1.277899	-0.286940	-0.988667
C64	C	1.218695	-0.234578	-0.433515
C65	C	1.200970	-0.218480	-0.341302
H66	H	0.554568	-0.299066	-0.618146
Cl67	Cl	1.185014	-0.837615	-0.724457
Cl68	Cl	1.075975	-0.107705	-1.011167
H69	H	0.591146	-0.343620	-0.567636
H70	H	1.316352	-0.732561	-0.593489
Cl71	Cl	1.050335	-0.084886	-1.128708
Cl72	Cl	0.622365	-0.435086	-0.464073
H73	H	0.930651	-0.199547	-0.730746
H74	H	1.229629	-0.244107	-0.943243
Cl75	Cl	1.088331	-0.118468	-1.324332
Cl76	Cl	1.317968	-0.322297	-1.380564
Cl77	Cl	1.171810	-0.192830	-0.941468
Cl78	Cl	1.349519	-0.350299	-1.357619
H79	H	1.419101	-0.412114	-1.263222
Cl80	Cl	0.739883	-0.457785	-0.438318
Cl81	Cl	0.899430	-0.108108	-0.834343
Cl82	Cl	0.781917	-0.085405	-0.860091
H83	H	1.414244	-0.407916	-0.988441
Cl84	Cl	0.991953	-0.220886	-0.706583
Cl85	Cl	0.586270	-0.119003	-0.822069
Cl86	Cl	1.470999	-0.458231	-1.170381
Cl87	Cl	0.935532	-0.424201	-0.476338
