data_functionalizedCrystal
_audit_creation_method	'MofGen! by Chris Wilmer'
_symmetry_space_group_name_H-M	'P1'
_symmetry_Int_Tables_number	1
_symmetry_cell_setting	triclinic
loop_
_symmetry_equiv_pos_as_xyz
  x,y,z
_cell_length_a	18.050591
_cell_length_b	13.897448
_cell_length_c	13.897441
_cell_angle_alpha	90.030599
_cell_angle_beta	89.972099
_cell_angle_gamma	89.986302
loop_
_atom_site_label
_atom_site_type_symbol
_atom_site_fract_x
_atom_site_fract_y
_atom_site_fract_z
Zn1	Zn	1.135398	0.384087	-0.545566
Zn2	Zn	1.468731	0.717420	-0.212232
Zn3	Zn	1.802065	1.050754	0.121101
Zn4	Zn	1.135316	0.545409	-0.384267
Zn5	Zn	1.468650	0.878742	-0.050934
Zn6	Zn	1.801983	1.212075	0.282400
Zn7	Zn	1.011202	0.384118	-0.384264
Zn8	Zn	1.344535	0.717451	-0.050930
Zn9	Zn	1.677869	1.050785	0.282403
Zn10	Zn	1.011188	0.545330	-0.545499
Zn11	Zn	1.344521	0.878664	-0.212166
Zn12	Zn	1.677855	1.211997	0.121167
O13	O	1.073276	0.464736	-0.464899
O14	O	1.406609	0.798069	-0.131566
O15	O	1.739943	1.131403	0.201768
O16	O	1.239312	0.405506	-0.524198
O17	O	1.572645	0.738840	-0.190865
O18	O	1.905978	1.072173	0.142469
O19	O	1.118824	0.524059	-0.249285
O20	O	1.452157	0.857392	0.084049
O21	O	1.785491	1.190725	0.417382
O22	O	1.027717	0.249132	-0.405687
O23	O	1.361050	0.582465	-0.072354
O24	O	1.694384	0.915799	0.260979
O25	O	1.239252	0.524029	-0.405693
O26	O	1.572585	0.857362	-0.072359
O27	O	1.905919	1.190695	0.260974
O28	O	1.118963	0.249109	-0.524195
O29	O	1.452297	0.582443	-0.190862
O30	O	1.785630	0.915776	0.142472
O31	O	1.027638	0.405559	-0.249282
O32	O	1.360971	0.738893	0.084051
O33	O	1.694305	1.072226	0.417384
O34	O	0.907276	0.405483	-0.405623
O35	O	1.240609	0.738817	-0.072290
O36	O	1.573942	1.072150	0.261044
O37	O	1.027693	0.523895	-0.680490
O38	O	1.361026	0.857229	-0.347157
O39	O	1.694360	1.190562	-0.013823
O40	O	0.907265	0.523925	-0.524082
O41	O	1.240599	0.857259	-0.190749
O42	O	1.573932	1.190592	0.142585
O43	O	1.118950	0.405430	-0.680539
O44	O	1.452283	0.738764	-0.347205
O45	O	1.785616	1.072097	-0.013872
O46	O	1.118810	0.680380	-0.405628
O47	O	1.452144	1.013713	-0.072295
O48	O	1.785477	1.347046	0.261038
O49	O	1.027614	0.680322	-0.524085
O50	O	1.360947	1.013656	-0.190752
O51	O	1.694281	1.346989	0.142581
C52	C	1.073222	0.715350	-0.464871
C53	C	1.406555	1.048684	-0.131538
C54	C	1.739889	1.382017	0.201796
C55	C	1.073267	0.822564	-0.464891
C56	C	1.406600	1.155897	-0.131558
C57	C	1.739933	1.489231	0.201775
C58	C	0.880324	0.464700	-0.464846
C59	C	1.213657	0.798033	-0.131512
C60	C	1.546991	1.131367	0.201821
C61	C	0.797778	0.464708	-0.464846
C62	C	1.131112	0.798041	-0.131512
C63	C	1.464445	1.131375	0.201821
C64	C	1.073329	0.464651	-0.716492
C65	C	1.406662	0.797984	-0.383159
C66	C	1.739996	1.131317	-0.049825
C67	C	1.073351	0.464614	-0.823706
C68	C	1.406685	0.797948	-0.490373
C69	C	1.740018	1.131281	-0.157039
C70	C	0.598312	0.400224	-0.400576
C71	C	0.931645	0.733558	-0.067243
C72	C	1.264978	1.066891	0.266091
C73	C	0.548902	0.488207	-0.376841
C74	C	0.882236	0.821540	-0.043507
C75	C	1.215569	1.154873	0.289826
C76	C	0.646648	0.464737	-0.464889
C77	C	0.979981	0.798070	-0.131556
C78	C	1.313315	1.131404	0.201777
C79	C	0.548976	0.376785	-0.488622
C80	C	0.882309	0.710119	-0.155289
C81	C	1.215642	1.043452	0.178045
C82	C	0.500663	0.464758	-0.464930
C83	C	0.833996	0.798091	-0.131596
C84	C	1.167329	1.131424	0.201737
C85	C	0.598326	0.552766	-0.441108
C86	C	0.931659	0.886099	-0.107775
C87	C	1.264992	1.219432	0.225559
C88	C	0.598403	0.441285	-0.552930
C89	C	0.931737	0.774618	-0.219597
C90	C	1.265070	1.107952	0.113736
C91	C	0.549016	0.529328	-0.529228
C92	C	0.882350	0.862661	-0.195895
C93	C	1.215683	1.195995	0.137438
C94	C	0.730746	0.464724	-0.464864
C95	C	1.064080	0.798057	-0.131530
C96	C	1.397413	1.131391	0.201803
C97	C	0.416566	0.464781	-0.464955
C98	C	0.749900	0.798114	-0.131622
C99	C	1.083233	1.131447	0.201711
C100	C	1.266982	0.464773	-0.464953
C101	C	1.600315	0.798106	-0.131620
C102	C	1.933648	1.131439	0.201714
C103	C	1.349528	0.464788	-0.464976
C104	C	1.682861	0.798122	-0.131643
C105	C	2.016194	1.131455	0.201691
C106	C	1.073351	0.213143	-0.464948
C107	C	1.406684	0.546476	-0.131615
C108	C	1.740017	0.879810	0.201719
C109	C	1.073383	0.105929	-0.464969
C110	C	1.406716	0.439262	-0.131636
C111	C	1.740049	0.772596	0.201698
C112	C	1.073345	1.018859	-0.464952
C113	C	1.406678	1.352193	-0.131619
C114	C	1.740011	1.685526	0.201715
C115	C	1.073299	0.909627	-0.464921
C116	C	1.406633	1.242960	-0.131588
C117	C	1.739966	1.576293	0.201746
C118	C	1.073371	0.464549	-1.020001
C119	C	1.406705	0.797882	-0.686668
C120	C	1.740038	1.131216	-0.353335
C121	C	1.073358	0.464588	-0.910769
C122	C	1.406691	0.797921	-0.577435
C123	C	1.740025	1.131255	-0.244102
C124	C	1.073266	0.464751	-0.214285
C125	C	1.406600	0.798085	0.119049
C126	C	1.739933	1.131418	0.452382
C127	C	1.073388	0.464516	-0.107071
C128	C	1.406721	0.797849	0.226262
C129	C	1.740055	1.131183	0.559595
H130	H	0.619957	0.345727	-0.346129
H131	H	0.953290	0.679060	-0.012796
H132	H	1.286623	1.012393	0.320537
H133	H	0.527160	0.508058	-0.302403
H134	H	0.860494	0.841391	0.030930
H135	H	1.193827	1.174725	0.364263
H136	H	0.619913	0.627176	-0.420969
H137	H	0.953246	0.960509	-0.087636
H138	H	1.286579	1.293843	0.245697
H139	H	0.527508	0.583956	-0.583633
H140	H	0.860841	0.917289	-0.250300
H141	H	1.194174	1.250623	0.083033
H142	H	0.620163	0.421407	-0.627345
H143	H	0.953497	0.754740	-0.294012
H144	H	1.286830	1.088074	0.039321
Br145	Br	0.512836	0.252804	-0.522048
Br146	Br	0.846169	0.586137	-0.188714
Br147	Br	1.179503	0.919471	0.144619
