data_functionalizedCrystal
_audit_creation_method	'MofGen! by Chris Wilmer'
_symmetry_space_group_name_H-M	'P1'
_symmetry_Int_Tables_number	1
_symmetry_cell_setting	triclinic
loop_
_symmetry_equiv_pos_as_xyz
  x,y,z
_cell_length_a	10.489716
_cell_length_b	10.723024
_cell_length_c	9.198806
_cell_angle_alpha	89.997723
_cell_angle_beta	89.996408
_cell_angle_gamma	84.498503
loop_
_atom_site_label
_atom_site_type_symbol
_atom_site_fract_x
_atom_site_fract_y
_atom_site_fract_z
O1	O	-1.693959	-0.175915	0.120877
O2	O	-1.322748	-0.192473	0.120882
O3	O	-1.516916	-0.002623	0.120874
O4	O	-1.499791	-0.365766	0.120885
O5	O	-1.516901	-0.002621	-0.120911
O6	O	-1.322733	-0.192472	-0.120903
O7	O	-1.693943	-0.175914	-0.120908
Cu8	Cu	-1.508337	-0.184193	-0.142983
Cu9	Cu	-1.508355	-0.184194	0.142956
O10	O	-1.499776	-0.365764	-0.120900
C11	C	-1.275209	-0.191228	-0.000010
C12	C	-1.133581	-0.187506	-0.000008
C13	C	-1.515662	0.043879	-0.000017
C14	C	-1.511934	0.182435	-0.000012
C15	C	-1.741482	-0.177158	-0.000013
C16	C	-1.883111	-0.180881	-0.000006
C17	C	-1.035832	-0.303929	-0.000001
C18	C	-0.958518	-0.242408	-0.119222
C19	C	-0.958540	-0.242382	0.119159
C20	C	-1.058132	-0.126034	-0.119328
C21	C	-1.058159	-0.126025	0.119161
C22	C	-0.980894	-0.064419	-0.000090
N23	N	-1.508333	-0.184191	-0.344097
C24	C	-1.501030	-0.412265	-0.000006
C25	C	-1.504758	-0.550822	-0.000002
C26	C	-1.620580	0.257360	-0.000011
C27	C	-1.616728	0.400566	-0.000006
C28	C	-1.582712	-0.256591	-0.416293
C29	C	-1.582732	-0.256589	-0.583706
N30	N	-1.508369	-0.184187	0.344070
H31	H	-1.060437	-0.405199	-0.000109
C32	C	-0.926921	-0.434075	-0.255058
C33	C	-0.899754	-0.308748	-0.255277
H34	H	-0.890637	-0.475035	-0.339045
H35	H	-1.017049	-0.437610	-0.255590
H36	H	-0.891479	-0.474579	-0.170397
H37	H	-0.935204	-0.268241	-0.339933
H38	H	-0.809608	-0.305205	-0.254759
C39	C	-1.249632	-0.063919	-0.254338
C40	C	-1.116627	-0.059737	-0.255540
H41	H	-1.285742	-0.022999	-0.338435
H42	H	-1.284598	-0.022863	-0.169796
H43	H	-1.268757	-0.148735	-0.253991
H44	H	-1.097502	0.025079	-0.255876
H45	H	-1.081650	-0.100790	-0.340105
C46	C	-1.797007	-0.306982	-0.630789
C47	C	-1.668705	-0.340273	-0.667504
H48	H	-1.850082	-0.358653	-0.682520
H49	H	-1.819699	-0.221774	-0.655671
H50	H	-1.808256	-0.317963	-0.529277
H51	H	-1.657454	-0.329283	-0.769015
H52	H	-1.646005	-0.425501	-0.642632
H53	H	-1.716446	0.215488	-0.000022
H54	H	-1.709738	0.464949	-0.000012
H55	H	-1.444672	-0.122202	-0.406227
H56	H	-1.444680	-0.122205	-0.593852
H57	H	-1.416067	0.224307	-0.000001
C58	C	-0.998733	0.133048	-0.125105
C59	C	-0.947982	0.072385	-0.000183
H60	H	-0.978404	0.217500	-0.125169
H61	H	-1.089100	0.131387	-0.125890
H62	H	-0.963095	0.091405	-0.208979
H63	H	-0.983628	0.114023	0.083691
H64	H	-0.857598	0.074054	0.000615
C65	C	-1.274917	0.434623	-0.000001
C66	C	-1.379184	0.362281	-0.000004
H67	H	-1.197394	0.380967	-0.000011
H68	H	-1.278318	0.485964	0.084313
H69	H	-1.278316	0.485983	-0.084320
H70	H	-1.375790	0.310927	0.084321
H71	H	-1.375780	0.310918	-0.084326
C72	C	-1.066463	-0.120928	0.379944
C73	C	-1.116963	-0.059747	0.255223
H74	H	-1.102777	-0.080022	0.463949
H75	H	-0.976171	-0.118703	0.381405
H76	H	-1.086214	-0.205549	0.379071
H77	H	-1.097204	0.024872	0.256090
H78	H	-1.207276	-0.061959	0.253761
H79	H	-0.915031	-0.291553	0.219936
C80	C	-1.635191	-0.465885	-0.369124
C81	C	-1.668663	-0.340276	-0.332438
H82	H	-1.688261	-0.517547	-0.317362
H83	H	-1.548149	-0.488448	-0.344261
H84	H	-1.646483	-0.476848	-0.470630
H85	H	-1.657362	-0.329311	-0.230933
H86	H	-1.755726	-0.317706	-0.357291
