data_functionalizedCrystal
_audit_creation_method	'MofGen! by Chris Wilmer'
_symmetry_space_group_name_H-M	'P1'
_symmetry_Int_Tables_number	1
_symmetry_cell_setting	triclinic
loop_
_symmetry_equiv_pos_as_xyz
  x,y,z
_cell_length_a	18.627244
_cell_length_b	18.627297
_cell_length_c	18.627178
_cell_angle_alpha	89.999062
_cell_angle_beta	60.000487
_cell_angle_gamma	119.999538
loop_
_atom_site_label
_atom_site_type_symbol
_atom_site_fract_x
_atom_site_fract_y
_atom_site_fract_z
O1	O	-0.513793	-0.492510	1.125706
O2	O	-0.366795	-0.388108	0.874306
O3	O	-0.513794	-0.388109	1.021306
O4	O	-0.366794	-0.492508	0.978706
O5	O	-0.633196	-0.507510	1.021306
O6	O	-0.486197	-0.507509	0.874306
O7	O	-0.633195	-0.611911	1.125706
Zn8	Zn	-0.578653	-0.578667	1.000006
Zn9	Zn	-0.421337	-0.421351	1.000006
O10	O	-0.486196	-0.611910	0.978706
C11	C	-0.643997	-0.257010	1.031001
C12	C	-0.593601	-0.162313	1.024905
C13	C	-0.601198	-0.300611	1.031608
C14	C	-0.773995	-0.387011	1.031001
C15	C	-0.862596	-0.431311	1.024904
C16	C	-0.731000	-0.430414	1.031608
C17	C	-0.643994	-0.387009	1.031001
C18	C	-0.593596	-0.431308	1.024904
C19	C	-0.731003	-0.300612	1.031608
O20	O	-1.104400	-0.492519	0.978705
O21	O	-0.895601	-0.388113	1.021305
O22	O	-0.895602	-0.388115	0.874305
O23	O	-1.104400	-0.492518	1.125705
O24	O	-0.895596	-0.507514	0.874305
O25	O	-0.895596	-0.507513	1.021306
O26	O	-1.104395	-0.611918	0.978706
Zn27	Zn	-0.999995	-0.578673	1.000006
Zn28	Zn	-1.000002	-0.421359	1.000005
O29	O	-1.104395	-0.611917	1.125706
C30	C	-0.643995	-0.387013	0.613007
C31	C	-0.593597	-0.431312	0.568708
C32	C	-0.601199	-0.300615	0.569600
C33	C	-0.773996	-0.387013	0.743006
C34	C	-0.862596	-0.431313	0.837703
C35	C	-0.731003	-0.300615	0.699402
C36	C	-0.643997	-0.257014	0.613003
C37	C	-0.593602	-0.162318	0.568701
C38	C	-0.731000	-0.430417	0.699406
C39	C	-0.356003	-0.743015	0.969011
C40	C	-0.406401	-0.837712	0.975108
C41	C	-0.268997	-0.699416	0.968403
C42	C	-0.356000	-0.613013	0.969011
C43	C	-0.406396	-0.568711	0.975107
C44	C	-0.268994	-0.569611	0.968403
C45	C	-0.226001	-0.613017	0.969010
C46	C	-0.137401	-0.568719	0.975107
C47	C	-0.398799	-0.699412	0.968403
O48	O	-0.366802	0.125686	0.978707
O49	O	-0.513801	-0.125713	1.021306
O50	O	-0.366802	0.021288	0.874306
O51	O	-0.513801	-0.021315	1.125706
O52	O	-0.486203	0.021289	0.874306
O53	O	-0.633202	-0.125711	1.021306
O54	O	-0.486203	0.125687	0.978706
Zn55	Zn	-0.578660	-0.000011	1.000006
Zn56	Zn	-0.421344	-0.000014	1.000006
O57	O	-0.633202	-0.021313	1.125706
O58	O	-0.486175	0.125692	0.507508
O59	O	-0.633190	-0.125711	0.611907
O60	O	-0.486160	0.021280	0.611883
O61	O	-0.633206	-0.021299	0.507532
O62	O	-0.366784	0.021269	0.492465
O63	O	-0.513815	-0.125721	0.492490
O64	O	-0.366800	0.125681	0.388091
Zn65	Zn	-0.421354	-0.000022	0.421330
Zn66	Zn	-0.578636	-0.000008	0.578668
O67	O	-0.513830	-0.021309	0.388115
O68	O	-0.366789	-0.492505	0.388106
O69	O	-0.513797	-0.388113	0.492506
O70	O	-0.366794	-0.388107	0.492506
O71	O	-0.513792	-0.492511	0.388106
O72	O	-0.486192	-0.507509	0.611909
O73	O	-0.633195	-0.507515	0.611909
O74	O	-0.486188	-0.611907	0.507509
Zn75	Zn	-0.578648	-0.578669	0.578667
Zn76	Zn	-0.421336	-0.421351	0.421348
O77	O	-0.633190	-0.611913	0.507509
C78	C	-0.643989	-0.613013	1.387006
C79	C	-0.593592	-0.568714	1.431306
C80	C	-0.730994	-0.699412	1.430411
C81	C	-0.643990	-0.613013	1.257005
C82	C	-0.593594	-0.568712	1.162308
C83	C	-0.730996	-0.699411	1.300608
C84	C	-0.773989	-0.743013	1.387007
C85	C	-0.862589	-0.837710	1.431308
C86	C	-0.601193	-0.569609	1.300607
C87	C	-0.226019	-0.256994	0.613014
C88	C	-0.137422	-0.162296	0.568716
C89	C	-0.269017	-0.300593	0.569611
C90	C	-0.356009	-0.387000	0.743010
C91	C	-0.406398	-0.431305	0.837705
C92	C	-0.398809	-0.430402	0.699410
C93	C	-0.356019	-0.386993	0.613014
C94	C	-0.406420	-0.431291	0.568716
C95	C	-0.269006	-0.300600	0.699410
C96	C	-1.356003	-0.743028	1.387002
C97	C	-1.406384	-0.837720	1.431305
C98	C	-1.398821	-0.699438	1.430400
C99	C	-1.226011	-0.613027	1.257001
C100	C	-1.137403	-0.568721	1.162307
C101	C	-1.269027	-0.569635	1.300597
C102	C	-1.356039	-0.613045	1.386992
C103	C	-1.406457	-0.568759	1.431285
C104	C	-1.268991	-0.699420	1.300606
C105	C	-0.356002	0.030988	0.613004
C106	C	-0.406397	0.024893	0.568702
C107	C	-0.268997	0.031594	0.569601
C108	C	-0.356004	0.030985	0.743007
C109	C	-0.406402	0.024888	0.837704
C110	C	-0.268999	0.031592	0.699406
C111	C	-0.226004	0.030985	0.613007
C112	C	-0.137404	0.024888	0.568707
C113	C	-0.398800	0.031594	0.699403
O114	O	-1.104368	-1.125715	1.492499
O115	O	-0.895592	-0.874312	1.388108
O116	O	-0.895569	-1.021300	1.388098
O117	O	-1.104391	-0.978727	1.492509
O118	O	-0.895569	-1.021300	1.507501
O119	O	-0.895592	-0.874312	1.507511
O120	O	-1.104368	-1.125716	1.611901
Zn121	Zn	-0.999980	-1.000014	1.578664
Zn122	Zn	-0.999980	-1.000013	1.421346
O123	O	-1.104391	-0.978728	1.611911
C124	C	-0.773994	-0.031011	1.387008
C125	C	-0.862594	-0.024914	1.431311
C126	C	-0.730998	-0.031620	1.430411
C127	C	-0.643996	-0.031010	1.257006
C128	C	-0.593601	-0.024913	1.162308
C129	C	-0.601197	-0.031619	1.300606
C130	C	-0.643992	-0.031013	1.387005
C131	C	-0.593594	-0.024918	1.431304
C132	C	-0.731001	-0.031617	1.300609
H133	H	-0.531189	-0.265602	1.032589
C134	C	-0.779590	-0.253315	1.032891
H135	H	-0.741494	-0.195501	1.033149
H136	H	-0.779933	-0.250336	0.982163
H137	H	-0.847312	-0.284923	1.084154
H138	H	-0.766986	-0.032602	1.501402
H139	H	-0.233014	-0.265594	0.734409
H140	H	-0.468819	-0.501391	0.734418
C141	C	-0.220380	-0.473714	0.967081
H142	H	-0.258468	-0.453991	0.966810
H143	H	-0.220015	-0.470362	1.017795
H144	H	-0.152665	-0.437624	0.915805
C145	C	-0.779602	-0.526309	1.032924
H146	H	-0.837681	-0.546031	1.033194
H147	H	-0.731871	-0.529657	0.982208
H148	H	-0.799251	-0.562403	1.084198
H149	H	-1.468831	-0.734449	1.501390
H150	H	-0.766987	-0.032591	1.265607
C151	C	-0.493382	-0.746694	0.967092
H152	H	-0.512823	-0.708327	0.966823
H153	H	-0.478226	-0.763159	0.915837
H154	H	-0.547457	-0.797762	1.017827
H155	H	-0.766973	-0.734415	1.501400
C156	C	-0.506628	-0.032951	1.253326
H157	H	-0.487189	-0.033228	1.291694
H158	H	-0.521804	-0.084212	1.236870
H159	H	-0.452544	0.017777	1.202253
H160	H	-1.233001	-0.734422	1.265606
C161	C	-0.779491	-0.746761	1.253263
H162	H	-0.741367	-0.708420	1.195434
H163	H	-0.779757	-0.797797	1.250318
H164	H	-0.847235	-0.763282	1.284808
H165	H	-0.233016	0.032572	0.498611
C166	C	-0.506596	-0.473721	1.253305
H167	H	-0.487139	-0.454003	1.291662
H168	H	-0.452544	-0.470393	1.202233
H169	H	-0.521753	-0.437611	1.236850
H170	H	-0.766987	-0.265612	0.734412
H171	H	-0.233023	0.032563	0.734418
H172	H	-0.233031	-0.265583	0.498622
H173	H	-0.531200	-0.265619	0.498605
C174	C	-1.220429	-0.473740	1.253311
H175	H	-1.162340	-0.454012	1.195505
H176	H	-1.268154	-0.470392	1.250313
H177	H	-1.200795	-0.437651	1.284944
C178	C	-0.779630	-0.526323	0.746689
H179	H	-0.741546	-0.546047	0.708327
H180	H	-0.780011	-0.529698	0.797776
H181	H	-0.847341	-0.562397	0.763117
H182	H	-0.468811	0.032573	0.734405
C183	C	-0.220388	-0.746704	0.967084
H184	H	-0.258486	-0.804517	0.966826
H185	H	-0.152674	-0.715081	0.915819
H186	H	-0.220035	-0.749697	1.017809
