data_functionalizedCrystal
_audit_creation_method	'MofGen! by Chris Wilmer'
_symmetry_space_group_name_H-M	'P1'
_symmetry_Int_Tables_number	1
_symmetry_cell_setting	triclinic
loop_
_symmetry_equiv_pos_as_xyz
  x,y,z
_cell_length_a	17.077404
_cell_length_b	12.827892
_cell_length_c	17.077396
_cell_angle_alpha	90.024877
_cell_angle_beta	90.019501
_cell_angle_gamma	90.015617
loop_
_atom_site_label
_atom_site_type_symbol
_atom_site_fract_x
_atom_site_fract_y
_atom_site_fract_z
Zn1	Zn	1.200096	-0.416027	0.443862
Zn2	Zn	1.700096	0.083973	0.943862
Zn3	Zn	1.200020	-0.590789	0.312605
Zn4	Zn	1.700020	-0.090789	0.812605
Zn5	Zn	1.068827	-0.416063	0.312610
Zn6	Zn	1.568827	0.083937	0.812610
Zn7	Zn	1.068812	-0.590727	0.443828
Zn8	Zn	1.568812	-0.090727	0.943828
O9	O	1.134439	-0.503402	0.378226
O10	O	1.634439	-0.003402	0.878226
O11	O	1.309932	-0.439220	0.426463
O12	O	1.809932	0.060780	0.926463
O13	O	1.182591	-0.567653	0.202758
O14	O	1.682591	-0.067653	0.702758
O15	O	1.086278	-0.269823	0.330038
O16	O	1.586278	0.230177	0.830038
O17	O	1.309877	-0.567617	0.330028
O18	O	1.809877	-0.067617	0.830028
O19	O	1.182720	-0.269796	0.426468
O20	O	1.682720	0.230204	0.926468
O21	O	1.086205	-0.439282	0.202763
O22	O	1.586205	0.060718	0.702763
O23	O	0.958978	-0.439222	0.330005
O24	O	1.458978	0.060778	0.830005
O25	O	1.086253	-0.567511	0.553680
O26	O	1.586253	-0.067511	1.053680
O27	O	0.958968	-0.567547	0.426410
O28	O	1.458968	-0.067547	0.926410
O29	O	1.182706	-0.439160	0.553705
O30	O	1.682706	0.060840	1.053705
O31	O	1.182577	-0.737017	0.329995
O32	O	1.682577	-0.237017	0.829995
O33	O	1.086179	-0.736971	0.426404
O34	O	1.586179	-0.236971	0.926404
C35	C	0.930491	-0.503383	0.378205
C36	C	1.430491	-0.003383	0.878205
C37	C	0.843241	-0.503400	0.378214
C38	C	1.343241	-0.003400	0.878214
C39	C	0.802266	-0.570319	0.428332
C40	C	1.302266	-0.070319	0.928332
C41	C	0.720285	-0.570321	0.428344
C42	C	1.220285	-0.070321	0.928344
C43	C	0.679282	-0.503409	0.378235
C44	C	1.179282	-0.003409	0.878235
C45	C	0.720263	-0.436482	0.328115
C46	C	1.220263	0.063518	0.828115
C47	C	0.802242	-0.436475	0.328107
C48	C	1.302242	0.063525	0.828107
C49	C	0.549393	-0.436502	0.328134
C50	C	1.049393	0.063498	0.828134
C51	C	0.467408	-0.436510	0.328140
C52	C	0.967408	0.063490	0.828140
C53	C	0.467436	-0.570349	0.428371
C54	C	0.967436	-0.070349	0.928371
C55	C	0.549415	-0.570342	0.428363
C56	C	1.049415	-0.070342	0.928363
C57	C	0.590391	-0.503416	0.378242
C58	C	1.090391	-0.003416	0.878242
C59	C	1.134390	-0.774912	0.378213
C60	C	1.634390	-0.274912	0.878213
C61	C	1.134440	-0.891065	0.378233
C62	C	1.634440	-0.391065	0.878233
C63	C	1.182198	-0.942837	0.330579
C64	C	1.682198	-0.442837	0.830579
C65	C	1.182251	-1.062888	0.330599
C66	C	1.682251	-0.562888	0.830599
C67	C	1.339183	-0.503421	0.378249
C68	C	1.839183	-0.003421	0.878249
C69	C	1.426433	-0.503430	0.378258
C70	C	1.926433	-0.003430	0.878258
C71	C	1.134486	-0.503325	0.582971
C72	C	1.634486	-0.003325	1.082971
C73	C	1.134506	-0.503292	0.670221
C74	C	1.634506	-0.003292	1.170221
C75	C	1.134509	-0.230831	0.378257
C76	C	1.634509	0.269169	0.878257
C77	C	1.134540	-0.114678	0.378271
C78	C	1.634540	0.385322	0.878271
C79	C	1.134437	-0.503403	0.174279
C80	C	1.634437	-0.003403	0.674279
C81	C	1.134568	-0.503141	0.087029
C82	C	1.634568	-0.003141	0.587029
C83	C	1.184731	-0.436454	0.711225
C84	C	1.684731	0.063546	1.211225
C85	C	1.184741	-0.436419	0.793206
C86	C	1.684741	0.063581	1.293206
C87	C	1.134529	-0.503228	0.834180
C88	C	1.634529	-0.003228	1.334180
C89	C	1.084298	-0.570069	0.793170
C90	C	1.584298	-0.070069	1.293170
C91	C	1.084285	-0.570098	0.711191
C92	C	1.584285	-0.070098	1.211191
C93	C	1.084330	-0.570007	0.964040
C94	C	1.584330	-0.070007	1.464040
C95	C	1.084344	-0.569980	1.046025
C96	C	1.584344	-0.069980	1.546025
C97	C	1.184785	-0.436327	1.046055
C98	C	1.684785	0.063673	1.546055
C99	C	1.184772	-0.436356	0.964076
C100	C	1.684772	0.063644	1.464076
C101	C	1.134543	-0.503199	0.923071
C102	C	1.634543	-0.003199	1.423071
H103	H	0.686927	-0.624815	0.469154
H104	H	1.186927	-0.124815	0.969154
Cl105	Cl	1.245376	-1.131622	0.267603
Cl106	Cl	1.745376	-0.631622	0.767603
Cl107	Cl	0.600962	-0.654469	0.491354
Cl108	Cl	1.100962	-0.154469	0.991354
Cl109	Cl	0.415925	-0.654469	0.491392
Cl110	Cl	0.915925	-0.154469	0.991392
H111	H	0.434025	-0.382012	0.287346
H112	H	0.934025	0.117988	0.787346
Cl113	Cl	0.600903	-0.352366	0.265123
Cl114	Cl	1.100903	0.147634	0.765123
H115	H	1.043412	-0.624463	0.826538
H116	H	1.543412	-0.124463	1.326538
Cl117	Cl	1.021182	-0.654038	0.912493
Cl118	Cl	1.521182	-0.154038	1.412493
H119	H	0.686871	-0.381996	0.287318
H120	H	1.186871	0.118004	0.787318
H121	H	0.835603	-0.381977	0.287300
H122	H	1.335603	0.118023	0.787300
Cl123	Cl	1.245271	-0.874061	0.267569
Cl124	Cl	1.745271	-0.374061	0.767569
H125	H	1.093647	-1.070163	0.419068
H126	H	1.593647	-0.570163	0.919068
Cl127	Cl	1.071377	-0.959841	0.441252
Cl128	Cl	1.571377	-0.459841	0.941252
Cl129	Cl	1.247919	-0.352436	0.844751
Cl130	Cl	1.747919	0.147564	1.344751
Cl131	Cl	0.853805	-0.654448	0.491327
Cl132	Cl	1.353805	-0.154448	0.991327
Cl133	Cl	1.247863	-0.352465	0.659722
Cl134	Cl	1.747863	0.147535	1.159722
Cl135	Cl	1.247902	-0.352372	0.912566
Cl136	Cl	1.747902	0.147628	1.412566
Cl137	Cl	1.247932	-0.352297	1.097603
Cl138	Cl	1.747932	0.147703	1.597603
H139	H	1.043455	-0.624379	1.079384
H140	H	1.543455	-0.124379	1.579384
H141	H	1.043379	-0.624514	0.677806
H142	H	1.543379	-0.124514	1.177806
