data_functionalizedCrystal
_audit_creation_method	'MofGen! by Chris Wilmer'
_symmetry_space_group_name_H-M	'P1'
_symmetry_Int_Tables_number	1
_symmetry_cell_setting	triclinic
loop_
_symmetry_equiv_pos_as_xyz
  x,y,z
_cell_length_a	14.853569
_cell_length_b	14.586319
_cell_length_c	16.109301
_cell_angle_alpha	90.000846
_cell_angle_beta	96.451349
_cell_angle_gamma	90.001147
loop_
_atom_site_label
_atom_site_type_symbol
_atom_site_fract_x
_atom_site_fract_y
_atom_site_fract_z
O1	O	-1.196183	-0.076180	0.108555
O2	O	-0.862850	0.257153	0.441888
O3	O	-0.529516	0.590486	0.775222
O4	O	-0.933702	-0.076192	0.121484
O5	O	-0.600369	0.257141	0.454817
O6	O	-0.267036	0.590475	0.788150
O7	O	-1.072153	-0.076191	-0.006001
O8	O	-0.738820	0.257143	0.327332
O9	O	-0.405487	0.590476	0.660665
O10	O	-1.057732	-0.076182	0.236040
O11	O	-0.724399	0.257151	0.569374
O12	O	-0.391066	0.590485	0.902707
O13	O	-1.072144	0.076290	-0.006003
O14	O	-0.738810	0.409623	0.327330
O15	O	-0.405477	0.742957	0.660663
O16	O	-0.933693	0.076289	0.121482
O17	O	-0.600360	0.409622	0.454815
O18	O	-0.267026	0.742955	0.788149
O19	O	-1.196173	0.076300	0.108553
O20	O	-0.862840	0.409634	0.441887
O21	O	-0.529507	0.742967	0.775220
Cu22	Cu	-1.064932	0.090217	0.115017
Cu23	Cu	-0.731599	0.423551	0.448351
Cu24	Cu	-0.398266	0.756884	0.781684
Cu25	Cu	-1.064944	-0.090109	0.115020
Cu26	Cu	-0.731610	0.243224	0.448353
Cu27	Cu	-0.398277	0.576558	0.781686
O28	O	-1.057723	0.076299	0.236038
O29	O	-0.724389	0.409632	0.569372
O30	O	-0.391056	0.742966	0.902705
C31	C	-0.900110	0.000047	0.120897
C32	C	-0.566777	0.333380	0.454230
C33	C	-0.233443	0.666713	0.787563
C34	C	-0.800029	0.000042	0.119140
C35	C	-0.466696	0.333375	0.452474
C36	C	-0.133363	0.666708	0.785807
N37	N	-1.064931	0.217049	0.115015
N38	N	-0.731598	0.550382	0.448349
N39	N	-0.398264	0.883716	0.781682
C40	C	-0.763779	0.000035	0.042587
C41	C	-0.430446	0.333369	0.375920
C42	C	-0.097112	0.666702	0.709254
C43	C	-0.742240	0.000051	0.194043
C44	C	-0.408906	0.333384	0.527377
C45	C	-0.075573	0.666718	0.860710
C46	C	-0.648208	0.000051	0.192396
C47	C	-0.314875	0.333385	0.525729
C48	C	0.018459	0.666718	0.859062
C49	C	-0.611958	0.000045	0.115843
C50	C	-0.278625	0.333378	0.449176
C51	C	0.054709	0.666712	0.782509
C52	C	-0.669739	0.000038	0.040937
C53	C	-0.336406	0.333372	0.374270
C54	C	-0.003073	0.666705	0.707604
C55	C	-0.590420	0.000067	0.267300
C56	C	-0.257087	0.333401	0.600633
C57	C	0.076247	0.666734	0.933966
C58	C	-0.496382	0.000069	0.265655
C59	C	-0.163049	0.333402	0.598988
C60	C	0.170284	0.666735	0.932322
C61	C	-0.460131	0.000056	0.189101
C62	C	-0.126797	0.333389	0.522434
C63	C	0.206536	0.666723	0.855768
C64	C	-0.517918	0.000048	0.114192
C65	C	-0.184585	0.333382	0.447526
C66	C	0.148748	0.666715	0.780859
C67	C	-0.481668	0.000042	0.037639
C68	C	-0.148335	0.333375	0.370973
C69	C	0.184999	0.666709	0.704306
C70	C	-0.539454	0.000028	-0.037270
C71	C	-0.206121	0.333361	0.296063
C72	C	0.127213	0.666694	0.629396
C73	C	-0.633488	0.000026	-0.035617
C74	C	-0.300154	0.333359	0.297716
C75	C	0.033179	0.666692	0.631050
C76	C	-0.366097	0.000058	0.187448
C77	C	-0.032764	0.333391	0.520781
C78	C	0.300570	0.666725	0.854114
C79	C	-0.387628	0.000045	0.035989
C80	C	-0.054295	0.333378	0.369322
C81	C	0.279038	0.666712	0.702656
C82	C	-0.229766	0.000058	0.109140
C83	C	0.103567	0.333391	0.442473
C84	C	0.436901	0.666725	0.775806
C85	C	-0.329847	0.000052	0.110895
C86	C	0.003486	0.333385	0.444228
C87	C	0.336820	0.666718	0.777561
N88	N	-1.064952	-0.216941	0.115015
N89	N	-0.731619	0.116393	0.448348
N90	N	-0.398286	0.449726	0.781682
C91	C	-1.126257	0.452056	0.058584
C92	C	-0.792924	0.785389	0.391917
C93	C	-0.459591	1.118723	0.725250
C94	C	-1.126260	0.548037	0.058582
C95	C	-0.792926	0.881371	0.391915
C96	C	-0.459593	1.214704	0.725248
C97	C	-1.003619	0.548045	0.171449
C98	C	-0.670286	0.881379	0.504783
C99	C	-0.336953	1.214712	0.838116
C100	C	-1.003613	0.452066	0.171447
C101	C	-0.670280	0.785399	0.504780
C102	C	-0.336946	1.118733	0.838113
C103	C	-1.064937	0.404074	0.115015
C104	C	-0.731604	0.737407	0.448348
C105	C	-0.398270	1.070740	0.781682
C106	C	-1.064946	0.596034	0.115016
C107	C	-0.731613	0.929368	0.448349
C108	C	-0.398279	1.262701	0.781682
C109	C	-1.064948	0.700102	0.115014
C110	C	-0.731615	1.033435	0.448347
C111	C	-0.398282	1.366768	0.781680
C112	C	-1.064934	0.300000	0.115015
C113	C	-0.731601	0.633333	0.448349
C114	C	-0.398267	0.966667	0.781682
C115	C	-1.058312	0.000060	0.267015
C116	C	-0.724978	0.333393	0.600348
C117	C	-0.391645	0.666726	0.933682
C118	C	-1.060063	0.000063	0.359313
C119	C	-0.726730	0.333397	0.692646
C120	C	-0.393396	0.666730	1.025979
C121	C	-1.071564	0.000046	-0.036978
C122	C	-0.738231	0.333380	0.296355
C123	C	-0.404898	0.666713	0.629689
C124	C	-1.069813	0.000037	-0.129276
C125	C	-0.736480	0.333370	0.204058
C126	C	-0.403146	0.666704	0.537391
C127	C	-0.981981	0.000046	0.581475
C128	C	-0.648648	0.333380	0.914808
C129	C	-0.315314	0.666713	1.248142
C130	C	-0.983634	0.000040	0.668198
C131	C	-0.650300	0.333373	1.001531
C132	C	-0.316967	0.666706	1.334864
C133	C	-1.147901	0.000051	0.648555
C134	C	-0.814568	0.333384	0.981889
C135	C	-0.481234	0.666718	1.315222
C136	C	-1.146247	0.000051	0.561834
C137	C	-0.812914	0.333385	0.895168
C138	C	-0.479581	0.666718	1.228501
C139	C	-1.063285	0.000054	0.528297
C140	C	-0.729952	0.333387	0.861630
C141	C	-0.396618	0.666720	1.194963
C142	C	-1.066591	0.000046	0.701740
C143	C	-0.733258	0.333380	1.035074
C144	C	-0.399924	0.666713	1.368407
C145	C	-1.068384	0.000039	0.795769
C146	C	-0.735050	0.333372	1.129102
C147	C	-0.401717	0.666706	1.462436
C148	C	-1.061492	0.000059	0.434262
C149	C	-0.728159	0.333393	0.767595
C150	C	-0.394825	0.666726	1.100929
H151	H	-0.358121	0.000035	-0.026350
H152	H	-0.024788	0.333368	0.306983
H153	H	0.308545	0.666702	0.640316
H154	H	-0.771760	0.000063	0.256370
H155	H	-0.438427	0.333396	0.589703
H156	H	-0.105094	0.666729	0.923036
F157	F	-1.232787	0.000054	0.505234
F158	F	-0.899453	0.333388	0.838567
F159	F	-0.566120	0.666721	1.171901
H160	H	-0.953675	0.412996	0.217400
H161	H	-0.620341	0.746329	0.550733
H162	H	-0.287008	1.079663	0.884067
H163	H	-0.914428	0.000052	0.554172
H164	H	-0.581094	0.333385	0.887505
H165	H	-0.247761	0.666718	1.220838
H166	H	-0.953692	0.587130	0.217396
H167	H	-0.620359	0.920464	0.550729
H168	H	-0.287025	1.253797	0.884063
H169	H	-1.215446	0.000058	0.675872
H170	H	-0.882113	0.333392	1.009206
H171	H	-0.548780	0.666725	1.342539
F172	F	-0.500863	0.000029	-0.118741
F173	F	-0.167530	0.333362	0.214592
F174	F	0.165804	0.666695	0.547926
H175	H	-0.319052	0.000078	0.248438
H176	H	0.014281	0.333411	0.581771
H177	H	0.347615	0.666744	0.915105
H178	H	-0.449340	0.000079	0.326651
H179	H	-0.116007	0.333412	0.659984
H180	H	0.217326	0.666745	0.993318
F181	F	-0.825278	0.000018	-0.037133
F182	F	-0.491944	0.333351	0.296200
F183	F	-0.158611	0.666685	0.629534
F184	F	-0.629005	0.000072	0.348767
F185	F	-0.295672	0.333406	0.682100
F186	F	0.037662	0.666739	1.015434
F187	F	-0.694992	0.000018	-0.115334
F188	F	-0.361659	0.333351	0.218000
F189	F	-0.028326	0.666685	0.551333
F190	F	-1.191521	0.400983	-0.001478
F191	F	-0.858188	0.734316	0.331855
F192	F	-0.524855	1.067649	0.665189
H193	H	-1.176191	0.587102	0.012630
H194	H	-0.842858	0.920435	0.345963
H195	H	-0.509524	1.253769	0.679296
H196	H	-0.917428	0.000032	0.711493
H197	H	-0.584095	0.333366	1.044826
H198	H	-0.250761	0.666699	1.378159
