data_functionalizedCrystal
_audit_creation_method	'MofGen! by Chris Wilmer'
_symmetry_space_group_name_H-M	'P1'
_symmetry_Int_Tables_number	1
_symmetry_cell_setting	triclinic
loop_
_symmetry_equiv_pos_as_xyz
  x,y,z
_cell_length_a	12.594517
_cell_length_b	12.594516
_cell_length_c	12.594510
_cell_angle_alpha	90.033582
_cell_angle_beta	90.023674
_cell_angle_gamma	90.011248
loop_
_atom_site_label
_atom_site_type_symbol
_atom_site_fract_x
_atom_site_fract_y
_atom_site_fract_z
Zn1	Zn	1.627314	-0.423666	0.601888
Zn2	Zn	1.627213	-0.601694	0.423910
Zn3	Zn	1.449313	-0.423728	0.423914
Zn4	Zn	1.449313	-0.601601	0.601838
O5	O	1.538288	-0.512672	0.512888
O6	O	1.776246	-0.447295	0.578298
O7	O	1.603572	-0.578151	0.274965
O8	O	1.472967	-0.274774	0.447545
O9	O	1.776172	-0.578091	0.447539
O10	O	1.603744	-0.274729	0.578302
O11	O	1.472870	-0.447401	0.274968
O12	O	1.300367	-0.447311	0.447496
O13	O	1.472967	-0.577933	0.750790
O14	O	1.300367	-0.577993	0.578216
O15	O	1.603744	-0.447205	0.750827
O16	O	1.603572	-0.750628	0.447490
O17	O	1.472870	-0.750559	0.578213
C18	C	1.261747	-0.512649	0.512852
C19	C	1.143442	-0.512665	0.512862
C20	C	1.003394	-0.441509	0.441926
C21	C	1.074253	-0.415566	0.539052
C22	C	1.074154	-0.538560	0.415746
C23	C	1.003515	-0.486714	0.610117
C24	C	1.003410	-0.609753	0.486746
C25	C	1.074237	-0.583847	0.583939
C26	C	1.538239	-0.789213	0.512869
C27	C	1.538315	-0.907519	0.512897
C28	C	1.609487	-0.976770	0.441873
C29	C	1.635500	-1.047457	0.539022
C30	C	1.512435	-1.047631	0.415809
C31	C	1.564378	-0.976648	0.610098
C32	C	1.441268	-0.976815	0.486818
C33	C	1.467244	-1.047470	0.584035
C34	C	1.815909	-0.512696	0.512924
C35	C	1.934214	-0.512707	0.512939
C36	C	1.538367	-0.512552	0.790509
C37	C	1.538400	-0.512500	0.908814
C38	C	1.538367	-0.235052	0.512929
C39	C	1.538400	-0.116746	0.512947
C40	C	1.538271	-0.512716	0.236347
C41	C	1.538444	-0.512468	0.118042
C42	C	1.609554	-0.441376	1.048851
C43	C	1.635549	-0.538497	0.978031
C44	C	1.512452	-0.415390	0.978062
C45	C	1.564490	-0.609640	1.048780
C46	C	1.441348	-0.486468	1.048817
C47	C	1.467305	-0.583656	0.978029
H48	H	1.105353	-0.333474	0.561193
H49	H	0.972615	-0.464734	0.692303
Br50	Br	1.709812	-0.925025	0.341851
Br51	Br	1.125754	-0.684177	0.684086
Br52	Br	1.475842	-0.278537	0.926278
H53	H	0.972269	-0.691818	0.464590
H54	H	1.490511	-1.078809	0.333682
H55	H	1.359185	-0.945759	0.464703
H56	H	1.717607	-1.078491	0.561108
Br57	Br	1.709886	-0.341271	1.100683
Br58	Br	1.125881	-0.575036	0.278807
Br59	Br	1.367038	-0.683992	0.926528
H60	H	1.359278	-0.464426	1.079935
H61	H	0.972292	-0.381271	0.381979
Br62	Br	1.601095	-0.924910	0.747019
Br63	Br	1.366986	-1.098890	0.684289
Br64	Br	1.772376	-0.575191	0.926208
H65	H	1.586573	-0.691768	1.079714
