data_functionalizedCrystal
_audit_creation_method	'MofGen! by Chris Wilmer'
_symmetry_space_group_name_H-M	'P1'
_symmetry_Int_Tables_number	1
_symmetry_cell_setting	triclinic
loop_
_symmetry_equiv_pos_as_xyz
  x,y,z
_cell_length_a	14.971506
_cell_length_b	19.288857
_cell_length_c	14.048226
_cell_angle_alpha	90.009213
_cell_angle_beta	90.001638
_cell_angle_gamma	83.377748
loop_
_atom_site_label
_atom_site_type_symbol
_atom_site_fract_x
_atom_site_fract_y
_atom_site_fract_z
O1	O	1.186436	0.090586	0.079172
O2	O	1.686436	0.590586	0.579172
O3	O	0.925979	0.101411	0.079173
O4	O	1.425979	0.601411	0.579173
O5	O	1.063737	-0.005108	0.079161
O6	O	1.563737	0.494892	0.579161
O7	O	1.048678	0.197104	0.079184
O8	O	1.548678	0.697104	0.579184
O9	O	1.063734	-0.005116	-0.079160
O10	O	1.563734	0.494884	0.420840
O11	O	0.925977	0.101402	-0.079148
O12	O	1.425977	0.601402	0.420852
O13	O	1.186433	0.090577	-0.079149
O14	O	1.686433	0.590577	0.420851
Zn15	Zn	1.056204	0.095988	-0.104286
Zn16	Zn	1.556204	0.595988	0.395714
Zn17	Zn	1.056208	0.096000	0.104309
Zn18	Zn	1.556208	0.596000	0.604309
O19	O	1.048675	0.197095	-0.079137
O20	O	1.548675	0.697095	0.420863
C21	C	0.892656	0.100920	0.000012
C22	C	1.392656	0.600920	0.500012
C23	C	0.793368	0.099461	0.000012
C24	C	1.293368	0.599461	0.500012
C25	C	0.354775	0.156474	0.000028
C26	C	0.854775	0.656474	0.500028
C27	C	0.448068	0.157838	0.000033
C28	C	0.948068	0.657838	0.500033
C29	C	0.505629	0.095255	0.000021
C30	C	1.005629	0.595255	0.500021
C31	C	0.469892	0.031302	0.000015
C32	C	0.969892	0.531302	0.500015
C33	C	0.376601	0.029938	0.000018
C34	C	0.876601	0.529938	0.500018
C35	C	0.664340	0.034150	0.000008
C36	C	1.164340	0.534150	0.500008
C37	C	0.757637	0.035514	0.000003
C38	C	1.257637	0.535514	0.500003
C39	C	0.735807	0.162050	0.000022
C40	C	1.235807	0.662050	0.500022
C41	C	0.642516	0.160686	0.000025
C42	C	1.142516	0.660686	0.500025
C43	C	0.606786	0.096733	0.000017
C44	C	1.106786	0.596733	0.500017
C45	C	1.063252	-0.030990	-0.000001
C46	C	1.563252	0.469010	0.499999
C47	C	1.061801	-0.108099	-0.000003
C48	C	1.561801	0.391901	0.499997
C49	C	1.061126	-0.144307	0.086298
C50	C	1.561126	0.355693	0.586298
C51	C	1.059749	-0.216757	0.086305
C52	C	1.559749	0.283243	0.586305
C53	C	1.059067	-0.252999	0.000006
C54	C	1.559067	0.247001	0.500006
C55	C	1.059738	-0.216782	-0.086307
C56	C	1.559738	0.283218	0.413693
C57	C	1.061105	-0.144332	-0.086311
C58	C	1.561105	0.355668	0.413689
C59	C	1.109289	-0.373068	-0.066104
C60	C	1.609289	0.126932	0.433896
C61	C	1.107928	-0.445517	-0.066096
C62	C	1.607928	0.054483	0.433904
C63	C	1.054846	-0.476459	0.000017
C64	C	1.554846	0.023541	0.500017
C65	C	1.003138	-0.434944	0.066137
C66	C	1.503138	0.065056	0.566137
C67	C	1.004505	-0.362494	0.066133
C68	C	1.504505	0.137506	0.566133
C69	C	1.057584	-0.331559	0.000001
C70	C	1.557584	0.168441	0.500001
C71	C	1.052677	-0.591226	0.086331
C72	C	1.552677	-0.091226	0.586331
C73	C	1.051295	-0.663677	0.086335
C74	C	1.551295	-0.163677	0.586335
C75	C	1.051293	-0.663701	-0.086279
C76	C	1.551293	-0.163701	0.413721
C77	C	1.052665	-0.591250	-0.086280
C78	C	1.552665	-0.091250	0.413720
C79	C	1.053362	-0.555017	0.000028
C80	C	1.553362	-0.055017	0.500028
C81	C	1.219756	0.091068	0.000013
C82	C	1.719756	0.591068	0.500013
C83	C	1.319045	0.092526	0.000020
C84	C	1.819045	0.592526	0.500020
C85	C	1.049160	0.222978	0.000026
C86	C	1.549160	0.722978	0.500026
C87	C	1.050611	0.300086	0.000035
C88	C	1.550611	0.800086	0.500035
N89	N	1.056211	0.096002	0.246670
N90	N	1.556211	0.596002	0.746670
N91	N	1.056208	0.095980	-0.246646
N92	N	1.556208	0.595980	0.253354
C93	C	1.117323	0.048929	0.296483
C94	C	1.617323	0.548929	0.796483
C95	C	1.117327	0.048927	0.396141
C96	C	1.617327	0.548927	0.896141
C97	C	1.056214	0.095995	0.445984
C98	C	1.556214	0.595995	0.945984
C99	C	0.995099	0.143074	0.396164
C100	C	1.495099	0.643074	0.896164
C101	C	0.995100	0.143079	0.296508
C102	C	1.495100	0.643079	0.796508
C103	C	0.995099	0.143059	0.603878
C104	C	1.495099	0.643059	1.103878
C105	C	0.995096	0.143053	0.703541
C106	C	1.495096	0.643053	1.203541
C107	C	1.117326	0.048907	0.703511
C108	C	1.617326	0.548907	1.203511
C109	C	1.117327	0.048912	0.603855
C110	C	1.617327	0.548912	1.103855
C111	C	1.056211	0.095990	0.554042
C112	C	1.556211	0.595990	1.054042
H113	H	0.347511	-0.022134	0.000013
H114	H	0.847511	0.477866	0.500013
H115	H	1.053239	-0.561723	0.156608
H116	H	1.553239	-0.061723	0.656608
N117	N	1.183242	-0.001844	0.449868
N118	N	1.683242	0.498156	0.949868
H119	H	1.221953	-0.031663	0.403171
H120	H	1.721953	0.468337	0.903171
H121	H	1.149209	-0.032653	0.491207
H122	H	1.649209	0.467347	0.991207
H123	H	1.167089	0.010575	0.744074
H124	H	1.667089	0.510575	1.244074
N125	N	0.580430	0.228184	-0.000041
N126	N	1.080430	0.728184	0.499959
H127	H	0.617218	0.268905	-0.000058
H128	H	1.117218	0.768905	0.499942
H129	H	0.541217	0.230409	0.058629
H130	H	1.041217	0.730409	0.558629
H131	H	1.167085	0.010598	0.255907
H132	H	1.667085	0.510598	0.755907
H133	H	1.167086	0.010582	0.563273
H134	H	1.667086	0.510582	1.063273
N135	N	1.050641	-0.702742	0.179421
N136	N	1.550641	-0.202742	0.679421
H137	H	1.051319	-0.668795	0.234092
H138	H	1.551319	-0.168795	0.734092
H139	H	1.105536	-0.738364	0.183115
H140	H	1.605536	-0.238364	0.683115
N141	N	0.929181	0.193844	0.242773
N142	N	1.429181	0.693844	0.742773
H143	H	0.963150	0.224704	0.201439
H144	H	1.463150	0.724704	0.701439
H145	H	0.890478	0.223613	0.289527
H146	H	1.390478	0.723613	0.789527
H147	H	1.061690	-0.114810	0.156576
H148	H	1.561690	0.385190	0.656576
H149	H	0.804502	-0.015447	0.000002
H150	H	1.304502	0.484553	0.500002
H151	H	0.477155	0.209911	0.000049
H152	H	0.977155	0.709911	0.500049
N153	N	0.774337	0.231029	0.000027
N154	N	1.274337	0.731029	0.500027
H155	H	0.842170	0.222399	0.000027
H156	H	1.342170	0.722399	0.500027
H157	H	0.753265	0.258423	0.058719
H158	H	1.253265	0.758423	0.558719
N159	N	1.050547	-0.702778	-0.179361
N160	N	1.550547	-0.202778	0.320639
H161	H	1.049575	-0.754170	-0.166265
H162	H	1.549575	-0.254170	0.333735
H163	H	1.106221	-0.695705	-0.217052
H164	H	1.606221	-0.195705	0.282948
N165	N	0.929186	0.193820	0.757304
N166	N	1.429186	0.693820	1.257304
H167	H	0.890475	0.223649	0.710628
H168	H	1.390475	0.723649	1.210628
H169	H	0.963227	0.224621	0.798664
H170	H	1.463227	0.724621	1.298664
N171	N	0.625799	-0.034826	0.000006
N172	N	1.125799	0.465174	0.500006
H173	H	0.676418	-0.074266	-0.000005
H174	H	1.176418	0.425734	0.499995
H175	H	0.587564	-0.038148	-0.058685
H176	H	1.087564	0.461852	0.441315
H177	H	1.059194	-0.246243	0.156584
H178	H	1.559194	0.253757	0.656584
N179	N	0.531973	-0.036198	-0.000006
N180	N	1.031973	0.463802	0.499994
H181	H	0.495179	-0.076916	-0.000010
H182	H	0.995179	0.423084	0.499990
H183	H	0.571162	-0.038389	0.058682
H184	H	1.071162	0.461611	0.558682
N185	N	0.948738	-0.317716	0.137439
N186	N	1.448738	0.182284	0.637439
H187	H	0.914901	-0.348305	0.179326
H188	H	1.414901	0.151695	0.679326
H189	H	0.904557	-0.283155	0.102588
H190	H	1.404557	0.216845	0.602588
N191	N	0.929175	0.193834	0.550158
N192	N	1.429175	0.693834	1.050158
H193	H	0.889760	0.167174	0.508801
H194	H	1.389760	0.667174	1.008801
H195	H	0.963202	0.224685	0.508876
H196	H	1.463202	0.724685	1.008876
N197	N	0.292695	0.223975	0.000010
N198	N	0.792695	0.723975	0.500010
H199	H	0.329491	0.264692	0.000011
H200	H	0.829491	0.764692	0.500011
H201	H	0.253504	0.226179	0.058696
H202	H	0.753504	0.726179	0.558696
H203	H	0.959914	-0.460135	0.119973
H204	H	1.459914	0.039865	0.619973
N205	N	1.053404	-0.552192	-0.179362
N206	N	1.553404	-0.052192	0.320638
H207	H	1.052764	-0.586143	-0.234033
H208	H	1.552764	-0.086143	0.265967
H209	H	1.109409	-0.527718	-0.183121
H210	H	1.609409	-0.027718	0.316879
H211	H	1.150035	-0.479314	-0.119932
H212	H	1.650035	0.020686	0.380068
H213	H	1.152513	-0.347881	-0.119949
H214	H	1.652513	0.152119	0.380051
H215	H	1.061651	-0.114851	-0.156590
H216	H	1.561651	0.385149	0.343410
H217	H	1.059179	-0.246294	-0.156572
H218	H	1.559179	0.253706	0.343428
N219	N	0.929183	0.193837	0.449925
N220	N	1.429183	0.693837	0.949925
H221	H	0.865773	0.185658	0.432572
H222	H	1.365773	0.685658	0.932572
H223	H	0.939235	0.243154	0.432582
H224	H	1.439235	0.743154	0.932582
