data_functionalizedCrystal
_audit_creation_method	'MofGen! by Chris Wilmer'
_symmetry_space_group_name_H-M	'P1'
_symmetry_Int_Tables_number	1
_symmetry_cell_setting	triclinic
loop_
_symmetry_equiv_pos_as_xyz
  x,y,z
_cell_length_a	23.096457
_cell_length_b	17.052862
_cell_length_c	17.052862
_cell_angle_alpha	61.493325
_cell_angle_beta	89.997860
_cell_angle_gamma	70.262379
loop_
_atom_site_label
_atom_site_type_symbol
_atom_site_fract_x
_atom_site_fract_y
_atom_site_fract_z
Zr1	Zr	0.671036	0.816658	-0.200478
O2	O	0.607095	0.944555	-0.328604
O3	O	0.676560	0.665937	-0.146287
O4	O	0.707585	0.783739	-0.307100
O5	O	0.567610	0.860681	-0.057902
O6	O	0.802867	0.783735	-0.307102
O7	O	0.576070	0.826753	-0.167790
O8	O	0.747368	0.573009	-0.019436
O9	O	0.623109	1.071407	-0.345568
O10	O	0.767032	0.736382	-0.141194
O11	O	0.689611	0.761704	-0.059185
O12	O	0.726139	0.900400	-0.248522
O13	O	0.648718	0.925723	-0.166512
Zr14	Zr	0.809508	0.870762	-0.025222
Zr15	Zr	0.823000	0.816653	-0.200481
Zr16	Zr	0.657544	0.870768	-0.025219
Zr17	Zr	0.696577	1.018972	-0.227534
Zr18	Zr	0.783968	0.668449	0.001834
O19	O	0.803985	1.021484	-0.079413
O20	O	0.823169	0.944547	-0.328608
O21	O	0.587912	1.021493	-0.079409
O22	O	0.873449	0.742866	0.102904
O23	O	0.892633	0.665928	-0.146291
O24	O	0.657376	0.742874	0.102909
O25	O	0.912934	0.826740	-0.167797
O26	O	0.772959	0.903682	0.081400
O27	O	0.677677	0.903686	0.081402
O28	O	0.904475	0.860667	-0.057909
O29	O	0.743901	1.071402	-0.345571
O30	O	0.736644	0.616019	0.119871
O31	O	0.857435	0.616014	0.119869
O32	O	0.868159	0.573004	-0.019439
O33	O	0.612385	1.114417	-0.206261
O34	O	0.733176	1.114412	-0.206264
O35	O	0.754405	0.787021	0.022822
O36	O	0.831827	0.761698	-0.059188
O37	O	0.790934	0.925717	-0.166515
O38	O	0.713513	0.951039	-0.084505
C39	C	0.708325	0.590647	-0.079006
C40	C	0.697482	0.504760	-0.067520
C41	C	0.550188	0.843718	-0.112846
C42	C	0.485676	0.843720	-0.112845
C43	C	0.828570	0.209791	-0.206388
C44	C	0.838756	0.290489	-0.217186
C45	C	0.803439	0.344061	-0.179770
C46	C	0.757933	0.316927	-0.131555
C47	C	0.747743	0.236225	-0.120762
C48	C	0.722611	0.370494	-0.094145
C49	C	0.677106	0.343360	-0.045930
C50	C	0.666917	0.262666	-0.035138
C51	C	0.702235	0.209095	-0.072554
C52	C	0.732802	0.451196	-0.104937
C53	C	0.651974	0.477630	-0.019312
C54	C	0.641788	0.396932	-0.008514
C55	C	0.460035	0.825036	-0.173388
C56	C	0.399421	0.825027	-0.173386
C57	C	0.364446	0.843721	-0.112851
C58	C	0.390095	0.862402	-0.052296
C59	C	0.450710	0.862402	-0.052293
N60	N	0.252474	0.911095	-0.102777
N61	N	0.194893	0.911096	-0.102786
C62	C	0.181817	0.843720	-0.112855
N63	N	0.228497	0.776352	-0.122934
N64	N	0.286083	0.776355	-0.122930
C65	C	0.298719	0.843722	-0.112847
C66	C	0.090453	0.825023	-0.173400
C67	C	0.029839	0.825008	-0.173392
C68	C	0.020512	0.862393	-0.052306
C69	C	0.081127	0.862398	-0.052310
C70	C	0.116092	0.843717	-0.112861
C71	C	0.930356	0.843703	-0.112854
C72	C	0.994869	0.843700	-0.112855
C73	C	0.757148	0.776027	-0.332072
C74	C	0.762876	0.753056	-0.406474
C75	C	0.772220	1.096773	-0.146693
C76	C	0.783062	1.182661	-0.158179
C77	C	0.693630	1.030777	-0.840301
C78	C	0.688245	1.052363	-0.770399
C79	C	0.706902	0.977538	-0.679415
C80	C	0.730946	0.881124	-0.658338
C81	C	0.736327	0.859536	-0.728248
C82	C	0.749599	0.806297	-0.567361
C83	C	0.773642	0.709883	-0.546285
C84	C	0.779023	0.688299	-0.616189
C85	C	0.760365	0.763124	-0.707173
C86	C	0.744218	0.827885	-0.497452
C87	C	0.786915	0.656644	-0.385399
C88	C	0.792300	0.635058	-0.455301
C89	C	0.723396	0.911394	0.106372
C90	C	0.717668	0.934365	0.180774
C91	C	0.898409	0.590640	-0.079010
C92	C	0.952079	0.504750	-0.067525
C93	C	0.691449	0.658331	0.140215
C94	C	0.674878	0.595415	0.226103
C95	C	0.881532	0.658323	0.140212
C96	C	0.929475	0.595405	0.226098
C97	C	0.599012	1.029098	-0.365911
C98	C	0.551070	1.092016	-0.451798
C99	C	0.582136	1.096781	-0.146689
C100	C	0.528466	1.182671	-0.158174
C101	C	0.789096	1.029090	-0.365915
C102	C	0.805666	1.092006	-0.451803
C103	C	0.943461	0.451198	-0.104946
C104	C	0.993887	0.370502	-0.094173
C105	C	1.052928	0.343355	-0.045973
C106	C	1.061545	0.396915	-0.008552
C107	C	1.011121	0.477614	-0.019331
C108	C	0.700918	0.579086	0.309251
C109	C	0.685347	0.519983	0.389957
C110	C	0.643739	0.477204	0.387514
C111	C	0.617696	0.493538	0.304357
C112	C	0.633264	0.552646	0.223652
C113	C	0.992409	0.552639	0.223623
C114	C	1.037463	0.493530	0.304315
C115	C	1.019582	0.477181	0.387481
C116	C	0.956643	0.519954	0.389953
C117	C	0.911590	0.579068	0.309262
C118	C	0.488137	1.134791	-0.449324
C119	C	0.443086	1.193926	-0.530019
C120	C	0.460967	1.210279	-0.613186
C121	C	0.523906	1.167501	-0.615657
C122	C	0.568957	1.108373	-0.534964
C123	C	0.537085	1.236229	-0.120762
C124	C	0.486664	1.316942	-0.131558
C125	C	0.427623	1.344091	-0.179760
C126	C	0.419005	1.290527	-0.217177
C127	C	0.469427	1.209820	-0.206387
C128	C	0.847276	1.134768	-0.449330
C129	C	0.862858	1.193876	-0.530023
C130	C	0.836825	1.210226	-0.613188
C131	C	0.795213	1.167457	-0.615659
C132	C	0.779635	1.108345	-0.534966
H133	H	0.769853	0.473281	-0.144195
H134	H	0.868478	1.121467	-0.381621
Br135	Br	1.016693	0.574818	0.110765
Br136	Br	0.824928	0.504215	-0.426709
H137	H	0.471587	0.877617	-0.002991
H138	H	0.986858	0.326901	-0.124647
H139	H	1.056273	0.429045	0.453178
Br140	Br	1.122875	0.435490	0.300939
Br141	Br	1.141677	0.360058	0.056863
H142	H	0.895393	0.473296	-0.144205
Br143	Br	0.811639	0.557452	-0.587584
Br144	Br	0.919329	1.251912	-0.526650
Br145	Br	0.932386	0.497757	0.502830
Br146	Br	0.622617	0.396988	0.497052
Br147	Br	0.561229	0.435473	0.301057
H148	H	0.849514	1.258361	-0.678887
H149	H	0.386571	1.409810	-0.188540
Br150	Br	1.022827	0.550280	0.031467
Br151	Br	0.826179	0.637097	0.312638
Br152	Br	0.654365	1.050321	-0.538337
H153	H	0.361616	0.877621	-0.003006
H154	H	1.093981	0.277642	-0.037202
H155	H	0.493692	1.360542	-0.101083
H156	H	0.668669	1.130863	-0.787565
Br157	Br	0.817263	0.453581	-0.194423
Br158	Br	0.357674	1.251968	-0.526643
H159	H	0.612059	0.565930	0.155954
Br160	Br	0.463852	1.112610	-0.336466
Br161	Br	0.900507	0.327314	-0.282624
H162	H	0.802105	0.595716	-0.311316
Br163	Br	0.137909	0.799665	-0.255573
H164	H	0.764750	0.745554	-0.764098
H165	H	0.424277	1.258426	-0.678885
H166	H	0.538459	1.180824	-0.683381
H167	H	0.706560	0.506692	0.457659
H168	H	0.585154	1.214134	-0.081506
Br169	Br	0.605151	0.225854	0.030280
Br170	Br	0.723156	1.050326	-0.538339
H171	H	0.370927	1.312645	-0.256424
H172	H	0.462399	1.166214	-0.236851
H173	H	0.734798	0.613912	0.311258
H174	H	0.774020	1.180780	-0.683383
H175	H	0.693947	0.143379	-0.063760
Br176	Br	0.876487	0.137097	-0.257174
H177	H	0.604737	0.374828	0.030742
H178	H	0.623215	0.521250	0.011152
H179	H	0.488503	0.809822	-0.222690
H180	H	0.378540	0.809811	-0.222689
H181	H	0.008964	0.809787	-0.222691
H182	H	0.102004	0.877618	-0.003013
Br183	Br	-0.026945	0.887749	0.029860
H184	H	0.702516	0.995119	-0.622500
Br185	Br	0.711589	0.958729	-0.526063
Br186	Br	0.668298	1.132313	-0.963774
