data_functionalizedCrystal
_audit_creation_method	'MofGen! by Chris Wilmer'
_symmetry_space_group_name_H-M	'P1'
_symmetry_Int_Tables_number	1
_symmetry_cell_setting	triclinic
loop_
_symmetry_equiv_pos_as_xyz
  x,y,z
_cell_length_a	15.625950
_cell_length_b	15.538191
_cell_length_c	14.750779
_cell_angle_alpha	97.569385
_cell_angle_beta	120.090508
_cell_angle_gamma	113.258520
loop_
_atom_site_label
_atom_site_type_symbol
_atom_site_fract_x
_atom_site_fract_y
_atom_site_fract_z
O1	O	1.275489	-0.029976	0.364019
O2	O	0.973741	-0.071438	0.259018
O3	O	1.183351	0.091573	0.331953
O4	O	1.065879	-0.192988	0.291084
O5	O	1.242604	0.137650	0.512220
O6	O	1.032993	-0.025362	0.439286
O7	O	1.334742	0.016101	0.544286
Zn8	Zn	1.193275	0.002686	0.520407
Zn9	Zn	1.115207	-0.058023	0.282897
O10	O	1.125131	-0.146911	0.471352
C11	C	0.965691	-0.051085	0.336041
C12	C	0.853433	-0.059074	0.296978
C13	C	0.645568	0.040148	0.659683
C14	C	0.540058	0.032609	0.622924
C15	C	0.475516	-0.017619	0.426422
C16	C	0.581019	-0.010089	0.463164
C17	C	0.666039	0.018796	0.579796
C18	C	0.601490	-0.031441	0.383276
C19	C	0.706987	-0.023906	0.420017
C20	C	0.792013	0.004980	0.536644
C21	C	0.771536	0.026330	0.616536
C22	C	0.516472	-0.060318	0.266646
C23	C	0.536944	-0.081670	0.186759
C24	C	0.642439	-0.074143	0.223497
C25	C	0.727465	-0.045256	0.340125
C26	C	0.662916	-0.095493	0.143606
C27	C	0.768413	-0.087958	0.180346
C28	C	0.832962	-0.037722	0.376865
C29	C	1.225267	0.150785	0.426360
C30	C	1.261875	0.258567	0.439089
C31	C	1.342791	-0.004253	0.467260
C32	C	1.455046	0.003734	0.506317
C33	C	1.083214	-0.206122	0.376942
C34	C	1.046605	-0.313907	0.364206
C35	C	0.898162	0.514459	0.312546
C36	C	0.932590	0.615745	0.324529
C37	C	1.126235	0.655174	0.391912
C38	C	1.091821	0.553888	0.379930
C39	C	0.977784	0.483538	0.340248
C40	C	1.171443	0.522966	0.407631
C41	C	1.137034	0.421690	0.395656
C42	C	1.023002	0.351335	0.355979
C43	C	0.943374	0.382261	0.328272
C44	C	1.285483	0.593320	0.447321
C45	C	1.365105	0.562399	0.475022
C46	C	1.330694	0.461119	0.463039
C47	C	1.216662	0.390764	0.423362
C48	C	1.410322	0.430193	0.490746
C49	C	1.375912	0.328917	0.478770
C50	C	1.182253	0.289488	0.411387
N51	N	1.246562	0.044119	0.682504
N52	N	1.061931	-0.099447	0.120804
C53	C	0.913123	-0.215121	0.918302
C54	C	0.950469	-0.186093	1.031795
C55	C	1.136090	-0.041792	1.096345
C56	C	1.098758	-0.070805	0.982854
C57	C	0.987274	-0.157471	0.893840
C58	C	1.172909	-0.013155	0.958393
C59	C	1.135582	-0.042169	0.844912
C60	C	1.024104	-0.128833	0.755893
C61	C	0.949947	-0.186485	0.780360
C62	C	1.284395	0.073506	1.047410
C63	C	1.358546	0.131156	1.022948
C64	C	1.321216	0.102147	0.909465
C65	C	1.209738	0.015483	0.820446
C66	C	1.395373	0.159798	0.884999
C67	C	1.358046	0.130784	0.771518
C68	C	1.172411	-0.013531	0.706966
H69	H	0.902184	-0.014216	0.471836
H70	H	0.993716	-0.152458	0.663492
Br71	Br	1.287388	0.075818	1.217155
Br72	Br	1.021099	-0.131140	0.586151
H73	H	0.593684	-0.119001	0.048645
H74	H	1.219086	0.712467	0.424225
H75	H	1.313492	0.675782	0.457060
Br76	Br	1.458686	0.209021	0.738320
H77	H	1.314785	0.097123	1.139811
Br78	Br	0.512293	0.061613	0.731360
Br79	Br	1.509845	0.248767	1.143758
Br80	Br	1.546677	0.277401	1.005814
Br81	Br	1.519870	0.657884	0.528887
H82	H	0.805298	0.457173	0.280225
H83	H	0.406282	-0.041132	0.331460
H84	H	0.877915	0.011115	0.566557
H85	H	0.890077	-0.233047	1.051700
Br86	Br	0.760953	0.079332	0.817969
H87	H	1.503175	0.487489	0.523066
Br88	Br	0.796205	-0.116929	0.071929
H89	H	0.840758	0.049836	0.711507
Br90	Br	1.483980	0.286953	0.516392
Br91	Br	0.788601	0.286773	0.274402
H92	H	0.430569	-0.066457	0.236735
H93	H	0.467710	-0.105183	0.091797
H94	H	1.089389	0.232202	0.379066
Br95	Br	0.798635	-0.304094	0.659545
Br96	Br	0.761811	-0.332730	0.797487
H97	H	0.994990	0.268872	0.346236
H98	H	0.867748	0.640918	0.301983
