data_functionalizedCrystal
_audit_creation_method	'MofGen! by Chris Wilmer'
_symmetry_space_group_name_H-M	'P1'
_symmetry_Int_Tables_number	1
_symmetry_cell_setting	triclinic
loop_
_symmetry_equiv_pos_as_xyz
  x,y,z
_cell_length_a	6.817900
_cell_length_b	9.170630
_cell_length_c	16.015572
_cell_angle_alpha	68.812236
_cell_angle_beta	104.485554
_cell_angle_gamma	112.460426
loop_
_atom_site_label
_atom_site_type_symbol
_atom_site_fract_x
_atom_site_fract_y
_atom_site_fract_z
V1	V	-4.003437	-0.065763	-0.264380
O2	O	-3.949644	0.167618	-0.277041
O3	O	-3.995267	-0.288566	-0.245555
O4	O	-3.926544	0.007411	-0.387449
O5	O	-4.018842	-0.130407	-0.134165
V6	V	-4.485544	-0.046374	-0.250873
O7	O	-4.267801	-0.108293	-0.294010
O8	O	-4.671377	-0.003843	-0.221243
O9	O	-4.270507	0.176429	-0.269698
O10	O	-4.656733	-0.279755	-0.238212
O11	O	-4.587535	0.018270	-0.381088
O12	O	-4.339230	-0.119547	-0.127804
C13	C	-3.850976	-0.345135	-0.236993
C14	C	-3.925393	-0.526815	-0.222421
C15	C	-3.763313	0.032413	-0.417993
C16	C	-3.781994	0.090766	-0.518491
C17	C	-4.164149	-0.427172	-0.856644
C18	C	-4.181698	-0.372288	-0.951077
C19	C	-4.053439	-0.088335	-0.948014
C20	C	-4.035868	-0.143196	-0.853579
C21	C	-4.091229	-0.312616	-0.807901
C22	C	-3.962949	-0.028639	-0.804836
C23	C	-3.945391	-0.083496	-0.710409
C24	C	-4.000752	-0.252910	-0.664725
C25	C	-4.073671	-0.367473	-0.713475
C26	C	-3.907603	0.140780	-0.850516
C27	C	-3.834684	0.255336	-0.801773
C28	C	-3.817110	0.200480	-0.707344
C29	C	-3.872472	0.031067	-0.661660
C30	C	-3.744191	0.315043	-0.658595
C31	C	-3.726633	0.260186	-0.564168
C32	C	-3.854914	-0.023790	-0.567233
C33	C	-4.078142	0.232989	-0.278257
C34	C	-3.982962	0.414670	-0.292834
C35	C	-4.165805	-0.144558	-0.097255
C36	C	-4.126361	-0.202903	0.003243
H37	H	-3.933023	-0.615710	-0.150987
Br38	Br	-4.239223	-0.657102	-0.794643
Br39	Br	-3.970201	-0.437162	-0.411905
Br40	Br	-3.978317	0.141585	-1.010013
Br41	Br	-3.976938	-0.327366	-0.536573
Br42	Br	-3.669099	0.544962	-0.720597
H43	H	-3.899967	-0.161748	-0.530039
Br44	Br	-4.148746	-0.597402	-0.651474
H45	H	-4.241071	-0.465587	-0.990760
H46	H	-3.921872	0.185440	-0.927403
H47	H	-3.789621	0.393279	-0.838977
Br48	Br	-3.627775	0.415652	-0.498013
