data_functionalizedCrystal
_audit_creation_method	'MofGen! by Chris Wilmer'
_symmetry_space_group_name_H-M	'P1'
_symmetry_Int_Tables_number	1
_symmetry_cell_setting	triclinic
loop_
_symmetry_equiv_pos_as_xyz
  x,y,z
_cell_length_a	16.109301
_cell_length_b	19.288864
_cell_length_c	18.366186
_cell_angle_alpha	89.977071
_cell_angle_beta	90.006550
_cell_angle_gamma	96.701137
loop_
_atom_site_label
_atom_site_type_symbol
_atom_site_fract_x
_atom_site_fract_y
_atom_site_fract_z
O1	O	0.103714	-0.921601	0.060785
O2	O	0.603714	-0.421601	0.560785
O3	O	0.117706	-0.719373	0.060736
O4	O	0.617706	-0.219373	0.560736
O5	O	-0.010340	-0.826042	0.060755
O6	O	0.489660	-0.326042	0.560755
O7	O	0.231760	-0.814932	0.060767
O8	O	0.731760	-0.314932	0.560767
O9	O	-0.010343	-0.826024	-0.060345
O10	O	0.489657	-0.326024	0.439655
O11	O	0.117702	-0.719355	-0.060363
O12	O	0.617702	-0.219355	0.439637
O13	O	0.103711	-0.921582	-0.060314
O14	O	0.603711	-0.421582	0.439686
Zn15	Zn	0.110706	-0.820466	-0.079566
Zn16	Zn	0.610706	-0.320466	0.420434
Zn17	Zn	0.110711	-0.820490	0.079988
Zn18	Zn	0.610711	-0.320490	0.579988
O19	O	0.231756	-0.814913	-0.060333
O20	O	0.731756	-0.314913	0.439667
C21	C	0.117254	-0.693487	0.000180
C22	C	0.617254	-0.193487	0.500180
C23	C	0.115902	-0.616380	0.000161
C24	C	0.615902	-0.116380	0.500161
C25	C	-0.041315	-0.825583	0.000205
C26	C	0.458685	-0.325583	0.500205
C27	C	-0.133606	-0.824234	0.000203
C28	C	0.366394	-0.324234	0.500203
N29	N	0.110702	-0.820454	-0.188457
N30	N	0.610702	-0.320454	0.311543
C31	C	-0.356084	-0.884391	0.000229
C32	C	0.143916	-0.384391	0.500229
C33	C	-0.442800	-0.883118	0.000235
C34	C	0.057200	-0.383118	0.500235
C35	C	-0.422493	-0.756559	0.000201
C36	C	0.077507	-0.256559	0.500201
C37	C	-0.335778	-0.757833	0.000201
C38	C	0.164222	-0.257833	0.500201
C39	C	-0.302577	-0.821751	0.000211
C40	C	0.197423	-0.321751	0.500211
C41	C	-0.476007	-0.819204	0.000217
C42	C	0.023993	-0.319204	0.500217
C43	C	-0.570028	-0.817823	0.000223
C44	C	-0.070028	-0.317823	0.500223
C45	C	-0.208549	-0.823133	0.000206
C46	C	0.291451	-0.323133	0.500206
C47	C	0.262732	-0.815372	0.000219
C48	C	0.762732	-0.315372	0.500219
C49	C	0.355022	-0.816722	0.000225
C50	C	0.855022	-0.316722	0.500225
C51	C	0.104163	-0.947469	0.000244
C52	C	0.604163	-0.447469	0.500244
C53	C	0.105514	-1.024576	0.000268
C54	C	0.605514	-0.524576	0.500268
C55	C	0.191034	-0.571863	0.000176
C56	C	0.691034	-0.071863	0.500176
C57	C	0.189764	-0.499413	0.000184
C58	C	0.689764	0.000587	0.500184
C59	C	0.113359	-0.471483	0.000191
C60	C	0.613359	0.028517	0.500191
C61	C	0.038218	-0.516009	0.000172
C62	C	0.538218	-0.016009	0.500172
C63	C	0.039489	-0.588458	0.000157
C64	C	0.539489	-0.088458	0.500157
C65	C	0.053297	-0.363084	0.042639
C66	C	0.553297	0.136916	0.542639
C67	C	0.052028	-0.290636	0.042659
C68	C	0.552028	0.209364	0.542659
C69	C	0.109433	-0.248028	0.000235
C70	C	0.609433	0.251972	0.500235
C71	C	0.168121	-0.277874	-0.042199
C72	C	0.668121	0.222126	0.457801
C73	C	0.169392	-0.350323	-0.042214
C74	C	0.669392	0.149677	0.457786
C75	C	0.111971	-0.392925	0.000207
C76	C	0.611971	0.107075	0.500207
C77	C	0.183193	-0.124952	0.000258
C78	C	0.683193	0.375048	0.500258
C79	C	0.181920	-0.052501	0.000262
C80	C	0.681920	0.447499	0.500262
C81	C	0.030372	-0.069099	0.000257
C82	C	0.530372	0.430901	0.500257
C83	C	0.031647	-0.141548	0.000246
C84	C	0.531647	0.358452	0.500246
C85	C	0.108060	-0.169470	0.000250
C86	C	0.608060	0.330530	0.500250
C87	C	0.161004	-0.862562	-0.226538
C88	C	0.661004	-0.362562	0.273462
C89	C	0.161001	-0.862573	-0.302766
C90	C	0.661001	-0.362573	0.197234
C91	C	0.110707	-0.820464	-0.340910
C92	C	0.610707	-0.320464	0.159090
C93	C	0.060396	-0.778353	-0.302820
C94	C	0.560396	-0.278353	0.197180
C95	C	0.060393	-0.778349	-0.226593
C96	C	0.560393	-0.278349	0.273407
C97	C	0.108604	-0.757847	-0.461706
C98	C	0.608604	-0.257847	0.038294
C99	C	0.108613	-0.757850	-0.537931
C100	C	0.608613	-0.257850	-0.037931
C101	C	0.110710	-0.820479	-0.576017
C102	C	0.610710	-0.320479	-0.076017
C103	C	0.112816	-0.883106	-0.537869
C104	C	0.612816	-0.383106	-0.037869
C105	C	0.112814	-0.883101	-0.461642
C106	C	0.612814	-0.383101	0.038358
C107	C	0.110704	-0.820465	-0.423564
C108	C	0.610704	-0.320465	0.076436
C109	C	0.161011	-0.862603	-0.696753
C110	C	0.661011	-0.362603	-0.196753
C111	C	0.161003	-0.862616	-0.772982
C112	C	0.661003	-0.362616	-0.272982
C113	C	0.060403	-0.778390	-0.773035
C114	C	0.560403	-0.278390	-0.273035
C115	C	0.060406	-0.778383	-0.696807
C116	C	0.560406	-0.278383	-0.196807
C117	C	0.110715	-0.820489	-0.658671
C118	C	0.610715	-0.320489	-0.158671
N119	N	0.110708	-0.820507	0.188879
N120	N	0.610708	-0.320507	0.688879
H121	H	-0.329054	-0.936438	0.000239
H122	H	0.170946	-0.436438	0.500239
H123	H	-0.449537	-0.704519	0.000191
H124	H	0.050463	-0.204519	0.500191
F125	F	0.115049	-0.949766	-0.578396
F126	F	0.615049	-0.449766	-0.078396
F127	F	-0.048320	-0.188929	0.000234
F128	F	0.451680	0.311071	0.500234
F129	F	0.229220	-0.232533	-0.087353
F130	F	0.729220	0.267467	0.412647
F131	F	-0.499743	-0.949789	0.000256
F132	F	0.000257	-0.449789	0.500256
F133	F	0.231847	-0.382085	-0.087377
F134	F	0.731847	0.117915	0.412623
F135	F	0.269732	-0.452026	0.000198
F136	F	0.769732	0.047974	0.500198
F137	F	-0.010424	-0.258878	0.087827
F138	F	0.489576	0.241122	0.587827
F139	F	0.261890	-0.005121	0.000274
F140	F	0.761890	0.494879	0.500274
H141	H	-0.292210	-0.706821	0.000188
H142	H	0.207790	-0.206821	0.500188
H143	H	0.006549	-0.397771	0.077190
H144	H	0.506549	0.102229	0.577190
H145	H	0.114527	-0.934094	-0.430585
H146	H	0.614527	-0.434094	0.069415
F147	F	0.272359	-0.601575	0.000178
F148	F	0.772359	-0.101575	0.500178
F149	F	0.264517	-0.154671	0.000257
F150	F	0.764517	0.345329	0.500257
F151	F	-0.050945	-0.039379	0.000258
F152	F	0.449055	0.460621	0.500258
F153	F	-0.043098	-0.486284	0.000176
F154	F	0.456902	0.013716	0.500176
H155	H	-0.021694	-0.624704	0.000145
H156	H	0.478306	-0.124704	0.500145
F157	F	0.214560	-0.907363	-0.185954
F158	F	0.714560	-0.407363	0.314046
F159	F	0.214540	-0.907392	-0.343302
F160	F	0.714540	-0.407392	0.156698
F161	F	0.214539	-0.907427	-0.656163
F162	F	0.714539	-0.407427	-0.156163
H163	H	0.019451	-0.744104	-0.804091
H164	H	0.519451	-0.244104	-0.304091
F165	F	0.214540	-0.907438	-0.813510
F166	F	0.714540	-0.407438	-0.313510
H167	H	0.019445	-0.744068	-0.333882
H168	H	0.519445	-0.244068	0.166118
F169	F	0.006881	-0.733555	-0.656277
F170	F	0.506881	-0.233555	-0.156277
H171	H	0.106903	-0.706856	-0.568986
H172	H	0.606903	-0.206856	-0.068986
F173	F	0.106318	-0.691191	-0.421180
F174	F	0.606318	-0.191191	0.078820
F175	F	0.006857	-0.733527	-0.186064
F176	F	0.506857	-0.233527	0.313936
