data_functionalizedCrystal
_audit_creation_method	'MofGen! by Chris Wilmer'
_symmetry_space_group_name_H-M	'P1'
_symmetry_Int_Tables_number	1
_symmetry_cell_setting	triclinic
loop_
_symmetry_equiv_pos_as_xyz
  x,y,z
_cell_length_a	16.992701
_cell_length_b	16.992695
_cell_length_c	14.586319
_cell_angle_alpha	89.995905
_cell_angle_beta	89.996388
_cell_angle_gamma	90.667696
loop_
_atom_site_label
_atom_site_type_symbol
_atom_site_fract_x
_atom_site_fract_y
_atom_site_fract_z
O1	O	1.050849	0.166906	-0.076249
O2	O	0.822449	0.165077	-0.076249
O3	O	0.935733	0.051791	-0.076242
O4	O	0.937565	0.280191	-0.076256
O5	O	0.935725	0.051789	0.076239
O6	O	0.822441	0.165074	0.076232
O7	O	1.050841	0.166904	0.076232
Cu8	Cu	0.936640	0.165989	0.090154
Cu9	Cu	0.936650	0.165992	-0.090172
O10	O	0.937556	0.280189	0.076224
C11	C	0.793085	0.162720	-0.000009
C12	C	0.705600	0.155692	-0.000009
C13	C	0.933373	0.022430	-0.000002
C14	C	0.926345	-0.065055	-0.000002
C15	C	0.213682	0.108471	-0.000009
C16	C	0.295882	0.115080	-0.000004
C17	C	0.332089	0.189508	-0.000013
C18	C	0.286091	0.257331	-0.000018
C19	C	0.203892	0.250720	-0.000016
C20	C	0.577403	0.216905	-0.000012
C21	C	0.659608	0.223510	-0.000016
C22	C	0.669394	0.081258	-0.000001
C23	C	0.587192	0.074655	-0.000005
C24	C	0.541202	0.142477	-0.000005
N25	N	0.416111	0.196266	-0.000011
N26	N	0.457181	0.135719	-0.000001
C27	C	0.994163	-0.111046	-0.000001
C28	C	0.987554	-0.193247	-0.000009
C29	C	0.913126	-0.229454	-0.000013
C30	C	0.845303	-0.183457	-0.000016
C31	C	0.851913	-0.101258	-0.000014
C32	C	0.885732	-0.474768	-0.000025
C33	C	0.879127	-0.556974	-0.000025
C34	C	1.021378	-0.566758	-0.000019
C35	C	1.027981	-0.484557	-0.000012
C36	C	0.960158	-0.438566	-0.000020
N37	N	0.906369	-0.313476	-0.000019
N38	N	0.966916	-0.354546	-0.000021
C39	C	1.080205	0.169260	-0.000011
C40	C	1.167689	0.176288	-0.000017
C41	C	0.939916	0.309550	-0.000018
C42	C	0.946945	0.397035	-0.000024
N43	N	0.936638	0.165987	0.216986
N44	N	0.936657	0.165988	-0.217004
C45	C	0.986820	0.115843	0.451996
C46	C	0.986822	0.115841	0.547977
C47	C	0.886470	0.216134	0.547980
C48	C	0.886465	0.216131	0.452001
C49	C	0.936644	0.165987	0.404011
C50	C	0.936652	0.165988	0.595972
C51	C	0.936654	0.165986	0.700039
C52	C	0.936641	0.165987	0.299937
H53	H	0.333326	0.059856	0.000006
O54	O	0.819910	-0.430014	0.000094
C55	C	0.744785	-0.331566	0.079113
C56	C	0.819372	-0.382196	0.079081
H57	H	0.744317	-0.292905	0.142976
H58	H	0.744320	-0.292782	0.015342
H59	H	0.690466	-0.371580	0.079069
H60	H	0.873730	-0.342243	0.079157
H61	H	0.819767	-0.420988	0.142846
H62	H	1.027678	0.075009	0.587044
O63	O	0.552150	0.002294	0.000052
C64	C	0.570533	-0.138101	0.000023
C65	C	0.610320	-0.056203	-0.000018
H66	H	0.617546	-0.185418	-0.000053
H67	H	0.532318	-0.144799	0.063854
H68	H	0.532272	-0.144715	-0.063772
H69	H	0.648621	-0.049533	0.063735
H70	H	0.648489	-0.049542	-0.063890
H71	H	0.845617	0.256961	0.587063
O72	O	0.837697	0.264919	0.405524
C73	C	0.738128	0.364361	0.415647
C74	C	0.793329	0.309169	0.468396
H75	H	0.702230	0.400140	0.466456
H76	H	0.774537	0.405884	0.370725
H77	H	0.696708	0.327871	0.370699
H78	H	0.834760	0.345595	0.513394
H79	H	0.756871	0.267644	0.513260
H80	H	1.042779	-0.230690	-0.000007
O81	O	0.178640	0.036110	0.000038
C82	C	0.197031	-0.104285	0.000001
C83	C	0.236814	-0.022384	-0.000034
H84	H	0.244046	-0.151599	-0.000077
H85	H	0.158814	-0.110987	0.063829
H86	H	0.158772	-0.110897	-0.063797
H87	H	0.275112	-0.015715	0.063721
H88	H	0.274984	-0.015719	-0.063904
O89	O	1.087281	-0.611399	0.000141
C90	C	1.206863	-0.644885	0.079099
C91	C	1.132249	-0.594297	0.079048
H92	H	1.243249	-0.631064	0.142879
H93	H	1.189405	-0.709867	0.079155
H94	H	1.243203	-0.631135	0.015256
H95	H	1.095875	-0.607978	0.142881
H96	H	1.149762	-0.529329	0.078945
H97	H	1.027677	0.075011	0.412925
O98	O	0.694654	0.295874	0.000019
C99	C	0.676279	0.436271	-0.000046
C100	C	0.636487	0.354374	-0.000061
H101	H	0.629269	0.483590	-0.000130
H102	H	0.714494	0.442971	0.063777
H103	H	0.714542	0.442877	-0.063849
H104	H	0.598185	0.347712	0.063698
H105	H	0.598320	0.347711	-0.063927
H106	H	0.539967	0.272131	-0.000017
H107	H	0.315577	0.317932	-0.000019
H108	H	0.706848	0.026041	0.000000
H109	H	0.166446	0.305945	-0.000019
H110	H	1.054770	-0.081572	0.000008
H111	H	1.088588	-0.455083	-0.000009
H112	H	0.818516	-0.586451	-0.000012
H113	H	0.784702	-0.212943	-0.000025
H114	H	0.796688	-0.063812	-0.000015
