data_functionalizedCrystal
_audit_creation_method	'MofGen! by Chris Wilmer'
_symmetry_space_group_name_H-M	'P1'
_symmetry_Int_Tables_number	1
_symmetry_cell_setting	triclinic
loop_
_symmetry_equiv_pos_as_xyz
  x,y,z
_cell_length_a	17.699077
_cell_length_b	8.559649
_cell_length_c	16.776229
_cell_angle_alpha	89.994739
_cell_angle_beta	89.993415
_cell_angle_gamma	76.529620
loop_
_atom_site_label
_atom_site_type_symbol
_atom_site_fract_x
_atom_site_fract_y
_atom_site_fract_z
O1	O	0.992512	0.202065	-0.066274
O2	O	0.770627	0.228370	-0.066277
O3	O	0.901118	-0.017462	-0.066275
O4	O	0.862021	0.447896	-0.066277
O5	O	0.901103	-0.017477	0.066302
O6	O	0.770612	0.228355	0.066299
O7	O	0.992498	0.202050	0.066303
Zn8	Zn	0.881553	0.215200	0.087350
Zn9	Zn	0.881572	0.215220	-0.087325
O10	O	0.862007	0.447881	0.066300
C11	C	0.742477	0.227421	0.000010
C12	C	0.658620	0.224598	0.000009
C13	C	0.619221	0.223260	0.072277
C14	C	0.540431	0.220582	0.072278
C15	C	0.501042	0.219254	0.000010
C16	C	0.540447	0.220588	-0.072264
C17	C	0.619236	0.223254	-0.072264
C18	C	0.222699	0.209832	-0.072266
C19	C	0.143904	0.207171	-0.072260
C20	C	0.143895	0.207160	0.072277
C21	C	0.222684	0.209827	0.072277
C22	C	0.262083	0.211152	0.000003
C23	C	0.347516	0.214052	0.000003
C24	C	0.415609	0.216365	0.000009
C25	C	0.904073	-0.077011	0.000012
C26	C	0.912893	-0.254425	0.000008
C27	C	1.020648	0.202998	0.000013
C28	C	1.104505	0.205821	0.000009
C29	C	0.859051	0.507430	0.000011
C30	C	0.850232	0.684845	0.000010
N31	N	0.881545	0.215185	0.206561
N32	N	0.881586	0.215221	-0.206536
C33	C	0.939340	0.106376	0.248280
C34	C	0.939344	0.106374	0.331732
C35	C	0.881556	0.215191	0.373464
C36	C	0.823756	0.324006	0.331740
C37	C	0.823749	0.323998	0.248289
C38	C	0.823782	0.324037	0.668287
C39	C	0.823794	0.324040	0.751744
C40	C	0.939376	0.106413	0.751730
C41	C	0.939369	0.106406	0.668279
C42	C	0.881567	0.215214	0.626562
C43	C	0.881563	0.215212	0.536074
C44	C	0.881564	0.215202	0.463951
H45	H	0.254769	0.210906	-0.131115
H46	H	0.651313	0.224347	-0.131112
H47	H	0.776734	0.412655	0.785721
Br48	Br	1.013562	-0.393990	0.000024
H49	H	0.986400	0.017771	0.214307
Br50	Br	1.017778	-0.041303	0.388353
Br51	Br	0.486998	0.218715	-0.170344
Br52	Br	0.486961	0.218792	0.170361
H53	H	0.789838	-0.231421	0.000012
H54	H	0.776701	0.412602	0.365723
H55	H	0.111835	0.206088	-0.131113
H56	H	0.254750	0.210916	0.131125
Br57	Br	1.017801	-0.041270	0.611645
Br58	Br	1.017823	-0.041262	0.808349
H59	H	0.111807	0.206074	0.131125
Br60	Br	0.745340	0.471704	0.611676
H61	H	0.651285	0.224355	0.131127
Br62	Br	0.745306	0.471665	0.191672
