data_functionalizedCrystal
_audit_creation_method	'MofGen! by Chris Wilmer'
_symmetry_space_group_name_H-M	'P1'
_symmetry_Int_Tables_number	1
_symmetry_cell_setting	triclinic
loop_
_symmetry_equiv_pos_as_xyz
  x,y,z
_cell_length_a	16.625547
_cell_length_b	13.897448
_cell_length_c	13.897441
_cell_angle_alpha	90.030599
_cell_angle_beta	90.026124
_cell_angle_gamma	90.017629
loop_
_atom_site_label
_atom_site_type_symbol
_atom_site_fract_x
_atom_site_fract_y
_atom_site_fract_z
Zn1	Zn	1.232718	-0.383986	0.545520
Zn2	Zn	1.732718	0.116014	1.045520
Zn3	Zn	1.232629	-0.545307	0.384221
Zn4	Zn	1.732629	-0.045307	0.884221
Zn5	Zn	1.097876	-0.384028	0.384223
Zn6	Zn	1.597876	0.115972	0.884223
Zn7	Zn	1.097861	-0.545240	0.545459
Zn8	Zn	1.597861	-0.045240	1.045459
O9	O	1.165271	-0.464640	0.464856
O10	O	1.665271	0.035360	0.964856
O11	O	1.345538	-0.405396	0.524148
O12	O	1.845538	0.094604	1.024148
O13	O	1.214723	-0.523959	0.249240
O14	O	1.714723	-0.023959	0.749240
O15	O	1.115807	-0.249041	0.405646
O16	O	1.615807	0.250959	0.905646
O17	O	1.345473	-0.523918	0.405643
O18	O	1.845473	-0.023918	0.905643
O19	O	1.214874	-0.249010	0.524150
O20	O	1.714874	0.250990	1.024150
O21	O	1.115721	-0.405468	0.249241
O22	O	1.615721	0.094532	0.749241
O23	O	0.985042	-0.405403	0.405587
O24	O	1.485042	0.094597	0.905587
O25	O	1.115781	-0.523804	0.680449
O26	O	1.615781	-0.023804	1.180449
O27	O	0.985031	-0.523845	0.524046
O28	O	1.485031	-0.023845	1.024046
O29	O	1.214859	-0.405331	0.680494
O30	O	1.714859	0.094669	1.180494
O31	O	1.214708	-0.680280	0.405583
O32	O	1.714708	-0.180280	0.905583
O33	O	1.115695	-0.680231	0.524044
O34	O	1.615695	-0.180231	1.024044
C35	C	1.165212	-0.715255	0.464828
C36	C	1.665212	-0.215255	0.964828
C37	C	1.165261	-0.822469	0.464848
C38	C	1.665261	-0.322469	0.964848
C39	C	0.955780	-0.464622	0.464810
C40	C	1.455780	0.035378	0.964810
C41	C	0.866159	-0.464637	0.464814
C42	C	1.366159	0.035363	0.964814
C43	C	1.165345	-1.018764	0.464909
C44	C	1.665345	-0.518764	0.964909
C45	C	1.165296	-0.909531	0.464878
C46	C	1.665296	-0.409531	0.964878
C47	C	0.793377	-0.464639	0.464826
C48	C	1.293377	0.035361	0.964826
C49	C	0.702068	-0.464644	0.464850
C50	C	1.202068	0.035356	0.964850
C51	C	0.629292	-0.464653	0.464874
C52	C	1.129292	0.035347	0.964874
C53	C	0.537977	-0.464659	0.464897
C54	C	1.037977	0.035341	0.964897
C55	C	1.375580	-0.464660	0.464902
C56	C	1.875580	0.035340	0.964902
C57	C	1.465201	-0.464668	0.464922
C58	C	1.965201	0.035332	0.964922
C59	C	1.165328	-0.464555	0.716449
C60	C	1.665328	0.035445	1.216449
C61	C	1.165353	-0.464519	0.823663
C62	C	1.665353	0.035481	1.323663
C63	C	1.165352	-0.213047	0.464905
C64	C	1.665352	0.286953	0.964905
C65	C	1.165387	-0.105833	0.464926
C66	C	1.665387	0.394167	0.964926
C67	C	1.165260	-0.464656	0.214241
C68	C	1.665260	0.035344	0.714241
C69	C	1.165392	-0.464420	0.107028
C70	C	1.665392	0.035580	0.607028
C71	C	1.165374	-0.464453	1.019958
C72	C	1.665374	0.035547	1.519958
C73	C	1.165360	-0.464492	0.910726
C74	C	1.665360	0.035508	1.410726
