data_functionalizedCrystal
_audit_creation_method	'MofGen! by Chris Wilmer'
_symmetry_space_group_name_H-M	'P1'
_symmetry_Int_Tables_number	1
_symmetry_cell_setting	triclinic
loop_
_symmetry_equiv_pos_as_xyz
  x,y,z
_cell_length_a	10.654550
_cell_length_b	15.944551
_cell_length_c	9.730223
_cell_angle_alpha	89.997716
_cell_angle_beta	89.996251
_cell_angle_gamma	83.991820
loop_
_atom_site_label
_atom_site_type_symbol
_atom_site_fract_x
_atom_site_fract_y
_atom_site_fract_z
O1	O	1.666308	0.117973	-0.114406
O2	O	1.300684	0.129213	-0.114384
O3	O	1.493480	0.001376	-0.114384
O4	O	1.473511	0.245810	-0.114407
O5	O	1.493478	0.001379	0.114196
O6	O	1.300681	0.129216	0.114196
O7	O	1.666305	0.117976	0.114174
Zn8	Zn	1.483493	0.123597	0.150477
Zn9	Zn	1.483496	0.123592	-0.150687
O10	O	1.473509	0.245813	0.114173
C11	C	1.253895	0.128389	-0.000092
C12	C	1.114484	0.125920	-0.000083
C13	C	1.034024	0.201188	-0.000110
C14	C	0.903034	0.198863	-0.000134
C15	C	0.932975	0.045995	-0.000108
C16	C	1.063963	0.048321	-0.000075
C17	C	1.016737	0.289446	-0.000131
C18	C	0.885746	0.287121	-0.000154
C19	C	1.492650	-0.029921	-0.000093
C20	C	1.490165	-0.123182	-0.000092
C21	C	1.364720	-0.338765	-0.000104
C22	C	1.422971	-0.399443	0.112596
C23	C	1.485668	-0.293934	-0.000103
C24	C	1.423002	-0.399430	-0.112765
C25	C	1.481317	-0.458872	-0.000119
C26	C	1.543953	-0.353384	0.112691
C27	C	1.543967	-0.353364	-0.112772
C28	C	1.602306	-0.414024	-0.000045
C29	C	1.488172	-0.198917	-0.000092
C30	C	1.478822	-0.553887	-0.000119
C31	C	1.713094	0.118800	-0.000122
C32	C	1.852505	0.121269	-0.000140
C33	C	1.474339	0.277110	-0.000120
C34	C	1.476824	0.370371	-0.000130
N35	N	1.483500	0.123599	0.356013
N36	N	1.483499	0.123583	-0.356224
C37	C	1.568892	0.067012	0.427939
C38	C	1.568889	0.067002	0.571822
C39	C	1.398098	0.180173	0.571840
C40	C	1.398096	0.180178	0.427959
C41	C	1.667501	0.001676	0.427931
C42	C	1.667498	0.001666	0.571814
H43	H	0.839729	0.313795	0.098527
C44	C	1.639626	-0.085527	0.375165
H45	H	1.639630	-0.085518	0.277527
H46	H	1.559361	-0.097517	0.407712
H47	H	1.702703	-0.127341	0.407687
C48	C	1.304168	0.242410	0.650985
H49	H	1.316402	0.234306	0.746977
H50	H	1.220360	0.232768	0.627409
H51	H	1.317814	0.298559	0.627409
H52	H	0.843584	0.320374	-0.095825
H53	H	1.758420	0.022134	0.383297
H54	H	1.595080	-0.332939	-0.208062
C55	C	1.627346	-0.080747	0.632114
H56	H	1.628703	-0.077939	0.729624
H57	H	1.684127	-0.126992	0.601965
H58	H	1.544415	-0.088141	0.601972
C59	C	1.797612	0.021111	0.624575
H60	H	1.797607	0.021096	0.722213
H61	H	1.814799	0.074909	0.592047
H62	H	1.860701	-0.020690	0.592032
C63	C	1.152465	-0.034474	-0.000030
H64	H	1.103613	-0.081020	-0.000041
H65	H	1.204163	-0.036737	0.079695
H66	H	1.204207	-0.036752	-0.079737
C67	C	0.877397	-0.039357	-0.000114
H68	H	0.787861	-0.029964	-0.000145
H69	H	0.904995	-0.070382	0.079603
H70	H	0.905035	-0.070379	-0.079829
C71	C	1.055765	0.336085	0.129085
H72	H	0.982928	0.353679	0.182214
H73	H	1.095929	0.384011	0.102506
H74	H	1.112503	0.299329	0.182263
C75	C	1.064423	0.327415	-0.133440
H76	H	0.995016	0.342718	-0.192825
H77	H	1.122567	0.286930	-0.177719
H78	H	1.105090	0.376035	-0.112015
H79	H	1.371814	-0.419846	0.207881
C80	C	1.229106	-0.294547	0.000052
H81	H	1.186334	-0.310216	0.080235
H82	H	1.185709	-0.310971	-0.079195
H83	H	1.231618	-0.235166	-0.000756
C84	C	1.612991	-0.325983	0.241553
H85	H	1.614103	-0.266484	0.240798
H86	H	1.697134	-0.352425	0.241880
H87	H	1.570300	-0.342124	0.321487
C88	C	1.737990	-0.458122	0.000105
H89	H	1.751036	-0.492010	-0.079965
H90	H	1.750420	-0.492693	0.079466
H91	H	1.796209	-0.416886	0.000911
C92	C	1.353877	-0.426964	-0.241478
H93	H	1.269487	-0.400936	-0.241325
H94	H	1.353461	-0.486511	-0.241008
H95	H	1.396025	-0.410413	-0.321512
H96	H	1.328552	0.226248	0.369398
