data_functionalizedCrystal
_audit_creation_method	'MofGen! by Chris Wilmer'
_symmetry_space_group_name_H-M	'P1'
_symmetry_Int_Tables_number	1
_symmetry_cell_setting	triclinic
loop_
_symmetry_equiv_pos_as_xyz
  x,y,z
_cell_length_a	15.538191
_cell_length_b	14.519709
_cell_length_c	14.750779
_cell_angle_alpha	77.332886
_cell_angle_beta	97.572172
_cell_angle_gamma	65.476119
loop_
_atom_site_label
_atom_site_type_symbol
_atom_site_fract_x
_atom_site_fract_y
_atom_site_fract_z
O1	O	1.229003	-0.272518	-0.079831
O2	O	0.954923	-0.166092	-0.079833
O3	O	1.099232	-0.355991	-0.079824
O4	O	1.084694	-0.082619	-0.079841
O5	O	1.140026	-0.409668	0.079829
O6	O	0.995717	-0.219769	0.079820
O7	O	1.269797	-0.326196	0.079821
Zn8	Zn	1.139234	-0.281505	0.105169
Zn9	Zn	1.085486	-0.210782	-0.105181
O10	O	1.125488	-0.136297	0.079812
C11	C	0.940243	-0.181796	-0.000007
C12	C	0.835725	-0.148628	-0.000007
C13	C	0.547381	-0.478139	-0.000001
C14	C	0.449167	-0.446949	-0.000004
C15	C	0.427017	-0.271514	-0.000015
C16	C	0.525232	-0.302691	-0.000007
C17	C	0.585407	-0.406004	-0.000002
C18	C	0.563258	-0.230557	-0.000008
C19	C	0.661464	-0.261730	-0.000005
C20	C	0.721643	-0.365037	-0.000003
C21	C	0.683612	-0.437177	0.000001
C22	C	0.503080	-0.127242	-0.000020
C23	C	0.541106	-0.055108	-0.000021
C24	C	0.639315	-0.086282	-0.000012
C25	C	0.699494	-0.189590	-0.000009
C26	C	0.677346	-0.014142	-0.000015
C27	C	0.775551	-0.045315	-0.000013
C28	C	0.797700	-0.220763	-0.000006
C29	C	1.118952	-0.416961	0.000003
C30	C	1.116922	-0.518660	0.000004
C31	C	1.109444	-0.891034	-0.000021
C32	C	1.111521	-0.787427	-0.000014
C33	C	1.113183	-0.704851	-0.000008
C34	C	1.115260	-0.601236	-0.000003
C35	C	1.284476	-0.310491	-0.000007
C36	C	1.388993	-0.343656	-0.000013
C37	C	1.105768	-0.075325	-0.000017
C38	C	1.107796	0.026375	-0.000024
N39	N	1.175923	-0.329774	0.248727
N40	N	1.048805	-0.162523	-0.248739
C41	C	0.946338	-0.027755	0.600530
C42	C	0.972054	-0.061575	0.701031
C43	C	1.099866	-0.229693	0.701002
C44	C	1.074158	-0.195889	0.600499
C45	C	0.997394	-0.094918	0.550271
C46	C	1.125213	-0.263052	0.550240
C47	C	1.099510	-0.229248	0.449746
C48	C	1.022751	-0.128281	0.399511
C49	C	0.971690	-0.061114	0.449777
C50	C	1.201982	-0.364019	0.600470
C51	C	1.253037	-0.431183	0.550211
C52	C	1.227330	-0.397382	0.449715
C53	C	1.150571	-0.296415	0.399480
C54	C	1.278390	-0.464549	0.399449
C55	C	1.252687	-0.430745	0.298955
C56	C	1.124867	-0.262611	0.298986
H57	H	0.378009	-0.187395	-0.000023
H58	H	0.801605	-0.390412	-0.000014
H59	H	1.222909	-0.391537	0.682299
C60	C	1.336316	-0.540788	0.604922
C61	C	1.347886	-0.556029	0.703689
C62	C	1.424582	-0.656992	0.754116
H63	H	1.395019	-0.546349	0.588552
H64	H	1.321779	-0.593382	0.588512
H65	H	1.362428	-0.503450	0.720092
H66	H	1.289203	-0.550490	0.720088
H67	H	1.410045	-0.709586	0.737706
H68	H	1.483279	-0.662544	0.737738
H69	H	1.432436	-0.667350	0.821134
C70	C	0.611862	0.097960	0.000022
C71	C	0.517723	0.109815	0.000036
C72	C	0.457378	0.213065	0.000082
H73	H	0.609066	0.147715	-0.055638
H74	H	0.637575	0.110196	0.055718
H75	H	0.492015	0.097590	-0.055655
H76	H	0.520487	0.060084	0.055692
H77	H	0.483091	0.225302	0.055779
H78	H	0.454590	0.262812	-0.055578
H79	H	0.393500	0.221119	0.000101
C80	C	0.816674	0.033137	0.000038
C81	C	0.742965	0.130275	0.000060
C82	C	0.780813	0.202569	0.000114
H83	H	0.840288	0.043472	-0.055622
H84	H	0.868729	0.005952	0.055735
H85	H	0.690927	0.157455	-0.055632
H86	H	0.719343	0.119974	0.055715
H87	H	0.832868	0.175384	0.055811
H88	H	0.804427	0.212895	-0.055546
H89	H	0.730810	0.268482	0.000138
C90	C	0.994723	-0.091359	0.290402
C91	C	0.916587	0.011449	0.257175
C92	C	0.890750	0.045500	0.156670
H93	H	0.975859	-0.138208	0.267550
H94	H	1.049067	-0.091133	0.267615
H95	H	0.862255	0.011215	0.279951
H96	H	0.935429	0.058322	0.280000
H97	H	0.945093	0.045727	0.133883
H98	H	0.871890	-0.001355	0.133828
H99	H	0.837738	0.115262	0.134112
C100	C	1.361651	-0.574261	0.453871
C101	C	1.339991	-0.651513	0.429420
C102	C	1.416672	-0.752592	0.479525
H103	H	1.369716	-0.584925	0.520933
H104	H	1.420298	-0.579765	0.437366
H105	H	1.281361	-0.646012	0.445931
H106	H	1.331936	-0.640884	0.362366
H107	H	1.475319	-0.758097	0.463020
H108	H	1.424730	-0.763245	0.546585
H109	H	1.401990	-0.805020	0.462936
C110	C	0.862865	0.081775	0.545939
C111	C	0.790399	0.071324	0.488279
C112	C	0.713487	0.172192	0.437987
H113	H	0.886630	0.122109	0.506648
H114	H	0.836071	0.116949	0.590234
H115	H	0.817189	0.036165	0.443989
H116	H	0.766607	0.031008	0.527546
H117	H	0.686693	0.207366	0.482282
H118	H	0.737261	0.212518	0.398701
H119	H	0.664305	0.165114	0.398866
H120	H	1.294263	-0.485437	0.258034
C121	C	0.916457	0.011482	0.755426
C122	C	0.843714	0.107127	0.689924
C123	C	0.792472	0.174442	0.739997
H124	H	0.960295	0.025476	0.794628
H125	H	0.887186	-0.021728	0.794613
H126	H	0.872984	0.140330	0.650753
H127	H	0.799855	0.093165	0.650720
H128	H	0.763201	0.141233	0.779184
H129	H	0.836317	0.188428	0.779197
H130	H	0.743104	0.239341	0.695562
H131	H	0.846699	-0.304892	0.000004
C132	C	0.749032	-0.549265	-0.000137
C133	C	0.785092	-0.544667	-0.082261
C134	C	0.845370	-0.647894	-0.082414
H135	H	0.712432	-0.587870	-0.000181
H136	H	0.802075	-0.583798	0.055510
H137	H	0.732057	-0.510149	-0.137893
H138	H	0.821707	-0.506082	-0.082234
H139	H	0.898413	-0.682427	-0.026767
H140	H	0.808764	-0.686490	-0.082456
H141	H	0.869851	-0.644788	-0.138129
H142	H	1.162371	-0.311903	0.741909
C143	C	0.612554	-0.590340	-0.000044
C144	C	0.558232	-0.646841	-0.000063
C145	C	0.618232	-0.750191	-0.000119
H146	H	0.665569	-0.624997	0.055614
H147	H	0.637076	-0.587461	-0.055742
H148	H	0.533725	-0.649725	0.055629
H149	H	0.505220	-0.612216	-0.055717
H150	H	0.642754	-0.747312	-0.055818
H151	H	0.671244	-0.784839	0.055540
H152	H	0.581381	-0.788537	-0.000141
H153	H	0.418212	-0.505697	-0.000005
H154	H	0.423115	-0.101863	-0.000025
H155	H	1.062352	-0.180395	0.258089
H156	H	0.492098	0.029011	-0.000029
H157	H	0.909175	0.021102	0.408880
