data_functionalizedCrystal
_audit_creation_method	'MofGen! by Chris Wilmer'
_symmetry_space_group_name_H-M	'P1'
_symmetry_Int_Tables_number	1
_symmetry_cell_setting	triclinic
loop_
_symmetry_equiv_pos_as_xyz
  x,y,z
_cell_length_a	16.793024
_cell_length_b	16.793047
_cell_length_c	33.586455
_cell_angle_alpha	113.253857
_cell_angle_beta	66.219990
_cell_angle_gamma	112.758327
loop_
_atom_site_label
_atom_site_type_symbol
_atom_site_fract_x
_atom_site_fract_y
_atom_site_fract_z
O1	O	0.005016	-0.570216	-0.583573
O2	O	-0.034529	-0.474528	-0.453458
O3	O	0.114723	-0.474535	-0.528082
O4	O	-0.144235	-0.570209	-0.508949
O5	O	0.108729	-0.346329	-0.530229
O6	O	-0.040523	-0.346322	-0.455605
O7	O	-0.000977	-0.442010	-0.585721
Cu8	Cu	-0.021297	-0.382459	-0.520859
Cu9	Cu	-0.014209	-0.534079	-0.518320
O10	O	-0.150229	-0.442003	-0.511097
C11	C	0.005100	-0.790970	-0.238461
C12	C	-0.040584	-0.395375	-0.435637
C13	C	-0.044693	-0.353446	-0.386631
C14	C	-0.039275	-0.401741	-0.363054
C15	C	-0.040566	-0.125547	-0.300731
C16	C	-0.044689	-0.223451	-0.321635
C17	C	-0.039266	-0.270752	-0.297563
C18	C	0.005118	-0.521142	-0.103554
C19	C	-0.046224	-0.263935	-0.366370
C20	C	-0.036476	-0.360146	-0.318399
C21	C	-0.030850	-0.408530	-0.294565
C22	C	-0.028014	-0.367522	-0.249895
C23	C	-0.030804	-0.278128	-0.229058
C24	C	-0.036430	-0.229743	-0.252892
C25	C	-0.027971	-0.237122	-0.184383
C26	C	-0.022345	-0.285507	-0.160550
C27	C	-0.019555	-0.374900	-0.181386
C28	C	-0.022391	-0.415909	-0.226057
C29	C	-0.019601	-0.505302	-0.246894
C30	C	-0.013975	-0.553687	-0.223060
C31	C	-0.011142	-0.512684	-0.178391
C32	C	-0.013932	-0.423291	-0.157554
C33	C	-0.005516	-0.561069	-0.154557
C34	C	-0.002726	-0.650463	-0.175394
C35	C	-0.005562	-0.691471	-0.220064
C36	C	-0.011185	-0.643081	-0.243897
C37	C	-0.022434	-0.546309	-0.291568
C38	C	-0.019644	-0.635702	-0.312405
C39	C	-0.014021	-0.684089	-0.288567
C40	C	-0.022480	-0.676711	-0.357076
C41	C	-0.028106	-0.628326	-0.380910
C42	C	-0.030896	-0.538933	-0.360073
C43	C	-0.028060	-0.497924	-0.315402
C44	C	-0.036522	-0.490548	-0.383907
C45	C	0.815184	-0.521162	-0.508596
C46	C	0.415541	-0.125553	-0.528781
C47	C	0.375032	-0.223457	-0.531493
C48	C	0.423813	-0.270761	-0.529101
C49	C	0.149318	-0.395376	-0.530584
C50	C	0.246774	-0.353455	-0.532364
C51	C	0.294574	-0.401748	-0.529976
C52	C	0.548961	-0.790984	-0.510398
C53	C	0.286104	-0.263940	-0.532530
C54	C	0.383336	-0.360149	-0.528302
C55	C	0.432207	-0.407971	-0.525810
C56	C	0.392316	-0.497392	-0.524993
C57	C	0.303554	-0.538991	-0.526667
C58	C	0.254683	-0.491169	-0.529159
C59	C	0.263666	-0.628421	-0.525851
C60	C	0.312537	-0.676243	-0.523359
C61	C	0.401299	-0.634644	-0.521685
C62	C	0.441190	-0.545223	-0.522502
C63	C	0.529952	-0.503624	-0.520828
C64	C	0.578823	-0.551446	-0.518336
C65	C	0.538939	-0.640864	-0.517520
C66	C	0.450177	-0.682463	-0.519194
C67	C	0.587810	-0.688687	-0.515028
C68	C	0.676572	-0.647088	-0.513354
C69	C	0.716463	-0.557666	-0.514172
C70	C	0.667586	-0.509847	-0.516662
C71	C	0.569840	-0.414195	-0.521644
C72	C	0.658602	-0.372596	-0.519970
C73	C	0.707476	-0.420426	-0.517480
C74	C	0.698493	-0.283174	-0.520788
C75	C	0.649622	-0.235352	-0.523280
C76	C	0.560860	-0.276951	-0.524954
C77	C	0.520969	-0.366372	-0.524136
C78	C	0.511989	-0.229129	-0.527446
C79	C	-0.040530	-0.395407	-0.935652
C80	C	0.005063	-0.791004	-0.738448
C81	C	0.009186	-0.693099	-0.717543
C82	C	0.003779	-0.645796	-0.741620
C83	C	0.005077	-0.521171	-0.603544
C84	C	0.009198	-0.563096	-0.652550
C85	C	0.003786	-0.514804	-0.676131
C86	C	-0.040516	-0.125574	-0.800747
C87	C	0.010719	-0.652613	-0.672809
C88	C	0.000994	-0.556406	-0.720789
C89	C	-0.004621	-0.508585	-0.744908
C90	C	-0.007444	-0.419162	-0.724369
C91	C	-0.004651	-0.377560	-0.679711
C92	C	0.000964	-0.425381	-0.655592
C93	C	-0.007471	-0.288129	-0.659174
C94	C	-0.013086	-0.240308	-0.683293
C95	C	-0.015878	-0.281910	-0.727951
C96	C	-0.013056	-0.371333	-0.748490
C97	C	-0.015848	-0.412935	-0.793148
C98	C	-0.021463	-0.365114	-0.817267
C99	C	-0.024282	-0.275694	-0.796731
C100	C	-0.021490	-0.234092	-0.752073
C101	C	-0.029897	-0.227873	-0.820850
C102	C	-0.032690	-0.269476	-0.865508
C103	C	-0.029867	-0.358899	-0.886047
C104	C	-0.024255	-0.406717	-0.861925
C105	C	-0.013028	-0.502367	-0.813685
C106	C	-0.015821	-0.543969	-0.858343
C107	C	-0.021433	-0.496140	-0.882464
C108	C	-0.012998	-0.633392	-0.878882
C109	C	-0.007383	-0.681213	-0.854763
C110	C	-0.004591	-0.639611	-0.810105
C111	C	-0.007414	-0.550188	-0.789566
C112	C	0.001024	-0.687432	-0.785986
O113	O	-0.000965	0.173549	-0.277957
O114	O	-0.040516	-0.085616	-0.325254
O115	O	0.108737	0.059592	-0.327284
O116	O	-0.150219	0.028341	-0.275927
O117	O	0.114753	0.055151	-0.263265
O118	O	-0.034500	-0.090057	-0.261234
O119	O	0.005051	0.169108	-0.213937
Cu120	Cu	-0.014175	0.039120	-0.231740
Cu121	Cu	-0.021290	0.044372	-0.307451
O122	O	-0.144202	0.023900	-0.211907
O123	O	-0.034458	-0.474571	0.046517
O124	O	0.005076	-0.570190	-0.083599
O125	O	-0.144170	-0.570237	-0.008972
O126	O	0.114787	-0.474523	-0.028110
O127	O	-0.150200	-0.442024	-0.011093
O128	O	-0.000954	-0.441976	-0.085720
O129	O	-0.040488	-0.346357	0.044396
Cu130	Cu	-0.021272	-0.382460	-0.020856
Cu131	Cu	-0.014141	-0.534087	-0.018347
O132	O	0.108757	-0.346309	-0.030231
C133	C	-0.850734	0.086244	-0.289716
C134	C	-0.450996	0.035117	-0.097351
C135	C	-0.410501	0.028587	-0.146852
C136	C	-0.459292	0.034683	-0.169840
C137	C	-0.184802	0.024283	-0.235878
C138	C	-0.282257	0.023363	-0.213592
C139	C	-0.330068	0.029423	-0.237088
C140	C	-0.584541	0.075410	-0.428242
C141	C	-0.321573	0.024104	-0.168302
C142	C	-0.418828	0.035176	-0.215083
C143	C	-0.467711	0.041476	-0.238329
C144	C	-0.427833	0.042022	-0.283580
C145	C	-0.339073	0.036269	-0.305586
C146	C	-0.290190	0.029970	-0.282340
C147	C	-0.299198	0.036812	-0.350842
C148	C	-0.348081	0.043111	-0.374088
C149	C	-0.436841	0.048864	-0.352082
C150	C	-0.476719	0.048318	-0.306830
C151	C	-0.565480	0.054071	-0.284825
C152	C	-0.614362	0.060370	-0.308071
C153	C	-0.574491	0.060913	-0.353321
C154	C	-0.485730	0.055160	-0.375326
C155	C	-0.623374	0.067212	-0.376567
C156	C	-0.712134	0.072965	-0.354561
C157	C	-0.752012	0.072419	-0.309309
C158	C	-0.703123	0.066123	-0.286065
C159	C	-0.605355	0.053528	-0.239569
C160	C	-0.694115	0.059281	-0.217564
C161	C	-0.743001	0.065577	-0.240813
C162	C	-0.733993	0.058735	-0.172312
C163	C	-0.685110	0.052436	-0.149066
C164	C	-0.596350	0.046683	-0.171072
C165	C	-0.556472	0.047229	-0.216323
C166	C	-0.547467	0.040383	-0.147826
O167	O	0.585213	0.169090	-0.504004
O168	O	0.494056	-0.090076	-0.525516
O169	O	0.488081	0.055124	-0.449918
O170	O	0.591189	0.023889	-0.579602
O171	O	0.359978	0.059584	-0.452885
O172	O	0.365953	-0.085616	-0.528483
O173	O	0.457110	0.173550	-0.506971
Cu174	Cu	0.399835	0.044374	-0.517998
Cu175	Cu	0.551332	0.039099	-0.514489
O176	O	0.463086	0.028349	-0.582569
C177	C	0.815354	-0.521094	-0.008709
C178	C	0.415547	-0.125494	-0.028771
C179	C	0.375059	-0.223405	-0.031498
C180	C	0.423859	-0.270708	-0.029121
C181	C	0.149365	-0.395355	-0.030599
C182	C	0.246820	-0.353421	-0.032381
C183	C	0.294640	-0.401713	-0.030008
C184	C	0.549171	-0.790955	-0.010537
C185	C	0.286131	-0.263897	-0.032533
C186	C	0.383402	-0.360104	-0.028335
C187	C	0.432293	-0.407926	-0.025859
C188	C	0.392422	-0.497356	-0.025055
C189	C	0.303660	-0.538965	-0.026727
C190	C	0.254769	-0.491143	-0.029204
C191	C	0.263791	-0.628403	-0.025925
C192	C	0.312683	-0.676224	-0.023448
C193	C	0.401445	-0.634615	-0.021775
C194	C	0.441316	-0.545185	-0.022579
C195	C	0.530078	-0.503576	-0.020906
C196	C	0.578969	-0.551398	-0.018429
C197	C	0.539104	-0.640825	-0.017627
C198	C	0.450342	-0.682434	-0.019300
C199	C	0.587995	-0.688646	-0.015150
C200	C	0.676757	-0.647037	-0.013477
C201	C	0.716628	-0.557607	-0.014281
C202	C	0.667731	-0.509789	-0.016757
C203	C	0.569946	-0.414138	-0.021709
C204	C	0.658708	-0.372530	-0.020036
C205	C	0.707602	-0.420359	-0.017561
C206	C	0.698579	-0.283100	-0.020840
C207	C	0.649688	-0.235278	-0.023317
C208	C	0.560926	-0.276887	-0.024990
C209	C	0.521055	-0.366317	-0.024186
C210	C	0.512035	-0.229066	-0.027467
O211	O	-0.620614	0.089309	0.052274
O212	O	-0.529507	0.043784	-0.078544
O213	O	-0.523494	0.194833	-0.006033
O214	O	-0.626628	-0.061740	-0.020236
O215	O	-0.395386	0.185419	-0.005549
O216	O	-0.401400	0.034370	-0.078059
O217	O	-0.492507	0.079895	0.052758
Cu218	Cu	-0.435256	0.056273	-0.012607
Cu219	Cu	-0.586758	0.067406	-0.013179
O220	O	-0.498521	-0.071154	-0.019752
C221	C	-0.437537	0.048335	0.402491
C222	C	-0.837226	0.099430	0.210091
C223	C	-0.739773	0.100339	0.187806
C224	C	-0.691967	0.094287	0.211308
C225	C	-0.571027	0.088563	0.071568
C226	C	-0.611521	0.095108	0.121070
C227	C	-0.562739	0.089011	0.144061
C228	C	-0.171338	0.037467	0.263967
C229	C	-0.700452	0.099593	0.142516
C230	C	-0.603213	0.088528	0.189308
C231	C	-0.554892	0.082255	0.212848
C232	C	-0.466098	0.076466	0.191141
C233	C	-0.425624	0.076949	0.145894
C234	C	-0.473945	0.083222	0.122354
C235	C	-0.336822	0.071163	0.124188
C236	C	-0.288502	0.064890	0.147728
C237	C	-0.328975	0.064407	0.192975
C238	C	-0.417770	0.070196	0.214682
C239	C	-0.458244	0.069713	0.259929
C240	C	-0.409923	0.063441	0.283469
C241	C	-0.321132	0.057655	0.261765
C242	C	-0.280658	0.058138	0.216518
C243	C	-0.272811	0.051382	0.285305
C244	C	-0.313285	0.050899	0.330552
C245	C	-0.402079	0.056688	0.352259
C246	C	-0.450397	0.062957	0.328716
C247	C	-0.547046	0.075500	0.281635
C248	C	-0.587520	0.075016	0.326882
C249	C	-0.539191	0.068747	0.350423
C250	C	-0.676314	0.080806	0.348589
C251	C	-0.724634	0.087078	0.325049
C252	C	-0.684160	0.087561	0.279802
C253	C	-0.595366	0.081772	0.258095
C254	C	-0.732481	0.093834	0.256262
O255	O	-0.040608	-1.085661	-0.825229
O256	O	-0.001018	-0.826491	-0.777938
O257	O	-0.150287	-0.971682	-0.775894
O258	O	0.108661	-0.940470	-0.827272
O259	O	-0.144253	-0.976123	-0.711878
O260	O	0.005016	-0.830932	-0.713922
O261	O	-0.034575	-1.090102	-0.761213
Cu262	Cu	-0.014228	-0.960923	-0.731722
Cu263	Cu	-0.021364	-0.955670	-0.807428
O264	O	0.114695	-0.944911	-0.763256
C265	C	-0.128053	-0.251717	-0.407156
C266	C	-0.049778	-0.210056	-0.393257
H267	H	-0.130246	-0.218448	-0.423753
H268	H	-0.127254	-0.311252	-0.425869
H269	H	-0.179746	-0.253691	-0.381270
H270	H	0.001915	-0.208088	-0.419144
H271	H	-0.050570	-0.150505	-0.374544
C272	C	0.404768	-0.789560	-0.478151
C273	C	0.406138	-0.781165	-0.518293
H274	H	0.377578	-0.850493	-0.477595
H275	H	0.464866	-0.771565	-0.476796
H276	H	0.370916	-0.752326	-0.452839
H277	H	0.439995	-0.818395	-0.543605
H278	H	0.346030	-0.799171	-0.519653
C279	C	-0.097934	-0.826517	-0.393107
C280	C	-0.019405	-0.775381	-0.380074
H281	H	-0.096028	-0.887428	-0.407308
H282	H	-0.149323	-0.823341	-0.367080
H283	H	-0.101699	-0.803467	-0.413779
H284	H	-0.015644	-0.798427	-0.359399
H285	H	0.031998	-0.778561	-0.406104
H286	H	-0.208057	0.053400	0.198770
H287	H	0.682288	-0.162154	-0.023969
H288	H	0.544632	-0.155941	-0.028119
C289	C	-0.084789	-0.425204	-0.079821
C290	C	-0.010862	-0.378015	-0.108238
H291	H	-0.082906	-0.397255	-0.049375
H292	H	-0.139303	-0.424754	-0.081962
H293	H	-0.082285	-0.485605	-0.088851
H294	H	-0.013371	-0.317615	-0.099211
H295	H	0.043666	-0.378455	-0.106095
H296	H	-0.717713	0.052007	-0.112064
H297	H	-0.030422	-0.661858	-0.417434
H298	H	-0.797237	0.091807	0.342798
H299	H	-0.023809	-0.160979	-0.735279
C300	C	-0.711661	0.180675	0.100837
C301	C	-0.754954	0.103890	0.116314
H302	H	-0.745308	0.183322	0.084658
H303	H	-0.707719	0.232875	0.125996
H304	H	-0.652600	0.177893	0.081353
H305	H	-0.814013	0.106675	0.135801
H306	H	-0.758906	0.051677	0.091152
H307	H	-0.806568	0.063430	-0.154318
H308	H	0.012418	-0.684570	-0.156900
C309	C	-0.592817	-0.040455	-0.093662
C310	C	-0.591467	0.039786	-0.097877
H311	H	-0.619975	-0.040819	-0.062826
H312	H	-0.626680	-0.090163	-0.111808
H313	H	-0.532708	-0.044791	-0.103487
H314	H	-0.651577	0.044119	-0.088055
H315	H	-0.557604	0.089507	-0.079725
H316	H	0.710767	-0.684484	-0.506030
C317	C	-0.008070	-0.153261	-0.596899
C318	C	-0.004392	-0.242213	-0.609884
H319	H	-0.006174	-0.124914	-0.566468
H320	H	0.042066	-0.121511	-0.616295
H321	H	-0.062608	-0.153032	-0.599120
H322	H	0.050149	-0.242441	-0.607666
H323	H	-0.054533	-0.273970	-0.590482
C324	C	-0.478859	0.010447	0.045510
C325	C	-0.429277	0.083757	0.072415
H326	H	-0.451286	0.010779	0.014679
H327	H	-0.480011	-0.043963	0.048488
H328	H	-0.538902	0.014818	0.055114
H329	H	-0.369235	0.079383	0.062813
H330	H	-0.428115	0.138180	0.069434
C331	C	-0.069766	-0.840992	-0.784061
C332	C	0.004141	-0.786135	-0.808651
H333	H	-0.067840	-0.901925	-0.798055
H334	H	-0.067285	-0.822980	-0.753893
H335	H	-0.124298	-0.835285	-0.783564
H336	H	0.058673	-0.791837	-0.809144
H337	H	0.001667	-0.804153	-0.838826
H338	H	-0.303725	0.071562	0.087197
C339	C	-0.249662	-0.056204	0.329246
C340	C	-0.262739	0.029720	0.352896
H341	H	-0.218453	-0.069274	0.343040
H342	H	-0.306628	-0.099575	0.330014
H343	H	-0.215020	-0.058028	0.298646
H344	H	-0.297387	0.031542	0.383496
H345	H	-0.205763	0.073102	0.352133
C346	C	0.140908	-0.763284	-0.526448
C347	C	0.165698	-0.674332	-0.527697
H348	H	0.080423	-0.791628	-0.527585
H349	H	0.180123	-0.795037	-0.551726
H350	H	0.145350	-0.763509	-0.499180
H351	H	0.161262	-0.674107	-0.554967
H352	H	0.126471	-0.642571	-0.502416
C353	C	-0.061865	-0.709227	-0.607717
C354	C	0.014258	-0.706488	-0.645915
H355	H	-0.059684	-0.742492	-0.591115
H356	H	-0.062518	-0.649648	-0.589030
H357	H	-0.115019	-0.737413	-0.617102
H358	H	0.067413	-0.678295	-0.636529
H359	H	0.014919	-0.766078	-0.664605
C360	C	0.159327	-0.673977	-0.067981
C361	C	0.165837	-0.674352	-0.027787
H362	H	0.098856	-0.702361	-0.069136
H363	H	0.176116	-0.613629	-0.068808
H364	H	0.198584	-0.705701	-0.093257
H365	H	0.126585	-0.642622	-0.002510
H366	H	0.149036	-0.734712	-0.026956
H367	H	0.280077	-0.749342	-0.022791
C368	C	0.830246	-0.285556	-0.516878
C369	C	0.805449	-0.374509	-0.515630
H370	H	0.890726	-0.257213	-0.515733
H371	H	0.825815	-0.285325	-0.544143
H372	H	0.791021	-0.253801	-0.491598
H373	H	0.844670	-0.406267	-0.540912
H374	H	0.809888	-0.374746	-0.488361
H375	H	-0.015274	-0.667410	-0.915397
H376	H	0.417746	-0.755558	-0.018645
C377	C	-0.035946	-0.624836	-0.446534
C378	C	-0.039613	-0.535794	-0.433220
H379	H	-0.037849	-0.652765	-0.476978
H380	H	0.018580	-0.625293	-0.444409
H381	H	-0.086094	-0.656840	-0.427249
H382	H	0.010539	-0.503788	-0.452503
H383	H	-0.094145	-0.535332	-0.435348
H384	H	0.245727	-0.224039	-0.533582
C385	C	0.267141	-0.783333	-0.482316
C386	C	0.268507	-0.774941	-0.522458
H387	H	0.239953	-0.844265	-0.481759
H388	H	0.327239	-0.765335	-0.480961
H389	H	0.233289	-0.746099	-0.457005
H390	H	0.302365	-0.812170	-0.547770
H391	H	0.208398	-0.792950	-0.523818
H392	H	-0.281187	0.020914	-0.148901
H393	H	0.771070	-0.249160	-0.519423
H394	H	-0.047834	-0.232081	-0.882358
C395	C	-0.855874	0.098603	0.325108
C396	C	-0.830460	0.100315	0.280232
H397	H	-0.916350	0.102637	0.339910
H398	H	-0.851721	0.043940	0.325301
H399	H	-0.816794	0.148083	0.340549
H400	H	-0.869536	0.050831	0.264790
H401	H	-0.834620	0.154984	0.280036
C402	C	-0.035810	-0.105194	-0.185470
C403	C	-0.039504	-0.131076	-0.229894
H404	H	-0.037698	-0.044277	-0.171275
H405	H	-0.085945	-0.142622	-0.168912
H406	H	0.018728	-0.111117	-0.186098
H407	H	-0.094046	-0.125160	-0.229267
H408	H	0.010636	-0.093638	-0.246457
C409	C	-0.167445	0.025434	-0.351441
C410	C	-0.192224	0.023619	-0.306629
H411	H	-0.106961	0.021522	-0.366433
H412	H	-0.206664	-0.024065	-0.366782
H413	H	-0.171891	0.080088	-0.351495
H414	H	-0.187784	-0.031038	-0.306574
H415	H	-0.152993	0.073123	-0.291283
C416	C	-0.215475	0.037300	-0.438501
C417	C	-0.304068	0.043708	-0.424034
H418	H	-0.188307	0.037666	-0.469336
H419	H	-0.181626	0.087016	-0.420350
H420	H	-0.216412	-0.017136	-0.435632
H421	H	-0.303130	0.098148	-0.426899
H422	H	-0.337925	-0.006012	-0.442190
H423	H	-0.226632	0.032105	-0.368836
H424	H	0.682238	-0.162236	-0.523943
C425	C	0.150201	-0.536734	-0.571208
C426	C	0.156719	-0.537092	-0.531013
H427	H	0.089722	-0.565092	-0.572353
H428	H	0.167021	-0.476391	-0.572049
H429	H	0.189431	-0.568492	-0.596483
H430	H	0.117493	-0.505328	-0.505737
H431	H	0.139888	-0.597446	-0.530168
H432	H	-0.020027	-0.251971	-0.124027
H433	H	-0.023718	-0.530163	-0.918978
C434	C	0.644564	-0.103864	-0.526283
C435	C	0.555983	-0.130402	-0.528304
H436	H	0.671717	-0.042910	-0.526803
H437	H	0.643610	-0.109633	-0.499066
H438	H	0.678444	-0.141045	-0.551613
H439	H	0.522102	-0.093225	-0.502972
H440	H	0.556932	-0.124625	-0.555524
H441	H	-0.011748	-0.757184	-0.305606
C442	C	-0.096590	-0.133213	-0.659888
C443	C	-0.016197	-0.141607	-0.660624
H444	H	-0.098514	-0.072279	-0.645891
H445	H	-0.099059	-0.151215	-0.690057
H446	H	-0.146721	-0.170442	-0.643209
H447	H	0.033934	-0.104383	-0.677306
H448	H	-0.013720	-0.123594	-0.630449
H449	H	0.003251	-0.391359	-0.619081
C450	C	-0.007923	-0.806443	-0.921904
C451	C	-0.004271	-0.779917	-0.877431
H452	H	-0.005996	-0.867376	-0.935898
H453	H	-0.062456	-0.800738	-0.921398
H454	H	0.042217	-0.769212	-0.938578
H455	H	-0.054415	-0.817143	-0.860755
H456	H	0.050268	-0.785630	-0.877934
C457	C	-0.165066	0.060266	0.078901
C458	C	-0.190494	0.058508	0.123770
H459	H	-0.104558	0.056330	0.064113
H460	H	-0.204080	0.010759	0.063440
H461	H	-0.169302	0.114912	0.078723
H462	H	-0.186264	0.003859	0.123949
H463	H	-0.151468	0.108020	0.139236
H464	H	-0.453130	0.055597	-0.412328
C465	C	-0.709273	0.177371	-0.387843
C466	C	-0.758320	0.093978	-0.379170
H467	H	-0.737786	0.190340	-0.403037
H468	H	-0.707285	0.222978	-0.359998
H469	H	-0.649489	0.175344	-0.406384
H470	H	-0.818103	0.096007	-0.360627
H471	H	-0.760319	0.048359	-0.407020
H472	H	-0.815575	0.070280	-0.222817
C473	C	0.155170	-0.207315	0.004152
C474	C	0.231600	-0.210027	-0.033929
H475	H	0.121507	-0.174053	0.003293
H476	H	0.118604	-0.266900	0.004075
H477	H	0.173569	-0.179136	0.030916
H478	H	0.213201	-0.238211	-0.060693
H479	H	0.268173	-0.150430	-0.033856
C480	C	0.150273	-0.536698	-0.071244
C481	C	0.156805	-0.537077	-0.031057
H482	H	0.089793	-0.565063	-0.072388
H483	H	0.167078	-0.476350	-0.072075
H484	H	0.189508	-0.568440	-0.096526
H485	H	0.117574	-0.505329	-0.005775
H486	H	0.139989	-0.597436	-0.030222
C487	C	0.673906	-0.713443	0.038790
C488	C	0.722963	-0.697457	-0.003576
H489	H	0.702434	-0.744554	0.044911
H490	H	0.671884	-0.657689	0.061609
H491	H	0.614134	-0.748941	0.038580
H492	H	0.782734	-0.661953	-0.003364
H493	H	0.724995	-0.753220	-0.026401
H494	H	-0.572284	0.068372	0.387422
C495	C	0.830350	-0.285471	-0.016945
C496	C	0.805575	-0.374432	-0.015712
H497	H	0.890831	-0.257121	-0.015801
H498	H	0.825909	-0.285225	-0.044205
H499	H	0.791120	-0.253732	0.008341
H500	H	0.844801	-0.406173	-0.041001
H501	H	0.810023	-0.374682	0.011551
C502	C	-0.809491	0.086703	0.412670
C503	C	-0.720986	0.080272	0.398530
H504	H	-0.837071	0.086363	0.443500
H505	H	-0.808321	0.141123	0.409697
H506	H	-0.843109	0.036972	0.394408
H507	H	-0.687366	0.130007	0.416791
H508	H	-0.722151	0.025845	0.401508
H509	H	-0.030255	-0.164038	-0.167345
H510	H	0.771156	-0.249077	-0.019476
