data_functionalizedCrystal
_audit_creation_method	'MofGen! by Chris Wilmer'
_symmetry_space_group_name_H-M	'P1'
_symmetry_Int_Tables_number	1
_symmetry_cell_setting	triclinic
loop_
_symmetry_equiv_pos_as_xyz
  x,y,z
_cell_length_a	14.853567
_cell_length_b	11.792241
_cell_length_c	13.330367
_cell_angle_alpha	89.995231
_cell_angle_beta	89.995418
_cell_angle_gamma	83.914173
loop_
_atom_site_label
_atom_site_type_symbol
_atom_site_fract_x
_atom_site_fract_y
_atom_site_fract_z
O1	O	1.196946	0.148181	-0.083355
O2	O	0.934555	0.165833	-0.083372
O3	O	1.072118	-0.008203	-0.083356
O4	O	1.059383	0.322217	-0.083371
O5	O	1.072098	-0.008206	0.083491
O6	O	0.934535	0.165829	0.083475
O7	O	1.196926	0.148177	0.083492
Cu8	Cu	1.065728	0.157003	0.098718
Cu9	Cu	1.065752	0.157008	-0.098598
O10	O	1.059363	0.322213	0.083476
C11	C	0.900953	0.165032	0.000049
C12	C	0.800860	0.162635	0.000043
C13	C	1.071308	-0.050491	0.000067
C14	C	1.068913	-0.176489	0.000066
C15	C	0.387884	0.049122	0.000071
C16	C	0.367408	0.255880	0.000060
C17	C	0.461451	0.258134	0.000057
C18	C	0.518715	0.155880	0.000059
C19	C	0.481936	0.051372	0.000064
C20	C	0.498237	0.362640	0.000042
C21	C	0.592285	0.364898	0.000037
C22	C	0.649550	0.262642	0.000046
C23	C	0.612766	0.158131	0.000053
C24	C	0.670030	0.055877	0.000055
C25	C	0.633248	-0.048637	0.000068
C26	C	0.539201	-0.050883	0.000073
C27	C	0.743596	0.264889	0.000041
C28	C	0.764081	0.058127	0.000048
C29	C	1.064511	-0.407174	0.000049
C30	C	1.066957	-0.278804	0.000058
C31	C	1.230527	0.148979	0.000069
C32	C	1.330621	0.151376	0.000069
C33	C	1.060173	0.364501	0.000051
C34	C	1.062567	0.490500	0.000046
N35	N	1.065718	0.156999	0.237500
N36	N	1.065769	0.157003	-0.237379
C37	C	1.004837	0.234040	0.710116
C38	C	1.126692	0.079966	0.710098
C39	C	1.126682	0.079962	0.605079
C40	C	1.065749	0.157000	0.552574
C41	C	1.004826	0.234042	0.605087
C42	C	1.187610	0.002930	0.552558
C43	C	1.187602	0.002925	0.447534
C44	C	1.126665	0.079958	0.395027
C45	C	1.065739	0.157001	0.447546
C46	C	1.004806	0.234039	0.395041
C47	C	0.943875	0.311078	0.447559
C48	C	0.943888	0.311075	0.552580
C49	C	1.126651	0.079961	0.290005
C50	C	1.004796	0.234040	0.290013
H51	H	0.679884	-0.131891	0.000063
H52	H	0.773540	0.349982	0.000032
O53	O	0.825845	-0.052163	0.000052
H54	H	0.784466	-0.125207	0.000057
O55	O	0.499532	-0.163601	0.000083
H56	H	0.424516	-0.147985	0.000076
H57	H	0.357932	-0.035970	0.000086
H58	H	0.320779	0.339131	0.000050
H59	H	0.451606	0.445889	0.000030
H60	H	0.955225	0.296762	0.752878
O61	O	1.253306	-0.080174	0.390890
H62	H	1.295672	-0.133748	0.445046
H63	H	1.176306	0.017249	0.752851
O64	O	1.253330	-0.080148	0.609189
H65	H	1.241424	-0.168657	0.589035
O66	O	0.939073	0.317124	0.233375
H67	H	0.950988	0.405633	0.253513
O68	O	0.631957	0.477614	0.000047
H69	H	0.576337	0.548338	0.000058
H70	H	0.894267	0.373808	0.404797
H71	H	0.894281	0.373798	0.595347
O72	O	1.192357	-0.003122	0.233357
H73	H	1.234727	-0.056693	0.287511
