data_functionalizedCrystal
_audit_creation_method	'MofGen! by Chris Wilmer'
_symmetry_space_group_name_H-M	'P1'
_symmetry_Int_Tables_number	1
_symmetry_cell_setting	triclinic
loop_
_symmetry_equiv_pos_as_xyz
  x,y,z
_cell_length_a	13.897448
_cell_length_b	19.077241
_cell_length_c	19.076919
_cell_angle_alpha	89.886096
_cell_angle_beta	87.727045
_cell_angle_gamma	87.690356
loop_
_atom_site_label
_atom_site_type_symbol
_atom_site_fract_x
_atom_site_fract_y
_atom_site_fract_z
Zn1	Zn	-0.350169	-1.058320	0.440571
Zn2	Zn	-0.504750	-1.062974	0.323067
Zn3	Zn	-0.349661	-0.945536	0.318349
Zn4	Zn	-0.517616	-0.940794	0.435803
O5	O	-0.430549	-1.001906	0.379448
O6	O	-0.365503	-1.157271	0.428954
O7	O	-0.478580	-1.051327	0.224111
O8	O	-0.214746	-0.960534	0.334583
O9	O	-0.479073	-1.160690	0.342625
O10	O	-0.215119	-1.043396	0.424379
O11	O	-0.364637	-0.965046	0.220644
O12	O	-0.377112	-0.846574	0.329959
O13	O	-0.501001	-0.952452	0.534766
O14	O	-0.500508	-0.843090	0.416252
O15	O	-0.377979	-1.038798	0.538270
O16	O	-0.641440	-1.046729	0.338001
O17	O	-0.650892	-0.956964	0.420828
C18	C	-0.440152	-0.819335	0.372077
C19	C	-0.444284	-0.741230	0.368940
C20	C	-0.387198	-0.702754	0.412482
C21	C	-0.391075	-0.629366	0.409529
C22	C	-0.452045	-0.594455	0.363037
C23	C	-0.509134	-0.632936	0.319490
C24	C	-0.505251	-0.706323	0.322440
C25	C	-0.469985	-0.375163	0.349383
C26	C	-0.473866	-0.301771	0.346437
C27	C	-0.355805	-0.298206	0.436476
C28	C	-0.351932	-0.371594	0.439425
C29	C	-0.409017	-0.410069	0.395875
N30	N	-0.456013	-0.519441	0.360018
N31	N	-0.405044	-0.485082	0.398891
C32	C	-0.681165	-1.001856	0.379425
C33	C	-0.788378	-1.001897	0.379442
C34	C	-0.984671	-1.001969	0.379489
C35	C	-0.875440	-1.001927	0.379465
C36	C	-0.178955	-1.001975	0.379486
C37	C	-0.071740	-1.002005	0.379503
C38	C	-0.440982	-0.994577	0.562727
C39	C	-0.445427	-0.991454	0.640830
C40	C	-0.420904	-0.185190	0.386842
C41	C	-0.416780	-0.263295	0.389979
C42	C	-0.420086	-1.009247	0.196883
C43	C	-0.415361	-1.012506	0.118786
C44	C	-0.383468	-1.034940	0.679347
C45	C	-0.387642	-1.031997	0.752733
C46	C	-0.453781	-0.985571	0.787599
C47	C	-0.515743	-0.942080	0.749076
C48	C	-0.511564	-0.945020	0.675692
C49	C	-0.473144	-0.971955	1.006879
C50	C	-0.477321	-0.969020	1.080268
C51	C	-0.349217	-1.058936	1.083920
C52	C	-0.345048	-1.061875	1.010534
C53	C	-0.407007	-1.018381	0.972017
N54	N	-0.458051	-0.982564	0.862611
N55	N	-0.402731	-1.021386	0.897007
H56	H	-0.558773	-0.604506	0.281631
Cl57	Cl	-0.319309	-0.580999	0.464273
H58	H	-0.302287	-0.400013	0.477287
H59	H	-0.309329	-0.266872	0.471930
H60	H	-0.551736	-0.737650	0.286983
Cl61	Cl	-0.541728	-0.423523	0.294619
Cl62	Cl	-0.261899	-1.120242	0.966708
H63	H	-0.329613	-1.072748	0.650965
H64	H	-0.298773	-1.094345	1.115288
H65	H	-0.337552	-0.731172	0.450343
Cl66	Cl	-0.560468	-0.910647	1.124099
H67	H	-0.523609	-0.936549	0.975528
Cl68	Cl	-0.309787	-1.086700	0.801154
H69	H	-0.569592	-0.904277	0.777470
Cl70	Cl	-0.589457	-0.890347	0.627269
H71	H	-0.523520	-0.273349	0.308577
