data_functionalizedCrystal
_audit_creation_method	'MofGen! by Chris Wilmer'
_symmetry_space_group_name_H-M	'P1'
_symmetry_Int_Tables_number	1
_symmetry_cell_setting	triclinic
loop_
_symmetry_equiv_pos_as_xyz
  x,y,z
_cell_length_a	11.026607
_cell_length_b	11.026607
_cell_length_c	8.140239
_cell_angle_alpha	89.998310
_cell_angle_beta	89.997756
_cell_angle_gamma	108.586017
loop_
_atom_site_label
_atom_site_type_symbol
_atom_site_fract_x
_atom_site_fract_y
_atom_site_fract_z
O1	O	1.726730	0.533621	-0.136609
O2	O	2.060063	0.866954	0.196724
O3	O	2.393397	1.200288	0.530057
O4	O	1.360150	0.472857	-0.136612
O5	O	1.693483	0.806191	0.196721
O6	O	2.026817	1.139524	0.530055
O7	O	1.513058	0.319949	-0.136605
O8	O	1.846391	0.653283	0.196728
O9	O	2.179725	0.986616	0.530062
O10	O	1.573822	0.686529	-0.136616
O11	O	1.907155	1.019863	0.196717
O12	O	2.240488	1.353196	0.530050
O13	O	1.513047	0.319945	0.136622
O14	O	1.846380	0.653278	0.469955
O15	O	2.179714	0.986611	0.803289
O16	O	1.360139	0.472853	0.136615
O17	O	1.693472	0.806186	0.469948
O18	O	2.026805	1.139520	0.803282
O19	O	1.726719	0.533616	0.136618
O20	O	2.060052	0.866950	0.469951
O21	O	2.393385	1.200283	0.803284
Zn22	Zn	1.543427	0.503234	0.179997
Zn23	Zn	1.876760	0.836567	0.513330
Zn24	Zn	2.210094	1.169901	0.846664
Zn25	Zn	1.543442	0.503240	-0.179991
Zn26	Zn	1.876775	0.836573	0.153342
Zn27	Zn	2.210108	1.169907	0.486675
O28	O	1.573810	0.686525	0.136611
O29	O	1.907144	1.019858	0.469944
O30	O	2.240477	1.353191	0.803277
C31	C	1.312485	0.461645	0.000001
C32	C	1.645818	0.794979	0.333334
C33	C	1.979151	1.128312	0.666668
C34	C	1.170471	0.428228	0.000000
C35	C	1.503804	0.761562	0.333333
C36	C	1.837137	1.094895	0.666667
C37	C	1.116821	0.520498	-0.000004
C38	C	1.450155	0.853831	0.333329
C39	C	1.783488	1.187165	0.666663
C40	C	0.970043	0.485962	-0.000005
C41	C	1.303376	0.819296	0.333328
C42	C	1.636709	1.152629	0.666662
C43	C	1.501843	0.272287	0.000007
C44	C	1.835176	0.605621	0.333340
C45	C	2.168509	0.938954	0.666673
C46	C	1.468426	0.130273	0.000000
C47	C	1.801759	0.463607	0.333334
C48	C	2.135092	0.796940	0.666667
C49	C	1.560695	0.076624	-0.000001
C50	C	1.894029	0.409957	0.333332
C51	C	2.227362	0.743291	0.666665
C52	C	1.526160	-0.070155	-0.000008
C53	C	1.859493	0.263179	0.333326
C54	C	2.192826	0.596512	0.666659
C55	C	1.774384	0.544828	0.000001
C56	C	2.107717	0.878162	0.333334
C57	C	2.441051	1.211495	0.666668
C58	C	1.916398	0.578245	-0.000009
C59	C	2.249731	0.911579	0.333324
C60	C	2.583064	1.244912	0.666658
C61	C	1.585026	0.734187	-0.000005
C62	C	1.918359	1.067520	0.333329
C63	C	2.251693	1.400853	0.666662
C64	C	1.618443	0.876200	-0.000009
C65	C	1.951776	1.209534	0.333324
C66	C	2.285109	1.542867	0.666657
N67	N	1.543426	0.503231	0.425680
N68	N	1.876759	0.836564	0.759013
N69	N	2.210093	1.169898	1.092346
N70	N	1.543451	0.503235	-0.425674
N71	N	1.876784	0.836568	-0.092341
N72	N	2.210117	1.169902	0.240993
H73	H	0.979125	0.682816	-0.000001
H74	H	1.312459	1.016149	0.333332
H75	H	1.645792	1.349482	0.666665
H76	H	1.179555	0.625061	0.000002
H77	H	1.512888	0.958394	0.333336
H78	H	1.846221	1.291728	0.666669
F79	F	1.088480	0.291554	0.000015
F80	F	1.421814	0.624887	0.333349
F81	F	1.755147	0.958221	0.666682
H82	H	1.363863	0.067540	-0.000011
H83	H	1.697196	0.400874	0.333322
H84	H	2.030530	0.734207	0.666656
F85	F	1.389478	-0.152141	-0.000024
F86	F	1.722812	0.181192	0.333310
F87	F	2.056145	0.514526	0.666643
F88	F	0.888056	0.349281	0.000010
F89	F	1.221390	0.682614	0.333344
F90	F	1.554723	1.015948	0.666677
F91	F	1.697370	0.158615	-0.000010
F92	F	2.030703	0.491948	0.333323
F93	F	2.364036	0.825281	0.666657
F94	F	1.755125	-0.041816	-0.000016
F95	F	2.088458	0.291518	0.333318
F96	F	2.421792	0.624851	0.666651
