data_functionalizedCrystal
_audit_creation_method	'MofGen! by Chris Wilmer'
_symmetry_space_group_name_H-M	'P1'
_symmetry_Int_Tables_number	1
_symmetry_cell_setting	triclinic
loop_
_symmetry_equiv_pos_as_xyz
  x,y,z
_cell_length_a	10.654550
_cell_length_b	10.654551
_cell_length_c	15.186229
_cell_angle_alpha	89.997433
_cell_angle_beta	90.009170
_cell_angle_gamma	84.485132
loop_
_atom_site_label
_atom_site_type_symbol
_atom_site_fract_x
_atom_site_fract_y
_atom_site_fract_z
O1	O	1.667845	0.176390	0.073295
O2	O	1.302366	0.193196	0.073280
O3	O	1.493508	0.002054	0.073288
O4	O	1.476703	0.367532	0.073287
O5	O	1.493485	0.002065	-0.073169
O6	O	1.302344	0.193207	-0.073177
O7	O	1.667822	0.176401	-0.073162
Zn8	Zn	1.485080	0.184806	-0.096423
Zn9	Zn	1.485109	0.184791	0.096541
O10	O	1.476681	0.367543	-0.073170
C11	C	1.255557	0.191968	0.000050
C12	C	1.116114	0.188276	0.000045
C13	C	1.036629	0.300817	0.000057
C14	C	0.905608	0.297341	0.000072
C15	C	0.933570	0.068771	0.000066
C16	C	1.064589	0.072249	0.000045
C17	C	1.088154	0.416844	0.000057
C18	C	1.008667	0.529395	0.000070
C19	C	0.877647	0.525918	0.000085
C20	C	0.826112	0.409891	0.000087
C21	C	1.492263	-0.044739	0.000062
C22	C	1.488570	-0.184182	0.000068
C23	C	1.486850	-0.249700	0.079900
C24	C	1.483370	-0.380720	0.079896
C25	C	1.483335	-0.380694	-0.079780
C26	C	1.486806	-0.249675	-0.079775
C27	C	1.488614	-0.184207	0.159742
C28	C	1.486896	-0.249725	0.239581
C29	C	1.483415	-0.380745	0.239577
C30	C	1.481654	-0.446247	0.159734
C31	C	1.714632	0.177629	0.000070
C32	C	1.854075	0.181321	0.000081
C33	C	1.477926	0.414336	0.000058
C34	C	1.481619	0.553779	0.000058
N35	N	1.485068	0.184815	-0.228115
C36	C	1.561923	0.261675	-0.453835
C37	C	1.561937	0.261667	-0.546025
C38	C	1.408272	0.107903	-0.546040
C39	C	1.408266	0.107906	-0.453852
C40	C	1.485089	0.184800	-0.407752
C41	C	1.485109	0.184788	-0.592130
C42	C	1.485123	0.184777	-0.692086
C43	C	1.485077	0.184808	-0.307790
N44	N	1.485130	0.184773	0.228234
H45	H	0.891600	-0.025693	0.000082
H46	H	0.812931	0.617562	0.000087
C47	C	1.232278	0.420678	0.000034
N48	N	1.340833	0.423565	0.000016
H49	H	1.478801	-0.552931	0.159737
H50	H	1.345724	0.045301	-0.583586
C51	C	1.488833	-0.177670	0.327403
N52	N	1.490294	-0.123400	0.393553
C53	C	1.152027	-0.051552	0.000036
N54	N	1.217887	-0.144803	0.000027
C55	C	0.681984	0.406073	0.000100
N56	N	0.573428	0.403200	0.000115
C57	C	1.323738	0.023334	-0.403157
N58	N	1.260075	-0.040365	-0.364974
C59	C	1.481405	-0.452752	-0.167601
N60	N	1.479955	-0.507027	-0.233749
H61	H	1.050636	0.623860	0.000061
C62	C	1.492323	-0.040067	0.159754
N63	N	1.495074	0.068504	0.159762
H64	H	1.482003	-0.434085	0.304585
C65	C	1.488705	-0.177602	-0.167595
N66	N	1.490134	-0.123316	-0.233743
H67	H	1.624478	0.324287	-0.416304
C68	C	1.646438	0.346258	-0.596712
N69	N	1.710081	0.409983	-0.634890
