data_functionalizedCrystal
_audit_creation_method	'MofGen! by Chris Wilmer'
_symmetry_space_group_name_H-M	'P1'
_symmetry_Int_Tables_number	1
_symmetry_cell_setting	triclinic
loop_
_symmetry_equiv_pos_as_xyz
  x,y,z
_cell_length_a	19.077105
_cell_length_b	12.759399
_cell_length_c	19.077299
_cell_angle_alpha	87.711827
_cell_angle_beta	94.502159
_cell_angle_gamma	87.711582
loop_
_atom_site_label
_atom_site_type_symbol
_atom_site_fract_x
_atom_site_fract_y
_atom_site_fract_z
Zn1	Zn	1.093658	-0.510628	0.441853
Zn2	Zn	1.088890	-0.678927	0.323973
Zn3	Zn	0.971071	-0.495901	0.319252
Zn4	Zn	0.975757	-0.678896	0.437089
O5	O	1.032344	-0.591088	0.380542
O6	O	1.191676	-0.539130	0.430185
O7	O	1.069304	-0.648498	0.224698
O8	O	0.987366	-0.350837	0.335534
O9	O	1.188172	-0.662779	0.343579
O10	O	1.077431	-0.361657	0.425608
O11	O	0.982743	-0.514030	0.221230
O12	O	0.873043	-0.513999	0.330914
O13	O	0.995354	-0.662725	0.536369
O14	O	0.876486	-0.648445	0.417488
O15	O	1.081975	-0.539100	0.539869
O16	O	1.073848	-0.825941	0.338959
O17	O	0.990730	-0.825918	0.422065
C18	C	0.849185	-0.579621	0.373172
C19	C	0.770830	-0.574742	0.370036
C20	C	0.735826	-0.642546	0.413566
C21	C	0.662203	-0.637947	0.410623
C22	C	0.623585	-0.565550	0.364145
C23	C	0.658593	-0.497740	0.320613
C24	C	0.732215	-0.502334	0.323561
C25	C	0.403205	-0.544290	0.350508
C26	C	0.329578	-0.539703	0.347563
C27	C	0.333193	-0.679910	0.437574
C28	C	0.406816	-0.684502	0.440514
C29	C	0.441818	-0.616688	0.396985
N30	N	0.548330	-0.560851	0.361134
N31	N	0.517072	-0.621383	0.400000
C32	C	1.032300	-0.864052	0.380524
C33	C	1.032347	-0.980832	0.380542
C34	C	1.075680	-1.035678	0.337322
C35	C	1.075726	-1.145406	0.337348
C36	C	0.989100	-1.145434	0.423815
C37	C	0.989058	-1.035708	0.423793
C38	C	1.157936	-1.298908	0.315604
C39	C	1.201262	-1.353756	0.272372
C40	C	1.209368	-1.314568	0.204026
C41	C	1.174137	-1.220533	0.178897
C42	C	1.130805	-1.165690	0.222124
C43	C	1.122713	-1.204877	0.290481
C44	C	0.906847	-0.882204	0.445530
C45	C	0.863511	-0.827359	0.488754
C46	C	0.855398	-0.866543	0.557101
C47	C	0.890617	-0.960581	0.582227
C48	C	0.933953	-1.015426	0.539003
C49	C	0.942068	-0.976234	0.470657
C50	C	1.216218	-0.602601	0.387940
C51	C	1.294574	-0.607506	0.391093
C52	C	1.039719	-0.602552	0.564413
C53	C	1.042862	-0.607437	0.642768
C54	C	1.032408	-0.317061	0.380576
C55	C	1.032435	-0.200287	0.380590
C56	C	1.065430	-0.642506	1.084018
C57	C	1.062467	-0.637909	1.010395
C58	C	1.015922	-0.565595	0.971785
C59	C	0.972332	-0.497881	1.006803
C60	C	0.975292	-0.502484	1.080424
C61	C	1.002232	-0.544326	0.751407
C62	C	0.999277	-0.539726	0.677780
C63	C	1.089412	-0.679755	0.681377
C64	C	1.092371	-0.684348	0.755000
C65	C	1.048778	-0.616638	0.790011
N66	N	1.012893	-0.560892	0.896531
N67	N	1.051804	-0.621347	0.865264
C68	C	1.024991	-0.579689	1.197385
C69	C	1.021845	-0.574795	1.119030
H70	H	0.431694	-0.489078	0.315058
C71	C	1.092049	-1.062264	0.194492
H72	H	1.065081	-1.035217	0.230026
H73	H	1.125430	-1.012753	0.182300
H74	H	1.061715	-1.075021	0.154107
C75	C	0.294694	-0.754449	0.485489
H76	H	0.328239	-0.798214	0.513597
H77	H	0.267235	-0.714415	0.515092
H78	H	0.264864	-0.796710	0.457346
H79	H	1.124901	-0.734882	0.652863
H80	H	0.934430	-0.439006	0.975361
H81	H	0.633707	-0.693161	0.446069
H82	H	1.103336	-0.701387	1.115449
H83	H	0.962634	-1.091994	0.559468
H84	H	0.627144	-0.438788	0.282773
C85	C	0.948059	-0.460200	0.635310
H86	H	0.922512	-0.420545	0.666704
H87	H	0.973870	-0.414310	0.607675
H88	H	0.916184	-0.496699	0.605355
H89	H	1.151347	-1.330817	0.371259
H90	H	0.884012	-0.992486	0.637881
H91	H	0.966735	-0.489193	0.779903
H92	H	0.939801	-0.447346	1.108930
C93	C	0.915775	-0.839100	0.370347
H94	H	0.946635	-0.885224	0.348206
H95	H	0.871250	-0.833871	0.344120
H96	H	0.934961	-0.771612	0.372334
H97	H	0.760714	-0.447116	0.288117
H98	H	0.438254	-0.743457	0.478359
H99	H	0.767265	-0.701503	0.451411
C100	C	1.143560	-0.763908	0.797465
H101	H	1.169087	-0.803587	0.766068
H102	H	1.175443	-0.727453	0.827431
H103	H	1.117722	-0.809787	0.825087
H104	H	0.298136	-0.480737	0.309720
C105	C	1.110418	-0.712380	0.971884
H106	H	1.138570	-0.756095	1.005423
H107	H	1.082292	-0.754677	0.942071
H108	H	1.139989	-0.672307	0.944408
C109	C	1.123295	-0.975313	0.289752
H110	H	1.117059	-0.902108	0.295921
H111	H	1.171075	-0.996833	0.302012
H112	H	1.111114	-0.989749	0.241967
C113	C	1.183050	-1.177436	0.103713
H114	H	1.213907	-1.223561	0.081569
H115	H	1.138522	-1.172208	0.077491
H116	H	1.202236	-1.109948	0.105697
C117	C	1.257029	-1.374896	0.156475
H118	H	1.276852	-1.436506	0.181230
H119	H	1.229969	-1.393832	0.115334
H120	H	1.293682	-1.331571	0.143540
H121	H	1.229948	-1.430319	0.292839
H122	H	0.953855	-1.190126	0.459027
C123	C	0.807727	-0.806214	0.604645
H124	H	0.787912	-0.744596	0.579896
H125	H	0.771079	-0.849537	0.617584
H126	H	0.834792	-0.787275	0.645788
H127	H	0.834838	-0.750784	0.468292
