data_functionalizedCrystal
_audit_creation_method	'MofGen! by Chris Wilmer'
_symmetry_space_group_name_H-M	'P1'
_symmetry_Int_Tables_number	1
_symmetry_cell_setting	triclinic
loop_
_symmetry_equiv_pos_as_xyz
  x,y,z
_cell_length_a	9.065218
_cell_length_b	15.711995
_cell_length_c	8.140239
_cell_angle_alpha	90.013992
_cell_angle_beta	89.998670
_cell_angle_gamma	77.702361
loop_
_atom_site_label
_atom_site_type_symbol
_atom_site_fract_x
_atom_site_fract_y
_atom_site_fract_z
O1	O	0.812407	-1.153258	-0.137110
O2	O	0.699631	-0.900719	-0.137002
O3	O	0.544074	-1.032209	-0.137055
O4	O	0.967963	-1.021769	-0.137057
O5	O	0.544071	-1.032205	0.136172
O6	O	0.699627	-0.900715	0.136225
O7	O	0.812403	-1.153254	0.136117
Zn8	Zn	0.756014	-1.026984	0.179551
Zn9	Zn	0.756019	-1.026990	-0.180437
O10	O	0.967960	-1.021765	0.136170
C11	C	0.681205	-0.868370	-0.000375
C12	C	0.626289	-0.771985	-0.000334
C13	C	1.092569	-0.408538	-0.000410
C14	C	1.040933	-0.317972	-0.000440
C15	C	0.782186	-0.336562	-0.000444
C16	C	0.833800	-0.427132	-0.000422
C17	C	0.988993	-0.463112	-0.000403
C18	C	0.730225	-0.481706	-0.000415
C19	C	0.781836	-0.572267	-0.000384
C20	C	0.937022	-0.608255	-0.000360
C21	C	1.040604	-0.553674	-0.000372
C22	C	0.575033	-0.445724	-0.000422
C23	C	0.471457	-0.500298	-0.000415
C24	C	0.523067	-0.590861	-0.000396
C25	C	0.678254	-0.626849	-0.000372
C26	C	0.419486	-0.645443	-0.000384
C27	C	0.471096	-0.736004	-0.000353
C28	C	0.729864	-0.717410	-0.000341
C29	C	0.488567	-1.031203	-0.000444
C30	C	0.323174	-1.028203	-0.000450
C31	C	1.023467	-1.022770	-0.000445
C32	C	1.188860	-1.025770	-0.000450
N33	N	0.756013	-1.026986	0.425234
C34	C	0.830836	-0.185603	-0.000486
C35	C	0.885772	-0.281987	-0.000453
N36	N	0.756012	-1.026994	-0.426120
H37	H	1.125289	-0.273539	-0.000438
O38	O	0.880605	-0.752415	-0.000612
C39	C	0.918209	-0.804299	-0.142072
H40	H	0.829258	-0.782302	-0.240995
H41	H	0.922538	-0.875421	-0.110049
C42	C	1.182849	-0.821633	-0.084727
C43	C	1.073604	-0.794610	-0.206231
H44	H	1.278707	-0.815660	-0.124300
H45	H	1.157516	-0.786680	0.010582
H46	H	1.186438	-0.880899	-0.058052
H47	H	1.070004	-0.735342	-0.232889
H48	H	1.098941	-0.829553	-0.301546
O49	O	0.631490	-0.301464	-0.000537
C50	C	0.608142	-0.209829	-0.000519
H51	H	0.712296	-0.189480	-0.052238
H52	H	0.587338	-0.184542	0.130554
C53	C	0.342125	-0.196368	-0.044170
C54	C	0.470044	-0.171376	-0.107706
H55	H	0.256936	-0.172647	-0.110282
H56	H	0.357852	-0.258104	-0.044177
H57	H	0.324808	-0.175295	0.065056
H58	H	0.487369	-0.192459	-0.216922
H59	H	0.454316	-0.109642	-0.107721
H60	H	0.979041	-0.681996	-0.000328
H61	H	1.166977	-0.582970	-0.000354
H62	H	1.218942	-0.437835	-0.000392
H63	H	0.533016	-0.371982	-0.000427
H64	H	0.345098	-0.470990	-0.000411
H65	H	0.293127	-0.616133	-0.000378
H66	H	0.386754	-0.780440	-0.000352
