data_functionalizedCrystal
_audit_creation_method	'MofGen! by Chris Wilmer'
_symmetry_space_group_name_H-M	'P1'
_symmetry_Int_Tables_number	1
_symmetry_cell_setting	triclinic
loop_
_symmetry_equiv_pos_as_xyz
  x,y,z
_cell_length_a	16.109301
_cell_length_b	9.065218
_cell_length_c	7.540329
_cell_angle_alpha	90.001757
_cell_angle_beta	90.000240
_cell_angle_gamma	84.238683
loop_
_atom_site_label
_atom_site_type_symbol
_atom_site_fract_x
_atom_site_fract_y
_atom_site_fract_z
O1	O	-1.104587	-0.189628	-0.147363
O2	O	-0.862706	-0.213227	-0.147390
O3	O	-0.988646	0.013336	-0.147372
O4	O	-0.978647	-0.416191	-0.147381
O5	O	-0.988639	0.013338	0.147593
O6	O	-0.862699	-0.213224	0.147575
O7	O	-1.104579	-0.189625	0.147602
Cu8	Cu	-0.983638	-0.201425	0.174521
Cu9	Cu	-0.983647	-0.201428	-0.174309
O10	O	-0.978640	-0.416188	0.147584
C11	C	-0.831720	-0.212270	0.000089
C12	C	-0.739403	-0.209404	0.000078
C13	C	-1.135565	-0.190583	0.000119
C14	C	-1.227883	-0.193449	0.000118
C15	C	-0.987682	0.068300	0.000107
C16	C	-0.984808	0.232074	0.000098
C17	C	-0.518112	-0.337178	0.000096
C18	C	-0.431371	-0.334474	0.000108
C19	C	-0.449180	-0.065664	0.000105
C20	C	-0.535920	-0.068370	0.000107
C21	C	-0.570383	-0.204131	0.000093
C22	C	-0.396903	-0.198721	0.000103
C23	C	-0.302854	-0.195788	0.000116
C24	C	-0.664438	-0.207065	0.000084
C25	C	-0.979604	-0.471153	0.000101
C26	C	-0.982478	-0.634926	0.000098
N27	N	-0.983638	-0.201421	0.419870
N28	N	-0.983654	-0.201419	-0.419658
H29	H	-0.546169	-0.447723	0.000098
H30	H	-0.388815	-0.442814	0.000114
C31	C	-0.411262	0.083665	0.000104
N32	N	-0.382703	0.196143	0.000096
C33	C	-0.593422	0.077999	0.000104
N34	N	-0.636732	0.188240	0.000106
