data_functionalizedCrystal
_audit_creation_method	'MofGen! by Chris Wilmer'
_symmetry_space_group_name_H-M	'P1'
_symmetry_Int_Tables_number	1
_symmetry_cell_setting	triclinic
loop_
_symmetry_equiv_pos_as_xyz
  x,y,z
_cell_length_a	14.971486
_cell_length_b	10.540510
_cell_length_c	14.048226
_cell_angle_alpha	89.996066
_cell_angle_beta	89.998499
_cell_angle_gamma	84.063720
loop_
_atom_site_label
_atom_site_type_symbol
_atom_site_fract_x
_atom_site_fract_y
_atom_site_fract_z
O1	O	1.187867	0.165425	-0.079046
O2	O	0.927577	0.185235	-0.079071
O3	O	1.063674	-0.009446	-0.079057
O4	O	1.051769	0.360107	-0.079059
O5	O	1.063657	-0.009458	0.079264
O6	O	0.927560	0.185224	0.079250
O7	O	1.187850	0.165414	0.079276
Zn8	Zn	1.057702	0.175317	0.104400
Zn9	Zn	1.057724	0.175332	-0.104195
O10	O	1.051753	0.360095	0.079262
C11	C	0.894239	0.184344	0.000086
C12	C	0.794927	0.181689	0.000076
C13	C	0.738337	0.296059	0.000077
C14	C	0.645024	0.293557	0.000091
C15	C	0.608302	0.176683	0.000098
C16	C	0.664899	0.062304	0.000100
C17	C	0.758210	0.064808	0.000093
C18	C	0.470407	0.057094	0.000113
C19	C	0.377089	0.054590	0.000119
C20	C	0.357221	0.285843	0.000112
C21	C	0.450532	0.288347	0.000105
C22	C	0.507123	0.173967	0.000105
C23	C	1.062778	-0.056745	0.000101
C24	C	1.060124	-0.197665	0.000095
C25	C	1.154671	-0.416194	0.000467
C26	C	1.157502	-0.269630	0.000106
C27	C	1.010286	-0.241852	-0.090317
C28	C	1.008145	-0.388588	-0.090388
C29	C	1.006098	-0.388387	0.089653
C30	C	1.010716	-0.242098	0.090843
C31	C	1.221188	0.166305	0.000116
C32	C	1.320500	0.168960	0.000120
C33	C	1.052648	0.407395	0.000101
C34	C	1.055302	0.548314	0.000101
N35	N	1.057694	0.175306	0.246761
N36	N	1.057740	0.175333	-0.246556
C37	C	1.117977	0.089137	0.296585
C38	C	1.117983	0.089136	0.396242
C39	C	1.057710	0.175312	0.446074
C40	C	0.997420	0.261485	0.396243
C41	C	0.997410	0.261479	0.296587
C42	C	0.997446	0.261494	0.603957
C43	C	0.997456	0.261503	0.703620
C44	C	1.118019	0.089151	0.703612
C45	C	1.118009	0.089145	0.603957
C46	C	1.057720	0.175320	0.554132
H47	H	0.480428	0.383515	0.000090
Cl48	Cl	1.193787	-0.019182	0.541309
H49	H	0.768228	0.391231	0.000071
Cl50	Cl	1.193810	-0.019179	0.766252
Cl51	Cl	0.895701	-0.422821	-0.096742
Cl52	Cl	1.218075	-0.226444	-0.100122
Cl53	Cl	0.921678	0.369840	0.766258
Cl54	Cl	0.829352	-0.078978	0.000096
Cl55	Cl	0.921650	0.369829	0.541325
Cl56	Cl	1.193768	-0.019194	0.458880
H57	H	0.311140	0.378975	0.000116
H58	H	0.948340	0.331647	0.436822
Cl59	Cl	0.900949	-0.165104	0.099263
H60	H	1.167062	0.018968	0.256018
Cl61	Cl	1.060758	-0.451274	-0.194718
Cl62	Cl	0.330926	-0.092339	0.000159
Cl63	Cl	0.541548	-0.086699	0.000115
Cl64	Cl	0.899608	-0.167426	-0.095528
H65	H	0.634992	-0.032856	0.000119
Cl66	Cl	0.573886	0.437343	0.000087
Cl67	Cl	1.217687	-0.225006	0.100182
Cl68	Cl	1.063744	-0.194821	-0.194192
H69	H	1.192601	-0.458584	0.065306
H70	H	0.948321	0.331645	0.256021
H71	H	1.037036	-0.430925	0.158185
Cl72	Cl	1.212920	-0.484012	-0.099062
Cl73	Cl	1.066697	-0.198555	0.194114
H74	H	0.932986	-0.409707	0.090255
