data_functionalizedCrystal
_audit_creation_method	'MofGen! by Chris Wilmer'
_symmetry_space_group_name_H-M	'P1'
_symmetry_Int_Tables_number	1
_symmetry_cell_setting	triclinic
loop_
_symmetry_equiv_pos_as_xyz
  x,y,z
_cell_length_a	12.759399
_cell_length_b	21.295420
_cell_length_c	12.759401
_cell_angle_alpha	89.990037
_cell_angle_beta	90.008321
_cell_angle_gamma	89.990842
loop_
_atom_site_label
_atom_site_type_symbol
_atom_site_fract_x
_atom_site_fract_y
_atom_site_fract_z
Zn1	Zn	-0.418617	-0.962325	0.594101
Zn2	Zn	-0.594263	-0.962284	0.418420
Zn3	Zn	-0.418580	-0.857077	0.418427
Zn4	Zn	-0.594236	-0.857045	0.594048
O5	O	-0.506424	-0.909683	0.506249
O6	O	-0.441943	-1.050409	0.570816
O7	O	-0.570954	-0.948325	0.271400
O8	O	-0.271564	-0.871068	0.441756
O9	O	-0.570990	-1.050379	0.441744
O10	O	-0.271591	-0.948393	0.570823
O11	O	-0.441881	-0.871029	0.271405
O12	O	-0.441855	-0.768983	0.441705
O13	O	-0.570943	-0.871015	0.741076
O14	O	-0.570908	-0.768960	0.570732
O15	O	-0.441917	-0.948363	0.741115
O16	O	-0.741280	-0.948294	0.441693
O17	O	-0.741260	-0.870976	0.570726
C18	C	-0.506375	-0.746131	0.506214
C19	C	-0.506380	-0.676163	0.506224
C20	C	-0.439351	-0.176720	0.573557
C21	C	-0.439346	-0.242462	0.573559
C22	C	-0.506424	-0.275324	0.506252
C23	C	-0.573530	-0.242437	0.438957
C24	C	-0.573540	-0.176696	0.438964
N25	N	-0.514323	-0.378530	0.414262
N26	N	-0.514307	-0.440981	0.414258
C27	C	-0.506399	-0.473398	0.506228
N28	N	-0.498487	-0.441005	0.598204
N29	N	-0.498497	-0.378547	0.598207
C30	C	-0.506421	-0.346609	0.506237
C31	C	-0.439298	-0.577563	0.573527
C32	C	-0.439301	-0.643306	0.573530
C33	C	-0.573479	-0.643280	0.438919
C34	C	-0.573481	-0.577537	0.438924
C35	C	-0.506385	-0.544683	0.506227
C36	C	-0.779391	-0.909644	0.506225
C37	C	-0.896168	-0.909685	0.506250
C38	C	-0.951005	-0.949991	0.439139
C39	C	-1.060729	-0.950031	0.439174
C40	C	-1.060769	-0.869455	0.573435
C41	C	-0.951047	-0.869418	0.573404
C42	C	-0.232391	-0.909739	0.506296
C43	C	-0.115614	-0.909762	0.506316
C44	C	-0.506431	-0.909690	0.780283
C45	C	-0.506434	-0.909693	0.897059
C46	C	-0.506461	-0.073873	0.506277
C47	C	-0.506444	-0.143841	0.506267
C48	C	-0.439261	-0.949963	0.951943
C49	C	-0.439259	-0.949957	1.061667
C50	C	-0.573613	-0.869410	1.061614
C51	C	-0.573608	-0.869413	0.951892
C52	C	-0.506440	-0.909675	1.233282
C53	C	-0.506436	-0.909685	1.116505
H54	H	-0.628111	-0.550767	0.384124
H55	H	-0.628306	-0.836617	1.106272
Cl56	Cl	-0.354818	-1.000591	1.130660
Cl57	Cl	-0.658056	-0.818780	0.882889
Cl58	Cl	-0.657815	-0.684585	0.354311
H59	H	-0.384664	-0.550811	0.628328
H60	H	-0.384720	-0.149974	0.628365
Cl61	Cl	-0.657888	-0.135360	0.354358
Cl62	Cl	-0.657860	-0.283747	0.354347
Cl63	Cl	-0.354991	-0.283804	0.658157
H64	H	-1.105465	-0.836670	0.628107
H65	H	-0.384668	-0.670075	0.628334
Cl66	Cl	-0.882018	-1.000614	0.354720
H67	H	-1.105373	-0.982853	0.384527
Cl68	Cl	-0.882103	-0.818747	0.657785
Cl69	Cl	-0.354809	-1.000598	0.883015
