data_functionalizedCrystal
_audit_creation_method	'MofGen! by Chris Wilmer'
_symmetry_space_group_name_H-M	'P1'
_symmetry_Int_Tables_number	1
_symmetry_cell_setting	triclinic
loop_
_symmetry_equiv_pos_as_xyz
  x,y,z
_cell_length_a	11.169417
_cell_length_b	17.640280
_cell_length_c	11.169409
_cell_angle_alpha	78.765552
_cell_angle_beta	89.979436
_cell_angle_gamma	78.801822
loop_
_atom_site_label
_atom_site_type_symbol
_atom_site_fract_x
_atom_site_fract_y
_atom_site_fract_z
Zn1	Zn	1.931519	-0.314590	-0.582049
Zn2	Zn	2.431519	0.185410	-0.082049
Zn3	Zn	1.971978	-0.446792	-0.340816
Zn4	Zn	2.471978	0.053208	0.159184
Zn5	Zn	1.730817	-0.314638	-0.381369
Zn6	Zn	2.230817	0.185362	0.118631
Zn7	Zn	1.771365	-0.446728	-0.541481
Zn8	Zn	2.271365	0.053272	-0.041481
O9	O	1.851420	-0.380687	-0.461429
O10	O	2.351420	0.119313	0.038571
O11	O	2.104837	-0.332134	-0.550056
O12	O	2.604837	0.167866	-0.050056
O13	O	1.939950	-0.429309	-0.178231
O14	O	2.439950	0.070691	0.321769
O15	O	1.723538	-0.204024	-0.441939
O16	O	2.223538	0.295976	0.058061
O17	O	2.134563	-0.429262	-0.372823
O18	O	2.634563	0.070738	0.127177
O19	O	1.870993	-0.203989	-0.589378
O20	O	2.370993	0.296011	-0.089378
O21	O	1.762770	-0.332215	-0.208025
O22	O	2.262770	0.167785	0.291975
O23	O	1.568244	-0.332153	-0.402602
O24	O	2.068244	0.167847	0.097398
O25	O	1.792647	-0.429153	-0.714826
O26	O	2.292647	0.070847	-0.214826
O27	O	1.598035	-0.429199	-0.520235
O28	O	2.098035	0.070801	-0.020235
O29	O	1.910311	-0.332071	-0.744632
O30	O	2.410311	0.167929	-0.244632
O31	O	1.979269	-0.557391	-0.333485
O32	O	2.479269	-0.057391	0.166515
O33	O	1.831879	-0.557344	-0.480912
O34	O	2.331879	-0.057344	0.019088
C35	C	1.539591	-0.380675	-0.461417
C36	C	2.039591	0.119325	0.038583
C37	C	1.406196	-0.380689	-0.461435
C38	C	1.906196	0.119311	0.038565
C39	C	1.914397	-0.586047	-0.398422
C40	C	2.414397	-0.086047	0.101578
C41	C	1.941449	-0.673901	-0.371508
C42	C	2.441449	-0.173901	0.128492
C43	C	1.646403	-0.962856	-0.666331
C44	C	2.146403	-0.462856	-0.166331
C45	C	1.671824	-1.045408	-0.641003
C46	C	2.171824	-0.545408	-0.141003
C47	C	1.825396	-1.045392	-0.487642
C48	C	2.325396	-0.545392	0.012358
C49	C	1.799992	-0.962838	-0.512961
C50	C	2.299992	-0.462838	-0.012961
C51	C	1.710493	-0.921577	-0.602306
C52	C	2.210493	-0.421577	-0.102306
C53	C	1.864082	-0.921559	-0.448937
C54	C	2.364082	-0.421559	0.051063
C55	C	1.838674	-0.839012	-0.474250
C56	C	2.338674	-0.339012	0.025750
C57	C	1.749177	-0.797745	-0.563588
C58	C	2.249177	-0.297745	-0.063588
C59	C	1.685085	-0.839030	-0.627620
C60	C	2.185085	-0.339030	-0.127620
C61	C	1.953574	-0.962822	-0.359586
C62	C	2.453574	-0.462822	0.140414
C63	C	2.017664	-0.921542	-0.295561
C64	C	2.517664	-0.421542	0.204439
C65	C	1.992264	-0.838994	-0.320881
C66	C	2.492264	-0.338994	0.179119
C67	C	1.902766	-0.797727	-0.410219
C68	C	2.402766	-0.297727	0.089781
C69	C	2.056355	-0.797709	-0.256849
C70	C	2.556355	-0.297709	0.243151
C71	C	2.030948	-0.715162	-0.282163
C72	C	2.530948	-0.215162	0.217837
C73	C	1.877359	-0.715180	-0.435532
C74	C	2.377359	-0.215180	0.064468
C75	C	2.164466	-0.380700	-0.461441
C76	C	2.664466	0.119300	0.038559
C77	C	2.297867	-0.380705	-0.461446
C78	C	2.797867	0.119295	0.038554
C79	C	1.851489	-0.380600	-0.774498
C80	C	2.351489	0.119400	-0.274498
C81	C	1.851518	-0.380562	-0.907910
C82	C	2.351518	0.119438	-0.407910
C83	C	1.788229	-0.174525	-0.524708
C84	C	2.288229	0.325475	-0.024708
C85	C	1.761301	-0.086671	-0.551673
C86	C	2.261301	0.413329	-0.051673
C87	C	1.851402	-0.380717	-0.149595
C88	C	2.351402	0.119283	0.350405
C89	C	1.851537	-0.380532	-0.016252
C90	C	2.351537	0.119468	0.483748
H91	H	1.804488	-0.681584	-0.508295
H92	H	2.304488	-0.181584	-0.008295
H93	H	1.573532	-0.929259	-0.739094
H94	H	2.073532	-0.429259	-0.239094
H95	H	2.090531	-0.955148	-0.222813
H96	H	2.590531	-0.455148	0.277187
Cl97	Cl	1.572581	-0.787152	-0.739953
Cl98	Cl	2.072581	-0.287152	-0.239953
Cl99	Cl	1.591229	-1.097300	-0.721488
Cl100	Cl	2.091229	-0.597300	-0.221488
Cl101	Cl	1.937908	-1.097271	-0.375330
Cl102	Cl	2.437908	-0.597271	0.124670
Cl103	Cl	1.985558	-1.066596	-0.327807
Cl104	Cl	2.485558	-0.566596	0.172193
H105	H	2.129216	-0.831316	-0.184096
H106	H	2.629216	-0.331316	0.315904
H107	H	2.083136	-0.681552	-0.230026
H108	H	2.583136	-0.181552	0.269974
H109	H	1.728484	-0.730530	-0.584189
H110	H	2.228484	-0.230530	-0.084189
