data_functionalizedCrystal
_audit_creation_method	'MofGen! by Chris Wilmer'
_symmetry_space_group_name_H-M	'P1'
_symmetry_Int_Tables_number	1
_symmetry_cell_setting	triclinic
loop_
_symmetry_equiv_pos_as_xyz
  x,y,z
_cell_length_a	14.971486
_cell_length_b	11.892095
_cell_length_c	14.971486
_cell_angle_alpha	93.893650
_cell_angle_beta	96.385871
_cell_angle_gamma	93.898778
loop_
_atom_site_label
_atom_site_type_symbol
_atom_site_fract_x
_atom_site_fract_y
_atom_site_fract_z
O1	O	1.192650	0.093873	-0.110858
O2	O	1.525983	0.427207	0.222475
O3	O	1.859316	0.760540	0.555808
O4	O	0.932251	0.093904	-0.124815
O5	O	1.265585	0.427237	0.208518
O6	O	1.598918	0.760571	0.541851
O7	O	1.069429	0.093880	0.012363
O8	O	1.402763	0.427213	0.345696
O9	O	1.736096	0.760546	0.679029
O10	O	1.055472	0.093898	-0.248036
O11	O	1.388805	0.427231	0.085297
O12	O	1.722138	0.760564	0.418630
O13	O	1.057992	-0.094126	0.000943
O14	O	1.391325	0.239208	0.334276
O15	O	1.724658	0.572541	0.667609
O16	O	0.920814	-0.094101	-0.136235
O17	O	1.254147	0.239232	0.197098
O18	O	1.587480	0.572565	0.530431
O19	O	1.181212	-0.094132	-0.122278
O20	O	1.514545	0.239201	0.211055
O21	O	1.847879	0.572534	0.544388
Zn22	Zn	1.049197	-0.123967	-0.131070
Zn23	Zn	1.382530	0.209367	0.202263
Zn24	Zn	1.715864	0.542700	0.535597
Zn25	Zn	1.064267	0.123739	-0.116024
Zn26	Zn	1.397600	0.457072	0.217310
Zn27	Zn	1.730933	0.790405	0.550643
O28	O	1.044034	-0.094108	-0.259456
O29	O	1.377367	0.239225	0.073877
O30	O	1.710701	0.572559	0.407210
C31	C	0.893208	-0.000095	-0.129901
C32	C	1.226541	0.333239	0.203432
C33	C	1.559875	0.666572	0.536766
C34	C	0.793912	-0.000083	-0.128029
C35	C	1.127245	0.333250	0.205304
C36	C	1.460578	0.666583	0.538637
N37	N	1.038919	-0.293019	-0.141338
N38	N	1.372252	0.040314	0.191995
N39	N	1.705586	0.373648	0.525328
C40	C	0.736687	-0.000079	-0.208618
C41	C	1.070020	0.333254	0.124715
C42	C	1.403353	0.666587	0.458048
C43	C	0.643386	-0.000096	-0.206856
C44	C	0.976720	0.333237	0.126477
C45	C	1.310053	0.666570	0.459810
C46	C	0.607313	-0.000109	-0.124504
C47	C	0.940646	0.333224	0.208829
C48	C	1.273980	0.666558	0.542163
C49	C	0.664545	-0.000116	-0.043909
C50	C	0.997879	0.333217	0.289424
C51	C	1.331212	0.666550	0.622758
C52	C	0.757843	-0.000107	-0.045672
C53	C	1.091177	0.333226	0.287661
C54	C	1.424510	0.666559	0.620994
C55	C	0.470082	-0.000132	-0.040239
C56	C	0.803415	0.333201	0.293095
C57	C	1.136749	0.666534	0.626428
C58	C	0.376777	-0.000139	-0.038475
C59	C	0.710111	0.333194	0.294859
C60	C	1.043444	0.666528	0.628192
C61	C	0.355625	-0.000121	-0.201423
C62	C	0.688958	0.333212	0.131911
C63	C	1.022291	0.666546	0.465244
C64	C	0.448923	-0.000112	-0.203186
C65	C	0.782256	0.333221	0.130147
C66	C	1.115589	0.666555	0.463480
C67	C	0.506149	-0.000117	-0.122591
C68	C	0.839482	0.333216	0.210743
C69	C	1.172815	0.666549	0.544076
C70	C	1.146071	-0.529686	-0.034246
C71	C	1.479405	-0.196353	0.299087
C72	C	1.812738	0.136981	0.632420
C73	C	1.138893	-0.648026	-0.041430
C74	C	1.472227	-0.314693	0.291903
C75	C	1.805560	0.018640	0.625236
C76	C	1.017382	-0.648043	-0.162885
C77	C	1.350715	-0.314710	0.170448
C78	C	1.684048	0.018624	0.503782
C79	C	1.024560	-0.529702	-0.155701
C80	C	1.357893	-0.196369	0.177632
C81	C	1.691226	0.136964	0.510965
C82	C	1.088907	-0.470528	-0.091381
C83	C	1.422241	-0.137195	0.241953
C84	C	1.755574	0.196139	0.575286
C85	C	1.096089	-0.352185	-0.084202
C86	C	1.429422	-0.018852	0.249132
C87	C	1.762755	0.314481	0.582465
C88	C	0.974573	-0.352204	-0.205652
C89	C	1.307907	-0.018871	0.127682
C90	C	1.641240	0.314463	0.461015
C91	C	0.967396	-0.470544	-0.212835
C92	C	1.300729	-0.137211	0.120498
C93	C	1.634062	0.196122	0.453831
C94	C	1.220256	-0.000131	-0.117193
C95	C	1.553589	0.333202	0.216141
C96	C	1.886922	0.666536	0.549474
C97	C	1.319552	-0.000135	-0.119064
C98	C	1.652886	0.333198	0.214270
C99	C	1.986219	0.666532	0.547603
C100	C	1.063086	-0.000123	0.039977
C101	C	1.396420	0.333211	0.373311
C102	C	1.729753	0.666544	0.706644
C103	C	1.061216	-0.000121	0.139275
C104	C	1.394549	0.333212	0.472608
C105	C	1.727882	0.666545	0.805941
N106	N	1.074552	0.292791	-0.105748
N107	N	1.407885	0.626124	0.227585
N108	N	1.741218	0.959458	0.560918
C109	C	1.050377	-0.000103	-0.287071
C110	C	1.383711	0.333230	0.046262
C111	C	1.717044	0.666564	0.379596
C112	C	1.052248	-0.000097	-0.386368
C113	C	1.385582	0.333236	-0.053034
C114	C	1.718915	0.666570	0.280299
C115	C	1.141804	-0.000132	0.196499
C116	C	1.475138	0.333202	0.529833
C117	C	1.808471	0.666535	0.863166
C118	C	1.140042	-0.000120	0.289799
C119	C	1.473375	0.333213	0.623133
C120	C	1.806709	0.666547	0.956466
C121	C	1.057690	-0.000106	0.325873
C122	C	1.391023	0.333227	0.659206
C123	C	1.724356	0.666560	0.992539
C124	C	0.977095	-0.000092	0.268641
C125	C	1.310428	0.333241	0.601974
C126	C	1.643762	0.666574	0.935307
C127	C	0.978859	-0.000096	0.175343
C128	C	1.312192	0.333237	0.508676
C129	C	1.645525	0.666571	0.842010
C130	C	0.973424	-0.000088	0.463103
C131	C	1.306758	0.333245	0.796437
C132	C	1.640091	0.666579	1.129770
C133	C	0.971660	-0.000087	0.556408
C134	C	1.304993	0.333247	0.889741
C135	C	1.638326	0.666580	1.223074
C136	C	1.134607	-0.000112	0.577560
C137	C	1.467941	0.333221	0.910893
C138	C	1.801274	0.666555	1.244227
C139	C	1.136371	-0.000116	0.484262
C140	C	1.469704	0.333218	0.817595
C141	C	1.803038	0.666551	1.150929
C142	C	1.055776	-0.000104	0.427037
C143	C	1.389109	0.333229	0.760370
C144	C	1.722443	0.666563	1.093703
H145	H	0.766050	-0.000068	-0.275679
H146	H	1.099383	0.333265	0.057654
H147	H	1.432716	0.666599	0.390987
N148	N	0.947986	-0.711864	-0.232263
N149	N	1.281319	-0.378531	0.101070
N150	N	1.614653	-0.045198	0.434403
H151	H	0.885743	-0.691279	-0.220616
H152	H	1.219076	-0.357946	0.112717
H153	H	1.552410	-0.024613	0.446051
H154	H	0.952188	-0.795790	-0.228114
H155	H	1.285522	-0.462457	0.105219
H156	H	1.618855	-0.129124	0.438552
H157	H	0.915003	-0.518738	-0.265202
H158	H	1.248336	-0.185405	0.068131
H159	H	1.581669	0.147929	0.401465
H160	H	0.596797	-0.000092	-0.272480
H161	H	0.930130	0.333242	0.060853
H162	H	1.263463	0.666575	0.394187
H163	H	0.804436	-0.000110	0.019952
H164	H	1.137769	0.333223	0.353285
H165	H	1.471103	0.666557	0.686618
H166	H	1.148486	-0.304006	-0.031831
H167	H	1.481819	0.029327	0.301502
H168	H	1.815153	0.362660	0.634836
N169	N	1.200558	-0.711833	0.020184
N170	N	1.533891	-0.378499	0.353517
N171	N	1.867225	-0.045166	0.686851
H172	H	1.163365	-0.760942	0.056866
H173	H	1.496698	-0.427608	0.390199
H174	H	1.830031	-0.094275	0.723533
H175	H	1.242397	-0.656311	0.061959
H176	H	1.575730	-0.322977	0.395292
H177	H	1.909064	0.010356	0.728626
H178	H	0.516673	-0.000138	0.025391
H179	H	0.850007	0.333195	0.358724
H180	H	1.183340	0.666529	0.692057
H181	H	0.478291	-0.000091	-0.270244
H182	H	0.811624	0.333242	0.063089
H183	H	1.144957	0.666576	0.396423
N184	N	1.221538	-0.000117	0.639275
N185	N	1.554872	0.333217	0.972608
N186	N	1.888205	0.666550	1.305942
H187	H	1.253217	-0.069821	0.623435
H188	H	1.586550	0.263512	0.956768
H189	H	1.919884	0.596845	1.290101
H190	H	1.207857	-0.000064	0.703830
H191	H	1.541190	0.333269	1.037163
H192	H	1.874523	0.666602	1.370496
H193	H	1.205665	-0.000131	0.336389
H194	H	1.538999	0.333202	0.669722
H195	H	1.872332	0.666536	1.003055
H196	H	1.208865	-0.000150	0.167136
H197	H	1.542198	0.333183	0.500469
H198	H	1.875531	0.666517	0.833803
N199	N	0.886506	-0.000081	0.401367
N200	N	1.219839	0.333252	0.734701
N201	N	1.553172	0.666586	1.068034
H202	H	0.854812	0.069614	0.417200
H203	H	1.188145	0.402947	0.750533
H204	H	1.521479	0.736280	1.083867
H205	H	0.846411	-0.069820	0.408772
H206	H	1.179744	0.263514	0.742105
H207	H	1.513078	0.596847	1.075439
N208	N	0.293938	-0.000142	-0.288375
N209	N	0.627271	0.333191	0.044959
N210	N	0.960605	0.666524	0.378292
H211	H	0.258975	0.069538	-0.287072
H212	H	0.592308	0.402871	0.046262
H213	H	0.925641	0.736205	0.379595
H214	H	0.250592	-0.069896	-0.295473
H215	H	0.583925	0.263438	0.037860
H216	H	0.917258	0.596771	0.371193
H217	H	0.635166	-0.000143	0.023143
H218	H	0.968500	0.333190	0.356476
H219	H	1.301833	0.666524	0.689810
H220	H	0.347410	-0.000151	0.028584
H221	H	0.680743	0.333182	0.361917
H222	H	1.014077	0.666516	0.695250
H223	H	1.198472	-0.481505	0.018120
H224	H	1.531805	-0.148172	0.351453
H225	H	1.865138	0.185161	0.684787
H226	H	0.910043	-0.000074	0.298019
H227	H	1.243376	0.333259	0.631353
H228	H	1.576709	0.666593	0.964686
N229	N	1.225189	-0.000123	0.445346
N230	N	1.558522	0.333210	0.778679
N231	N	1.891856	0.666543	1.112013
H232	H	1.225310	-0.069818	0.402878
H233	H	1.558643	0.263515	0.736211
H234	H	1.891976	0.596848	1.069544
H235	H	1.275932	-0.000083	0.495802
H236	H	1.609265	0.333250	0.829136
H237	H	1.942598	0.666584	1.162469
H238	H	0.904600	-0.000093	0.585774
H239	H	1.237934	0.333240	0.919107
H240	H	1.571267	0.666573	1.252441
N241	N	0.891939	-0.000078	0.113618
N242	N	1.225273	0.333255	0.446951
N243	N	1.558606	0.666589	0.780284
H244	H	0.839501	-0.000070	0.150625
H245	H	1.172834	0.333263	0.483958
H246	H	1.506168	0.666597	0.817292
H247	H	0.884879	-0.069772	0.070215
H248	H	1.218212	0.263561	0.403548
H249	H	1.551546	0.596894	0.736881
H250	H	0.928029	-0.304024	-0.252177
H251	H	1.261363	0.029309	0.081157
H252	H	1.594696	0.362643	0.414490
