data_functionalizedCrystal
_audit_creation_method	'MofGen! by Chris Wilmer'
_symmetry_space_group_name_H-M	'P1'
_symmetry_Int_Tables_number	1
_symmetry_cell_setting	triclinic
loop_
_symmetry_equiv_pos_as_xyz
  x,y,z
_cell_length_a	13.033615
_cell_length_b	18.215407
_cell_length_c	18.215399
_cell_angle_alpha	89.980167
_cell_angle_beta	97.199361
_cell_angle_gamma	82.814791
loop_
_atom_site_label
_atom_site_type_symbol
_atom_site_fract_x
_atom_site_fract_y
_atom_site_fract_z
Zn1	Zn	-0.416040	-1.087955	0.378939
Zn2	Zn	-0.590803	-1.072271	0.240256
Zn3	Zn	-0.416074	-0.964884	0.255883
Zn4	Zn	-0.590745	-0.949267	0.363286
O5	O	-0.503416	-1.018594	0.309591
O6	O	-0.439233	-1.188858	0.360553
O7	O	-0.567664	-1.057999	0.139341
O8	O	-0.269831	-0.994309	0.285298
O9	O	-0.567631	-1.177335	0.258663
O10	O	-0.269806	-1.084729	0.375706
O11	O	-0.439291	-0.979102	0.150823
O12	O	-0.439235	-0.859829	0.270120
O13	O	-0.567531	-0.967691	0.468350
O14	O	-0.567565	-0.848355	0.349028
O15	O	-0.439176	-1.069585	0.479850
O16	O	-0.737035	-1.042855	0.243486
O17	O	-0.736992	-0.952484	0.333875
C18	C	-0.503398	-0.827390	0.309572
C19	C	-0.503415	-0.745589	0.309579
C20	C	-0.230840	-1.043010	0.333991
C21	C	-0.114684	-1.053415	0.344389
C22	C	-0.774931	-0.994293	0.285302
C23	C	-0.891087	-0.983964	0.274936
C24	C	-0.062911	-1.013316	0.304292
C25	C	0.057142	-1.024069	0.315038
C26	C	-0.503344	-1.018646	0.501551
C27	C	-0.503313	-1.018667	0.583352
C28	C	-0.503434	-1.210545	0.309611
C29	C	-0.503442	-1.292344	0.309620
C30	C	-0.570342	-0.551431	0.350598
C31	C	-0.570345	-0.474572	0.350607
C32	C	-0.436509	-0.486508	0.268599
C33	C	-0.436501	-0.563366	0.268595
C34	C	-0.503423	-0.595825	0.309593
C35	C	-0.503434	-0.442108	0.309606
C36	C	-0.503437	-0.358774	0.309615
C37	C	-0.503419	-0.679164	0.309584
C38	C	-0.503412	-1.018592	0.118385
C39	C	-0.503148	-1.018739	0.036610
C40	C	-0.436416	-1.071746	0.777541
C41	C	-0.436386	-1.071757	0.854403
C42	C	-0.570048	-0.965655	0.842416
C43	C	-0.570073	-0.965641	0.765556
C44	C	-0.503258	-1.018691	0.733121
C45	C	-0.503203	-1.018716	0.886842
C46	C	-0.503171	-1.018728	0.970178
C47	C	-0.503289	-1.018678	0.649779
H48	H	-0.107464	-0.971023	0.262011
Br49	Br	-0.661162	-0.595480	0.406239
Br50	Br	-0.661162	-0.414325	0.406263
H51	H	0.064365	-0.941666	0.232654
Br52	Br	-0.345690	-0.442452	0.212962
H53	H	-0.070132	-1.095703	0.386675
H54	H	-0.382001	-0.599514	0.235204
H55	H	-0.382008	-1.114940	0.751135
Br56	Br	-0.345675	-1.143769	0.914685
H57	H	-0.624448	-0.922466	0.868834
H58	H	0.101691	-1.066360	0.357327
Br59	Br	-0.660784	-0.893627	0.705267
