data_functionalizedCrystal
_audit_creation_method	'MofGen! by Chris Wilmer'
_symmetry_space_group_name_H-M	'P1'
_symmetry_Int_Tables_number	1
_symmetry_cell_setting	triclinic
loop_
_symmetry_equiv_pos_as_xyz
  x,y,z
_cell_length_a	19.121275
_cell_length_b	21.295418
_cell_length_c	19.121307
_cell_angle_alpha	87.572479
_cell_angle_beta	89.898049
_cell_angle_gamma	87.589984
loop_
_atom_site_label
_atom_site_type_symbol
_atom_site_fract_x
_atom_site_fract_y
_atom_site_fract_z
Zn1	Zn	1.088514	-0.305701	0.350644
Zn2	Zn	1.588514	0.194299	0.850644
Zn3	Zn	1.083455	-0.406271	0.233412
Zn4	Zn	1.583455	0.093729	0.733412
Zn5	Zn	0.966316	-0.296736	0.238427
Zn6	Zn	1.466316	0.203264	0.738427
Zn7	Zn	0.971239	-0.406645	0.355612
Zn8	Zn	1.471239	0.093355	0.855612
O9	O	1.027381	-0.353838	0.294524
O10	O	1.527381	0.146162	0.794524
O11	O	1.185946	-0.322638	0.330916
O12	O	1.685946	0.177362	0.830916
O13	O	1.063739	-0.387833	0.135973
O14	O	1.563739	0.112167	0.635973
O15	O	0.982583	-0.209838	0.253332
O16	O	1.482583	0.290162	0.753332
O17	O	1.182229	-0.396526	0.244786
O18	O	1.682229	0.103474	0.744786
O19	O	1.072361	-0.216425	0.335778
O20	O	1.572361	0.283575	0.835778
O21	O	0.977677	-0.307357	0.139657
O22	O	1.477677	0.192643	0.639657
O23	O	0.868866	-0.307720	0.258149
O24	O	1.368866	0.192280	0.758149
O25	O	0.990973	-0.397163	0.453057
O26	O	1.490973	0.102837	0.953057
O27	O	0.872482	-0.388470	0.344245
O28	O	1.372482	0.111530	0.844245
O29	O	1.077135	-0.323000	0.449408
O30	O	1.577135	0.177000	0.949408
O31	O	1.068512	-0.494407	0.249603
O32	O	1.568512	0.005593	0.749603
O33	O	0.986067	-0.494682	0.339382
O34	O	1.486067	0.005318	0.839382
C35	C	0.845237	-0.347163	0.302280
C36	C	1.345237	0.152837	0.802280
C37	C	0.767316	-0.344323	0.305615
C38	C	1.267316	0.155677	0.805615
C39	C	1.027295	-0.517386	0.294502
C40	C	1.527295	-0.017386	0.794502
C41	C	1.027323	-0.587355	0.294513
C42	C	1.527323	-0.087355	0.794513
C43	C	0.728767	-0.381390	0.262272
C44	C	1.228767	0.118610	0.762272
C45	C	0.655552	-0.378723	0.265415
C46	C	1.155552	0.121277	0.765415
C47	C	0.620887	-0.338984	0.311898
C48	C	1.120887	0.161016	0.811898
C49	C	0.659441	-0.301915	0.355246
C50	C	1.159441	0.198085	0.855246
C51	C	0.732655	-0.304586	0.352106
C52	C	1.232655	0.195414	0.852106
C53	C	0.399926	-0.328999	0.323628
C54	C	0.899926	0.171001	0.823628
C55	C	0.326707	-0.326329	0.326763
C56	C	0.826707	0.173671	0.826763
C57	C	0.322823	-0.403138	0.236932
C58	C	0.822823	0.096862	0.736932
C59	C	0.396038	-0.405803	0.233794
C60	C	0.896038	0.094197	0.733794
C61	C	0.434586	-0.368737	0.277144
C62	C	0.934586	0.131263	0.777144
C63	C	0.546049	-0.336254	0.315110
C64	C	1.046049	0.163746	0.815110
C65	C	0.509422	-0.371470	0.273935
C66	C	1.009422	0.128530	0.773935
C67	C	1.074220	-1.090199	0.337540
C68	C	1.574220	-0.590199	0.837540
C69	C	1.074199	-1.024456	0.337529
C70	C	1.574199	-0.524456	0.837529
C71	C	1.027478	-0.988203	0.294564
C72	C	1.527478	-0.488203	0.794564
C73	C	0.980788	-1.017698	0.251591
C74	C	1.480788	-0.517698	0.751591
C75	C	0.980815	-1.083441	0.251598
C76	C	1.480815	-0.583441	0.751598
N77	N	0.965843	-0.882569	0.291738
N78	N	1.465843	-0.382569	0.791738
N79	N	0.965819	-0.820116	0.291736
N80	N	1.465819	-0.320116	0.791736
C81	C	1.027395	-0.790124	0.294541
C82	C	1.527395	-0.290124	0.794541
N83	N	1.088997	-0.824944	0.297361
N84	N	1.588997	-0.324944	0.797361
N85	N	1.089019	-0.887402	0.297367
N86	N	1.589019	-0.387402	0.797367
C87	C	1.027444	-0.916915	0.294552
C88	C	1.527444	-0.416915	0.794552
C89	C	1.074063	-0.689349	0.337496
C90	C	1.574063	-0.189349	0.837496
C91	C	1.074043	-0.623604	0.337480
C92	C	1.574043	-0.123604	0.837480
C93	C	0.980626	-0.616848	0.251546
C94	C	1.480626	-0.116848	0.751546
C95	C	0.980652	-0.682592	0.251558
C96	C	1.480652	-0.182592	0.751558
C97	C	1.027370	-0.718838	0.294536
C98	C	1.527370	-0.218838	0.794536
C99	C	1.210236	-0.360540	0.286738
C100	C	1.710236	0.139460	0.786738
C101	C	1.288158	-0.363396	0.283419
C102	C	1.788158	0.136604	0.783419
C103	C	1.035168	-0.361123	0.477381
C104	C	1.535168	0.138877	0.977381
C105	C	1.038486	-0.364228	0.555304
C106	C	1.538486	0.135772	1.055304
C107	C	1.027487	-0.189653	0.294561
C108	C	1.527487	0.310347	0.794561
C109	C	1.027533	-0.119688	0.294576
C110	C	1.527533	0.380312	0.794576
C111	C	1.059539	-0.383921	0.995923
C112	C	1.559539	0.116079	1.495923
C113	C	1.056411	-0.381000	0.922706
C114	C	1.556411	0.119000	1.422706
C115	C	1.010044	-0.337637	0.888024
C116	C	1.510044	0.162363	1.388024
C117	C	0.966796	-0.297198	0.926562
C118	C	1.466796	0.202802	1.426562
C119	C	0.969921	-0.300123	0.999777
C120	C	1.469921	0.199877	1.499777
C121	C	0.998363	-0.326713	0.667057
C122	C	1.498363	0.173287	1.167057
C123	C	0.995243	-0.323790	0.593837
C124	C	1.495243	0.176210	1.093837
C125	C	1.084857	-0.407593	0.589987
C126	C	1.584857	0.092407	1.089987
C127	C	1.087981	-0.410512	0.663203
C128	C	1.587981	0.089488	1.163203
C129	C	1.044732	-0.370075	0.701735
C130	C	1.544732	0.129925	1.201735
C131	C	1.006847	-0.334649	0.813185
C132	C	1.506847	0.165351	1.313185
C133	C	1.047925	-0.373066	0.776573
C134	C	1.547925	0.126934	1.276573
C135	C	1.019618	-0.346593	1.112378
C136	C	1.519618	0.153407	1.612378
C137	C	1.016297	-0.343483	1.034455
C138	C	1.516297	0.156517	1.534455
H139	H	0.756986	-0.413748	0.224418
H140	H	1.256986	0.086252	0.724418
H141	H	0.942748	-0.988178	0.216607
H142	H	1.442748	-0.488178	0.716607
O143	O	0.930231	-0.577757	0.205203
O144	O	1.430231	-0.077757	0.705203
H145	H	0.938052	-0.527087	0.212418
H146	H	1.438052	-0.027087	0.712418
O147	O	0.613971	-0.418694	0.218658
O148	O	1.113971	0.081306	0.718658
H149	H	0.650376	-0.446767	0.185799
H150	H	1.150376	0.053233	0.685799
H151	H	1.125738	-0.445823	0.691437
H152	H	1.625738	0.054177	1.191437
O153	O	0.289310	-0.283468	0.376899
O154	O	0.789310	0.216532	0.876899
H155	H	0.305703	-0.297051	0.431299
H156	H	0.805703	0.202949	0.931299
H157	H	0.424258	-0.438162	0.195942
H158	H	0.924258	0.061838	0.695942
O159	O	0.951716	-0.283094	0.708603
O160	O	1.451716	0.216906	1.208603
H161	H	0.917443	-0.311290	0.743464
H162	H	1.417443	0.188710	1.243464
H163	H	1.120068	-0.440516	0.558606
H164	H	1.620068	0.059484	1.058606
H165	H	0.929040	-0.261894	0.898318
H166	H	1.429040	0.238106	1.398318
O167	O	0.441498	-0.289010	0.370369
O168	O	0.941498	0.210990	0.870369
H169	H	0.405091	-0.260921	0.403208
H170	H	0.905091	0.239079	0.903208
H171	H	0.934709	-0.267193	1.031149
H172	H	1.434709	0.232807	1.531149
H173	H	0.957486	-0.288475	0.565601
H174	H	1.457486	0.211525	1.065601
H175	H	1.097300	-0.419229	1.024156
H176	H	1.597300	0.080771	1.524156
H177	H	1.112266	-1.119707	0.372530
H178	H	1.612266	-0.619707	0.872530
H179	H	1.085676	-0.408373	0.804814
H180	H	1.585676	0.091627	1.304814
O181	O	0.774232	-0.264603	0.398855
O182	O	1.274232	0.235397	0.898855
H183	H	0.830966	-0.273141	0.388868
H184	H	1.330966	0.226859	0.888868
H185	H	1.112219	-1.000442	0.372517
H186	H	1.612219	-0.500442	0.872517
O187	O	1.124404	-0.591791	0.383817
O188	O	1.624404	-0.091791	0.883817
H189	H	1.158754	-0.561886	0.350939
H190	H	1.658754	-0.061886	0.850939
O191	O	0.281243	-0.443115	0.190181
O192	O	0.781243	0.056885	0.690181
H193	H	0.317649	-0.471192	0.157328
H194	H	0.817649	0.028808	0.657328
H195	H	0.942631	-0.706601	0.216575
H196	H	1.442631	-0.206601	0.716575
O197	O	0.956845	-0.287876	0.775770
O198	O	1.456845	0.212124	1.275770
H199	H	0.902413	-0.297211	0.792158
H200	H	1.402413	0.202789	1.292158
O201	O	0.622057	-0.259047	0.405377
O202	O	1.122057	0.240953	0.905377
H203	H	0.564670	-0.263409	0.400273
H204	H	1.064670	0.236591	0.900273
H205	H	1.091615	-0.413936	0.891336
H206	H	1.591615	0.086064	1.391336
H207	H	0.942795	-1.107450	0.216611
H208	H	1.442795	-0.607450	0.716611
H209	H	0.537650	-0.403828	0.236093
H210	H	1.037650	0.096172	0.736093
H211	H	0.517817	-0.303898	0.352955
H212	H	1.017817	0.196102	0.852955
O213	O	1.124456	-0.728451	0.383839
O214	O	1.624456	-0.228451	0.883839
H215	H	1.156927	-0.696898	0.413704
H216	H	1.656927	-0.196898	0.913704
