data_functionalizedCrystal
_audit_creation_method	'MofGen! by Chris Wilmer'
_symmetry_space_group_name_H-M	'P1'
_symmetry_Int_Tables_number	1
_symmetry_cell_setting	triclinic
loop_
_symmetry_equiv_pos_as_xyz
  x,y,z
_cell_length_a	16.992694
_cell_length_b	15.944493
_cell_length_c	15.455301
_cell_angle_alpha	92.994487
_cell_angle_beta	92.821270
_cell_angle_gamma	87.071633
loop_
_atom_site_label
_atom_site_type_symbol
_atom_site_fract_x
_atom_site_fract_y
_atom_site_fract_z
O1	O	1.043424	0.181591	0.072003
O2	O	1.543424	0.681591	0.572003
O3	O	0.815140	0.179638	0.072029
O4	O	1.315140	0.679638	0.572029
O5	O	0.935540	0.058757	0.072023
O6	O	1.435540	0.558757	0.572023
O7	O	0.923024	0.302473	0.072010
O8	O	1.423024	0.802473	0.572010
O9	O	0.929403	0.051778	-0.072239
O10	O	1.429403	0.551778	0.427761
O11	O	0.809003	0.172660	-0.072232
O12	O	1.309003	0.672660	0.427768
O13	O	1.037287	0.174612	-0.072258
O14	O	1.537287	0.674612	0.427742
Cu15	Cu	0.922585	0.172999	-0.085417
Cu16	Cu	1.422585	0.672999	0.414583
Cu17	Cu	0.929842	0.181252	0.085188
Cu18	Cu	1.429842	0.681252	0.585188
O19	O	0.916887	0.295494	-0.072252
O20	O	1.416887	0.795494	0.427748
C21	C	0.782859	0.173635	-0.000098
C22	C	1.282859	0.673635	0.499902
C23	C	0.695817	0.166136	-0.000088
C24	C	1.195817	0.666136	0.499912
C25	C	0.931960	0.023938	-0.000104
C26	C	1.431960	0.523938	0.499896
C27	C	0.930427	-0.069413	-0.000093
C28	C	1.430427	0.430587	0.499907
C29	C	0.645566	0.238502	-0.000092
C30	C	1.145566	0.738502	0.499908
C31	C	0.563780	0.231449	-0.000104
C32	C	1.063780	0.731449	0.499896
C33	C	0.532246	0.152030	-0.000105
C34	C	1.032246	0.652030	0.499895
C35	C	0.582504	0.079659	-0.000103
C36	C	1.082504	0.579659	0.499897
C37	C	0.664288	0.086712	-0.000097
C38	C	1.164288	0.586712	0.499903
C39	C	0.288652	0.122797	-0.000126
C40	C	0.788652	0.622797	0.499874
C41	C	0.206861	0.115750	-0.000129
C42	C	0.706861	0.615750	0.499871
C43	C	0.188143	0.267540	-0.000132
C44	C	0.688143	0.767540	0.499868
C45	C	0.269930	0.274587	-0.000121
C46	C	0.769930	0.774587	0.499879
C47	C	0.320180	0.202215	-0.000124
C48	C	0.820180	0.702215	0.499876
N49	N	0.448648	0.144819	-0.000114
N50	N	0.948648	0.644819	0.499886
N51	N	0.403776	0.209427	-0.000121
N52	N	0.903776	0.709427	0.499879
C53	C	1.001296	-0.300421	-0.000117
C54	C	1.501296	0.199579	0.499883
C55	C	0.966105	-0.350111	0.071015
C56	C	1.466105	0.149889	0.571015
C57	C	0.927585	-0.240325	-0.000103
C58	C	1.427585	0.259675	0.499897
C59	C	0.960037	-0.356968	-0.071216
C60	C	1.460037	0.143032	0.428784
C61	C	0.924845	-0.405419	-0.000117
C62	C	1.424845	0.094581	0.499883
C63	C	0.892416	-0.288782	0.071088
C64	C	1.392416	0.211218	0.571088
C65	C	0.886356	-0.295639	-0.071207
C66	C	1.386356	0.204361	0.428793
C67	C	0.851111	-0.345299	-0.000057
C68	C	1.351111	0.154701	0.499943
C69	C	0.929165	-0.145218	-0.000095
C70	C	1.429165	0.354782	0.499905
C71	C	0.923259	-0.500522	-0.000120
C72	C	1.423259	-0.000522	0.499880
C73	C	1.069568	0.180615	-0.000129
C74	C	1.569568	0.680615	0.499871
C75	C	1.156610	0.188115	-0.000134
C76	C	1.656610	0.688115	0.499866
C77	C	0.920467	0.330313	-0.000123
C78	C	1.420467	0.830313	0.499877
C79	C	0.922000	0.423664	-0.000128
C80	C	1.422000	0.923664	0.499872
N81	N	0.917486	0.167194	-0.205412
N82	N	1.417486	0.667194	0.294588
C83	C	0.963102	0.219167	-0.250811
C84	C	1.463102	0.719167	0.249189
C85	C	0.959256	0.214772	-0.341619
C86	C	1.459256	0.714772	0.158381
C87	C	0.909790	0.158408	-0.387026
C88	C	1.409790	0.658408	0.112974
C89	C	0.864172	0.106429	-0.341621
C90	C	1.364172	0.606429	0.158379
C91	C	0.868022	0.110820	-0.250815
C92	C	1.368022	0.610820	0.249185
C93	C	0.893180	0.139463	-0.658606
C94	C	1.393180	0.639463	-0.158606
C95	C	0.889331	0.135077	-0.749418
C96	C	1.389331	0.635077	-0.249418
C97	C	0.984417	0.243420	-0.749409
C98	C	1.484417	0.743420	-0.249409
C99	C	0.988260	0.247810	-0.658602
C100	C	1.488260	0.747810	-0.158602
C101	C	0.942645	0.195828	-0.613205
C102	C	1.442645	0.695828	-0.113205
N103	N	0.905856	0.153916	-0.479846
N104	N	1.405856	0.653916	0.020154
N105	N	0.946584	0.200316	-0.520387
N106	N	1.446584	0.700316	-0.020387
N107	N	0.934948	0.187051	0.205183
N108	N	1.434948	0.687051	0.705183
H109	H	0.671233	0.303173	-0.000091
H110	H	1.171233	0.803173	0.499909
F111	F	0.510302	0.308471	-0.000105
F112	F	1.010302	0.808471	0.499895
H113	H	0.295598	0.339259	-0.000111
H114	H	0.795598	0.839259	0.499889
H115	H	0.988624	-0.386720	-0.131349
H116	H	1.488624	0.113280	0.368651
F117	F	1.015750	0.279160	-0.202494
F118	F	1.515750	0.779160	0.297506
H119	H	1.021555	0.285741	-0.786382
H120	H	1.521555	0.785741	-0.286382
F121	F	1.007807	0.270091	-0.389931
F122	F	1.507807	0.770091	0.110069
H123	H	0.823899	0.060532	-0.378598
H124	H	1.323899	0.560532	0.121402
H125	H	1.028543	0.293706	-0.621638
H126	H	1.528543	0.793706	-0.121638
H127	H	0.849045	0.089179	-0.786386
H128	H	1.349045	0.589179	-0.286386
F129	F	1.084289	-0.274421	-0.000036
F130	F	1.584289	0.225579	0.499964
F131	F	0.844608	0.084162	-0.610302
F132	F	1.344608	0.584162	-0.110302
F133	F	0.717769	0.009690	-0.000096
F134	F	1.217769	0.509690	0.499904
H135	H	0.830876	0.068498	-0.213852
H136	H	1.330876	0.568498	0.286148
H137	H	0.181191	0.051074	-0.000129
H138	H	0.681191	0.551074	0.499871
H139	H	0.999792	-0.374060	0.131146
H140	H	1.499792	0.125940	0.631146
H141	H	0.147221	0.326461	-0.000131
H142	H	0.647221	0.826461	0.499869
H143	H	0.329556	0.063867	-0.000129
H144	H	0.829556	0.563867	0.499871
F145	F	0.768059	-0.371085	0.000001
F146	F	1.268059	0.128915	0.500001
F147	F	0.548941	-0.004866	-0.000109
F148	F	1.048941	0.495134	0.499891
F149	F	0.855100	-0.250037	0.149777
F150	F	1.355100	0.249963	0.649777
H151	H	0.852695	-0.271673	-0.131340
H152	H	1.352695	0.228327	0.368660
