data_functionalizedCrystal
_audit_creation_method	'MofGen! by Chris Wilmer'
_symmetry_space_group_name_H-M	'P1'
_symmetry_Int_Tables_number	1
_symmetry_cell_setting	triclinic
loop_
_symmetry_equiv_pos_as_xyz
  x,y,z
_cell_length_a	18.050590
_cell_length_b	18.050588
_cell_length_c	12.645323
_cell_angle_alpha	90.028389
_cell_angle_beta	90.006808
_cell_angle_gamma	90.018727
loop_
_atom_site_label
_atom_site_type_symbol
_atom_site_fract_x
_atom_site_fract_y
_atom_site_fract_z
Zn1	Zn	1.135341	-0.295868	0.598971
Zn2	Zn	1.468674	0.037465	0.932305
Zn3	Zn	1.802008	0.370798	1.265638
Zn4	Zn	1.135232	-0.420067	0.421701
Zn5	Zn	1.468566	-0.086734	0.755034
Zn6	Zn	1.801899	0.246599	1.088367
Zn7	Zn	1.011144	-0.295872	0.421765
Zn8	Zn	1.344477	0.037461	0.755098
Zn9	Zn	1.677810	0.370794	1.088431
Zn10	Zn	1.011105	-0.419998	0.598965
Zn11	Zn	1.344439	-0.086664	0.932298
Zn12	Zn	1.677772	0.246669	1.265632
O13	O	1.073206	-0.357951	0.510350
O14	O	1.406539	-0.024618	0.843684
O15	O	1.739872	0.308715	1.177017
O16	O	1.239251	-0.312371	0.575432
O17	O	1.572584	0.020962	0.908765
O18	O	1.905918	0.354295	1.242098
O19	O	1.118742	-0.403623	0.273362
O20	O	1.452076	-0.070290	0.606695
O21	O	1.785409	0.263043	0.940028
O22	O	1.027680	-0.191947	0.445301
O23	O	1.361014	0.141386	0.778635
O24	O	1.694347	0.474720	1.111968
O25	O	1.239171	-0.403620	0.445192
O26	O	1.572505	-0.070286	0.778525
O27	O	1.905838	0.263047	1.111858
O28	O	1.118928	-0.191944	0.575494
O29	O	1.452261	0.141389	0.908827
O30	O	1.785594	0.474722	1.242161
O31	O	1.027575	-0.312378	0.273409
O32	O	1.360908	0.020956	0.606742
O33	O	1.694242	0.354289	0.940076
O34	O	0.907214	-0.312310	0.445295
O35	O	1.240547	0.021023	0.778628
O36	O	1.573881	0.354357	1.111962
O37	O	1.027615	-0.403501	0.747313
O38	O	1.360948	-0.070167	1.080647
O39	O	1.694281	0.263166	1.413980
O40	O	0.907186	-0.403505	0.575483
O41	O	1.240519	-0.070171	0.908817
O42	O	1.573853	0.263162	1.242150
O43	O	1.118890	-0.312304	0.747318
O44	O	1.452224	0.021030	1.080651
O45	O	1.785557	0.354363	1.413985
O46	O	1.118705	-0.523983	0.445186
O47	O	1.452038	-0.190649	0.778519
O48	O	1.785372	0.142684	1.111852
O49	O	1.027509	-0.523931	0.575421
O50	O	1.360843	-0.190598	0.908754
O51	O	1.694176	0.142735	1.242088
C52	C	0.880254	-0.357901	0.510396
C53	C	1.213587	-0.024567	0.843729
C54	C	1.546920	0.308766	1.177063
C55	C	0.797708	-0.357897	0.510441
C56	C	1.131041	-0.024564	0.843774
C57	C	1.464374	0.308770	1.177107
C58	C	0.598263	-0.407630	0.581069
C59	C	0.931597	-0.074297	0.914402
C60	C	1.264930	0.259036	1.247736
C61	C	0.548874	-0.339913	0.607153
C62	C	0.882207	-0.006580	0.940487
C63	C	1.215541	0.326754	1.273820
C64	C	0.646577	-0.357938	0.510389
C65	C	0.979911	-0.024605	0.843722
C66	C	1.313244	0.308728	1.177056
C67	C	0.548885	-0.425694	0.484303
C68	C	0.882218	-0.092361	0.817637
C69	C	1.215551	0.240972	1.150970
C70	C	0.500592	-0.357984	0.510341
C71	C	0.833926	-0.024651	0.843674
C72	C	1.167259	0.308682	1.177008
C73	C	0.598276	-0.290185	0.536524
C74	C	0.931609	0.043148	0.869857
C75	C	1.264942	0.376482	1.203191
C76	C	0.598290	-0.376012	0.413629
C77	C	0.931624	-0.042679	0.746962
C78	C	1.264957	0.290655	1.080296
C79	C	0.548924	-0.308248	0.439677
C80	C	0.882257	0.025085	0.773010
C81	C	1.215590	0.358419	1.106343
C82	C	0.730676	-0.357913	0.510419
C83	C	1.064009	-0.024580	0.843753
C84	C	1.397342	0.308754	1.177086
C85	C	0.416496	-0.358002	0.510310
C86	C	0.749829	-0.024669	0.843644
C87	C	1.083162	0.308664	1.176977
C88	C	1.073111	-0.550904	0.510319
C89	C	1.406445	-0.217570	0.843652
C90	C	1.739778	0.115763	1.176985
C91	C	1.073139	-0.633449	0.510341
C92	C	1.406472	-0.300116	0.843674
C93	C	1.739806	0.033217	1.177007
C94	C	1.023625	-0.882274	0.581163
C95	C	1.356958	-0.548941	0.914496
C96	C	1.690292	-0.215607	1.247830
C97	C	1.091344	-0.832816	0.607151
C98	C	1.424677	-0.499483	0.940484
C99	C	1.758010	-0.166149	1.273817
C100	C	1.073293	-0.930570	0.510400
C101	C	1.406627	-0.597236	0.843733
C102	C	1.739960	-0.263903	1.177066
C103	C	1.005502	-0.832946	0.484433
C104	C	1.338836	-0.499613	0.817766
C105	C	1.672169	-0.166279	1.151099
C106	C	1.073214	-0.784585	0.510373
C107	C	1.406547	-0.451251	0.843707
C108	C	1.739881	-0.117918	1.177040
C109	C	1.141048	-0.882199	0.536438
C110	C	1.474382	-0.548865	0.869771
C111	C	1.807715	-0.215532	1.203104
C112	C	1.055161	-0.882333	0.413674
C113	C	1.388495	-0.549000	0.747008
C114	C	1.721828	-0.215667	1.080341
C115	C	1.122927	-0.832898	0.439625
C116	C	1.456260	-0.499564	0.772959
C117	C	1.789593	-0.166231	1.106292
C118	C	1.073338	-1.014668	0.510417
C119	C	1.406671	-0.681335	0.843751
C120	C	1.740005	-0.348001	1.177084
C121	C	1.073177	-0.700488	0.510355
C122	C	1.406510	-0.367155	0.843688
C123	C	1.739844	-0.033821	1.177022
C124	C	1.266911	-0.358003	0.510305
C125	C	1.600244	-0.024670	0.843639
C126	C	1.933578	0.308664	1.176972
C127	C	1.349457	-0.358025	0.510286
C128	C	1.682790	-0.024691	0.843619
C129	C	2.016124	0.308642	1.176953
C130	C	1.073260	-0.357894	0.786856
C131	C	1.406594	-0.024561	1.120189
C132	C	1.739927	0.308773	1.453523
C133	C	1.073284	-0.357870	0.904686
C134	C	1.406617	-0.024536	1.238019
C135	C	1.739950	0.308797	1.571353
C136	C	1.073320	-0.164246	0.510405
C137	C	1.406654	0.169088	0.843739
C138	C	1.739987	0.502421	1.177072
C139	C	1.073369	-0.081700	0.510429
C140	C	1.406703	0.251633	0.843762
C141	C	1.740036	0.584967	1.177096
C142	C	1.073194	-0.357955	0.234921
C143	C	1.406527	-0.024622	0.568254
C144	C	1.739861	0.308712	0.901587
C145	C	1.073314	-0.357770	0.117091
C146	C	1.406648	-0.024437	0.450424
C147	C	1.739981	0.308896	0.783758
C148	C	1.015685	-0.414971	1.072247
C149	C	1.349019	-0.081638	1.405581
C150	C	1.682352	0.251695	1.738914
C151	C	1.015836	-0.415254	0.949687
C152	C	1.349169	-0.081921	1.283021
C153	C	1.682503	0.251413	1.616354
C154	C	1.151530	-0.379124	0.949173
C155	C	1.484864	-0.045791	1.282506
C156	C	1.818197	0.287543	1.615840
C157	C	1.151214	-0.379482	1.071771
C158	C	1.484548	-0.046149	1.405105
C159	C	1.817881	0.287185	1.738438
C160	C	1.053375	-0.279194	1.071899
C161	C	1.386709	0.054139	1.405232
C162	C	1.720042	0.387472	1.738565
C163	C	1.051629	-0.279665	0.949293
C164	C	1.384963	0.053668	1.282626
C165	C	1.718296	0.387001	1.615959
H166	H	0.619930	-0.449580	0.640908
H167	H	0.953263	-0.116246	0.974241
H168	H	1.286596	0.217087	1.307574
H169	H	0.981708	-0.903952	0.641062
H170	H	1.315041	-0.570619	0.974396
H171	H	1.648374	-0.237286	1.307729
H172	H	1.028718	-0.472859	1.103056
H173	H	1.362052	-0.139525	1.436389
H174	H	1.695385	0.193808	1.769723
H175	H	1.028997	-0.473506	0.920363
H176	H	1.362331	-0.140172	1.253696
H177	H	1.695664	0.193161	1.587029
H178	H	1.164944	-0.811355	0.379772
H179	H	1.498277	-0.478021	0.713105
H180	H	1.831611	-0.144688	1.046438
H181	H	0.527168	-0.324641	0.688961
H182	H	0.860501	0.008692	1.022294
H183	H	1.193834	0.342026	1.355628
H184	H	1.106651	-0.811067	0.688938
H185	H	1.439985	-0.477734	1.022271
H186	H	1.773318	-0.144401	1.355605
H187	H	0.997312	-0.259823	1.102827
H188	H	1.330646	0.073510	1.436160
H189	H	1.663979	0.406844	1.769493
H190	H	1.168117	-0.436923	1.100370
H191	H	1.501451	-0.103590	1.433704
H192	H	1.834784	0.229744	1.767037
Br193	Br	1.225160	-0.313011	1.121221
Br194	Br	1.558493	0.020322	1.454554
Br195	Br	1.891826	0.353656	1.787888
Br196	Br	1.116488	-0.204873	0.898254
Br197	Br	1.449821	0.128461	1.231587
Br198	Br	1.783155	0.461794	1.564921
Br199	Br	0.634278	-0.194683	0.573418
Br200	Br	0.967611	0.138650	0.906752
Br201	Br	1.300945	0.471984	1.240085
H202	H	1.039834	-0.904099	0.331911
H203	H	1.373167	-0.570765	0.665244
H204	H	1.706500	-0.237432	0.998578
H205	H	1.198362	-0.903745	0.558484
H206	H	1.531695	-0.570411	0.891817
H207	H	1.865028	-0.237078	1.225150
Br208	Br	0.513040	-0.238164	0.340016
Br209	Br	0.846373	0.095170	0.673349
Br210	Br	1.179706	0.428503	1.006683
H211	H	0.620013	-0.391304	0.331845
H212	H	0.953347	-0.057971	0.665178
H213	H	1.286680	0.275362	0.998512
Br214	Br	0.512721	-0.521165	0.447562
Br215	Br	0.846054	-0.187831	0.780896
Br216	Br	1.179387	0.145502	1.114229
Br217	Br	0.910006	-0.796879	0.447844
Br218	Br	1.243339	-0.463545	0.781178
Br219	Br	1.576672	-0.130212	1.114511
Br220	Br	0.919128	-0.393078	0.899549
Br221	Br	1.252461	-0.059744	1.232883
Br222	Br	1.585795	0.273589	1.566216
Br223	Br	0.918683	-0.393011	1.121397
Br224	Br	1.252016	-0.059677	1.454731
Br225	Br	1.585350	0.273656	1.788064
Br226	Br	1.225019	-0.311882	0.900598
Br227	Br	1.558352	0.021451	1.233931
Br228	Br	1.891685	0.354785	1.567264
H229	H	1.168723	-0.435963	0.918472
H230	H	1.502056	-0.102630	1.251806
H231	H	1.835390	0.230704	1.585139
H232	H	0.994047	-0.263637	0.920218
H233	H	1.327380	0.069697	1.253551
H234	H	1.660714	0.403030	1.586884
H235	H	1.095350	-0.236577	1.100899
H236	H	1.428683	0.096756	1.434233
H237	H	1.762017	0.430090	1.767566
