data_functionalizedCrystal
_audit_creation_method	'MofGen! by Chris Wilmer'
_symmetry_space_group_name_H-M	'P1'
_symmetry_Int_Tables_number	1
_symmetry_cell_setting	triclinic
loop_
_symmetry_equiv_pos_as_xyz
  x,y,z
_cell_length_a	17.639617
_cell_length_b	21.295417
_cell_length_c	17.640968
_cell_angle_alpha	78.765192
_cell_angle_beta	70.333968
_cell_angle_gamma	101.214475
loop_
_atom_site_label
_atom_site_type_symbol
_atom_site_fract_x
_atom_site_fract_y
_atom_site_fract_z
Zn1	Zn	1.354405	0.083269	-0.721260
Zn2	Zn	1.326406	-0.048705	-0.583391
Zn3	Zn	1.188682	0.029917	-0.555521
Zn4	Zn	1.216496	-0.048644	-0.693274
O5	O	1.271497	0.003959	-0.638362
O6	O	1.466044	0.088064	-0.726348
O7	O	1.284779	-0.060629	-0.464345
O8	O	1.210743	0.125104	-0.577555
O9	O	1.445474	-0.008896	-0.625056
O10	O	1.332498	0.164301	-0.699323
O11	O	1.183594	-0.002865	-0.443869
O12	O	1.077018	-0.002806	-0.550418
O13	O	1.258147	-0.008792	-0.812335
O14	O	1.097453	-0.060524	-0.651625
O15	O	1.359468	0.088124	-0.832897
O16	O	1.311749	-0.136806	-0.597919
O17	O	1.230998	-0.136761	-0.678649
C18	C	1.057326	-0.037448	-0.594960
C19	C	0.965706	-0.055174	-0.576413
C20	C	0.717977	0.138673	-0.779471
C21	C	0.631883	0.121998	-0.762026
C22	C	0.610454	0.021137	-0.656399
C23	C	0.696549	0.037802	-0.673838
C24	C	0.750303	0.096571	-0.735374
C25	C	0.728875	-0.004300	-0.629741
C26	C	0.814962	0.012366	-0.647176
C27	C	0.868721	0.071133	-0.708708
C28	C	0.836390	0.113237	-0.752809
C29	C	0.675118	-0.063066	-0.568201
C30	C	0.707445	-0.105168	-0.524104
C31	C	0.793534	-0.088505	-0.541543
C32	C	0.847293	-0.029738	-0.603075
C33	C	0.825865	-0.130609	-0.497442
C34	C	0.911951	-0.113943	-0.514876
C35	C	0.933379	-0.013072	-0.620509
C36	C	1.271380	-0.159622	-0.638294
C37	C	1.271411	-0.229583	-0.638308
C38	C	1.313515	-0.262433	-0.596335
C39	C	1.313558	-0.328164	-0.596362
C40	C	1.271479	-0.361048	-0.638349
C41	C	1.229373	-0.328189	-0.680331
C42	C	1.229338	-0.262456	-0.680311
N43	N	1.200639	-0.477043	-0.630020
N44	N	1.200673	-0.539487	-0.630035
C45	C	1.271581	-0.559095	-0.638415
N46	N	1.342452	-0.513904	-0.646764
N47	N	1.342417	-0.451456	-0.646744
C48	C	1.271512	-0.432323	-0.638377
C49	C	1.313735	-0.663218	-0.596469
C50	C	1.313780	-0.728950	-0.596502
C51	C	1.229587	-0.728975	-0.680465
C52	C	1.229550	-0.663243	-0.680439
C53	C	1.271622	-0.630370	-0.638436
C54	C	1.486505	0.045528	-0.681933
C55	C	1.578129	0.063243	-0.700500
C56	C	1.315033	0.045624	-0.853361
C57	C	1.333586	0.063379	-0.944981
C58	C	1.271641	0.168187	-0.638452
C59	C	1.271702	0.238172	-0.638491
C60	C	1.130872	-0.130520	-1.192787
C61	C	1.148322	-0.113825	-1.278882
C62	C	1.253819	-0.012915	-1.300280
C63	C	1.236375	-0.029600	-1.214185
C64	C	1.174901	-0.088404	-1.160445
C65	C	1.280404	0.012516	-1.181843
C66	C	1.262963	-0.004169	-1.095757
C67	C	1.201494	-0.062971	-1.042012
C68	C	1.157461	-0.105089	-1.074359
C69	C	1.341881	0.071317	-1.235586
C70	C	1.385910	0.113433	-1.203244
C71	C	1.368466	0.096750	-1.117155
C72	C	1.306997	0.037948	-1.063410
C73	C	1.412500	0.138868	-1.084808
C74	C	1.395059	0.122183	-0.998721
C75	C	1.289557	0.021263	-0.977323
C76	C	1.228178	-0.037489	-0.424208
C77	C	1.209785	-0.055035	-0.332621
H78	H	1.347775	-0.235668	-0.562137
C79	C	0.596953	0.167780	-0.810033
C80	C	0.662461	0.222803	-0.867668
C81	C	0.630318	0.264985	-0.911913
H82	H	0.557018	0.182720	-0.771861
H83	H	0.570658	0.144129	-0.839137
H84	H	0.688744	0.246451	-0.838566
H85	H	0.702402	0.207883	-0.905857
H86	H	0.604022	0.241334	-0.941017
H87	H	0.590383	0.279920	-0.873734
H88	H	0.674760	0.302320	-0.951028
H89	H	0.938817	0.084703	-0.722899
C90	C	1.183534	-0.226913	-0.725893
C91	C	1.146677	-0.269781	-0.762658
C92	C	1.104465	-0.237063	-0.804645
H93	H	1.222225	-0.188179	-0.768262
H94	H	1.141197	-0.214385	-0.687058
H95	H	1.189010	-0.282299	-0.801490
H96	H	1.107974	-0.308515	-0.720308
H97	H	1.062127	-0.224536	-0.765810
H98	H	1.143161	-0.198330	-0.847009
H99	H	1.079446	-0.266146	-0.829588
C100	C	0.581683	-0.081201	-0.549425
C101	C	0.569088	-0.087688	-0.622089
C102	C	0.483028	-0.104403	-0.604823
H103	H	0.559256	-0.047105	-0.531361
H104	H	0.554275	-0.122246	-0.506491
H105	H	0.596486	-0.046648	-0.665009
H106	H	0.591495	-0.121786	-0.640163
H107	H	0.455619	-0.145448	-0.561888
H108	H	0.460608	-0.070304	-0.586758
H109	H	0.474470	-0.108812	-0.654119
C110	C	0.776424	0.202510	-0.846176
C111	C	0.816439	0.243450	-0.809619
C112	C	0.870293	0.302255	-0.871041
H113	H	0.744940	0.225278	-0.869984
H114	H	0.817308	0.191857	-0.888827
H115	H	0.775561	0.254104	-0.766983
H116	H	0.847938	0.220703	-0.785816
H117	H	0.911177	0.291602	-0.913692
H118	H	0.838803	0.325017	-0.894845
H119	H	0.897455	0.330037	-0.846248
H120	H	1.107383	-0.152962	-1.030596
C121	C	1.359282	-0.363739	-0.550700
C122	C	1.396103	-0.320886	-0.513896
C123	C	1.438219	-0.353636	-0.471816
H124	H	1.401632	-0.376297	-0.589461
H125	H	1.320516	-0.402464	-0.508345
H126	H	1.434866	-0.282173	-0.556246
H127	H	1.353771	-0.308325	-0.475123
H128	H	1.399453	-0.392360	-0.429461
H129	H	1.480565	-0.366192	-0.510582
H130	H	1.463200	-0.324567	-0.446833
H131	H	1.347996	-0.636451	-0.562271
C132	C	1.359511	-0.764515	-0.550845
C133	C	1.396327	-0.721660	-0.514040
C134	C	1.438451	-0.754404	-0.471964
H135	H	1.401865	-0.777068	-0.589609
H136	H	1.320750	-0.803243	-0.508491
H137	H	1.435084	-0.682945	-0.556389
H138	H	1.353991	-0.709105	-0.475264
H139	H	1.399690	-0.793131	-0.429610
H140	H	1.480801	-0.766955	-0.510734
H141	H	1.463429	-0.725333	-0.446981
C142	C	1.183898	-0.627623	-0.726143
C143	C	1.218290	-0.624320	-0.811340
C144	C	1.176250	-0.591519	-0.853470
H145	H	1.189873	-0.583745	-0.720219
H146	H	1.126073	-0.651502	-0.702860
H147	H	1.276102	-0.600440	-0.834616
H148	H	1.212316	-0.668188	-0.817289
H149	H	1.118424	-0.615399	-0.830187
H150	H	1.182227	-0.547644	-0.847540
H151	H	1.199573	-0.589279	-0.911279
C152	C	1.222938	-0.042663	-0.919024
C153	C	1.245099	-0.097428	-0.943557
C154	C	1.183769	-0.156327	-0.889863
H155	H	1.170371	-0.041534	-0.921858
H156	H	1.218880	-0.046603	-0.863122
H157	H	1.249148	-0.093489	-0.999445
H158	H	1.297656	-0.098579	-0.940720
H159	H	1.179711	-0.160267	-0.833960
H160	H	1.131205	-0.155191	-0.892700
H161	H	1.198800	-0.193492	-0.906496
H162	H	1.195330	-0.755747	-0.714657
C163	C	1.064144	-0.194420	-1.134578
C164	C	1.029334	-0.227748	-1.181328
C165	C	0.967883	-0.286622	-1.127739
H166	H	1.021367	-0.183888	-1.093702
H167	H	1.088859	-0.222290	-1.107399
H168	H	1.004619	-0.199885	-1.208494
H169	H	1.072090	-0.238297	-1.222202
H170	H	0.992597	-0.314491	-1.100560
H171	H	0.925111	-0.276084	-1.086866
H172	H	0.944262	-0.309246	-1.159452
C173	C	1.100657	-0.159593	-1.314070
C174	C	1.157303	-0.181359	-1.372913
C175	C	1.113426	-0.223525	-1.405339
H176	H	1.071563	-0.136002	-1.340452
H177	H	1.061567	-0.197032	-1.269764
H178	H	1.196378	-0.143926	-1.417211
H179	H	1.186399	-0.204960	-1.346550
H180	H	1.074336	-0.260964	-1.361032
H181	H	1.084334	-0.199930	-1.431717
H182	H	1.151852	-0.238304	-1.445261
H183	H	1.195114	-0.354966	-0.714520
H184	H	0.938272	-0.148227	-0.478968
H185	H	1.435964	0.161310	-1.247010
H186	H	1.356081	0.084899	-1.305683
H187	H	1.303873	0.034961	-1.344047
H188	H	1.187299	-0.076557	-0.971916
C189	C	1.479184	0.202694	-1.143290
C190	C	1.485024	0.208298	-1.225602
C191	C	1.546438	0.267090	-1.279496
H192	H	1.531755	0.201518	-1.140498
H193	H	1.464302	0.239956	-1.126812
H194	H	1.499911	0.171046	-1.242075
H195	H	1.432469	0.209486	-1.228421
H196	H	1.531556	0.304351	-1.263018
H197	H	1.599004	0.265908	-1.276696
H198	H	1.550403	0.270902	-1.335349
C199	C	1.442764	0.167999	-0.963619
C200	C	1.429093	0.230880	-0.980930
C201	C	1.473020	0.273099	-0.948596
H202	H	1.501022	0.172310	-0.988909
H203	H	1.423563	0.149676	-0.904643
H204	H	1.448299	0.249200	-1.039894
H205	H	1.370845	0.226590	-0.955639
H206	H	1.453818	0.254775	-0.889620
H207	H	1.531275	0.277404	-0.973889
H208	H	1.463744	0.315766	-0.960330
C209	C	0.894828	0.176964	-0.819735
C210	C	0.954912	0.161038	-0.882493
C211	C	1.008753	0.219722	-0.944160
H212	H	0.922131	0.204877	-0.795181
H213	H	0.863288	0.199658	-0.843563
H214	H	0.986449	0.138355	-0.858668
H215	H	0.927633	0.133135	-0.907069
H216	H	0.977213	0.242416	-0.967987
H217	H	1.036050	0.247631	-0.919598
H218	H	1.049522	0.208924	-0.986752
H219	H	0.977151	0.034782	-0.670621
H220	H	0.566675	-0.026711	-0.606293
H221	H	0.663666	-0.153017	-0.473999
C222	C	0.767367	-0.194398	-0.430689
C223	C	0.685059	-0.199987	-0.424869
C224	C	0.631150	-0.258745	-0.363393
H225	H	0.770158	-0.193183	-0.378132
H226	H	0.783833	-0.231684	-0.445503
H227	H	0.668597	-0.162711	-0.410050
H228	H	0.682241	-0.201213	-0.477410
H229	H	0.647617	-0.296031	-0.378207
H230	H	0.633949	-0.257525	-0.310840
H231	H	0.575300	-0.262548	-0.359441
