data_functionalizedCrystal
_audit_creation_method	'MofGen! by Chris Wilmer'
_symmetry_space_group_name_H-M	'P1'
_symmetry_Int_Tables_number	1
_symmetry_cell_setting	triclinic
loop_
_symmetry_equiv_pos_as_xyz
  x,y,z
_cell_length_a	16.109301
_cell_length_b	16.109301
_cell_length_c	15.186229
_cell_angle_alpha	90.000809
_cell_angle_beta	89.995060
_cell_angle_gamma	96.538519
loop_
_atom_site_label
_atom_site_type_symbol
_atom_site_fract_x
_atom_site_fract_y
_atom_site_fract_z
O1	O	0.106866	-1.103131	-0.073176
O2	O	0.606866	-0.603131	0.426824
O3	O	0.120165	-0.861069	-0.073190
O4	O	0.620165	-0.361069	0.426810
O5	O	-0.007516	-0.988750	-0.073174
O6	O	0.492484	-0.488750	0.426826
O7	O	0.234546	-0.975450	-0.073192
O8	O	0.734546	-0.475450	0.426808
O9	O	-0.007517	-0.988741	0.073284
O10	O	0.492483	-0.488741	0.573284
O11	O	0.120164	-0.861060	0.073267
O12	O	0.620164	-0.361060	0.573267
O13	O	0.106865	-1.103122	0.073282
O14	O	0.606865	-0.603122	0.573282
Zn15	Zn	0.113514	-0.982089	0.096528
Zn16	Zn	0.613514	-0.482089	0.596528
Zn17	Zn	0.113516	-0.982101	-0.096436
Zn18	Zn	0.613516	-0.482101	0.403564
O19	O	0.234545	-0.975441	0.073265
O20	O	0.734545	-0.475441	0.573265
C21	C	-0.038491	-0.988206	0.000056
C22	C	0.461509	-0.488206	0.500056
C23	C	-0.130786	-0.986591	0.000057
C24	C	0.369214	-0.486591	0.500057
C25	C	0.119626	-0.830090	0.000037
C26	C	0.619626	-0.330090	0.500037
C27	C	0.118011	-0.737794	0.000032
C28	C	0.618011	-0.237794	0.500032
C29	C	0.107404	-1.134101	0.000053
C30	C	0.607404	-0.634101	0.500053
C31	C	0.109019	-1.226397	0.000052
C32	C	0.609019	-0.726397	0.500052
C33	C	-0.353059	-1.058599	0.000047
C34	C	0.146941	-0.558599	0.500047
C35	C	-0.439779	-1.057075	0.000040
C36	C	0.060221	-0.557075	0.500040
C37	C	-0.419905	-0.905586	0.000034
C38	C	0.080095	-0.405586	0.500034
C39	C	-0.333186	-0.907111	0.000035
C40	C	0.166814	-0.407111	0.500035
C41	C	-0.299766	-0.983620	0.000046
C42	C	0.200234	-0.483620	0.500046
C43	C	-0.473205	-0.980571	0.000038
C44	C	0.026795	-0.480571	0.500038
C45	C	-0.567231	-0.978918	0.000030
C46	C	-0.067231	-0.478918	0.500030
C47	C	-0.205734	-0.985273	0.000052
C48	C	0.294266	-0.485273	0.500052
C49	C	0.265521	-0.975984	0.000034
C50	C	0.765521	-0.475984	0.500034
C51	C	0.357816	-0.977600	0.000027
C52	C	0.857816	-0.477600	0.500027
N53	N	0.113512	-0.982087	0.228220
N54	N	0.613512	-0.482087	0.728220
C55	C	0.190018	-0.515522	0.000036
C56	C	0.690018	-0.015522	0.500036
C57	C	0.188494	-0.428801	0.000042
C58	C	0.688494	0.071199	0.500042
C59	C	0.037006	-0.448676	0.000050
C60	C	0.537006	0.051324	0.500050
C61	C	0.038530	-0.535394	0.000051
C62	C	0.538530	-0.035394	0.500051
C63	C	0.115039	-0.568815	0.000039
C64	C	0.615039	-0.068815	0.500039
C65	C	0.111990	-0.395376	0.000045
C66	C	0.611990	0.104624	0.500045
C67	C	0.110337	-0.301350	0.000051
C68	C	0.610337	0.198650	0.500051
C69	C	0.116693	-0.662847	0.000035
C70	C	0.616693	-0.162847	0.500035
C71	C	0.056995	-1.038643	0.453950
C72	C	0.556995	-0.538643	0.953950
C73	C	0.056994	-1.038645	0.546140
C74	C	0.556994	-0.538645	1.046140
C75	C	0.170034	-0.925545	0.546135
C76	C	0.670034	-0.425545	1.046135
C77	C	0.170031	-0.925539	0.453947
C78	C	0.670031	-0.425539	0.953947
C79	C	0.113513	-0.982093	0.407857
C80	C	0.613513	-0.482093	0.907857
C81	C	0.113514	-0.982101	0.592235
C82	C	0.613514	-0.482101	1.092235
C83	C	0.113513	-0.982103	0.692191
C84	C	0.613513	-0.482103	1.192191
C85	C	0.113513	-0.982090	0.307894
C86	C	0.613513	-0.482090	0.807894
N87	N	0.113515	-0.982107	0.771871
N88	N	0.613515	-0.482107	1.271871
H89	H	-0.325851	-1.120897	0.000054
H90	H	0.174149	-0.620897	0.500054
Br91	Br	-0.019710	-1.115392	0.391403
Br92	Br	0.480290	-0.615392	0.891403
H93	H	-0.483168	-1.118130	0.000039
H94	H	0.016832	-0.618130	0.500039
H95	H	-0.447127	-0.843295	0.000027
H96	H	0.052873	-0.343295	0.500027
Br97	Br	-0.063234	-0.607728	0.000066
Br98	Br	0.436766	-0.107728	0.500066
H99	H	-0.025285	-0.421454	0.000065
H100	H	0.474715	0.078546	0.500065
H101	H	0.216052	-0.879502	0.583670
H102	H	0.716052	-0.379502	1.083670
H103	H	0.252317	-0.542730	0.000034
H104	H	0.752317	-0.042730	0.500034
Br105	Br	-0.019715	-1.115390	0.608694
Br106	Br	0.480285	-0.615390	1.108694
H107	H	-0.289792	-0.846050	0.000032
H108	H	0.210208	-0.346050	0.500032
Br109	Br	0.290256	-0.356477	0.000042
Br110	Br	0.790256	0.143523	0.500042
H111	H	0.216055	-0.879486	0.416415
H112	H	0.716055	-0.379486	0.916415
