data_functionalizedCrystal
_audit_creation_method	'MofGen! by Chris Wilmer'
_symmetry_space_group_name_H-M	'P1'
_symmetry_Int_Tables_number	1
_symmetry_cell_setting	triclinic
loop_
_symmetry_equiv_pos_as_xyz
  x,y,z
_cell_length_a	11.169417
_cell_length_b	29.839132
_cell_length_c	11.169409
_cell_angle_alpha	89.957666
_cell_angle_beta	90.019824
_cell_angle_gamma	89.953858
loop_
_atom_site_label
_atom_site_type_symbol
_atom_site_fract_x
_atom_site_fract_y
_atom_site_fract_z
Zn1	Zn	1.834671	0.178806	0.678459
Zn2	Zn	1.834438	0.253948	0.477741
Zn3	Zn	1.633957	0.178834	0.477794
Zn4	Zn	1.633842	0.253911	0.678386
O5	O	1.734227	0.216375	0.578095
O6	O	2.002590	0.188778	0.651842
O7	O	1.807794	0.244011	0.309798
O8	O	1.660728	0.115963	0.504465
O9	O	2.002419	0.243984	0.504376
O10	O	1.808191	0.115943	0.651893
O11	O	1.660502	0.188825	0.309837
O12	O	1.465992	0.188789	0.504394
O13	O	1.660532	0.243922	0.846346
O14	O	1.465908	0.243948	0.651768
O15	O	1.808080	0.188743	0.846399
O16	O	1.807683	0.316810	0.504304
O17	O	1.660306	0.316783	0.651717
C18	C	1.422402	0.216368	0.578080
C19	C	1.289002	0.216376	0.578101
C20	C	1.733989	0.333097	0.578023
C21	C	1.733998	0.383032	0.578033
C22	C	1.811020	0.692677	0.501400
C23	C	1.811135	0.880350	0.501427
O24	O	1.876493	0.904616	0.436250
N25	N	1.734353	0.903817	0.578115
C26	C	1.657542	0.880363	0.654806
O27	O	1.592245	0.904630	0.720043
C28	C	1.657434	0.692691	0.654784
C29	C	1.734213	0.669226	0.578083
C30	C	1.887794	0.669212	0.424706
C31	C	1.887760	0.622296	0.424696
C32	C	1.810952	0.598846	0.501379
C33	C	1.734179	0.622311	0.578072
C34	C	1.580631	0.669238	0.731481
C35	C	1.580613	0.622317	0.731470
C36	C	1.657391	0.598852	0.654770
C37	C	1.657338	0.551945	0.654745
N38	N	1.734120	0.528477	0.578058
C39	C	1.810927	0.551928	0.501375
C40	C	1.657602	0.978894	0.654810
C41	C	1.657627	1.025812	0.654815
C42	C	1.811222	1.025795	0.501437
C43	C	1.811190	0.978876	0.501428
C44	C	1.734384	0.955426	0.578123
C45	C	1.810849	0.453402	0.501357
C46	C	1.810805	0.406482	0.501350
C47	C	1.657215	0.406503	0.654731
C48	C	1.657254	0.453419	0.654735
C49	C	1.734081	0.476867	0.578044
O50	O	1.592023	0.527650	0.719897
O51	O	1.876233	0.527653	0.436167
C52	C	1.811054	0.739592	0.501411
C53	C	1.734281	0.763057	0.578104
C54	C	1.657474	0.739606	0.654787
C55	C	1.734306	0.809975	0.578109
C56	C	1.811114	0.833425	0.501426
C57	C	1.887896	0.809958	0.424738
C58	C	1.887862	0.763043	0.424728
C59	C	1.580692	0.763074	0.731475
C60	C	1.580731	0.809989	0.731478
C61	C	1.657538	0.833440	0.654795
C62	C	2.047269	0.216382	0.578111
C63	C	2.180669	0.216385	0.578118
C64	C	1.734319	0.216325	0.891138
C65	C	1.734359	0.216304	1.024538
C66	C	1.734453	1.099196	0.578167
C67	C	1.734435	1.049262	0.578132
C68	C	1.734204	0.216392	0.266270
C69	C	1.734398	0.216287	0.132871
H70	H	1.873327	0.387379	0.438887
H71	H	1.518103	0.688335	0.793933
C72	C	1.496125	0.596523	0.815834
H73	H	1.507103	0.565219	0.804857
H74	H	1.415500	0.604250	0.798208
H75	H	1.513669	0.604182	0.896492
H76	H	1.594739	0.472525	0.717195
H77	H	1.873412	0.472488	0.438911
H78	H	1.950283	0.603194	0.362243
H79	H	1.950432	0.829060	0.362297
H80	H	1.594676	0.387402	0.717162
C81	C	1.972328	0.737237	0.340365
H82	H	2.018078	0.757929	0.294711
H83	H	1.926445	0.718967	0.288022
H84	H	2.024596	0.718902	0.386324
H85	H	1.950346	0.688300	0.362261
H86	H	1.873710	0.959774	0.438972
C87	C	1.895705	1.051596	0.417084
H88	H	1.884721	1.082899	0.428083
H89	H	1.878186	1.043939	0.336427
H90	H	1.976337	1.043875	0.434728
C91	C	1.573164	1.051618	0.739178
H92	H	1.527429	1.030928	0.784852
H93	H	1.520900	1.069955	0.693234
H94	H	1.619066	1.069886	0.791521
H95	H	1.518198	0.829090	0.793936
H96	H	1.595055	0.959804	0.717267
H97	H	1.518147	0.743984	0.793921
