data_functionalizedCrystal
_audit_creation_method	'MofGen! by Chris Wilmer'
_symmetry_space_group_name_H-M	'P1'
_symmetry_Int_Tables_number	1
_symmetry_cell_setting	triclinic
loop_
_symmetry_equiv_pos_as_xyz
  x,y,z
_cell_length_a	8.597340
_cell_length_b	11.792241
_cell_length_c	7.681481
_cell_angle_alpha	84.218353
_cell_angle_beta	103.474906
_cell_angle_gamma	84.766049
loop_
_atom_site_label
_atom_site_type_symbol
_atom_site_fract_x
_atom_site_fract_y
_atom_site_fract_z
O1	O	2.101203	0.156959	0.172360
O2	O	1.637298	0.175043	0.101974
O3	O	1.880509	0.000779	0.138888
O4	O	1.857991	0.331222	0.135447
O5	O	1.910444	-0.020718	0.436289
O6	O	1.667233	0.153545	0.399375
O7	O	2.131137	0.135461	0.469762
Zn8	Zn	1.903938	0.141090	0.481787
Zn9	Zn	1.864497	0.169414	0.089948
O10	O	1.887926	0.309724	0.432848
C11	C	1.592875	0.163549	0.241664
C12	C	1.415912	0.161317	0.214814
C13	C	1.894062	-0.052254	0.287373
C14	C	1.889829	-0.178249	0.286729
C15	C	1.882042	-0.408924	0.285518
C16	C	1.886368	-0.280560	0.286191
C17	C	2.175560	0.146955	0.330068
C18	C	2.352522	0.149187	0.356906
C19	C	1.874373	0.362758	0.284358
C20	C	1.878605	0.488754	0.284991
N21	N	1.930867	0.121759	0.749209
N22	N	1.837581	0.188736	-0.177471
H23	H	1.433636	0.140502	0.499105
H24	H	2.026110	0.053400	0.838870
Br25	Br	1.678863	0.302685	0.673110
Br26	Br	1.280719	0.175773	-0.022214
