data_functionalizedCrystal
_audit_creation_method	'MofGen! by Chris Wilmer'
_symmetry_space_group_name_H-M	'P1'
_symmetry_Int_Tables_number	1
_symmetry_cell_setting	triclinic
loop_
_symmetry_equiv_pos_as_xyz
  x,y,z
_cell_length_a	10.654553
_cell_length_b	10.654551
_cell_length_c	9.130313
_cell_angle_alpha	90.001552
_cell_angle_beta	89.999282
_cell_angle_gamma	84.485770
loop_
_atom_site_label
_atom_site_type_symbol
_atom_site_fract_x
_atom_site_fract_y
_atom_site_fract_z
O1	O	1.667832	0.176412	-0.121806
O2	O	1.302355	0.193214	-0.121804
O3	O	1.493496	0.002074	-0.121806
O4	O	1.476691	0.367552	-0.121804
O5	O	1.493493	0.002079	0.121793
O6	O	1.302352	0.193219	0.121795
O7	O	1.667830	0.176417	0.121793
Cu8	Cu	1.485091	0.184818	0.144036
Cu9	Cu	1.485094	0.184812	-0.144048
O10	O	1.476689	0.367557	0.121795
C11	C	1.255555	0.191982	-0.000005
C12	C	1.116112	0.188288	-0.000004
C13	C	1.492261	-0.044722	-0.000010
C14	C	1.488568	-0.184165	-0.000020
C15	C	0.919571	0.183077	0.132771
C16	C	1.050592	0.186555	0.132779
C17	C	1.050604	0.186557	-0.132805
C18	C	0.919585	0.183088	-0.132812
C19	C	0.919565	0.183071	0.286105
C20	C	1.050586	0.186549	0.286113
C21	C	1.486837	-0.249680	-0.132803
C22	C	1.483357	-0.380700	-0.132796
C23	C	1.483344	-0.380680	0.132789
C24	C	1.486815	-0.249661	0.132781
C25	C	1.488590	-0.184184	-0.265603
C26	C	1.486861	-0.249699	-0.398397
C27	C	1.483380	-0.380719	-0.398390
C28	C	1.481630	-0.446225	-0.265589
C29	C	1.714629	0.177649	-0.000010
C30	C	1.854072	0.181342	-0.000020
C31	C	1.477924	0.414352	-0.000005
C32	C	1.481617	0.553795	-0.000004
N33	N	1.485098	0.184822	0.346659
N34	N	1.485096	0.184799	-0.346670
C35	C	1.569757	0.100214	0.423310
C36	C	1.569754	0.100199	0.576647
C37	C	1.400428	0.269410	0.576668
C38	C	1.400426	0.269419	0.423334
C39	C	1.667520	0.002525	0.423299
C40	C	1.667517	0.002509	0.576636
H41	H	0.866259	0.181691	-0.240943
H42	H	1.758704	0.033114	0.375741
Br43	Br	1.127739	0.041894	0.384230
H44	H	1.481959	-0.434057	-0.506517
Br45	Br	1.099878	0.339219	0.365415
Br46	Br	1.476889	-0.624038	-0.265584
H47	H	1.637003	-0.088713	0.624183
H48	H	1.488274	-0.196354	-0.506518
H49	H	0.873281	0.269862	0.344980
H50	H	1.481919	-0.434025	0.240909
Br51	Br	1.828373	0.038360	0.646014
H52	H	1.103960	0.187980	-0.240920
H53	H	1.488198	-0.196314	0.240904
H54	H	1.491427	-0.077501	-0.265623
Br55	Br	0.870248	0.030503	0.365637
Br56	Br	1.285508	0.384224	0.319303
Br57	Br	1.285518	0.384212	0.680734
Br58	Br	1.631784	-0.158364	0.353914
