data_functionalizedCrystal
_audit_creation_method	'MofGen! by Chris Wilmer'
_symmetry_space_group_name_H-M	'P1'
_symmetry_Int_Tables_number	1
_symmetry_cell_setting	triclinic
loop_
_symmetry_equiv_pos_as_xyz
  x,y,z
_cell_length_a	6.817900
_cell_length_b	14.858329
_cell_length_c	14.858340
_cell_angle_alpha	94.735759
_cell_angle_beta	104.519754
_cell_angle_gamma	104.519616
loop_
_atom_site_label
_atom_site_type_symbol
_atom_site_fract_x
_atom_site_fract_y
_atom_site_fract_z
V1	V	-4.043500	-0.129264	-0.290227
O2	O	-4.025343	0.005601	-0.284429
O3	O	-4.000049	-0.255722	-0.288504
O4	O	-4.000051	-0.127543	-0.416685
O5	O	-4.025341	-0.123464	-0.155361
V6	V	-4.525845	-0.113101	-0.274064
O7	O	-4.307342	-0.164719	-0.325681
O8	O	-4.712200	-0.077646	-0.238609
O9	O	-4.346089	0.013357	-0.275786
O10	O	-4.661399	-0.247966	-0.279861
O11	O	-4.661401	-0.118901	-0.408929
O12	O	-4.346087	-0.114821	-0.147606
C13	C	-3.846094	-0.286541	-0.283993
C14	C	-3.891888	-0.389924	-0.283428
C15	C	-3.929071	-0.473881	-0.282960
C16	C	-3.975738	-0.579209	-0.282377
C17	C	-4.012950	-0.663161	-0.281914
C18	C	-4.059620	-0.768496	-0.281330
C19	C	-3.846095	-0.123036	-0.447499
C20	C	-3.891888	-0.122466	-0.550881
C21	C	-3.929073	-0.122002	-0.634839
C22	C	-3.975740	-0.121416	-0.740167
C23	C	-4.012950	-0.120949	-0.824118
C24	C	-4.059621	-0.120365	-0.929452
C25	C	-4.163386	0.044171	-0.280295
C26	C	-4.096831	0.147553	-0.280866
C27	C	-4.163385	-0.119332	-0.116786
C28	C	-4.096831	-0.119898	-0.013403
