data_functionalizedCrystal
_audit_creation_method	'MofGen! by Chris Wilmer'
_symmetry_space_group_name_H-M	'P1'
_symmetry_Int_Tables_number	1
_symmetry_cell_setting	triclinic
loop_
_symmetry_equiv_pos_as_xyz
  x,y,z
_cell_length_a	10.654556
_cell_length_b	23.532357
_cell_length_c	9.130313
_cell_angle_alpha	89.989961
_cell_angle_beta	89.998135
_cell_angle_gamma	83.657914
loop_
_atom_site_label
_atom_site_type_symbol
_atom_site_fract_x
_atom_site_fract_y
_atom_site_fract_z
O1	O	1.665268	0.080004	-0.121764
O2	O	1.299547	0.087621	-0.121781
O3	O	1.493469	0.000951	-0.121742
O4	O	1.471347	0.166674	-0.121803
O5	O	1.493455	0.000948	0.121857
O6	O	1.299534	0.087618	0.121818
O7	O	1.665255	0.080001	0.121835
Cu8	Cu	1.482393	0.083809	0.144069
Cu9	Cu	1.482409	0.083813	-0.144015
O10	O	1.471333	0.166671	0.121796
C11	C	1.252760	0.087059	0.000017
C12	C	1.113371	0.085384	0.000012
C13	C	0.916909	0.083026	-0.132762
C14	C	1.047880	0.084597	-0.132772
C15	C	1.047885	0.084594	0.132813
C16	C	0.916917	0.083019	0.132821
C17	C	1.492909	-0.020271	0.000062
C18	C	1.491245	-0.083500	0.000076
C19	C	1.480808	-0.475578	-0.132789
C20	C	1.479227	-0.534988	-0.132798
O21	O	1.478372	-0.565709	-0.245727
N22	N	1.478435	-0.564706	-0.000014
C23	C	1.479213	-0.535010	0.132787
O24	O	1.478393	-0.565742	0.245729
C25	C	1.480785	-0.475601	0.132794
C26	C	1.481589	-0.445887	0.000001
C27	C	1.481611	-0.445864	-0.265571
C28	C	1.483194	-0.386459	-0.265562
C29	C	1.483975	-0.356767	-0.132771
C30	C	1.483173	-0.386481	0.000010
C31	C	1.481553	-0.445905	0.265593
C32	C	1.483125	-0.386492	0.265589
C33	C	1.483929	-0.356778	0.132796
C34	C	1.485538	-0.297384	0.132810
N35	N	1.486329	-0.267666	0.000026
C36	C	1.485548	-0.297358	-0.132765
C37	C	1.475908	-0.659773	0.132762
C38	C	1.474345	-0.719182	0.132757
C39	C	1.474357	-0.719155	-0.132828
C40	C	1.475929	-0.659746	-0.132821
C41	C	1.476699	-0.630055	-0.000021
C42	C	1.488875	-0.172602	-0.132736
C43	C	1.490464	-0.113192	-0.132715
C44	C	1.490445	-0.113223	0.132870
C45	C	1.488863	-0.172628	0.132850
C46	C	1.488074	-0.202316	0.000035
O47	O	1.486388	-0.266625	0.245681
O48	O	1.486351	-0.266617	-0.245688
C49	C	1.712042	0.080563	0.000034
C50	C	1.851431	0.082238	0.000030
C51	C	1.471893	0.187893	-0.000011
C52	C	1.473557	0.251122	-0.000035
N53	N	1.482391	0.083807	0.346692
N54	N	1.482420	0.083810	-0.346638
C55	C	1.568288	0.045446	0.423361
C56	C	1.568300	0.045446	0.576698
C57	C	1.396514	0.122173	0.576683
C58	C	1.396497	0.122170	0.423349
H59	H	1.101219	0.085231	0.240928
Br60	Br	1.491509	-0.072916	0.313077
H61	H	0.863603	0.082377	0.240963
H62	H	1.491122	-0.089001	-0.240855
H63	H	1.488226	-0.196767	-0.240886
H64	H	1.483844	-0.362271	-0.373696
Br65	Br	1.473289	-0.759462	-0.313047
H66	H	1.480970	-0.470032	-0.373711
Br67	Br	1.279951	0.174237	0.680722
Br68	Br	1.684873	-0.006620	0.680746
H69	H	1.326544	0.153409	0.360920
H70	H	1.476582	-0.635557	-0.240953
Br71	Br	0.828039	0.081965	-0.312978
H72	H	1.101187	0.085238	-0.240904
Br73	Br	1.476962	-0.619484	0.313009
Br74	Br	1.473284	-0.759502	0.312983
Br75	Br	1.684856	-0.006619	0.319332
H76	H	1.480900	-0.470088	0.373727
Br77	Br	1.487801	-0.212957	0.313069
Br78	Br	1.484168	-0.346200	0.445828
