data_functionalizedCrystal
_audit_creation_method	'MofGen! by Chris Wilmer'
_symmetry_space_group_name_H-M	'P1'
_symmetry_Int_Tables_number	1
_symmetry_cell_setting	triclinic
loop_
_symmetry_equiv_pos_as_xyz
  x,y,z
_cell_length_a	17.077404
_cell_length_b	12.759394
_cell_length_c	17.077396
_cell_angle_alpha	89.973684
_cell_angle_beta	89.980499
_cell_angle_gamma	90.015062
loop_
_atom_site_label
_atom_site_type_symbol
_atom_site_fract_x
_atom_site_fract_y
_atom_site_fract_z
Zn1	Zn	1.200099	-0.418260	-0.443855
Zn2	Zn	1.200024	-0.593961	-0.312593
Zn3	Zn	1.068830	-0.418297	-0.312602
Zn4	Zn	1.068817	-0.593898	-0.443817
O5	O	1.134442	-0.506104	-0.378217
O6	O	1.309936	-0.441578	-0.426454
O7	O	1.182595	-0.570700	-0.202748
O8	O	1.086280	-0.271271	-0.330033
O9	O	1.309881	-0.570664	-0.330017
O10	O	1.182722	-0.271244	-0.426463
O11	O	1.086208	-0.441641	-0.202754
O12	O	0.958982	-0.441580	-0.329996
O13	O	1.086257	-0.570558	-0.553669
O14	O	0.958972	-0.570594	-0.426399
O15	O	1.182709	-0.441517	-0.553697
O16	O	1.182582	-0.740974	-0.329981
O17	O	1.086185	-0.740928	-0.426391
C18	C	0.930495	-0.506085	-0.378195
C19	C	0.843245	-0.506102	-0.378205
C20	C	1.134395	-0.779072	-0.378198
C21	C	1.134447	-0.895848	-0.378216
C22	C	0.802270	-0.573381	-0.428321
C23	C	0.720290	-0.573383	-0.428334
C24	C	0.679285	-0.506111	-0.378225
C25	C	0.720266	-0.438825	-0.328107
C26	C	0.802245	-0.438818	-0.328099
C27	C	0.549396	-0.438846	-0.328125
C28	C	0.467411	-0.438854	-0.328132
C29	C	0.467441	-0.573411	-0.428360
C30	C	0.549419	-0.573404	-0.428352
C31	C	0.590394	-0.506119	-0.378233
C32	C	1.234901	-0.895843	-0.277900
C33	C	1.285148	-0.950701	-0.227751
C34	C	1.285194	-1.060422	-0.227773
C35	C	1.234989	-1.115288	-0.277950
C36	C	1.184742	-1.060430	-0.328099
C37	C	1.184700	-0.950706	-0.328070
C38	C	1.084293	-1.060436	-0.428417
C39	C	1.084242	-0.950714	-0.428393
C40	C	1.034088	-1.115302	-0.478594
C41	C	0.983835	-1.060444	-0.528740
C42	C	0.983791	-0.950716	-0.528716
C43	C	1.033994	-0.895856	-0.478542
C44	C	1.339187	-0.506124	-0.378239
C45	C	1.426436	-0.506132	-0.378249
C46	C	1.134490	-0.506027	-0.582961
C47	C	1.134510	-0.505994	-0.670211
C48	C	1.134511	-0.232071	-0.378253
C49	C	1.134540	-0.115294	-0.378269
C50	C	1.184735	-0.438797	-0.711217
C51	C	1.184744	-0.438762	-0.793197
C52	C	1.134532	-0.505930	-0.834171
C53	C	1.084302	-0.573130	-0.793159
C54	C	1.084290	-0.573159	-0.711180
C55	C	1.084334	-0.573067	-0.964029
C56	C	1.084348	-0.573039	-1.046014
C57	C	1.184788	-0.438670	-1.046047
C58	C	1.184776	-0.438699	-0.964068
C59	C	1.134546	-0.505900	-0.923062
C60	C	1.134440	-0.506105	-0.174269
C61	C	1.134572	-0.505842	-0.087020
H62	H	0.835650	-0.628165	-0.469123
O63	O	1.333801	-0.897354	-0.178926
C64	C	1.289106	-0.833967	-0.128191
H65	H	1.227298	-0.867107	-0.123300
H66	H	1.317523	-0.832751	-0.067803
H67	H	1.286356	-0.750790	-0.152442
H68	H	0.582755	-0.384046	-0.287319
O69	O	1.035595	-0.638593	-0.671375
C70	C	1.052721	-0.743296	-0.691409
H71	H	1.115431	-0.748590	-0.713963
H72	H	1.045949	-0.795218	-0.637485
H73	H	1.010633	-0.770747	-0.738977
H74	H	1.225667	-0.384010	-0.930709
H75	H	0.942876	-0.906056	-0.569557
O76	O	0.427651	-0.373552	-0.279365
C77	C	0.447610	-0.396359	-0.201085
H78	H	0.507132	-0.436720	-0.199373
H79	H	0.450386	-0.320461	-0.166000
H80	H	0.401452	-0.450337	-0.174584
O81	O	0.680608	-0.638849	-0.477032
C82	C	0.734379	-0.698215	-0.521263
H83	H	0.792802	-0.701778	-0.489101
H84	H	0.710687	-0.781013	-0.529517
H85	H	0.743126	-0.659860	-0.580936
O86	O	1.033949	-0.789274	-0.478373
C87	C	1.013791	-0.752714	-0.403121
H88	H	1.027245	-0.815978	-0.357932
H89	H	1.049178	-0.679288	-0.389179
H90	H	0.948653	-0.733313	-0.401402
H91	H	1.225625	-0.384104	-0.677862
O92	O	1.233497	-0.373339	-0.832938
C93	C	1.216354	-0.268634	-0.812922
H94	H	1.186165	-0.266485	-0.753396
H95	H	1.273019	-0.221534	-0.810125
H96	H	1.176017	-0.233215	-0.859057
H97	H	0.582803	-0.628188	-0.469151
O98	O	0.680521	-0.373528	-0.279323
C99	C	0.700500	-0.396367	-0.201055
H100	H	0.760017	-0.436743	-0.199368
H101	H	0.703298	-0.320482	-0.165955
H102	H	0.654343	-0.450343	-0.174550
H103	H	0.835606	-0.384028	-0.287293
O104	O	1.233498	-0.373408	-1.085996
C105	C	1.222752	-0.387791	-1.167139
H106	H	1.162168	-0.422198	-1.178318
H107	H	1.228091	-0.309079	-1.198301
H108	H	1.269305	-0.443725	-1.190412
H109	H	1.043459	-0.627731	-1.079372
H110	H	1.234858	-0.806502	-0.277868
H111	H	0.434075	-0.628194	-0.469172
H112	H	1.326114	-1.105087	-0.186941
H113	H	1.043416	-0.627816	-0.826526
O114	O	1.235185	-1.221871	-0.277978
C115	C	1.310419	-1.258416	-0.298231
H116	H	1.355610	-1.195144	-0.284843
H117	H	1.324425	-1.331842	-0.262855
H118	H	1.312057	-1.277812	-0.363370
H119	H	1.034132	-1.204643	-0.478612
H120	H	0.942966	-1.105125	-0.569594
O121	O	1.035530	-0.638462	-0.924316
C122	C	0.991209	-0.697735	-0.978057
H123	H	1.023362	-0.701330	-1.036505
H124	H	0.982835	-0.780528	-0.954364
H125	H	0.931592	-0.659278	-0.986759
