data_functionalizedCrystal
_audit_creation_method	'MofGen! by Chris Wilmer'
_symmetry_space_group_name_H-M	'P1'
_symmetry_Int_Tables_number	1
_symmetry_cell_setting	triclinic
loop_
_symmetry_equiv_pos_as_xyz
  x,y,z
_cell_length_a	16.959454
_cell_length_b	16.959455
_cell_length_c	21.395355
_cell_angle_alpha	89.975182
_cell_angle_beta	90.012996
_cell_angle_gamma	89.981311
loop_
_atom_site_label
_atom_site_type_symbol
_atom_site_fract_x
_atom_site_fract_y
_atom_site_fract_z
Zn1	Zn	-0.314802	-1.208455	0.354290
Zn2	Zn	-0.446963	-1.208356	0.249523
Zn3	Zn	-0.314799	-1.076262	0.249526
Zn4	Zn	-0.446940	-1.076248	0.354262
O5	O	-0.380876	-1.142330	0.301900
O6	O	-0.332345	-1.319053	0.340402
O7	O	-0.429440	-1.190798	0.161845
O8	O	-0.204189	-1.093845	0.263436
O9	O	-0.429443	-1.318980	0.263430
O10	O	-0.204191	-1.190966	0.340406
O11	O	-0.332340	-1.093750	0.161848
O12	O	-0.332317	-0.965649	0.263410
O13	O	-0.429403	-1.093821	0.441944
O14	O	-0.429400	-0.965639	0.340359
O15	O	-0.332322	-1.190952	0.441964
O16	O	-0.557571	-1.190785	0.263403
O17	O	-0.557554	-1.093725	0.340355
C18	C	-0.586242	-1.142264	0.301890
C19	C	-0.674099	-1.142308	0.301906
C20	C	-0.380856	-0.936964	0.301882
C21	C	-0.380866	-0.849107	0.301889
C22	C	-0.380860	-1.142396	0.465324
C23	C	-0.380853	-1.142424	0.534965
C24	C	-1.045595	-1.091865	0.341965
C25	C	-1.045554	-1.193016	0.261899
C26	C	-0.963008	-1.192988	0.261894
C27	C	-0.921752	-1.142397	0.301923
C28	C	-0.963042	-1.091834	0.341959
C29	C	-0.921711	-1.243545	0.221855
C30	C	-0.839160	-1.243519	0.221847
C31	C	-0.797903	-1.192931	0.261880
C32	C	-0.839198	-1.142366	0.301918
C33	C	-0.797942	-1.091775	0.341947
C34	C	-0.839236	-1.041214	0.381988
C35	C	-0.921785	-1.041246	0.381992
C36	C	-0.715355	-1.192899	0.261876
C37	C	-0.715389	-1.091745	0.341941
C38	C	-0.174708	-1.142418	0.301925
C39	C	-0.086851	-1.142456	0.301935
C40	C	-0.431348	-0.807794	0.261755
C41	C	-0.330390	-0.807867	0.342026
C42	C	-0.330395	-0.725322	0.342032
C43	C	-0.380876	-0.684008	0.301899
C44	C	-0.431353	-0.725240	0.261759
C45	C	-0.279913	-0.684083	0.382167
C46	C	-0.279916	-0.601532	0.382174
C47	C	-0.330402	-0.560217	0.342044
C48	C	-0.380881	-0.601454	0.301903
C49	C	-0.431363	-0.560141	0.261769
C50	C	-0.481847	-0.601377	0.221631
C51	C	-0.481840	-0.683925	0.221628
C52	C	-0.330410	-0.477669	0.342046
C53	C	-0.431368	-0.477587	0.261773
C54	C	-0.380893	-0.348498	0.301915
C55	C	-0.380891	-0.436355	0.301913
C56	C	-0.380835	-1.142310	0.139113
C57	C	-0.380619	-1.142436	0.069472
C58	C	-0.330301	-1.192998	0.567690
C59	C	-0.330267	-1.192997	0.633125
C60	C	-0.380799	-1.142430	0.665833
C61	C	-0.431355	-1.091846	0.633101
C62	C	-0.431382	-1.091843	0.567666
C63	C	-0.451971	-1.136166	0.769504
C64	C	-0.451945	-1.136174	0.834937
C65	C	-0.380716	-1.142435	0.867654
C66	C	-0.309510	-1.148703	0.834930
C67	C	-0.309537	-1.148700	0.769496
C68	C	-0.380775	-1.142427	0.736786
C69	C	-0.330123	-1.193011	0.971331
C70	C	-0.330087	-1.193004	1.036768
C71	C	-0.431182	-1.091857	1.036742
C72	C	-0.431210	-1.091859	0.971307
C73	C	-0.380682	-1.142441	0.938605
H74	H	-0.681803	-1.050550	0.374541
O75	O	-0.485905	-1.037294	0.532360
H76	H	-0.450522	-0.997099	0.502537
H77	H	-0.805636	-1.000019	0.414578
H78	H	-0.955413	-1.000081	0.414591
O79	O	-0.485791	-0.852268	0.218463
H80	H	-0.547847	-0.836417	0.229131
O81	O	-0.528800	-1.129403	0.734218
H82	H	-0.578307	-1.125054	0.767964
H83	H	-0.289301	-0.444098	0.374722
O84	O	-1.090124	-1.037322	0.385144
H85	H	-1.154458	-1.045834	0.378422
H86	H	-0.509925	-1.131075	0.861576
O87	O	-1.090044	-1.247602	0.218743
H88	H	-1.154383	-1.239139	0.225481
O89	O	-0.966226	-1.298107	0.178693
H90	H	-0.950437	-1.284578	0.129502
O91	O	-0.485858	-1.037301	0.668373
H92	H	-0.477351	-1.045804	0.719372
O93	O	-0.275618	-1.247560	0.936060
H94	H	-0.311015	-1.287766	0.906271
O95	O	-0.232742	-1.155460	0.734202
H96	H	-0.224686	-1.102514	0.704368
H97	H	-0.251509	-1.153803	0.861567
H98	H	-0.805544	-1.284689	0.189244
H99	H	-0.681737	-1.234062	0.229272
H100	H	-0.238811	-0.717726	0.414839
O101	O	-0.225470	-0.557057	0.425464
H102	H	-0.239116	-0.572926	0.474620
H103	H	-0.288917	-1.234187	1.063411
H104	H	-0.472380	-1.050681	0.944662
H105	H	-0.472480	-0.443956	0.229094
H106	H	-0.289286	-0.841510	0.374698
O107	O	-0.536293	-0.556816	0.178342
H108	H	-0.527811	-0.492488	0.185092
O109	O	-0.275722	-1.247533	0.668428
H110	H	-0.284184	-1.239026	0.719423
O111	O	-0.275803	-1.247548	0.532417
H112	H	-0.240641	-1.282712	0.566170
H113	H	-0.522939	-0.717507	0.188949
H114	H	-0.472318	-1.050676	1.063373
