data_functionalizedCrystal
_audit_creation_method	'MofGen! by Chris Wilmer'
_symmetry_space_group_name_H-M	'P1'
_symmetry_Int_Tables_number	1
_symmetry_cell_setting	triclinic
loop_
_symmetry_equiv_pos_as_xyz
  x,y,z
_cell_length_a	17.699083
_cell_length_b	12.837942
_cell_length_c	16.176319
_cell_angle_alpha	89.994101
_cell_angle_beta	89.998611
_cell_angle_gamma	89.055978
loop_
_atom_site_label
_atom_site_type_symbol
_atom_site_fract_x
_atom_site_fract_y
_atom_site_fract_z
O1	O	1.013708	0.131067	-0.068629
O2	O	0.794582	0.148119	-0.068656
O3	O	0.899286	-0.011297	-0.068638
O4	O	0.909004	0.290484	-0.068647
O5	O	0.899269	-0.011307	0.068855
O6	O	0.794565	0.148109	0.068837
O7	O	1.013691	0.131057	0.068864
Cu8	Cu	0.904126	0.139582	0.081405
Cu9	Cu	0.904146	0.139594	-0.081197
O10	O	0.908987	0.290474	0.068846
C11	C	0.766332	0.147503	0.000087
C12	C	0.682179	0.145670	0.000077
C13	C	0.640432	0.239245	0.000074
C14	C	0.561362	0.237516	0.000085
C15	C	0.524040	0.142212	0.000092
C16	C	0.565792	0.048631	0.000097
C17	C	0.644861	0.050360	0.000093
C18	C	0.246916	0.041653	0.000118
C19	C	0.167842	0.039931	0.000120
C20	C	0.163418	0.228809	0.000111
C21	C	0.242486	0.230539	0.000106
C22	C	0.284232	0.136958	0.000115
C23	C	0.369969	0.138833	0.000105
C24	C	0.438304	0.140336	0.000097
C25	C	0.895995	-0.049915	0.000108
C26	C	0.886204	-0.164967	0.000105
C27	C	1.003908	-0.406222	0.000102
C28	C	0.994712	-0.514324	0.000100
C29	C	0.858617	-0.489277	0.000092
C30	C	0.867813	-0.381174	0.000094
C31	C	0.940461	-0.339651	0.000101
C32	C	0.949656	-0.231546	0.000109
C33	C	0.813561	-0.206501	0.000095
C34	C	0.804365	-0.314604	0.000093
C35	C	1.041941	0.131673	0.000119
C36	C	1.126094	0.133506	0.000124
C37	C	0.912278	0.329091	0.000099
C38	C	0.922069	0.444144	0.000096
N39	N	0.904118	0.139573	0.195770
N40	N	0.904160	0.139595	-0.195562
C41	C	0.950499	0.069012	0.239042
C42	C	0.950502	0.069011	0.325589
C43	C	0.904129	0.139577	0.368863
C44	C	0.857743	0.210141	0.325584
C45	C	0.857736	0.210136	0.239039
C46	C	0.857771	0.210161	0.674613
C47	C	0.857783	0.210162	0.761164
C48	C	0.950537	0.069035	0.761163
C49	C	0.950530	0.069031	0.674617
C50	C	0.904141	0.139591	0.631347
C51	C	0.904137	0.139590	0.537503
C52	C	0.904137	0.139584	0.462705
H53	H	0.129419	0.305007	0.000107
H54	H	0.272870	0.308145	0.000096
C55	C	1.083813	-0.360537	0.000116
H56	H	1.080202	-0.286620	0.000124
H57	H	1.110275	-0.383390	-0.047825
H58	H	1.110255	-0.383405	0.048075
C59	C	0.515444	0.340448	0.000080
H60	H	0.548996	0.397454	0.000064
H61	H	0.484510	0.343702	0.048029
H62	H	0.484505	0.343699	-0.047871
C63	C	1.064504	-0.587549	0.000106
H64	H	1.109085	-0.547332	0.000116
H65	H	1.063751	-0.630236	-0.047840
H66	H	1.063741	-0.630244	0.048060
H67	H	0.745217	-0.348427	0.000084
H68	H	0.820018	0.267627	0.796396
C69	C	0.690782	-0.052571	0.000087
H70	H	0.657231	-0.109579	0.000083
H71	H	0.721722	-0.055829	0.048031
H72	H	0.721715	-0.055815	-0.047869
H73	H	0.535398	-0.028967	0.000115
C74	C	1.001558	-0.008592	0.808759
H75	H	1.029180	-0.050610	0.770590
H76	H	0.971231	-0.051693	0.842528
H77	H	1.035751	0.028644	0.842512
C78	C	0.806753	0.287782	0.627026
H79	H	0.779144	0.329815	0.665195
H80	H	0.772559	0.250556	0.593273
H81	H	0.837086	0.330882	0.593257
H82	H	0.137457	-0.037681	0.000128
C83	C	0.681480	0.344080	0.000066
H84	H	0.645290	0.399561	0.000073
H85	H	0.712232	0.348687	-0.047883
H86	H	0.712233	0.348677	0.048017
H87	H	0.819981	0.267594	0.360823
H88	H	0.819967	0.267593	0.203807
C89	C	1.001529	-0.008596	0.373185
H90	H	1.029154	-0.050611	0.335018
H91	H	0.971208	-0.051700	0.406957
H92	H	1.035719	0.028651	0.406935
H93	H	1.008809	-0.197740	0.000117
C94	C	1.001537	-0.008594	0.627021
H95	H	1.029156	-0.050626	0.665189
H96	H	1.035722	0.028630	0.593248
H97	H	0.971195	-0.051695	0.593272
C98	C	0.292826	-0.061281	0.000123
H99	H	0.259272	-0.118285	0.000119
H100	H	0.323763	-0.064539	0.048069
H101	H	0.323762	-0.064532	-0.047831
H102	H	0.799470	-0.523105	0.000077
H103	H	0.761898	-0.152287	0.000100
H104	H	0.988264	0.011554	0.203815
