data_functionalizedCrystal
_audit_creation_method	'MofGen! by Chris Wilmer'
_symmetry_space_group_name_H-M	'P1'
_symmetry_Int_Tables_number	1
_symmetry_cell_setting	triclinic
loop_
_symmetry_equiv_pos_as_xyz
  x,y,z
_cell_length_a	15.995350
_cell_length_b	27.732048
_cell_length_c	14.472310
_cell_angle_alpha	89.993924
_cell_angle_beta	89.990621
_cell_angle_gamma	83.067515
loop_
_atom_site_label
_atom_site_type_symbol
_atom_site_fract_x
_atom_site_fract_y
_atom_site_fract_z
O1	O	1.110190	0.062301	-0.076773
O2	O	1.610190	0.562301	0.423227
O3	O	0.866316	0.069995	-0.076793
O4	O	1.366316	0.569995	0.423207
O5	O	0.995827	-0.004216	-0.076765
O6	O	1.495827	0.495784	0.423235
O7	O	0.980679	0.136512	-0.076801
O8	O	1.480679	0.636512	0.423199
O9	O	0.995794	-0.004212	0.076917
O10	O	1.495794	0.495788	0.576917
O11	O	0.866282	0.069999	0.076889
O12	O	1.366282	0.569999	0.576889
O13	O	1.110157	0.062306	0.076909
O14	O	1.610157	0.562306	0.576909
Cu15	Cu	0.988217	0.066153	0.090931
Cu16	Cu	1.488217	0.566153	0.590931
Cu17	Cu	0.988256	0.066148	-0.090815
Cu18	Cu	1.488256	0.566148	0.409185
O19	O	0.980646	0.136517	0.076881
O20	O	1.480646	0.636517	0.576881
C21	C	0.835108	0.069679	0.000045
C22	C	1.335108	0.569679	0.500045
C23	C	0.742170	0.068726	0.000038
C24	C	1.242170	0.568726	0.500038
C25	C	0.995493	-0.022222	0.000079
C26	C	1.495493	0.477778	0.500079
C27	C	0.994535	-0.075881	0.000086
C28	C	1.494535	0.424119	0.500086
C29	C	0.404467	0.065301	0.000059
C30	C	0.904467	0.565301	0.500059
C31	C	0.452585	0.012449	0.000415
C32	C	0.952585	0.512449	0.500415
C33	C	0.549263	0.013403	0.000062
C34	C	1.049263	0.513403	0.500062
C35	C	0.572006	0.067000	0.000049
C36	C	1.072006	0.567000	0.500049
C37	C	0.530600	0.093065	-0.087714
C38	C	1.030600	0.593065	0.412286
C39	C	0.433982	0.091738	-0.087781
C40	C	0.933982	0.591738	0.412219
C41	C	0.433591	0.092835	0.086984
C42	C	0.933591	0.592835	0.586984
C43	C	0.530536	0.092822	0.088138
C44	C	1.030536	0.592822	0.588138
C45	C	0.666691	0.067962	0.000041
C46	C	1.166691	0.567962	0.500041
C47	C	0.309782	0.064340	0.000061
C48	C	0.809782	0.564340	0.500061
C49	C	1.065040	-0.414392	0.000045
C50	C	1.565040	0.085608	0.500045
C51	C	1.061487	-0.616067	0.000031
C52	C	1.561487	-0.116067	0.500031
O53	O	1.125959	-0.647045	-0.000004
O54	O	1.625959	-0.147045	0.499996
N55	N	0.984692	-0.635522	0.000026
N56	N	1.484692	-0.135522	0.500026
C57	C	0.908780	-0.604555	0.000018
C58	C	1.408780	-0.104555	0.500018
O59	O	0.843380	-0.625730	0.000003
O60	O	1.343380	-0.125730	0.500003
C61	C	0.912334	-0.402881	0.000024
C62	C	1.412334	0.097119	0.500024
C63	C	0.989134	-0.383429	0.000039
C64	C	1.489134	0.116571	0.500039
C65	C	1.141834	-0.394940	0.000058
C66	C	1.641834	0.105060	0.500058
C67	C	1.142721	-0.344524	0.000067
C68	C	1.642721	0.155476	0.500067
C69	C	1.066815	-0.313561	0.000061
C70	C	1.566815	0.186439	0.500061
C71	C	0.990021	-0.333013	0.000047
C72	C	1.490021	0.166987	0.500047
C73	C	0.836422	-0.371914	0.000009
C74	C	1.336422	0.128086	0.500009
C75	C	0.837317	-0.321493	0.000009
C76	C	1.337317	0.178507	0.500009
C77	C	0.914117	-0.302041	0.000023
C78	C	1.414117	0.197959	0.500023
C79	C	0.915002	-0.251634	0.000050
C80	C	1.415002	0.248366	0.500050
N81	N	0.991797	-0.232179	0.000056
N82	N	1.491797	0.267821	0.500056
C83	C	1.067703	-0.263142	0.000061
C84	C	1.567703	0.236858	0.500061
C85	C	0.906920	-0.710437	0.000016
C86	C	1.406920	-0.210437	0.500016
C87	C	0.906031	-0.760855	0.000016
C88	C	1.406031	-0.260855	0.500016
C89	C	1.058739	-0.772364	0.000028
C90	C	1.558739	-0.272364	0.500028
C91	C	1.059627	-0.721945	0.000035
C92	C	1.559627	-0.221945	0.500035
C93	C	0.983715	-0.690982	0.000021
C94	C	1.483715	-0.190982	0.500021
C95	C	1.069561	-0.157265	0.000080
C96	C	1.569561	0.342735	0.500080
C97	C	1.070442	-0.106844	0.000092
C98	C	1.570442	0.393156	0.500092
C99	C	0.917734	-0.095340	0.000075
C100	C	1.417734	0.404660	0.500075
C101	C	0.916853	-0.145756	0.000067
C102	C	1.416853	0.354244	0.500067
C103	C	0.992773	-0.176718	0.000067
C104	C	1.492773	0.323282	0.500067
O105	O	0.850565	-0.220628	0.000075
O106	O	1.350565	0.279372	0.500075
O107	O	1.133094	-0.241958	0.000055
O108	O	1.633094	0.258042	0.500055
C109	C	1.064153	-0.464808	0.000036
C110	C	1.564153	0.035192	0.500036
C111	C	0.987359	-0.484260	0.000022
C112	C	1.487359	0.015740	0.500022
C113	C	0.911452	-0.453297	0.000017
C114	C	1.411452	0.046703	0.500017
C115	C	0.986470	-0.534679	0.000022
C116	C	1.486470	-0.034679	0.500022
C117	C	1.062377	-0.565642	0.000028
C118	C	1.562377	-0.065642	0.500028
C119	C	1.139172	-0.546187	0.000033
C120	C	1.639172	-0.046187	0.500033
C121	C	1.140059	-0.495771	0.000042
C122	C	1.640059	0.004229	0.500042
C123	C	0.834657	-0.472752	0.000011
C124	C	1.334657	0.027248	0.500011
C125	C	0.833776	-0.523168	0.000004
C126	C	1.333776	-0.023168	0.500004
C127	C	0.909683	-0.554132	0.000010
C128	C	1.409683	-0.054132	0.500010
C129	C	1.141364	0.062621	0.000068
C130	C	1.641364	0.562621	0.500068
C131	C	1.234302	0.063575	0.000069
C132	C	1.734302	0.563575	0.500069
C133	C	0.980980	0.154523	0.000035
C134	C	1.480980	0.654523	0.500035
C135	C	0.981938	0.208182	0.000022
C136	C	1.481938	0.708182	0.500022
N137	N	0.988195	0.066156	0.218762
N138	N	1.488195	0.566156	0.718762
N139	N	0.988284	0.066141	-0.218646
N140	N	1.488284	0.566141	0.281354
C141	C	0.988255	0.066146	0.592853
C142	C	1.488255	0.566146	1.092853
C143	C	0.918727	0.105721	0.553672
C144	C	1.418727	0.605721	1.053672
C145	C	0.918884	0.105866	0.446584
C146	C	1.418884	0.605866	0.946584
C147	C	0.988225	0.066151	0.407262
C148	C	1.488225	0.566151	0.907262
C149	C	1.075447	0.077167	0.446103
C150	C	1.575447	0.577167	0.946103
C151	C	1.075055	0.077448	0.553225
C152	C	1.575055	0.577448	1.053225
C153	C	0.971342	0.015437	0.553394
C154	C	1.471342	0.515437	1.053394
C155	C	0.969334	0.015775	0.446267
C156	C	1.469334	0.515775	0.946267
C157	C	0.988213	0.066153	0.302374
C158	C	1.488213	0.566153	0.802374
C159	C	0.988272	0.066145	0.697742
C160	C	1.488272	0.566145	1.197742
H161	H	0.434323	-0.008675	0.063354
H162	H	0.934323	0.491325	0.563354
H163	H	0.854029	0.099303	0.420325
H164	H	1.354029	0.599303	0.920325
H165	H	1.122164	-0.706111	0.000046
H166	H	1.622164	-0.206111	0.500046
H167	H	0.853660	0.099266	0.579457
H168	H	1.353660	0.599266	1.079457
O169	O	0.427008	-0.015416	-0.082469
O170	O	0.927008	0.484584	0.417531
H171	H	0.380176	0.008214	-0.123919
H172	H	0.880176	0.508214	0.376081
H173	H	0.905176	0.007416	0.420881
H174	H	1.405176	0.507416	0.920881
O175	O	0.753585	-0.392885	-0.000014
O176	O	1.253585	0.107115	0.499986
H177	H	0.749495	-0.415580	0.062624
H178	H	1.249495	0.084420	0.562624
H179	H	0.929307	0.143140	0.580573
H180	H	1.429307	0.643140	1.080573
H181	H	0.577401	-0.007228	-0.062950
H182	H	1.077401	0.492772	0.437050
H183	H	0.401325	0.131802	0.087568
H184	H	0.901325	0.631802	0.587568
O185	O	0.933105	0.155708	0.412603
O186	O	1.433105	0.655708	0.912603
H187	H	0.939905	0.179802	0.472683
H188	H	1.439905	0.679802	0.972683
O189	O	0.548637	0.145223	-0.092050
O190	O	1.048637	0.645223	0.407950
H191	H	0.488360	0.169681	-0.091087
H192	H	0.988360	0.669681	0.408913
O193	O	0.568497	0.069079	-0.174227
O194	O	1.068497	0.569079	0.325773
H195	H	0.616810	0.038599	-0.154939
H196	H	1.116810	0.538599	0.345061
H197	H	1.090059	0.114429	0.578192
H198	H	1.590059	0.614429	1.078192
O199	O	0.567013	0.067613	0.174143
O200	O	1.067013	0.567613	0.674143
H201	H	0.537380	0.086076	0.236091
H202	H	1.037380	0.586076	0.736091
H203	H	1.202598	-0.479938	0.000054
H204	H	1.702598	0.020062	0.500054
H205	H	0.855933	-0.070121	0.000073
H206	H	1.355933	0.429879	0.500073
H207	H	1.120545	-0.797583	0.000033
H208	H	1.620545	-0.297583	0.500033
O209	O	1.221043	-0.579589	0.000047
O210	O	1.721043	-0.079589	0.500047
H211	H	1.257846	-0.572669	-0.062583
H212	H	1.757846	-0.072669	0.437417
H213	H	1.128374	0.049759	0.579142
H214	H	1.628374	0.549759	1.079142
H215	H	0.775499	-0.296285	-0.000004
H216	H	1.275499	0.203715	0.499996
H217	H	0.545395	0.131907	0.093429
H218	H	1.045395	0.631907	0.593429
H219	H	0.415933	0.072726	-0.153376
H220	H	0.915933	0.572726	0.346624
H221	H	1.128394	0.049108	0.420631
H222	H	1.628394	0.549108	0.920631
O223	O	1.095823	0.125597	0.410562
O224	O	1.595823	0.625597	0.910562
H225	H	1.043968	0.141895	0.365246
H226	H	1.543968	0.641895	0.865246
O227	O	0.834023	-0.166742	0.000054
O228	O	1.334023	0.333258	0.500054
H229	H	0.781390	-0.136738	0.000048
H230	H	1.281390	0.363262	0.500048
O231	O	0.390586	0.143132	-0.093079
O232	O	0.890586	0.643132	0.406921
H233	H	0.409788	0.160500	-0.157533
H234	H	0.909788	0.660500	0.342467
O235	O	0.888951	0.001412	0.589204
O236	O	1.388951	0.501412	1.089204
H237	H	0.859135	0.030432	0.635531
H238	H	1.359135	0.530432	1.135531
O239	O	1.032132	-0.025066	0.410843
O240	O	1.532132	0.474934	0.910843
H241	H	1.077995	-0.010030	0.364682
H242	H	1.577995	0.489970	0.864682
O243	O	1.223711	-0.428333	0.000078
O244	O	1.723711	0.071667	0.500078
H245	H	1.277251	-0.406327	0.000097
H246	H	1.777251	0.093673	0.500097
O247	O	0.406688	0.069947	0.175106
O248	O	0.906688	0.569947	0.675106
H249	H	0.372254	0.038688	0.157927
H250	H	0.872254	0.538688	0.657927
H251	H	1.132984	-0.091010	0.000106
H252	H	1.632984	0.408990	0.500106
O253	O	1.038503	-0.023579	0.586961
O254	O	1.538503	0.476421	1.086961
H255	H	1.083716	-0.006966	0.631532
H256	H	1.583716	0.493034	1.131532
O257	O	0.750937	-0.544147	-0.000005
O258	O	1.250937	-0.044147	0.499995
H259	H	0.714517	-0.531705	-0.062651
H260	H	1.214517	-0.031705	0.437349
O261	O	0.587263	-0.013731	0.083401
O262	O	1.087263	0.486269	0.583401
H263	H	0.536594	-0.027657	0.124316
H264	H	1.036594	0.472343	0.624316
H265	H	1.131383	-0.182469	0.000075
H266	H	1.631383	0.317531	0.500075
O267	O	1.225555	-0.323546	0.000056
O268	O	1.725555	0.176454	0.500056
H269	H	1.278181	-0.353553	0.000043
H270	H	1.778181	0.146447	0.500043
H271	H	0.843493	-0.776688	0.000020
H272	H	1.343493	-0.276688	0.500020
H273	H	0.845100	-0.685230	0.000005
H274	H	1.345100	-0.185230	0.500005
H275	H	0.772844	-0.447546	0.000005
H276	H	1.272844	0.052454	0.500005
