data_functionalizedCrystal
_audit_creation_method	'MofGen! by Chris Wilmer'
_symmetry_space_group_name_H-M	'P1'
_symmetry_Int_Tables_number	1
_symmetry_cell_setting	triclinic
loop_
_symmetry_equiv_pos_as_xyz
  x,y,z
_cell_length_a	23.532407
_cell_length_b	23.532407
_cell_length_c	22.610064
_cell_angle_alpha	89.994072
_cell_angle_beta	89.999018
_cell_angle_gamma	82.848712
loop_
_atom_site_label
_atom_site_type_symbol
_atom_site_fract_x
_atom_site_fract_y
_atom_site_fract_z
O1	O	0.755259	0.069123	0.049153
O2	O	1.005259	0.319123	0.299153
O3	O	1.255259	0.569123	0.549153
O4	O	1.505259	0.819123	0.799153
O5	O	0.589395	0.079126	0.049163
O6	O	0.839395	0.329126	0.299163
O7	O	1.089395	0.579126	0.549163
O8	O	1.339395	0.829126	0.799163
O9	O	0.677329	-0.008807	0.049147
O10	O	0.927329	0.241193	0.299147
O11	O	1.177329	0.491193	0.549147
O12	O	1.427329	0.741193	0.799147
O13	O	0.667325	0.157056	0.049169
O14	O	0.917325	0.407056	0.299169
O15	O	1.167325	0.657056	0.549169
O16	O	1.417325	0.907056	0.799169
O17	O	0.677323	-0.008785	-0.049222
O18	O	0.927323	0.241215	0.200778
O19	O	1.177323	0.491215	0.450778
O20	O	1.427323	0.741215	0.700778
O21	O	0.589389	0.079148	-0.049206
O22	O	0.839389	0.329148	0.200794
O23	O	1.089389	0.579148	0.450794
O24	O	1.339389	0.829148	0.700794
O25	O	0.755253	0.069145	-0.049216
O26	O	1.005253	0.319145	0.200784
O27	O	1.255253	0.569145	0.450784
O28	O	1.505253	0.819145	0.700784
Zn29	Zn	0.672320	0.074150	-0.064829
Zn30	Zn	0.922320	0.324150	0.185171
Zn31	Zn	1.172320	0.574150	0.435171
Zn32	Zn	1.422320	0.824150	0.685171
Zn33	Zn	0.672328	0.074121	0.064777
Zn34	Zn	0.922328	0.324121	0.314777
Zn35	Zn	1.172328	0.574121	0.564777
Zn36	Zn	1.422328	0.824121	0.814777
O37	O	0.667319	0.157078	-0.049200
O38	O	0.917319	0.407078	0.200800
O39	O	1.167319	0.657078	0.450800
O40	O	1.417319	0.907078	0.700800
C41	C	0.568176	0.078882	-0.000020
C42	C	0.818176	0.328882	0.249980
C43	C	1.068176	0.578882	0.499980
C44	C	1.318176	0.828882	0.749980
C45	C	0.504959	0.078116	-0.000017
C46	C	0.754959	0.328116	0.249983
C47	C	1.004959	0.578116	0.499983
C48	C	1.254959	0.828116	0.749983
C49	C	0.238792	0.022921	-0.000040
C50	C	0.488792	0.272921	0.249960
C51	C	0.738792	0.522921	0.499960
C52	C	0.988792	0.772921	0.749960
C53	C	0.298192	0.023632	-0.000040
C54	C	0.548192	0.273632	0.249960
C55	C	0.798192	0.523632	0.499960
C56	C	1.048192	0.773632	0.749960
O57	O	0.334937	-0.020153	-0.000066
O58	O	0.584937	0.229847	0.249934
O59	O	0.834937	0.479847	0.499934
O60	O	1.084937	0.729847	0.749934
N61	N	0.320818	0.075909	-0.000029
N62	N	0.570818	0.325909	0.249971
N63	N	0.820818	0.575909	0.499971
N64	N	1.070818	0.825909	0.749971
C65	C	0.284041	0.127477	-0.000024
C66	C	0.534041	0.377477	0.249976
C67	C	0.784041	0.627477	0.499976
C68	C	1.034041	0.877477	0.749976
O69	O	0.308740	0.172007	-0.000015
O70	O	0.558740	0.422007	0.249985
O71	O	0.808740	0.672007	0.499985
O72	O	1.058740	0.922007	0.749985
C73	C	0.224642	0.126765	-0.000029
C74	C	0.474642	0.376765	0.249971
C75	C	0.724642	0.626765	0.499971
C76	C	0.974642	0.876765	0.749971
C77	C	0.202019	0.074485	-0.000034
C78	C	0.452019	0.324485	0.249966
C79	C	0.702019	0.574485	0.499966
C80	C	0.952019	0.824485	0.749966
C81	C	0.216169	-0.029354	-0.000046
C82	C	0.466169	0.220646	0.249954
C83	C	0.716169	0.470646	0.499954
C84	C	0.966169	0.720646	0.749954
C85	C	0.156772	-0.030066	-0.000045
C86	C	0.406772	0.219934	0.249955
C87	C	0.656772	0.469934	0.499955
C88	C	0.906772	0.719934	0.749955
C89	C	0.119999	0.021499	-0.000038
C90	C	0.369999	0.271499	0.249962
C91	C	0.619999	0.521499	0.499962
C92	C	0.869999	0.771499	0.749962
C93	C	0.142623	0.073774	-0.000033
C94	C	0.392623	0.323774	0.249967
C95	C	0.642623	0.573774	0.499967
C96	C	0.892623	0.823774	0.749967
C97	C	0.187865	0.178333	-0.000028
C98	C	0.437865	0.428333	0.249972
C99	C	0.687865	0.678333	0.499972
C100	C	0.937865	0.928333	0.749972
C101	C	0.128463	0.177616	-0.000033
C102	C	0.378463	0.427616	0.249967
C103	C	0.628463	0.677616	0.499967
C104	C	0.878463	0.927616	0.749967
C105	C	0.105840	0.125336	-0.000038
C106	C	0.355840	0.375336	0.249962
C107	C	0.605840	0.625336	0.499962
C108	C	0.855840	0.875336	0.749962
C109	C	0.046454	0.124627	-0.000025
C110	C	0.296454	0.374627	0.249975
C111	C	0.546454	0.624627	0.499975
C112	C	0.796454	0.874627	0.749975
N113	N	0.023828	0.072351	-0.000036
N114	N	0.273828	0.322351	0.249964
N115	N	0.523828	0.572351	0.499964
N116	N	0.773828	0.822351	0.749964
C117	C	0.060600	0.020787	-0.000043
C118	C	0.310600	0.270787	0.249957
C119	C	0.560600	0.520787	0.499957
C120	C	0.810600	0.770787	0.749957
C121	C	0.408783	0.128968	-0.000016
C122	C	0.658783	0.378968	0.249984
C123	C	0.908783	0.628968	0.499984
C124	C	1.158783	0.878968	0.749984
C125	C	0.468181	0.129681	-0.000007
C126	C	0.718181	0.379681	0.249993
C127	C	0.968181	0.629681	0.499993
C128	C	1.218181	0.879681	0.749993
C129	C	0.482328	0.025836	-0.000024
C130	C	0.732328	0.275836	0.249976
C131	C	0.982328	0.525836	0.499976
C132	C	1.232328	0.775836	0.749976
C133	C	0.422929	0.025124	-0.000028
C134	C	0.672929	0.275124	0.249972
C135	C	0.922929	0.525124	0.499972
C136	C	1.172929	0.775124	0.749972
C137	C	0.386157	0.076692	-0.000027
C138	C	0.636157	0.326692	0.249973
C139	C	0.886157	0.576692	0.499973
C140	C	1.136157	0.826692	0.749973
C141	C	-0.064136	0.019297	-0.000041
C142	C	0.185864	0.269297	0.249959
C143	C	0.435864	0.519297	0.499959
C144	C	0.685864	0.769297	0.749959
C145	C	-0.123538	0.018590	-0.000037
C146	C	0.126462	0.268590	0.249963
C147	C	0.376462	0.518590	0.499963
C148	C	0.626462	0.768590	0.749963
C149	C	-0.137680	0.122435	-0.000024
C150	C	0.112320	0.372435	0.249976
C151	C	0.362320	0.622435	0.499976
C152	C	0.612320	0.872435	0.749976
C153	C	-0.078284	0.123142	-0.000024
C154	C	0.171716	0.373142	0.249976
C155	C	0.421716	0.623142	0.499976
C156	C	0.671716	0.873142	0.749976
C157	C	-0.041512	0.071568	-0.000034
C158	C	0.208488	0.321568	0.249966
C159	C	0.458488	0.571568	0.499966
C160	C	0.708488	0.821568	0.749966
O161	O	0.009675	0.168390	-0.000001
O162	O	0.259675	0.418390	0.249999
O163	O	0.509675	0.668390	0.499999
O164	O	0.759675	0.918390	0.749999
O165	O	0.035892	-0.023736	-0.000060
O166	O	0.285892	0.226264	0.249940
O167	O	0.535892	0.476264	0.499940
O168	O	0.785892	0.726264	0.749940
C169	C	0.677071	-0.030012	-0.000039
C170	C	0.927071	0.219988	0.249961
C171	C	1.177071	0.469988	0.499961
C172	C	1.427071	0.719988	0.749961
C173	C	0.676305	-0.093229	-0.000043
C174	C	0.926305	0.156771	0.249957
C175	C	1.176305	0.406771	0.499957
C176	C	1.426305	0.656771	0.749957
C177	C	0.723538	-0.492332	-0.000014
C178	C	0.973538	-0.242332	0.249986
C179	C	1.223538	0.007668	0.499986
C180	C	1.473538	0.257668	0.749986
C181	C	0.722827	-0.551733	-0.000009
C182	C	0.972827	-0.301733	0.249991
C183	C	1.222827	-0.051733	0.499991
C184	C	1.472827	0.198267	0.749991
O185	O	0.766613	-0.588477	0.000010
O186	O	1.016613	-0.338477	0.250010
O187	O	1.266613	-0.088477	0.500010
O188	O	1.516613	0.161523	0.750010
N189	N	0.670551	-0.574359	-0.000007
N190	N	0.920551	-0.324359	0.249993
N191	N	1.170551	-0.074359	0.499993
N192	N	1.420551	0.175641	0.749993
C193	C	0.618982	-0.537581	-0.000002
C194	C	0.868982	-0.287581	0.249998
C195	C	1.118982	-0.037581	0.499998
C196	C	1.368982	0.212419	0.749998
O197	O	0.574452	-0.562281	0.000001
O198	O	0.824452	-0.312281	0.250001
O199	O	1.074452	-0.062281	0.500001
O200	O	1.324452	0.187719	0.750001
C201	C	0.619695	-0.478182	-0.000003
C202	C	0.869695	-0.228182	0.249997
C203	C	1.119695	0.021818	0.499997
C204	C	1.369695	0.271818	0.749997
C205	C	0.671974	-0.455559	-0.000011
C206	C	0.921974	-0.205559	0.249989
C207	C	1.171974	0.044441	0.499989
C208	C	1.421974	0.294441	0.749989
C209	C	0.775814	-0.469709	-0.000022
C210	C	1.025814	-0.219709	0.249978
C211	C	1.275814	0.030291	0.499978
C212	C	1.525814	0.280291	0.749978
C213	C	0.776525	-0.410313	-0.000028
C214	C	1.026525	-0.160313	0.249972
C215	C	1.276525	0.089687	0.499972
C216	C	1.526525	0.339687	0.749972
C217	C	0.724961	-0.373540	-0.000025
C218	C	0.974961	-0.123540	0.249975
C219	C	1.224961	0.126460	0.499975
C220	C	1.474961	0.376460	0.749975
C221	C	0.672685	-0.396163	-0.000017
C222	C	0.922685	-0.146163	0.249983
C223	C	1.172685	0.103837	0.499983
C224	C	1.422685	0.353837	0.749983
C225	C	0.568127	-0.441406	0.000006
C226	C	0.818127	-0.191406	0.250006
C227	C	1.068127	0.058594	0.500006
C228	C	1.318127	0.308594	0.750006
C229	C	0.568843	-0.382003	0.000006
C230	C	0.818843	-0.132003	0.250006
C231	C	1.068843	0.117997	0.500006
C232	C	1.318843	0.367997	0.750006
C233	C	0.621123	-0.359381	-0.000003
C234	C	0.871123	-0.109381	0.249997
C235	C	1.121123	0.140619	0.499997
C236	C	1.371123	0.390619	0.749997
C237	C	0.621832	-0.299994	-0.000020
C238	C	0.871832	-0.049994	0.249980
C239	C	1.121832	0.200006	0.499980
C240	C	1.371832	0.450006	0.749980
N241	N	0.674109	-0.277368	-0.000023
N242	N	0.924109	-0.027368	0.249977
N243	N	1.174109	0.222632	0.499977
N244	N	1.424109	0.472632	0.749977
C245	C	0.725673	-0.314141	-0.000025
C246	C	0.975673	-0.064141	0.249975
C247	C	1.225673	0.185859	0.499975
C248	C	1.475673	0.435859	0.749975
C249	C	0.617491	-0.662324	-0.000001
C250	C	0.867491	-0.412324	0.249999
C251	C	1.117491	-0.162324	0.499999
C252	C	1.367491	0.087676	0.749999
C253	C	0.616778	-0.721722	-0.000005
C254	C	0.866778	-0.471722	0.249995
C255	C	1.116778	-0.221722	0.499995
C256	C	1.366778	0.028278	0.749995
C257	C	0.720623	-0.735869	-0.000011
C258	C	0.970623	-0.485869	0.249989
C259	C	1.220623	-0.235869	0.499989
C260	C	1.470623	0.014131	0.749989
C261	C	0.721335	-0.676470	-0.000011
C262	C	0.971335	-0.426470	0.249989
C263	C	1.221335	-0.176470	0.499989
C264	C	1.471335	0.073530	0.749989
C265	C	0.669767	-0.639698	-0.000003
C266	C	0.919767	-0.389698	0.249997
C267	C	1.169767	-0.139698	0.499997
C268	C	1.419767	0.110302	0.749997
C269	C	0.727163	-0.189404	-0.000038
C270	C	0.977163	0.060596	0.249962
C271	C	1.227163	0.310596	0.499962
C272	C	1.477163	0.560596	0.749962
C273	C	0.727869	-0.130002	-0.000046
C274	C	0.977869	0.119998	0.249954
C275	C	1.227869	0.369998	0.499954
C276	C	1.477869	0.619998	0.749954
C277	C	0.624025	-0.115860	-0.000037
C278	C	0.874025	0.134140	0.249963
C279	C	1.124025	0.384140	0.499963
C280	C	1.374025	0.634140	0.749963
C281	C	0.623318	-0.175257	-0.000032
C282	C	0.873318	0.074743	0.249968
C283	C	1.123318	0.324743	0.499968
C284	C	1.373318	0.574743	0.749968
C285	C	0.674891	-0.212028	-0.000030
C286	C	0.924891	0.037972	0.249970
C287	C	1.174891	0.287972	0.499970
C288	C	1.424891	0.537972	0.749970
O289	O	0.578069	-0.263215	-0.000037
O290	O	0.828069	-0.013215	0.249963
O291	O	1.078069	0.236785	0.499963
O292	O	1.328069	0.486785	0.749963
O293	O	0.770196	-0.289433	-0.000021
O294	O	1.020196	-0.039433	0.249979
O295	O	1.270196	0.210567	0.499979
O296	O	1.520196	0.460567	0.749979
C297	C	0.776472	0.069389	-0.000031
C298	C	1.026472	0.319389	0.249969
C299	C	1.276472	0.569389	0.499969
C300	C	1.526472	0.819389	0.749969
C301	C	0.839689	0.070155	-0.000031
C302	C	1.089689	0.320155	0.249969
C303	C	1.339689	0.570155	0.499969
C304	C	1.589689	0.820155	0.749969
C305	C	0.667577	0.178283	-0.000012
C306	C	0.917577	0.428283	0.249988
C307	C	1.167577	0.678283	0.499988
C308	C	1.417577	0.928283	0.749988
C309	C	0.668343	0.241500	-0.000004
C310	C	0.918343	0.491500	0.249996
C311	C	1.168343	0.741500	0.499996
C312	C	1.418343	0.991500	0.749996
N313	N	0.672319	0.074170	-0.153282
N314	N	0.922319	0.324170	0.096718
N315	N	1.172319	0.574170	0.346718
N316	N	1.422319	0.824170	0.596718
C317	C	0.633369	0.113060	-0.438122
C318	C	0.883369	0.363060	-0.188122
C319	C	1.133369	0.613060	0.061878
C320	C	1.383369	0.863060	0.311878
C321	C	0.633368	0.113065	-0.376203
C322	C	0.883368	0.363065	-0.126203
C323	C	1.133368	0.613065	0.123797
C324	C	1.383368	0.863065	0.373797
O325	O	0.600234	0.146156	-0.344178
O326	O	0.850234	0.396156	-0.094178
O327	O	1.100234	0.646156	0.155822
O328	O	1.350234	0.896156	0.405822
N329	N	0.672315	0.074147	-0.345234
N330	N	0.922315	0.324147	-0.095234
N331	N	1.172315	0.574147	0.154766
N332	N	1.422315	0.824147	0.404766
C333	C	0.711262	0.035217	-0.376188
C334	C	0.961262	0.285217	-0.126188
C335	C	1.211262	0.535217	0.123812
C336	C	1.461262	0.785217	0.373812
O337	O	0.744389	0.002114	-0.344161
O338	O	0.994389	0.252114	-0.094161
O339	O	1.244389	0.502114	0.155839
O340	O	1.494389	0.752114	0.405839
C341	C	0.711260	0.035209	-0.438107
C342	C	0.961260	0.285209	-0.188107
C343	C	1.211260	0.535209	0.061893
C344	C	1.461260	0.785209	0.311893
C345	C	0.672315	0.074134	-0.469073
C346	C	0.922315	0.324134	-0.219073
C347	C	1.172315	0.574134	0.030927
C348	C	1.422315	0.824134	0.280927
C349	C	0.594426	0.151981	-0.469088
C350	C	0.844426	0.401981	-0.219088
C351	C	1.094426	0.651981	0.030912
C352	C	1.344426	0.901981	0.280912
C353	C	0.594429	0.151976	-0.531004
C354	C	0.844429	0.401976	-0.281004
C355	C	1.094429	0.651976	-0.031004
C356	C	1.344429	0.901976	0.218996
C357	C	0.633374	0.113050	-0.561954
C358	C	0.883374	0.363050	-0.311954
C359	C	1.133374	0.613050	-0.061954
C360	C	1.383374	0.863050	0.188046
C361	C	0.672317	0.074129	-0.530988
C362	C	0.922317	0.324129	-0.280988
C363	C	1.172317	0.574129	-0.030988
C364	C	1.422317	0.824129	0.219012
C365	C	0.750204	-0.003723	-0.469060
C366	C	1.000204	0.246277	-0.219060
C367	C	1.250204	0.496277	0.030940
C368	C	1.500204	0.746277	0.280940
C369	C	0.750199	-0.003728	-0.530983
C370	C	1.000199	0.246272	-0.280983
C371	C	1.250199	0.496272	-0.030983
C372	C	1.500199	0.746272	0.219017
C373	C	0.711254	0.035197	-0.561949
C374	C	0.961254	0.285197	-0.311949
C375	C	1.211254	0.535197	-0.061949
C376	C	1.461254	0.785197	0.188051
C377	C	0.711265	0.035198	-0.623854
C378	C	0.961265	0.285198	-0.373854
C379	C	1.211265	0.535198	-0.123854
C380	C	1.461265	0.785198	0.126146
N381	N	0.672318	0.074116	-0.654823
N382	N	0.922318	0.324116	-0.404823
N383	N	1.172318	0.574116	-0.154823
N384	N	1.422318	0.824116	0.095177
C385	C	0.633373	0.113042	-0.623873
C386	C	0.883373	0.363042	-0.373873
C387	C	1.133373	0.613042	-0.123873
C388	C	1.383373	0.863042	0.126127
C389	C	0.711262	0.035236	-0.246155
C390	C	0.961262	0.285236	0.003845
C391	C	1.211262	0.535236	0.253845
C392	C	1.461262	0.785236	0.503845
C393	C	0.711266	0.035246	-0.184237
C394	C	0.961266	0.285246	0.065763
C395	C	1.211266	0.535246	0.315763
C396	C	1.461266	0.785246	0.565763
C397	C	0.633371	0.113093	-0.184256
C398	C	0.883371	0.363093	0.065744
C399	C	1.133371	0.613093	0.315744
C400	C	1.383371	0.863093	0.565744
C401	C	0.633370	0.113086	-0.246174
C402	C	0.883370	0.363086	0.003826
C403	C	1.133370	0.613086	0.253826
C404	C	1.383370	0.863086	0.503826
C405	C	0.672315	0.074154	-0.277123
C406	C	0.922315	0.324154	-0.027123
C407	C	1.172315	0.574154	0.222877
C408	C	1.422315	0.824154	0.472877
C409	C	0.633381	0.113029	-0.753900
C410	C	0.883381	0.363029	-0.503900
C411	C	1.133381	0.613029	-0.253900
C412	C	1.383381	0.863029	-0.003900
C413	C	0.633388	0.113022	-0.815821
C414	C	0.883388	0.363022	-0.565821
C415	C	1.133388	0.613022	-0.315821
C416	C	1.383388	0.863022	-0.065821
C417	C	0.711281	0.035173	-0.815797
C418	C	0.961281	0.285173	-0.565797
C419	C	1.211281	0.535173	-0.315797
C420	C	1.461281	0.785173	-0.065797
C421	C	0.711276	0.035182	-0.753881
C422	C	0.961276	0.285182	-0.503881
C423	C	1.211276	0.535182	-0.253881
C424	C	1.461276	0.785182	-0.003881
C425	C	0.672321	0.074112	-0.722934
C426	C	0.922321	0.324112	-0.472934
C427	C	1.172321	0.574112	-0.222934
C428	C	1.422321	0.824112	0.027066
O429	O	0.744380	0.002123	-0.655918
O430	O	0.994380	0.252123	-0.405918
O431	O	1.244380	0.502123	-0.155918
O432	O	1.494380	0.752123	0.094082
O433	O	0.600246	0.146134	-0.655907
O434	O	0.850246	0.396134	-0.405907
O435	O	1.100246	0.646134	-0.155907
O436	O	1.350246	0.896134	0.094093
N437	N	0.672334	0.074096	0.153229
N438	N	0.922334	0.324096	0.403229
N439	N	1.172334	0.574096	0.653229
N440	N	1.422334	0.824096	0.903229
H441	H	0.378846	0.170964	-0.000010
H442	H	0.628846	0.420964	0.249990
H443	H	0.878846	0.670964	0.499990
H444	H	1.128846	0.920964	0.749990
F445	F	0.513956	-0.342870	0.000015
F446	F	0.763956	-0.092870	0.250015
F447	F	1.013956	0.157130	0.500015
F448	F	1.263956	0.407130	0.750015
F449	F	0.591921	0.154521	-0.151304
F450	F	0.841921	0.404521	0.098696
F451	F	1.091921	0.654521	0.348696
F452	F	1.341921	0.904521	0.598696
F453	F	0.567676	-0.199334	-0.000033
F454	F	0.817676	0.050666	0.249967
F455	F	1.067676	0.300666	0.499967
F456	F	1.317676	0.550666	0.749967
F457	F	0.552971	0.193414	-0.436157
F458	F	0.802971	0.443414	-0.186157
F459	F	1.052971	0.693414	0.063843
F460	F	1.302971	0.943414	0.313843
F461	F	0.775503	-0.775016	-0.000010
F462	F	1.025503	-0.525016	0.249990
F463	F	1.275503	-0.275016	0.499990
F464	F	1.525503	-0.025016	0.749990
F465	F	0.561135	-0.745792	-0.000006
F466	F	0.811135	-0.495792	0.249994
F467	F	1.061135	-0.245792	0.499994
F468	F	1.311135	0.004208	0.749994
F469	F	0.752725	-0.006176	-0.151287
F470	F	1.002725	0.243824	0.098713
F471	F	1.252725	0.493824	0.348713
F472	F	1.502725	0.743824	0.598713
F473	F	0.569149	-0.076714	-0.000034
F474	F	0.819149	0.173286	0.249966
F475	F	1.069149	0.423286	0.499966
F476	F	1.319149	0.673286	0.749966
H477	H	0.601674	0.144721	-0.841031
H478	H	0.851674	0.394721	-0.591031
H479	H	1.101674	0.644721	-0.341031
H480	H	1.351674	0.894721	-0.091031
H481	H	0.486595	0.172252	0.000005
H482	H	0.736595	0.422252	0.250005
H483	H	0.986595	0.672252	0.500005
H484	H	1.236595	0.922252	0.750005
H485	H	0.769159	-0.219337	-0.000034
H486	H	1.019159	0.030663	0.249966
H487	H	1.269159	0.280663	0.499966
H488	H	1.519159	0.530663	0.749966
F489	F	0.791655	-0.045152	-0.436116
F490	F	1.041655	0.204848	-0.186116
F491	F	1.291655	0.454848	0.063884
F492	F	1.541655	0.704848	0.313884
H493	H	0.246104	-0.071347	-0.000053
H494	H	0.496104	0.178653	0.249947
H495	H	0.746104	0.428653	0.499947
H496	H	0.996104	0.678653	0.749947
F497	F	0.591921	0.154463	-0.720973
F498	F	0.841921	0.404463	-0.470973
F499	F	1.091921	0.654463	-0.220973
F500	F	1.341921	0.904463	0.029027
H501	H	0.404515	-0.017447	-0.000033
H502	H	0.654515	0.232553	0.249967
H503	H	0.904515	0.482553	0.499967
H504	H	1.154515	0.732553	0.749967
F505	F	-0.176827	0.177310	-0.000013
F506	F	0.073173	0.427310	0.249987
F507	F	0.323173	0.677310	0.499987
F508	F	0.573173	0.927310	0.749987
F509	F	-0.054206	0.178783	-0.000010
F510	F	0.195794	0.428783	0.249990
F511	F	0.445794	0.678783	0.499990
F512	F	0.695794	0.928783	0.749990
F513	F	0.830701	-0.508838	-0.000024
F514	F	1.080701	-0.258838	0.249976
F515	F	1.330701	-0.008838	0.499976
F516	F	1.580701	0.241162	0.749976
F517	F	0.521475	-0.029043	-0.000031
F518	F	0.771475	0.220957	0.249969
F519	F	1.021475	0.470957	0.499969
F520	F	1.271475	0.720957	0.749969
H521	H	0.601657	0.144781	-0.271383
H522	H	0.851657	0.394781	-0.021383
H523	H	1.101657	0.644781	0.228617
H524	H	1.351657	0.894781	0.478617
F525	F	0.752719	-0.006200	-0.279088
F526	F	1.002719	0.243800	-0.029088
F527	F	1.252719	0.493800	0.220912
F528	F	1.502719	0.743800	0.470912
F529	F	0.211929	0.233977	-0.000022
F530	F	0.461929	0.483977	0.249978
F531	F	0.711929	0.733977	0.499978
F532	F	0.961929	0.983977	0.749978
F533	F	0.791650	-0.045167	-0.563917
F534	F	1.041650	0.204833	-0.313917
F535	F	1.291650	0.454833	-0.063917
F536	F	1.541650	0.704833	0.186083
H537	H	0.742995	0.003491	-0.728669
H538	H	0.992995	0.253491	-0.478669
H539	H	1.242995	0.503491	-0.228669
H540	H	1.492995	0.753491	0.021331
H541	H	0.575496	-0.632386	0.000000
H542	H	0.825496	-0.382386	0.250000
H543	H	1.075496	-0.132386	0.500000
H544	H	1.325496	0.117614	0.750000
F545	F	-0.147611	-0.037055	-0.000039
F546	F	0.102389	0.212945	0.249961
F547	F	0.352389	0.462945	0.499961
F548	F	0.602389	0.712945	0.749961
H549	H	0.525555	-0.459814	0.000017
H550	H	0.775555	-0.209814	0.250017
H551	H	1.025555	0.040186	0.500017
H552	H	1.275555	0.290186	0.750017
F553	F	0.552975	0.193402	-0.563954
F554	F	0.802975	0.443402	-0.313954
F555	F	1.052975	0.693402	-0.063954
F556	F	1.302975	0.943402	0.186046
H557	H	0.098525	0.219610	-0.000034
H558	H	0.348525	0.469610	0.249966
H559	H	0.598525	0.719610	0.499966
H560	H	0.848525	0.969610	0.749966
H561	H	0.770443	-0.111587	-0.000055
H562	H	1.020443	0.138413	0.249945
H563	H	1.270443	0.388413	0.499945
H564	H	1.520443	0.638413	0.749945
H565	H	0.742992	0.003481	-0.841006
H566	H	0.992992	0.253481	-0.591006
H567	H	1.242992	0.503481	-0.341006
H568	H	1.492992	0.753481	-0.091006
H569	H	0.819097	-0.391900	-0.000032
H570	H	1.069097	-0.141900	0.249968
H571	H	1.319097	0.108100	0.499968
H572	H	1.569097	0.358100	0.749968
F573	F	0.132703	-0.085709	-0.000046
F574	F	0.382703	0.164291	0.249954
F575	F	0.632703	0.414291	0.499954
F576	F	0.882703	0.664291	0.749954
H577	H	-0.034204	-0.022699	-0.000049
H578	H	0.215796	0.227301	0.249951
H579	H	0.465796	0.477301	0.499951
H580	H	0.715796	0.727301	0.749951
H581	H	0.763906	-0.658055	-0.000018
H582	H	1.013906	-0.408055	0.249982
H583	H	1.263906	-0.158055	0.499982
H584	H	1.513906	0.091945	0.749982
