data_functionalizedCrystal
_audit_creation_method	'MofGen! by Chris Wilmer'
_symmetry_space_group_name_H-M	'P1'
_symmetry_Int_Tables_number	1
_symmetry_cell_setting	triclinic
loop_
_symmetry_equiv_pos_as_xyz
  x,y,z
_cell_length_a	23.532407
_cell_length_b	15.995350
_cell_length_c	15.072220
_cell_angle_alpha	89.998899
_cell_angle_beta	89.985073
_cell_angle_gamma	96.829474
loop_
_atom_site_label
_atom_site_type_symbol
_atom_site_fract_x
_atom_site_fract_y
_atom_site_fract_z
O1	O	0.755658	-0.101636	-0.073828
O2	O	1.088991	0.231698	0.259505
O3	O	1.422324	0.565031	0.592838
O4	O	0.589851	-0.116342	-0.073818
O5	O	0.923184	0.216991	0.259515
O6	O	1.256518	0.550324	0.592848
O7	O	0.677287	0.012936	-0.073823
O8	O	1.010620	0.346270	0.259511
O9	O	1.343953	0.679603	0.592844
O10	O	0.668222	-0.230914	-0.073824
O11	O	1.001555	0.102419	0.259509
O12	O	1.334889	0.435752	0.592843
O13	O	0.677265	0.012929	0.073742
O14	O	1.010598	0.346262	0.407076
O15	O	1.343932	0.679596	0.740409
O16	O	0.589829	-0.116350	0.073747
O17	O	0.923163	0.216984	0.407080
O18	O	1.256496	0.550317	0.740413
O19	O	0.755636	-0.101643	0.073737
O20	O	1.088969	0.231690	0.407070
O21	O	1.422303	0.565024	0.740404
Zn22	Zn	0.672729	-0.108997	0.097171
Zn23	Zn	1.006063	0.224336	0.430504
Zn24	Zn	1.339396	0.557669	0.763838
Zn25	Zn	0.672758	-0.108988	-0.097253
Zn26	Zn	1.006091	0.224346	0.236081
Zn27	Zn	1.339424	0.557679	0.569414
O28	O	0.668200	-0.230922	0.073741
O29	O	1.001534	0.102412	0.407075
O30	O	1.334867	0.435745	0.740408
C31	C	0.676901	0.044124	-0.000042
C32	C	1.010234	0.377458	0.333291
C33	C	1.343568	0.710791	0.666625
C34	C	0.675778	0.137065	-0.000047
C35	C	1.009111	0.470399	0.333286
C36	C	1.342444	0.803732	0.666620
C37	C	0.568623	-0.115971	-0.000035
C38	C	0.901956	0.217362	0.333299
C39	C	1.235289	0.550695	0.666632
C40	C	0.505401	-0.114846	-0.000031
C41	C	0.838735	0.218488	0.333302
C42	C	1.172068	0.551821	0.666636
C43	C	0.776864	-0.102014	-0.000049
C44	C	1.110198	0.231320	0.333284
C45	C	1.443531	0.564653	0.666618
C46	C	0.840086	-0.103140	-0.000058
C47	C	1.173419	0.230194	0.333275
C48	C	1.506752	0.563527	0.666608
C49	C	1.238922	-0.033698	-0.000027
C50	C	1.572255	0.299636	0.333306
C51	C	1.905588	0.632969	0.666639
C52	C	1.298326	-0.034744	-0.000023
C53	C	1.631659	0.298590	0.333310
C54	C	1.964993	0.631923	0.666643
O55	O	1.334823	0.029630	0.000009
O56	O	1.668156	0.362963	0.333342
O57	O	2.001489	0.696297	0.666675
N58	N	1.321248	-0.111600	-0.000026
N59	N	1.654581	0.221734	0.333307
N60	N	1.987914	0.555067	0.666640
C61	C	1.284762	-0.187415	-0.000024
C62	C	1.618095	0.145919	0.333309
C63	C	1.951429	0.479252	0.666643
O64	O	1.309713	-0.252883	-0.000025
O65	O	1.643047	0.080450	0.333308
O66	O	1.976380	0.413784	0.666641
C67	C	1.225359	-0.186368	-0.000022
C68	C	1.558692	0.146965	0.333312
C69	C	1.892025	0.480299	0.666645
C70	C	1.202440	-0.109507	-0.000028
C71	C	1.535774	0.223826	0.333306
C72	C	1.869107	0.557160	0.666639
C73	C	1.216003	0.043157	-0.000032
C74	C	1.549336	0.376491	0.333301
C75	C	1.882669	0.709824	0.666634
C76	C	1.156602	0.044203	-0.000038
C77	C	1.489936	0.377536	0.333295
C78	C	1.823269	0.710870	0.666629
C79	C	1.120121	-0.031606	-0.000038
C80	C	1.453455	0.301727	0.333295
C81	C	1.786788	0.635060	0.666628
C82	C	1.143040	-0.108461	-0.000033
C83	C	1.476374	0.224872	0.333300
C84	C	1.809707	0.558205	0.666633
C85	C	1.188874	-0.262182	-0.000013
C86	C	1.522207	0.071151	0.333320
C87	C	1.855541	0.404485	0.666654
C88	C	1.129468	-0.261129	-0.000010
C89	C	1.462801	0.072205	0.333323
C90	C	1.796134	0.405538	0.666657
C91	C	1.106549	-0.184268	-0.000016
C92	C	1.439882	0.149066	0.333317
C93	C	1.773216	0.482399	0.666651
C94	C	1.047159	-0.183225	-0.000039
C95	C	1.380492	0.150108	0.333294
C96	C	1.713826	0.483442	0.666627
N97	N	1.024237	-0.106369	-0.000036
N98	N	1.357570	0.226965	0.333297
N99	N	1.690904	0.560298	0.666630
C100	C	1.060718	-0.030560	-0.000036
C101	C	1.394051	0.302774	0.333297
C102	C	1.727385	0.636107	0.666631
C103	C	1.409513	-0.189607	-0.000028
C104	C	1.742846	0.143726	0.333306
C105	C	2.076180	0.477059	0.666639
C106	C	1.468915	-0.190655	-0.000036
C107	C	1.802248	0.142678	0.333297
C108	C	2.135581	0.476011	0.666630
C109	C	1.482475	-0.037984	-0.000034
C110	C	1.815808	0.295350	0.333299
C111	C	2.149141	0.628683	0.666633
C112	C	1.423072	-0.036937	-0.000031
C113	C	1.756405	0.296397	0.333302
C114	C	2.089738	0.629730	0.666635
C115	C	1.386591	-0.112751	-0.000025
C116	C	1.719924	0.220582	0.333309
C117	C	2.053258	0.553915	0.666642
C118	C	0.935973	-0.028369	-0.000048
C119	C	1.269306	0.304964	0.333285
C120	C	1.602640	0.638297	0.666618
C121	C	0.876567	-0.027331	-0.000058
C122	C	1.209900	0.306003	0.333276
C123	C	1.543234	0.639336	0.666609
C124	C	0.863012	-0.180002	-0.000056
C125	C	1.196346	0.153332	0.333278
C126	C	1.529679	0.486665	0.666611
C127	C	0.922413	-0.181041	-0.000051
C128	C	1.255746	0.152292	0.333282
C129	C	1.589080	0.485626	0.666616
C130	C	0.958893	-0.105218	-0.000044
C131	C	1.292226	0.228115	0.333289
C132	C	1.625559	0.561449	0.666622
O133	O	1.010627	-0.247565	-0.000068
O134	O	1.343961	0.085769	0.333266
O135	O	1.677294	0.419102	0.666599
O136	O	1.035758	0.034898	-0.000023
O137	O	1.369092	0.368231	0.333310
O138	O	1.702425	0.701565	0.666644
C139	C	0.668586	-0.262110	-0.000042
C140	C	1.001919	0.071224	0.333292
C141	C	1.335252	0.404557	0.666625
C142	C	0.669709	-0.355051	-0.000043
C143	C	1.003043	-0.021717	0.333291
C144	C	1.336376	0.311616	0.666624
N145	N	0.672714	-0.109003	0.229860
N146	N	1.006047	0.224330	0.563193
N147	N	1.339381	0.557663	0.896526
C148	C	0.671743	0.474779	-0.000044
C149	C	1.005076	0.808113	0.333290
C150	C	1.338409	1.141446	0.666623
C151	C	0.609473	0.426827	-0.000371
C152	C	0.942806	0.760161	0.332962
C153	C	1.276139	1.093494	0.666296
C154	C	0.610596	0.330146	-0.000038
C155	C	0.943930	0.663480	0.333295
C156	C	1.277263	0.996813	0.666628
C157	C	0.673744	0.307235	-0.000046
C158	C	1.007077	0.640569	0.333288
C159	C	1.340411	0.973902	0.666621
C160	C	0.704446	0.348564	0.084218
C161	C	1.037779	0.681898	0.417551
C162	C	1.371112	1.015231	0.750884
C163	C	0.702881	0.445187	0.084288
C164	C	1.036215	0.778520	0.417622
C165	C	1.369548	1.111854	0.750955
C166	C	0.704192	0.445564	-0.083521
C167	C	1.037526	0.778897	0.249813
C168	C	1.370859	1.112231	0.583146
C169	C	0.704178	0.348619	-0.084634
C170	C	1.037511	0.681952	0.248699
C171	C	1.370844	1.015285	0.582032
C172	C	0.674879	0.212547	-0.000044
C173	C	1.008212	0.545881	0.333289
C174	C	1.341545	0.879214	0.666623
C175	C	0.670610	0.569468	-0.000039
C176	C	1.003944	0.902801	0.333294
C177	C	1.337277	1.236134	0.666627
N178	N	0.672777	-0.108975	-0.229941
N179	N	1.006111	0.224358	0.103392
N180	N	1.339444	0.557692	0.436725
C181	C	0.672757	-0.108985	0.589061
C182	C	1.006090	0.224349	0.922395
C183	C	1.339423	0.557682	1.255728
C184	C	0.625814	-0.177930	0.551457
C185	C	0.959148	0.155404	0.884790
C186	C	1.292481	0.488737	1.218123
C187	C	0.625922	-0.178179	0.448631
C188	C	0.959255	0.155154	0.781964
C189	C	1.292589	0.488488	1.115298
C190	C	0.672735	-0.108994	0.410857
C191	C	1.006068	0.224339	0.744190
C192	C	1.339402	0.557673	1.077524
C193	C	0.732157	-0.127581	0.448145
C194	C	1.065491	0.205752	0.781478
C195	C	1.398824	0.539085	1.114811
C196	C	0.731894	-0.128071	0.551003
C197	C	1.065227	0.205263	0.884336
C198	C	1.398561	0.538596	1.217669
C199	C	0.660806	-0.021244	0.551163
C200	C	0.994140	0.312089	0.884496
C201	C	1.327473	0.645422	1.217829
C202	C	0.659443	-0.021842	0.448299
C203	C	0.992776	0.311492	0.781633
C204	C	1.326110	0.644825	1.114966
C205	C	0.672726	-0.108998	0.310144
C206	C	1.006060	0.224336	0.643477
C207	C	1.339393	0.557669	0.976810
C208	C	0.672769	-0.108983	0.689775
C209	C	1.006102	0.224351	1.023108
C210	C	1.339436	0.557684	1.356441
H211	H	0.965668	0.033373	-0.000043
H212	H	1.299002	0.366706	0.333290
H213	H	1.632335	0.700040	0.666623
C214	C	0.822878	-0.263387	-0.000059
C215	C	1.156212	0.069946	0.333274
C216	C	1.489545	0.403279	0.666608
H217	H	0.845032	-0.309315	-0.000063
H218	H	1.178366	0.024018	0.333271
H219	H	1.511699	0.357351	0.666604
H220	H	0.799413	-0.266149	0.051398
H221	H	1.132746	0.067184	0.384732
H222	H	1.466080	0.400517	0.718065
H223	H	0.799435	-0.266146	-0.051527
H224	H	1.132768	0.067187	0.281807
H225	H	1.466101	0.400521	0.615140
H226	H	0.633340	-0.242684	0.577294
H227	H	0.966673	0.090649	0.910627
H228	H	1.300007	0.423982	1.243961
C229	C	1.522612	0.045406	-0.000025
C230	C	1.855945	0.378739	0.333309
C231	C	2.189278	0.712073	0.666642
H232	H	1.561271	0.033768	-0.000016
H233	H	1.894604	0.367102	0.333318
H234	H	2.227938	0.700435	0.666651
H235	H	1.515677	0.076951	-0.051481
H236	H	1.849010	0.410284	0.281852
H237	H	2.182343	0.743618	0.615185
H238	H	1.515655	0.076936	0.051443
H239	H	1.848988	0.410269	0.384777
H240	H	2.182322	0.743602	0.718110
H241	H	0.681731	0.321186	-0.146970
H242	H	1.015064	0.654520	0.186363
H243	H	1.348398	0.987853	0.519696
C244	C	0.764636	0.489273	0.089470
C245	C	1.097970	0.822606	0.422803
C246	C	1.431303	1.155940	0.756137
H247	H	0.764099	0.548568	0.089546
H248	H	1.097433	0.881902	0.422879
H249	H	1.430766	1.215235	0.756212
H250	H	0.782172	0.472817	0.142415
H251	H	1.115505	0.806150	0.475748
H252	H	1.448839	1.139484	0.809082
H253	H	0.785733	0.473638	0.039637
H254	H	1.119067	0.806971	0.372970
H255	H	1.452400	1.140305	0.706304
H256	H	0.742425	-0.192044	0.574983
H257	H	1.075758	0.141289	0.908316
H258	H	1.409091	0.474623	1.241650
C259	C	1.131397	0.128748	-0.000041
C260	C	1.464730	0.462082	0.333292
C261	C	1.798063	0.795415	0.666626
H262	H	1.090793	0.118526	-0.000049
H263	H	1.424126	0.451859	0.333284
H264	H	1.757460	0.785192	0.666617
H265	H	1.143913	0.159938	0.051417
H266	H	1.477246	0.493272	0.384751
H267	H	1.810579	0.826605	0.718084
H268	H	1.143931	0.159938	-0.051507
H269	H	1.477265	0.493271	0.281826
H270	H	1.810598	0.826605	0.615159
H271	H	0.581752	-0.167178	0.423423
H272	H	0.915086	0.166156	0.756756
H273	H	1.248419	0.499489	1.090089
C274	C	0.600395	-0.002759	0.415381
C275	C	0.933728	0.330574	0.748714
C276	C	1.267062	0.663907	1.082047
H277	H	0.592600	0.050038	0.438256
H278	H	0.925933	0.383372	0.771589
H279	H	1.259266	0.716705	1.104923
H280	H	0.600333	-0.000881	0.352387
H281	H	0.933666	0.332452	0.685721
H282	H	1.267000	0.665786	1.019054
H283	H	0.571820	-0.045663	0.435203
H284	H	0.905154	0.287671	0.768536
H285	H	1.238487	0.621004	1.101869
H286	H	0.750838	0.334824	0.087346
H287	H	1.084172	0.668158	0.420680
H288	H	1.417505	1.001491	0.754013
H289	H	0.767916	-0.079808	0.575876
H290	H	1.101250	0.253525	0.909209
H291	H	1.434583	0.586859	1.242542
C292	C	0.603532	0.003056	0.586241
C293	C	0.936865	0.336390	0.919574
C294	C	1.270198	0.669723	1.252908
H295	H	0.597140	0.056190	0.562576
H296	H	0.930473	0.389523	0.895910
H297	H	1.263806	0.722856	1.229243
H298	H	0.573314	-0.038327	0.568637
H299	H	0.906648	0.295006	0.901971
H300	H	1.239981	0.628340	1.235304
H301	H	0.604810	0.006307	0.649157
H302	H	0.938143	0.339640	0.982491
H303	H	1.271477	0.672973	1.315824
H304	H	1.404416	0.025650	-0.000036
H305	H	1.737749	0.358984	0.333298
H306	H	2.071083	0.692317	0.666631
H307	H	0.857910	0.035262	-0.000065
H308	H	1.191244	0.368595	0.333268
H309	H	1.524577	0.701928	0.666602
C310	C	0.780477	-0.061530	0.415084
C311	C	1.113810	0.271804	0.748417
C312	C	1.447143	0.605137	1.081751
H313	H	0.764802	-0.021938	0.378155
H314	H	1.098136	0.311396	0.711488
H315	H	1.431469	0.644729	1.044821
H316	H	0.798993	-0.033186	0.464456
H317	H	1.132327	0.300147	0.797790
H318	H	1.465660	0.633480	1.131123
H319	H	0.807440	-0.088719	0.382225
H320	H	1.140774	0.244615	0.715558
H321	H	1.474107	0.577948	1.048892
C322	C	1.256124	0.126555	-0.000040
C323	C	1.589457	0.459888	0.333294
C324	C	1.922790	0.793222	0.666627
H325	H	1.233957	0.172469	-0.000049
H326	H	1.567291	0.505803	0.333284
H327	H	1.900624	0.839136	0.666618
H328	H	1.279575	0.129333	0.051415
H329	H	1.612908	0.462666	0.384748
H330	H	1.946241	0.796000	0.718081
H331	H	1.279583	0.129323	-0.051510
H332	H	1.612916	0.462656	0.281823
H333	H	1.946249	0.795989	0.615157
H334	H	0.691412	0.031830	0.422590
H335	H	1.024746	0.365163	0.755923
H336	H	1.358079	0.698496	1.089256
H337	H	0.750228	0.333640	-0.089728
H338	H	1.083562	0.666973	0.243606
H339	H	1.416895	1.000307	0.576939
H340	H	0.683104	0.320002	0.146929
H341	H	1.016438	0.653336	0.480262
H342	H	1.349771	0.986669	0.813595
C343	C	0.676705	0.473082	-0.169803
C344	C	1.010039	0.806415	0.163531
C345	C	1.343372	1.139748	0.496864
H346	H	0.696927	0.454832	-0.219366
H347	H	1.030260	0.788165	0.113968
H348	H	1.363594	1.121498	0.447301
H349	H	0.637912	0.448697	-0.172389
H350	H	0.971246	0.782030	0.160945
H351	H	1.304579	1.115363	0.494278
H352	H	0.678325	0.532702	-0.170886
H353	H	1.011659	0.866035	0.162447
H354	H	1.344992	1.199368	0.495781
H355	H	1.487569	-0.253243	-0.000044
H356	H	1.820903	0.080090	0.333290
H357	H	2.154236	0.413424	0.666623
H358	H	1.379813	-0.251349	-0.000028
H359	H	1.713146	0.081985	0.333305
H360	H	2.046479	0.415318	0.666638
H361	H	1.207523	-0.324771	-0.000012
H362	H	1.540857	0.008563	0.333321
H363	H	1.874190	0.341896	0.666654
H364	H	0.742939	-0.190822	0.422375
H365	H	1.076273	0.142511	0.755708
H366	H	1.409606	0.475844	1.089041
H367	H	0.750104	0.477707	-0.084092
H368	H	1.083437	0.811040	0.249241
H369	H	1.416771	1.144373	0.582574
C370	C	0.707046	0.048061	0.584018
C371	C	1.040379	0.381394	0.917351
C372	C	1.373712	0.714728	1.250685
H373	H	0.733509	0.023691	0.620654
H374	H	1.066842	0.357024	0.953988
H375	H	1.400175	0.690357	1.287321
H376	H	0.726623	0.074663	0.534551
H377	H	1.059956	0.407997	0.867884
H378	H	1.393290	0.741330	1.201218
H379	H	0.689531	0.088576	0.617139
H380	H	1.022864	0.421910	0.950472
H381	H	1.356197	0.755243	1.283806
H382	H	0.581502	-0.167116	0.576221
H383	H	0.914835	0.166217	0.909554
H384	H	1.248168	0.499550	1.242887
H385	H	1.099767	-0.322868	-0.000000
H386	H	1.433100	0.010466	0.333333
H387	H	1.766434	0.343799	0.666666
H388	H	0.941074	-0.243628	-0.000047
H389	H	1.274407	0.089706	0.333286
H390	H	1.607741	0.423039	0.666620
H391	H	0.633553	-0.243300	0.424016
H392	H	0.966886	0.090034	0.757349
H393	H	1.300219	0.423367	1.090683
H394	H	0.584593	0.445155	-0.060798
H395	H	0.917926	0.778488	0.272536
H396	H	1.251259	1.111822	0.605869
C397	C	0.577996	0.291475	-0.081635
C398	C	0.911329	0.624808	0.251698
C399	C	1.244662	0.958142	0.585032
H400	H	0.578643	0.232201	-0.081543
H401	H	0.911976	0.565535	0.251790
H402	H	1.245310	0.898868	0.585123
H403	H	0.539479	0.303646	-0.079551
H404	H	0.872813	0.636979	0.253782
H405	H	1.206146	0.970312	0.587116
H406	H	0.595761	0.314716	-0.134158
H407	H	0.929094	0.648049	0.199176
H408	H	1.262427	0.981383	0.532509
C409	C	0.575987	0.453002	0.080813
C410	C	0.909320	0.786336	0.414146
C411	C	1.242654	1.119669	0.747479
H412	H	0.599791	0.493024	0.114907
H413	H	0.933125	0.826358	0.448241
H414	H	1.266458	1.159691	0.781574
H415	H	0.543207	0.477275	0.061443
H416	H	0.876540	0.810609	0.394776
H417	H	1.209873	1.143942	0.728109
H418	H	0.564314	0.404850	0.116185
H419	H	0.897647	0.738184	0.449518
H420	H	1.230981	1.071517	0.782852
C421	C	0.577759	0.292222	0.081710
C422	C	0.911092	0.625555	0.415043
C423	C	1.244426	0.958889	0.748377
H424	H	0.563684	0.335913	0.114850
H425	H	0.897017	0.669246	0.448184
H426	H	1.230351	1.002579	0.781517
H427	H	0.546595	0.252992	0.062928
H428	H	0.879929	0.586325	0.396261
H429	H	1.213262	0.919659	0.729594
H430	H	0.602747	0.264376	0.117800
H431	H	0.936080	0.597709	0.451134
H432	H	1.269413	0.931042	0.784467
C433	C	0.672607	0.469658	0.169378
C434	C	1.005940	0.802992	0.502711
C435	C	1.339273	1.136325	0.836045
H436	H	0.661375	0.420570	0.203574
H437	H	0.994708	0.753904	0.536908
H438	H	1.328042	1.087237	0.870241
H439	H	0.698044	0.507839	0.203068
H440	H	1.031377	0.841172	0.536402
H441	H	1.364711	1.174505	0.869735
H442	H	0.639712	0.495648	0.153982
H443	H	0.973045	0.828981	0.487315
H444	H	1.306379	1.162314	0.820648
