data_functionalizedCrystal
_audit_creation_method	'MofGen! by Chris Wilmer'
_symmetry_space_group_name_H-M	'P1'
_symmetry_Int_Tables_number	1
_symmetry_cell_setting	triclinic
loop_
_symmetry_equiv_pos_as_xyz
  x,y,z
_cell_length_a	17.699104
_cell_length_b	6.394989
_cell_length_c	16.776229
_cell_angle_alpha	90.003593
_cell_angle_beta	89.993530
_cell_angle_gamma	95.105386
loop_
_atom_site_label
_atom_site_type_symbol
_atom_site_fract_x
_atom_site_fract_y
_atom_site_fract_z
O1	O	1.006766	-0.264339	-0.066270
O2	O	0.786740	-0.298657	-0.066274
O3	O	0.899876	0.022581	-0.066273
O4	O	0.893630	-0.585578	-0.066272
O5	O	0.899861	0.022601	0.066304
O6	O	0.786724	-0.298638	0.066302
O7	O	1.006750	-0.264319	0.066306
Zn8	Zn	0.896735	-0.281475	0.087354
Zn9	Zn	0.896756	-0.281501	-0.087322
O10	O	0.893614	-0.585558	0.066305
C11	C	0.758523	-0.297411	0.000014
C12	C	0.674468	-0.293699	0.000012
C13	C	1.034968	-0.265566	0.000017
C14	C	1.119023	-0.269277	0.000013
C15	C	1.642183	-0.101647	0.000014
C16	C	1.563204	-0.098173	0.000010
C17	C	1.516511	-0.286752	0.000010
C18	C	1.548801	-0.478819	0.000006
C19	C	1.627778	-0.482291	0.000004
C20	C	1.230292	-0.464819	0.000012
C21	C	1.151309	-0.461332	0.000017
C22	C	1.165717	-0.080700	0.000019
C23	C	1.244695	-0.084173	0.000017
C24	C	1.276978	-0.276238	0.000008
C25	C	1.362616	-0.280003	0.000011
C26	C	1.430874	-0.282989	0.000013
C27	C	0.898633	0.100407	0.000012
C28	C	0.894859	0.336623	0.000012
N29	N	0.896726	-0.281456	0.206565
N30	N	0.896770	-0.281504	-0.206533
C31	C	0.946839	-0.139270	0.248283
C32	C	0.946844	-0.139268	0.331735
C33	C	0.896738	-0.281464	0.373468
C34	C	0.846620	-0.423658	0.331744
C35	C	0.846612	-0.423648	0.248294
C36	C	0.846647	-0.423699	0.668291
C37	C	0.846660	-0.423702	0.751748
C38	C	0.946879	-0.139319	0.751733
C39	C	0.946871	-0.139309	0.668282
C40	C	0.896751	-0.281494	0.626566
C41	C	0.896746	-0.281492	0.536077
C42	C	0.896746	-0.281479	0.463955
H43	H	1.680196	0.051917	0.000018
O44	O	0.995604	-0.001093	0.372135
C45	C	1.094999	0.281016	0.363314
C46	C	1.039824	0.124616	0.317462
H47	H	1.130754	0.382722	0.319130
H48	H	1.133713	0.191034	0.402345
H49	H	1.061334	0.385177	0.402420
H50	H	1.073428	0.020415	0.278312
H51	H	1.001111	0.214728	0.278480
H52	H	1.536922	0.058215	0.000011
O53	O	1.659178	-0.668799	-0.000138
C54	C	1.740026	-0.893578	-0.068807
C55	C	1.704505	-0.682302	-0.068750
H56	H	1.776694	-0.904545	-0.124265
H57	H	1.693119	-1.027850	-0.068857
H58	H	1.776607	-0.904689	-0.013301
H59	H	1.667931	-0.670986	-0.124246
H60	H	1.751449	-0.548131	-0.068658
H61	H	1.282709	0.069388	0.000021
H62	H	0.987674	-0.023527	0.634305
H63	H	0.987687	-0.023538	0.785707
O64	O	1.503335	-0.661814	0.000040
C65	C	1.375283	-0.825166	0.000001
C66	C	1.426681	-0.617766	-0.000024
H67	H	1.313297	-0.789625	-0.000069
H68	H	1.387200	-0.919720	0.055496
H69	H	1.387308	-0.919711	-0.055470
H70	H	1.414685	-0.523053	0.055409
H71	H	1.414754	-0.523371	-0.055556
O72	O	0.797907	-0.561905	0.792165
C73	C	0.698519	-0.844039	0.783379
C74	C	0.753675	-0.687618	0.737507
H75	H	0.662754	-0.945748	0.739208
H76	H	0.659814	-0.754075	0.822441
H77	H	0.732201	-0.948196	0.822458
H78	H	0.720055	-0.583421	0.698386
H79	H	0.792381	-0.777712	0.698496
H80	H	0.805804	-0.539428	0.214328
O81	O	0.798075	-0.561928	0.627692
C82	C	0.784680	-0.847354	0.533520
C83	C	0.839772	-0.690872	0.579436
H84	H	0.818370	-0.951674	0.494507
H85	H	0.746014	-0.757442	0.494407
H86	H	0.748864	-0.948891	0.577705
H87	H	0.875638	-0.589294	0.535308
H88	H	0.878386	-0.780912	0.618561
O89	O	0.797839	-0.561573	0.372247
C90	C	0.667415	-0.684456	0.397773
C91	C	0.722574	-0.528114	0.351869
H92	H	0.606552	-0.657489	0.381301
H93	H	0.675964	-0.660042	0.464593
H94	H	0.678902	-0.851701	0.381366
H95	H	0.711120	-0.360808	0.368210
H96	H	0.714013	-0.552712	0.285060
H97	H	1.113292	-0.614905	0.000016
O98	O	1.134233	0.105696	-0.000017
C99	C	1.018951	0.279764	0.000032
C100	C	1.054504	0.068535	0.000051
H101	H	0.954486	0.249793	0.000103
H102	H	1.037984	0.372962	-0.055463
H103	H	1.038071	0.372931	0.055504
H104	H	1.035401	-0.024802	-0.055384
H105	H	1.035473	-0.024504	0.055582
H106	H	1.256567	-0.621210	-0.000000
H107	H	0.987644	-0.023486	0.214309
