data_functionalizedCrystal
_audit_creation_method	'MofGen! by Chris Wilmer'
_symmetry_space_group_name_H-M	'P1'
_symmetry_Int_Tables_number	1
_symmetry_cell_setting	triclinic
loop_
_symmetry_equiv_pos_as_xyz
  x,y,z
_cell_length_a	19.077114
_cell_length_b	19.077367
_cell_length_c	19.076919
_cell_angle_alpha	85.521998
_cell_angle_beta	85.527261
_cell_angle_gamma	94.531155
loop_
_atom_site_label
_atom_site_type_symbol
_atom_site_fract_x
_atom_site_fract_y
_atom_site_fract_z
Zn1	Zn	0.252715	-1.051078	-0.365992
Zn2	Zn	0.365873	-1.050988	-0.252844
Zn3	Zn	0.252733	-0.937932	-0.252844
Zn4	Zn	0.375714	-0.928004	-0.375821
O5	O	0.311759	-0.992000	-0.311875
O6	O	0.263600	-1.149887	-0.346869
O7	O	0.346753	-1.040108	-0.154025
O8	O	0.153905	-0.957134	-0.263740
O9	O	0.346736	-1.149821	-0.263740
O10	O	0.153893	-1.040262	-0.346869
O11	O	0.263629	-0.957047	-0.154025
O12	O	0.273172	-0.837794	-0.273271
O13	O	0.363509	-0.940212	-0.473336
O14	O	0.363526	-0.830500	-0.363621
O15	O	0.273143	-1.030635	-0.466115
O16	O	0.466003	-1.030481	-0.273271
O17	O	0.473233	-0.940125	-0.363622
C18	C	0.319419	-0.808524	-0.319513
C19	C	0.322714	-0.730030	-0.322798
C20	C	0.495242	-0.984234	-0.319528
C21	C	0.573735	-0.980975	-0.322822
C22	C	0.277155	-0.696930	-0.277371
C23	C	0.280257	-0.623177	-0.280458
C24	C	0.328916	-0.582524	-0.328975
C25	C	0.374480	-0.615629	-0.374403
C26	C	0.371381	-0.689381	-0.371312
C27	C	0.343239	-0.361544	-0.343251
C28	C	0.346334	-0.287787	-0.346339
C29	C	0.252111	-0.295340	-0.252393
C30	C	0.249014	-0.369093	-0.249310
C31	C	0.294580	-0.402192	-0.294736
N32	N	0.332086	-0.507137	-0.332132
N33	N	0.291413	-0.477578	-0.291574
C34	C	0.606824	-1.026521	-0.277365
C35	C	0.680577	-1.023460	-0.280468
C36	C	0.721240	-0.974849	-0.329025
C37	C	0.688147	-0.929301	-0.374486
C38	C	0.614395	-0.932366	-0.371387
C39	C	0.942221	-0.960638	-0.343339
C40	C	1.015977	-0.957575	-0.346434
C41	C	1.008402	-1.051735	-0.252416
C42	C	0.934650	-1.054793	-0.249318
C43	C	0.901563	-1.009247	-0.294782
N44	N	0.796628	-0.971718	-0.332196
N45	N	0.826176	-1.012383	-0.291614
C46	C	1.127559	-0.999809	-0.304217
C47	C	1.049066	-1.003121	-0.300977
C48	C	0.319422	-0.984326	-0.496065
C49	C	0.322687	-0.981056	-0.574555
C50	C	0.304064	-0.176194	-0.304201
C51	C	0.300774	-0.254688	-0.300913
C52	C	0.277175	-1.026595	-0.607672
C53	C	0.280241	-1.023513	-0.681422
C54	C	0.328823	-0.974896	-0.722055
C55	C	0.374338	-0.929352	-0.688933
C56	C	0.371268	-0.932430	-0.615184
C57	C	0.343047	-0.960638	-0.943024
C58	C	0.346115	-0.957564	-1.016778
C59	C	0.252016	-1.051725	-1.009262
C60	C	0.248953	-1.054802	-0.935512
C61	C	0.294466	-1.009256	-0.902397
N62	N	0.331960	-0.971747	-0.797440
N63	N	0.291325	-1.012402	-0.827013
C64	C	0.304072	-0.999688	-0.128399
C65	C	0.300602	-1.003103	-0.049895
H66	H	0.237527	-0.730025	-0.237869
N67	N	0.392144	-0.911524	-0.907315
H68	H	0.382830	-0.920846	-0.854430
H69	H	0.383797	-0.861017	-0.921847
H70	H	0.721260	-0.889724	-0.414025
N71	N	0.426968	-0.571786	-0.426728
H72	H	0.422018	-0.520042	-0.421794
H73	H	0.417614	-0.583050	-0.476184
H74	H	0.408480	-0.716329	-0.408303
H75	H	0.573720	-1.066103	-0.237822
N76	N	0.231121	-0.587476	-0.231461
H77	H	0.199823	-0.624420	-0.200259
H78	H	0.200970	-0.557057	-0.260180
H79	H	0.901543	-1.094376	-0.209779
H80	H	1.035350	-1.088816	-0.215403
H81	H	0.707514	-1.060548	-0.243452
N82	N	0.426724	-0.876898	-0.732754
H83	H	0.421761	-0.881855	-0.784500
H84	H	0.476170	-0.886273	-0.721512
H85	H	1.049084	-0.917998	-0.385987
N86	N	0.578698	-0.883244	-0.420411
H87	H	0.593145	-0.891535	-0.470959
H88	H	0.593240	-0.832739	-0.411985
N89	N	0.202978	-0.259640	-0.203393
H90	H	0.171684	-0.296585	-0.172188
H91	H	0.172822	-0.229223	-0.232108
H92	H	0.209395	-0.402188	-0.209798
N93	N	0.420350	-0.883307	-0.579462
H94	H	0.451592	-0.852040	-0.616392
H95	H	0.450560	-0.911937	-0.549025
N96	N	0.906540	-0.911507	-0.392365
H97	H	0.876067	-0.940084	-0.422637
H98	H	0.943535	-0.880257	-0.423544
N99	N	0.196526	-1.107214	-0.891690
H100	H	0.201482	-1.102248	-0.839945
H101	H	0.205925	-1.156654	-0.902929
H102	H	0.237616	-1.066187	-0.574593
N103	N	0.398812	-0.243938	-0.398677
H104	H	0.427208	-0.276096	-0.426986
H105	H	0.431534	-0.213147	-0.372524
H106	H	0.380343	-0.388483	-0.380240
H107	H	0.243181	-1.060598	-0.708382
N108	N	0.202929	-1.100846	-1.044978
H109	H	0.212243	-1.091521	-1.097863
H110	H	0.152416	-1.092532	-1.030444
N111	N	0.398519	-0.905127	-1.060606
H112	H	0.426885	-0.876739	-1.028438
H113	H	0.372409	-0.872393	-1.091371
