data_functionalizedCrystal
_audit_creation_method	'MofGen! by Chris Wilmer'
_symmetry_space_group_name_H-M	'P1'
_symmetry_Int_Tables_number	1
_symmetry_cell_setting	triclinic
loop_
_symmetry_equiv_pos_as_xyz
  x,y,z
_cell_length_a	18.101398
_cell_length_b	18.101389
_cell_length_c	19.077068
_cell_angle_alpha	92.277715
_cell_angle_beta	92.325013
_cell_angle_gamma	89.975198
loop_
_atom_site_label
_atom_site_type_symbol
_atom_site_fract_x
_atom_site_fract_y
_atom_site_fract_z
Zn1	Zn	1.120290	-0.430679	-0.280319
Zn2	Zn	1.620290	0.069321	0.219681
Zn3	Zn	1.115218	-0.311804	-0.398002
Zn4	Zn	1.615218	0.188196	0.101998
Zn5	Zn	0.996449	-0.306839	-0.280317
Zn6	Zn	1.496449	0.193161	0.219683
Zn7	Zn	0.991433	-0.435591	-0.397977
Zn8	Zn	1.491433	0.064409	0.102023
O9	O	1.055848	-0.371228	-0.339154
O10	O	1.555848	0.128772	0.160846
O11	O	1.223249	-0.414932	-0.295942
O12	O	1.723249	0.085068	0.204058
O13	O	1.099440	-0.207513	-0.382400
O14	O	1.599440	0.292487	0.117600
O15	O	1.017098	-0.319133	-0.181826
O16	O	1.517098	0.180867	0.318174
O17	O	1.219524	-0.327596	-0.382402
O18	O	1.719524	0.172404	0.117598
O19	O	1.108083	-0.410118	-0.181827
O20	O	1.608083	0.089882	0.318173
O21	O	1.012180	-0.203865	-0.295938
O22	O	1.512180	0.296135	0.204062
O23	O	0.892151	-0.323896	-0.295913
O24	O	1.392151	0.176104	0.204087
O25	O	1.008550	-0.538572	-0.382360
O26	O	1.508550	-0.038572	0.117640
O27	O	0.888466	-0.418489	-0.382358
O28	O	1.388466	0.081511	0.117642
O29	O	1.103220	-0.534963	-0.295917
O30	O	1.603220	-0.034963	0.204083
O31	O	1.094577	-0.332358	-0.496490
O32	O	1.594577	0.167642	0.003510
O33	O	1.003633	-0.423304	-0.496472
O34	O	1.503633	0.076696	0.003528
C35	C	0.863438	-0.371187	-0.339133
C36	C	1.363438	0.128813	0.160867
C37	C	0.781123	-0.371188	-0.339141
C38	C	1.281123	0.128812	0.160859
C39	C	0.630414	-0.371222	-0.339156
C40	C	1.130414	0.128778	0.160844
C41	C	0.601357	-0.311798	-0.284689
C42	C	1.101357	0.188202	0.215311
C43	C	0.515748	-0.311977	-0.284484
C44	C	1.015748	0.188023	0.215516
C45	C	0.482031	-0.371254	-0.339170
C46	C	0.982031	0.128746	0.160830
C47	C	0.514006	-0.448554	-0.319383
C48	C	1.014006	0.051446	0.180617
C49	C	0.599668	-0.448188	-0.318980
C50	C	1.099668	0.051812	0.181020
C51	C	0.595671	-0.354040	-0.413549
C52	C	1.095671	0.145960	0.086451
C53	C	0.510036	-0.352321	-0.413157
C54	C	1.010036	0.147679	0.086843
C55	C	0.398171	-0.371277	-0.339179
C56	C	0.898171	0.128723	0.160821
C57	C	0.714274	-0.371204	-0.339145
C58	C	1.214274	0.128796	0.160855
C59	C	1.055891	-0.564390	-0.339136
C60	C	1.555891	-0.064390	0.160864
C61	C	1.055910	-0.646703	-0.339128
C62	C	1.555910	-0.146703	0.160872
C63	C	1.055958	-0.945789	-0.338996
C64	C	1.555958	-0.445789	0.161004
C65	C	0.996205	-0.916727	-0.393211
C66	C	1.496205	-0.416727	0.106789
C67	C	0.996349	-0.831119	-0.393462
C68	C	1.496349	-0.331119	0.106538
C69	C	1.055934	-0.797409	-0.339062
C70	C	1.555934	-0.297409	0.160938
C71	C	1.133109	-0.829365	-0.359198
C72	C	1.633109	-0.329365	0.140802
C73	C	1.132774	-0.915025	-0.359554
C74	C	1.632774	-0.415025	0.140446
C75	C	1.039220	-0.911070	-0.264526
C76	C	1.539220	-0.411070	0.235474
C77	C	1.037466	-0.825437	-0.264956
C78	C	1.537466	-0.325437	0.235044
C79	C	1.055924	-0.713551	-0.339098
C80	C	1.555924	-0.213551	0.160902
C81	C	1.055973	-1.029647	-0.338962
C82	C	1.555973	-0.529647	0.161038
C83	C	1.249009	-0.371270	-0.339175
C84	C	1.749009	0.128730	0.160825
C85	C	1.331322	-0.371288	-0.339184
C86	C	1.831322	0.128712	0.160816
C87	C	1.048030	-0.378919	-0.522019
C88	C	1.548030	0.121081	-0.022019
C89	C	1.044754	-0.382234	-0.600249
C90	C	1.544754	0.117766	-0.100249
C91	C	1.055849	-0.178816	-0.339121
C92	C	1.555849	0.321184	0.160879
C93	C	1.055982	-0.096495	-0.338930
C94	C	1.555982	0.403505	0.161070
C95	C	1.090601	-0.336480	-0.636988
C96	C	1.590601	0.163520	-0.136988
C97	C	1.087524	-0.339603	-0.710494
C98	C	1.587524	0.160397	-0.210494
C99	C	1.038595	-0.388475	-0.747259
C100	C	1.538595	0.111525	-0.247259
C101	C	0.992746	-0.434234	-0.710515
C102	C	1.492746	0.065766	-0.210515
C103	C	0.995827	-0.431115	-0.637011
C104	C	1.495827	0.068885	-0.137011
C105	C	1.024301	-0.402880	-0.967096
C106	C	1.524301	0.097120	-0.467096
C107	C	1.021221	-0.405994	-1.040605
C108	C	1.521221	0.094006	-0.540605
C109	C	1.116000	-0.311363	-1.040579
C110	C	1.616000	0.188637	-0.540579
C111	C	1.119075	-0.308246	-0.967073
C112	C	1.619075	0.191754	-0.467073
C113	C	1.073228	-0.354007	-0.930335
C114	C	1.573228	0.145993	-0.430335
N115	N	1.035447	-0.391666	-0.822394
N116	N	1.535447	0.108334	-0.322394
N117	N	1.076381	-0.350819	-0.855202
N118	N	1.576381	0.149181	-0.355202
C119	C	1.063715	-0.363524	-0.155575
C120	C	1.563715	0.136476	0.344425
C121	C	1.067068	-0.360241	-0.077344
C122	C	1.567068	0.139759	0.422656
H123	H	0.494855	-0.463764	-0.265615
H124	H	0.994855	0.036236	0.234385
H125	H	0.621968	-0.463070	-0.264610
H126	H	1.121968	0.036930	0.235390
N127	N	1.088376	-0.796343	-0.211585
N128	N	1.588376	-0.296343	0.288415
N129	N	1.065379	-0.757337	-0.161519
N130	N	1.565379	-0.257337	0.338481
H131	H	1.101337	-0.736781	-0.123828
H132	H	1.601337	-0.236781	0.376172
H133	H	1.082780	-0.929641	-0.224133
H134	H	1.582780	-0.429641	0.275867
H135	H	1.124857	-0.302344	-0.740404
H136	H	1.624857	0.197656	-0.240404
N137	N	0.486465	-0.505467	-0.367636
N138	N	0.986465	-0.005467	0.132364
N139	N	0.498798	-0.502703	-0.431475
N140	N	0.998798	-0.002703	0.068525
H141	H	0.479346	-0.542897	-0.465555
H142	H	0.979346	-0.042897	0.034445
H143	H	0.981386	-0.445805	-1.070538
H144	H	1.481386	0.054195	-0.570538
N145	N	1.140580	-0.286547	-0.599448
N146	N	1.640580	0.213453	-0.099448
N147	N	1.181511	-0.245700	-0.632263
N148	N	1.681511	0.254300	-0.132263
H149	H	1.216811	-0.210433	-0.605752
H150	H	1.716811	0.289567	-0.105752
N151	N	0.942754	-0.484154	-0.748057
N152	N	1.442754	0.015846	-0.248057
N153	N	0.901820	-0.524999	-0.715243
N154	N	1.401820	-0.024999	-0.215243
H155	H	0.866509	-0.560254	-0.741755
H156	H	1.366509	-0.060254	-0.241755
H157	H	1.147331	-0.937306	-0.413993
H158	H	1.647331	-0.437306	0.086007
N159	N	1.169056	-0.258316	-0.929531
N160	N	1.669056	0.241684	-0.429531
N161	N	1.209988	-0.217467	-0.962343
N162	N	1.709988	0.282533	-0.462343
H163	H	1.245287	-0.182201	-0.935830
H164	H	1.745287	0.317799	-0.435830
H165	H	0.616469	-0.298778	-0.431620
H166	H	1.116469	0.201222	0.068380
N167	N	1.162823	-0.264626	-1.078117
N168	N	1.662823	0.235374	-0.578117
N169	N	1.160066	-0.267414	-1.143745
N170	N	1.660066	0.232586	-0.643745
H171	H	1.193137	-0.234405	-1.170258
H172	H	1.693137	0.265595	-0.670258
H173	H	0.958494	-0.468373	-0.607098
H174	H	1.458494	0.031627	-0.107098
N175	N	0.483695	-0.280978	-0.431881
N176	N	0.983695	0.219022	0.068119
N177	N	0.444440	-0.244174	-0.390926
N178	N	0.944440	0.255826	0.109074
H179	H	0.425828	-0.193789	-0.404150
H180	H	0.925828	0.306211	0.095850
H181	H	1.006884	-0.940568	-0.448074
H182	H	1.506884	-0.440568	0.051926
H183	H	1.178636	-0.934172	-0.321781
H184	H	1.678636	-0.434172	0.178219
N185	N	1.190296	-0.801805	-0.311233
N186	N	1.690296	-0.301805	0.188767
N187	N	1.242638	-0.765378	-0.333183
N188	N	1.742638	-0.265378	0.166817
H189	H	1.283026	-0.745911	-0.299308
H190	H	1.783026	-0.245911	0.200692
N191	N	0.977466	-0.449628	-0.929586
N192	N	1.477466	0.050372	-0.429586
N193	N	0.933782	-0.493258	-0.962423
N194	N	1.433782	0.006742	-0.462423
H195	H	0.900702	-0.526275	-0.935931
H196	H	1.400702	-0.026275	-0.435931
H197	H	0.625219	-0.322803	-0.229877
H198	H	1.125219	0.177197	0.270123
H199	H	0.984087	-0.931881	-0.246181
H200	H	1.484087	-0.431881	0.253819
N201	N	0.488684	-0.239962	-0.299975
N202	N	0.988684	0.260038	0.200025
N203	N	0.533040	-0.189217	-0.311011
N204	N	1.033040	0.310783	0.188989
H205	H	0.513930	-0.138352	-0.321950
H206	H	1.013930	0.361648	0.178050
N207	N	1.009919	-0.808352	-0.462707
N208	N	1.509919	-0.308352	0.037293
N209	N	1.019317	-0.855714	-0.510997
N210	N	1.519317	-0.355714	-0.010997
H211	H	1.028903	-0.839637	-0.559905
H212	H	1.528903	-0.339637	-0.059905
H213	H	0.939022	-0.809554	-0.380861
H214	H	1.439022	-0.309554	0.119139
N215	N	0.626497	-0.239538	-0.299992
N216	N	1.126497	0.260462	0.200008
N217	N	0.666125	-0.230989	-0.351216
N218	N	1.166125	0.269011	0.148784
H219	H	0.683884	-0.179953	-0.362026
H220	H	1.183884	0.320047	0.137974
H221	H	1.147982	-0.810196	-0.413059
H222	H	1.647982	-0.310196	0.086941
H223	H	0.618812	-0.493827	-0.356943
H224	H	1.118812	0.006173	0.143057
N225	N	0.493005	-0.325994	-0.215334
N226	N	0.993005	0.174006	0.284666
N227	N	0.511354	-0.384816	-0.187213
N228	N	1.011354	0.115184	0.312787
H229	H	0.495295	-0.394719	-0.138373
H230	H	0.995295	0.105281	0.361627
N231	N	0.480946	-0.402947	-0.466757
N232	N	0.980946	0.097053	0.033243
N233	N	0.438917	-0.454036	-0.451231
N234	N	0.938917	0.045964	0.048769
H235	H	0.418372	-0.489797	-0.489084
H236	H	0.918372	0.010203	0.010916
N237	N	0.618966	-0.408382	-0.464447
N238	N	1.118966	0.091618	0.035553
N239	N	0.660967	-0.459567	-0.446108
N240	N	1.160967	0.040433	0.053892
H241	H	0.677424	-0.497949	-0.482049
H242	H	1.177424	0.002051	0.017951
N243	N	0.924064	-0.941888	-0.377556
N244	N	1.424064	-0.441888	0.122444
N245	N	0.915844	-0.981535	-0.326263
N246	N	1.415844	-0.481535	0.173737
H247	H	0.864893	-0.999312	-0.315206
H248	H	1.364893	-0.499312	0.184794
H249	H	0.980687	-0.804464	-0.249771
H250	H	1.480687	-0.304464	0.250229
