data_functionalizedCrystal
_audit_creation_method	'MofGen! by Chris Wilmer'
_symmetry_space_group_name_H-M	'P1'
_symmetry_Int_Tables_number	1
_symmetry_cell_setting	triclinic
loop_
_symmetry_equiv_pos_as_xyz
  x,y,z
_cell_length_a	11.792254
_cell_length_b	10.268362
_cell_length_c	10.723023
_cell_angle_alpha	90.004269
_cell_angle_beta	84.333073
_cell_angle_gamma	90.004525
loop_
_atom_site_label
_atom_site_type_symbol
_atom_site_fract_x
_atom_site_fract_y
_atom_site_fract_z
O1	O	1.507274	0.108296	0.171115
O2	O	2.007274	0.608296	0.671115
O3	O	1.176974	0.108299	0.188726
O4	O	1.676974	0.608299	0.688726
O5	O	1.349743	0.108292	-0.001676
O6	O	1.849743	0.608292	0.498324
O7	O	1.334505	0.108303	0.361516
O8	O	1.834505	0.608303	0.861516
O9	O	1.349728	-0.108309	-0.001684
O10	O	1.849728	0.391691	0.498316
O11	O	1.176959	-0.108302	0.188718
O12	O	1.676959	0.391698	0.688718
O13	O	1.507259	-0.108305	0.171107
O14	O	2.007259	0.391695	0.671107
Cu15	Cu	1.342107	-0.128081	0.179912
Cu16	Cu	1.842107	0.371919	0.679912
Cu17	Cu	1.342125	0.128075	0.179921
Cu18	Cu	1.842125	0.628075	0.679921
O19	O	1.334490	-0.108298	0.361509
O20	O	1.834490	0.391702	0.861509
C21	C	1.134673	-0.000001	0.187613
C22	C	1.634673	0.499999	0.687613
C23	C	1.008653	-0.000000	0.184292
C24	C	1.508653	0.500000	0.684292
N25	N	1.342103	-0.308246	0.179904
N26	N	1.842103	0.191754	0.679904
C27	C	0.906310	0.000005	0.181594
C28	C	1.406310	0.500005	0.681594
C29	C	0.777916	0.000006	0.178221
C30	C	1.277916	0.500006	0.678221
C31	C	1.342120	-0.573917	0.179919
C32	C	1.842120	-0.073917	0.679919
C33	C	1.342107	-0.426079	0.179914
C34	C	1.842107	0.073921	0.679914
C35	C	1.549560	-0.000002	0.172220
C36	C	2.049560	0.499998	0.672220
C37	C	1.675580	0.000006	0.175541
C38	C	2.175580	0.500006	0.675541
C39	C	1.348627	-0.000007	-0.048176
C40	C	1.848627	0.499993	0.451824
C41	C	1.345310	-0.000003	-0.186722
C42	C	1.845310	0.499997	0.313278
N43	N	1.342139	0.308241	0.179919
N44	N	1.842139	0.808241	0.679919
C45	C	1.343839	0.112205	-0.248480
C46	C	1.843839	0.612205	0.251520
C47	C	1.340410	0.112212	-0.391674
C48	C	1.840410	0.612212	0.108326
C49	C	1.335606	0.000004	0.408009
C50	C	1.835606	0.500004	0.908009
C51	C	1.338923	0.000008	0.546555
C52	C	1.838923	0.500008	1.046555
H53	H	1.345113	0.208264	-0.195341
H54	H	1.845113	0.708264	0.304659
H55	H	1.344024	-0.096062	-0.239859
H56	H	1.844024	0.403938	0.260141
N57	N	1.338745	0.239470	-0.462012
N58	N	1.838745	0.739470	0.037988
H59	H	1.336535	0.221436	-0.554334
H60	H	1.836535	0.721436	-0.054334
H61	H	1.269053	0.291062	-0.429681
H62	H	1.769053	0.791062	0.070319
N63	N	1.340608	-0.127249	-0.383109
N64	N	1.840608	0.372751	0.116891
H65	H	1.271666	-0.132444	-0.319455
H66	H	1.771666	0.367556	0.180545
H67	H	1.339188	-0.202054	-0.444093
H68	H	1.839188	0.297946	0.055907
