data_functionalizedCrystal
_audit_creation_method	'MofGen! by Chris Wilmer'
_symmetry_space_group_name_H-M	'P1'
_symmetry_Int_Tables_number	1
_symmetry_cell_setting	triclinic
loop_
_symmetry_equiv_pos_as_xyz
  x,y,z
_cell_length_a	13.897449
_cell_length_b	25.639239
_cell_length_c	13.897441
_cell_angle_alpha	90.034305
_cell_angle_beta	90.020733
_cell_angle_gamma	90.039966
loop_
_atom_site_label
_atom_site_type_symbol
_atom_site_fract_x
_atom_site_fract_y
_atom_site_fract_z
Zn1	Zn	1.474562	-0.208116	0.545356
Zn2	Zn	1.474397	-0.295559	0.384047
Zn3	Zn	1.313251	-0.208141	0.384075
Zn4	Zn	1.313174	-0.295524	0.545300
O5	O	1.393846	-0.251835	0.464695
O6	O	1.609522	-0.219720	0.523970
O7	O	1.452984	-0.283987	0.249069
O8	O	1.334751	-0.134973	0.405504
O9	O	1.609400	-0.283963	0.405457
O10	O	1.453265	-0.134954	0.523997
O11	O	1.334591	-0.219762	0.249089
O12	O	1.178259	-0.219729	0.405449
O13	O	1.334619	-0.283905	0.680289
O14	O	1.178202	-0.283929	0.523901
O15	O	1.453190	-0.219686	0.680331
O16	O	1.452909	-0.368719	0.405403
O17	O	1.334459	-0.368694	0.523874
C18	C	1.143232	-0.251828	0.464673
C19	C	1.036018	-0.251838	0.464686
C20	C	0.839722	-0.251840	0.464711
C21	C	0.948955	-0.251837	0.464695
C22	C	1.393684	-0.387678	0.464650
C23	C	1.393702	-0.445792	0.464664
C24	C	1.455684	-0.806155	0.403111
C25	C	1.455721	-0.860760	0.403124
O26	O	1.508251	-0.888997	0.350742
N27	N	1.394015	-0.888074	0.464758
C28	C	1.332275	-0.860782	0.526391
O29	O	1.279794	-0.889029	0.578817
C30	C	1.332243	-0.806178	0.526382
C31	C	1.393946	-0.778867	0.464737
C32	C	1.517382	-0.778844	0.341472
C33	C	1.517343	-0.724243	0.341458
C34	C	1.455606	-0.696954	0.403084
C35	C	1.393907	-0.724266	0.464723
C36	C	1.270509	-0.778887	0.588018
C37	C	1.270483	-0.724280	0.588004
C38	C	1.332186	-0.696968	0.526359
C39	C	1.332131	-0.642377	0.526334
N40	N	1.393837	-0.615062	0.464700
C41	C	1.455574	-0.642351	0.403075
C42	C	1.332348	-0.975452	0.526405
C43	C	1.332374	-1.030055	0.526410
C44	C	1.455821	-1.030029	0.403145
C45	C	1.455790	-0.975426	0.403136
C46	C	1.394054	-0.948138	0.464771
C47	C	1.455487	-0.527686	0.403050
C48	C	1.455440	-0.473081	0.403038
C49	C	1.331997	-0.473111	0.526307
C50	C	1.332040	-0.527712	0.526315
C51	C	1.393793	-0.554998	0.464683
O52	O	1.279630	-0.614105	0.578693
O53	O	1.508056	-0.614097	0.350666
C54	C	1.645439	-0.251843	0.464717
C55	C	1.752653	-0.251846	0.464727
C56	C	1.393914	-0.251789	0.716288
C57	C	1.393943	-0.251769	0.823502
C58	C	1.394035	-0.115462	0.464760
C59	C	1.394116	-0.057348	0.464788
C60	C	1.393833	-0.251843	0.214080
C61	C	1.393991	-0.251716	0.106867
C62	C	1.393970	-0.251734	1.019797
C63	C	1.393952	-0.251755	0.910564
H64	H	1.505774	-0.549896	0.352865
O65	O	1.272232	-0.554304	0.586235
C66	C	1.327143	-0.585818	0.648612
H67	H	1.400267	-0.593968	0.614661
H68	H	1.337684	-0.564737	0.720097
C69	C	1.184291	-0.627703	0.707747
C70	C	1.274101	-0.637715	0.666044
H71	H	1.151572	-0.659714	0.718504
H72	H	1.147296	-0.606470	0.665725
H73	H	1.193089	-0.610134	0.767313
H74	H	1.265302	-0.655278	0.606474
H75	H	1.311094	-0.658952	0.708056
H76	H	1.281728	-0.450884	0.576479
O77	O	1.515821	-0.948978	0.343227
C78	C	1.570293	-0.984780	0.288821
H79	H	1.573629	-1.023685	0.328344
H80	H	1.535009	-0.990634	0.215533
C81	C	1.668856	-0.915640	0.226458
C82	C	1.672959	-0.963423	0.275005
H83	H	1.732184	-0.902465	0.217931
H84	H	1.632155	-0.891519	0.263110
H85	H	1.639448	-0.920525	0.165390
H86	H	1.702355	-0.958536	0.336076
H87	H	1.709667	-0.987542	0.238363
H88	H	1.282067	-0.953237	0.576593
O89	O	1.515474	-0.446631	0.343124
C90	C	1.569956	-0.482431	0.288723
H91	H	1.573298	-0.521335	0.328249
H92	H	1.534676	-0.488289	0.215434
C93	C	1.668506	-0.413286	0.226359
C94	C	1.672618	-0.461068	0.274909
H95	H	1.731831	-0.400108	0.217834
H96	H	1.631798	-0.389166	0.263007
H97	H	1.639102	-0.418174	0.165290
H98	H	1.702010	-0.456177	0.335981
H99	H	1.709332	-0.485186	0.238271
O100	O	1.577518	-0.805272	0.281651
C101	C	1.673617	-0.791850	0.302862
H102	H	1.675518	-0.752199	0.339974
H103	H	1.706125	-0.822547	0.352466
C104	C	1.729774	-0.837984	0.163310
C105	C	1.732110	-0.789282	0.208885
H106	H	1.765857	-0.836402	0.105342
H107	H	1.665030	-0.847029	0.149021
H108	H	1.756862	-0.863560	0.204656
H109	H	1.705011	-0.763709	0.167543
H110	H	1.796850	-0.780233	0.223165
O111	O	1.272563	-1.056639	0.586334
C112	C	1.327466	-1.088156	0.648713
H113	H	1.400588	-1.096312	0.614762
H114	H	1.338015	-1.067074	0.720196
C115	C	1.184603	-1.130026	0.707855
C116	C	1.274409	-1.140047	0.666151
H117	H	1.151874	-1.162034	0.718616
H118	H	1.147613	-1.108791	0.665831
H119	H	1.193407	-1.112456	0.767419
H120	H	1.265604	-1.157611	0.606583
H121	H	1.311397	-1.161287	0.708165
H122	H	1.567590	-0.702009	0.291265
O123	O	1.515834	-1.056623	0.343441
C124	C	1.502645	-1.110673	0.356695
H125	H	1.470924	-1.118102	0.431074
H126	H	1.451408	-1.126251	0.299386
C127	C	1.639259	-1.129510	0.256759
C128	C	1.600307	-1.138635	0.348117
H129	H	1.699499	-1.146760	0.251464
H130	H	1.648143	-1.093096	0.247826
H131	H	1.596552	-1.142492	0.209012
H132	H	1.643007	-1.125647	0.395861
H133	H	1.591432	-1.175048	0.357058
H134	H	1.220259	-0.801115	0.638212
O135	O	1.210559	-0.697829	0.648013
C136	C	1.231623	-0.711114	0.744171
H137	H	1.268730	-0.750738	0.746206
H138	H	1.281179	-0.680342	0.776694
C139	C	1.091988	-0.665004	0.800024
C140	C	1.137556	-0.713672	0.802525
H141	H	1.033965	-0.666580	0.836022
H142	H	1.077799	-0.656052	0.735242
H143	H	1.133295	-0.639366	0.827126
H144	H	1.096255	-0.739309	0.775413
H145	H	1.151737	-0.722629	0.867305
