data_functionalizedCrystal
_audit_creation_method	'MofGen! by Chris Wilmer'
_symmetry_space_group_name_H-M	'P1'
_symmetry_Int_Tables_number	1
_symmetry_cell_setting	triclinic
loop_
_symmetry_equiv_pos_as_xyz
  x,y,z
_cell_length_a	6.817900
_cell_length_b	8.749630
_cell_length_c	16.256277
_cell_angle_alpha	94.270964
_cell_angle_beta	103.500353
_cell_angle_gamma	105.181985
loop_
_atom_site_label
_atom_site_type_symbol
_atom_site_fract_x
_atom_site_fract_y
_atom_site_fract_z
V1	V	-4.034528	-0.220077	-0.262769
O2	O	-4.013994	0.009261	-0.258897
O3	O	-3.993589	-0.435111	-0.259884
O4	O	-3.986048	-0.217269	-0.377867
O5	O	-4.021587	-0.210090	-0.140097
V6	V	-4.517199	-0.192578	-0.248228
O7	O	-4.297654	-0.280400	-0.294664
O8	O	-4.704270	-0.132255	-0.216333
O9	O	-4.334931	0.022457	-0.251113
O10	O	-4.655130	-0.421915	-0.252100
O11	O	-4.647537	-0.202565	-0.370899
O12	O	-4.342472	-0.195386	-0.133130
C13	C	-3.840407	-0.487514	-0.255458
C14	C	-3.888221	-0.663311	-0.253867
C15	C	-3.830787	-0.209632	-0.405956
C16	C	-3.872482	-0.208759	-0.500043
C17	C	-4.163639	-0.214861	-0.731833
C18	C	-4.052366	-0.079142	-0.775605
C19	C	-3.948722	-0.207115	-0.672297
C20	C	-4.134238	-0.341183	-0.796163
C21	C	-4.022382	-0.205535	-0.838689
C22	C	-3.836866	-0.071299	-0.714822
C23	C	-3.918799	-0.333459	-0.735385
C24	C	-3.807366	-0.197702	-0.779125
C25	C	-3.906293	-0.208025	-0.576444
C26	C	-4.064791	-0.204614	-0.934539
C27	C	-4.151455	0.074851	-0.255536
C28	C	-4.082879	0.250646	-0.257133
C29	C	-4.161075	-0.203028	-0.105036
C30	C	-4.098618	-0.203893	-0.010949
H31	H	-3.758140	-0.724145	-0.249858
H32	H	-3.710818	0.042863	-0.679604
O33	O	-4.284750	-0.477120	-0.838423
C34	C	-4.320861	-0.475080	-0.927288
H35	H	-4.270470	-0.346221	-0.940221
H36	H	-4.225693	-0.546465	-0.953806
C37	C	-4.618824	-0.708758	-0.955186
C38	C	-4.556950	-0.550489	-0.971070
H39	H	-4.764452	-0.755280	-0.982194
H40	H	-4.594492	-0.710137	-0.895316
H41	H	-4.539499	-0.768224	-0.977284
H42	H	-4.636255	-0.491021	-0.948962
H43	H	-4.581300	-0.549102	-1.030937
H44	H	-4.212958	-0.688530	-0.261150
H45	H	-3.656979	-0.190398	-0.799876
O46	O	-3.851413	-0.461928	-0.714023
C47	C	-4.008176	-0.603934	-0.755866
H48	H	-4.167940	-0.579437	-0.773032
H49	H	-3.971001	-0.647790	-0.816662
C50	C	-3.817594	-0.762990	-0.675171
C51	C	-4.013822	-0.732906	-0.696249
H52	H	-3.821073	-0.842550	-0.638399
H53	H	-3.711975	-0.667320	-0.646983
H54	H	-3.786637	-0.799529	-0.725841
H55	H	-4.044764	-0.696349	-0.645581
H56	H	-4.119447	-0.828574	-0.724427
H57	H	-4.313760	-0.221958	-0.710907
H58	H	-4.109213	0.028392	-0.793537
