data_functionalizedCrystal
_audit_creation_method	'MofGen! by Chris Wilmer'
_symmetry_space_group_name_H-M	'P1'
_symmetry_Int_Tables_number	1
_symmetry_cell_setting	triclinic
loop_
_symmetry_equiv_pos_as_xyz
  x,y,z
_cell_length_a	19.188929
_cell_length_b	19.288840
_cell_length_c	18.366186
_cell_angle_alpha	89.983729
_cell_angle_beta	90.028034
_cell_angle_gamma	96.864604
loop_
_atom_site_label
_atom_site_type_symbol
_atom_site_fract_x
_atom_site_fract_y
_atom_site_fract_z
O1	O	-0.087016	0.921370	-0.060706
O2	O	0.162984	1.171370	0.189294
O3	O	0.412984	1.421370	0.439294
O4	O	0.662984	1.671370	0.689294
O5	O	-0.098784	0.719108	-0.060685
O6	O	0.151216	0.969108	0.189315
O7	O	0.401216	1.219108	0.439315
O8	O	0.651216	1.469108	0.689315
O9	O	0.008757	0.826076	-0.060651
O10	O	0.258757	1.076076	0.189349
O11	O	0.508757	1.326076	0.439349
O12	O	0.758757	1.576076	0.689349
O13	O	-0.194556	0.814402	-0.060740
O14	O	0.055444	1.064402	0.189260
O15	O	0.305444	1.314402	0.439260
O16	O	0.555444	1.564402	0.689260
O17	O	0.008762	0.826058	0.060448
O18	O	0.258762	1.076058	0.310448
O19	O	0.508762	1.326058	0.560448
O20	O	0.758762	1.576058	0.810448
O21	O	-0.098778	0.719090	0.060414
O22	O	0.151222	0.969090	0.310414
O23	O	0.401222	1.219090	0.560414
O24	O	0.651222	1.469090	0.810414
O25	O	-0.087011	0.921352	0.060394
O26	O	0.162989	1.171352	0.310394
O27	O	0.412989	1.421352	0.560394
O28	O	0.662989	1.671352	0.810394
Zn29	Zn	-0.092894	0.820218	0.079631
Zn30	Zn	0.157106	1.070218	0.329631
Zn31	Zn	0.407106	1.320218	0.579631
Zn32	Zn	0.657106	1.570218	0.829631
Zn33	Zn	-0.092901	0.820242	-0.079923
Zn34	Zn	0.157099	1.070242	0.170077
Zn35	Zn	0.407099	1.320242	0.420077
Zn36	Zn	0.657099	1.570242	0.670077
O37	O	-0.194551	0.814384	0.060359
O38	O	0.055449	1.064384	0.310359
O39	O	0.305449	1.314384	0.560359
O40	O	0.555449	1.564384	0.810359
C41	C	-0.098405	0.693222	-0.000132
C42	C	0.151595	0.943222	0.249868
C43	C	0.401595	1.193222	0.499868
C44	C	0.651595	1.443222	0.749868
C45	C	-0.097277	0.616118	-0.000122
C46	C	0.152723	0.866118	0.249878
C47	C	0.402723	1.116118	0.499878
C48	C	0.652723	1.366118	0.749878
C49	C	-0.096738	0.579924	-0.066135
C50	C	0.153262	0.829924	0.183865
C51	C	0.403262	1.079924	0.433865
C52	C	0.653262	1.329924	0.683865
C53	C	-0.095671	0.507477	-0.066143
C54	C	0.154329	0.757477	0.183857
C55	C	0.404329	1.007477	0.433857
C56	C	0.654329	1.257477	0.683857
C57	C	-0.095128	0.471228	-0.000135
C58	C	0.154872	0.721228	0.249865
C59	C	0.404872	0.971228	0.499865
C60	C	0.654872	1.221228	0.749865
C61	C	-0.095671	0.507430	0.065886
C62	C	0.154329	0.757430	0.315886
C63	C	0.404329	1.007430	0.565886
C64	C	0.654329	1.257430	0.815886
C65	C	-0.096746	0.579875	0.065893
C66	C	0.153254	0.829875	0.315893
C67	C	0.403254	1.079875	0.565893
C68	C	0.653254	1.329875	0.815893
C69	C	-0.052528	0.361890	0.050445
C70	C	0.197472	0.611890	0.300445
C71	C	0.447472	0.861890	0.550445
C72	C	0.697472	1.111890	0.800445
C73	C	-0.051449	0.289447	0.050435
C74	C	0.198551	0.539447	0.300435
C75	C	0.448551	0.789447	0.550435
C76	C	0.698551	1.039447	0.800435
C77	C	-0.091817	0.247784	-0.000153
C78	C	0.158183	0.497784	0.249847
C79	C	0.408183	0.747784	0.499847
C80	C	0.658183	0.997784	0.749847
C81	C	-0.133255	0.278575	-0.050744
C82	C	0.116745	0.528575	0.199256
C83	C	0.366745	0.778575	0.449256
C84	C	0.616745	1.028575	0.699256
C85	C	-0.134330	0.351019	-0.050737
C86	C	0.115670	0.601019	0.199263
C87	C	0.365670	0.851019	0.449263
C88	C	0.615670	1.101019	0.699263
C89	C	-0.093963	0.392674	-0.000135
C90	C	0.156037	0.642674	0.249865
C91	C	0.406037	0.892674	0.499865
C92	C	0.656037	1.142674	0.749865
C93	C	-0.090121	0.133035	-0.066179
C94	C	0.159879	0.383035	0.183821
C95	C	0.409879	0.633035	0.433821
C96	C	0.659879	0.883035	0.683821
C97	C	-0.089058	0.060586	-0.066185
C98	C	0.160942	0.310586	0.183815
C99	C	0.410942	0.560586	0.433815
C100	C	0.660942	0.810586	0.683815
C101	C	-0.089052	0.060542	0.065847
C102	C	0.160948	0.310542	0.315847
C103	C	0.410948	0.560542	0.565847
C104	C	0.660948	0.810542	0.815847
C105	C	-0.090122	0.132989	0.065851
C106	C	0.159878	0.382989	0.315851
C107	C	0.409878	0.632989	0.565851
C108	C	0.659878	0.882989	0.815851
C109	C	-0.090653	0.169231	-0.000164
C110	C	0.159347	0.419231	0.249836
C111	C	0.409347	0.669231	0.499836
C112	C	0.659347	0.919231	0.749836
C113	C	-0.220565	0.814771	-0.000202
C114	C	0.029435	1.064771	0.249798
C115	C	0.279435	1.314771	0.499798
C116	C	0.529435	1.564771	0.749798
C117	C	-0.298069	0.815906	-0.000237
C118	C	-0.048069	1.065906	0.249763
C119	C	0.201931	1.315906	0.499763
C120	C	0.451931	1.565906	0.749763
C121	C	-0.343003	0.753141	-0.000216
C122	C	-0.093003	1.003141	0.249784
C123	C	0.156997	1.253141	0.499784
C124	C	0.406997	1.503141	0.749784
C125	C	-0.415827	0.754207	-0.000199
C126	C	-0.165827	1.004207	0.249801
C127	C	0.084173	1.254207	0.499801
C128	C	0.334173	1.504207	0.749801
C129	C	-0.443713	0.818042	-0.000189
C130	C	-0.193713	1.068042	0.249811
C131	C	0.056287	1.318042	0.499811
C132	C	0.306287	1.568042	0.749811
C133	C	-0.398769	0.880816	-0.000215
C134	C	-0.148769	1.130816	0.249785
C135	C	0.101231	1.380816	0.499785
C136	C	0.351231	1.630816	0.749785
C137	C	-0.325947	0.879748	-0.000238
C138	C	-0.075947	1.129748	0.249762
C139	C	0.174053	1.379748	0.499762
C140	C	0.424053	1.629748	0.749762
N141	N	-0.551672	0.866830	0.041064
N142	N	-0.301672	1.116830	0.291064
N143	N	-0.051672	1.366830	0.541064
N144	N	0.198328	1.616830	0.791064
N145	N	-0.620850	0.867840	0.041088
N146	N	-0.370850	1.117840	0.291088
N147	N	-0.120850	1.367840	0.541088
N148	N	0.129150	1.617840	0.791088
C149	C	-0.663121	0.821263	-0.000120
C150	C	-0.413121	1.071263	0.249880
C151	C	-0.163121	1.321263	0.499880
C152	C	0.086879	1.571263	0.749880
N153	N	-0.633602	0.773628	-0.041344
N154	N	-0.383602	1.023628	0.208656
N155	N	-0.133602	1.273628	0.458656
N156	N	0.116398	1.523628	0.708656
N157	N	-0.564417	0.772616	-0.041364
N158	N	-0.314417	1.022616	0.208636
N159	N	-0.064417	1.272616	0.458636
N160	N	0.185583	1.522616	0.708636
C161	C	-0.522675	0.819207	-0.000164
C162	C	-0.272675	1.069207	0.249836
C163	C	-0.022675	1.319207	0.499836
C164	C	0.227325	1.569207	0.749836
C165	C	-0.787020	0.759650	-0.000082
C166	C	-0.537020	1.009650	0.249918
C167	C	-0.287020	1.259650	0.499918
C168	C	-0.037020	1.509650	0.749918
C169	C	-0.859844	0.760719	-0.000070
C170	C	-0.609844	1.010719	0.249930
C171	C	-0.359844	1.260719	0.499930
C172	C	-0.109844	1.510719	0.749930
C173	C	-0.842784	0.887329	-0.000078
C174	C	-0.592784	1.137329	0.249922
C175	C	-0.342784	1.387329	0.499922
C176	C	-0.092784	1.637329	0.749922
C177	C	-0.769961	0.886258	-0.000097
C178	C	-0.519961	1.136258	0.249903
C179	C	-0.269961	1.386258	0.499903
C180	C	-0.019961	1.636258	0.749903
C181	C	-0.742084	0.822417	-0.000096
C182	C	-0.492084	1.072417	0.249904
C183	C	-0.242084	1.322417	0.499904
C184	C	0.007916	1.572417	0.749904
C185	C	0.034770	0.825689	-0.000091
C186	C	0.284770	1.075689	0.249909
C187	C	0.534770	1.325689	0.499909
C188	C	0.784770	1.575689	0.749909
C189	C	0.112275	0.824554	-0.000061
C190	C	0.362275	1.074554	0.249939
C191	C	0.612275	1.324554	0.499939
C192	C	0.862275	1.574554	0.749939
C193	C	-0.087389	0.947238	-0.000161
C194	C	0.162611	1.197238	0.249839
C195	C	0.412611	1.447238	0.499839
C196	C	0.662611	1.697238	0.749839
C197	C	-0.088517	1.024343	-0.000176
C198	C	0.161483	1.274343	0.249824
C199	C	0.411483	1.524343	0.499824
C200	C	0.661483	1.774343	0.749824
N201	N	-0.092888	0.820207	0.188522
N202	N	0.157112	1.070207	0.438522
N203	N	0.407112	1.320207	0.688522
N204	N	0.657112	1.570207	0.938522
N205	N	-0.092900	0.820259	-0.188814
N206	N	0.157100	1.070259	0.061186
N207	N	0.407100	1.320259	0.311186
N208	N	0.657100	1.570259	0.561186
C209	C	-0.045293	0.867588	0.226638
C210	C	0.204707	1.117588	0.476638
C211	C	0.454707	1.367588	0.726638
C212	C	0.704707	1.617588	0.976638
C213	C	-0.045290	0.867592	0.302865
C214	C	0.204710	1.117592	0.552865
C215	C	0.454710	1.367592	0.802865
C216	C	0.704710	1.617592	1.052865
C217	C	-0.092894	0.820222	0.340975
C218	C	0.157106	1.070222	0.590975
C219	C	0.407106	1.320222	0.840975
C220	C	0.657106	1.570222	1.090975
C221	C	-0.140494	0.772833	0.302850
C222	C	0.109506	1.022833	0.552850
C223	C	0.359506	1.272833	0.802850
C224	C	0.609506	1.522833	1.052850
C225	C	-0.140491	0.772825	0.226624
C226	C	0.109509	1.022825	0.476624
C227	C	0.359509	1.272825	0.726624
C228	C	0.609509	1.522825	0.976624
C229	C	-0.156512	0.810929	0.461708
C230	C	0.093488	1.060929	0.711708
C231	C	0.343488	1.310929	0.961708
C232	C	0.593488	1.560929	1.211708
C233	C	-0.156516	0.810941	0.537933
C234	C	0.093484	1.060941	0.787933
C235	C	0.343484	1.310941	1.037933
C236	C	0.593484	1.560941	1.287933
C237	C	-0.092903	0.820242	0.576082
C238	C	0.157097	1.070242	0.826082
C239	C	0.407097	1.320242	1.076082
C240	C	0.657097	1.570242	1.326082
C241	C	-0.029284	0.829545	0.537997
C242	C	0.220716	1.079545	0.787997
C243	C	0.470716	1.329545	1.037997
C244	C	0.720716	1.579545	1.287997
C245	C	-0.029281	0.829537	0.461771
C246	C	0.220719	1.079537	0.711771
C247	C	0.470719	1.329537	0.961771
C248	C	0.720719	1.579537	1.211771
C249	C	-0.092902	0.820225	0.423630
C250	C	0.157098	1.070225	0.673630
C251	C	0.407098	1.320225	0.923630
C252	C	0.657098	1.570225	1.173630
C253	C	-0.045300	0.867630	0.696853
C254	C	0.204700	1.117630	0.946853
C255	C	0.454700	1.367630	1.196853
C256	C	0.704700	1.617630	1.446853
C257	C	-0.045296	0.867630	0.773082
C258	C	0.204704	1.117630	1.023082
C259	C	0.454704	1.367630	1.273082
C260	C	0.704704	1.617630	1.523082
C261	C	-0.140506	0.772874	0.773065
C262	C	0.109494	1.022874	1.023065
C263	C	0.359494	1.272874	1.273065
C264	C	0.609494	1.522874	1.523065
C265	C	-0.140504	0.772871	0.696838
C266	C	0.109496	1.022871	0.946838
C267	C	0.359496	1.272871	1.196838
C268	C	0.609496	1.522871	1.446838
C269	C	-0.092902	0.820253	0.658736
C270	C	0.157098	1.070253	0.908736
C271	C	0.407098	1.320253	1.158736
C272	C	0.657098	1.570253	1.408736
H273	H	-0.097171	0.609428	-0.119890
H274	H	0.152829	0.859428	0.130110
H275	H	0.402829	1.109428	0.380110
H276	H	0.652829	1.359428	0.630110
H277	H	-0.168071	0.376085	-0.091928
H278	H	0.081929	0.626085	0.158072
H279	H	0.331929	0.876085	0.408072
H280	H	0.581929	1.126085	0.658072
Br281	Br	0.019310	0.931888	0.174928
Br282	Br	0.269310	1.181888	0.424928
Br283	Br	0.519310	1.431888	0.674928
Br284	Br	0.769310	1.681888	0.924928
Br285	Br	-0.749181	0.673010	-0.000082
Br286	Br	-0.499181	0.923010	0.249918
Br287	Br	-0.249181	1.173010	0.499918
Br288	Br	0.000819	1.423010	0.749918
H289	H	-0.006530	0.906177	0.333905
H290	H	0.243470	1.156177	0.583905
H291	H	0.493470	1.406177	0.833905
H292	H	0.743470	1.656177	1.083905
Br293	Br	0.019304	0.931931	0.645141
Br294	Br	0.269304	1.181931	0.895141
Br295	Br	0.519304	1.431931	1.145141
Br296	Br	0.769304	1.681931	1.395141
H297	H	-0.452420	0.703094	-0.000181
H298	H	-0.202420	0.953094	0.249819
H299	H	0.047580	1.203094	0.499819
H300	H	0.297580	1.453094	0.749819
H301	H	-0.017704	0.264384	0.091626
H302	H	0.232296	0.514384	0.341626
H303	H	0.482296	0.764384	0.591626
H304	H	0.732296	1.014384	0.841626
H305	H	-0.179263	0.734292	0.665802
H306	H	0.070737	0.984292	0.915802
H307	H	0.320737	1.234292	1.165802
H308	H	0.570737	1.484292	1.415802
Br309	Br	-0.436612	0.967450	-0.000209
Br310	Br	-0.186612	1.217450	0.249791
Br311	Br	0.063388	1.467450	0.499791
Br312	Br	0.313388	1.717450	0.749791
Br313	Br	-0.094941	0.458346	-0.155739
Br314	Br	0.155059	0.708346	0.094261
Br315	Br	0.405059	0.958346	0.344261
Br316	Br	0.655059	1.208346	0.594261
Br317	Br	-0.090851	0.182113	0.155445
Br318	Br	0.159149	0.432113	0.405445
Br319	Br	0.409149	0.682113	0.655445
Br320	Br	0.659149	0.932113	0.905445
Br321	Br	-0.097479	0.628998	0.155489
Br322	Br	0.152521	0.878998	0.405489
Br323	Br	0.402521	1.128998	0.655489
Br324	Br	0.652521	1.378998	0.905489
H325	H	-0.019654	0.395807	0.091643
H326	H	0.230346	0.645807	0.341643
H327	H	0.480346	0.895807	0.591643
H328	H	0.730346	1.145807	0.841643
Br329	Br	-0.264960	0.964936	-0.000267
Br330	Br	-0.014960	1.214936	0.249733
Br331	Br	0.235040	1.464936	0.499733
Br332	Br	0.485040	1.714936	0.749733
H333	H	0.022520	0.837110	0.430765
H334	H	0.272520	1.087110	0.680765
H335	H	0.522520	1.337110	0.930765
H336	H	0.772520	1.587110	1.180765
Br337	Br	-0.920829	0.675529	-0.000054
Br338	Br	-0.670829	0.925529	0.249946
Br339	Br	-0.420829	1.175529	0.499946
Br340	Br	-0.170829	1.425529	0.749946
H341	H	-0.095231	0.477912	0.119631
H342	H	0.154769	0.727912	0.369631
H343	H	0.404769	0.977912	0.619631
H344	H	0.654769	1.227912	0.869631
Br345	Br	-0.242855	0.798324	0.589612
Br346	Br	0.007145	1.048324	0.839612
Br347	Br	0.257145	1.298324	1.089612
Br348	Br	0.507145	1.548324	1.339612
Br349	Br	-0.242853	0.798375	0.409942
Br350	Br	0.007147	1.048375	0.659942
Br351	Br	0.257147	1.298375	0.909942
Br352	Br	0.507147	1.548375	1.159942
H353	H	-0.865488	0.939305	-0.000123
H354	H	-0.615488	1.189305	0.249877
H355	H	-0.365488	1.439305	0.499877
H356	H	-0.115488	1.689305	0.749877
H357	H	-0.733375	0.937369	-0.000110
H358	H	-0.483375	1.187369	0.249890
H359	H	-0.233375	1.437369	0.499890
H360	H	0.016625	1.687369	0.749890
H361	H	-0.166129	0.244654	-0.091935
H362	H	0.083871	0.494654	0.158065
H363	H	0.333871	0.744654	0.408065
H364	H	0.583871	0.994654	0.658065
Br365	Br	0.057054	0.842177	0.589761
Br366	Br	0.307054	1.092177	0.839761
Br367	Br	0.557054	1.342177	1.089761
Br368	Br	0.807054	1.592177	1.339761
Br369	Br	0.019309	0.931931	0.824815
Br370	Br	0.269309	1.181931	1.074815
Br371	Br	0.519309	1.431931	1.324815
Br372	Br	0.769309	1.681931	1.574815
H373	H	-0.320310	0.701156	-0.000221
H374	H	-0.070310	0.951156	0.249779
H375	H	0.179690	1.201156	0.499779
H376	H	0.429690	1.451156	0.749779
H377	H	-0.179264	0.734302	0.804093
H378	H	0.070736	0.984302	1.054093
H379	H	0.320736	1.234302	1.304093
H380	H	0.570736	1.484302	1.554093
H381	H	-0.179253	0.734262	0.333883
H382	H	0.070747	0.984262	0.583883
H383	H	0.320747	1.234262	0.833883
H384	H	0.570747	1.484262	1.083883
H385	H	-0.090562	0.162545	-0.119933
H386	H	0.159438	0.412545	0.130067
H387	H	0.409438	0.662545	0.380067
H388	H	0.659438	0.912545	0.630067
Br389	Br	-0.088336	0.011463	-0.155782
Br390	Br	0.161664	0.261463	0.094218
Br391	Br	0.411664	0.511463	0.344218
Br392	Br	0.661664	0.761463	0.594218
Br393	Br	-0.205089	0.708517	0.174891
Br394	Br	0.044911	0.958517	0.424891
Br395	Br	0.294911	1.208517	0.674891
Br396	Br	0.544911	1.458517	0.924891
Br397	Br	-0.088326	0.011354	0.155431
Br398	Br	0.161674	0.261354	0.405431
Br399	Br	0.411674	0.511354	0.655431
Br400	Br	0.661674	0.761354	0.905431
