data_functionalizedCrystal
_audit_creation_method	'MofGen! by Chris Wilmer'
_symmetry_space_group_name_H-M	'P1'
_symmetry_Int_Tables_number	1
_symmetry_cell_setting	triclinic
loop_
_symmetry_equiv_pos_as_xyz
  x,y,z
_cell_length_a	12.594517
_cell_length_b	12.594516
_cell_length_c	12.594509
_cell_angle_alpha	90.027875
_cell_angle_beta	90.022214
_cell_angle_gamma	90.011248
loop_
_atom_site_label
_atom_site_type_symbol
_atom_site_fract_x
_atom_site_fract_y
_atom_site_fract_z
Zn1	Zn	1.627298	-0.423726	0.601888
Zn2	Zn	2.127298	0.076274	1.101888
Zn3	Zn	1.627202	-0.601736	0.423910
Zn4	Zn	2.127202	-0.101736	0.923910
Zn5	Zn	1.449302	-0.423770	0.423914
Zn6	Zn	1.949302	0.076230	0.923914
Zn7	Zn	1.449298	-0.601661	0.601838
Zn8	Zn	1.949298	-0.101661	1.101838
O9	O	1.538275	-0.512724	0.512888
O10	O	2.038275	-0.012724	1.012888
O11	O	1.776231	-0.447352	0.578298
O12	O	2.276231	0.052648	1.078298
O13	O	1.603565	-0.578179	0.274965
O14	O	2.103565	-0.078179	0.774965
O15	O	1.472956	-0.274819	0.447545
O16	O	1.972956	0.225181	0.947545
O17	O	1.776161	-0.578136	0.447539
O18	O	2.276161	-0.078136	0.947539
O19	O	1.603729	-0.274786	0.578302
O20	O	2.103729	0.225214	1.078302
O21	O	1.472863	-0.447428	0.274968
O22	O	1.972863	0.052572	0.774968
O23	O	1.300356	-0.447355	0.447496
O24	O	1.800356	0.052645	0.947496
O25	O	1.472948	-0.578008	0.750790
O26	O	1.972948	-0.078008	1.250790
O27	O	1.300352	-0.578051	0.578216
O28	O	1.800352	-0.078051	1.078216
O29	O	1.603724	-0.447280	0.750827
O30	O	2.103724	0.052720	1.250827
O31	O	1.603561	-0.750672	0.447490
O32	O	2.103561	-0.250672	0.947490
O33	O	1.472855	-0.750617	0.578213
O34	O	1.972855	-0.250617	1.078213
C35	C	1.261734	-0.512700	0.512852
C36	C	1.761734	-0.012700	1.012852
C37	C	1.143429	-0.512716	0.512862
C38	C	1.643429	-0.012716	1.012862
C39	C	1.538226	-0.789265	0.512869
C40	C	2.038226	-0.289265	1.012869
C41	C	1.538302	-0.907570	0.512897
C42	C	2.038302	-0.407570	1.012897
C43	C	1.003383	-0.441553	0.441926
C44	C	1.503383	0.058447	0.941926
C45	C	1.074240	-0.415620	0.539052
C46	C	1.574240	0.084380	1.039052
C47	C	1.074144	-0.538602	0.415746
C48	C	1.574144	-0.038602	0.915746
C49	C	1.003500	-0.486775	0.610117
C50	C	1.503500	0.013225	1.110117
C51	C	1.003398	-0.609802	0.486746
C52	C	1.503398	-0.109802	0.986746
C53	C	1.074222	-0.583905	0.583939
C54	C	1.574222	-0.083905	1.083939
C55	C	1.609476	-0.976814	0.441873
C56	C	2.109476	-0.476814	0.941873
C57	C	1.635486	-1.047511	0.539022
C58	C	2.135486	-0.547511	1.039022
C59	C	1.512425	-1.047672	0.415809
C60	C	2.012425	-0.547672	0.915809
C61	C	1.564362	-0.976708	0.610097
C62	C	2.064362	-0.476708	1.110097
C63	C	1.441256	-0.976863	0.486818
C64	C	1.941256	-0.476863	0.986818
C65	C	1.467229	-1.047528	0.584035
C66	C	1.967229	-0.547528	1.084035
C67	C	1.815896	-0.512748	0.512924
C68	C	2.315896	-0.012748	1.012924
C69	C	1.934201	-0.512758	0.512939
C70	C	2.434201	-0.012758	1.012939
C71	C	1.538346	-0.512630	0.790509
C72	C	2.038346	-0.012630	1.290509
C73	C	1.538377	-0.512591	0.908814
C74	C	2.038377	-0.012591	1.408814
C75	C	1.538354	-0.235103	0.512929
C76	C	2.038354	0.264897	1.012929
C77	C	1.538387	-0.116797	0.512947
C78	C	2.038387	0.383203	1.012947
C79	C	1.538265	-0.512740	0.236347
C80	C	2.038265	-0.012740	0.736347
C81	C	1.538441	-0.512479	0.118042
C82	C	2.038441	-0.012479	0.618042
C83	C	1.467270	-0.583653	0.978047
C84	C	1.967270	-0.083653	1.478047
C85	C	1.564392	-0.609660	1.048839
C86	C	2.064392	-0.109660	1.548839
C87	C	1.441330	-0.486519	1.048821
C88	C	1.941330	0.013481	1.548821
C89	C	1.635550	-0.538649	0.978048
C90	C	2.135550	-0.038649	1.478048
C91	C	1.512422	-0.415462	0.978024
C92	C	2.012422	0.084538	1.478024
C93	C	1.609612	-0.441433	1.048784
C94	C	2.109612	0.058567	1.548784
H95	H	0.972283	-0.381309	0.381979
H96	H	1.472283	0.118691	0.881979
H97	H	1.105338	-0.333530	0.561193
H98	H	1.605338	0.166470	1.061193
H99	H	1.586203	-0.945670	0.692295
H100	H	2.086203	-0.445670	1.192295
H101	H	1.105128	-0.644104	0.644029
H102	H	1.605128	-0.144104	1.144029
H103	H	1.407077	-1.078381	0.644189
H104	H	1.907077	-0.578381	1.144189
H105	H	1.359173	-0.945805	0.464703
H106	H	1.859173	-0.445805	0.964703
H107	H	0.972597	-0.464802	0.692303
H108	H	1.472597	0.035198	1.192303
H109	H	1.586380	-0.691752	1.079945
H110	H	2.086380	-0.191752	1.579945
H111	H	0.972257	-0.691864	0.464589
H112	H	1.472257	-0.191864	0.964589
H113	H	1.105178	-0.560477	0.333584
H114	H	1.605178	-0.060477	0.833584
H115	H	1.407184	-0.643842	0.946989
H116	H	1.907184	-0.143842	1.446989
H117	H	1.490502	-1.078842	0.333682
H118	H	1.990502	-0.578842	0.833682
H119	H	1.359232	-0.464514	1.079910
H120	H	1.859232	0.035486	1.579910
H121	H	1.717672	-0.560747	0.947090
H122	H	2.217672	-0.060747	1.447090
H123	H	1.717593	-1.078547	0.561108
H124	H	2.217593	-0.578547	1.061108
H125	H	1.669841	-0.381290	1.079646
H126	H	2.169841	0.118710	1.579646
H127	H	1.669674	-0.945764	0.381864
H128	H	2.169674	-0.445764	0.881864
H129	H	1.490406	-0.333394	0.946894
H130	H	1.990406	0.166606	1.446894
