data_functionalizedCrystal
_audit_creation_method	'MofGen! by Chris Wilmer'
_symmetry_space_group_name_H-M	'P1'
_symmetry_Int_Tables_number	1
_symmetry_cell_setting	triclinic
loop_
_symmetry_equiv_pos_as_xyz
  x,y,z
_cell_length_a	12.645331
_cell_length_b	21.295417
_cell_length_c	12.645323
_cell_angle_alpha	90.033992
_cell_angle_beta	90.022676
_cell_angle_gamma	90.029485
loop_
_atom_site_label
_atom_site_type_symbol
_atom_site_fract_x
_atom_site_fract_y
_atom_site_fract_z
Zn1	Zn	1.620637	-0.250621	0.599379
Zn2	Zn	2.120637	0.249379	1.099379
Zn3	Zn	1.620479	-0.355896	0.422091
Zn4	Zn	2.120479	0.144104	0.922091
Zn5	Zn	1.443351	-0.250643	0.422123
Zn6	Zn	1.943351	0.249357	0.922123
Zn7	Zn	1.443294	-0.355855	0.599306
Zn8	Zn	1.943294	0.144145	1.099306
O9	O	1.531940	-0.303254	0.510725
O10	O	2.031940	0.196746	1.010725
O11	O	1.768963	-0.264595	0.575878
O12	O	2.268963	0.235405	1.075878
O13	O	1.596941	-0.341960	0.273748
O14	O	2.096941	0.158040	0.773748
O15	O	1.466959	-0.162550	0.445681
O16	O	1.966959	0.337450	0.945681
O17	O	1.768847	-0.341939	0.445625
O18	O	2.268847	0.158061	0.945625
O19	O	1.597210	-0.162535	0.575910
O20	O	2.097210	0.337465	1.075910
O21	O	1.466806	-0.264631	0.273772
O22	O	1.966806	0.235369	0.773772
O23	O	1.294996	-0.264591	0.445610
O24	O	1.794996	0.235409	0.945610
O25	O	1.466860	-0.341869	0.747663
O26	O	1.966860	0.158131	1.247663
O27	O	1.294954	-0.341890	0.575786
O28	O	1.794954	0.158110	1.075786
O29	O	1.597154	-0.264555	0.747717
O30	O	2.097154	0.235445	1.247717
O31	O	1.596884	-0.443980	0.445555
O32	O	2.096884	0.056020	0.945555
O33	O	1.466707	-0.443950	0.575754
O34	O	1.966707	0.056050	1.075754
C35	C	1.256510	-0.303239	0.510694
C36	C	1.756510	0.196761	1.010694
C37	C	1.138680	-0.303247	0.510706
C38	C	1.638680	0.196753	1.010706
C39	C	0.971108	-0.254395	0.429265
C40	C	1.471108	0.245605	0.929265
C41	C	1.093667	-0.254521	0.428906
C42	C	1.593667	0.245479	0.928906
C43	C	1.094135	-0.369560	0.480174
C44	C	1.594135	0.130440	0.980174
C45	C	0.971537	-0.369293	0.479618
C46	C	1.471537	0.130707	0.979618
C47	C	0.971537	-0.286418	0.622995
C48	C	1.471537	0.213582	1.122995
C49	C	1.094144	-0.284937	0.622372
C50	C	1.594144	0.215063	1.122372
C51	C	1.531801	-0.466805	0.510666
C52	C	2.031801	0.033195	1.010666
C53	C	1.531839	-0.536773	0.510677
C54	C	2.031839	-0.036773	1.010677
C55	C	1.599682	-0.569635	0.442951
C56	C	2.099682	-0.069635	0.942951
C57	C	1.599732	-0.635377	0.442975
C58	C	2.099732	-0.135377	0.942975
C59	C	1.531919	-0.668256	0.510713
C60	C	2.031919	-0.168256	1.010713
C61	C	1.464071	-0.635386	0.578452
C62	C	1.964071	-0.135386	1.078452
C63	C	1.464031	-0.569645	0.578433
C64	C	1.964031	-0.069645	1.078433
N65	N	1.439183	-0.771521	0.518784
N66	N	1.939183	-0.271521	1.018784
N67	N	1.439224	-0.833972	0.518796
N68	N	1.939224	-0.333972	1.018796
C69	C	1.532038	-0.866331	0.510774
C70	C	2.032038	-0.366331	1.010774
N71	N	1.624811	-0.833879	0.502720
N72	N	2.124811	-0.333879	1.002720
N73	N	1.624768	-0.771421	0.502703
N74	N	2.124768	-0.271421	1.002703
C75	C	1.531956	-0.739541	0.510741
C76	C	2.031956	-0.239541	1.010741
C77	C	1.599941	-0.970478	0.443071
C78	C	2.099941	-0.470478	0.943071
C79	C	1.599993	-1.036221	0.443102
C80	C	2.099993	-0.536221	0.943102
C81	C	1.464322	-1.036229	0.578573
C82	C	1.964322	-0.536229	1.078573
C83	C	1.464280	-0.970487	0.578547
C84	C	1.964280	-0.470487	1.078547
C85	C	1.532088	-0.937615	0.510791
C86	C	2.032088	-0.437615	1.010791
C87	C	1.808445	-0.303269	0.510756
C88	C	2.308445	0.196731	1.010756
C89	C	1.926275	-0.303276	0.510770
C90	C	2.426275	0.196724	1.010770
C91	C	1.532018	-0.303205	0.787230
C92	C	2.032018	0.196795	1.287230
C93	C	1.532052	-0.303184	0.905061
C94	C	2.032052	0.196816	1.405061
C95	C	1.532109	-0.139063	0.510807
C96	C	2.032109	0.360937	1.010807
C97	C	1.532180	-0.069095	0.510842
C98	C	2.032180	0.430905	1.010842
C99	C	1.531923	-0.303257	0.235295
C100	C	2.031923	0.196743	0.735295
C101	C	1.532096	-0.303100	0.117466
C102	C	2.032096	0.196900	0.617466
C103	C	1.449831	-0.351594	1.072591
C104	C	1.949831	0.148406	1.572591
C105	C	1.450046	-0.351833	0.950031
C106	C	1.950046	0.148167	1.450031
C107	C	1.643744	-0.321189	0.949576
C108	C	2.143744	0.178811	1.449576
C109	C	1.643293	-0.321492	1.072174
C110	C	2.143293	0.178508	1.572174
C111	C	1.503635	-0.236500	1.072276
C112	C	2.003635	0.263500	1.572276
C113	C	1.501143	-0.236899	0.949670
C114	C	2.001143	0.263101	1.449670
H115	H	0.940659	-0.238907	0.650759
H116	H	1.440659	0.261093	1.150759
C117	C	1.674536	-0.934313	0.368559
C118	C	2.174536	-0.434313	0.868559
H119	H	1.664787	-0.890453	0.378238
H120	H	2.164787	-0.390453	0.878238
H121	H	1.745761	-0.945042	0.384147
H122	H	2.245761	-0.445042	0.884147
H123	H	1.659066	-0.945128	0.297315
H124	H	2.159066	-0.445128	0.797315
H125	H	1.468832	-0.401207	0.920704
H126	H	1.968832	0.098793	1.420704
H127	H	1.123290	-0.406953	0.537674
H128	H	1.623290	0.093047	1.037674
H129	H	1.706664	-0.287705	1.101861
H130	H	2.206664	0.212295	1.601861
C131	C	1.389730	-1.072385	0.653089
C132	C	1.889730	-0.572385	1.153089
H133	H	1.349320	-1.043395	0.693425
H134	H	1.849320	-0.543395	1.193425
H135	H	1.343578	-1.098075	0.612506
H136	H	1.843578	-0.598075	1.112506
H137	H	1.430283	-1.097985	0.699328
H138	H	1.930283	-0.597985	1.199328
H139	H	1.654982	-0.662138	0.387825
H140	H	2.154982	-0.162138	0.887825
H141	H	1.124785	-0.384101	0.399012
H142	H	1.624785	0.115899	0.899012
C143	C	1.338164	-0.336605	0.909364
C144	C	1.838164	0.163395	1.409364
H145	H	1.292169	-0.330220	0.967771
H146	H	1.792169	0.169780	1.467771
H147	H	1.340436	-0.299610	0.867489
H148	H	1.840436	0.200390	1.367489
H149	H	1.312851	-0.370600	0.867758
H150	H	1.812851	0.129400	1.367758
C151	C	1.389477	-0.671550	0.652959
C152	C	1.889477	-0.171550	1.152959
H153	H	1.399209	-0.715410	0.643263
H154	H	1.899209	-0.215410	1.143263
H155	H	1.404946	-0.660738	0.724198
H156	H	1.904946	-0.160738	1.224198
H157	H	1.318248	-0.660819	0.637369
H158	H	1.818248	-0.160819	1.137369
H159	H	1.667420	-0.370178	1.100771
H160	H	2.167420	0.129822	1.600771
C161	C	1.389398	-0.533493	0.652929
C162	C	1.889398	-0.033493	1.152929
H163	H	1.399090	-0.489632	0.643219
H164	H	1.899090	0.010368	1.143219
H165	H	1.318185	-0.544312	0.637357
H166	H	1.818185	-0.044312	1.137357
H167	H	1.404892	-0.544225	0.724178
H168	H	1.904892	-0.044225	1.224178
C169	C	1.728771	-0.274990	0.910225
C170	C	2.228771	0.225010	1.410225
H171	H	1.696831	-0.244240	0.866188
H172	H	2.196831	0.255760	1.366188
H173	H	1.761139	-0.254986	0.969094
H174	H	2.261139	0.245014	1.469094
H175	H	1.780791	-0.297246	0.871093
H176	H	2.280791	0.202754	1.371093
H177	H	1.563553	-0.200370	1.101300
H178	H	2.063553	0.299630	1.601300
C179	C	0.932826	-0.388598	0.368786
C180	C	1.432826	0.111402	0.868786
H181	H	0.992026	-0.396527	0.324522
H182	H	1.492026	0.103473	0.824522
H183	H	0.890969	-0.425517	0.374049
H184	H	1.390969	0.074483	0.874049
H185	H	0.891615	-0.355650	0.339399
H186	H	1.391615	0.144350	0.839399
C187	C	1.389638	-0.934337	0.653033
C188	C	1.889638	-0.434337	1.153033
H189	H	1.349250	-0.963332	0.693373
H190	H	1.849250	-0.463332	1.193373
H191	H	1.430144	-0.908647	0.699253
H192	H	1.930144	-0.408647	1.199253
H193	H	1.343451	-0.908737	0.612419
H194	H	1.843451	-0.408737	1.112419
H195	H	1.123787	-0.205348	0.448045
H196	H	1.623787	0.294652	0.948045
H197	H	1.366761	-0.340435	1.102068
H198	H	1.866761	0.159565	1.602068
C199	C	0.932369	-0.334509	0.705037
C200	C	1.432369	0.165491	1.205037
H201	H	0.888644	-0.364716	0.671120
H202	H	1.388644	0.135284	1.171120
H203	H	0.991324	-0.354983	0.736290
H204	H	1.491324	0.145017	1.236290
H205	H	0.892950	-0.313497	0.758302
H206	H	1.392950	0.186503	1.258302
H207	H	0.941662	-0.205074	0.448199
H208	H	1.441662	0.294926	0.948199
H209	H	1.123266	-0.236138	0.645395
H210	H	1.623266	0.263862	1.145395
C211	C	1.674624	-1.072369	0.368599
C212	C	2.174624	-0.572369	0.868599
H213	H	1.714991	-1.043374	0.328240
H214	H	2.214991	-0.543374	0.828240
H215	H	1.720813	-1.097972	0.409196
H216	H	2.220813	-0.597972	0.909196
H217	H	1.634100	-1.098057	0.322381
H218	H	2.134100	-0.598057	0.822381
C219	C	1.474946	-0.417876	1.114215
C220	C	1.974946	0.082124	1.614215
H221	H	1.535352	-0.416125	1.158817
H222	H	2.035352	0.083875	1.658817
H223	H	1.416244	-0.433304	1.153211
H224	H	1.916244	0.066696	1.653211
H225	H	1.488757	-0.445088	1.056292
H226	H	1.988757	0.054912	1.556292
C227	C	1.674280	-0.533479	0.368434
C228	C	2.174280	-0.033479	0.868434
H229	H	1.714700	-0.562470	0.328109
H230	H	2.214700	-0.062470	0.828109
H231	H	1.633742	-0.507873	0.322199
H232	H	2.133742	-0.007873	0.822199
H233	H	1.720438	-0.507795	0.409031
H234	H	2.220438	-0.007795	0.909031
C235	C	1.676897	-0.386272	0.908115
C236	C	2.176897	0.113728	1.408115
H237	H	1.622829	-0.402559	0.863690
H238	H	2.122829	0.097441	1.363690
H239	H	1.740687	-0.382535	0.868968
H240	H	2.240687	0.117465	1.368968
H241	H	1.687604	-0.413880	0.966119
H242	H	2.187604	0.086120	1.466119
H243	H	1.423608	-0.220088	1.103185
H244	H	1.923608	0.279912	1.603185
C245	C	1.390105	-0.218551	0.910372
C246	C	1.890105	0.281449	1.410372
H247	H	1.371856	-0.178413	0.937630
H248	H	1.871856	0.321587	1.437630
H249	H	1.389845	-0.217165	0.835289
H250	H	1.889845	0.282835	1.335289
H251	H	1.340104	-0.248754	0.933973
H252	H	1.840104	0.251246	1.433973
H253	H	1.556685	-0.198859	0.919059
H254	H	2.056685	0.301141	1.419059
H255	H	0.940256	-0.265413	0.346591
H256	H	1.440256	0.234587	0.846591
H257	H	1.122941	-0.265663	0.345743
H258	H	1.622941	0.234337	0.845743
C259	C	0.931459	-0.420161	0.556299
C260	C	1.431459	0.079839	1.056299
H261	H	0.856330	-0.420341	0.556484
H262	H	1.356330	0.079659	1.056484
H263	H	0.956677	-0.460069	0.534162
H264	H	1.456677	0.039931	1.034162
H265	H	0.956635	-0.411449	0.625566
H266	H	1.456635	0.088551	1.125566
C267	C	1.135520	-0.329531	0.708799
C268	C	1.635520	0.170469	1.208799
H269	H	1.180695	-0.360038	0.677774
H270	H	1.680695	0.139962	1.177774
H271	H	1.173853	-0.306116	0.760029
H272	H	1.673853	0.193884	1.260029
H273	H	1.077526	-0.349965	0.741901
H274	H	1.577526	0.150035	1.241901
