data_functionalizedCrystal
_audit_creation_method	'MofGen! by Chris Wilmer'
_symmetry_space_group_name_H-M	'P1'
_symmetry_Int_Tables_number	1
_symmetry_cell_setting	triclinic
loop_
_symmetry_equiv_pos_as_xyz
  x,y,z
_cell_length_a	14.519709
_cell_length_b	9.016244
_cell_length_c	14.519731
_cell_angle_alpha	90.003217
_cell_angle_beta	83.684499
_cell_angle_gamma	90.001728
loop_
_atom_site_label
_atom_site_type_symbol
_atom_site_fract_x
_atom_site_fract_y
_atom_site_fract_z
O1	O	1.223881	0.123151	0.120886
O2	O	0.955405	0.123196	0.135123
O3	O	1.096751	0.123159	-0.006233
O4	O	1.082535	0.123188	0.262242
O5	O	1.096730	-0.123522	-0.006229
O6	O	0.955384	-0.123484	0.135126
O7	O	1.223860	-0.123530	0.120889
Cu8	Cu	1.089620	-0.146031	0.128008
Cu9	Cu	1.089645	0.145697	0.128004
O10	O	1.082514	-0.123493	0.262245
C11	C	0.921035	-0.000138	0.134461
C12	C	0.818654	-0.000121	0.132473
N13	N	1.089610	-0.351217	0.128010
C14	C	0.443757	-0.000190	0.125153
C15	C	0.548065	-0.000170	0.127186
C16	C	0.631202	-0.000154	0.128813
C17	C	0.735517	-0.000137	0.130846
C18	C	1.013771	-0.586230	0.203376
C19	C	1.013935	-0.414339	0.203655
C20	C	1.185875	-0.413570	0.149187
C21	C	1.185460	-0.585514	0.149720
C22	C	1.070143	-0.585767	0.031215
C23	C	1.067926	-0.413813	0.031860
C24	C	1.258230	-0.000192	0.121551
C25	C	1.360612	-0.000200	0.123539
C26	C	1.096075	-0.000182	-0.040591
C27	C	1.094079	-0.000182	-0.142971
N28	N	1.089663	0.350883	0.127995
C29	C	1.092457	-0.000179	-0.226115
C30	C	1.090430	-0.000167	-0.330424
C31	C	1.088822	-0.000157	-0.413563
C32	C	1.086795	-0.000148	-0.517878
C33	C	1.083191	-0.000149	0.296603
C34	C	1.085187	-0.000138	0.398983
H35	H	0.942385	-0.372184	0.191013
H36	H	1.243706	-0.627112	0.096990
H37	H	1.026412	-0.373187	0.275472
C38	C	1.208645	-0.639671	0.245085
N39	N	1.226100	-0.680454	0.316918
H40	H	1.243699	-0.372680	0.095752
C41	C	1.209615	-0.355389	0.243469
N42	N	1.227488	-0.311575	0.314487
C43	C	0.916804	-0.642170	0.186592
N44	N	0.843768	-0.684324	0.173953
C45	C	0.977345	-0.644396	0.003776
N46	N	0.907444	-0.688554	-0.016881
H47	H	0.997112	-0.373061	0.015792
C48	C	1.137742	-0.355806	-0.047488
N49	N	1.190340	-0.312128	-0.107249
C50	C	1.030399	-0.644572	0.299850
N51	N	1.042927	-0.688517	0.372514
C52	C	1.144903	-0.640717	-0.044572
N53	N	1.201213	-0.682115	-0.101648
