data_functionalizedCrystal
_audit_creation_method	'MofGen! by Chris Wilmer'
_symmetry_space_group_name_H-M	'P1'
_symmetry_Int_Tables_number	1
_symmetry_cell_setting	triclinic
loop_
_symmetry_equiv_pos_as_xyz
  x,y,z
_cell_length_a	6.817900
_cell_length_b	19.453172
_cell_length_c	19.453114
_cell_angle_alpha	96.317064
_cell_angle_beta	101.709288
_cell_angle_gamma	101.710488
loop_
_atom_site_label
_atom_site_type_symbol
_atom_site_fract_x
_atom_site_fract_y
_atom_site_fract_z
V1	V	-3.998005	-0.097914	-0.219330
O2	O	-3.995098	0.003953	-0.214817
O3	O	-3.941032	-0.193423	-0.218154
O4	O	-3.941025	-0.096738	-0.314839
O5	O	-3.995104	-0.093402	-0.117463
V6	V	-4.483855	-0.085691	-0.207106
O7	O	-4.254158	-0.124727	-0.246143
O8	O	-4.677900	-0.058877	-0.180293
O9	O	-4.317622	0.009819	-0.208281
O10	O	-4.604159	-0.187557	-0.211619
O11	O	-4.604153	-0.090203	-0.308973
O12	O	-4.317628	-0.086867	-0.111597
C13	C	-3.784225	-0.216696	-0.214778
C14	C	-3.818872	-0.294778	-0.214454
C15	C	-4.247899	-0.855852	-0.216325
C16	C	-4.215361	-0.782485	-0.216625
C17	C	-4.017282	-0.742102	-0.212598
C18	C	-3.851722	-0.775088	-0.208253
C19	C	-3.884261	-0.848452	-0.207947
N20	N	-3.850595	-0.630535	-0.250130
N21	N	-3.819697	-0.560842	-0.250423
C22	C	-3.919231	-0.521058	-0.213521
N23	N	-4.050866	-0.553601	-0.176325
N24	N	-4.081774	-0.623301	-0.176035
C25	C	-3.981978	-0.662549	-0.212930
C26	C	-4.049499	-0.408526	-0.218186
C27	C	-4.016951	-0.335157	-0.218482
C28	C	-3.653311	-0.327762	-0.210117
C29	C	-3.685861	-0.401129	-0.209815
C30	C	-3.883960	-0.441507	-0.213853
C31	C	-3.784216	-0.093364	-0.338108
C32	C	-3.818856	-0.093034	-0.416189
C33	C	-4.016595	-0.096405	-0.456457
C34	C	-4.049143	-0.096096	-0.529823
C35	C	-3.883948	-0.092429	-0.562920
C36	C	-3.686179	-0.089054	-0.522641
C37	C	-3.653632	-0.089356	-0.449276
N38	N	-3.820875	-0.129523	-0.681834
N39	N	-3.851806	-0.129238	-0.751529
C40	C	-3.981996	-0.091516	-0.783965
N41	N	-4.080122	-0.054100	-0.744076
N42	N	-4.049196	-0.054389	-0.674375
C43	C	-3.919218	-0.092100	-0.642472
C44	C	-4.215040	-0.094551	-0.903785
C45	C	-4.247579	-0.094237	-0.977151
C46	C	-3.884612	-0.087202	-0.969969
C47	C	-3.852075	-0.087509	-0.896603
C48	C	-4.017299	-0.091187	-0.863516
C49	C	-4.137771	0.033088	-0.211656
C50	C	-4.082361	0.111169	-0.211984
C51	C	-4.137780	-0.090243	-0.088324
C52	C	-4.082379	-0.090569	-0.010242
H53	H	-3.551061	-0.427980	-0.206283
H54	H	-4.151759	-0.308307	-0.222013
H55	H	-4.408603	-0.096977	-1.009936
H56	H	-4.210174	-0.098844	-0.562617
H57	H	-3.749455	-0.875303	-0.204414
O58	O	-3.460796	-0.288554	-0.206077
C59	C	-3.328117	-0.294550	-0.142357
H60	H	-3.422468	-0.310103	-0.102010
H61	H	-3.214165	-0.241371	-0.120147
H62	H	-3.240432	-0.337024	-0.153388
O63	O	-3.724244	-0.083546	-1.002173
C64	C	-3.700372	-0.022002	-1.034645
H65	H	-3.852210	-0.004626	-1.045509
H66	H	-3.653597	-0.034050	-1.086905
H67	H	-3.576007	0.022434	-0.997781
H68	H	-3.690442	-0.742202	-0.204974
O69	O	-4.177299	-0.100067	-0.424414
C70	C	-4.327432	-0.163289	-0.454247
H71	H	-4.310050	-0.182457	-0.509736
H72	H	-4.487413	-0.152745	-0.457858
H73	H	-4.306236	-0.205788	-0.419270
O74	O	-4.440304	-0.895017	-0.220112
C75	C	-4.512935	-0.869616	-0.161630
H76	H	-4.376612	-0.840508	-0.116558
H77	H	-4.606745	-0.916277	-0.142808
H78	H	-4.614178	-0.831523	-0.178232
O79	O	-4.376037	-0.750386	-0.220718
C80	C	-4.338056	-0.698455	-0.160047
H81	H	-4.223728	-0.711689	-0.114864
H82	H	-4.488422	-0.697631	-0.143244
H83	H	-4.271311	-0.644055	-0.172971
O84	O	-4.241896	-0.447705	-0.221976
C85	C	-4.314551	-0.422321	-0.163493
H86	H	-4.178243	-0.393211	-0.118418
H87	H	-4.408340	-0.468993	-0.144679
H88	H	-4.415821	-0.384236	-0.180092
O89	O	-3.525820	-0.085401	-0.554853
C90	C	-3.501958	-0.023861	-0.587331
H91	H	-3.653798	-0.006485	-0.598194
H92	H	-3.455193	-0.035913	-0.639591
H93	H	-3.377590	0.020578	-0.550472
O94	O	-3.461539	-0.085986	-0.410098
C95	C	-3.400030	-0.024828	-0.357683
H96	H	-3.490504	0.016031	-0.375020
H97	H	-3.228457	-0.001220	-0.350388
H98	H	-3.431389	-0.039838	-0.305259
O99	O	-4.375730	-0.098212	-0.871732
C100	C	-4.525873	-0.161432	-0.901566
H101	H	-4.508511	-0.180596	-0.957059
H102	H	-4.685849	-0.150886	-0.905168
H103	H	-4.504671	-0.203935	-0.866595
O104	O	-3.660133	-0.084267	-0.857382
C105	C	-3.666853	-0.085368	-0.785539
H106	H	-3.806652	-0.066029	-0.775025
H107	H	-3.520681	-0.049014	-0.749895
H108	H	-3.678657	-0.141947	-0.773602
