data_functionalizedCrystal
_audit_creation_method	'MofGen! by Chris Wilmer'
_symmetry_space_group_name_H-M	'P1'
_symmetry_Int_Tables_number	1
_symmetry_cell_setting	triclinic
loop_
_symmetry_equiv_pos_as_xyz
  x,y,z
_cell_length_a	6.817900
_cell_length_b	15.301126
_cell_length_c	16.418042
_cell_angle_alpha	95.179687
_cell_angle_beta	103.389568
_cell_angle_gamma	104.177575
loop_
_atom_site_label
_atom_site_type_symbol
_atom_site_fract_x
_atom_site_fract_y
_atom_site_fract_z
V1	V	-4.029051	-0.125492	-0.261410
O2	O	-4.012948	0.005276	-0.256172
O3	O	-3.983989	-0.248105	-0.259874
O4	O	-3.980081	-0.123893	-0.375305
O5	O	-4.016883	-0.119796	-0.139942
V6	V	-4.512320	-0.109812	-0.246851
O7	O	-4.290866	-0.159889	-0.293346
O8	O	-4.700703	-0.075415	-0.214914
O9	O	-4.334176	0.012801	-0.248386
O10	O	-4.645821	-0.240581	-0.252089
O11	O	-4.641886	-0.115509	-0.368319
O12	O	-4.338084	-0.111411	-0.132956
C13	C	-3.829821	-0.277985	-0.255815
C14	C	-3.874260	-0.378224	-0.255318
C15	C	-4.077354	-0.429922	-0.259272
C16	C	-4.119101	-0.524108	-0.258811
C17	C	-3.957747	-0.566594	-0.254389
C18	C	-3.754637	-0.514891	-0.250437
C19	C	-3.712897	-0.420707	-0.250905
C20	C	-3.841649	-0.711199	-0.249461
C21	C	-3.883391	-0.805388	-0.248991
C22	C	-4.247853	-0.814599	-0.257366
C23	C	-4.206113	-0.720416	-0.257834
C24	C	-4.003004	-0.668719	-0.253881
C25	C	-3.824834	-0.119539	-0.403057
C26	C	-3.866102	-0.119043	-0.496169
C27	C	-4.143216	-0.122397	-0.714661
C28	C	-4.181971	-0.121923	-0.802148
C29	C	-3.817512	-0.112903	-0.793587
C30	C	-3.778756	-0.113370	-0.706101
C31	C	-3.941617	-0.118122	-0.666641
C32	C	-4.019129	-0.117180	-0.841614
C33	C	-4.061148	-0.116666	-0.936470
C34	C	-3.899595	-0.118635	-0.571778
C35	C	-4.151687	0.042676	-0.252443
C36	C	-4.086485	0.142915	-0.252945
C37	C	-4.156673	-0.115768	-0.105199
C38	C	-4.094644	-0.116260	-0.012086
H39	H	-3.752013	-0.839982	-0.245416
H40	H	-3.676264	-0.669110	-0.246248
H41	H	-3.623266	-0.549491	-0.246842
C42	C	-4.477013	-0.204534	-0.916945
C43	C	-4.403574	-0.126625	-0.854935
H44	H	-4.613821	-0.207432	-0.949535
H45	H	-4.481478	-0.257370	-0.890400
H46	H	-4.385558	-0.201628	-0.952963
H47	H	-4.495021	-0.129535	-0.818913
H48	H	-4.399123	-0.073776	-0.881481
C49	C	-4.481976	-0.208131	-0.706470
C50	C	-4.322226	-0.127611	-0.671287
H51	H	-4.592496	-0.211343	-0.679696
H52	H	-4.427911	-0.259196	-0.698129
H53	H	-4.533884	-0.208452	-0.765446
H54	H	-4.270307	-0.127292	-0.612311
H55	H	-4.376298	-0.076533	-0.679620
H56	H	-3.547521	-0.378617	-0.247689
C57	C	-4.332635	-0.607498	-0.190853
C58	C	-4.383476	-0.673715	-0.262691
H59	H	-4.442143	-0.578673	-0.193852
H60	H	-4.205720	-0.563235	-0.188571
H61	H	-4.315596	-0.635684	-0.141414
H62	H	-4.400499	-0.645528	-0.312130
H63	H	-4.510426	-0.717985	-0.264981
C64	C	-4.533368	-0.839086	-0.191990
C65	C	-4.471120	-0.871414	-0.261710
H66	H	-4.671194	-0.874166	-0.194666
H67	H	-4.531581	-0.776921	-0.192906
H68	H	-4.439557	-0.844264	-0.141114
H69	H	-4.564922	-0.866231	-0.312587
H70	H	-4.472923	-0.933596	-0.260803
H71	H	-4.208749	-0.395335	-0.262865
H72	H	-4.284477	-0.566196	-0.262032
H73	H	-3.684923	-0.109036	-0.825726
H74	H	-3.614579	-0.109882	-0.667000
