data_functionalizedCrystal
_audit_creation_method	'MofGen! by Chris Wilmer'
_symmetry_space_group_name_H-M	'P1'
_symmetry_Int_Tables_number	1
_symmetry_cell_setting	triclinic
loop_
_symmetry_equiv_pos_as_xyz
  x,y,z
_cell_length_a	10.489741
_cell_length_b	13.339070
_cell_length_c	8.965430
_cell_angle_alpha	90.000013
_cell_angle_beta	90.005579
_cell_angle_gamma	100.084234
loop_
_atom_site_label
_atom_site_type_symbol
_atom_site_fract_x
_atom_site_fract_y
_atom_site_fract_z
O1	O	-1.743026	-0.143089	0.123939
O2	O	-1.376429	-0.156520	0.123961
O3	O	-1.517654	-0.002235	0.123948
O4	O	-1.601801	-0.297375	0.123952
O5	O	-1.517665	-0.002239	-0.124131
O6	O	-1.376440	-0.156525	-0.124118
O7	O	-1.743037	-0.143094	-0.124140
Cu8	Cu	-1.559740	-0.149810	-0.146780
Cu9	Cu	-1.559727	-0.149804	0.146602
O10	O	-1.601812	-0.297379	-0.124127
C11	C	-1.328555	-0.155508	-0.000075
C12	C	-1.185887	-0.152473	-0.000066
C13	C	-1.503446	0.035556	-0.000088
C14	C	-1.461077	0.148166	-0.000080
C15	C	-1.790911	-0.144106	-0.000100
C16	C	-1.933579	-0.147141	-0.000099
C17	C	-1.084140	-0.054306	-0.000082
C18	C	-1.007883	-0.100677	0.122232
C19	C	-1.007936	-0.100705	-0.122355
C20	C	-1.111510	-0.198885	0.122348
C21	C	-1.111567	-0.198899	-0.122348
C22	C	-1.035363	-0.245341	-0.000005
C23	C	-1.616021	-0.335170	-0.000087
C24	C	-1.658390	-0.447780	-0.000086
N25	N	-1.559758	-0.149813	-0.353129
C26	C	-1.790514	0.510559	-0.000101
C27	C	-1.830326	0.404756	-0.000117
C28	C	-1.738017	0.340604	-0.000107
C29	C	-1.605890	0.382264	-0.000082
C30	C	-1.566074	0.488077	-0.000077
C31	C	-1.513577	0.318122	-0.000084
C32	C	-1.381449	0.359782	-0.000058
C33	C	-1.341641	0.465585	-0.000053
C34	C	-1.433949	0.529738	-0.000062
C35	C	-1.553392	0.212309	-0.000088
C36	C	-1.328952	0.189827	-0.000065
C37	C	-1.289140	0.295630	-0.000048
C38	C	-1.625100	-0.078466	-0.450401
C39	C	-1.502573	-0.057925	-0.549799
C40	C	-1.682217	-0.170289	-0.549859
C41	C	-1.437156	-0.129226	-0.450338
C42	C	-1.616891	-0.241631	-0.450390
C43	C	-1.494293	-0.221128	-0.549742
N44	N	-1.559716	-0.149793	0.352951
H45	H	-0.962644	-0.059138	0.225640
H46	H	-1.156826	-0.240404	-0.225761
H47	H	-1.770440	0.254455	-0.000121
H48	H	-1.181560	0.329565	-0.000029
H49	H	-1.156542	-0.240387	0.225871
H50	H	-1.106202	0.026394	0.000070
H51	H	-1.401541	0.615892	-0.000043
H52	H	-0.962736	-0.059152	-0.225761
H53	H	-1.333521	-0.111811	-0.406807
O54	O	-1.009445	-0.341732	0.000332
C55	C	-1.033345	-0.502337	0.129552
C56	C	-1.062764	-0.393198	0.129365
H57	H	-1.076462	-0.543986	0.233848
H58	H	-0.924072	-0.499384	0.128653
H59	H	-1.077801	-0.544463	0.026218
H60	H	-1.018390	-0.351010	0.232682
H61	H	-1.172050	-0.396225	0.130187
O62	O	-1.690742	-0.006321	-0.398418
C63	C	-1.704641	0.172007	-0.390169
C64	C	-1.630175	0.090409	-0.449113
H65	H	-1.655718	0.250230	-0.431158
H66	H	-1.704802	0.170922	-0.263019
H67	H	-1.808600	0.155261	-0.432778
H68	H	-1.526184	0.107100	-0.406614
H69	H	-1.630120	0.091513	-0.576261
H70	H	-1.665265	-0.319263	-0.406690
O71	O	-1.428372	-0.293224	-0.601286
C72	C	-1.412901	-0.471302	-0.607073
C73	C	-1.487662	-0.389762	-0.548566
H74	H	-1.460823	-0.549374	-0.564499
H75	H	-1.308534	-0.453731	-0.565916
H76	H	-1.414047	-0.471166	-0.734223
H77	H	-1.486619	-0.389853	-0.421420
H78	H	-1.591992	-0.407362	-0.589837
O79	O	-1.805867	-0.190872	-0.601775
C80	C	-2.014487	-0.138899	-0.610175
C81	C	-1.874492	-0.115476	-0.551299
H82	H	-2.070003	-0.077943	-0.569415
H83	H	-2.063786	-0.216567	-0.567484
H84	H	-2.013282	-0.139493	-0.737320
H85	H	-1.875580	-0.114827	-0.424159
H86	H	-1.825250	-0.037824	-0.594104
O87	O	-1.681745	0.171894	0.000163
C88	C	-1.885762	0.158799	0.128628
C89	C	-1.740409	0.204615	0.128540
H90	H	-1.933239	0.185253	0.232394
H91	H	-1.898446	0.072152	0.128723
H92	H	-1.933227	0.185131	0.024757
H93	H	-1.692850	0.178362	0.232393
H94	H	-1.727817	0.291256	0.128367
H95	H	-1.937903	0.370844	-0.000140
O96	O	-1.880222	0.572831	-0.000376
C97	C	-2.059912	0.624386	-0.128875
C98	C	-1.958358	0.553822	-0.128764
H99	H	-2.123130	0.609027	-0.232649
H100	H	-2.008828	0.707184	-0.128967
H101	H	-2.123022	0.609137	-0.025013
H102	H	-1.895218	0.568979	-0.232608
H103	H	-2.009524	0.471047	-0.128594
H104	H	-1.454226	0.019731	-0.593466
H105	H	-1.234054	0.499501	-0.000043
H106	H	-1.253786	0.137593	-0.000064
