data_functionalizedCrystal
_audit_creation_method	'MofGen! by Chris Wilmer'
_symmetry_space_group_name_H-M	'P1'
_symmetry_Int_Tables_number	1
_symmetry_cell_setting	triclinic
loop_
_symmetry_equiv_pos_as_xyz
  x,y,z
_cell_length_a	10.489741
_cell_length_b	19.188924
_cell_length_c	9.565339
_cell_angle_alpha	89.998167
_cell_angle_beta	89.999100
_cell_angle_gamma	83.840569
loop_
_atom_site_label
_atom_site_type_symbol
_atom_site_fract_x
_atom_site_fract_y
_atom_site_fract_z
O1	O	1.691846	0.098498	-0.116181
O2	O	1.320443	0.107744	-0.116203
O3	O	1.516867	0.001537	-0.116175
O4	O	1.495422	0.204705	-0.116209
O5	O	1.516852	0.001543	0.116345
O6	O	1.320428	0.107750	0.116317
O7	O	1.691830	0.098504	0.116339
Zn8	Zn	1.506127	0.103128	0.153246
Zn9	Zn	1.506147	0.103120	-0.153110
O10	O	1.495407	0.204711	0.116311
C11	C	1.272919	0.107049	0.000054
C12	C	1.131337	0.104959	0.000046
C13	C	1.064711	0.037383	0.000071
C14	C	0.971876	0.069302	-0.114576
C15	C	0.971895	0.069325	0.114670
C16	C	1.040367	0.136906	-0.114695
C17	C	1.040395	0.136920	0.114654
C18	C	0.947587	0.168888	-0.000021
C19	C	1.516166	-0.024476	0.000086
C20	C	1.514086	-0.101995	0.000090
C21	C	1.513124	-0.138404	-0.126657
C22	C	1.511151	-0.211239	-0.126668
C23	C	1.510166	-0.247665	0.000076
C24	C	1.511122	-0.211247	0.126840
C25	C	1.513081	-0.138412	0.126847
N26	N	1.579664	-0.366860	0.094412
N27	N	1.577805	-0.436051	0.094397
C28	C	1.504258	-0.467114	0.000062
N29	N	1.432657	-0.426374	-0.094278
N30	N	1.434522	-0.357177	-0.094267
C31	C	1.508040	-0.326643	0.000082
C32	C	1.501155	-0.582500	-0.126705
C33	C	1.499174	-0.655337	-0.126711
C34	C	1.499158	-0.655344	0.126800
C35	C	1.501126	-0.582508	0.126802
C36	C	1.502130	-0.546090	0.000045
C37	C	1.739354	0.099199	0.000079
C38	C	1.880937	0.101289	0.000078
C39	C	1.496107	0.230724	0.000047
C40	C	1.498188	0.308243	0.000034
N41	N	1.506122	0.103134	0.362325
N42	N	1.506162	0.103109	-0.362189
C43	C	1.415255	0.152235	0.453515
C44	C	1.530436	0.166362	0.546698
C45	C	1.390991	0.089013	0.546697
C46	C	1.621360	0.117293	0.453457
C47	C	1.481840	0.039916	0.453447
C48	C	1.597104	0.054016	0.546588
H49	H	0.896917	0.224499	-0.000093
H50	H	1.510359	-0.240889	-0.229884
H51	H	1.070795	0.165492	0.211577
C52	C	1.516078	-0.026765	0.239416
C53	C	1.514146	-0.098386	0.266176
H54	H	1.516729	-0.002055	0.325434
H55	H	1.590761	-0.019785	0.187354
H56	H	1.442039	-0.009881	0.187328
H57	H	1.588190	-0.115271	0.318256
H58	H	1.439455	-0.105370	0.318260
H59	H	0.941551	0.040722	0.211596
C60	C	1.045724	0.140308	-0.365532
C61	C	1.081114	0.175468	-0.245700
H62	H	1.070876	0.164116	-0.446405
H63	H	1.086890	0.093741	-0.365192
H64	H	0.955399	0.139234	-0.366275
H65	H	1.171441	0.176538	-0.244951
H66	H	1.039952	0.222048	-0.246040
C67	C	0.797594	0.029722	-0.244653
C68	C	0.930872	0.030710	-0.245421
H69	H	0.772288	0.005899	-0.325436
H70	H	0.773006	0.006158	-0.163257
H71	H	0.757101	0.076441	-0.244770
H72	H	0.971365	-0.016009	-0.245293
H73	H	0.955473	0.054272	-0.326839
C74	C	1.311909	0.207352	0.251952
C75	C	1.311615	0.208335	0.398325
H76	H	1.247926	0.241984	0.217881
H77	H	1.393539	0.216937	0.218670
H78	H	1.294441	0.162469	0.220038
H79	H	1.329093	0.253217	0.430240
H80	H	1.229967	0.198755	0.431621
H81	H	1.551001	0.219813	0.587658
C82	C	1.508121	-0.322904	0.239389
C83	C	1.510039	-0.251284	0.266159
H84	H	1.507454	-0.347618	0.325404
H85	H	1.433451	-0.329884	0.187308
H86	H	1.582173	-0.339783	0.187316
H87	H	1.435981	-0.234403	0.318223
H88	H	1.584717	-0.244299	0.318262
H89	H	1.293611	0.077080	0.587657
H90	H	1.501966	-0.552847	-0.229918
H91	H	1.674048	0.012480	0.587198
H92	H	1.513938	-0.108757	-0.229872
H93	H	1.498346	-0.685000	0.229997
C94	C	1.499446	-0.648013	-0.377291
C95	C	1.498136	-0.695362	-0.266043
H96	H	1.498819	-0.672726	-0.463308
H97	H	1.425851	-0.614657	-0.372044
H98	H	1.574573	-0.624554	-0.371978
H99	H	1.423004	-0.718818	-0.271351
H100	H	1.571739	-0.728731	-0.271293
H101	H	1.718762	0.129290	0.412672
H102	H	1.115645	-0.018169	-0.000063
C103	C	1.500939	-0.589835	0.377377
C104	C	1.502212	-0.542484	0.266129
H105	H	1.501617	-0.565125	0.463394
H106	H	1.425815	-0.613287	0.372106
H107	H	1.574537	-0.623199	0.372089
H108	H	1.428608	-0.509123	0.271411
H109	H	1.577344	-0.519020	0.271402
H110	H	1.461239	-0.013519	0.412455
