data_functionalizedCrystal
_audit_creation_method	'MofGen! by Chris Wilmer'
_symmetry_space_group_name_H-M	'P1'
_symmetry_Int_Tables_number	1
_symmetry_cell_setting	triclinic
loop_
_symmetry_equiv_pos_as_xyz
  x,y,z
_cell_length_a	12.759401
_cell_length_b	15.298852
_cell_length_c	12.759393
_cell_angle_alpha	99.704102
_cell_angle_beta	90.020938
_cell_angle_gamma	80.334674
loop_
_atom_site_label
_atom_site_type_symbol
_atom_site_fract_x
_atom_site_fract_y
_atom_site_fract_z
Zn1	Zn	1.678641	-0.359066	0.521699
Zn2	Zn	1.708944	-0.509945	0.315630
Zn3	Zn	1.502950	-0.359114	0.346025
Zn4	Zn	1.533331	-0.509882	0.491280
O5	O	1.605966	-0.434502	0.418658
O6	O	1.829683	-0.379087	0.494374
O7	O	1.681586	-0.489984	0.172631
O8	O	1.500859	-0.232867	0.394779
O9	O	1.851947	-0.489937	0.342976
O10	O	1.629939	-0.232832	0.523846
O11	O	1.530242	-0.379169	0.194962
O12	O	1.359957	-0.379108	0.365283
O13	O	1.552639	-0.489830	0.642346
O14	O	1.382278	-0.489876	0.472001
O15	O	1.659398	-0.379026	0.664694
O16	O	1.711045	-0.636177	0.313480
O17	O	1.582023	-0.636131	0.442529
C18	C	1.332997	-0.434491	0.418640
C19	C	1.216224	-0.434508	0.418652
C20	C	1.173029	-0.492273	0.474097
C21	C	1.063306	-0.492276	0.474117
C22	C	1.039980	-0.376747	0.363239
C23	C	1.149701	-0.376740	0.363226
C24	C	1.653148	-0.668887	0.371428
C25	C	1.673428	-0.769158	0.351258
C26	C	1.461707	-1.051834	0.562919
C27	C	1.442655	-0.957624	0.581877
C28	C	1.500346	-0.910503	0.524224
C29	C	1.577093	-0.957600	0.447609
C30	C	1.596153	-1.051819	0.428655
C31	C	1.634792	-0.910488	0.389960
C32	C	1.711539	-0.957586	0.313345
C33	C	1.730595	-1.051795	0.294394
C34	C	1.672904	-1.098916	0.352047
C35	C	1.615733	-0.816270	0.408914
C36	C	1.750179	-0.816255	0.274650
C37	C	1.769231	-0.910464	0.255692
C38	C	1.880002	-0.434514	0.418678
C39	C	1.996780	-0.434519	0.418686
C40	C	1.606028	-0.434415	0.692709
C41	C	1.606054	-0.434378	0.809493
C42	C	1.558630	-0.199202	0.466096
C43	C	1.538458	-0.098931	0.486311
C44	C	1.605953	-0.434523	0.145687
C45	C	1.606079	-0.434306	0.028954
C46	C	1.661646	-0.376674	0.875996
C47	C	1.661656	-0.376635	0.985728
C48	C	1.550480	-0.492013	0.962444
C49	C	1.550464	-0.492047	0.852715
H50	H	1.028143	-0.539313	0.519268
H51	H	1.184868	-0.329695	0.318077
Br52	Br	1.511581	-0.752363	0.512889
Br53	Br	1.737086	-0.298408	0.817342
Br54	Br	1.737115	-0.298324	1.075977
Br55	Br	1.475045	-0.570277	1.021108
H56	H	1.484829	-0.833793	0.539664
Br57	Br	1.834769	-1.115712	0.190434
Br58	Br	0.949694	-0.298352	0.288021
H59	H	1.414748	-1.090208	0.609858
Br60	Br	1.475001	-0.570358	0.762454
Br61	Br	1.263307	-0.570670	0.549321
H62	H	1.380169	-0.919281	0.644257
H63	H	1.688405	-1.175629	0.336609
H64	H	1.831720	-0.948824	0.193312
Br65	Br	1.828486	-0.752313	0.196408
