data_functionalizedCrystal
_audit_creation_method	'MofGen! by Chris Wilmer'
_symmetry_space_group_name_H-M	'P1'
_symmetry_Int_Tables_number	1
_symmetry_cell_setting	triclinic
loop_
_symmetry_equiv_pos_as_xyz
  x,y,z
_cell_length_a	10.540510
_cell_length_b	10.540510
_cell_length_c	9.016244
_cell_angle_alpha	89.992396
_cell_angle_beta	90.002743
_cell_angle_gamma	95.486689
loop_
_atom_site_label
_atom_site_type_symbol
_atom_site_fract_x
_atom_site_fract_y
_atom_site_fract_z
O1	O	-0.178718	1.685896	-0.123352
O2	O	-0.195613	1.316476	-0.123353
O3	O	-0.002455	1.509634	-0.123340
O4	O	-0.371875	1.492738	-0.123364
O5	O	-0.002460	1.509605	0.123340
O6	O	-0.195617	1.316448	0.123328
O7	O	-0.178722	1.685867	0.123329
Cu8	Cu	-0.187170	1.501155	0.145852
Cu9	Cu	-0.187165	1.501189	-0.145876
O10	O	-0.371879	1.492710	0.123317
C11	C	-0.194356	1.269159	-0.000013
C12	C	-0.190589	1.128209	-0.000013
C13	C	-0.324775	0.910739	-0.000588
C14	C	-0.328793	1.057334	-0.000023
C15	C	-0.119845	1.083441	0.140855
C16	C	-0.116805	0.936680	0.140964
C17	C	-0.113922	0.936906	-0.139557
C18	C	-0.120478	1.083247	-0.141411
C19	C	-0.419181	1.493983	-0.000027
C20	C	-0.560130	1.497750	-0.000036
C21	C	-0.777600	1.363564	0.000548
C22	C	-0.631005	1.359546	-0.000031
C23	C	-0.604896	1.568514	-0.140894
C24	C	-0.751657	1.571553	-0.140989
C25	C	-0.751435	1.574398	0.139533
C26	C	-0.605095	1.567842	0.141372
C27	C	0.044846	1.508361	-0.000000
C28	C	0.185795	1.504594	-0.000000
C29	C	-0.179979	1.733185	-0.000015
C30	C	-0.183746	1.874135	-0.000024
N31	N	-0.187173	1.501141	0.351039
N32	N	-0.187152	1.501213	-0.351062
C33	C	-0.290153	1.397497	0.586064
C34	C	-0.290538	1.397726	0.414173
C35	C	-0.217293	1.633862	0.413375
C36	C	-0.218022	1.633296	0.585320
C37	C	-0.053736	1.473381	0.585591
C38	C	-0.054601	1.470335	0.413636
H39	H	-0.171951	1.111872	-0.245624
H40	H	-0.144320	1.712926	0.372475
N41	N	-0.835222	1.292666	-0.132514
H42	H	-0.931065	1.291922	-0.129044
H43	H	-0.801868	1.336465	-0.226258
N44	N	-0.420531	1.420888	0.643246
H45	H	-0.486132	1.353853	0.602329
H46	H	-0.420858	1.416487	0.755145
H47	H	-0.819556	1.309707	0.101567
N48	N	-0.542120	1.703287	-0.147852
H49	H	-0.483916	1.719807	-0.059552
H50	H	-0.490798	1.715157	-0.242266
N51	N	-0.807625	1.516525	0.280977
H52	H	-0.848146	1.583694	0.339504
H53	H	-0.874302	1.444454	0.255916
N54	N	-0.344773	1.666830	0.356327
H55	H	-0.363302	1.752389	0.397058
H56	H	-0.342695	1.670587	0.244414
H57	H	-0.157504	0.894366	-0.246328
N58	N	0.013178	1.148249	-0.152683
H59	H	0.030253	1.208027	-0.065899
H60	H	0.076274	1.081927	-0.151476
H61	H	-0.013438	0.913695	0.147370
N62	N	-0.593392	1.285756	-0.133975
H63	H	-0.672086	1.255729	-0.192882
H64	H	-0.533388	1.342537	-0.198096
N65	N	0.023525	0.907589	-0.140818
H66	H	0.040538	0.853917	-0.051494
H67	H	0.040903	0.859432	-0.234332
H68	H	-0.791889	1.523215	-0.246283
H69	H	-0.774642	1.674921	-0.147386
N70	N	-0.564052	1.503461	-0.279768
H71	H	-0.516562	1.428167	-0.251761
H72	H	-0.641801	1.473094	-0.340122
N73	N	-0.567122	1.499695	0.279415
H74	H	-0.520990	1.423731	0.250491
H75	H	-0.509077	1.559926	0.341847
N76	N	-0.540071	1.701487	0.152667
H77	H	-0.480284	1.718570	0.065885
H78	H	-0.606375	1.764601	0.151480
H79	H	0.025729	1.540872	0.370666
N80	N	0.047821	1.573542	0.639438
H81	H	0.007676	1.636649	0.704547
H82	H	0.113743	1.531407	0.698235
H83	H	-0.601657	1.304168	0.100931
N84	N	0.014920	1.146236	0.147833
H85	H	0.076746	1.078713	0.146447
H86	H	0.031332	1.204451	0.059523
H87	H	-0.773582	1.678160	0.140492
H88	H	-0.272418	1.299111	0.372030
H89	H	-0.272311	1.298572	0.627459
H90	H	-0.025066	1.378645	0.629040
H91	H	-0.389522	1.415616	0.373020
H92	H	-0.384138	1.086686	-0.101007
H93	H	-0.378616	0.868792	-0.101613
H94	H	-0.315358	1.657641	0.625403
N95	N	-0.122498	1.738640	0.640462
H96	H	-0.034759	1.724048	0.603028
H97	H	-0.146603	1.823333	0.602811
N98	N	-0.395697	0.853101	0.132462
H99	H	-0.336869	0.803381	0.193100
H100	H	-0.426624	0.923269	0.195252
N101	N	-0.024394	1.340962	0.359778
H102	H	-0.096270	1.302462	0.295085
H103	H	0.057294	1.350344	0.300556
N104	N	-0.184913	1.124261	0.279732
H105	H	-0.183531	1.220194	0.281353
H106	H	-0.276091	1.084848	0.281041
N107	N	-0.402552	1.094934	0.133955
H108	H	-0.359347	1.067799	0.227152
H109	H	-0.405467	1.190425	0.134750
N110	N	-0.180847	0.883373	0.280434
H111	H	-0.210785	0.955243	0.341263
H112	H	-0.256338	0.821533	0.253009
