data_functionalizedCrystal
_audit_creation_method	'MofGen! by Chris Wilmer'
_symmetry_space_group_name_H-M	'P1'
_symmetry_Int_Tables_number	1
_symmetry_cell_setting	triclinic
loop_
_symmetry_equiv_pos_as_xyz
  x,y,z
_cell_length_a	12.759401
_cell_length_b	12.759394
_cell_length_c	12.759393
_cell_angle_alpha	90.030600
_cell_angle_beta	90.018567
_cell_angle_gamma	90.012900
loop_
_atom_site_label
_atom_site_type_symbol
_atom_site_fract_x
_atom_site_fract_y
_atom_site_fract_z
Zn1	Zn	1.606262	-0.418231	0.593990
Zn2	Zn	1.606158	-0.593950	0.418313
Zn3	Zn	1.430564	-0.418283	0.418330
Zn4	Zn	1.430555	-0.593866	0.593955
O5	O	1.518385	-0.506083	0.506147
O6	O	1.753269	-0.441555	0.570695
O7	O	1.582826	-0.570704	0.271294
O8	O	1.453917	-0.271255	0.441653
O9	O	1.753193	-0.570654	0.441626
O10	O	1.583002	-0.271217	0.570710
O11	O	1.453817	-0.441642	0.271306
O12	O	1.283541	-0.441561	0.441618
O13	O	1.453902	-0.570511	0.740981
O14	O	1.283535	-0.570561	0.570649
O15	O	1.582993	-0.441473	0.741007
O16	O	1.582817	-0.740960	0.441591
O17	O	1.453802	-0.740898	0.570634
C18	C	1.245417	-0.506058	0.506132
C19	C	1.128641	-0.506073	0.506151
C20	C	1.073811	-0.438977	0.573461
C21	C	0.964087	-0.438997	0.573468
C22	C	0.964032	-0.573217	0.438851
C23	C	1.073754	-0.573191	0.438840
C24	C	1.128698	-0.371859	0.640773
C25	C	1.073868	-0.304758	0.708089
C26	C	0.964144	-0.304779	0.708096
C27	C	0.909250	-0.371899	0.640786
C28	C	1.518326	-0.779050	0.506130
C29	C	1.518397	-0.895827	0.506157
C30	C	1.652713	-0.895629	0.640646
C31	C	1.719903	-0.950391	0.707897
C32	C	1.719966	-1.060113	0.707920
C33	C	1.652828	-1.115075	0.640686
C34	C	1.585637	-1.060313	0.573434
C35	C	1.585584	-0.950589	0.573416
C36	C	1.451318	-1.060511	0.438953
C37	C	1.451260	-0.950789	0.438923
C38	C	1.384181	-1.115473	0.371718
C39	C	1.316994	-1.060711	0.304459
C40	C	1.316935	-0.950982	0.304439
C41	C	1.384069	-0.896027	0.371671
C42	C	1.792418	-0.506108	0.506162
C43	C	1.909194	-0.506119	0.506169
C44	C	1.518458	-0.505977	0.780180
C45	C	1.518489	-0.505931	0.896957
C46	C	1.518472	-0.232049	0.506187
C47	C	1.518509	-0.115272	0.506205
C48	C	1.518372	-0.506112	0.233180
C49	C	1.518544	-0.505862	0.116404
C50	C	1.585716	-0.438735	0.951835
C51	C	1.585741	-0.438697	1.061559
C52	C	1.451310	-0.573061	1.061518
C53	C	1.451280	-0.573093	0.951796
C54	C	1.652926	-0.371573	0.896996
C55	C	1.720159	-0.304372	0.951873
C56	C	1.720184	-0.304334	1.061597
C57	C	1.652976	-0.371498	1.116444
H58	H	1.652678	-0.806288	0.640624
C59	C	1.793870	-1.120358	0.781894
H60	H	1.784282	-1.193575	0.772278
H61	H	1.864459	-1.102336	0.766574
H62	H	1.778444	-1.102341	0.852474
C63	C	1.794075	-0.230489	0.891552
H64	H	1.834108	-0.190455	0.939953
H65	H	1.839830	-0.270692	0.848742
H66	H	1.753881	-0.184719	0.848759
C67	C	1.652995	-0.371453	1.237138
H68	H	1.603339	-0.421073	1.261939
H69	H	1.720791	-0.389617	1.261967
H70	H	1.634846	-0.303640	1.261966
C71	C	1.384242	-1.236163	0.371740
H72	H	1.334631	-1.261051	0.322074
H73	H	1.452060	-1.260948	0.353627
H74	H	1.366052	-1.260949	0.439533
C75	C	1.134075	-0.646993	0.364803
H76	H	1.207282	-0.637355	0.374430
H77	H	1.116106	-0.717608	0.380053
H78	H	1.116064	-0.631528	0.294237
H79	H	1.652876	-1.204416	0.640719
C80	C	0.903650	-0.647053	0.364828
H81	H	0.830451	-0.637466	0.374484
H82	H	0.921597	-0.631596	0.294260
H83	H	0.921642	-0.717660	0.380093
H84	H	1.118570	-0.250105	0.762884
H85	H	1.652915	-0.371599	0.807653
C86	C	1.793753	-0.889932	0.781846
H87	H	1.784103	-0.816742	0.772196
H88	H	1.778360	-0.907873	0.852429
H89	H	1.864362	-0.907873	0.766516
C90	C	1.243153	-1.121168	0.230512
H91	H	1.252814	-1.194357	0.240157
H92	H	1.172546	-1.103227	0.245823
H93	H	1.258562	-1.103234	0.159925
H94	H	1.262216	-0.906401	0.249678
C95	C	1.794139	-0.230426	1.121965
H96	H	1.784529	-0.240018	1.195166
H97	H	1.864716	-0.245826	1.103980
H98	H	1.778787	-0.159832	1.104000
H99	H	0.819905	-0.371887	0.640774
C100	C	1.249390	-0.371831	0.640766
H101	H	1.274228	-0.322245	0.690487
H102	H	1.274218	-0.439647	0.658808
H103	H	1.274183	-0.353565	0.572994
C104	C	1.384002	-0.775337	0.371657
H105	H	1.433601	-0.750451	0.421337
H106	H	1.402181	-0.750539	0.303872
H107	H	1.316177	-0.750562	0.389782
C108	C	1.377399	-0.646944	1.121847
H109	H	1.387054	-0.637309	1.195053
H110	H	1.306807	-0.631573	1.103870
H111	H	1.392759	-0.717544	1.103847
C112	C	1.377373	-0.647048	0.891427
H113	H	1.337372	-0.687064	0.939800
H114	H	1.331588	-0.606900	0.848611
H115	H	1.417579	-0.692832	0.848637
H116	H	0.919505	-0.250135	0.762901
