data_functionalizedCrystal
_audit_creation_method	'MofGen! by Chris Wilmer'
_symmetry_space_group_name_H-M	'P1'
_symmetry_Int_Tables_number	1
_symmetry_cell_setting	triclinic
loop_
_symmetry_equiv_pos_as_xyz
  x,y,z
_cell_length_a	25.639243
_cell_length_b	25.639239
_cell_length_c	25.639233
_cell_angle_alpha	90.018747
_cell_angle_beta	90.015962
_cell_angle_gamma	90.041410
loop_
_atom_site_label
_atom_site_type_symbol
_atom_site_fract_x
_atom_site_fract_y
_atom_site_fract_z
Zn1	Zn	0.799225	-0.208176	0.295656
Zn2	Zn	0.799149	-0.295595	0.208220
Zn3	Zn	0.711801	-0.208180	0.208229
Zn4	Zn	0.711746	-0.295587	0.295619
O5	O	0.755480	-0.251885	0.251931
O6	O	0.872380	-0.219775	0.284069
O7	O	0.787553	-0.284004	0.135056
O8	O	0.723453	-0.135014	0.219846
O9	O	0.872324	-0.284001	0.219830
O10	O	0.787683	-0.135012	0.284077
O11	O	0.723379	-0.219781	0.135063
O12	O	0.638629	-0.219772	0.219810
O13	O	0.723360	-0.283987	0.368789
O14	O	0.638589	-0.283990	0.284016
O15	O	0.787630	-0.219767	0.368816
O16	O	0.787499	-0.368759	0.219795
O17	O	0.723286	-0.368753	0.284007
C18	C	0.619638	-0.251881	0.251910
C19	C	0.561524	-0.251892	0.251914
C20	C	0.201184	-0.218495	0.285436
C21	C	0.146580	-0.218494	0.285439
O22	O	0.118363	-0.190088	0.313915
N23	N	0.119241	-0.251883	0.251945
C24	C	0.146510	-0.285271	0.218443
O25	O	0.118242	-0.313670	0.189954
C26	C	0.201113	-0.285268	0.218437
C27	C	0.228449	-0.251881	0.251937
C28	C	0.228520	-0.185109	0.318932
C29	C	0.283121	-0.185111	0.318930
C30	C	0.310385	-0.218497	0.285431
C31	C	0.283049	-0.251882	0.251934
C32	C	0.228380	-0.318653	0.184932
C33	C	0.282987	-0.318647	0.184929
C34	C	0.310323	-0.285260	0.218429
C35	C	0.364915	-0.285270	0.218432
N36	N	0.392253	-0.251881	0.251926
C37	C	0.364989	-0.218494	0.285425
C38	C	0.031839	-0.285273	0.218456
C39	C	-0.022763	-0.285279	0.218464
C40	C	-0.022689	-0.218501	0.285460
C41	C	0.031914	-0.218499	0.285454
C42	C	0.059178	-0.251884	0.251950
C43	C	0.479654	-0.218500	0.285417
C44	C	0.534259	-0.218506	0.285413
C45	C	0.534180	-0.285281	0.218415
C46	C	0.479580	-0.285278	0.218421
C47	C	0.452318	-0.251883	0.251924
O48	O	0.393166	-0.313659	0.189969
O49	O	0.393263	-0.190095	0.313904
C50	C	0.755392	-0.387727	0.251907
C51	C	0.755403	-0.445841	0.251914
C52	C	0.789004	-0.806195	0.218553
C53	C	0.789024	-0.860799	0.218560
O54	O	0.817502	-0.889028	0.190169
N55	N	0.755572	-0.888124	0.251966
C56	C	0.722102	-0.860841	0.285371
O57	O	0.693651	-0.889096	0.313786
C58	C	0.722085	-0.806238	0.285366
C59	C	0.755535	-0.778916	0.251954
C60	C	0.822452	-0.778873	0.185144
C61	C	0.822431	-0.724273	0.185137
C62	C	0.788962	-0.696994	0.218538
C63	C	0.755514	-0.724315	0.251946
C64	C	0.688617	-0.778956	0.318773
C65	C	0.688603	-0.724349	0.318765
C66	C	0.722053	-0.697027	0.285354
C67	C	0.722024	-0.642436	0.285340
N68	N	0.755475	-0.615112	0.251934
C69	C	0.788944	-0.642390	0.218533
C70	C	0.722141	-0.975511	0.285379
C71	C	0.722155	-1.030114	0.285381
C72	C	0.789078	-1.030068	0.218571
C73	C	0.789061	-0.975465	0.218566
C74	C	0.755593	-0.948187	0.251973
C75	C	0.788897	-0.527725	0.218519
C76	C	0.788872	-0.473120	0.218513
C77	C	0.721951	-0.473170	0.285325
C78	C	0.721974	-0.527771	0.285329
C79	C	0.755452	-0.555047	0.251925
O80	O	0.693562	-0.614173	0.313718
O81	O	0.817396	-0.614128	0.190127
C82	C	0.891853	-0.251888	0.251952
C83	C	0.949967	-0.251890	0.251961
C84	C	0.755497	-0.251875	0.388304
C85	C	0.755504	-0.251871	0.446418
C86	C	0.755583	-0.115512	0.251967
C87	C	0.755627	-0.057397	0.251982
C88	C	0.755494	-0.251856	0.116089
C89	C	0.755588	-0.251713	0.057975
C90	C	0.789012	-0.218333	0.806801
C91	C	0.789019	-0.218318	0.861405
O92	O	0.817466	-0.189864	0.889659
N93	N	0.755562	-0.251749	0.888701
C94	C	0.722093	-0.285192	0.861389
O95	O	0.693636	-0.313626	0.889620
C96	C	0.722084	-0.285204	0.806786
C97	C	0.755547	-0.251775	0.779493
C98	C	0.822472	-0.184906	0.779508
C99	C	0.822466	-0.184921	0.724908
C100	C	0.789001	-0.218363	0.697600
C101	C	0.755541	-0.251790	0.724893
C102	C	0.688613	-0.318644	0.779475
C103	C	0.688607	-0.318653	0.724868
C104	C	0.722069	-0.285223	0.697576
C105	C	0.722070	-0.285247	0.642984
N106	N	0.755526	-0.251817	0.615689
C107	C	0.788992	-0.218375	0.642996
C108	C	0.722113	-0.285165	0.976060
C109	C	0.722124	-0.285157	1.030662
C110	C	0.789049	-0.218282	1.030675
C111	C	0.789041	-0.218293	0.976071
C112	C	0.755570	-0.251735	0.948764
C113	C	0.788977	-0.218410	0.528331
C114	C	0.788970	-0.218429	0.473726
C115	C	0.722043	-0.285302	0.473719
C116	C	0.722052	-0.285285	0.528319
C117	C	0.755521	-0.251834	0.555624
O118	O	0.693635	-0.313686	0.614696
O119	O	0.817439	-0.189941	0.614759
H120	H	-0.045016	-0.312472	0.191191
C121	C	0.685316	-0.945509	0.322123
C122	C	0.644269	-0.908025	0.299425
C123	C	0.607445	-0.878026	0.336169
C124	C	0.611669	-0.885510	0.395610
C125	C	0.652718	-0.922995	0.418311
C126	C	0.689542	-0.952994	0.381567
H127	H	0.641140	-0.902483	0.255419
H128	H	0.577057	-0.850277	0.319363
H129	H	0.584409	-0.863302	0.422810
H130	H	0.655846	-0.928537	0.462317
H131	H	0.719929	-0.980743	0.398373
H132	H	0.556514	-0.191317	0.312694
C133	C	0.061982	-0.181769	0.322300
C134	C	0.054491	-0.186123	0.381730
C135	C	0.084555	-0.149391	0.418577
C136	C	0.122110	-0.108304	0.395993
C137	C	0.129603	-0.103948	0.336560
C138	C	0.099538	-0.140680	0.299714
H139	H	0.026689	-0.216540	0.398451
H140	H	0.079008	-0.152616	0.462574
H141	H	0.144365	-0.081112	0.423269
H142	H	0.157405	-0.073531	0.319840
H143	H	0.105085	-0.137455	0.255717
H144	H	0.661345	-0.345880	0.702638
C145	C	0.651784	-0.694343	0.355512
C146	C	0.592353	-0.701920	0.351189
C147	C	0.555533	-0.671916	0.387933
C148	C	0.578145	-0.634335	0.429000
C149	C	0.637580	-0.626756	0.433325
C150	C	0.674399	-0.656761	0.396580
H151	H	0.575611	-0.729742	0.320787
H152	H	0.511536	-0.677526	0.384732
H153	H	0.550889	-0.612123	0.456200
H154	H	0.654321	-0.598935	0.463726
H155	H	0.718397	-0.651150	0.399782
H156	H	0.054034	-0.312464	0.191174
C157	C	0.685297	-0.321959	0.946026
C158	C	0.644253	-0.299316	0.908488
C159	C	0.607435	-0.336109	0.878458
C160	C	0.611661	-0.395544	0.885966
C161	C	0.652706	-0.418189	0.923506
C162	C	0.689524	-0.381397	0.953536
H163	H	0.641123	-0.255316	0.902929
H164	H	0.577051	-0.319344	0.850669
H165	H	0.584407	-0.422779	0.863736
H166	H	0.655836	-0.462189	0.929065
H167	H	0.719908	-0.398161	0.981325
C168	C	0.685261	-0.322067	0.558353
C169	C	0.689499	-0.381506	0.550845
C170	C	0.652710	-0.418288	0.580877
C171	C	0.611684	-0.395632	0.618418
C172	C	0.607445	-0.336190	0.625928
C173	C	0.644233	-0.299408	0.595895
H174	H	0.719870	-0.398280	0.523053
H175	H	0.655849	-0.462291	0.575318
H176	H	0.584451	-0.422861	0.640650
H177	H	0.577073	-0.319416	0.653719
H178	H	0.641095	-0.255405	0.601454
C179	C	-0.052685	-0.181773	0.322310
C180	C	-0.090227	-0.204492	0.363317
C181	C	-0.120223	-0.167767	0.400167
C182	C	-0.112678	-0.108323	0.396009
C183	C	-0.075135	-0.085600	0.354999
C184	C	-0.045138	-0.122325	0.318150
H185	H	-0.095813	-0.248499	0.366397
H186	H	-0.148015	-0.184588	0.430524
H187	H	-0.134883	-0.081137	0.423287
H188	H	-0.069548	-0.041593	0.351920
H189	H	-0.017346	-0.105504	0.287792
H190	H	0.694798	-0.312531	0.451475
H191	H	0.206133	-0.345840	0.157652
H192	H	0.849714	-0.157699	0.702691
H193	H	0.816333	-1.052289	0.191376
H194	H	0.206327	-0.157919	0.346212
H195	H	0.694738	-0.550017	0.312538
C196	C	0.685135	-0.443159	0.322066
C197	C	0.689366	-0.450633	0.381508
C198	C	0.652553	-0.420620	0.418252
C199	C	0.611508	-0.383133	0.395553
C200	C	0.607276	-0.375658	0.336107
C201	C	0.644089	-0.405670	0.299363
H202	H	0.719751	-0.478384	0.398314
H203	H	0.655686	-0.426154	0.462258
H204	H	0.584257	-0.360916	0.422753
H205	H	0.576891	-0.347906	0.319301
H206	H	0.640956	-0.400136	0.255358
C207	C	0.825796	-0.181618	0.558362
C208	C	0.885228	-0.185895	0.550856
C209	C	0.922049	-0.149107	0.580887
C210	C	0.899438	-0.108041	0.618423
C211	C	0.840003	-0.103762	0.625930
C212	C	0.803182	-0.140550	0.595899
H213	H	0.901968	-0.216296	0.523069
H214	H	0.966047	-0.152275	0.575329
H215	H	0.926695	-0.080808	0.640653
H216	H	0.823262	-0.073361	0.653718
H217	H	0.759184	-0.137382	0.601457
C218	C	0.449670	-0.181769	0.322272
C219	C	0.457201	-0.186130	0.381700
C220	C	0.427218	-0.149402	0.418557
C221	C	0.389703	-0.108313	0.395986
C222	C	0.382171	-0.103951	0.336555
C223	C	0.412155	-0.140679	0.299698
H224	H	0.484973	-0.216547	0.398411
H225	H	0.432794	-0.152632	0.462552
H226	H	0.367508	-0.081125	0.423270
H227	H	0.354399	-0.073533	0.319844
H228	H	0.406578	-0.137449	0.255703
C229	C	0.859290	-0.148117	0.809540
C230	C	0.918721	-0.152394	0.802028
C231	C	0.955545	-0.115606	0.832055
C232	C	0.932938	-0.074540	0.869593
C233	C	0.873503	-0.070262	0.877107
C234	C	0.836679	-0.107050	0.847080
H235	H	0.935459	-0.182794	0.774238
H236	H	0.999542	-0.118773	0.826493
H237	H	0.960197	-0.047307	0.891821
H238	H	0.856765	-0.039861	0.904897
H239	H	0.792682	-0.103883	0.852642
H240	H	0.694881	-0.312384	1.052880
C241	C	0.825860	-0.181491	1.060720
C242	C	0.825862	-0.181479	1.120781
C243	C	0.862670	-0.144691	1.150828
C244	C	0.899476	-0.107915	1.120813
C245	C	0.899475	-0.107926	1.060748
C246	C	0.862667	-0.144714	1.030702
H247	H	0.798615	-0.208703	1.143003
H248	H	0.862671	-0.144683	1.195292
H249	H	0.926724	-0.080682	1.143056
H250	H	0.926722	-0.080701	1.038527
H251	H	0.862666	-0.144722	0.986237
H252	H	0.694912	-1.052354	0.312583
H253	H	0.305373	-0.157922	0.346208
H254	H	0.305183	-0.345834	0.157644
H255	H	0.816221	-0.191207	0.451507
H256	H	0.816288	-0.191071	0.953853
H257	H	0.661376	-0.801192	0.345978
C258	C	0.449505	-0.322004	0.181575
C259	C	0.457000	-0.317647	0.122145
C260	C	0.426929	-0.354369	0.085294
C261	C	0.389363	-0.395449	0.107872
C262	C	0.381866	-0.399808	0.167305
C263	C	0.411937	-0.363086	0.204156
H264	H	0.484810	-0.287235	0.105429
H265	H	0.432478	-0.351141	0.041298
H266	H	0.367103	-0.422633	0.080593
H267	H	0.354056	-0.430220	0.184021
H268	H	0.406388	-0.366313	0.248152
C269	C	0.564179	-0.322003	0.181567
C270	C	0.601719	-0.299276	0.140562
C271	C	0.631720	-0.335995	0.103710
C272	C	0.624181	-0.395440	0.107863
C273	C	0.586639	-0.418170	0.148869
C274	C	0.556638	-0.381452	0.185721
H275	H	0.607302	-0.255268	0.137487
H276	H	0.659511	-0.319168	0.073355
H277	H	0.646389	-0.422622	0.080583
H278	H	0.581056	-0.462178	0.151944
H279	H	0.528847	-0.398278	0.216076
C280	C	0.825671	-0.443067	0.181760
C281	C	0.821450	-0.450612	0.122319
C282	C	0.858248	-0.420562	0.085568
C283	C	0.899268	-0.382967	0.108256
C284	C	0.903491	-0.375422	0.167700
C285	C	0.866692	-0.405472	0.204451
H286	H	0.791083	-0.478442	0.105521
H287	H	0.855122	-0.426148	0.041564
H288	H	0.926509	-0.360723	0.081050
H289	H	0.933857	-0.347591	0.184498
H290	H	0.869818	-0.399886	0.248455
H291	H	0.816159	-0.549927	0.191319
C292	C	0.859233	-0.694226	0.148387
C293	C	0.855015	-0.701772	0.088947
C294	C	0.891821	-0.671730	0.052196
C295	C	0.932846	-0.634143	0.074886
C296	C	0.937066	-0.626595	0.134329
C297	C	0.900259	-0.656636	0.171079
H298	H	0.824644	-0.729598	0.072148
H299	H	0.888697	-0.677318	0.008192
H300	H	0.960092	-0.611904	0.047681
H301	H	0.967436	-0.598768	0.151128
H302	H	0.903383	-0.651048	0.215083
H303	H	0.816300	-0.953223	0.191360
C304	C	0.859271	-0.808873	0.148398
C305	C	0.855037	-0.801384	0.088957
C306	C	0.891856	-0.831379	0.052204
C307	C	0.932908	-0.868862	0.074892
C308	C	0.937144	-0.876353	0.134336
C309	C	0.900325	-0.846359	0.171088
H310	H	0.824645	-0.773634	0.072159
H311	H	0.888720	-0.825833	0.008200
H312	H	0.960164	-0.891066	0.047685
H313	H	0.967536	-0.904103	0.151133
H314	H	0.903461	-0.851904	0.215093
H315	H	0.661364	-0.345866	0.801688
