data_functionalizedCrystal
_audit_creation_method	'MofGen! by Chris Wilmer'
_symmetry_space_group_name_H-M	'P1'
_symmetry_Int_Tables_number	1
_symmetry_cell_setting	triclinic
loop_
_symmetry_equiv_pos_as_xyz
  x,y,z
_cell_length_a	19.288867
_cell_length_b	16.776229
_cell_length_c	19.288865
_cell_angle_alpha	89.991353
_cell_angle_beta	96.863342
_cell_angle_gamma	90.004265
loop_
_atom_site_label
_atom_site_type_symbol
_atom_site_fract_x
_atom_site_fract_y
_atom_site_fract_z
O1	O	0.921349	0.066269	-0.086653
O2	O	1.254682	0.399603	0.246681
O3	O	1.588015	0.732936	0.580014
O4	O	0.719088	0.066278	-0.098340
O5	O	1.052422	0.399612	0.234993
O6	O	1.385755	0.732945	0.568327
O7	O	0.826063	0.066258	0.008634
O8	O	1.159396	0.399591	0.341967
O9	O	1.492730	0.732924	0.675300
O10	O	0.814374	0.066290	-0.193627
O11	O	1.147708	0.399623	0.139707
O12	O	1.481041	0.732957	0.473040
O13	O	0.826051	-0.066319	0.008634
O14	O	1.159384	0.267015	0.341967
O15	O	1.492718	0.600348	0.675301
O16	O	0.719076	-0.066298	-0.098340
O17	O	1.052410	0.267035	0.234993
O18	O	1.385743	0.600368	0.568327
O19	O	0.921337	-0.066307	-0.086653
O20	O	1.254670	0.267026	0.246681
O21	O	1.588003	0.600360	0.580014
Zn22	Zn	0.820205	-0.087352	-0.092496
Zn23	Zn	1.153538	0.245981	0.240837
Zn24	Zn	1.486871	0.579315	0.574171
Zn25	Zn	0.820220	0.087323	-0.092496
Zn26	Zn	1.153554	0.420657	0.240837
Zn27	Zn	1.486887	0.753990	0.574170
O28	O	0.814362	-0.066287	-0.193626
O29	O	1.147695	0.267047	0.139707
O30	O	1.481029	0.600380	0.473040
C31	C	0.693206	-0.000009	-0.097964
C32	C	1.026539	0.333324	0.235370
C33	C	1.359873	0.666658	0.568703
C34	C	0.616102	-0.000006	-0.096834
C35	C	0.949436	0.333327	0.236499
C36	C	1.282769	0.666660	0.569833
C37	C	0.060544	0.072251	-0.088698
C38	C	0.393877	0.405584	0.244635
C39	C	0.727210	0.738917	0.577969
C40	C	0.132991	0.072254	-0.089755
C41	C	0.466324	0.405587	0.243578
C42	C	0.799658	0.738920	0.576912
C43	C	0.169213	-0.000013	-0.090287
C44	C	0.502546	0.333320	0.243046
C45	C	0.835880	0.666653	0.576380
C46	C	0.132984	-0.072289	-0.089743
C47	C	0.466317	0.261044	0.243590
C48	C	0.799651	0.594378	0.576923
C49	C	0.060539	-0.072290	-0.088679
C50	C	0.393872	0.261043	0.244654
C51	C	0.727205	0.594377	0.577987
C52	C	0.278535	-0.055373	-0.132654
C53	C	0.611869	0.277961	0.200679
C54	C	0.945202	0.611294	0.534012
C55	C	0.350979	-0.055369	-0.133723
C56	C	0.684312	0.277965	0.199611
C57	C	1.017645	0.611298	0.532944
C58	C	0.392659	-0.000013	-0.093566
C59	C	0.725992	0.333320	0.239767
C60	C	1.059325	0.666654	0.573101
C61	C	0.361885	0.055352	-0.052350
C62	C	0.695219	0.388685	0.280984
C63	C	1.028552	0.722019	0.614317
C64	C	0.289440	0.055351	-0.051285
C65	C	0.622773	0.388684	0.282048
C66	C	0.956107	0.722018	0.615381
C67	C	0.247768	-0.000020	-0.091440
C68	C	0.581101	0.333313	0.241893
C69	C	0.914435	0.666646	0.575226
C70	C	0.507436	0.072261	-0.095251
C71	C	0.840769	0.405595	0.238083
C72	C	1.174102	0.738928	0.571416
C73	C	0.579885	0.072262	-0.096304
C74	C	0.913219	0.405595	0.237030
C75	C	1.246552	0.738928	0.570363
C76	C	0.579876	-0.072283	-0.096299
C77	C	0.913209	0.261050	0.237034
C78	C	1.246542	0.594383	0.570368
C79	C	0.507429	-0.072281	-0.095239
C80	C	0.840762	0.261052	0.238094
C81	C	1.174095	0.594385	0.571428
C82	C	0.471213	-0.000007	-0.094718
C83	C	0.804546	0.333327	0.238615
C84	C	1.137879	0.666660	0.571948
N85	N	0.820199	-0.206563	-0.092495
N86	N	1.153532	0.126770	0.240838
N87	N	1.486865	0.460103	0.574171
C88	C	0.862190	-0.248272	-0.134518
C89	C	1.195523	0.085062	0.198815
C90	C	1.528857	0.418395	0.532149
C91	C	0.862198	-0.331724	-0.134515
C92	C	1.195531	0.001609	0.198818
C93	C	1.528864	0.334943	0.532151
C94	C	0.820210	-0.373466	-0.092493
C95	C	1.153543	-0.040133	0.240840
C96	C	1.486877	0.293201	0.574173
C97	C	0.778217	-0.331752	-0.050466
C98	C	1.111551	0.001582	0.282867
C99	C	1.444884	0.334915	0.616200
C100	C	0.778214	-0.248301	-0.050466
C101	C	1.111547	0.085032	0.282868
C102	C	1.444880	0.418366	0.616201
C103	C	0.778231	-0.668299	-0.050467
C104	C	1.111565	-0.334966	0.282866
C105	C	1.444898	-0.001632	0.616200
C106	C	0.778236	-0.751756	-0.050473
C107	C	1.111570	-0.418422	0.282861
C108	C	1.444903	-0.085089	0.616194
C109	C	0.862215	-0.751722	-0.134517
C110	C	1.195548	-0.418389	0.198817
C111	C	1.528882	-0.085055	0.532150
C112	C	0.862212	-0.668271	-0.134516
C113	C	1.195545	-0.334938	0.198817
C114	C	1.528878	-0.001604	0.532151
C115	C	0.820222	-0.626564	-0.092486
C116	C	1.153555	-0.293231	0.240847
C117	C	1.486889	0.040103	0.574180
C118	C	0.820215	-0.536076	-0.092489
C119	C	1.153548	-0.202742	0.240845
C120	C	1.486882	0.130591	0.574178
C121	C	0.820213	-0.463953	-0.092494
C122	C	1.153546	-0.130620	0.240839
C123	C	1.486879	0.202714	0.574172
C124	C	0.947219	-0.000018	-0.087029
C125	C	1.280552	0.333315	0.246304
C126	C	1.613886	0.666649	0.579638
C127	C	1.024323	-0.000016	-0.088159
C128	C	1.357656	0.333318	0.245175
C129	C	1.690989	0.666651	0.578508
C130	C	0.825681	-0.000033	0.034510
C131	C	1.159014	0.333301	0.367844
C132	C	1.492347	0.666634	0.701177
C133	C	0.824552	-0.000040	0.111614
C134	C	1.157885	0.333294	0.444947
C135	C	1.491218	0.666627	0.778281
N136	N	0.820232	0.206534	-0.092492
N137	N	1.153565	0.539868	0.240842
N138	N	1.486898	0.873201	0.574175
C139	C	0.814744	0.000006	-0.219503
C140	C	1.148078	0.333339	0.113830
C141	C	1.481411	0.666672	0.447164
C142	C	0.815873	0.000018	-0.296607
C143	C	1.149207	0.333351	0.036727
C144	C	1.482540	0.666685	0.370060
C145	C	0.887320	-0.000046	0.156310
C146	C	1.220653	0.333287	0.489643
C147	C	1.553986	0.666620	0.822976
C148	C	0.886259	-0.000034	0.228757
C149	C	1.219592	0.333300	0.562090
C150	C	1.552926	0.666633	0.895424
C151	C	0.822427	-0.000030	0.256505
C152	C	1.155760	0.333303	0.589838
C153	C	1.489093	0.666636	0.923172
C154	C	0.759651	-0.000019	0.211799
C155	C	1.092984	0.333314	0.545133
C156	C	1.426317	0.666647	0.878466
C157	C	0.760713	-0.000024	0.139354
C158	C	1.094047	0.333309	0.472687
C159	C	1.427380	0.666643	0.806020
C160	C	0.772243	-0.046467	0.364793
C161	C	1.105576	0.286866	0.698126
C162	C	1.438910	0.620200	1.031459
C163	C	0.771183	-0.046467	0.437237
C164	C	1.104517	0.286866	0.770571
C165	C	1.437850	0.620199	1.103904
C166	C	0.819147	-0.000012	0.479951
C167	C	1.152481	0.333321	0.813284
C168	C	1.485814	0.666654	1.146617
C169	C	0.868183	0.046432	0.450212
C170	C	1.201516	0.379766	0.783545
C171	C	1.534849	0.713099	1.116879
C172	C	0.869245	0.046428	0.377767
C173	C	1.202579	0.379761	0.711100
C174	C	1.535912	0.713094	1.044433
C175	C	0.821268	-0.000025	0.335059
C176	C	1.154601	0.333308	0.668392
C177	C	1.487934	0.666642	1.001726
C178	C	0.880769	-0.000004	0.603202
C179	C	1.214103	0.333329	0.936536
C180	C	1.547436	0.666662	1.269869
C181	C	0.879706	0.000013	0.675650
C182	C	1.213039	0.333347	1.008984
C183	C	1.546373	0.666680	1.342317
C184	C	0.753096	0.000020	0.658691
C185	C	1.086429	0.333353	0.992024
C186	C	1.419763	0.666686	1.325358
C187	C	0.754161	0.000010	0.586245
C188	C	1.087494	0.333344	0.919578
C189	C	1.420828	0.666677	1.252911
C190	C	0.818000	-0.000006	0.558505
C191	C	1.151333	0.333328	0.891838
C192	C	1.484666	0.666661	1.225172
H193	H	0.376026	-0.100433	-0.167301
H194	H	0.709360	0.232900	0.166033
H195	H	1.042693	0.566233	0.499366
H196	H	0.709598	-0.000019	0.102962
H197	H	1.042932	0.333315	0.436295
H198	H	1.376265	0.666648	0.769628
O199	O	0.732955	-0.203316	-0.005106
O200	O	1.066289	0.130018	0.328227
O201	O	1.399622	0.463351	0.661560
H202	H	0.740024	-0.138275	-0.012147
H203	H	1.073358	0.195058	0.321186
H204	H	1.406691	0.528392	0.654520
O205	O	0.953964	-0.000052	0.276973
O206	O	1.287297	0.333281	0.610307
O207	O	1.620630	0.666614	0.943640
H208	H	0.942498	-0.000045	0.332009
H209	H	1.275831	0.333288	0.665343
H210	H	1.609165	0.666622	0.998676
H211	H	0.244605	-0.100459	-0.165352
H212	H	0.577939	0.232875	0.167982
H213	H	0.911272	0.566208	0.501315
O214	O	0.949619	-0.000005	0.573274
O215	O	1.282952	0.333328	0.906607
O216	O	1.616285	0.666661	1.239940
H217	H	0.993089	0.000007	0.616529
H218	H	1.326422	0.333341	0.949862
H219	H	1.659755	0.666674	1.283195
O220	O	0.172076	0.150197	-0.090338
O221	O	0.505409	0.483531	0.242995
O222	O	0.838743	0.816864	0.576328
H223	H	0.151841	0.184851	-0.137473
H224	H	0.485174	0.518184	0.195860
H225	H	0.818507	0.851518	0.529194
O226	O	0.907499	-0.623252	-0.179841
O227	O	1.240833	-0.289919	0.153493
O228	O	1.574166	0.043414	0.486826
H229	H	0.874079	-0.585236	-0.217259
H230	H	1.207413	-0.251903	0.116074
H231	H	1.540746	0.081431	0.449407
H232	H	0.896407	-0.785690	-0.168737
H233	H	1.229740	-0.452356	0.164596
H234	H	1.563074	-0.119023	0.497929
O235	O	0.021527	-0.150293	-0.088267
O236	O	0.354860	0.183040	0.245067
O237	O	0.688194	0.516374	0.578400
H238	H	-0.017750	-0.153663	-0.135174
H239	H	0.315584	0.179670	0.198160
H240	H	0.648917	0.513004	0.531493
O241	O	0.732969	-0.796783	-0.005126
O242	O	1.066303	-0.463449	0.328207
O243	O	1.399636	-0.130116	0.661540
H244	H	0.703782	-0.753762	0.024112
H245	H	1.037115	-0.420429	0.357445
H246	H	1.370448	-0.087096	0.690778
O247	O	0.956170	-0.000041	0.126388
O248	O	1.289504	0.333292	0.459721
O249	O	1.622837	0.666625	0.793055
H250	H	0.999639	-0.000032	0.169644
H251	H	1.332973	0.333301	0.502978
H252	H	1.666306	0.666635	0.836311
H253	H	0.477937	-0.131128	-0.094802
H254	H	0.811270	0.202205	0.238531
H255	H	1.144604	0.535538	0.571864
H256	H	0.744041	-0.634351	-0.016244
H257	H	1.077374	-0.301018	0.317090
H258	H	1.410708	0.032316	0.650423
O259	O	0.021498	0.150209	-0.088103
O260	O	0.354832	0.483543	0.245230
O261	O	0.688165	0.816876	0.578564
H262	H	0.029067	0.184887	-0.135630
H263	H	0.362401	0.518220	0.197704
H264	H	0.695734	0.851554	0.531037
O265	O	0.172045	-0.150237	-0.090323
O266	O	0.505378	0.183096	0.243011
O267	O	0.838711	0.516429	0.576344
H268	H	0.228505	-0.138097	-0.091162
H269	H	0.561839	0.195237	0.242171
H270	H	0.895172	0.528570	0.575504
H271	H	0.896377	-0.214291	-0.168741
H272	H	1.229710	0.119042	0.164592
H273	H	1.563044	0.452375	0.497926
H274	H	0.731253	-0.084281	0.461444
H275	H	1.064586	0.249053	0.794777
H276	H	1.397919	0.582386	1.128111
H277	H	0.733183	-0.084300	0.330021
H278	H	1.066517	0.249033	0.663354
H279	H	1.399850	0.582366	0.996687
O280	O	0.907485	-0.376713	-0.179841
O281	O	1.240818	-0.043379	0.153492
O282	O	1.574152	0.289954	0.486825
H283	H	0.936674	-0.333667	-0.209068
H284	H	1.270007	-0.000334	0.124265
H285	H	1.603340	0.333000	0.457598
H286	H	0.744034	-0.365745	-0.016248
H287	H	1.077367	-0.032412	0.317085
H288	H	1.410700	0.300922	0.650419
O289	O	0.256247	0.115046	-0.006821
O290	O	0.589580	0.448379	0.326512
O291	O	0.922913	0.781713	0.659846
H292	H	0.297396	0.153535	0.020933
H293	H	0.630729	0.486869	0.354266
H294	H	0.964062	0.820202	0.687599
O295	O	0.922118	0.096529	0.345686
O296	O	1.255452	0.429863	0.679019
O297	O	1.588785	0.763196	1.012353
H298	H	0.955290	0.128842	0.387552
H299	H	1.288624	0.462175	0.720885
H300	H	1.621957	0.795509	1.054219
H301	H	0.907239	0.084260	0.484988
H302	H	1.240573	0.417594	0.818321
H303	H	1.573906	0.750927	1.151655
O304	O	0.947408	-0.000001	0.723864
O305	O	1.280742	0.333333	1.057198
O306	O	1.614075	0.666666	1.390531
H307	H	0.991974	-0.000022	0.692400
H308	H	1.325308	0.333311	1.025734
H309	H	1.658641	0.666644	1.359067
O310	O	0.684245	0.000020	0.688607
O311	O	1.017578	0.333353	1.021940
O312	O	1.350912	0.666686	1.355273
H313	H	0.694050	0.000017	0.746492
H314	H	1.027383	0.333350	1.079826
H315	H	1.360717	0.666683	1.413159
H316	H	0.703049	0.000011	0.549852
H317	H	1.036382	0.333344	0.883185
H318	H	1.369715	0.666678	1.216519
H319	H	0.707678	-0.000015	0.234396
H320	H	1.041012	0.333319	0.567730
H321	H	1.374345	0.666652	0.901063
H322	H	0.477947	0.131112	-0.094825
H323	H	0.811281	0.464445	0.238509
H324	H	1.144614	0.797778	0.571842
O325	O	0.406828	0.115060	-0.009027
O326	O	0.740162	0.448393	0.324306
O327	O	1.073495	0.781727	0.657639
H328	H	0.462375	0.105755	-0.016682
H329	H	0.795708	0.439088	0.316652
H330	H	1.129042	0.772421	0.649985
O331	O	0.618958	0.150209	-0.096886
O332	O	0.952291	0.483543	0.236448
O333	O	1.285625	0.816876	0.569781
H334	H	0.581600	0.200462	-0.096352
H335	H	0.914933	0.533795	0.236982
H336	H	1.248266	0.867129	0.570315
H337	H	0.609367	-0.131125	-0.096729
H338	H	0.942701	0.202209	0.236604
H339	H	1.276034	0.535542	0.569937
