data_functionalizedCrystal
_audit_creation_method	'MofGen! by Chris Wilmer'
_symmetry_space_group_name_H-M	'P1'
_symmetry_Int_Tables_number	1
_symmetry_cell_setting	triclinic
loop_
_symmetry_equiv_pos_as_xyz
  x,y,z
_cell_length_a	6.817900
_cell_length_b	16.305597
_cell_length_c	16.255661
_cell_angle_alpha	95.356929
_cell_angle_beta	103.488922
_cell_angle_gamma	103.455834
loop_
_atom_site_label
_atom_site_type_symbol
_atom_site_fract_x
_atom_site_fract_y
_atom_site_fract_z
V1	V	-4.026545	-0.117398	-0.264163
O2	O	-4.014197	0.004940	-0.258836
O3	O	-3.977933	-0.232107	-0.262643
O4	O	-3.978109	-0.115900	-0.379243
O5	O	-4.014020	-0.112071	-0.141430
V6	V	-4.510205	-0.102729	-0.249448
O7	O	-4.287502	-0.149577	-0.296441
O8	O	-4.699444	-0.070550	-0.217170
O9	O	-4.335610	0.011980	-0.250968
O10	O	-4.639949	-0.225068	-0.254775
O11	O	-4.640126	-0.108056	-0.372182
O12	O	-4.335434	-0.104227	-0.134369
C13	C	-3.822883	-0.260061	-0.258550
C14	C	-3.864424	-0.353838	-0.258075
C15	C	-3.823107	-0.111827	-0.407283
C16	C	-3.864787	-0.111361	-0.501363
C17	C	-4.015549	-0.694592	-0.256389
C18	C	-3.779824	-0.653750	-0.251767
C19	C	-3.736286	-0.556151	-0.251926
C20	C	-3.940573	-0.525540	-0.257226
C21	C	-4.023440	-0.550705	-0.178369
C22	C	-4.065244	-0.648235	-0.177786
C23	C	-4.153687	-0.673986	-0.339640
C24	C	-4.106858	-0.576477	-0.341100
C25	C	-3.898210	-0.429999	-0.257696
C26	C	-4.057916	-0.790133	-0.255912
C27	C	-3.775352	-0.105795	-0.724168
C28	C	-3.931665	-0.177622	-0.793822
C29	C	-3.941173	-0.110487	-0.673609
C30	C	-3.859151	-0.037838	-0.771590
C31	C	-4.014942	-0.109639	-0.839991
C32	C	-4.096968	-0.182378	-0.742034
C33	C	-4.024392	-0.042531	-0.719786
C34	C	-4.180842	-0.114378	-0.789421
C35	C	-3.898671	-0.110976	-0.577761
C36	C	-4.057461	-0.109157	-0.935838
C37	C	-4.154001	0.039929	-0.255059
C38	C	-4.091699	0.133706	-0.255539
C39	C	-4.153778	-0.108304	-0.106324
C40	C	-4.091336	-0.108765	-0.012243
H41	H	-3.670123	-0.539380	-0.308275
H42	H	-4.235259	-0.675079	-0.177733
N43	N	-3.880334	-0.253267	-0.836527
H44	H	-4.010185	-0.290333	-0.879459
H45	H	-3.827297	-0.287569	-0.791783
N46	N	-4.028998	-0.555911	-0.418395
H47	H	-3.886613	-0.513773	-0.399171
H48	H	-4.129808	-0.530282	-0.456863
H49	H	-4.173469	-0.530855	-0.179230
N50	N	-4.408494	-0.119207	-0.826984
H51	H	-4.474379	-0.171867	-0.871758
H52	H	-4.420137	-0.066740	-0.854213
H53	H	-4.063068	0.014586	-0.687535
N54	N	-3.547858	-0.101105	-0.686413
H55	H	-3.457590	-0.047059	-0.697743
H56	H	-3.512943	-0.152236	-0.713622
N57	N	-3.719234	-0.694237	-0.326160
H58	H	-3.843984	-0.739460	-0.363574
H59	H	-3.602170	-0.721193	-0.303806
N60	N	-3.640565	-0.671410	-0.172232
H61	H	-3.664537	-0.735103	-0.173791
H62	H	-3.674514	-0.645956	-0.119905
N63	N	-3.568175	-0.510326	-0.172181
H64	H	-3.522111	-0.553521	-0.136784
H65	H	-3.625185	-0.471463	-0.137531
N66	N	-3.934033	-0.663262	-0.094822
H67	H	-3.850350	-0.606586	-0.058805
H68	H	-3.835800	-0.697463	-0.107624
N69	N	-4.229617	-0.263380	-0.724408
H70	H	-4.200392	-0.263218	-0.660548
H71	H	-4.194944	-0.314313	-0.752141
N72	N	-3.867041	-0.503321	-0.096124
H73	H	-3.729921	-0.518462	-0.091853
H74	H	-3.921953	-0.519963	-0.045801
N75	N	-3.726501	0.043075	-0.789379
H76	H	-3.636909	0.079227	-0.733465
H77	H	-3.820103	0.075988	-0.821197
N78	N	-4.117145	-0.717251	-0.418862
H79	H	-4.154506	-0.781091	-0.419893
H80	H	-3.965126	-0.696413	-0.418201
N81	N	-4.308681	-0.550240	-0.352719
H82	H	-4.295127	-0.504763	-0.303556
H83	H	-4.426444	-0.601495	-0.354024
H84	H	-4.326324	-0.700994	-0.343848
