data_functionalizedCrystal
_audit_creation_method	'MofGen! by Chris Wilmer'
_symmetry_space_group_name_H-M	'P1'
_symmetry_Int_Tables_number	1
_symmetry_cell_setting	triclinic
loop_
_symmetry_equiv_pos_as_xyz
  x,y,z
_cell_length_a	18.760487
_cell_length_b	21.606444
_cell_length_c	21.606444
_cell_angle_alpha	60.000398
_cell_angle_beta	90.034181
_cell_angle_gamma	60.019231
loop_
_atom_site_label
_atom_site_type_symbol
_atom_site_fract_x
_atom_site_fract_y
_atom_site_fract_z
Zr1	Zr	0.686675	0.677449	-0.080833
O2	O	0.572858	0.806570	-0.179716
O3	O	0.721568	0.548330	-0.050523
O4	O	0.721567	0.677451	-0.179640
O5	O	0.572858	0.677446	0.051255
O6	O	0.838870	0.677451	-0.179578
O7	O	0.572859	0.677448	-0.050599
O8	O	0.838871	0.446476	0.051389
O9	O	0.572857	0.908420	-0.179712
O10	O	0.823989	0.601437	-0.037546
O11	O	0.736447	0.601436	0.038419
O12	O	0.736446	0.753460	-0.113600
O13	O	0.648904	0.753458	-0.037635
Zr14	Zr	0.873759	0.677445	0.081711
Zr15	Zr	0.873760	0.677448	-0.080733
Zr16	Zr	0.686674	0.677445	0.081611
Zr17	Zr	0.686673	0.839889	-0.080828
Zr18	Zr	0.873761	0.515004	0.081705
O19	O	0.838867	0.806564	0.051401
O20	O	0.838868	0.806569	-0.179574
O21	O	0.572856	0.806564	0.051259
O22	O	0.987576	0.548324	0.180593
O23	O	0.987578	0.548329	-0.050381
O24	O	0.721566	0.548324	0.180451
O25	O	0.987576	0.677448	-0.050377
O26	O	0.838867	0.677442	0.180518
O27	O	0.721564	0.677442	0.180455
O28	O	0.987575	0.677445	0.051476
O29	O	0.721564	0.908420	-0.179633
O30	O	0.838870	0.446473	0.180511
O31	O	0.987577	0.446473	0.180590
O32	O	0.987578	0.446476	0.051469
O33	O	0.572856	0.908417	-0.050591
O34	O	0.721563	0.908417	-0.050512
O35	O	0.823988	0.601434	0.114477
O36	O	0.911530	0.601435	0.038512
O37	O	0.823987	0.753458	-0.037541
O38	O	0.736445	0.753456	0.038424
C39	C	0.780220	0.474259	0.000432
C40	C	0.780220	0.405298	0.000430
C41	C	0.825915	0.372902	-0.039224
C42	C	0.825918	0.308102	-0.039219
C43	C	0.780221	0.275704	0.000436
C44	C	0.734525	0.308103	0.040095
C45	C	0.734528	0.372898	0.040094
C46	C	0.734515	0.046794	0.040102
C47	C	0.734514	-0.018003	0.040098
C48	C	0.825905	-0.018002	-0.039212
C49	C	0.825907	0.046793	-0.039213
C50	C	0.780216	0.079183	0.000449
C51	C	0.780214	0.149445	0.000444
C52	C	0.780217	0.205447	0.000437
C53	C	0.546203	0.677447	0.000314
C54	C	0.466780	0.677447	0.000271
C55	C	0.085267	0.756804	-0.039129
C56	C	0.176668	0.598090	0.040273
C57	C	0.251290	0.598089	0.040208
C58	C	0.242903	0.677446	0.000473
C59	C	0.159894	0.756805	-0.039197
C60	C	0.334304	0.518731	0.079870
C61	C	0.408932	0.518727	0.079806
C62	C	0.400546	0.598085	0.040075
C63	C	0.317531	0.677447	0.000405
C64	C	0.309144	0.756805	-0.039330
C65	C	0.226130	0.836168	-0.078997
C66	C	0.151508	0.836163	-0.078928
C67	C	0.475167	0.598090	0.040006
C68	C	0.383772	0.756806	-0.039398
C69	C	1.014231	0.677446	0.000564
C70	C	1.093654	0.677446	0.000606
C71	C	0.780218	0.677452	-0.202754
C72	C	0.780219	0.677453	-0.271716
C73	C	0.780215	0.880635	0.000445
C74	C	0.780214	0.949595	0.000448
C75	C	0.844842	0.677455	-0.304079
C76	C	0.844845	0.677449	-0.368872
C77	C	0.780220	0.677447	-0.401304
C78	C	0.715594	0.677443	-0.368934
C79	C	0.715595	0.677443	-0.304139
C80	C	0.715586	0.677442	-0.630244
C81	C	0.715588	0.677445	-0.695045
C82	C	0.844835	0.677448	-0.694978
C83	C	0.844837	0.677448	-0.630183
C84	C	0.780214	0.677439	-0.597816
C85	C	0.780213	0.677444	-0.527560
C86	C	0.780217	0.677448	-0.471562
C87	C	0.780216	0.677442	0.203631
C88	C	0.780215	0.677440	0.272593
C89	C	1.014234	0.474258	0.000557
C90	C	1.093657	0.405298	0.000597
C91	C	0.780218	0.474254	0.203625
C92	C	0.780218	0.405292	0.272584
C93	C	1.014232	0.474254	0.203750
C94	C	1.093655	0.405292	0.272752
C95	C	0.546202	0.880640	-0.202872
C96	C	0.466779	0.949602	-0.271874
C97	C	0.546200	0.880635	0.000320
C98	C	0.466777	0.949595	0.000280
C99	C	0.780216	0.880640	-0.202747
C100	C	0.780216	0.949601	-0.271707
C101	C	1.085259	0.372915	-0.039092
C102	C	1.159879	0.308128	-0.039070
C103	C	1.242895	0.275722	0.000647
C104	C	1.251291	0.308112	0.040338
C105	C	1.176672	0.372901	0.040311
C106	C	0.825914	0.372906	0.344677
C107	C	0.825911	0.308118	0.409478
C108	C	0.780217	0.275713	0.402185
C109	C	0.734516	0.308106	0.330084
C110	C	0.734514	0.372897	0.265285
C111	C	1.176657	0.372907	0.265503
C112	C	1.251290	0.308119	0.330331
C113	C	1.242920	0.275712	0.402408
C114	C	1.159909	0.308103	0.409655
C115	C	1.085278	0.372894	0.344828
C116	C	0.383777	0.981994	-0.264625
C117	C	0.309144	1.046802	-0.329454
C118	C	0.317515	1.079212	-0.401530
C119	C	0.400525	1.046817	-0.408778
C120	C	0.475156	0.982015	-0.343950
C121	C	0.475175	0.981985	0.039963
C122	C	0.400555	1.046790	0.039923
C123	C	0.317539	1.079198	0.000203
C124	C	0.309143	1.046805	-0.039485
C125	C	0.383762	0.982007	-0.039448
C126	C	0.825919	0.981986	-0.264389
C127	C	0.825935	1.046774	-0.329178
C128	C	0.780243	1.079181	-0.401283
C129	C	0.734539	1.046790	-0.408599
C130	C	0.734528	0.981999	-0.343812
H131	H	0.697300	-0.044380	0.072392
C132	C	0.684239	0.946393	-0.351870
H133	H	0.657024	0.974985	-0.404094
H134	H	0.723666	0.885219	-0.328228
H135	H	0.640985	0.957030	-0.328274
H136	H	0.697306	0.399257	0.206586
H137	H	0.341124	0.454123	0.112220
C138	C	0.915908	0.677473	-0.594520
H139	H	0.906645	0.677487	-0.551303
H140	H	0.971704	0.626715	-0.579725
H141	H	0.913206	0.728253	-0.630536
C142	C	0.684247	0.082424	0.083719
H143	H	0.657024	0.053855	0.107328
H144	H	0.723686	0.071804	0.121289
H145	H	0.641000	0.143601	0.049444
C146	C	0.644511	0.677420	-0.730707
H147	H	0.606031	0.677401	-0.702144
H148	H	0.612581	0.728181	-0.781384
H149	H	0.671081	0.626642	-0.730577
H150	H	0.476519	0.454105	0.112104
C151	C	0.780255	1.150457	-0.472543
H152	H	0.814013	1.165105	-0.457851
H153	H	0.804721	1.129230	-0.501850
H154	H	0.722032	1.201021	-0.501883
C155	C	0.409721	1.082468	-0.488064
H156	H	0.353382	1.125692	-0.525629
H157	H	0.440728	1.107748	-0.493745
H158	H	0.440716	1.035951	-0.493737
C159	C	0.235467	1.150473	0.000171
H160	H	0.252366	1.165112	0.029502
H161	H	0.201703	1.201034	-0.050394
H162	H	0.201707	1.129233	0.021405
C163	C	0.235415	1.150482	-0.472834
H164	H	0.184786	1.165118	-0.458187
H165	H	0.235394	1.201045	-0.502155
H166	H	0.235408	1.129235	-0.502142
H167	H	0.697323	0.281716	0.072387
C168	C	0.566475	0.510805	0.083630
H169	H	0.609718	0.522170	0.077896
H170	H	0.573094	0.478191	0.135851
H171	H	0.572951	0.478207	0.064044
C172	C	0.684274	1.082452	-0.487917
H173	H	0.690822	1.125684	-0.525449
H174	H	0.706827	1.035949	-0.493607
H175	H	0.624148	1.107744	-0.493635
H176	H	0.241542	1.073202	-0.071823
H177	H	0.662966	0.677437	-0.603898
H178	H	0.542738	0.955642	-0.349861
H179	H	0.863127	0.955610	-0.205683
C180	C	0.915931	0.677454	-0.268410
H181	H	0.954423	0.677446	-0.296962
H182	H	0.889388	0.728219	-0.268528
H183	H	0.947855	0.626681	-0.217732
H184	H	0.897466	0.677449	-0.395222
H185	H	0.780225	0.222956	0.454955
C186	C	0.185891	0.510804	0.083976
H187	H	0.129559	0.522170	0.078338
H188	H	0.216833	0.478196	0.064383
H189	H	0.216961	0.478201	0.136179
C190	C	0.566483	0.946347	0.083659
H191	H	0.560785	0.974932	0.107278
H192	H	0.597494	0.885174	0.121224
H193	H	0.597495	0.956969	0.049424
H194	H	1.183489	0.399283	0.206820
H195	H	0.662977	0.677436	-0.395340
H196	H	1.318874	0.281753	0.324417
C197	C	1.150713	0.272442	0.488942
H198	H	1.207052	0.229209	0.526506
H199	H	1.119707	0.318944	0.494627
H200	H	1.119718	0.247149	0.494611
H201	H	0.241561	1.073167	-0.323538
H202	H	1.303696	0.222955	0.455189
H203	H	0.407409	1.073153	0.072244
C204	C	0.374518	0.946372	-0.083091
H205	H	0.430843	0.903140	-0.077389
H206	H	0.343505	0.921104	-0.063509
H207	H	0.343510	0.992893	-0.135311
C208	C	0.876186	0.408530	-0.082842
H209	H	0.903408	0.379946	-0.106450
H210	H	0.836750	0.469704	-0.120410
H211	H	0.919434	0.397900	-0.048564
C212	C	0.876175	0.272474	-0.082844
H213	H	0.903380	0.301058	-0.106470
H214	H	0.919420	0.211300	-0.048579
H215	H	0.836721	0.283101	-0.120412
H216	H	0.863152	1.073140	-0.323206
C217	C	0.993980	0.408500	0.352811
H218	H	0.999692	0.379910	0.405023
H219	H	0.962952	0.469675	0.329173
H220	H	0.962978	0.397864	0.329175
C221	C	1.342609	0.272448	0.084039
H222	H	1.336933	0.301010	0.107676
H223	H	1.373603	0.211274	0.121590
H224	H	1.373625	0.283068	0.049807
H225	H	0.863114	0.073172	-0.071507
H226	H	0.697313	0.281712	0.324157
H227	H	0.863113	-0.044384	-0.071504
C228	C	0.684260	0.408538	0.083710
H229	H	0.657037	0.379970	0.107322
H230	H	0.723703	0.397917	0.121276
H231	H	0.641014	0.469715	0.049434
C232	C	0.374552	0.946363	-0.185350
H233	H	0.314426	0.974953	-0.190328
H234	H	0.401756	0.885191	-0.158403
H235	H	0.401768	0.956989	-0.158415
H236	H	0.376932	0.821429	-0.071747
C237	C	0.876177	0.408546	0.352711
H238	H	0.869643	0.451768	0.303798
H239	H	0.853604	0.433826	0.379619
H240	H	0.936300	0.362025	0.379668
H241	H	0.219311	0.900780	-0.111353
H242	H	0.083914	0.900776	-0.111221
H243	H	0.897458	0.677451	-0.721335
H244	H	0.662974	0.677440	-0.277788
H245	H	0.017674	0.821419	-0.071422
H246	H	1.183522	0.399260	0.072636
H247	H	1.017670	0.399299	-0.071444
H248	H	1.153025	0.281764	-0.071391
H249	H	1.303647	0.222965	0.000664
H250	H	0.863130	0.281752	0.468179
