data_functionalizedCrystal
_audit_creation_method	'MofGen! by Chris Wilmer'
_symmetry_space_group_name_H-M	'P1'
_symmetry_Int_Tables_number	1
_symmetry_cell_setting	triclinic
loop_
_symmetry_equiv_pos_as_xyz
  x,y,z
_cell_length_a	10.685940
_cell_length_b	10.686285
_cell_length_c	10.686551
_cell_angle_alpha	80.915481
_cell_angle_beta	98.400210
_cell_angle_gamma	90.326116
loop_
_atom_site_label
_atom_site_type_symbol
_atom_site_fract_x
_atom_site_fract_y
_atom_site_fract_z
Zn1	Zn	2.015951	0.282571	0.846355
Zn2	Zn	2.515951	0.782571	1.346355
Zn3	Zn	2.015849	0.511160	0.617845
Zn4	Zn	2.515849	1.011160	1.117845
Zn5	Zn	1.789889	0.317718	0.615351
Zn6	Zn	2.289889	0.817718	1.115351
Zn7	Zn	1.819967	0.511061	0.813788
Zn8	Zn	2.319967	1.011061	1.313788
O9	O	1.910414	0.405628	0.723335
O10	O	2.410414	0.905628	1.223335
O11	O	2.192523	0.298226	0.830716
O12	O	2.692523	0.798226	1.330716
O13	O	1.973244	0.500250	0.438835
O14	O	2.473244	1.000250	0.938835
O15	O	1.807331	0.136476	0.658581
O16	O	2.307331	0.636476	1.158581
O17	O	2.192448	0.466169	0.662830
O18	O	2.692448	0.966169	1.162830
O19	O	1.973418	0.110654	0.828299
O20	O	2.473418	0.610654	1.328299
O21	O	1.807232	0.358129	0.437003
O22	O	2.307232	0.858129	0.937003
O23	O	1.617293	0.358034	0.627001
O24	O	2.117293	0.858034	1.127001
O25	O	1.858595	0.466001	0.996787
O26	O	2.358595	0.966001	1.496787
O27	O	1.639392	0.500082	0.772791
O28	O	2.139392	1.000082	1.272791
O29	O	2.002584	0.298131	1.020714
O30	O	2.502584	0.798131	1.520714
O31	O	2.002410	0.687726	0.631251
O32	O	2.502410	1.187726	1.131251
O33	O	1.858496	0.687654	0.775209
O34	O	2.358496	1.187654	1.275209
C35	C	1.582556	0.432862	0.696092
C36	C	2.082556	0.932862	1.196092
C37	C	1.442301	0.444541	0.684466
C38	C	1.942301	0.944541	1.184466
C39	C	1.933742	0.733470	0.699997
C40	C	2.433742	1.233470	1.199997
C41	C	1.943840	0.873709	0.690065
C42	C	2.443840	1.373709	1.190065
C43	C	1.933956	0.378134	1.056375
C44	C	2.433956	0.878134	1.556375
C45	C	1.943988	0.366418	1.198297
C46	C	2.443988	0.866418	1.698297
C47	C	2.239552	0.378288	0.750684
C48	C	2.739552	0.878288	1.250684
C49	C	2.379811	0.366637	0.762339
C50	C	2.879811	0.866637	1.262339
C51	C	1.887031	0.076500	0.746795
C52	C	2.387031	0.576500	1.246795
C53	C	1.877067	-0.063755	0.756792
C54	C	2.377067	0.436245	1.256792
C55	C	1.887029	0.432917	0.391603
C56	C	2.387029	0.932917	0.891603
C57	C	1.877216	0.444257	0.249727
C58	C	2.377216	0.944257	0.749727
H59	H	2.388499	0.520147	0.608877
H60	H	2.888499	1.020147	1.108877
C61	C	2.452498	0.264483	0.864460
C62	C	2.952498	0.764483	1.364460
N63	N	2.507247	0.187543	0.941378
N64	N	3.007247	0.687543	1.441378
C65	C	1.789614	0.546396	1.162533
C66	C	2.289614	1.046396	1.662533
N67	N	1.723628	0.623326	1.096850
N68	N	2.223628	1.123326	1.596850
H69	H	2.008839	0.290814	1.262848
H70	H	2.508839	0.790814	1.762848
H71	H	1.812174	0.882498	0.821519
H72	H	2.312174	1.382498	1.321519
C73	C	2.031503	0.946326	0.602604
C74	C	2.531503	1.446326	1.102604
N75	N	2.097530	1.001022	0.536730
N76	N	2.597530	1.501022	1.036730
