data_functionalizedCrystal
_audit_creation_method	'MofGen! by Chris Wilmer'
_symmetry_space_group_name_H-M	'P1'
_symmetry_Int_Tables_number	1
_symmetry_cell_setting	triclinic
loop_
_symmetry_equiv_pos_as_xyz
  x,y,z
_cell_length_a	12.759401
_cell_length_b	16.959454
_cell_length_c	12.759393
_cell_angle_alpha	89.969790
_cell_angle_beta	89.980718
_cell_angle_gamma	90.021600
loop_
_atom_site_label
_atom_site_type_symbol
_atom_site_fract_x
_atom_site_fract_y
_atom_site_fract_z
Zn1	Zn	1.606210	-0.314607	-0.594026
Zn2	Zn	1.606090	-0.446807	-0.418349
Zn3	Zn	1.430514	-0.314650	-0.418362
Zn4	Zn	1.430484	-0.446751	-0.593986
O5	O	1.518324	-0.380704	-0.506181
O6	O	1.753215	-0.332149	-0.570734
O7	O	1.582761	-0.429318	-0.271330
O8	O	1.453883	-0.204033	-0.441686
O9	O	1.753127	-0.429276	-0.441665
O10	O	1.582966	-0.204002	-0.570746
O11	O	1.453766	-0.332223	-0.271339
O12	O	1.283489	-0.332168	-0.441647
O13	O	1.453832	-0.429180	-0.741013
O14	O	1.283467	-0.429222	-0.570678
O15	O	1.582937	-0.332094	-0.741042
O16	O	1.582732	-0.557411	-0.441626
O17	O	1.453716	-0.557369	-0.570666
C18	C	1.245357	-0.380694	-0.506160
C19	C	1.128580	-0.380709	-0.506176
C20	C	1.073735	-0.431322	-0.573257
C21	C	0.964011	-0.431325	-0.573277
C22	C	0.963988	-0.330100	-0.439128
C23	C	1.073710	-0.330094	-0.439113
C24	C	0.814107	-0.459686	-0.697138
C25	C	0.759258	-0.510311	-0.764210
C26	C	0.794846	-0.587450	-0.780159
C27	C	0.885281	-0.613979	-0.729022
C28	C	0.940125	-0.563358	-0.661943
C29	C	0.904539	-0.486209	-0.646013
C30	C	1.223615	-0.301740	-0.315251
C31	C	1.278461	-0.251123	-0.248166
C32	C	1.242875	-0.173983	-0.232205
C33	C	1.152436	-0.147456	-0.283324
C34	C	1.097590	-0.198074	-0.350409
C35	C	1.133184	-0.275213	-0.366371
C36	C	1.518236	-0.586070	-0.506163
C37	C	1.518295	-0.673926	-0.506190
C38	C	1.451243	-1.045410	-0.573365
C39	C	1.585699	-1.045394	-0.439104
C40	C	1.585662	-0.962848	-0.439094
C41	C	1.518414	-0.921579	-0.506220
C42	C	1.451202	-0.962857	-0.573355
C43	C	1.652865	-0.921564	-0.371953
C44	C	1.652830	-0.839013	-0.371940
C45	C	1.585586	-0.797743	-0.439071
C46	C	1.518373	-0.839026	-0.506210
C47	C	1.451124	-0.797757	-0.573335
C48	C	1.383915	-0.839038	-0.640480
C49	C	1.383958	-0.921587	-0.640486
C50	C	1.585543	-0.715195	-0.439065
C51	C	1.451083	-0.715204	-0.573326
C52	C	1.792358	-0.380714	-0.506202
C53	C	1.909134	-0.380718	-0.506212
C54	C	1.518395	-0.380626	-0.780214
C55	C	1.518425	-0.380592	-0.896991
C56	C	1.518441	-0.174535	-0.506222
C57	C	1.518491	-0.086679	-0.506239
C58	C	1.451312	-0.329998	-1.061588
C59	C	1.451283	-0.330024	-0.951864
C60	C	1.585609	-0.431132	-0.951848
C61	C	1.585642	-0.431101	-1.061570
C62	C	1.413754	-0.236845	-0.801931
C63	C	1.346561	-0.186315	-0.747078
C64	C	1.244065	-0.174164	-0.782688
C65	C	1.208740	-0.212555	-0.873150
C66	C	1.275927	-0.263091	-0.927997
C67	C	1.378438	-0.275227	-0.892388
C68	C	1.623161	-0.524281	-1.211505
C69	C	1.690343	-0.574821	-1.266354
C70	C	1.792841	-0.586980	-1.230746
C71	C	1.828162	-0.548603	-1.140281
C72	C	1.760980	-0.498063	-1.085432
C73	C	1.658483	-0.485903	-1.121048
C74	C	1.518314	-0.380724	-0.233213
C75	C	1.518488	-0.380535	-0.116437
H76	H	1.352101	-0.272728	-0.206541
H77	H	1.329156	-0.805428	-0.695130
F78	F	1.099644	-0.199626	-0.911037
H79	H	1.707555	-0.805407	-0.317268
F80	F	1.384160	-0.145457	-0.650807
F81	F	1.657264	-1.089316	-0.367668
H82	H	1.329239	-0.955205	-0.695151
H83	H	0.914243	-0.676797	-0.742005
F84	F	1.657057	-0.671264	-0.367600
H85	H	1.396526	-1.079025	-0.628035
F86	F	1.132128	-0.485189	-0.644633
F87	F	1.864337	-0.640779	-1.289120
F88	F	1.724434	-0.965489	-0.300522
F89	F	1.036365	-0.591588	-0.607519
F90	F	0.776235	-0.377581	-0.680184
H91	H	0.919299	-0.288892	-0.384526
H92	H	1.640282	-0.472302	-0.907162
F93	F	1.937250	-0.561547	-1.102377
F94	F	1.522850	-0.249759	-0.764037
F95	F	1.798573	-0.457220	-0.989148
F96	F	1.514070	-0.511338	-1.249413
H97	H	1.396634	-0.288821	-1.106258
H98	H	0.750180	-0.628669	-0.834771
F99	F	1.261420	-0.383875	-0.332130
F100	F	0.663015	-0.482073	-0.818635
F101	F	1.379512	-0.671289	-0.644777
F102	F	1.238339	-0.303947	-1.024267
F103	F	1.001332	-0.169841	-0.404810
H104	H	1.123450	-0.084647	-0.270313
H105	H	1.287536	-0.132773	-0.177570
F106	F	1.172556	-0.120386	-0.724306
H107	H	1.661576	-0.606069	-1.340016
