data_functionalizedCrystal
_audit_creation_method	'MofGen! by Chris Wilmer'
_symmetry_space_group_name_H-M	'P1'
_symmetry_Int_Tables_number	1
_symmetry_cell_setting	triclinic
loop_
_symmetry_equiv_pos_as_xyz
  x,y,z
_cell_length_a	35.277628
_cell_length_b	35.288095
_cell_length_c	35.277682
_cell_angle_alpha	59.997929
_cell_angle_beta	89.998958
_cell_angle_gamma	60.000166
loop_
_atom_site_label
_atom_site_type_symbol
_atom_site_fract_x
_atom_site_fract_y
_atom_site_fract_z
O1	O	-0.323087	-0.271234	0.011271
O2	O	-0.267964	-0.193634	-0.011228
O3	O	-0.267962	-0.271233	0.066395
O4	O	-0.323089	-0.193635	-0.066351
O5	O	-0.204915	-0.334261	0.066394
O6	O	-0.204918	-0.256661	-0.011228
O7	O	-0.260040	-0.334261	0.011271
Cu8	Cu	-0.226722	-0.301216	0.000022
Cu9	Cu	-0.301282	-0.226679	0.000022
O10	O	-0.260043	-0.256662	-0.066351
C11	C	-0.163481	-0.071298	-0.023519
C12	C	-0.186872	-0.024531	-0.020298
C13	C	-0.117860	-0.093995	-0.023838
C14	C	-0.163483	-0.139918	-0.023524
C15	C	-0.186875	-0.166518	-0.020308
C16	C	-0.117862	-0.162510	-0.023843
C17	C	-0.094838	-0.139921	-0.023519
C18	C	-0.044836	-0.166525	-0.020298
C19	C	-0.186401	-0.093991	-0.023843
C20	C	-0.004439	-0.188019	-0.017694
C21	C	-0.205769	0.013252	-0.017695
C22	C	-0.205774	-0.188010	-0.017709
C23	C	0.046241	-0.214983	-0.014429
C24	C	-0.229477	0.060653	-0.014430
C25	C	-0.229483	-0.214971	-0.014450
C26	C	-0.500364	-0.466062	0.034181
C27	C	-0.477341	-0.511990	0.034503
C28	C	-0.431722	-0.466060	0.034178
C29	C	-0.408804	-0.511988	0.034500
C30	C	-0.431721	-0.534685	0.034181
C31	C	-0.477342	-0.443470	0.034500
C32	C	-0.665895	-0.342485	0.021756
C33	C	-0.712772	-0.317221	0.018243
C34	C	-0.736287	-0.338907	0.016481
C35	C	-0.787116	-0.311512	0.012664
C36	C	-0.712921	-0.385861	0.018236
C37	C	-0.666047	-0.411125	0.021755
C38	C	-0.642533	-0.389434	0.023515
C39	C	-0.389805	-0.687746	0.021758
C40	C	-0.368199	-0.731097	0.018245
C41	C	-0.322995	-0.752841	0.016478
C42	C	-0.299567	-0.799839	0.012662
C43	C	-0.299393	-0.731235	0.018230
C44	C	-0.320995	-0.687892	0.021751
C45	C	-0.366205	-0.666148	0.023512
C46	C	-0.389808	-0.342477	0.021744
C47	C	-0.368205	-0.317208	0.018222
C48	C	-0.322998	-0.338892	0.016457
C49	C	-0.299573	-0.311495	0.012637
C50	C	-0.299398	-0.385842	0.018210
C51	C	-0.321003	-0.411107	0.021730
C52	C	-0.366208	-0.389423	0.023501
C53	C	-0.591706	-0.416830	0.027326
C54	C	-0.551191	-0.438667	0.030366
C55	C	-0.408299	-0.438663	0.030360
C56	C	-0.389629	-0.416824	0.027317
C57	C	-0.408298	-0.581682	0.030365
C58	C	-0.389627	-0.619146	0.027325
C59	C	-0.432024	-0.061845	-0.438511
C60	C	-0.477645	-0.015917	-0.461431
C61	C	-0.432025	-0.061844	-0.369869
C62	C	-0.477645	-0.015916	-0.392892
C63	C	-0.500668	0.006779	-0.438513
C64	C	-0.409106	-0.084435	-0.392891
C65	C	-0.320834	-0.185425	-0.480424
C66	C	-0.299076	-0.210690	-0.502029
C67	C	-0.322531	-0.189005	-0.547237
C68	C	-0.298945	-0.216401	-0.570661
C69	C	-0.367745	-0.142051	-0.570839
C70	C	-0.389497	-0.116787	-0.549237
C71	C	-0.366040	-0.138476	-0.504027
C72	C	-0.666200	0.159838	-0.549704
C73	C	-0.713077	0.203188	-0.571462
C74	C	-0.736595	0.224934	-0.548009
C75	C	-0.787423	0.271931	-0.571594
C76	C	-0.713230	0.203329	-0.502796
C77	C	-0.666353	0.159987	-0.481041
C78	C	-0.642841	0.138241	-0.504500
C79	C	-0.320836	-0.185423	-0.204335
C80	C	-0.299080	-0.210691	-0.157455
C81	C	-0.322536	-0.189006	-0.133940
C82	C	-0.298950	-0.216402	-0.083110
C83	C	-0.367748	-0.142056	-0.157305
C84	C	-0.389502	-0.116792	-0.204182
C85	C	-0.366040	-0.138478	-0.227695
C86	C	-0.389632	-0.111079	-0.480604
C87	C	-0.408436	-0.089241	-0.461934
C88	C	-0.408437	-0.089240	-0.319041
C89	C	-0.389634	-0.111078	-0.278525
C90	C	-0.551496	0.053776	-0.462102
C91	C	-0.592011	0.091239	-0.480906
O92	O	0.196122	-0.334274	0.011291
O93	O	0.063378	-0.256674	-0.011208
O94	O	0.140994	-0.334276	0.066414
O95	O	0.118506	-0.256671	-0.066331
O96	O	0.140996	-0.271251	0.066419
O97	O	0.063380	-0.193649	-0.011203
O98	O	0.196124	-0.271249	0.011296
Cu99	Cu	0.129752	-0.226694	0.000047
Cu100	Cu	0.129750	-0.301228	0.000041
O101	O	0.118508	-0.193647	-0.066327
O102	O	-0.260036	0.184774	0.011294
O103	O	-0.204910	0.074561	-0.011204
O104	O	-0.204913	0.074554	0.066418
O105	O	-0.260033	0.184781	-0.066328
O106	O	-0.267961	0.074557	0.066413
O107	O	-0.267958	0.074564	-0.011209
O108	O	-0.323083	0.184777	0.011289
Cu109	Cu	-0.301278	0.129670	0.000040
Cu110	Cu	-0.226716	0.129668	0.000045
O111	O	-0.323081	0.184784	-0.066333
O112	O	-0.936929	0.397535	-0.602582
O113	O	-0.804185	0.287317	-0.547454
O114	O	-0.881802	0.287315	-0.547452
O115	O	-0.859312	0.397537	-0.602584
O116	O	-0.881801	0.287314	-0.610498
O117	O	-0.804183	0.287316	-0.610500
O118	O	-0.936927	0.397533	-0.665628
Cu119	Cu	-0.870555	0.342425	-0.643820
Cu120	Cu	-0.870557	0.342426	-0.569261
O121	O	-0.859310	0.397536	-0.665629
O122	O	-0.267961	-0.271234	-0.665316
O123	O	-0.323086	-0.193638	-0.610192
O124	O	-0.323085	-0.271236	-0.610189
O125	O	-0.267962	-0.193636	-0.665319
O126	O	-0.260038	-0.334264	-0.547142
O127	O	-0.260039	-0.256666	-0.547145
O128	O	-0.204914	-0.334262	-0.602269
Cu129	Cu	-0.226720	-0.301219	-0.568950
Cu130	Cu	-0.301280	-0.226681	-0.643511
O131	O	-0.204915	-0.256664	-0.602272
C132	C	-0.094840	-0.456607	0.293255
C133	C	-0.044837	-0.503376	0.316647
C134	C	-0.117862	-0.433912	0.316174
C135	C	-0.163483	-0.387984	0.224612
C136	C	-0.186875	-0.361381	0.174609
C137	C	-0.186401	-0.365393	0.247634
C138	C	-0.163483	-0.387984	0.293255
C139	C	-0.186874	-0.361382	0.316646
C140	C	-0.117862	-0.433912	0.247635
C141	C	-0.205772	-0.339889	0.335543
C142	C	-0.004440	-0.541160	0.335545
C143	C	-0.205773	-0.339888	0.134212
C144	C	-0.229480	-0.312925	0.359250
C145	C	0.046239	-0.588562	0.359254
C146	C	-0.229481	-0.312924	0.083532
C147	C	0.153295	-0.388013	0.293279
C148	C	0.150076	-0.361413	0.316673
C149	C	0.153614	-0.433940	0.316196
C150	C	0.153297	-0.388008	0.224634
C151	C	0.150079	-0.361403	0.174632
C152	C	0.153616	-0.433935	0.247655
C153	C	0.153293	-0.456633	0.293275
C154	C	0.150072	-0.503401	0.316665
C155	C	0.153617	-0.365420	0.247659
C156	C	0.147469	-0.541185	0.335561
C157	C	0.147474	-0.339922	0.335572
C158	C	0.147479	-0.339908	0.134234
C159	C	0.144204	-0.588587	0.359267
C160	C	0.144211	-0.312962	0.359282
C161	C	0.144218	-0.312942	0.083555
C162	C	-0.163482	-0.139963	0.293267
C163	C	-0.186875	-0.166567	0.316654
C164	C	-0.117861	-0.162559	0.316187
C165	C	-0.163482	-0.071333	0.224628
C166	C	-0.186873	-0.024557	0.174627
C167	C	-0.117860	-0.094033	0.247653
C168	C	-0.094838	-0.139967	0.293272
C169	C	-0.044835	-0.166574	0.316665
C170	C	-0.186401	-0.094030	0.247648
C171	C	-0.004438	-0.188070	0.335563
C172	C	-0.205773	-0.188061	0.335549
C173	C	-0.205771	0.013233	0.134231
C174	C	0.046242	-0.215038	0.359273
C175	C	-0.229482	-0.215026	0.359253
C176	C	-0.229479	0.060643	0.083553
C177	C	0.095627	0.006487	-0.438489
C178	C	0.095306	-0.016206	-0.461409
C179	C	0.095623	-0.062137	-0.369847
C180	C	0.095303	-0.084726	-0.392871
C181	C	0.095625	-0.062133	-0.438492
C182	C	0.095305	-0.016210	-0.392868
C183	C	0.108059	0.159543	-0.480399
C184	C	0.111575	0.202893	-0.502003
C185	C	0.113340	0.224640	-0.547210
C186	C	0.117161	0.271637	-0.570634
C187	C	0.111587	0.203038	-0.570814
C188	C	0.108065	0.159695	-0.549212
C189	C	0.106302	0.137948	-0.504002
C190	C	0.108054	-0.116452	-0.549685
C191	C	0.111568	-0.141562	-0.571444
C192	C	0.113332	-0.188519	-0.547992
C193	C	0.117148	-0.215753	-0.571578
C194	C	0.111577	-0.210363	-0.502779
C195	C	0.108055	-0.185249	-0.481023
C196	C	0.106297	-0.138292	-0.504481
C197	C	0.108046	-0.116473	-0.204312
C198	C	0.111564	-0.141591	-0.157432
C199	C	0.113326	-0.188548	-0.133918
C200	C	0.117142	-0.215786	-0.083088
C201	C	0.111574	-0.210388	-0.157283
C202	C	0.108058	-0.185270	-0.204161
C203	C	0.106290	-0.138308	-0.227673
C204	C	0.102487	0.090947	-0.480580
C205	C	0.099445	0.053484	-0.461911
C206	C	0.099438	-0.089371	-0.319019
C207	C	0.102477	-0.111078	-0.278503
C208	C	0.099442	-0.089362	-0.462081
C209	C	0.102482	-0.111066	-0.480886
O210	O	0.118477	-0.256700	0.452885
O211	O	0.140984	-0.334299	0.397762
O212	O	0.063360	-0.256699	0.397752
O213	O	0.196101	-0.334300	0.452895
O214	O	0.063367	-0.193672	0.334708
O215	O	0.140992	-0.271271	0.334718
O216	O	0.118484	-0.193673	0.389842
Cu217	Cu	0.129739	-0.226717	0.356523
Cu218	Cu	0.129730	-0.301254	0.431080
O219	O	0.196108	-0.271272	0.389852
C220	C	-0.500364	0.533998	-0.438484
C221	C	-0.477341	0.556591	-0.461399
C222	C	-0.431721	0.465364	-0.369840
C223	C	-0.408802	0.488061	-0.392859
C224	C	-0.431720	0.533995	-0.438478
C225	C	-0.477342	0.488064	-0.392865
C226	C	-0.665898	0.588334	-0.480407
C227	C	-0.712776	0.613450	-0.502014
C228	C	-0.736291	0.660414	-0.547220
C229	C	-0.787122	0.687654	-0.570647
C230	C	-0.712926	0.682257	-0.570819
C231	C	-0.666050	0.657138	-0.549214
C232	C	-0.642536	0.610174	-0.504006
C233	C	-0.389802	0.657585	-0.549654
C234	C	-0.368196	0.682850	-0.571408
C235	C	-0.322990	0.661164	-0.547952
C236	C	-0.299561	0.688558	-0.571532
C237	C	-0.299388	0.614205	-0.502740
C238	C	-0.320990	0.588935	-0.480990
C239	C	-0.366202	0.610633	-0.504452
C240	C	-0.389804	0.312282	-0.204314
C241	C	-0.368201	0.268929	-0.157436
C242	C	-0.322993	0.247179	-0.133918
C243	C	-0.299567	0.200174	-0.083089
C244	C	-0.299392	0.268786	-0.157278
C245	C	-0.320998	0.312139	-0.204154
C246	C	-0.366204	0.333881	-0.227670
C247	C	-0.591708	0.582942	-0.480581
C248	C	-0.551193	0.561234	-0.461909
C249	C	-0.408297	0.418359	-0.319013
C250	C	-0.389626	0.380890	-0.278499
C251	C	-0.408296	0.561393	-0.462062
C252	C	-0.389624	0.583232	-0.480862
H253	H	-0.099380	-0.199466	-0.024359
O254	O	0.154216	-0.321319	0.225534
C255	C	0.154449	-0.306170	0.180253
H256	H	0.139467	-0.322402	0.168909
H257	H	0.191605	-0.323265	0.179869
C258	C	0.143149	-0.224667	0.160567
C259	C	0.124744	-0.244599	0.146632
H260	H	0.124827	-0.186687	0.139828
H261	H	0.142994	-0.234873	0.191074
H262	H	0.174112	-0.238918	0.160247
H263	H	0.093784	-0.230353	0.146958
H264	H	0.124893	-0.234388	0.116124
H265	H	-0.301778	0.329728	-0.223172
O266	O	-0.095877	-0.206610	0.360923
C267	C	-0.120713	-0.194634	0.389145
H268	H	-0.158389	-0.159435	0.366900
H269	H	-0.104469	-0.183679	0.406302
C270	C	-0.072616	-0.287134	0.454168
C271	C	-0.118891	-0.243904	0.426847
H272	H	-0.071491	-0.317527	0.477426
H273	H	-0.055882	-0.295203	0.435155
H274	H	-0.059085	-0.277998	0.468461
H275	H	-0.132420	-0.253039	0.412551
H276	H	-0.135628	-0.235839	0.445858
H277	H	-0.731792	-0.278991	0.016812
O278	O	-0.231144	-0.071327	0.225638
C279	C	-0.259362	-0.055996	0.250489
H280	H	-0.241807	-0.050390	0.272464
H281	H	-0.264633	-0.088481	0.274045
C282	C	-0.328340	-0.009826	0.189138
C283	C	-0.306781	-0.002935	0.216126
H284	H	-0.357591	0.022903	0.167943
H285	H	-0.309330	-0.020156	0.172396
H286	H	-0.332728	-0.036898	0.208773
H287	H	-0.302388	0.024132	0.196492
H288	H	-0.325791	0.007401	0.232864
O289	O	-0.231112	-0.321291	0.225646
C290	C	-0.246494	-0.306145	0.255775
H291	H	-0.215274	-0.322380	0.283356
H292	H	-0.266551	-0.323238	0.273260
C293	C	-0.316720	-0.224637	0.193933
C294	C	-0.278375	-0.244574	0.227806
H295	H	-0.336387	-0.186658	0.176681
H296	H	-0.306358	-0.234842	0.173634
H297	H	-0.333429	-0.238887	0.208509
H298	H	-0.261663	-0.230329	0.213229
H299	H	-0.288734	-0.234364	0.248101
O300	O	0.154203	-0.456643	0.225662
C301	C	0.154426	-0.502138	0.255788
H302	H	0.139453	-0.498505	0.283375
H303	H	0.191579	-0.539673	0.273267
C304	C	0.143098	-0.510497	0.193938
C305	C	0.124705	-0.506033	0.227818
H306	H	0.124767	-0.512902	0.176685
H307	H	0.142949	-0.479848	0.173642
H308	H	0.174058	-0.541777	0.208509
H309	H	0.093748	-0.474751	0.213247
H310	H	0.124848	-0.536677	0.248111
H311	H	0.106608	-0.078237	-0.223453
H312	H	-0.099376	-0.075038	0.229168
O313	O	-0.095741	-0.456628	0.225646
C314	C	-0.050440	-0.502090	0.255751
H315	H	-0.049019	-0.517788	0.293261
H316	H	-0.024921	-0.490672	0.248096
C317	C	-0.039095	-0.526687	0.202235
C318	C	-0.037350	-0.545971	0.248306
H319	H	-0.031019	-0.553755	0.197642
H320	H	-0.069614	-0.496058	0.181952
H321	H	-0.017829	-0.517172	0.195862
H322	H	-0.058621	-0.555480	0.254677
H323	H	-0.006834	-0.576604	0.268590
H324	H	0.094785	-0.121682	-0.374387
H325	H	0.154122	-0.452930	0.353678
O326	O	0.106422	-0.206571	-0.226793
C327	C	0.147176	-0.258849	-0.204732
H328	H	0.163022	-0.275716	-0.167193
H329	H	0.173128	-0.257602	-0.223722
C330	C	0.115769	-0.274139	-0.251797
C331	C	0.135230	-0.294857	-0.205689
H332	H	0.108401	-0.296350	-0.252388
H333	H	0.088313	-0.238918	-0.266661
H334	H	0.137399	-0.273101	-0.267617
H335	H	0.113598	-0.295888	-0.189871
H336	H	0.162682	-0.330079	-0.190822
O337	O	-0.433721	0.678598	-0.572371
C338	C	-0.447727	0.646223	-0.543484
H339	H	-0.426470	0.622494	-0.505647
H340	H	-0.441910	0.617324	-0.552522
C341	C	-0.525707	0.711098	-0.597306
C342	C	-0.499601	0.681957	-0.550833
H343	H	-0.557706	0.733139	-0.601840
H344	H	-0.516271	0.732909	-0.616769
H345	H	-0.520854	0.687010	-0.604832
H346	H	-0.504450	0.706045	-0.543309
H347	H	-0.509040	0.660151	-0.531369
O348	O	-0.231111	-0.071414	-0.024440
C349	C	-0.246494	-0.101303	-0.024672
H350	H	-0.215274	-0.143852	-0.009694
H351	H	-0.266552	-0.081633	-0.061829
C352	C	-0.316718	-0.050785	-0.013365
C353	C	-0.278373	-0.103046	0.005036
H354	H	-0.336385	-0.051859	0.004959
H355	H	-0.306356	-0.030647	-0.013209
H356	H	-0.333428	-0.034399	-0.044328
H357	H	-0.261661	-0.119429	0.035997
H358	H	-0.288734	-0.123187	0.004887
O359	O	0.094744	0.006488	-0.506110
C360	C	0.094543	0.051967	-0.521488
H361	H	0.109498	0.048338	-0.490262
H362	H	0.057400	0.089517	-0.541582
C363	C	0.105929	0.060280	-0.591672
C364	C	0.124301	0.055821	-0.553321
H365	H	0.124283	0.062659	-0.611310
H366	H	0.106063	0.029641	-0.581313
H367	H	0.074977	0.091572	-0.608412
H368	H	0.155251	0.024526	-0.536578
H369	H	0.124174	0.086455	-0.563678
H370	H	0.094825	0.002760	-0.374372
H371	H	-0.099379	-0.074998	-0.024355
O372	O	-0.643115	-0.321368	0.023501
C373	C	-0.673787	-0.274512	0.021198
H374	H	-0.703369	-0.275778	0.033256
H375	H	-0.688528	-0.237904	-0.016118
C376	C	-0.611087	-0.269514	0.037990
C377	C	-0.647418	-0.271071	0.052803
H378	H	-0.594821	-0.267390	0.057484
H379	H	-0.590423	-0.301081	0.039540
H380	H	-0.623377	-0.239008	0.006894
H381	H	-0.635127	-0.301580	0.083897
H382	H	-0.668079	-0.239509	0.051259
H383	H	0.113001	-0.123813	-0.138408
H384	H	-0.371321	-0.530978	0.035012
O385	O	-0.643385	-0.456768	0.023517
C386	C	-0.644305	-0.496698	0.062549
H387	H	-0.674795	-0.477008	0.073296
H388	H	-0.610512	-0.523818	0.092458
C389	C	-0.612324	-0.554462	0.037064
C390	C	-0.649775	-0.530279	0.050262
H391	H	-0.615697	-0.575179	0.029486
H392	H	-0.611703	-0.527562	0.010768
H393	H	-0.584167	-0.577059	0.061991
H394	H	-0.677931	-0.507678	0.025333
H395	H	-0.650402	-0.557176	0.076553
O396	O	-0.499315	-0.534734	0.035140
C397	C	-0.469195	-0.580214	0.035345
H398	H	-0.431691	-0.595878	0.049599
H399	H	-0.476855	-0.568832	-0.001583
C400	C	-0.522669	-0.604872	0.048692
C401	C	-0.476606	-0.624113	0.066202
H402	H	-0.527241	-0.631951	0.067724
H403	H	-0.542962	-0.574230	0.048552
H404	H	-0.529047	-0.595388	0.017919
H405	H	-0.470231	-0.633591	0.096973
H406	H	-0.456311	-0.654758	0.066348
H407	H	-0.301775	-0.670305	0.023178
H408	H	-0.099377	-0.452909	0.353658
H409	H	0.106623	0.141841	-0.443588
H410	H	-0.732075	0.720493	-0.607626
O411	O	0.113298	0.223793	-0.479001
C412	C	0.110976	0.195312	-0.434472
H413	H	0.123046	0.153721	-0.423800
H414	H	0.073654	0.217834	-0.435174
C415	C	0.127725	0.241043	-0.412406
C416	C	0.142554	0.189959	-0.399297
H417	H	0.147202	0.237743	-0.390708
H418	H	0.129288	0.260233	-0.442406
H419	H	0.096623	0.259806	-0.412991
H420	H	0.173653	0.171200	-0.398718
H421	H	0.140997	0.170766	-0.369295
O422	O	0.113387	0.224117	-0.614694
C423	C	0.155305	0.219891	-0.614587
H424	H	0.182117	0.186300	-0.578305
H425	H	0.148955	0.259349	-0.625033
C426	C	0.140524	0.248604	-0.693934
C427	C	0.173456	0.207344	-0.649372
H428	H	0.151720	0.240867	-0.715392
H429	H	0.112282	0.251454	-0.694006
H430	H	0.135235	0.281482	-0.702632
H431	H	0.178740	0.174469	-0.640672
H432	H	0.201700	0.204489	-0.649299
O433	O	-0.499453	0.465458	-0.370889
C434	C	-0.544749	0.495373	-0.401000
H435	H	-0.546173	0.518626	-0.438507
H436	H	-0.570282	0.524625	-0.393328
C437	C	-0.556063	0.428567	-0.347523
C438	C	-0.557811	0.457123	-0.393590
H439	H	-0.564121	0.404973	-0.342951
H440	H	-0.525547	0.408413	-0.327235
H441	H	-0.577341	0.452948	-0.341136
H442	H	-0.536529	0.432742	-0.399975
H443	H	-0.588323	0.477272	-0.413879
H444	H	-0.301770	0.550701	-0.444180
H445	H	-0.495829	-0.406511	0.035012
O446	O	-0.391189	-0.271617	0.016543
C447	C	-0.435724	-0.257890	0.018847
H448	H	-0.435679	-0.295179	0.035936
H449	H	-0.462181	-0.226664	-0.017724
C450	C	-0.448747	-0.188905	0.026693
C451	C	-0.448691	-0.234706	0.047685
H452	H	-0.456747	-0.174601	0.044480
H453	H	-0.418743	-0.198152	0.025139
H454	H	-0.470794	-0.162889	-0.003782
H455	H	-0.426640	-0.260723	0.078157
H456	H	-0.478691	-0.225463	0.049245
H457	H	-0.732070	-0.403516	0.016804
H458	H	0.106637	0.142110	-0.568432
O459	O	-0.433742	-0.321423	0.023401
C460	C	-0.462957	-0.308758	-0.014455
H461	H	-0.441207	-0.333931	-0.027228
H462	H	-0.481875	-0.264426	-0.043741
C463	C	-0.525406	-0.289882	0.016694
C464	C	-0.498693	-0.320804	0.001009
H465	H	-0.547451	-0.297310	0.026232
H466	H	-0.505724	-0.298413	0.042198
H467	H	-0.541167	-0.252942	-0.007713
H468	H	-0.482928	-0.357743	0.025418
H469	H	-0.518373	-0.312280	-0.024490
H470	H	0.106619	-0.078217	-0.568789
O471	O	0.113299	-0.120293	-0.615351
C472	C	0.110983	-0.073460	-0.631390
H473	H	0.123048	-0.074859	-0.600457
H474	H	0.073664	-0.036846	-0.653224
C475	C	0.127750	-0.068156	-0.699193
C476	C	0.142572	-0.069876	-0.661200
H477	H	0.147233	-0.065943	-0.717583
H478	H	0.129308	-0.099707	-0.688388
H479	H	0.096651	-0.037644	-0.717383
H480	H	0.173669	-0.100391	-0.643008
H481	H	0.141020	-0.038330	-0.672003
O482	O	0.113227	-0.255936	-0.480067
C483	C	0.075369	-0.247292	-0.505256
H484	H	0.062597	-0.212778	-0.543211
H485	H	0.046085	-0.236929	-0.490197
C486	C	0.106515	-0.340864	-0.455227
C487	C	0.090830	-0.298476	-0.501844
H488	H	0.116050	-0.372437	-0.453121
H489	H	0.132019	-0.346687	-0.438256
H490	H	0.082108	-0.332221	-0.442683
H491	H	0.115238	-0.307116	-0.514386
H492	H	0.065330	-0.292655	-0.518818
O493	O	-0.297987	-0.206465	-0.436542
C494	C	-0.257123	-0.208301	-0.435566
H495	H	-0.260997	-0.177533	-0.471886
H496	H	-0.226403	-0.250062	-0.423350
C497	C	-0.243990	-0.233248	-0.357332
C498	C	-0.248750	-0.195455	-0.401940
H499	H	-0.238824	-0.225326	-0.336588
H500	H	-0.271520	-0.232013	-0.357989
H501	H	-0.218391	-0.268045	-0.347158
H502	H	-0.274352	-0.160659	-0.412115
H503	H	-0.221224	-0.196683	-0.401284
H504	H	0.106623	-0.203035	-0.444212
H505	H	0.113009	-0.248624	-0.138135
O506	O	-0.364078	0.465320	-0.370747
C507	C	-0.348702	0.419841	-0.325454
H508	H	-0.370534	0.404172	-0.324035
H509	H	-0.352428	0.431226	-0.299914
C510	C	-0.270566	0.395193	-0.314141
C511	C	-0.297379	0.375946	-0.312398
H512	H	-0.238907	0.368116	-0.306086
H513	H	-0.280926	0.425834	-0.344655
H514	H	-0.273677	0.404680	-0.292857
H515	H	-0.294273	0.366465	-0.333686
H516	H	-0.287018	0.345302	-0.281888
H517	H	-0.262581	0.251075	-0.138127
H518	H	-0.495826	0.593550	-0.498882
O519	O	-0.391185	0.247992	-0.134819
C520	C	-0.435721	0.276489	-0.165624
H521	H	-0.435678	0.296659	-0.202880
H522	H	-0.462177	0.308269	-0.160842
C523	C	-0.448744	0.212673	-0.109649
C524	C	-0.448690	0.237441	-0.155408
H525	H	-0.456746	0.188587	-0.103346
H526	H	-0.418740	0.193474	-0.088894
H527	H	-0.470791	0.239160	-0.105669
H528	H	-0.426641	0.210955	-0.159385
H529	H	-0.478691	0.256635	-0.176163
O530	O	-0.735408	0.592178	-0.479017
C531	C	-0.704600	0.545336	-0.434488
H532	H	-0.675067	0.546731	-0.423812
H533	H	-0.689808	0.508730	-0.435194
C534	C	-0.767098	0.540024	-0.412428
C535	C	-0.730826	0.541738	-0.399314
H536	H	-0.783275	0.537802	-0.390731
H537	H	-0.787854	0.571581	-0.442429
H538	H	-0.754766	0.509518	-0.413016
H539	H	-0.743159	0.572247	-0.398732
H540	H	-0.710073	0.510186	-0.369313
H541	H	-0.426615	-0.670047	0.023195
O542	O	-0.391198	-0.752003	0.016527
C543	C	-0.435726	-0.723525	0.018850
H544	H	-0.446401	-0.681932	0.006774
H545	H	-0.435022	-0.746046	0.056174
C546	C	-0.457785	-0.769269	0.002113
C547	C	-0.470898	-0.718181	-0.012722
H548	H	-0.479481	-0.765974	-0.017360
H549	H	-0.427785	-0.788457	0.000550
H550	H	-0.457198	-0.788031	0.033217
H551	H	-0.471479	-0.699423	-0.043823
H552	H	-0.500899	-0.698991	-0.011165
O553	O	-0.255465	0.593050	-0.479895
C554	C	-0.239272	0.546195	-0.435325
H555	H	-0.259399	0.529030	-0.435247
H556	H	-0.244570	0.556310	-0.408871
C557	C	-0.162515	0.525622	-0.422576
C558	C	-0.187234	0.504536	-0.422482
H559	H	-0.130415	0.499925	-0.414653
H560	H	-0.173425	0.557190	-0.452603
H561	H	-0.166936	0.534050	-0.400531
H562	H	-0.182817	0.496115	-0.444531
H563	H	-0.176322	0.472966	-0.392459
O564	O	-0.643430	0.678439	-0.572193
C565	C	-0.674231	0.725268	-0.616729
H566	H	-0.711487	0.742305	-0.616688
H567	H	-0.669451	0.715162	-0.643189
C568	C	-0.618249	0.746133	-0.629741
C569	C	-0.664008	0.767061	-0.629689
H570	H	-0.611942	0.771913	-0.637737
H571	H	-0.597497	0.714583	-0.599737
H572	H	-0.614271	0.737713	-0.651791
H573	H	-0.667984	0.775475	-0.607636
H574	H	-0.684761	0.798614	-0.659690
H575	H	-0.426614	0.329984	-0.223458
O576	O	-0.255459	-0.752449	0.016576
C577	C	-0.226242	-0.806835	0.054435
H578	H	-0.247989	-0.823038	0.067211
H579	H	-0.207325	-0.810691	0.083718
C580	C	-0.163795	-0.819246	0.023283
C581	C	-0.190505	-0.839149	0.038972
H582	H	-0.141749	-0.839179	0.013746
H583	H	-0.183478	-0.782605	-0.002222
H584	H	-0.148035	-0.822461	0.047688
H585	H	-0.206269	-0.835928	0.014565
H586	H	-0.170823	-0.875790	0.064473
H587	H	-0.646757	0.550094	-0.443598
H588	H	-0.387416	0.721084	-0.608218
H589	H	-0.262587	-0.403497	0.016771
O590	O	-0.298003	-0.456725	0.023453
C591	C	-0.253475	-0.470441	0.021131
H592	H	-0.242801	-0.451588	0.033202
H593	H	-0.254177	-0.454949	-0.016192
C594	C	-0.231412	-0.554976	0.037880
C595	C	-0.218302	-0.531824	0.052709
H596	H	-0.209716	-0.592839	0.057357
H597	H	-0.261412	-0.545735	0.039442
H598	H	-0.231997	-0.542060	0.006777
H599	H	-0.217722	-0.544735	0.083809
H600	H	-0.188300	-0.541069	0.051153
O601	O	-0.255133	-0.256243	-0.134803
C602	C	-0.224907	-0.245725	-0.156879
H603	H	-0.240733	-0.201073	-0.177108
H604	H	-0.219439	-0.258160	-0.181747
C605	C	-0.158461	-0.332600	-0.095231
C606	C	-0.177897	-0.277758	-0.120073
H607	H	-0.129462	-0.352361	-0.072527
H608	H	-0.178824	-0.339688	-0.080358
H609	H	-0.153908	-0.342955	-0.115959
H610	H	-0.182454	-0.267403	-0.099345
H611	H	-0.157533	-0.270669	-0.134941
O612	O	-0.499623	0.006692	-0.370784
C613	C	-0.469512	-0.023217	-0.325489
H614	H	-0.432006	-0.046467	-0.324065
H615	H	-0.477181	-0.052470	-0.299950
C616	C	-0.522991	0.043594	-0.314184
C617	C	-0.476925	0.015041	-0.312436
H618	H	-0.527565	0.067192	-0.306131
H619	H	-0.543279	0.063743	-0.344699
H620	H	-0.529377	0.019211	-0.292902
H621	H	-0.470543	0.039423	-0.333722
H622	H	-0.456637	-0.005103	-0.281924
H623	H	-0.386837	-0.124397	-0.607648
H624	H	-0.426308	-0.078556	-0.568458
O625	O	-0.499624	0.006688	-0.506154
C626	C	-0.469497	-0.023191	-0.521544
H627	H	-0.441938	-0.065757	-0.490331
H628	H	-0.451985	-0.003545	-0.541565
C629	C	-0.531321	0.027414	-0.591813
C630	C	-0.497474	-0.024868	-0.553476
H631	H	-0.548578	0.026381	-0.611511
H632	H	-0.551618	0.047545	-0.581445
H633	H	-0.516722	0.043780	-0.608491
H634	H	-0.512073	-0.041230	-0.536795
H635	H	-0.477180	-0.045002	-0.563842
H636	H	-0.371622	-0.121391	-0.374409
H637	H	-0.262264	-0.248919	-0.482808
O638	O	-0.298040	-0.206412	-0.227221
C639	C	-0.293923	-0.168623	-0.264914
H640	H	-0.296599	-0.139141	-0.258124
H641	H	-0.322952	-0.145951	-0.298031
C642	C	-0.243309	-0.234002	-0.278864
C643	C	-0.246592	-0.197796	-0.270523
H644	H	-0.214114	-0.251997	-0.282326
H645	H	-0.246084	-0.259462	-0.253471
H646	H	-0.267502	-0.215103	-0.306461
H647	H	-0.222402	-0.216696	-0.242924
H648	H	-0.243812	-0.172340	-0.295912
O649	O	-0.643424	0.138799	-0.572566
C650	C	-0.674098	0.167154	-0.617130
H651	H	-0.703673	0.208788	-0.627932
H652	H	-0.688848	0.144591	-0.616421
C653	C	-0.611405	0.121229	-0.638910
C654	C	-0.647727	0.172367	-0.652179
H655	H	-0.595138	0.124443	-0.660530
H656	H	-0.590739	0.102124	-0.608886
H657	H	-0.623702	0.102432	-0.638319
H658	H	-0.635429	0.191160	-0.652764
H659	H	-0.668390	0.191475	-0.682205
H660	H	-0.732097	0.220775	-0.608274
H661	H	-0.732378	0.221040	-0.483702
H662	H	-0.647332	0.142401	-0.444230
H663	H	-0.426314	-0.078564	-0.223203
O664	O	-0.390489	-0.120954	-0.134468
C665	C	-0.365298	-0.108303	-0.117907
H666	H	-0.342123	-0.102539	-0.139460
H667	H	-0.342905	-0.142369	-0.080009
C668	C	-0.427803	-0.063333	-0.095423
C669	C	-0.399341	-0.056249	-0.121897
H670	H	-0.448802	-0.031225	-0.097882
H671	H	-0.444774	-0.071858	-0.106579
H672	H	-0.409137	-0.091723	-0.063844
H673	H	-0.418007	-0.027864	-0.153476
H674	H	-0.382375	-0.047718	-0.110747
