data_functionalizedCrystal
_audit_creation_method	'MofGen! by Chris Wilmer'
_symmetry_space_group_name_H-M	'P1'
_symmetry_Int_Tables_number	1
_symmetry_cell_setting	triclinic
loop_
_symmetry_equiv_pos_as_xyz
  x,y,z
_cell_length_a	19.077105
_cell_length_b	12.759394
_cell_length_c	19.076919
_cell_angle_alpha	92.274121
_cell_angle_beta	90.076224
_cell_angle_gamma	87.711291
loop_
_atom_site_label
_atom_site_type_symbol
_atom_site_fract_x
_atom_site_fract_y
_atom_site_fract_z
Zn1	Zn	1.058327	-0.508276	-0.440432
Zn2	Zn	1.062986	-0.677203	-0.322930
Zn3	Zn	0.945543	-0.494202	-0.318225
Zn4	Zn	0.940807	-0.676569	-0.435682
O5	O	1.001916	-0.589062	-0.379317
O6	O	1.157277	-0.536840	-0.428802
O7	O	1.051338	-0.647302	-0.223974
O8	O	0.960536	-0.349050	-0.334454
O9	O	1.160700	-0.660950	-0.342473
O10	O	1.043398	-0.359391	-0.424239
O11	O	0.965054	-0.512852	-0.220517
O12	O	0.846582	-0.512238	-0.329849
O13	O	0.952465	-0.659870	-0.534644
O14	O	0.843103	-0.646222	-0.416144
O15	O	1.038806	-0.536225	-0.538133
O16	O	1.046746	-0.824137	-0.337868
O17	O	0.956982	-0.823671	-0.420707
C18	C	0.819346	-0.577635	-0.371971
C19	C	0.741242	-0.572772	-0.368845
C20	C	0.702757	-0.640344	-0.412235
C21	C	0.629370	-0.635761	-0.409302
C22	C	0.594467	-0.563612	-0.362974
C23	C	0.632957	-0.496033	-0.319582
C24	C	0.706343	-0.500611	-0.322520
C25	C	0.375178	-0.542424	-0.349381
C26	C	0.301786	-0.537853	-0.346444
C27	C	0.298204	-0.677581	-0.436166
C28	C	0.371592	-0.682157	-0.439096
C29	C	0.410075	-0.614574	-0.395707
N30	N	0.519453	-0.558928	-0.359972
N31	N	0.485088	-0.619253	-0.398713
C32	C	1.001874	-0.862026	-0.379298
C33	C	1.001920	-0.978807	-0.379316
C34	C	1.095456	-0.979246	-0.293126
C35	C	1.142242	-1.034328	-0.250040
C36	C	1.142282	-1.144054	-0.250061
C37	C	1.095533	-1.198699	-0.293174
C38	C	1.048747	-1.143617	-0.336260
C39	C	1.048710	-1.033889	-0.336233
C40	C	0.955216	-1.143178	-0.422453
C41	C	0.955171	-1.033453	-0.422429
C42	C	0.908467	-1.197824	-0.465566
C43	C	0.861676	-1.142741	-0.508649
C44	C	0.861637	-1.033009	-0.508626
C45	C	0.908385	-0.978370	-0.465515
C46	C	1.185198	-0.600535	-0.386692
C47	C	1.263302	-0.605424	-0.389835
C48	C	0.994587	-0.599547	-0.562597
C49	C	0.991465	-0.604015	-0.640701
C50	C	1.001976	-0.315035	-0.379352
C51	C	1.002002	-0.198260	-0.379367
C52	C	1.034948	-0.541742	-0.679212
C53	C	1.032006	-0.545935	-0.752598
C54	C	0.985582	-0.612408	-0.787471
C55	C	0.942093	-0.674683	-0.748955
C56	C	0.945033	-0.670484	-0.675570
C57	C	0.971966	-0.631866	-1.006753
C58	C	0.969031	-0.636063	-1.080143
C59	C	1.058943	-0.507313	-1.083780
C60	C	1.061881	-0.503124	-1.010394
C61	C	1.018390	-0.565395	-0.971884
N62	N	0.982574	-0.616698	-0.862484
N63	N	1.021395	-0.561098	-0.896873
C64	C	1.009256	-0.578545	-0.196751
C65	C	1.012515	-0.573790	-0.118654
H66	H	0.731170	-0.699099	-0.449959
C67	C	0.702518	-0.362054	-0.233529
C68	C	0.748648	-0.426344	-0.274817
H69	H	0.728636	-0.316207	-0.204076
H70	H	0.672683	-0.321904	-0.263044
H71	H	0.674957	-0.404453	-0.205455
H72	H	0.776206	-0.383945	-0.302895
H73	H	0.778494	-0.466497	-0.245299
C74	C	0.769220	-1.131293	-0.593851
C75	C	0.810297	-1.202807	-0.556038
H76	H	0.737503	-1.168380	-0.623110
H77	H	0.743569	-1.085129	-0.562126
H78	H	0.798730	-1.091881	-0.621970
H79	H	0.780787	-1.242214	-0.527915
H80	H	0.835949	-1.248989	-0.587767
H81	H	1.067416	-0.495228	-0.783950
H82	H	0.823541	-0.988168	-0.543715
C83	C	0.871199	-0.649445	-1.158861
C84	C	0.917990	-0.709125	-1.118475
H85	H	0.839693	-0.694550	-1.182528
H86	H	0.845485	-0.600355	-1.129155
H87	H	0.896689	-0.612970	-1.192298
H88	H	0.892501	-0.745595	-1.085035
H89	H	0.943707	-0.758235	-1.148184
C90	C	1.181295	-0.995928	-0.132447
C91	C	1.193624	-0.974260	-0.202648
H92	H	1.213020	-0.958851	-0.103192
H93	H	1.134500	-0.974468	-0.120235
H94	H	1.188017	-1.069162	-0.126305
H95	H	1.186897	-0.901027	-0.208792
H96	H	1.240430	-0.995714	-0.214864
C97	C	1.106263	-0.439450	-0.899515
C98	C	1.112878	-0.430003	-0.972061
H99	H	1.137742	-0.394299	-0.875851
H100	H	1.059529	-0.420473	-0.885609
H101	H	1.117044	-0.509984	-0.887887
H102	H	1.102092	-0.359470	-0.983690
H103	H	1.159623	-0.448973	-0.985973
H104	H	1.095419	-0.889901	-0.293096
C105	C	1.262672	-1.183203	-0.220712
C106	C	1.193711	-1.204601	-0.202701
H107	H	1.294421	-1.220577	-0.191470
H108	H	1.271034	-1.204487	-0.268342
H109	H	1.269331	-1.110032	-0.214527
H110	H	1.187051	-1.277772	-0.208891
H111	H	1.185346	-1.183323	-0.155059
H112	H	0.936563	-0.682588	-0.975407
H113	H	1.095576	-1.288044	-0.293193
C114	C	0.923724	-1.359876	-0.533176
C115	C	0.908516	-1.318436	-0.465592
H116	H	0.923758	-1.434338	-0.533189
H117	H	0.889170	-1.334898	-0.564998
H118	H	0.968566	-1.338510	-0.547168
H119	H	0.863671	-1.339797	-0.451601
H120	H	0.943071	-1.343425	-0.433759
C121	C	0.633201	-0.774362	-0.498261
C122	C	0.587068	-0.710055	-0.456986
H123	H	0.607085	-0.820236	-0.527695
H124	H	0.660754	-0.731985	-0.526346
H125	H	0.663044	-0.814491	-0.468730
H126	H	0.557229	-0.669920	-0.486517
H127	H	0.559503	-0.752437	-0.428899
H128	H	0.908353	-0.889026	-0.465488
H129	H	1.072754	-0.487616	-0.650823
C130	C	0.274234	-0.856098	-0.469293
C131	C	0.255904	-0.751853	-0.483866
H132	H	0.248116	-0.901948	-0.498743
H133	H	0.322929	-0.869140	-0.477671
H134	H	0.264075	-0.867906	-0.421581
H135	H	0.266068	-0.740043	-0.531577
H136	H	0.207197	-0.738806	-0.475493
H137	H	1.094350	-0.456614	-1.115143
C138	C	0.897667	-0.738295	-0.859832
C139	C	0.891063	-0.747752	-0.787287
H140	H	0.866166	-0.783412	-0.883494
H141	H	0.886917	-0.667758	-0.871451
H142	H	0.944398	-0.757317	-0.873752
H143	H	0.844334	-0.728722	-0.773367
H144	H	0.901809	-0.818304	-0.775663
C145	C	0.855885	-0.798199	-0.679342
C146	C	0.897247	-0.738955	-0.633237
H147	H	0.826387	-0.840477	-0.653206
H148	H	0.827863	-0.752384	-0.706881
H149	H	0.885355	-0.841927	-0.709200
H150	H	0.867776	-0.695221	-0.603383
H151	H	0.925271	-0.784775	-0.605686
H152	H	0.273371	-0.479088	-0.308723
C153	C	0.450357	-0.707518	-0.536908
C154	C	0.409952	-0.761458	-0.490029
H155	H	0.474041	-0.756479	-0.568348
H156	H	0.420662	-0.661568	-0.562688
H157	H	0.483781	-0.667938	-0.511478
H158	H	0.376525	-0.801032	-0.515459
H159	H	0.439651	-0.807427	-0.464246
C160	C	0.371337	-0.403851	-0.260402
C161	C	0.417472	-0.468139	-0.301686
H162	H	0.397451	-0.357993	-0.230955
H163	H	0.341497	-0.363714	-0.289921
H164	H	0.343781	-0.446250	-0.232324
H165	H	0.445024	-0.425740	-0.329769
H166	H	0.447323	-0.508280	-0.272165
H167	H	0.604533	-0.437283	-0.281863
