data_functionalizedCrystal
_audit_creation_method	'MofGen! by Chris Wilmer'
_symmetry_space_group_name_H-M	'P1'
_symmetry_Int_Tables_number	1
_symmetry_cell_setting	triclinic
loop_
_symmetry_equiv_pos_as_xyz
  x,y,z
_cell_length_a	10.654565
_cell_length_b	9.130313
_cell_length_c	10.654550
_cell_angle_alpha	90.000110
_cell_angle_beta	95.511889
_cell_angle_gamma	89.994064
loop_
_atom_site_label
_atom_site_type_symbol
_atom_site_fract_x
_atom_site_fract_y
_atom_site_fract_z
O1	O	-1.667823	0.121989	0.176487
O2	O	-1.302347	0.121949	0.193272
O3	O	-1.493488	0.121965	0.002141
O4	O	-1.476682	0.121974	0.367618
O5	O	-1.493485	-0.121634	0.002146
O6	O	-1.302344	-0.121650	0.193278
O7	O	-1.667820	-0.121610	0.176492
Cu8	Cu	-1.485082	-0.143872	0.184885
Cu9	Cu	-1.485085	0.144212	0.184879
O10	O	-1.476679	-0.121625	0.367624
C11	C	-1.255548	0.000145	0.192038
C12	C	-1.116105	0.000129	0.188339
N13	N	-1.485089	-0.346495	0.184889
C14	C	-1.050574	-0.132649	0.186616
C15	C	-0.919552	-0.132632	0.183149
C16	C	-0.919604	0.132953	0.183134
C17	C	-1.050625	0.132935	0.186592
C18	C	-1.116054	-0.265454	0.188363
C19	C	-1.050522	-0.398243	0.186641
C20	C	-0.919500	-0.398226	0.183175
C21	C	-0.854010	-0.265420	0.181430
C22	C	-1.492252	0.000167	-0.044655
C23	C	-1.488561	0.000172	-0.184098
C24	C	-0.714619	0.000183	0.177723
C25	C	-0.854063	0.000164	0.181415
C26	C	-1.569748	-0.423140	0.100285
C27	C	-1.569745	-0.576477	0.100270
C28	C	-1.400419	-0.576510	0.269474
C29	C	-1.400418	-0.423176	0.269482
C30	C	-1.654420	-0.346459	0.015692
C31	C	-1.739087	-0.423104	-0.068918
C32	C	-1.739084	-0.576441	-0.068933
C33	C	-1.654413	-0.653133	0.015662
N34	N	-1.485087	0.346834	0.184866
C35	C	-1.601101	0.000179	-0.263577
C36	C	-1.597625	0.000189	-0.394598
C37	C	-1.369057	0.000177	-0.366648
C38	C	-1.372535	0.000178	-0.235629
C39	C	-1.717127	0.000173	-0.212046
C40	C	-1.829677	0.000179	-0.291527
C41	C	-1.826201	0.000189	-0.422548
C42	C	-1.710174	0.000193	-0.474088
C43	C	-1.477914	0.000176	0.414419
C44	C	-1.481606	0.000181	0.553862
H45	H	-1.222738	-0.265482	0.191189
H46	H	-1.808016	-0.360654	-0.137800
H47	H	-0.866148	-0.506349	0.181763
H48	H	-0.866271	0.241077	0.181717
H49	H	-1.707353	0.000216	-0.580775
Br50	Br	-1.721852	0.000149	-0.034233
H51	H	-1.280894	0.000170	-0.170915
H52	H	-1.103854	-0.506368	0.188052
H53	H	-1.917844	0.000209	-0.487258
Br54	Br	-0.676198	-0.265401	0.176683
H55	H	-1.103982	0.241054	0.188001
H56	H	-1.654433	-0.221605	0.015699
H57	H	-1.808014	-0.638844	-0.137834
Br58	Br	-1.654400	-0.861235	0.015622
H59	H	-1.331485	-0.638962	0.338349
H60	H	-1.331479	-0.360771	0.338373
Br61	Br	-1.987133	0.000201	-0.221583
H62	H	-1.274593	0.000178	-0.408623
