data_functionalizedCrystal
_audit_creation_method	'MofGen! by Chris Wilmer'
_symmetry_space_group_name_H-M	'P1'
_symmetry_Int_Tables_number	1
_symmetry_cell_setting	triclinic
loop_
_symmetry_equiv_pos_as_xyz
  x,y,z
_cell_length_a	12.759401
_cell_length_b	12.759400
_cell_length_c	12.759393
_cell_angle_alpha	90.030879
_cell_angle_beta	90.018496
_cell_angle_gamma	90.014805
loop_
_atom_site_label
_atom_site_type_symbol
_atom_site_fract_x
_atom_site_fract_y
_atom_site_fract_z
Zn1	Zn	1.606256	-0.418200	0.593986
Zn2	Zn	1.606150	-0.593919	0.418309
Zn3	Zn	1.430558	-0.418255	0.418326
Zn4	Zn	1.430547	-0.593838	0.593950
O5	O	1.518378	-0.506053	0.506143
O6	O	1.753263	-0.441520	0.570690
O7	O	1.582818	-0.570673	0.271290
O8	O	1.453913	-0.271226	0.441650
O9	O	1.753185	-0.570620	0.441621
O10	O	1.582998	-0.271186	0.570707
O11	O	1.453811	-0.441614	0.271302
O12	O	1.283535	-0.441535	0.441615
O13	O	1.453894	-0.570482	0.740976
O14	O	1.283527	-0.570536	0.570645
O15	O	1.582987	-0.441442	0.741003
O16	O	1.582807	-0.740929	0.441585
O17	O	1.453792	-0.740870	0.570628
C18	C	1.245410	-0.506033	0.506128
C19	C	1.128634	-0.506050	0.506147
C20	C	1.073795	-0.573328	0.573222
C21	C	0.964071	-0.573342	0.573234
C22	C	0.964034	-0.438796	0.439086
C23	C	1.073756	-0.438778	0.439081
C24	C	1.073815	-0.651010	0.650668
C25	C	0.964091	-0.651024	0.650680
C26	C	1.518315	-0.779020	0.506124
C27	C	1.518385	-0.895797	0.506151
C28	C	1.585570	-0.950548	0.573408
C29	C	1.585629	-1.060272	0.573437
C30	C	1.451315	-1.060484	0.438942
C31	C	1.451251	-0.950762	0.438920
C32	C	1.623188	-1.210099	0.697405
C33	C	1.690390	-1.264853	0.764653
C34	C	1.792875	-1.229145	0.780863
C35	C	1.828179	-1.138683	0.729811
C36	C	1.760984	-1.083934	0.662555
C37	C	1.658484	-1.119641	0.646364
C38	C	1.413703	-0.800934	0.314950
C39	C	1.346512	-0.746182	0.247688
C40	C	1.244025	-0.781889	0.231467
C41	C	1.208724	-0.872354	0.282501
C42	C	1.275915	-0.927105	0.349763
C43	C	1.378401	-0.891391	0.365986
C44	C	1.792411	-0.506073	0.506158
C45	C	1.909187	-0.506082	0.506164
C46	C	1.518451	-0.505947	0.780176
C47	C	1.518483	-0.505902	0.896953
C48	C	1.518469	-0.232019	0.506184
C49	C	1.518507	-0.115243	0.506202
C50	C	1.518365	-0.506083	0.233175
C51	C	1.518537	-0.505832	0.116399
C52	C	1.585710	-0.438704	0.951831
C53	C	1.585735	-0.438666	1.061555
C54	C	1.451302	-0.573033	1.061514
C55	C	1.451272	-0.573064	0.951792
C56	C	1.663328	-0.361131	0.951855
C57	C	1.663353	-0.361093	1.061579
H58	H	0.919339	-0.384025	0.384484
H59	H	1.247165	-1.000767	0.391318
C60	C	1.633911	-0.251217	0.911650
N61	N	1.611752	-0.168431	0.881367
H62	H	1.103623	-0.629311	0.732075
H63	H	1.634239	-0.283784	1.095626
C64	C	1.119772	-0.755374	0.611111
N65	N	1.154387	-0.833982	0.581315
C66	C	1.767728	-0.400507	0.905869
N67	N	1.846366	-0.430159	0.871232
C68	C	0.918156	-0.611773	0.755170
N69	N	0.883556	-0.582202	0.833868
C70	C	0.923834	-0.760918	0.621043
N71	N	0.893512	-0.843687	0.598719
H72	H	1.847591	-1.273734	0.835619
C73	C	1.773275	-0.390544	1.101814
N74	N	1.856065	-0.412729	1.132118
C75	C	1.651548	-1.364354	0.820815
N76	N	1.622298	-1.439299	0.863115
C77	C	1.526446	-0.761647	0.332790
N78	N	1.611365	-0.732057	0.346221
C79	C	1.659412	-0.890090	0.647371
N80	N	1.715030	-0.844556	0.703086
C81	C	1.799810	-0.984427	0.606404
N82	N	1.829056	-0.909472	0.564119
C83	C	1.940954	-1.099465	0.747570
N84	N	2.025908	-1.069941	0.760926
H85	H	1.396659	-1.105250	0.384203
C86	C	1.134075	-0.364759	0.365302
N87	N	1.179507	-0.309004	0.309729
C88	C	1.377301	-0.646971	0.891430
N89	N	1.321580	-0.702638	0.845966
C90	C	1.510432	-1.249358	0.679619
N91	N	1.425499	-1.278927	0.666232
C92	C	1.095982	-0.911634	0.264660
N93	N	1.011063	-0.941218	0.251217
C94	C	1.170117	-0.721659	0.157471
N95	N	1.114448	-0.676295	0.101741
H96	H	1.375265	-0.672524	0.206128
H97	H	1.396579	-0.627712	1.106177
