data_functionalizedCrystal
_audit_creation_method	'MofGen! by Chris Wilmer'
_symmetry_space_group_name_H-M	'P1'
_symmetry_Int_Tables_number	1
_symmetry_cell_setting	triclinic
loop_
_symmetry_equiv_pos_as_xyz
  x,y,z
_cell_length_a	6.817900
_cell_length_b	13.563541
_cell_length_c	16.015572
_cell_angle_alpha	92.684716
_cell_angle_beta	104.485554
_cell_angle_gamma	104.704624
loop_
_atom_site_label
_atom_site_type_symbol
_atom_site_fract_x
_atom_site_fract_y
_atom_site_fract_z
V1	V	-3.998938	-0.040848	-0.279131
O2	O	-3.961112	0.104115	-0.239443
O3	O	-3.975524	-0.179241	-0.310283
O4	O	-3.927051	0.004603	-0.385787
O5	O	-4.009921	-0.081002	-0.163416
V6	V	-4.482371	-0.028805	-0.261275
O7	O	-4.260392	-0.067266	-0.318301
O8	O	-4.671114	-0.002387	-0.222105
O9	O	-4.282578	0.109588	-0.230123
O10	O	-4.637593	-0.173768	-0.300963
O11	O	-4.588785	0.011349	-0.376990
O12	O	-4.331051	-0.074256	-0.154619
C13	C	-3.827363	-0.214379	-0.314410
C14	C	-3.889351	-0.327228	-0.340591
C15	C	-3.954920	-0.704111	-0.111895
C16	C	-3.896666	-0.598083	-0.087295
C17	C	-3.894835	-0.530364	-0.150617
C18	C	-3.951262	-0.568683	-0.238543
C19	C	-4.009506	-0.674721	-0.263146
C20	C	-3.949421	-0.500975	-0.301867
C21	C	-4.005848	-0.539294	-0.389794
C22	C	-4.064087	-0.645321	-0.414392
C23	C	-4.065918	-0.713040	-0.351070
C24	C	-3.891177	-0.394937	-0.277265
C25	C	-3.945763	-0.365547	-0.428515
C26	C	-4.004017	-0.471575	-0.453115
C27	C	-3.765530	0.020133	-0.410722
C28	C	-3.788204	0.056379	-0.498131
C29	C	-4.134924	-0.265336	-0.952463
C30	C	-4.156228	-0.231244	-1.034585
C31	C	-4.047395	-0.054869	-0.967829
C32	C	-4.026071	-0.088945	-0.885699
C33	C	-4.069842	-0.194180	-0.878024
C34	C	-3.960990	-0.017789	-0.811260
C35	C	-3.939679	-0.051863	-0.729138
C36	C	-3.983449	-0.157093	-0.721455
C37	C	-4.048531	-0.228254	-0.795902
C38	C	-3.917235	0.087445	-0.818937
C39	C	-3.852153	0.158601	-0.744499
C40	C	-3.830826	0.124527	-0.662374
C41	C	-3.874597	0.019297	-0.654691
C42	C	-3.765745	0.195687	-0.587928
C43	C	-3.744434	0.161613	-0.505806
C44	C	-3.853286	-0.014777	-0.572570
C45	C	-4.094082	0.144720	-0.225995
C46	C	-4.011332	0.257570	-0.199820
C47	C	-4.155915	-0.089791	-0.129681
C48	C	-4.112479	-0.126032	-0.042270
H49	H	-3.847392	-0.444033	-0.130582
O50	O	-3.723261	0.297942	-0.595239
C51	C	-3.661199	0.353442	-0.511924
H52	H	-3.725196	0.302103	-0.464976
H53	H	-3.481883	0.379972	-0.488346
C54	C	-3.670579	0.510638	-0.573846
C55	C	-3.749197	0.447584	-0.516185
H56	H	-3.724851	0.568712	-0.576474
H57	H	-3.712384	0.473248	-0.629977
H58	H	-3.521153	0.532736	-0.554191
H59	H	-3.898618	0.425478	-0.535847
H60	H	-3.707419	0.484974	-0.460057
O61	O	-3.841723	-0.560689	-0.001927
C62	C	-3.789974	-0.452584	0.006208
H63	H	-3.742191	-0.424232	-0.053631
H64	H	-3.932502	-0.426332	0.012229
C65	C	-3.664147	-0.443080	0.161287
C66	C	-3.605442	-0.408257	0.087795
H67	H	-3.550327	-0.415736	0.211615
H68	H	-3.699019	-0.515913	0.155807
H69	H	-3.782924	-0.421201	0.166293
H70	H	-3.486686	-0.430148	0.082784
H71	H	-3.570546	-0.335427	0.093276
O72	O	-3.836013	-0.357666	-0.191861
C73	C	-3.627608	-0.293800	-0.168200
H74	H	-3.539648	-0.315036	-0.215100
H75	H	-3.629937	-0.210258	-0.170975
C76	C	-3.623666	-0.282120	-0.017649
C77	C	-3.515626	-0.308208	-0.075247
H78	H	-3.554590	-0.291002	0.039690
H79	H	-3.764075	-0.325144	-0.033589
H80	H	-3.625598	-0.212503	-0.019972
H81	H	-3.513718	-0.377827	-0.072931
H82	H	-3.375213	-0.265195	-0.059304
O83	O	-4.219793	-0.300336	-1.106935
C84	C	-4.408412	-0.289145	-1.161396
H85	H	-4.492068	-0.251648	-1.121164
H86	H	-4.370810	-0.238887	-1.213544
C87	C	-4.449490	-0.441521	-1.254200
C88	C	-4.552247	-0.395474	-1.204786
H89	H	-4.538212	-0.507108	-1.280969
H90	H	-4.322410	-0.449059	-1.217511
H91	H	-4.418161	-0.399628	-1.297651
H92	H	-4.583551	-0.437359	-1.161330
H93	H	-4.679336	-0.387945	-1.241468
H94	H	-3.816528	0.244283	-0.750760
H95	H	-4.084146	-0.313945	-0.789654
H96	H	-3.956405	-0.759255	-0.060348
H97	H	-4.170538	-0.351027	-0.946214
O98	O	-4.004558	0.047383	-0.975169
C99	C	-3.793160	0.095969	-0.929863
H100	H	-3.735455	0.047237	-0.878082
H101	H	-3.691518	0.105211	-0.977245
C102	C	-3.848368	0.262241	-0.949912
C103	C	-3.777498	0.202391	-0.886309
H104	H	-3.838702	0.327888	-0.923049
H105	H	-3.990789	0.229508	-0.980439
H106	H	-3.763657	0.269931	-0.989393
H107	H	-3.862225	0.194691	-0.846837
H108	H	-3.635090	0.235125	-0.855775
O109	O	-4.122253	-0.816013	-0.375060
C110	C	-3.983531	-0.839987	-0.419830
H111	H	-3.908203	-0.769175	-0.448183
H112	H	-3.855395	-0.865704	-0.372950
C113	C	-4.199368	-1.014067	-0.458940
C114	C	-4.106861	-0.927096	-0.493769
H115	H	-4.275439	-1.067802	-0.504546
H116	H	-4.292824	-0.997917	-0.428774
H117	H	-4.092570	-1.035484	-0.419873
H118	H	-4.213661	-0.905673	-0.532826
H119	H	-4.013426	-0.943244	-0.523943
H120	H	-4.110010	-0.676516	-0.485986
H121	H	-3.934559	0.115185	-0.885807
O122	O	-4.059130	-0.508932	-0.538504
C123	C	-4.267572	-0.572756	-0.562162
H124	H	-4.310308	-0.602523	-0.501820
H125	H	-4.379807	-0.527017	-0.593438
C126	C	-4.233431	-0.627491	-0.701383
C127	C	-4.285914	-0.664058	-0.627270
H128	H	-4.244751	-0.683808	-0.741547
H129	H	-4.093002	-0.584488	-0.685446
H130	H	-4.326967	-0.589374	-0.727435
H131	H	-4.192362	-0.702162	-0.601214
H132	H	-4.426328	-0.707069	-0.643204
H133	H	-3.944269	-0.310410	-0.480077
O134	O	-3.895088	-0.116990	-0.565088
C135	C	-3.759942	-0.158834	-0.600435
H136	H	-3.702712	-0.107971	-0.649034
H137	H	-3.618941	-0.163166	-0.546106
C138	C	-3.950383	-0.329868	-0.587095
C139	C	-3.880106	-0.267403	-0.646791
H140	H	-4.024500	-0.396840	-0.615686
H141	H	-4.041429	-0.301678	-0.563278
H142	H	-3.832867	-0.333466	-0.541825
H143	H	-3.997623	-0.263795	-0.692053
H144	H	-3.789082	-0.295595	-0.670616
H145	H	-3.966100	-0.184835	-0.654585
O146	O	-3.680948	0.230640	-0.433421
C147	C	-3.492273	0.219482	-0.378982
H148	H	-3.478643	0.138891	-0.394014
H149	H	-3.352439	0.278419	-0.390691
C150	C	-3.510221	0.335528	-0.264930
C151	C	-3.493489	0.236541	-0.283388
H152	H	-3.510964	0.346055	-0.205963
H153	H	-3.637331	0.343048	-0.301608
H154	H	-3.393689	0.384630	-0.274694
H155	H	-3.610034	0.187441	-0.273635
H156	H	-3.366399	0.229013	-0.246707
