data_functionalizedCrystal
_audit_creation_method	'MofGen! by Chris Wilmer'
_symmetry_space_group_name_H-M	'P1'
_symmetry_Int_Tables_number	1
_symmetry_cell_setting	triclinic
loop_
_symmetry_equiv_pos_as_xyz
  x,y,z
_cell_length_a	14.519709
_cell_length_b	15.538191
_cell_length_c	14.750778
_cell_angle_alpha	82.395899
_cell_angle_beta	77.364578
_cell_angle_gamma	114.523881
loop_
_atom_site_label
_atom_site_type_symbol
_atom_site_fract_x
_atom_site_fract_y
_atom_site_fract_z
O1	O	-0.326178	-1.269831	0.079829
O2	O	-0.219753	-0.995752	0.079830
O3	O	-0.409645	-1.140056	0.079821
O4	O	-0.136286	-1.125527	0.079838
O5	O	-0.356010	-1.099200	-0.079827
O6	O	-0.166117	-0.954896	-0.079817
O7	O	-0.272543	-1.228975	-0.079819
Zn8	Zn	-0.210814	-1.085448	-0.105166
Zn9	Zn	-0.281481	-1.139278	0.105177
O10	O	-0.082650	-1.084671	-0.079809
C11	C	-0.181800	-0.940247	0.000007
C12	C	-0.148633	-0.835729	0.000007
C13	C	-0.416959	-1.118950	-0.000003
C14	C	-0.518658	-1.116921	-0.000004
N15	N	-0.329716	-1.176016	0.248730
C16	C	-0.891049	-1.109455	0.000021
C17	C	-0.787436	-1.111528	0.000014
C18	C	-0.704856	-1.113187	0.000008
C19	C	-0.601238	-1.115261	0.000003
C20	C	-0.075337	-1.105776	0.000017
C21	C	0.026360	-1.107808	0.000024
C22	C	-0.310496	-1.284480	0.000007
C23	C	-0.343665	-1.388999	0.000013
C24	C	-0.478139	-0.547382	0.000001
C25	C	-0.446951	-0.449169	0.000004
C26	C	-0.271524	-0.427025	0.000015
C27	C	-0.302696	-0.525236	0.000007
C28	C	-0.406005	-0.585408	0.000002
C29	C	-0.230562	-0.563262	0.000008
C30	C	-0.261733	-0.661466	0.000005
C31	C	-0.365039	-0.721645	0.000003
C32	C	-0.437177	-0.683612	-0.000001
C33	C	-0.127256	-0.503090	0.000020
C34	C	-0.055122	-0.541116	0.000021
C35	C	-0.086290	-0.639321	0.000012
C36	C	-0.189596	-0.699499	0.000009
C37	C	-0.014152	-0.677353	0.000015
C38	C	-0.045324	-0.775557	0.000013
C39	C	-0.220767	-0.797703	0.000006
N40	N	-0.162589	-1.048718	-0.248719
C41	C	-0.027944	-0.946071	0.600564
C42	C	-0.061728	-0.971840	0.701061
C43	C	-0.229702	-1.099862	0.701015
C44	C	-0.195929	-1.074108	0.600516
C45	C	-0.095050	-0.997211	0.550298
C46	C	-0.263035	-1.125247	0.550250
C47	C	-0.229267	-1.099491	0.449759
C48	C	-0.128393	-1.022596	0.399534
C49	C	-0.061281	-0.971455	0.449807
C50	C	-0.363918	-1.202139	0.600470
C51	C	-0.431024	-1.253279	0.550204
C52	C	-0.397253	-1.227528	0.449712
C53	C	-0.296379	-1.150632	0.399487
C54	C	-0.464364	-1.278668	0.399439
C55	C	-0.430596	-1.252912	0.298948
C56	C	-0.262610	-1.124876	0.298996
H57	H	-0.304890	-0.846697	-0.000004
C58	C	-0.151634	-1.040290	0.243751
N59	N	-0.068051	-0.976581	0.202140
C60	C	0.058517	-0.474916	0.000022
N61	N	0.144114	-0.425053	0.000018
C62	C	-0.504411	-1.309177	0.243653
N63	N	-0.560010	-1.351557	0.202004
H64	H	-0.101880	-0.423128	0.000025
C65	C	-0.157885	-0.360824	0.000016
N66	N	-0.072289	-0.310962	0.000012
C67	C	0.099483	-0.611153	0.000026
N68	N	0.185075	-0.561291	0.000033
C69	C	-0.340676	-1.184434	0.756267
N70	N	-0.424265	-1.248131	0.797881
C71	C	0.083033	-0.861485	0.545318
N72	N	0.166616	-0.797776	0.503707
H73	H	0.013418	-0.806516	0.000004
C74	C	-0.591784	-0.613576	-0.000010
N75	N	-0.677378	-0.663433	-0.000015
H76	H	-0.513163	-1.315887	0.591103
H77	H	-0.007074	-0.930188	0.741982
C78	C	0.049695	-0.886869	0.394562
N79	N	0.133278	-0.823160	0.352951
H80	H	-0.505700	-0.418215	0.000005
H81	H	-0.391410	-1.223103	0.682296
H82	H	-0.546506	-1.341272	0.440340
C83	C	-0.399328	-0.829673	-0.000001
N84	N	-0.425153	-0.911039	-0.000007
H85	H	-0.521299	-0.732606	-0.000011
H86	H	-0.100902	-1.001623	0.317708
