data_functionalizedCrystal
_audit_creation_method	'MofGen! by Chris Wilmer'
_symmetry_space_group_name_H-M	'P1'
_symmetry_Int_Tables_number	1
_symmetry_cell_setting	triclinic
loop_
_symmetry_equiv_pos_as_xyz
  x,y,z
_cell_length_a	15.944545
_cell_length_b	16.992695
_cell_length_c	16.053802
_cell_angle_alpha	87.258926
_cell_angle_beta	87.417695
_cell_angle_gamma	92.917803
loop_
_atom_site_label
_atom_site_type_symbol
_atom_site_fract_x
_atom_site_fract_y
_atom_site_fract_z
O1	O	1.124631	-0.097802	-0.069449
O2	O	1.624631	0.402198	0.430551
O3	O	0.880917	-0.110275	-0.069446
O4	O	1.380917	0.389725	0.430554
O5	O	1.001797	0.010104	-0.069441
O6	O	1.501797	0.510104	0.430559
O7	O	1.003751	-0.218180	-0.069454
O8	O	1.503751	0.281820	0.430546
O9	O	0.995141	0.003506	0.069418
O10	O	1.495141	0.503506	0.569418
O11	O	0.874262	-0.116873	0.069412
O12	O	1.374262	0.383127	0.569412
O13	O	1.117976	-0.104400	0.069410
O14	O	1.617976	0.395600	0.569410
Zn15	Zn	0.995062	-0.111684	0.091458
Zn16	Zn	1.495062	0.388316	0.591458
Zn17	Zn	1.003831	-0.102990	-0.091494
Zn18	Zn	1.503831	0.397010	0.408506
O19	O	0.997096	-0.224779	0.069405
O20	O	1.497096	0.275221	0.569405
C21	C	0.995955	0.036018	-0.000012
C22	C	1.495955	0.536018	0.499988
C23	C	0.988455	0.123062	-0.000012
C24	C	1.488455	0.623062	0.499988
C25	C	0.846261	-0.113057	-0.000017
C26	C	1.346261	0.386943	0.499983
C27	C	0.752910	-0.111507	-0.000016
C28	C	1.252910	0.388493	0.499984
C29	C	1.152632	-0.101618	-0.000021
C30	C	1.652632	0.398382	0.499979
C31	C	1.245983	-0.103167	-0.000028
C32	C	1.745983	0.396833	0.499972
C33	C	1.521930	-0.182415	-0.000028
C34	C	2.021930	0.317585	0.499972
C35	C	1.465508	-0.147462	0.068442
C36	C	1.965508	0.352538	0.568442
C37	C	1.581997	-0.108694	-0.000018
C38	C	2.081997	0.391306	0.499982
C39	C	1.472081	-0.140936	-0.068462
C40	C	1.972081	0.359064	0.431538
C41	C	1.416902	-0.105983	-0.000024
C42	C	1.916902	0.394017	0.499976
C43	C	1.526802	-0.073764	0.068508
C44	C	2.026802	0.426236	0.568508
C45	C	1.533381	-0.067246	-0.068457
C46	C	2.033381	0.432754	0.431543
C47	C	1.476987	-0.032240	0.000029
C48	C	1.976987	0.467760	0.500029
C49	C	1.677104	-0.110259	-0.000014
C50	C	2.177104	0.389741	0.499986
C51	C	1.321797	-0.104413	-0.000023
C52	C	1.821797	0.395587	0.499977
C53	C	1.002937	-0.250692	-0.000027
C54	C	1.502937	0.249308	0.499973
C55	C	1.010438	-0.337737	-0.000032
C56	C	1.510438	0.162263	0.499968
N57	N	0.989084	-0.117617	0.216318
N58	N	1.489084	0.382383	0.716318
C59	C	1.060820	0.173300	-0.000012
C60	C	1.560820	0.673300	0.499988
C61	C	1.053769	0.255087	-0.000019
C62	C	1.553769	0.755087	0.499981
C63	C	0.974351	0.286634	-0.000021
C64	C	1.474351	0.786634	0.499979
C65	C	0.901981	0.236390	-0.000024
C66	C	1.401981	0.736390	0.499976
C67	C	0.909033	0.154605	-0.000022
C68	C	1.409033	0.654605	0.499978
C69	C	0.945120	0.530234	-0.000033
C70	C	1.445120	1.030234	0.499967
C71	C	0.938073	0.612025	-0.000032
C72	C	1.438073	1.112025	0.499968
C73	C	1.089862	0.630717	-0.000029
C74	C	1.589862	1.130717	0.499971
C75	C	1.096907	0.548929	-0.000022
C76	C	1.596907	1.048929	0.499978
C77	C	1.024537	0.498692	-0.000029
C78	C	1.524537	0.998692	0.499971
N79	N	0.967141	0.370234	-0.000027
N80	N	1.467141	0.870234	0.499973
N81	N	1.031748	0.415095	-0.000030
N82	N	1.531748	0.915095	0.499970
N83	N	1.009815	-0.097051	-0.216354
N84	N	1.509815	0.402949	0.283646
C85	C	1.040539	-0.066414	0.260014
C86	C	1.540539	0.433586	0.760014
C87	C	1.036366	-0.070572	0.347421
C88	C	1.536366	0.429428	0.847421
C89	C	0.980740	-0.125937	0.391130
C90	C	1.480740	0.374063	0.891130
C91	C	0.929279	-0.177143	0.347427
C92	C	1.429279	0.322857	0.847427
C93	C	0.933449	-0.172981	0.260022
C94	C	1.433449	0.327019	0.760022
C95	C	0.962524	-0.144095	0.652538
C96	C	1.462524	0.355905	1.152538
C97	C	0.958360	-0.148254	0.739949
C98	C	1.458360	0.351746	1.239949
C99	C	1.065446	-0.041682	0.739937
C100	C	1.565446	0.458318	1.239937
C101	C	1.069615	-0.037528	0.652530
C102	C	1.569615	0.462472	1.152530
C103	C	1.018150	-0.088731	0.608836
C104	C	1.518150	0.411269	1.108836
N105	N	0.976475	-0.130190	0.480473
N106	N	1.476475	0.369810	0.980473
N107	N	1.022412	-0.084474	0.519494
N108	N	1.522412	0.415526	1.019494
H109	H	1.541834	-0.245908	0.000032
H110	H	2.041834	0.254092	0.500032
H111	H	1.457233	0.031296	0.000073
H112	H	1.957233	0.531296	0.500073
H113	H	0.873397	0.637707	-0.000020
H114	H	1.373397	1.137707	0.499980
H115	H	1.085839	-0.021333	0.224432
H116	H	1.585839	0.478667	0.724432
H117	H	1.078264	-0.028878	0.382998
H118	H	1.578264	0.471122	0.882998
H119	H	1.435893	-0.181347	0.126323
H120	H	1.935893	0.318653	0.626323
H121	H	1.112696	0.295989	-0.000017
H122	H	1.612696	0.795989	0.499983
Br123	Br	1.204694	0.506122	-0.000046
Br124	Br	1.704694	1.006122	0.499954
Br125	Br	1.566711	-0.026495	0.165088
Br126	Br	2.066711	0.473505	0.665088
H127	H	1.107345	0.000005	0.775521
H128	H	1.607345	0.500005	1.275521
Br129	Br	0.846903	0.462065	-0.000048
Br130	Br	1.346903	0.962065	0.499952
Br131	Br	0.794198	0.279203	-0.000041
Br132	Br	1.294198	0.779203	0.499959
H133	H	0.913060	-0.193343	0.775533
H134	H	1.413060	0.306657	1.275533
Br135	Br	0.810820	0.086423	-0.000029
Br136	Br	1.310820	0.586423	0.499971
H137	H	1.114909	0.007554	0.616945
H138	H	1.614909	0.507554	1.116945
H139	H	1.148781	0.671629	-0.000025
H140	H	1.648781	1.171629	0.499975
H141	H	0.920621	-0.185787	0.616969
H142	H	1.420621	0.314213	1.116969
Br143	Br	0.853778	-0.252277	0.406743
Br144	Br	1.353778	0.247723	0.906743
Br145	Br	1.168606	0.130494	0.000003
Br146	Br	1.668606	0.630494	0.500003
Br147	Br	0.863607	-0.242469	0.200720
Br148	Br	1.363607	0.257531	0.700720
H149	H	1.563006	-0.033384	-0.126341
H150	H	2.063006	0.466616	0.373659
H151	H	1.448020	-0.169333	-0.126341
H152	H	1.948020	0.330667	0.373659
