data_functionalizedCrystal
_audit_creation_method	'MofGen! by Chris Wilmer'
_symmetry_space_group_name_H-M	'P1'
_symmetry_Int_Tables_number	1
_symmetry_cell_setting	triclinic
loop_
_symmetry_equiv_pos_as_xyz
  x,y,z
_cell_length_a	17.699083
_cell_length_b	9.198806
_cell_length_c	17.699104
_cell_angle_alpha	90.004368
_cell_angle_beta	83.287266
_cell_angle_gamma	89.997662
loop_
_atom_site_label
_atom_site_type_symbol
_atom_site_fract_x
_atom_site_fract_y
_atom_site_fract_z
O1	O	1.004082	0.120692	0.095709
O2	O	0.783705	0.120740	0.108161
O3	O	0.900111	0.120701	-0.008253
O4	O	0.887676	0.120730	0.212123
O5	O	0.900103	-0.121084	-0.008254
O6	O	0.783696	-0.121045	0.108160
O7	O	1.004074	-0.121093	0.095708
Cu8	Cu	0.893884	-0.143146	0.101934
Cu9	Cu	0.893894	0.142793	0.101935
O10	O	0.887667	-0.121055	0.212122
C11	C	0.755503	-0.000147	0.107715
C12	C	0.671485	-0.000129	0.106376
C13	C	0.899659	-0.000191	-0.036450
C14	C	0.898314	-0.000192	-0.120467
C15	C	0.622869	-0.000120	0.174709
C16	C	0.543926	-0.000139	0.173446
C17	C	0.513600	-0.000156	0.103851
C18	C	0.562222	-0.000169	0.035513
C19	C	0.641164	-0.000161	0.036776
C20	C	0.243859	-0.000206	0.030418
C21	C	0.164911	-0.000210	0.029160
C22	C	0.146621	-0.000185	0.167088
C23	C	0.225563	-0.000176	0.168351
C24	C	0.274178	-0.000196	0.100014
C25	C	0.359777	-0.000179	0.101383
C26	C	0.428002	-0.000164	0.102480
C27	C	1.032275	-0.000204	0.096155
C28	C	1.116293	-0.000212	0.097493
N29	N	0.893883	-0.344260	0.101933
C30	C	0.942879	-0.583877	0.052948
C31	C	0.942869	-0.416465	0.052949
N32	N	0.893902	0.343907	0.101930
C33	C	0.959058	-0.000164	-0.645338
C34	C	0.960317	-0.000177	-0.566395
C35	C	0.891982	-0.000165	-0.517777
C36	C	0.822383	-0.000155	-0.548107
C37	C	0.821125	-0.000152	-0.627049
C38	C	0.827456	-0.000168	-0.229741
C39	C	0.828720	-0.000167	-0.150794
C40	C	0.966648	-0.000193	-0.169086
C41	C	0.965390	-0.000190	-0.248029
C42	C	0.895792	-0.000188	-0.278352
C43	C	0.894427	-0.000176	-0.363951
C44	C	0.893345	-0.000166	-0.432179
C45	C	0.888120	-0.000159	0.240319
C46	C	0.889464	-0.000149	0.324337
H47	H	0.647554	-0.000105	0.231382
C48	C	0.093873	0.000122	0.241310
C49	C	0.107538	0.124548	0.283211
C50	C	0.058957	0.124896	0.351581
H51	H	0.103014	-0.084085	0.269947
H52	H	0.042503	0.000188	0.230626
H53	H	0.158896	0.124469	0.293897
H54	H	0.098392	0.208775	0.254598
H55	H	0.007587	0.124962	0.340897
H56	H	0.068101	0.040684	0.380211
H57	H	0.068217	0.209323	0.380016
C58	C	0.838100	-0.573104	0.157890
C59	C	0.878386	-0.485684	0.204102
C60	C	0.827005	-0.409203	0.255656
H61	H	0.807352	-0.639954	0.188695
H62	H	0.806672	-0.513648	0.130705
H63	H	0.909800	-0.545134	0.231285
H64	H	0.909131	-0.418806	0.173319
H65	H	0.795578	-0.349748	0.228471
H66	H	0.796260	-0.476064	0.286455
H67	H	0.854331	-0.349870	0.287013
C68	C	0.491103	-0.000413	0.247612
C69	C	0.445266	-0.124828	0.250933
C70	C	0.396603	-0.125136	0.319249
H71	H	0.459853	0.083802	0.250051
H72	H	0.520440	-0.000469	0.289265
H73	H	0.415932	-0.124759	0.209291
H74	H	0.476496	-0.209063	0.248507
H75	H	0.425940	-0.125192	0.360902
H76	H	0.365357	-0.040916	0.321683
H77	H	0.365502	-0.209556	0.321515
H78	H	0.770785	-0.000149	-0.254420
C79	C	0.998759	-0.666504	-0.003098
C80	C	0.986619	-0.629571	-0.077468
C81	C	1.038087	-0.705642	-0.129120
H82	H	0.991383	-0.768039	0.004229
H83	H	1.049288	-0.641600	0.004977
H84	H	0.936102	-0.654484	-0.085540
H85	H	0.994001	-0.528049	-0.084819
H86	H	1.088616	-0.680738	-0.121044
H87	H	1.030707	-0.807173	-0.121786
H88	H	1.029862	-0.680584	-0.179585
H89	H	1.014705	-0.000161	-0.684918
C90	C	0.132131	-0.000313	-0.046483
C91	C	0.191601	-0.000370	-0.106061
C92	C	0.161433	-0.000482	-0.175749
H93	H	0.101725	0.083978	-0.049953
H94	H	0.101739	-0.084665	-0.049877
H95	H	0.221980	0.083973	-0.102669
H96	H	0.222012	-0.084655	-0.102617
H97	H	0.131041	-0.084834	-0.179143
H98	H	0.131027	0.083810	-0.179211
H99	H	0.201778	-0.000535	-0.216181
H100	H	0.773070	-0.000161	-0.111210
H101	H	1.016987	-0.000190	-0.541708
C102	C	0.296720	0.000019	-0.043720
C103	C	0.342582	0.124397	-0.047018
C104	C	0.391296	0.124649	-0.115301
H105	H	0.267443	0.000090	-0.085407
H106	H	0.327945	-0.084251	-0.046108
H107	H	0.311361	0.208645	-0.044637
H108	H	0.371876	0.124352	-0.005346
H109	H	0.422521	0.040379	-0.117689
H110	H	0.362013	0.124716	-0.156983
H111	H	0.422424	0.209030	-0.117545
H112	H	0.250249	-0.000156	0.225023
H113	H	0.537525	-0.000204	-0.021153
H114	H	0.680747	-0.000167	-0.018868
C115	C	0.998871	-0.333784	-0.002936
C116	C	1.073268	-0.370631	0.009155
C117	C	1.124864	-0.294474	-0.042320
H118	H	0.991505	-0.232261	0.004466
H119	H	0.990779	-0.358677	-0.053463
H120	H	1.081357	-0.345728	0.059670
H121	H	1.080658	-0.472141	0.001747
H122	H	1.116771	-0.319367	-0.092847
H123	H	1.117490	-0.192955	-0.034913
H124	H	1.175347	-0.319474	-0.034127
C125	C	1.039665	-0.000279	-0.300687
C126	C	1.100884	-0.000335	-0.257232
C127	C	1.169318	-0.000443	-0.305714
H128	H	1.042153	0.084012	-0.331877
H129	H	1.042077	-0.084630	-0.331854
H130	H	1.098473	0.084007	-0.226078
H131	H	1.098420	-0.084621	-0.226044
H132	H	1.171730	-0.084794	-0.336881
H133	H	1.171798	0.083850	-0.336902
H134	H	1.210863	-0.000495	-0.276237
C135	C	0.748270	-0.000070	-0.495199
C136	C	0.764265	-0.000033	-0.419573
C137	C	0.696010	0.000069	-0.370815
H138	H	0.719669	-0.084357	-0.504283
H139	H	0.719724	0.084285	-0.504333
H140	H	0.792799	-0.084380	-0.410443
H141	H	0.792856	0.084247	-0.410465
H142	H	0.667465	0.084424	-0.379949
H143	H	0.667414	-0.084220	-0.379906
H144	H	0.706854	0.000107	-0.319498
H145	H	0.851946	-0.406354	0.143869
H146	H	1.023319	-0.000176	-0.144388
H147	H	0.764455	-0.000153	-0.651738
