data_functionalizedCrystal
_audit_creation_method	'MofGen! by Chris Wilmer'
_symmetry_space_group_name_H-M	'P1'
_symmetry_Int_Tables_number	1
_symmetry_cell_setting	triclinic
loop_
_symmetry_equiv_pos_as_xyz
  x,y,z
_cell_length_a	14.044220
_cell_length_b	14.044220
_cell_length_c	7.540329
_cell_angle_alpha	89.995368
_cell_angle_beta	90.001925
_cell_angle_gamma	93.188878
loop_
_atom_site_label
_atom_site_type_symbol
_atom_site_fract_x
_atom_site_fract_y
_atom_site_fract_z
O1	O	1.277166	0.230166	-0.147301
O2	O	1.610499	0.563499	0.186032
O3	O	1.943833	0.896833	0.519366
O4	O	1.000494	0.221860	-0.147345
O5	O	1.333828	0.555194	0.185988
O6	O	1.667161	0.888527	0.519321
O7	O	1.134677	0.087677	-0.147306
O8	O	1.468011	0.421011	0.186027
O9	O	1.801344	0.754344	0.519360
O10	O	1.142983	0.364349	-0.147340
O11	O	1.476316	0.697682	0.185993
O12	O	1.809650	1.031016	0.519327
O13	O	1.134668	0.087675	0.147659
O14	O	1.468002	0.421008	0.480992
O15	O	1.801335	0.754342	0.814325
O16	O	1.000486	0.221858	0.147620
O17	O	1.333819	0.555191	0.480953
O18	O	1.667152	0.888524	0.814286
O19	O	1.277157	0.230163	0.147664
O20	O	1.610490	0.563497	0.480998
O21	O	1.943824	0.896830	0.814331
Cu22	Cu	1.138820	0.226010	0.174575
Cu23	Cu	1.472154	0.559344	0.507908
Cu24	Cu	1.805487	0.892677	0.841241
Cu25	Cu	1.138831	0.226013	-0.174256
Cu26	Cu	1.472164	0.559347	0.159078
Cu27	Cu	1.805498	0.892680	0.492411
O28	O	1.142974	0.364346	0.147625
O29	O	1.476307	0.697680	0.480958
O30	O	1.809641	1.031013	0.814292
C31	C	0.964868	0.218223	0.000131
C32	C	1.298201	0.551557	0.333465
C33	C	1.631535	0.884890	0.666798
C34	C	0.858725	0.207379	0.000115
C35	C	1.192059	0.540712	0.333448
C36	C	1.525392	0.874045	0.666782
C37	C	1.131037	0.052054	0.000176
C38	C	1.464371	0.385388	0.333510
C39	C	1.797704	0.718721	0.666843
C40	C	1.120193	-0.054088	0.000177
C41	C	1.453526	0.279245	0.333510
C42	C	1.786859	0.612578	0.666843
C43	C	0.664388	0.187553	0.000153
C44	C	0.997721	0.520886	0.333486
C45	C	1.331054	0.854219	0.666819
C46	C	0.613258	0.264467	0.000151
C47	C	0.946591	0.597800	0.333484
C48	C	1.279924	0.931134	0.666817
C49	C	0.505122	0.253435	0.000172
C50	C	0.838455	0.586769	0.333505
C51	C	1.171788	0.920102	0.666838
C52	C	0.772534	0.198583	0.000132
C53	C	1.105867	0.531916	0.333465
C54	C	1.439200	0.865249	0.666798
C55	C	1.100366	-0.248426	0.000148
C56	C	1.433700	0.084907	0.333481
C57	C	1.767033	0.418241	0.666815
C58	C	1.177281	-0.299556	0.000155
C59	C	1.510614	0.033777	0.333488
C60	C	1.843947	0.367111	0.666822
C61	C	1.166249	-0.407692	0.000139
C62	C	1.499583	-0.074359	0.333472
C63	C	1.832916	0.258974	0.666806
C64	C	1.111397	-0.140280	0.000164
C65	C	1.444730	0.193053	0.333497
C66	C	1.778063	0.526387	0.666831
C67	C	1.312783	0.233800	0.000183
C68	C	1.646117	0.567134	0.333517
C69	C	1.979450	0.900467	0.666850
C70	C	1.418926	0.244645	0.000188
C71	C	1.752259	0.577978	0.333522
C72	C	2.085593	0.911312	0.666855
C73	C	1.146614	0.399969	0.000138
C74	C	1.479948	0.733303	0.333472
C75	C	1.813281	1.066636	0.666805
C76	C	1.157459	0.506112	0.000126
C77	C	1.490792	0.839446	0.333460
C78	C	1.824125	1.172779	0.666793
N79	N	1.138820	0.226008	0.419923
N80	N	1.472153	0.559342	0.753256
N81	N	1.805487	0.892675	1.086590
N82	N	1.138838	0.226009	-0.419604
N83	N	1.472172	0.559342	-0.086271
N84	N	1.805505	0.892675	0.247062
H85	H	0.626951	0.113425	0.000171
H86	H	0.960284	0.446758	0.333505
H87	H	1.293617	0.780092	0.666838
N88	N	1.270276	-0.252582	0.000181
N89	N	1.603609	0.080751	0.333514
N90	N	1.936943	0.414085	0.666847
N91	N	1.279224	-0.163531	0.000200
N92	N	1.612558	0.169802	0.333534
N93	N	1.945891	0.503136	0.666867
H94	H	1.344899	-0.130350	0.000225
H95	H	1.678233	0.202983	0.333558
H96	H	2.011566	0.536316	0.666892
N97	N	0.660199	0.357477	0.000129
N98	N	0.993533	0.690811	0.333463
N99	N	1.326866	1.024144	0.666796
N100	N	0.646461	0.413964	0.124447
N101	N	0.979795	0.747297	0.457780
N102	N	1.313128	1.080631	0.791114
H103	H	0.679615	0.479652	0.124427
H104	H	1.012949	0.812985	0.457761
H105	H	1.346282	1.146318	0.791094
N106	N	1.007378	-0.295400	0.000121
N107	N	1.340711	0.037934	0.333454
N108	N	1.674044	0.371267	0.666788
N109	N	0.998438	-0.384451	0.000110
N110	N	1.331771	-0.051118	0.333443
N111	N	1.665104	0.282216	0.666776
H112	H	0.932765	-0.417637	0.000095
H113	H	1.266098	-0.084304	0.333428
H114	H	1.599432	0.249029	0.666761
