data_functionalizedCrystal
_audit_creation_method	'MofGen! by Chris Wilmer'
_symmetry_space_group_name_H-M	'P1'
_symmetry_Int_Tables_number	1
_symmetry_cell_setting	triclinic
loop_
_symmetry_equiv_pos_as_xyz
  x,y,z
_cell_length_a	11.026660
_cell_length_b	22.010155
_cell_length_c	23.532407
_cell_angle_alpha	89.997011
_cell_angle_beta	95.716756
_cell_angle_gamma	90.015159
loop_
_atom_site_label
_atom_site_type_symbol
_atom_site_fract_x
_atom_site_fract_y
_atom_site_fract_z
O1	O	1.607303	0.050497	0.238178
O2	O	1.254326	0.050501	0.211058
O3	O	1.441458	0.050507	0.142805
O4	O	1.420170	0.050492	0.306430
O5	O	1.441402	-0.050544	0.142800
O6	O	1.254269	-0.050549	0.211052
O7	O	1.607247	-0.050553	0.238172
Cu8	Cu	1.430753	-0.059778	0.224611
Cu9	Cu	1.430819	0.059726	0.224618
O10	O	1.420114	-0.050559	0.306424
C11	C	1.209147	-0.000023	0.206051
C12	C	1.074614	-0.000021	0.191136
C13	C	0.861263	-0.000022	0.216909
C14	C	1.000310	-0.000025	0.232326
N15	N	1.430715	-0.143830	0.224607
C16	C	1.503911	-0.563614	0.266666
C17	C	1.503925	-0.627222	0.266666
O18	O	1.566115	-0.660117	0.302418
N19	N	1.430843	-0.659037	0.224614
C20	C	1.357751	-0.627242	0.182556
O21	O	1.295592	-0.660145	0.146788
C22	C	1.357744	-0.563636	0.182554
C23	C	1.430822	-0.531823	0.224612
C24	C	1.576983	-0.531801	0.308720
C25	C	1.576967	-0.468198	0.308720
C26	C	1.503878	-0.436408	0.266667
C27	C	1.430805	-0.468220	0.224613
C28	C	1.284660	-0.531842	0.140494
C29	C	1.284660	-0.468231	0.140496
C30	C	1.357738	-0.436419	0.182554
C31	C	1.357700	-0.372826	0.182559
N32	N	1.430782	-0.341010	0.224611
C33	C	1.503871	-0.372801	0.266665
C34	C	1.357773	-0.760820	0.182563
C35	C	1.357772	-0.824425	0.182567
C36	C	1.503948	-0.824400	0.266676
C37	C	1.503941	-0.760794	0.266674
C38	C	1.430855	-0.729004	0.224615
C39	C	1.503831	-0.239230	0.266663
C40	C	1.503804	-0.175621	0.266661
C41	C	1.357634	-0.175652	0.182550
C42	C	1.357655	-0.239255	0.182553
C43	C	1.430763	-0.271042	0.224612
O44	O	1.295546	-0.339891	0.146824
O45	O	1.566032	-0.339891	0.302423
C46	C	1.652425	-0.000027	0.243178
C47	C	1.786958	-0.000025	0.258093
C48	C	1.440888	-0.000015	0.121529
C49	C	1.439258	-0.000005	0.058141
N50	N	1.430867	0.143778	0.224619
C51	C	1.420684	-0.000035	0.327700
C52	C	1.422314	-0.000041	0.391088
C53	C	1.321796	-0.000009	0.779620
C54	C	1.323310	-0.000005	0.839179
O55	O	1.230128	0.000019	0.866124
N56	N	1.434560	-0.000007	0.873506
C57	C	1.544303	-0.000007	0.848270
O58	O	1.639069	-0.000008	0.882937
C59	C	1.542788	-0.000007	0.788712
C60	C	1.431530	-0.000011	0.754388
C61	C	1.210547	-0.000013	0.745296
C62	C	1.209034	-0.000018	0.685741
C63	C	1.318768	-0.000020	0.660509
C64	C	1.430017	-0.000016	0.694833
C65	C	1.652530	-0.000002	0.763477
C66	C	1.651005	-0.000002	0.703914
C67	C	1.539748	-0.000006	0.669591
C68	C	1.538238	-0.000023	0.610046
N69	N	1.426988	-0.000022	0.575719
C70	C	1.317253	-0.000020	0.600951
C71	C	1.547477	-0.000006	0.973347
C72	C	1.548994	-0.000010	1.032904
C73	C	1.328000	-0.000007	1.023809
C74	C	1.326484	-0.000007	0.964250
C75	C	1.436227	-0.000004	0.939020
C76	C	1.314083	-0.000031	0.475880
C77	C	1.312579	-0.000039	0.416320
C78	C	1.533573	-0.000039	0.425421
C79	C	1.535077	-0.000035	0.484976
C80	C	1.425322	-0.000029	0.510204
O81	O	1.631371	-0.000044	0.583061
O82	O	1.222503	-0.000011	0.566278
H83	H	0.826284	-0.000033	0.304766
O84	O	1.027664	0.000093	0.135459
C85	C	0.902235	0.052437	0.061286
C86	C	0.955346	0.052389	0.124346
H87	H	0.843734	0.094707	0.052284
H88	H	0.979763	0.052480	0.032650
H89	H	0.843820	0.010130	0.052250
H90	H	1.013747	0.094689	0.133437
H91	H	0.877761	0.052315	0.152949
O92	O	1.643178	0.000075	0.518299
C93	C	1.832572	0.052420	0.544259
C94	C	1.710180	0.052368	0.506501
H95	H	1.886789	0.094687	0.534725
H96	H	1.814876	0.052469	0.591170
H97	H	1.886698	0.010111	0.534805
H98	H	1.655992	0.094670	0.515904
H99	H	1.727963	0.052288	0.459600
O100	O	1.218303	0.000021	0.930994
C101	C	0.999270	-0.000012	0.928276
C102	C	1.121703	-0.000032	0.966001
H103	H	0.921137	-0.000068	0.956563
H104	H	0.992970	0.042289	0.900178
H105	H	0.993070	-0.042289	0.900151
H106	H	1.127986	0.042217	0.994161
H107	H	1.127951	-0.042361	0.994061
H108	H	1.039630	-0.000033	0.279001
H109	H	1.636479	-0.442302	0.342967
O110	O	1.286461	-0.144790	0.141747
C111	C	1.082778	-0.125370	0.098533
C112	C	1.163224	-0.160351	0.144779
H113	H	0.983128	-0.137948	0.100961
H114	H	1.095229	-0.074439	0.105756
H115	H	1.110443	-0.137859	0.054614
H116	H	1.135611	-0.147913	0.188717
H117	H	1.150763	-0.211274	0.137506
H118	H	1.639591	-0.000017	1.060846
H119	H	1.118436	-0.000016	0.657799
O120	O	1.286645	-0.730036	0.141682
C121	C	1.141708	-0.736788	0.058241
C122	C	1.222177	-0.771721	0.104512
H123	H	1.089585	-0.770475	0.028170
H124	H	1.074346	-0.707039	0.079300
H125	H	1.201699	-0.706981	0.032973
H126	H	1.162284	-0.801561	0.129796
H127	H	1.289548	-0.801432	0.083418
H128	H	1.298251	-0.850322	0.148324
O129	O	1.760574	-0.000100	0.796836
C130	C	1.890523	-0.052414	0.869378
C131	C	1.768126	-0.052389	0.831624
H132	H	1.896657	-0.094678	0.897523
H133	H	1.968732	-0.052449	0.841133
H134	H	1.896757	-0.010101	0.897457
H135	H	1.761773	-0.094694	0.803540
H136	H	1.689975	-0.052322	0.859903
H137	H	0.821938	-0.000027	0.170237
O138	O	1.574910	-0.144813	0.307544
C139	C	1.719841	-0.151513	0.390988
C140	C	1.639396	-0.186475	0.344717
H141	H	1.771979	-0.185181	0.421062
H142	H	1.787191	-0.121736	0.369929
H143	H	1.659832	-0.121731	0.416253
H144	H	1.699308	-0.216290	0.319437
H145	H	1.572038	-0.216213	0.365812
O146	O	1.574983	-0.270130	0.307449
C147	C	1.738564	-0.341931	0.327569
C148	C	1.658098	-0.306965	0.281320
H149	H	1.805764	-0.371731	0.306460
H150	H	1.790870	-0.308287	0.357620
H151	H	1.678555	-0.371695	0.352868
H152	H	1.718016	-0.277201	0.255979
H153	H	1.605782	-0.340642	0.251308
O154	O	1.213768	-0.437258	0.099667
C155	C	1.148893	-0.339282	0.062406
C156	C	1.229260	-0.374282	0.108667
H157	H	1.161371	-0.288360	0.069674
H158	H	1.176491	-0.351735	0.018466
H159	H	1.049242	-0.351848	0.064853
H160	H	1.328933	-0.361735	0.106273
H161	H	1.201559	-0.361826	0.152587
H162	H	1.636507	-0.557678	0.342966
O163	O	1.213820	-0.562710	0.099566
C164	C	1.167639	-0.582130	-0.001036
C165	C	1.247970	-0.547146	0.045260
H166	H	1.195201	-0.569550	-0.044954
H167	H	1.180202	-0.633061	0.006132
H168	H	1.067970	-0.569647	0.001441
H169	H	1.347668	-0.559578	0.042811
H170	H	1.235302	-0.496224	0.038076
O171	O	1.574989	-0.855194	0.307582
C172	C	1.720040	-0.848474	0.390984
C173	C	1.639631	-0.813523	0.344703
H174	H	1.772343	-0.814798	0.421001
H175	H	1.660111	-0.878250	0.416313
H176	H	1.787263	-0.878256	0.369870
H177	H	1.572397	-0.783708	0.365770
H178	H	1.699636	-0.783786	0.319378
O179	O	1.574751	-0.729867	0.307574
C180	C	1.580826	-0.658033	0.385077
C181	C	1.500484	-0.693026	0.338790
H182	H	1.520816	-0.628229	0.410320
H183	H	1.633031	-0.691660	0.415172
H184	H	1.648133	-0.628272	0.363974
H185	H	1.433109	-0.722788	0.359844
H186	H	1.448365	-0.659366	0.308699
O187	O	1.207548	-0.000109	0.500447
C188	C	1.080920	-0.052479	0.562377
C189	C	1.201625	-0.052454	0.534604
H190	H	1.076080	-0.094802	0.589990
H191	H	1.076092	-0.010217	0.590067
H192	H	1.001178	-0.052454	0.527597
H193	H	1.281434	-0.052501	0.569346
H194	H	1.206345	-0.094713	0.506901
O195	O	1.204391	-0.000014	0.383062
C196	C	0.985357	-0.000046	0.380338
C197	C	1.107787	-0.000062	0.418066
H198	H	0.907220	-0.000098	0.408623
H199	H	0.979061	0.042251	0.352235
H200	H	0.979161	-0.042328	0.352218
H201	H	1.114065	0.042191	0.446221
H202	H	1.114031	-0.042387	0.446131
H203	H	1.238647	-0.000006	1.044363
H204	H	1.298134	-0.265158	0.148312
O205	O	1.103830	-0.000040	0.769708
C206	C	0.884477	-0.000012	0.754381
C207	C	1.005253	0.000011	0.726667
H208	H	0.804747	0.000042	0.719595
H209	H	0.879549	-0.042313	0.782016
H210	H	0.879731	0.042266	0.782055
H211	H	1.010081	-0.042238	0.698965
H212	H	1.010131	0.042340	0.699065
H213	H	1.740373	0.000004	0.683376
O214	O	1.654058	0.000096	0.948814
C215	C	1.780628	0.052423	0.886829
C216	C	1.659897	0.052389	0.914580
H217	H	1.785376	0.094690	0.859135
H218	H	1.860439	0.052460	0.921574
H219	H	1.785409	0.010114	0.859199
H220	H	1.654996	0.094691	0.942205
H221	H	1.580142	0.052320	0.879806
H222	H	1.622916	-0.000044	0.404866
