data_functionalizedCrystal
_audit_creation_method	'MofGen! by Chris Wilmer'
_symmetry_space_group_name_H-M	'P1'
_symmetry_Int_Tables_number	1
_symmetry_cell_setting	triclinic
loop_
_symmetry_equiv_pos_as_xyz
  x,y,z
_cell_length_a	17.639617
_cell_length_b	17.639306
_cell_length_c	17.077402
_cell_angle_alpha	101.186313
_cell_angle_beta	101.208725
_cell_angle_gamma	65.670249
loop_
_atom_site_label
_atom_site_type_symbol
_atom_site_fract_x
_atom_site_fract_y
_atom_site_fract_z
Zn1	Zn	1.354234	-0.721144	-0.185811
Zn2	Zn	1.326290	-0.583316	-0.295015
Zn3	Zn	1.188557	-0.555437	-0.185782
Zn4	Zn	1.216356	-0.693183	-0.339066
O5	O	1.271359	-0.638270	-0.251418
O6	O	1.465872	-0.726230	-0.181874
O7	O	1.284691	-0.464289	-0.262077
O8	O	1.210595	-0.577452	-0.075933
O9	O	1.445341	-0.624969	-0.262106
O10	O	1.332317	-0.699197	-0.075955
O11	O	1.183499	-0.443806	-0.181824
O12	O	1.076900	-0.550340	-0.224538
O13	O	1.257974	-0.812221	-0.337184
O14	O	1.097324	-0.651541	-0.337155
O15	O	1.359273	-0.832764	-0.224589
O16	O	1.311646	-0.597856	-0.410711
O17	O	1.230878	-0.678575	-0.443075
C18	C	1.057205	-0.594882	-0.285624
C19	C	0.965593	-0.576339	-0.300279
C20	C	0.717783	-0.779337	-0.140099
C21	C	0.631696	-0.761897	-0.153887
C22	C	0.610309	-0.656302	-0.237241
C23	C	0.696397	-0.673736	-0.223464
C24	C	0.750127	-0.735254	-0.174891
C25	C	0.728741	-0.629652	-0.258256
C26	C	0.814820	-0.647082	-0.244475
C27	C	0.868556	-0.708595	-0.195903
C28	C	0.836207	-0.752683	-0.161111
C29	C	0.675008	-0.568130	-0.306823
C30	C	0.707352	-0.524046	-0.341615
C31	C	0.793434	-0.541480	-0.327840
C32	C	0.847169	-0.602993	-0.279268
C33	C	0.825783	-0.497392	-0.362632
C34	C	0.911862	-0.514821	-0.348852
C35	C	0.933249	-0.620423	-0.265487
C36	C	1.314842	-0.853232	-0.285803
C37	C	1.333371	-0.944836	-0.300456
C38	C	1.130913	-1.192818	-0.139759
C39	C	1.148343	-1.278897	-0.153541
C40	C	1.253703	-1.300204	-0.237100
C41	C	1.236285	-1.214125	-0.223322
C42	C	1.174888	-1.160438	-0.174652
C43	C	1.280260	-1.181745	-0.258215
C44	C	1.262840	-1.095673	-0.244441
C45	C	1.201444	-1.041981	-0.195774
C46	C	1.157468	-1.074366	-0.160878
C47	C	1.341652	-1.235433	-0.306890
C48	C	1.385627	-1.203053	-0.341782
C49	C	1.368211	-1.116980	-0.328004
C50	C	1.306816	-1.063288	-0.279337
C51	C	1.412188	-1.084595	-0.362901
C52	C	1.394768	-0.998523	-0.349127
C53	C	1.289396	-0.977216	-0.265564
C54	C	1.486350	-0.681828	-0.217080
C55	C	1.577966	-0.700390	-0.202447
C56	C	1.271273	-0.638229	-0.455376
C57	C	1.271316	-0.638254	-0.542622
C58	C	1.228094	-0.424154	-0.217103
C59	C	1.209724	-0.332583	-0.202204
C60	C	1.334677	-0.701683	-0.583567
C61	C	1.334715	-0.701708	-0.665545
C62	C	1.271395	-0.638299	-0.706574
C63	C	1.208028	-0.574867	-0.665624
C64	C	1.207988	-0.574846	-0.583649
C65	C	1.208119	-0.574913	-0.836485
C66	C	1.208160	-0.574932	-0.918465
C67	C	1.334846	-0.701774	-0.918381
C68	C	1.334806	-0.701754	-0.836406
C69	C	1.271439	-0.638320	-0.795460
C70	C	1.271473	-0.638334	-0.046664
C71	C	1.271521	-0.638361	0.040590
H72	H	0.566550	-0.606211	-0.276786
H73	H	0.604914	-0.553923	-0.318021
C74	C	0.882086	-0.408703	-0.432653
C75	C	0.947423	-0.466373	-0.387103
H76	H	0.904042	-0.378797	-0.456271
H77	H	0.842151	-0.370438	-0.398751
H78	H	0.855762	-0.437767	-0.473838
H79	H	0.973742	-0.437308	-0.345914
H80	H	0.987372	-0.504643	-0.421008
H81	H	1.355835	-1.305518	-0.318100
H82	H	1.239409	-0.933502	-0.225922
C83	C	1.082797	-0.449492	-0.657469
C84	C	1.138423	-0.505167	-0.710721
H85	H	1.039823	-0.406464	-0.685311
H86	H	1.112347	-0.425270	-0.614698
H87	H	1.058487	-0.478983	-0.636292
H88	H	1.162738	-0.475677	-0.731894
H89	H	1.108869	-0.529391	-0.753507
H90	H	0.879959	-0.802780	-0.121562
C91	C	1.488034	-1.215469	-0.422995
C92	C	1.453114	-1.262069	-0.395279
H93	H	1.529696	-1.251903	-0.456024
H94	H	1.512784	-1.188298	-0.378382
H95	H	1.445304	-1.174609	-0.453387
H96	H	1.495843	-1.302925	-0.364881
H97	H	1.428365	-1.289253	-0.439898
H98	H	1.187256	-0.971894	-0.184567
C99	C	0.565902	-0.450440	-0.399758
C100	C	0.648288	-0.456431	-0.395008
H101	H	0.529442	-0.408701	-0.432727
H102	H	0.549384	-0.435614	-0.347348
H103	H	0.563006	-0.502943	-0.422435
H104	H	0.651185	-0.403929	-0.372326
H105	H	0.664810	-0.471253	-0.447429
H106	H	1.462171	-1.128318	-0.402535
H107	H	1.430588	-0.972162	-0.377527
H108	H	1.156392	-0.523197	-0.550312
H109	H	0.977000	-0.670520	-0.225938
H110	H	1.386242	-0.753315	-0.550165
H111	H	1.156597	-0.523302	-0.951870
H112	H	1.112531	-1.305256	-0.125120
H113	H	0.938646	-0.722782	-0.184681
C114	C	1.459957	-0.827057	-0.657218
C115	C	1.404378	-0.771416	-0.710546
H116	H	1.502970	-0.870087	-0.684999
H117	H	1.430384	-0.851278	-0.636053
H118	H	1.484219	-0.797539	-0.614441
H119	H	1.380111	-0.800933	-0.753320
H120	H	1.433954	-0.747194	-0.731723
C121	C	0.730291	-0.881990	-0.059090
C122	C	0.776854	-0.846967	-0.086715
H123	H	0.766760	-0.923737	-0.026132
H124	H	0.703080	-0.906648	-0.103745
H125	H	0.689463	-0.839336	-0.028644
H126	H	0.817678	-0.889620	-0.117166
H127	H	0.804080	-0.822310	-0.042053
C128	C	1.055053	-1.061938	-0.079659
C129	C	1.089976	-1.015344	-0.107380
H130	H	1.013384	-1.025498	-0.046640
H131	H	1.097773	-1.102787	-0.049263
H132	H	1.030304	-1.089117	-0.124276
H133	H	1.114731	-0.988169	-0.062763
H134	H	1.047249	-0.974479	-0.137777
C135	C	0.557331	-0.853176	-0.176372
C136	C	0.596139	-0.810358	-0.115644
H137	H	0.535374	-0.883085	-0.152760
H138	H	0.597276	-0.891438	-0.210266
H139	H	0.513014	-0.814037	-0.207267
H140	H	0.640460	-0.849498	-0.084752
H141	H	0.556190	-0.772092	-0.081737
C142	C	1.327195	-1.441608	-0.295319
C143	C	1.321190	-1.359221	-0.290596
H144	H	1.368865	-1.478041	-0.328340
H145	H	1.274670	-1.444490	-0.317915
H146	H	1.342139	-1.458171	-0.242902
H147	H	1.306240	-1.342656	-0.343012
H148	H	1.373727	-1.356336	-0.268002
H149	H	1.386368	-0.753382	-0.802998
C150	C	1.391159	-0.758143	-1.044004
C151	C	1.404496	-0.771507	-0.963386
H152	H	1.434156	-0.801193	-1.071790
H153	H	1.392076	-0.705242	-1.046657
H154	H	1.338204	-0.758943	-1.068244
H155	H	1.457449	-0.770700	-0.939145
H156	H	1.403587	-0.824421	-0.960730
H157	H	0.782022	-0.447298	-0.402173
H158	H	1.080926	-1.149104	-0.100117
H159	H	1.156517	-0.523261	-0.803151
