data_functionalizedCrystal
_audit_creation_method	'MofGen! by Chris Wilmer'
_symmetry_space_group_name_H-M	'P1'
_symmetry_Int_Tables_number	1
_symmetry_cell_setting	triclinic
loop_
_symmetry_equiv_pos_as_xyz
  x,y,z
_cell_length_a	19.288864
_cell_length_b	19.288855
_cell_length_c	9.198806
_cell_angle_alpha	89.994256
_cell_angle_beta	90.017519
_cell_angle_gamma	96.865756
loop_
_atom_site_label
_atom_site_type_symbol
_atom_site_fract_x
_atom_site_fract_y
_atom_site_fract_z
O1	O	0.921345	-0.086647	0.121367
O2	O	0.719084	-0.098335	0.121268
O3	O	0.826062	0.008640	0.121301
O4	O	0.814366	-0.193622	0.121334
O5	O	0.826054	0.008640	-0.120484
O6	O	0.719076	-0.098335	-0.120517
O7	O	0.921337	-0.086646	-0.120418
Cu8	Cu	0.820205	-0.092491	-0.142544
Cu9	Cu	0.820215	-0.092491	0.143395
O10	O	0.814358	-0.193622	-0.120451
C11	C	0.693203	-0.097959	0.000363
C12	C	0.616100	-0.096830	0.000325
C13	C	0.571401	-0.159598	0.000358
C14	C	0.498954	-0.158538	0.000374
C15	C	0.471209	-0.094705	0.000386
C16	C	0.515917	-0.031929	0.000345
C17	C	0.588363	-0.032991	0.000314
C18	C	0.362951	-0.044526	0.085135
C19	C	0.290507	-0.043466	0.085174
C20	C	0.247763	-0.091426	0.000473
C21	C	0.277472	-0.140457	-0.084248
C22	C	0.349917	-0.141519	-0.084279
C23	C	0.392655	-0.093546	0.000418
C24	C	0.124509	-0.153048	0.000521
C25	C	0.052061	-0.151985	0.000528
C26	C	0.069026	-0.025374	0.000514
C27	C	0.141472	-0.026439	0.000492
C28	C	0.169209	-0.090278	0.000503
C29	C	0.825683	0.034517	0.000407
C30	C	0.824557	0.111620	0.000401
C31	C	0.947217	-0.087023	0.000490
C32	C	1.024321	-0.088152	0.000538
C33	C	0.824035	0.147831	0.132197
C34	C	0.822967	0.220277	0.132207
C35	C	0.822434	0.256512	0.000412
C36	C	0.822952	0.220292	-0.131402
C37	C	0.824013	0.147846	-0.131407
C38	C	0.861433	0.376743	-0.100533
C39	C	0.860377	0.449188	-0.100522
C40	C	0.819158	0.479958	0.000423
C41	C	0.779006	0.438275	0.101382
C42	C	0.780067	0.365829	0.101377
C43	C	0.821283	0.335067	0.000403
C44	C	0.817478	0.594723	0.132239
C45	C	0.816405	0.667169	0.132242
C46	C	0.816397	0.667184	-0.131370
C47	C	0.817462	0.594737	-0.131370
C48	C	0.818006	0.558512	0.000438
N49	N	0.820204	-0.092490	-0.343658
C50	C	0.814739	0.780502	0.000443
C51	C	0.815871	0.703399	0.000446
C52	C	0.780180	-0.052681	-0.415917
C53	C	0.780189	-0.052679	-0.583329
N54	N	0.820222	-0.092486	0.344508
H55	H	0.266324	-0.003545	0.154165
C56	C	0.904542	0.495032	-0.211583
N57	N	0.937807	0.529560	-0.295241
H58	H	0.824476	0.118340	0.239526
H59	H	0.894998	0.351697	-0.182746
H60	H	0.397748	-0.005470	0.154117
H61	H	0.593980	-0.211581	0.000369
H62	H	0.822516	0.249799	-0.238710
C63	C	0.824591	0.108014	-0.276400
N64	N	0.825028	0.078012	-0.385611
C65	C	0.815867	0.707005	0.277237
N66	N	0.815475	0.737012	0.386450
C67	C	0.733894	-0.006635	-0.667274
N68	N	0.699023	0.028046	-0.730505
C69	C	0.822389	0.260116	0.277199
N70	N	0.821953	0.290121	0.386407
C71	C	0.449777	-0.227590	0.000427
N72	N	0.412738	-0.279601	0.000475
H73	H	0.745904	-0.018604	-0.353840
H74	H	0.624757	0.018124	0.000288
H75	H	0.015667	-0.203100	0.000547
C76	C	0.866520	-0.138530	-0.571556
N77	N	0.901391	-0.173211	-0.508325
H78	H	0.854473	-0.126574	-0.405735
H79	H	0.242671	-0.179510	-0.153221
C80	C	0.155022	-0.223271	0.000515
N81	N	0.178002	-0.276164	0.000507
C82	C	0.382594	-0.195446	-0.177486
N83	N	0.407207	-0.236061	-0.247698
H84	H	0.177867	0.024674	0.000474
C85	C	0.038510	0.044843	0.000525
N86	N	0.015522	0.097732	0.000531
C87	C	0.735894	0.319980	0.212418
N88	N	0.702620	0.285446	0.296052
H89	H	0.493322	0.020044	0.000375
H90	H	0.817916	0.565225	0.239565
C91	C	0.733660	0.472115	0.212429
N92	N	0.699508	0.497607	0.296067
H93	H	0.815958	0.696685	-0.238680
H94	H	0.817893	0.565255	-0.238693
