data_functionalizedCrystal
_audit_creation_method	'MofGen! by Chris Wilmer'
_symmetry_space_group_name_H-M	'P1'
_symmetry_Int_Tables_number	1
_symmetry_cell_setting	triclinic
loop_
_symmetry_equiv_pos_as_xyz
  x,y,z
_cell_length_a	34.408637
_cell_length_b	34.407814
_cell_length_c	34.404193
_cell_angle_alpha	60.004510
_cell_angle_beta	60.009006
_cell_angle_gamma	59.994604
loop_
_atom_site_label
_atom_site_type_symbol
_atom_site_fract_x
_atom_site_fract_y
_atom_site_fract_z
O1	O	0.053973	-0.567860	0.474801
O2	O	0.387307	-0.234526	0.808134
O3	O	0.720640	0.098807	1.141468
O4	O	0.020377	-0.442124	0.382567
O5	O	0.353711	-0.108790	0.715901
O6	O	0.687044	0.224543	1.049234
O7	O	0.100004	-0.521670	0.382483
O8	O	0.433337	-0.188336	0.715816
O9	O	0.766671	0.144997	1.049150
O10	O	-0.025653	-0.488314	0.474886
O11	O	0.307680	-0.154980	0.808219
O12	O	0.641013	0.178353	1.141552
O13	O	0.126426	-0.495253	0.408816
O14	O	0.459759	-0.161920	0.742149
O15	O	0.793093	0.171413	1.075483
O16	O	0.046800	-0.415707	0.408900
O17	O	0.380133	-0.082374	0.742234
O18	O	0.713466	0.250960	1.075567
O19	O	0.080396	-0.541443	0.501134
O20	O	0.413729	-0.208110	0.834467
O21	O	0.747062	0.125223	1.167801
Zn22	Zn	0.067793	-0.474381	0.459198
Zn23	Zn	0.401126	-0.141048	0.792532
Zn24	Zn	0.734459	0.192286	1.125865
Zn25	Zn	0.032980	-0.509186	0.424503
Zn26	Zn	0.366314	-0.175853	0.757837
Zn27	Zn	0.699647	0.157481	1.091170
O28	O	0.000769	-0.461897	0.501219
O29	O	0.334102	-0.128564	0.834552
O30	O	0.667436	0.204769	1.167885
N31	N	0.091552	-0.450631	0.482879
N32	N	0.424885	-0.117297	0.816212
N33	N	0.758219	0.216036	1.149545
N34	N	0.009225	-0.532940	0.400823
N35	N	0.342558	-0.199607	0.734156
N36	N	0.675892	0.133726	1.067490
C37	C	0.142848	-0.268847	0.534081
C38	C	0.476181	0.064487	0.867414
C39	C	0.809515	0.397820	1.200747
C40	C	0.142979	-0.399386	0.664559
C41	C	0.476312	-0.066052	0.997893
C42	C	0.809646	0.267281	1.331226
C43	C	0.142862	-0.399365	0.534081
C44	C	0.476196	-0.066032	0.867414
C45	C	0.809529	0.267301	1.200747
C46	C	0.273409	-0.399338	0.533986
C47	C	0.606742	-0.066004	0.867320
C48	C	0.940076	0.267329	1.200653
C49	C	0.157225	-0.311914	0.548422
C50	C	0.490559	0.021419	0.881755
C51	C	0.823892	0.354752	1.215089
C52	C	0.157300	-0.385019	0.621491
C53	C	0.490633	-0.051686	0.954824
C54	C	0.823967	0.281648	1.288158
C55	C	0.230339	-0.384991	0.548370
C56	C	0.563673	-0.051658	0.881704
C57	C	0.897006	0.281676	1.215037
C58	C	0.157235	-0.385007	0.548422
C59	C	0.490568	-0.051674	0.881755
C60	C	0.823901	0.281659	1.215089
C61	C	0.124548	-0.214028	0.515827
C62	C	0.457881	0.119306	0.849160
C63	C	0.791214	0.452639	1.182493
C64	C	0.124571	-0.417639	0.515827
C65	C	0.457905	-0.084306	0.849160
C66	C	0.791238	0.249027	1.182493
C67	C	0.175526	-0.366733	0.566676
C68	C	0.508859	-0.033400	0.900009
C69	C	0.842192	0.299933	1.233343
C70	C	0.353121	-0.385580	0.491988
C71	C	0.686454	-0.052247	0.825321
C72	C	1.019787	0.281086	1.158655
C73	C	0.402952	-0.402180	0.475348
C74	C	0.736285	-0.068846	0.808681
C75	C	1.069618	0.264487	1.142015
C76	C	0.402981	-0.482812	0.506096
C77	C	0.736314	-0.149478	0.839429
C78	C	1.069647	0.183855	1.172762
C79	C	0.353151	-0.466211	0.522737
C80	C	0.686484	-0.132878	0.856070
C81	C	1.019818	0.200455	1.189404
C82	C	0.136544	-0.189099	0.466839
C83	C	0.469877	0.144234	0.800173
C84	C	0.803210	0.477567	1.133506
C85	C	0.119905	-0.139265	0.450247
C86	C	0.453239	0.194068	0.783580
C87	C	0.786572	0.527401	1.116914
C88	C	0.079280	-0.139291	0.531632
C89	C	0.412613	0.194042	0.864965
C90	C	0.745946	0.527376	1.198299
C91	C	0.095918	-0.189125	0.548224
C92	C	0.429251	0.144208	0.881558
C93	C	0.762585	0.477541	1.214891
C94	C	0.075577	-0.405615	0.527900
C95	C	0.408910	-0.072282	0.861234
C96	C	0.742243	0.261051	1.194567
C97	C	0.058953	-0.422228	0.511301
C98	C	0.392287	-0.088894	0.844634
C99	C	0.725620	0.244439	1.177968
C100	C	0.140315	-0.462889	0.470566
C101	C	0.473649	-0.129555	0.803899
C102	C	0.806982	0.203778	1.137232
C103	C	0.156941	-0.446276	0.487159
C104	C	0.490274	-0.112943	0.820493
C105	C	0.823607	0.220390	1.153826
C106	C	0.075772	-0.405653	0.744326
C107	C	0.409105	-0.072320	1.077659
C108	C	0.742439	0.261014	1.410993
C109	C	0.059206	-0.422280	0.794159
C110	C	0.392539	-0.088947	1.127492
C111	C	0.725873	0.244386	1.460826
C112	C	0.140607	-0.462951	0.794094
C113	C	0.473940	-0.129617	1.127428
C114	C	0.807273	0.203716	1.460761
C115	C	0.157172	-0.446325	0.744260
C116	C	0.490505	-0.112991	1.077594
C117	C	0.823838	0.220342	1.410927
C118	C	0.124753	-0.417674	0.719377
C119	C	0.458087	-0.084341	1.052711
C120	C	0.791420	0.248992	1.386044
C121	C	0.328223	-0.417595	0.515681
C122	C	0.661556	-0.084262	0.849014
C123	C	0.994889	0.249072	1.182347
C124	C	-0.172390	-0.583988	0.349141
C125	C	0.160943	-0.250655	0.682474
C126	C	0.494276	0.082678	1.015808
C127	C	-0.041751	-0.584138	0.218783
C128	C	0.291582	-0.250805	0.552117
C129	C	0.624916	0.082528	0.885450
C130	C	-0.041941	-0.584130	0.349402
C131	C	0.291392	-0.250797	0.682735
C132	C	0.624725	0.082536	1.016068
C133	C	-0.041957	-0.714607	0.349338
C134	C	0.291376	-0.381274	0.682671
C135	C	0.624709	-0.047941	1.016005
C136	C	-0.129326	-0.598388	0.334853
C137	C	0.204008	-0.265055	0.668186
C138	C	0.537341	0.068278	1.001520
C139	C	-0.056165	-0.598473	0.261852
C140	C	0.277169	-0.265140	0.595185
C141	C	0.610502	0.068193	0.928518
C142	C	-0.056282	-0.671535	0.334962
C143	C	0.277052	-0.338201	0.668296
C144	C	0.610385	-0.004868	1.001629
C145	C	-0.056272	-0.598469	0.334999
C146	C	0.277061	-0.265136	0.668332
C147	C	0.610395	0.068198	1.001666
C148	C	-0.227205	-0.565659	0.367327
C149	C	0.106128	-0.232326	0.700660
C150	C	0.439461	0.101007	1.033994
C151	C	-0.023703	-0.565882	0.367734
C152	C	0.309631	-0.232549	0.701067
C153	C	0.642964	0.100784	1.034400
C154	C	-0.074511	-0.616717	0.316667
C155	C	0.258823	-0.283384	0.650000
C156	C	0.592156	0.049950	0.983334
C157	C	-0.055754	-0.794298	0.391257
C158	C	0.277579	-0.460965	0.724591
C159	C	0.610912	-0.127631	1.057924
C160	C	-0.039181	-0.844132	0.407888
C161	C	0.294152	-0.510799	0.741221
C162	C	0.627485	-0.177466	1.074555
C163	C	0.041447	-0.844215	0.377269
C164	C	0.374781	-0.510881	0.710602
C165	C	0.708114	-0.177548	1.043935
C166	C	0.024873	-0.794381	0.360637
C167	C	0.358207	-0.461048	0.693970
C168	C	0.691540	-0.127715	1.027303
C169	C	-0.252183	-0.577666	0.416302
C170	C	0.081150	-0.244332	0.749636
C171	C	0.414484	0.089001	1.082969
C172	C	-0.302014	-0.561001	0.432833
C173	C	0.031320	-0.227668	0.766166
C174	C	0.364653	0.105665	1.099499
C175	C	-0.301886	-0.520329	0.351410
C176	C	0.031448	-0.186996	0.684743
C177	C	0.364781	0.146337	1.018077
C178	C	-0.252055	-0.536994	0.334880
C179	C	0.081278	-0.203660	0.668213
C180	C	0.414612	0.129673	1.001546
C181	C	-0.035709	-0.516892	0.355682
C182	C	0.297624	-0.183559	0.689016
C183	C	0.630957	0.149775	1.022349
C184	C	-0.019129	-0.500308	0.372353
C185	C	0.314205	-0.166974	0.705686
C186	C	0.647538	0.166359	1.039020
C187	C	0.021465	-0.581700	0.413115
C188	C	0.354798	-0.248366	0.746448
C189	C	0.688132	0.084967	1.079781
C190	C	0.004884	-0.598286	0.396450
C191	C	0.338218	-0.264953	0.729783
C192	C	0.671551	0.068380	1.063116
C193	C	-0.035389	-0.516907	0.139026
C194	C	0.297944	-0.183574	0.472359
C195	C	0.631278	0.149760	0.805692
C196	C	-0.018707	-0.500324	0.089193
C197	C	0.314626	-0.166991	0.422526
C198	C	0.647959	0.166342	0.755859
C199	C	0.021949	-0.581721	0.089240
C200	C	0.355282	-0.248388	0.422573
C201	C	0.688615	0.084945	0.755907
C202	C	0.005268	-0.598303	0.139074
C203	C	0.338601	-0.264969	0.472408
C204	C	0.671935	0.068364	0.805741
C205	C	-0.023402	-0.565894	0.163965
C206	C	0.309931	-0.232561	0.497299
C207	C	0.643265	0.100772	0.830632
C208	C	-0.023728	-0.769425	0.367633
C209	C	0.309605	-0.436091	0.700967
C210	C	0.642938	-0.102758	1.034300
N211	N	0.427173	-0.450553	0.482630
N212	N	0.760506	-0.117220	0.815964
N213	N	1.093840	0.216113	1.149297
O214	O	0.589997	-0.458460	0.365361
O215	O	0.923330	-0.125126	0.698695
O216	O	1.256664	0.208207	1.032028
O217	O	0.590185	-0.550997	0.490963
O218	O	0.923518	-0.217664	0.824296
O219	O	1.256852	0.115669	1.157630
O220	O	0.590104	-0.550786	0.411309
O221	O	0.923438	-0.217452	0.744642
O222	O	1.256771	0.115881	1.077975
O223	O	0.590077	-0.458671	0.445016
O224	O	0.923411	-0.125338	0.778349
O225	O	1.256744	0.207995	1.111683
O226	O	0.510940	-0.524462	0.437777
O227	O	0.844273	-0.191129	0.771110
O228	O	1.177606	0.142205	1.104444
O229	O	0.511020	-0.524674	0.517432
O230	O	0.844354	-0.191340	0.850765
O231	O	1.177687	0.141993	1.184098
O232	O	0.510832	-0.432136	0.391830
O233	O	0.844165	-0.098803	0.725163
O234	O	1.177499	0.234531	1.058497
Zn235	Zn	0.498357	-0.474225	0.458833
Zn236	Zn	0.831690	-0.140892	0.792167
Zn237	Zn	1.165024	0.192441	1.125500
Zn238	Zn	0.602660	-0.508908	0.423960
Zn239	Zn	0.935993	-0.175575	0.757293
Zn240	Zn	1.269327	0.157759	1.090626
O241	O	0.510913	-0.432348	0.471484
O242	O	0.844246	-0.099014	0.804818
O243	O	1.177579	0.234319	1.138151
N244	N	0.673844	-0.532580	0.400158
N245	N	1.007177	-0.199247	0.733491
N246	N	1.340511	0.134086	1.066825
N247	N	0.091520	-0.115070	0.482873
N248	N	0.424853	0.218263	0.816206
N249	N	0.758187	0.551596	1.149539
O250	O	-0.025663	0.047841	0.474857
O251	O	0.307670	0.381175	0.808190
O252	O	0.641004	0.714508	1.141524
O253	O	0.099940	0.047877	0.382299
O254	O	0.433274	0.381210	0.715632
O255	O	0.766607	0.714544	1.048966
O256	O	0.020247	0.047844	0.382560
O257	O	0.353581	0.381177	0.715894
O258	O	0.686914	0.714511	1.049227
O259	O	0.054030	0.047874	0.474596
O260	O	0.387363	0.381207	0.807929
O261	O	0.720696	0.714541	1.141262
O262	O	0.046674	-0.031326	0.408942
O263	O	0.380008	0.302007	0.742275
O264	O	0.713341	0.635340	1.075609
O265	O	0.126367	-0.031293	0.408680
O266	O	0.459701	0.302040	0.742014
O267	O	0.793034	0.635373	1.075347
O268	O	0.000764	-0.031329	0.501238
O269	O	0.334097	0.302004	0.834572
O270	O	0.667431	0.635338	1.167905
Zn271	Zn	0.067761	-0.043881	0.459148
Zn272	Zn	0.401095	0.289452	0.792481
Zn273	Zn	0.734428	0.622785	1.125815
Zn274	Zn	0.032943	0.060429	0.424389
Zn275	Zn	0.366276	0.393762	0.757723
Zn276	Zn	0.699609	0.727096	1.091056
O277	O	0.080457	-0.031296	0.500977
O278	O	0.413790	0.302037	0.834310
O279	O	0.747123	0.635371	1.167644
N280	N	0.009178	0.131618	0.400665
N281	N	0.342511	0.464951	0.733999
N282	N	0.675845	0.798285	1.067332
N283	N	0.091852	-0.450680	0.818332
N284	N	0.425185	-0.117347	1.151666
N285	N	0.758519	0.215986	1.484999
O286	O	0.083862	-0.567845	0.981235
O287	O	0.417195	-0.234512	1.314568
O288	O	0.750529	0.098822	1.647901
O289	O	-0.008657	-0.442198	0.981276
O290	O	0.324676	-0.108865	1.314609
O291	O	0.658010	0.224469	1.647942
O292	O	-0.008441	-0.521875	0.981252
O293	O	0.324892	-0.188541	1.314585
O294	O	0.658226	0.144792	1.647919
O295	O	0.083646	-0.488168	0.981258
O296	O	0.416979	-0.154835	1.314591
O297	O	0.750313	0.178498	1.647925
O298	O	0.017919	-0.495468	0.902085
O299	O	0.351252	-0.162134	1.235418
O300	O	0.684586	0.171199	1.568752
O301	O	0.017703	-0.415791	0.902109
O302	O	0.351036	-0.082457	1.235442
O303	O	0.684370	0.250876	1.568775
O304	O	0.110222	-0.541438	0.902067
O305	O	0.443555	-0.208105	1.235401
O306	O	0.776889	0.125229	1.568734
Zn307	Zn	0.068148	-0.474422	0.889518
Zn308	Zn	0.401481	-0.141088	1.222852
Zn309	Zn	0.734814	0.192245	1.556185
Zn310	Zn	0.033417	-0.509214	0.993825
Zn311	Zn	0.366751	-0.175881	1.327158
Zn312	Zn	0.700084	0.157452	1.660491
O313	O	0.110006	-0.461761	0.902091
O314	O	0.443339	-0.128428	1.235424
O315	O	0.776673	0.204906	1.568758
N316	N	0.009712	-0.532961	1.065011
N317	N	0.343045	-0.199627	1.398344
N318	N	0.676379	0.133706	1.731677
C319	C	0.030439	-0.413071	0.383027
C320	C	0.363772	-0.079738	0.716360
C321	C	0.697106	0.253595	1.049693
C322	C	0.129046	-0.511580	0.382922
C323	C	0.462380	-0.178246	0.716255
C324	C	0.795713	0.155087	1.049588
C325	C	0.070334	-0.570496	0.500675
C326	C	0.403667	-0.237162	0.834008
C327	C	0.737000	0.096171	1.167341
C328	C	-0.028274	-0.471987	0.500780
C329	C	0.305060	-0.138654	0.834113
C330	C	0.638393	0.194679	1.167446
C331	C	0.550625	-0.550579	0.520021
C332	C	0.883959	-0.217245	0.853355
C333	C	1.217292	0.116088	1.186688
C334	C	0.550527	-0.550317	0.421379
C335	C	0.883860	-0.216984	0.754712
C336	C	1.217194	0.116350	1.088045
C337	C	0.550389	-0.432554	0.362773
C338	C	0.883723	-0.099220	0.696106
C339	C	1.217056	0.234113	1.029439
C340	C	0.550491	-0.432816	0.461414
C341	C	0.883824	-0.099483	0.794748
C342	C	1.217157	0.233850	1.128081
C343	C	0.128944	0.008394	0.382712
C344	C	0.462277	0.341727	0.716045
C345	C	0.795611	0.675060	1.049378
C346	C	0.030287	0.008256	0.383068
C347	C	0.363620	0.341589	0.716401
C348	C	0.696954	0.674922	1.049734
C349	C	-0.028273	0.008252	0.500793
C350	C	0.305061	0.341586	0.834126
C351	C	0.638394	0.674919	1.167460
C352	C	0.070417	0.008292	0.500470
C353	C	0.403751	0.341625	0.833803
C354	C	0.737084	0.674958	1.167137
C355	C	-0.008218	-0.413165	0.941698
C356	C	0.325115	-0.079832	1.275031
C357	C	0.658448	0.253502	1.608364
C358	C	-0.007945	-0.511830	0.941653
C359	C	0.325388	-0.178497	1.274986
C360	C	0.658721	0.154837	1.608319
C361	C	0.109783	-0.570471	0.941646
C362	C	0.443117	-0.237137	1.274979
C363	C	0.776450	0.096196	1.608312
C364	C	0.109516	-0.471800	0.941673
C365	C	0.442850	-0.138467	1.275006
C366	C	0.776183	0.194867	1.608339
H367	H	0.019320	-0.412483	0.814467
H368	H	0.352653	-0.079150	1.147800
H369	H	0.685987	0.254183	1.481133
Cl370	Cl	0.550297	-0.387695	0.307083
Cl371	Cl	0.883630	-0.054362	0.640416
Cl372	Cl	1.216964	0.278972	0.973749
Cl373	Cl	0.550702	-0.595432	0.575717
Cl374	Cl	0.884035	-0.262099	0.909050
Cl375	Cl	1.217368	0.071235	1.242383
H376	H	-0.037264	-0.377079	0.941710
H377	H	0.296069	-0.043746	1.275043
H378	H	0.629402	0.289587	1.608377
Cl379	Cl	0.550548	-0.594997	0.410244
Cl380	Cl	0.883881	-0.261664	0.743577
Cl381	Cl	1.217214	0.071670	1.076911
H382	H	0.550485	-0.403881	0.468626
H383	H	0.883818	-0.070548	0.801959
H384	H	1.217151	0.262785	1.135293
Cl385	Cl	0.080833	-0.220461	0.609811
Cl386	Cl	0.414166	0.112873	0.943144
Cl387	Cl	0.747499	0.446206	1.276477
Cl388	Cl	0.218753	-0.461440	0.712900
Cl389	Cl	0.552086	-0.128107	1.046233
Cl390	Cl	0.885420	0.205226	1.379566
Cl391	Cl	0.184765	-0.522553	0.338120
Cl392	Cl	0.518098	-0.189219	0.671453
Cl393	Cl	0.851431	0.144114	1.004786
Cl394	Cl	-0.083996	-0.461018	0.545578
Cl395	Cl	0.249338	-0.127685	0.878911
Cl396	Cl	0.582671	0.205648	1.212244
Cl397	Cl	-0.052595	-0.522945	0.941601
Cl398	Cl	0.280739	-0.189612	1.274934
Cl399	Cl	0.614072	0.143722	1.608268
Cl400	Cl	0.154632	-0.626182	0.941623
Cl401	Cl	0.487965	-0.292849	1.274956
Cl402	Cl	0.821299	0.040485	1.608290
H403	H	0.164941	0.008624	0.353583
H404	H	0.498275	0.341957	0.686916
H405	H	0.831608	0.675290	1.020249
H406	H	0.023050	0.008252	0.354152
H407	H	0.356383	0.341585	0.687485
H408	H	0.689717	0.674918	1.020819
H409	H	0.077514	-0.606615	0.529644
H410	H	0.410847	-0.273282	0.862977
H411	H	0.744180	0.060052	1.196310
H412	H	-0.064344	0.008241	0.529850
H413	H	0.268990	0.341575	0.863183
H414	H	0.602323	0.674908	1.196516
H415	H	0.077653	0.008301	0.529384
H416	H	0.410986	0.341634	0.862717
H417	H	0.744319	0.674967	1.196051
Cl418	Cl	0.154184	-0.460667	0.941670
Cl419	Cl	0.487517	-0.127334	1.275003
Cl420	Cl	0.820850	0.206000	1.608337
H421	H	0.049370	-0.382321	0.724071
H422	H	0.382703	-0.048988	1.057404
H423	H	0.716037	0.284345	1.390737
H424	H	0.167007	-0.486271	0.814352
H425	H	0.500340	-0.152937	1.147685
H426	H	0.833674	0.180396	1.481019
H427	H	0.019058	-0.412426	0.521121
H428	H	0.352391	-0.079093	0.854454
H429	H	0.685725	0.254240	1.187787
Cl430	Cl	0.181014	-0.498896	0.434532
Cl431	Cl	0.514347	-0.165563	0.767866
Cl432	Cl	0.847680	0.167770	1.101199
Cl433	Cl	0.034881	-0.369613	0.563935
Cl434	Cl	0.368215	-0.036279	0.897269
Cl435	Cl	0.701548	0.297054	1.230602
H436	H	0.196836	-0.456064	0.477324
H437	H	0.530170	-0.122730	0.810657
H438	H	0.863503	0.210603	1.143991
Cl439	Cl	0.434319	-0.543928	0.514961
Cl440	Cl	0.767652	-0.210595	0.848294
Cl441	Cl	1.100985	0.122738	1.181628
Cl442	Cl	0.321854	-0.506464	0.552523
Cl443	Cl	0.655188	-0.173131	0.885857
Cl444	Cl	0.988521	0.160203	1.219190
H445	H	0.423225	-0.376108	0.456057
H446	H	0.756558	-0.042775	0.789390
H447	H	1.089891	0.290558	1.122724
H448	H	0.159856	-0.209371	0.440456
H449	H	0.493189	0.123962	0.773789
H450	H	0.826522	0.457295	1.107122
Cl451	Cl	0.134983	-0.107924	0.388659
Cl452	Cl	0.468317	0.225409	0.721993
Cl453	Cl	0.801650	0.558742	1.055326
Cl454	Cl	0.321783	-0.324461	0.483118
Cl455	Cl	0.655116	0.008873	0.816451
Cl456	Cl	0.988450	0.342206	1.149784
H457	H	0.055974	-0.119015	0.558014
H458	H	0.389307	0.214318	0.891347
H459	H	0.722640	0.547651	1.224681
H460	H	-0.058738	-0.490513	0.159288
H461	H	0.274596	-0.157180	0.492621
H462	H	0.607929	0.176154	0.825954
Cl463	Cl	-0.033786	-0.438736	0.057846
Cl464	Cl	0.299547	-0.105403	0.391180
Cl465	Cl	0.632880	0.227931	0.724513
H466	H	0.045284	-0.608113	0.068976
H467	H	0.378617	-0.274780	0.402309
H468	H	0.711950	0.058553	0.735642
H469	H	-0.058984	-0.490504	0.332300
H470	H	0.274349	-0.157170	0.665634
H471	H	0.607683	0.176163	0.998967
Cl472	Cl	-0.034222	-0.438719	0.357207
Cl473	Cl	0.299111	-0.105385	0.690540
Cl474	Cl	0.632445	0.227948	1.023874
Cl475	Cl	0.020340	-0.659892	0.170424
Cl476	Cl	0.353674	-0.326559	0.503757
Cl477	Cl	0.687007	0.006775	0.837091
Cl478	Cl	-0.116856	-0.762925	0.400055
Cl479	Cl	0.216477	-0.429591	0.733388
Cl480	Cl	0.549810	-0.096258	1.066722
H481	H	0.044746	-0.608091	0.436494
H482	H	0.378079	-0.274758	0.769827
H483	H	0.711413	0.058576	1.103160
H484	H	0.014660	-0.638178	0.406265
H485	H	0.347993	-0.304845	0.739598
H486	H	0.681326	0.028488	1.072931
H487	H	0.050956	-0.774133	0.341399
H488	H	0.384289	-0.440799	0.674732
H489	H	0.717622	-0.107466	1.008065
Cl490	Cl	-0.220657	-0.521897	0.273308
Cl491	Cl	0.112676	-0.188563	0.606642
Cl492	Cl	0.446009	0.144770	0.939975
H493	H	0.081021	-0.864532	0.371574
H494	H	0.414354	-0.531199	0.704907
H495	H	0.747688	-0.197865	1.038240
H496	H	-0.231954	-0.601008	0.442726
H497	H	0.101379	-0.267674	0.776060
H498	H	0.434712	0.065659	1.109393
Cl499	Cl	-0.079444	-0.875405	0.437588
Cl500	Cl	0.253889	-0.542072	0.770921
Cl501	Cl	0.587222	-0.208738	1.104254
H502	H	-0.322352	-0.570775	0.472713
H503	H	0.010981	-0.237442	0.806047
H504	H	0.344315	0.095892	1.139380
H505	H	-0.322118	-0.496994	0.324987
H506	H	0.011215	-0.163660	0.658321
H507	H	0.344548	0.169673	0.991654
H508	H	0.023260	-0.376951	0.354059
H509	H	0.356594	-0.043618	0.687392
H510	H	0.689927	0.289716	1.020725
