data_functionalizedCrystal
_audit_creation_method	'MofGen! by Chris Wilmer'
_symmetry_space_group_name_H-M	'P1'
_symmetry_Int_Tables_number	1
_symmetry_cell_setting	triclinic
loop_
_symmetry_equiv_pos_as_xyz
  x,y,z
_cell_length_a	18.101398
_cell_length_b	19.120786
_cell_length_c	18.101389
_cell_angle_alpha	92.460644
_cell_angle_beta	90.009745
_cell_angle_gamma	92.461076
loop_
_atom_site_label
_atom_site_type_symbol
_atom_site_fract_x
_atom_site_fract_y
_atom_site_fract_z
Zn1	Zn	1.119565	-0.279784	0.405955
Zn2	Zn	1.114191	-0.397225	0.276826
Zn3	Zn	0.995725	-0.279778	0.282148
Zn4	Zn	0.990406	-0.397196	0.400648
O5	O	1.054972	-0.338496	0.341394
O6	O	1.222485	-0.295378	0.388820
O7	O	1.098453	-0.381655	0.173899
O8	O	1.016627	-0.181489	0.303019
O9	O	1.218536	-0.381662	0.293949
O10	O	1.107613	-0.181494	0.393980
O11	O	1.011416	-0.295367	0.177808
O12	O	0.891387	-0.295338	0.297873
O13	O	1.007563	-0.381611	0.504985
O14	O	0.887479	-0.381605	0.384934
O15	O	1.102455	-0.295350	0.508884
O16	O	1.093296	-0.495511	0.288803
O17	O	1.002351	-0.495489	0.379774
C18	C	0.862562	-0.338468	0.341406
C19	C	0.780248	-0.338473	0.341427
C20	C	0.481155	-0.338515	0.341395
C21	C	0.510035	-0.393053	0.395877
C22	C	0.595661	-0.392883	0.396119
C23	C	0.629539	-0.338495	0.341411
C24	C	0.601804	-0.264518	0.366069
C25	C	0.516144	-0.264845	0.366459
C26	C	0.511860	-0.357300	0.262146
C27	C	0.597437	-0.358923	0.262492
C28	C	0.713399	-0.338479	0.341419
C29	C	0.397295	-0.338525	0.341389
C30	C	1.046683	-0.520985	0.333151
C31	C	1.043205	-0.599055	0.329650
C32	C	1.088907	-0.635674	0.375402
C33	C	1.085636	-0.709029	0.372113
C34	C	1.036666	-0.745763	0.323068
C35	C	0.990959	-0.709138	0.277315
C36	C	0.994227	-0.635785	0.280608
C37	C	1.024428	-0.967246	0.310758
C38	C	1.021165	-1.040605	0.307467
C39	C	1.115841	-1.040490	0.402266
C40	C	1.119108	-0.967135	0.405552
C41	C	1.073398	-0.930517	0.359801
C42	C	1.033323	-0.820743	0.319704
C43	C	1.076738	-0.855538	0.363170
C44	C	1.248132	-0.338524	0.341383
C45	C	1.330446	-0.338536	0.341378
C46	C	1.055015	-0.338478	0.534557
C47	C	1.055034	-0.338470	0.616871
C48	C	1.063313	-0.155294	0.349685
C49	C	1.066867	-0.077224	0.353218
C50	C	1.054973	-0.338463	0.148985
C51	C	1.055107	-0.338272	0.066680
C52	C	1.055083	-0.338339	0.915968
C53	C	0.995190	-0.392440	0.882198
C54	C	0.995334	-0.392691	0.796568
C55	C	1.055058	-0.338404	0.767583
C56	C	1.132181	-0.358502	0.797764
C57	C	1.131845	-0.358857	0.883393
C58	C	1.038537	-0.264020	0.887743
C59	C	1.036781	-0.264449	0.802074
C60	C	1.055049	-0.338440	0.683722
C61	C	1.055097	-0.338305	0.999829
H62	H	0.486950	-0.448091	0.380181
H63	H	1.177804	-0.321163	0.905819
H64	H	0.983451	-0.245711	0.910168
H65	H	0.624041	-0.222781	0.327771
H66	H	0.951084	-0.739053	0.237384
H67	H	1.116607	-0.825627	0.403105
H68	H	1.146262	-0.413185	0.900926
H69	H	1.177860	-0.320335	0.779125
H70	H	0.993454	-0.850660	0.279769
H71	H	1.005987	-0.447778	0.773602
H72	H	1.146915	-0.412252	0.773897
H73	H	1.122857	-0.738841	0.409363
H74	H	1.077487	-0.222001	0.782591
H75	H	0.980042	-0.249294	0.782439
H76	H	1.082201	-0.223712	0.909823
H77	H	0.614194	-0.447741	0.380282
H78	H	0.957011	-0.605970	0.243353
H79	H	0.616721	-0.380454	0.454769
H80	H	1.153054	-1.070313	0.439515
H81	H	0.987211	-0.937437	0.273504
H82	H	0.489075	-0.380783	0.454185
H83	H	0.496898	-0.248910	0.424492
H84	H	0.497311	-0.222754	0.328785
H85	H	0.938039	-0.380113	0.776116
H86	H	1.005728	-0.447191	0.901255
H87	H	0.623997	-0.248295	0.423492
H88	H	0.937715	-0.379991	0.903359
H89	H	0.487867	-0.410321	0.240377
H90	H	0.615298	-0.413359	0.243956
H91	H	0.981285	-1.070511	0.267528
H92	H	1.158983	-0.937228	0.445488
H93	H	0.620490	-0.322083	0.219449
H94	H	1.128787	-0.605770	0.415336
H95	H	0.493384	-0.317574	0.221511
