data_functionalizedCrystal
_audit_creation_method	'MofGen! by Chris Wilmer'
_symmetry_space_group_name_H-M	'P1'
_symmetry_Int_Tables_number	1
_symmetry_cell_setting	triclinic
loop_
_symmetry_equiv_pos_as_xyz
  x,y,z
_cell_length_a	15.995350
_cell_length_b	11.026607
_cell_length_c	9.482900
_cell_angle_alpha	101.363848
_cell_angle_beta	99.336743
_cell_angle_gamma	83.960804
loop_
_atom_site_label
_atom_site_type_symbol
_atom_site_fract_x
_atom_site_fract_y
_atom_site_fract_z
O1	O	0.340363	-1.629075	-0.120882
O2	O	0.300437	-1.275769	-0.120885
O3	O	0.199968	-1.462080	-0.120882
O4	O	0.440832	-1.442765	-0.120885
O5	O	0.220481	-1.424236	0.120910
O6	O	0.320950	-1.237926	0.120907
O7	O	0.360875	-1.591231	0.120910
Cu8	Cu	0.342785	-1.411123	0.142986
Cu9	Cu	0.318527	-1.455878	-0.142961
O10	O	0.461344	-1.404921	0.120907
C11	C	0.303328	-1.211637	0.000010
C12	C	0.281371	-1.076923	0.000009
C13	C	0.178909	-1.442360	0.000011
C14	C	0.085597	-1.439967	0.000003
N15	N	0.359848	-1.379654	0.344106
C16	C	-0.253446	-1.431369	0.000008
C17	C	-0.226057	-1.298767	-0.000536
C18	C	-0.128960	-1.301076	0.000009
C19	C	-0.085243	-1.435634	0.000005
C20	C	-0.104742	-1.479470	0.138078
C21	C	-0.201871	-1.476118	0.138193
C22	C	-0.225142	-1.521895	-0.136769
C23	C	-0.128356	-1.522149	-0.138594
C24	C	0.009819	-1.438051	0.000008
C25	C	-0.348507	-1.428954	0.000014
C26	C	0.482403	-1.424641	0.000011
C27	C	0.575714	-1.427036	0.000009
C28	C	0.357984	-1.655364	0.000012
C29	C	0.379940	-1.790080	0.000004
C30	C	0.341997	-1.003118	0.000007
C31	C	0.319305	-0.863884	0.000005
N32	N	0.301459	-1.487357	-0.344081
C33	C	0.323554	-1.446587	0.416306
C34	C	0.337759	-1.420413	0.583723
H35	H	-0.116689	-1.265122	-0.098967
Br36	Br	-0.055642	-1.642898	0.146639
Br37	Br	-0.054331	-1.376906	0.309344
H38	H	0.401433	-1.302967	0.406234
Br39	Br	0.407072	-1.292586	0.687256
H40	H	0.250594	-0.824003	-0.000031
Br41	Br	-0.230265	-1.636843	0.148648
H42	H	-0.260983	-1.261230	-0.099551
Br43	Br	0.494463	-0.856540	0.000030
Br44	Br	-0.285061	-1.476878	-0.311197
Br45	Br	0.253979	-1.574093	0.312768
H46	H	0.212664	-1.037037	-0.000028
Br47	Br	-0.108766	-1.469716	-0.308869
Br48	Br	-0.229775	-1.369648	0.310221
H49	H	0.259864	-1.564039	0.593796
H50	H	0.410702	-1.043008	0.000014
H51	H	-0.100491	-1.233768	0.099153
Br52	Br	-0.258537	-1.184903	0.163072
H53	H	-0.242236	-1.619870	-0.137701
H54	H	-0.098912	-1.621579	-0.146934
