data_functionalizedCrystal
_audit_creation_method	'MofGen! by Chris Wilmer'
_symmetry_space_group_name_H-M	'P1'
_symmetry_Int_Tables_number	1
_symmetry_cell_setting	triclinic
loop_
_symmetry_equiv_pos_as_xyz
  x,y,z
_cell_length_a	17.699077
_cell_length_b	9.798715
_cell_length_c	17.699083
_cell_angle_alpha	90.004036
_cell_angle_beta	83.281795
_cell_angle_gamma	90.003125
loop_
_atom_site_label
_atom_site_type_symbol
_atom_site_fract_x
_atom_site_fract_y
_atom_site_fract_z
O1	O	1.004078	0.113476	0.095688
O2	O	0.783699	0.113483	0.108145
O3	O	0.900115	0.113467	-0.008273
O4	O	0.887662	0.113491	0.212106
O5	O	0.900106	-0.113515	-0.008273
O6	O	0.783690	-0.113500	0.108145
O7	O	1.004069	-0.113507	0.095688
Zn8	Zn	0.893878	-0.149541	0.101916
Zn9	Zn	0.893890	0.149517	0.101917
O10	O	0.887654	-0.113491	0.212106
C11	C	0.755498	-0.000008	0.107700
C12	C	0.671479	-0.000005	0.106363
N13	N	0.893876	-0.353641	0.101916
C14	C	0.632007	-0.123735	0.105733
C15	C	0.553065	-0.123736	0.104465
C16	C	0.513595	-0.000007	0.103832
C17	C	0.553073	0.123732	0.104460
C18	C	0.632015	0.123732	0.105722
C19	C	0.234709	0.123734	0.099366
C20	C	0.155762	0.123724	0.098106
C21	C	0.155759	-0.123735	0.098108
C22	C	0.234701	-0.123734	0.099371
C23	C	0.274173	0.000004	0.099995
C24	C	0.359772	0.000004	0.101369
C25	C	0.427997	-0.000006	0.102464
C26	C	0.942758	-0.421425	0.052822
C27	C	0.942770	-0.578587	0.052819
C28	C	1.032271	-0.000013	0.096133
C29	C	1.116289	-0.000007	0.097470
C30	C	0.899664	-0.000024	-0.036470
C31	C	0.898326	-0.000025	-0.120488
N32	N	0.893898	0.353617	0.101911
C33	C	0.966659	-0.000029	-0.169110
C34	C	0.965397	-0.000017	-0.248054
C35	C	0.895800	-0.000010	-0.278373
C36	C	0.827461	-0.000002	-0.229744
C37	C	0.828724	-0.000005	-0.150803
C38	C	0.822366	0.000009	-0.548107
C39	C	0.821108	0.000007	-0.627055
C40	C	0.959039	-0.000003	-0.645358
C41	C	0.960302	-0.000006	-0.566417
C42	C	0.891963	0.000010	-0.517795
C43	C	0.893333	-0.000001	-0.432196
C44	C	0.894430	-0.000010	-0.363971
C45	C	0.888104	0.000003	0.240303
C46	C	0.889443	0.000013	0.324321
H47	H	0.664137	-0.224490	0.106254
H48	H	0.766721	0.000021	-0.508528
H49	H	0.520931	0.224475	0.103939
Br50	Br	0.726649	0.000014	-0.668202
H51	H	0.770794	0.000012	-0.254436
H52	H	0.773080	-0.000001	-0.111214
Br53	Br	1.012533	-0.675735	-0.017234
Br54	Br	0.824129	-0.450831	0.171965
H55	H	0.520932	-0.224489	0.103939
Br56	Br	1.061117	-0.000058	-0.127971
H57	H	0.266833	-0.224488	0.099890
H58	H	0.123613	-0.224488	0.097597
Br59	Br	1.012309	-0.324236	-0.017423
H60	H	0.266838	0.224489	0.099872
Br61	Br	0.102196	0.291654	0.097248
Br62	Br	1.058140	-0.000022	-0.314039
Br63	Br	1.051786	-0.000024	-0.711349
H64	H	0.664152	0.224486	0.106237
H65	H	0.852049	-0.588101	0.143948
Br66	Br	1.054757	-0.000013	-0.525273
