data_functionalizedCrystal
_audit_creation_method	'MofGen! by Chris Wilmer'
_symmetry_space_group_name_H-M	'P1'
_symmetry_Int_Tables_number	1
_symmetry_cell_setting	triclinic
loop_
_symmetry_equiv_pos_as_xyz
  x,y,z
_cell_length_a	14.853569
_cell_length_b	15.944493
_cell_length_c	13.930277
_cell_angle_alpha	90.001318
_cell_angle_beta	89.994756
_cell_angle_gamma	83.555304
loop_
_atom_site_label
_atom_site_type_symbol
_atom_site_fract_x
_atom_site_fract_y
_atom_site_fract_z
O1	O	1.196202	0.109674	-0.079774
O2	O	1.696202	0.609674	0.420226
O3	O	0.933723	0.122736	-0.079784
O4	O	1.433723	0.622736	0.420216
O5	O	1.072158	-0.006065	-0.079787
O6	O	1.572158	0.493935	0.420213
O7	O	1.057768	0.238475	-0.079771
O8	O	1.557768	0.738475	0.420229
O9	O	1.072138	-0.006068	0.079875
O10	O	1.572138	0.493932	0.579875
O11	O	0.933704	0.122734	0.079878
O12	O	1.433704	0.622734	0.579878
O13	O	1.196183	0.109671	0.079888
O14	O	1.696183	0.609671	0.579888
Zn15	Zn	1.064940	0.116202	0.105233
Zn16	Zn	1.564940	0.616202	0.605233
Zn17	Zn	1.064966	0.116205	-0.105129
Zn18	Zn	1.564966	0.616205	0.394871
O19	O	1.057749	0.238472	0.079890
O20	O	1.557749	0.738472	0.579890
C21	C	0.900126	0.122143	0.000045
C22	C	1.400126	0.622143	0.500045
C23	C	0.800045	0.120368	0.000041
C24	C	1.300045	0.620368	0.500041
C25	C	0.763785	0.043025	0.000033
C26	C	1.263785	0.543025	0.500033
C27	C	0.742265	0.196045	0.000053
C28	C	1.242265	0.696045	0.500053
C29	C	0.648233	0.194380	0.000054
C30	C	1.148233	0.694380	0.500054
C31	C	0.611973	0.117037	0.000046
C32	C	1.111973	0.617037	0.500046
C33	C	0.669745	0.041358	0.000036
C34	C	1.169745	0.541358	0.500036
C35	C	0.590455	0.270058	0.000073
C36	C	1.090455	0.770058	0.500073
C37	C	0.496417	0.268396	0.000075
C38	C	0.996417	0.768396	0.500075
C39	C	0.460155	0.191052	0.000060
C40	C	0.960155	0.691052	0.500060
C41	C	0.517933	0.115370	0.000050
C42	C	1.017933	0.615370	0.500050
C43	C	0.481673	0.038027	0.000041
C44	C	0.981673	0.538027	0.500041
C45	C	0.539449	-0.037656	0.000024
C46	C	1.039449	0.462344	0.500024
C47	C	0.633483	-0.035986	0.000021
C48	C	1.133483	0.464014	0.500021
C49	C	0.366121	0.189382	0.000063
C50	C	0.866121	0.689382	0.500063
C51	C	0.387633	0.036360	0.000045
C52	C	0.887633	0.536360	0.500045
C53	C	1.071560	-0.037362	0.000040
C54	C	1.571560	0.462638	0.500040
C55	C	1.069797	-0.130613	0.000028
C56	C	1.569797	0.369387	0.500028
C57	C	1.151282	-0.366281	0.000049
C58	C	1.651282	0.133719	0.500049
C59	C	1.107350	-0.416897	-0.078674
C60	C	1.607350	0.083103	0.421326
C61	C	1.066529	-0.301337	0.000039
C62	C	1.566529	0.198663	0.500039
C63	C	1.107311	-0.416876	0.078740
C64	C	1.607311	0.083124	0.578740
C65	C	1.063380	-0.466250	0.000055
C66	C	1.563380	0.033750	0.500055
C67	C	1.022620	-0.350725	-0.078748
C68	C	1.522620	0.149275	0.421252
C69	C	1.022593	-0.350700	0.078736
C70	C	1.522593	0.149300	0.578736
C71	C	0.978598	-0.401283	-0.000006
C72	C	1.478598	0.098717	0.499994
C73	C	1.068346	-0.206335	0.000030
C74	C	1.568346	0.293665	0.500030
C75	C	1.061556	-0.561250	0.000058
C76	C	1.561556	-0.061250	0.500058
C77	C	1.229780	0.110264	0.000056
C78	C	1.729780	0.610264	0.500056
C79	C	1.329861	0.112039	0.000054
C80	C	1.829861	0.612039	0.500054
C81	C	1.058346	0.269769	0.000062
C82	C	1.558346	0.769769	0.500062
C83	C	1.060110	0.363020	0.000068
C84	C	1.560110	0.863020	0.500068
N85	N	1.064930	0.116199	0.248799
N86	N	1.564930	0.616199	0.748799
N87	N	1.064984	0.116202	-0.248695
N88	N	1.564984	0.616202	0.251305
C89	C	1.003665	0.173216	0.701069
C90	C	1.503665	0.673216	1.201069
C91	C	1.126292	0.059188	0.701036
C92	C	1.626292	0.559188	1.201036
C93	C	1.126281	0.059185	0.600540
C94	C	1.626281	0.559185	1.100540
C95	C	1.064962	0.116200	0.550304
C96	C	1.564962	0.616200	1.050304
C97	C	1.003654	0.173217	0.600564
C98	C	1.503654	0.673217	1.100564
C99	C	1.187594	0.002175	0.550273
C100	C	1.687594	0.502175	1.050273
C101	C	1.187587	0.002171	0.449771
C102	C	1.687587	0.502171	0.949771
C103	C	1.126263	0.059182	0.399533
C104	C	1.626263	0.559182	0.899533
C105	C	1.064951	0.116201	0.449799
C106	C	1.564951	0.616201	0.949799
C107	C	1.003632	0.173215	0.399563
C108	C	1.503632	0.673215	0.899563
C109	C	0.942316	0.230231	0.449827
C110	C	1.442316	0.730231	0.949827
C111	C	0.942330	0.230228	0.550326
C112	C	1.442330	0.730228	1.050326
C113	C	1.126249	0.059184	0.299035
C114	C	1.626249	0.559184	0.799035
C115	C	1.003622	0.173216	0.299058
C116	C	1.503622	0.673216	0.799058
H117	H	0.810830	-0.018594	0.000015
H118	H	1.310830	0.481406	0.500015
H119	H	0.449383	0.330022	0.000087
H120	H	0.949383	0.830022	0.500087
H121	H	0.986824	-0.321781	0.145291
H122	H	1.486824	0.178219	0.645291
H123	H	0.680533	-0.097603	0.000009
H124	H	1.180533	0.402397	0.500009
H125	H	1.237513	-0.044255	0.408852
H126	H	1.737513	0.455745	0.908852
H127	H	0.953739	0.219635	0.741997
H128	H	1.453739	0.719635	1.241997
H129	H	1.176220	0.012772	0.741941
H130	H	1.676220	0.512772	1.241941
H131	H	0.771794	0.259014	0.000066
H132	H	1.271794	0.759014	0.500066
H133	H	1.237523	-0.044241	0.591179
H134	H	1.737523	0.455759	1.091179
H135	H	1.224286	-0.350571	-0.000027
H136	H	1.724286	0.149429	0.499973
H137	H	0.892393	0.276656	0.408914
H138	H	1.392393	0.776656	0.908914
H139	H	0.319084	0.251002	0.000085
H140	H	0.819084	0.751002	0.500085
H141	H	0.619985	0.333027	0.000086
H142	H	1.119985	0.833027	0.500086
H143	H	1.143150	-0.445802	-0.145226
H144	H	1.643150	0.054198	0.354774
H145	H	0.358118	-0.026623	0.000033
H146	H	0.858118	0.473377	0.500033
H147	H	1.176176	0.012767	0.258114
H148	H	1.676176	0.512767	0.758114
H149	H	0.509914	-0.100629	0.000011
H150	H	1.009914	0.399371	0.500011
H151	H	0.953685	0.219641	0.258162
H152	H	1.453685	0.719641	0.758162
H153	H	0.986856	-0.321944	-0.145374
H154	H	1.486856	0.178056	0.354626
H155	H	0.905538	-0.416831	-0.000052
H156	H	1.405538	0.083169	0.499948
H157	H	0.892409	0.276649	0.591257
H158	H	1.392409	0.776649	1.091257
H159	H	1.143113	-0.445768	0.145290
H160	H	1.643113	0.054232	0.645290
