data_functionalizedCrystal
_audit_creation_method	'MofGen! by Chris Wilmer'
_symmetry_space_group_name_H-M	'P1'
_symmetry_Int_Tables_number	1
_symmetry_cell_setting	triclinic
loop_
_symmetry_equiv_pos_as_xyz
  x,y,z
_cell_length_a	16.959455
_cell_length_b	12.645330
_cell_length_c	16.959447
_cell_angle_alpha	89.973930
_cell_angle_beta	89.985678
_cell_angle_gamma	90.014639
loop_
_atom_site_label
_atom_site_type_symbol
_atom_site_fract_x
_atom_site_fract_y
_atom_site_fract_z
Zn1	Zn	1.208397	-0.422105	-0.446932
Zn2	Zn	1.208325	-0.599396	-0.314763
Zn3	Zn	1.076225	-0.422138	-0.314770
Zn4	Zn	1.076195	-0.599317	-0.446902
O5	O	1.142286	-0.510739	-0.380842
O6	O	1.318998	-0.445642	-0.429410
O7	O	1.190784	-0.575930	-0.204153
O8	O	1.093801	-0.273786	-0.332316
O9	O	1.318945	-0.575898	-0.332306
O10	O	1.190907	-0.273762	-0.429416
O11	O	1.093731	-0.445699	-0.204158
O12	O	0.965610	-0.445622	-0.332287
O13	O	1.093750	-0.575763	-0.557517
O14	O	0.965589	-0.575795	-0.429364
O15	O	1.190878	-0.445565	-0.557539
O16	O	1.190755	-0.747733	-0.332277
O17	O	1.093680	-0.747675	-0.429358
C18	C	0.936919	-0.510704	-0.380824
C19	C	0.849063	-0.510715	-0.380835
C20	C	0.477574	-0.442903	-0.330399
C21	C	0.477600	-0.578663	-0.431329
C22	C	0.560146	-0.578648	-0.431325
C23	C	0.601410	-0.510760	-0.380855
C24	C	0.560128	-0.442888	-0.330391
C25	C	0.601434	-0.646526	-0.481782
C26	C	0.683985	-0.646515	-0.481779
C27	C	0.725251	-0.578621	-0.431313
C28	C	0.683963	-0.510745	-0.380847
C29	C	0.725227	-0.442857	-0.330378
C30	C	0.683941	-0.374975	-0.279916
C31	C	0.601393	-0.374994	-0.279925
C32	C	0.807799	-0.578602	-0.431304
C33	C	0.807781	-0.442842	-0.330370
C34	C	1.142228	-0.786169	-0.380831
C35	C	1.142276	-0.903999	-0.380852
C36	C	1.081458	-1.071570	-0.442115
C37	C	1.081147	-0.949011	-0.441918
C38	C	1.119734	-0.948594	-0.297551
C39	C	1.119363	-1.071192	-0.297922
C40	C	1.226007	-1.071094	-0.402216
C41	C	1.225494	-0.948487	-0.404038
C42	C	1.348454	-0.510775	-0.380860
C43	C	1.436310	-0.510790	-0.380868
C44	C	1.142319	-0.510651	-0.587010
C45	C	1.142333	-0.510614	-0.674867
C46	C	1.142365	-0.234234	-0.380870
C47	C	1.142399	-0.116404	-0.380882
C48	C	1.091857	-0.578290	-1.046333
C49	C	1.192997	-0.442715	-1.046352
C50	C	1.192976	-0.442737	-0.963806
C51	C	1.142395	-0.510538	-0.922520
C52	C	1.091836	-0.578317	-0.963780
C53	C	1.243540	-0.374967	-0.922539
C54	C	1.243522	-0.374988	-0.839988
C55	C	1.192937	-0.442784	-0.798701
C56	C	1.142375	-0.510565	-0.839966
C57	C	1.091794	-0.578366	-0.798680
C58	C	1.041227	-0.646142	-0.839944
C59	C	1.041251	-0.646113	-0.922492
C60	C	1.192913	-0.442813	-0.716153
C61	C	1.091773	-0.578393	-0.716127
C62	C	1.142298	-0.510750	-0.175475
C63	C	1.142437	-0.510489	-0.087619
H64	H	0.567831	-0.701804	-0.522866
O65	O	0.433037	-0.369705	-0.275973
H66	H	0.448884	-0.286520	-0.289631
H67	H	0.443998	-0.633940	-0.472414
O68	O	0.728514	-0.719713	-0.536211
H69	H	0.685952	-0.766914	-0.571311
H70	H	1.059254	-0.917979	-0.279151
H71	H	0.841410	-0.633874	-0.472387
H72	H	1.000085	-0.701296	-0.956097
O73	O	1.099765	-0.909054	-0.523747
H74	H	1.109076	-0.977297	-0.563817
O75	O	1.288794	-0.907898	-0.349249
H76	H	1.333290	-0.863071	-0.383727
H77	H	1.161824	-1.100854	-0.250744
H78	H	1.095430	-1.100982	-0.504085
O79	O	1.176657	-0.909979	-0.235457
H80	H	1.221723	-0.858465	-0.263377
H81	H	1.234086	-0.387634	-0.682559
H82	H	1.246571	-1.101937	-0.461927
H83	H	1.242493	-0.919336	-0.465343
H84	H	1.019862	-1.102467	-0.428161
H85	H	1.019163	-0.919772	-0.427784
O86	O	1.038409	-1.109209	-0.273985
H87	H	0.994025	-1.078882	-0.316429
O88	O	0.852287	-0.369632	-0.275926
H89	H	0.809709	-0.322447	-0.240834
O90	O	1.286194	-1.109732	-0.343275
H91	H	1.256750	-1.160929	-0.298981
H92	H	0.717549	-0.319706	-0.238821
O93	O	1.298059	-0.301889	-0.795488
H94	H	1.262689	-0.247962	-0.757885
O95	O	1.037200	-0.651498	-0.671597
H96	H	1.002042	-0.698613	-0.714160
O97	O	0.986664	-0.719263	-0.795416
H98	H	1.022012	-0.773217	-0.757794
O99	O	1.037315	-0.651386	-1.090830
H100	H	1.045823	-0.639982	-1.155168
H101	H	1.284725	-0.319774	-0.956160
O102	O	0.556852	-0.301823	-0.225483
H103	H	0.519239	-0.247961	-0.260917
O104	O	1.247528	-0.369558	-1.090875
H105	H	1.239038	-0.380912	-1.155209
