data_functionalizedCrystal
_audit_creation_method	'MofGen! by Chris Wilmer'
_symmetry_space_group_name_H-M	'P1'
_symmetry_Int_Tables_number	1
_symmetry_cell_setting	triclinic
loop_
_symmetry_equiv_pos_as_xyz
  x,y,z
_cell_length_a	12.759401
_cell_length_b	12.759394
_cell_length_c	12.759393
_cell_angle_alpha	89.970474
_cell_angle_beta	89.980198
_cell_angle_gamma	90.012941
loop_
_atom_site_label
_atom_site_type_symbol
_atom_site_fract_x
_atom_site_fract_y
_atom_site_fract_z
Zn1	Zn	1.606273	-0.418241	-0.593995
Zn2	Zn	2.106273	0.081759	-0.093995
Zn3	Zn	1.606166	-0.593957	-0.418318
Zn4	Zn	2.106166	-0.093957	0.081682
Zn5	Zn	1.430571	-0.418290	-0.418334
Zn6	Zn	1.930571	0.081710	0.081666
Zn7	Zn	1.430566	-0.593876	-0.593959
Zn8	Zn	1.930566	-0.093876	-0.093959
O9	O	1.518394	-0.506091	-0.506152
O10	O	2.018394	-0.006091	-0.006152
O11	O	1.753279	-0.441564	-0.570700
O12	O	2.253279	0.058436	-0.070700
O13	O	1.582831	-0.570708	-0.271299
O14	O	2.082831	-0.070708	0.228701
O15	O	1.453925	-0.271262	-0.441657
O16	O	1.953925	0.228738	0.058343
O17	O	1.753201	-0.570661	-0.441631
O18	O	2.253201	-0.070661	0.058369
O19	O	1.583012	-0.271227	-0.570715
O20	O	2.083012	0.228773	-0.070715
O21	O	1.453822	-0.441646	-0.271311
O22	O	1.953822	0.058354	0.228689
O23	O	1.283549	-0.441568	-0.441622
O24	O	1.783549	0.058432	0.058378
O25	O	1.453916	-0.570524	-0.740985
O26	O	1.953916	-0.070524	-0.240985
O27	O	1.283545	-0.570571	-0.570653
O28	O	1.783545	-0.070571	-0.070653
O29	O	1.583007	-0.441486	-0.741012
O30	O	2.083007	0.058514	-0.241012
O31	O	1.582826	-0.740967	-0.441596
O32	O	2.082826	-0.240967	0.058404
O33	O	1.453813	-0.740908	-0.570638
O34	O	1.953813	-0.240908	-0.070638
C35	C	1.245427	-0.506067	-0.506136
C36	C	1.745427	-0.006067	-0.006136
C37	C	1.128650	-0.506081	-0.506155
C38	C	1.628650	-0.006081	-0.006155
C39	C	0.964092	-0.439006	-0.573472
C40	C	1.464092	0.060994	-0.073472
C41	C	1.073816	-0.438985	-0.573465
C42	C	1.573816	0.061015	-0.073465
C43	C	1.073754	-0.573210	-0.438854
C44	C	1.573754	-0.073210	0.061146
C45	C	0.964032	-0.573235	-0.438868
C46	C	1.464032	-0.073235	0.061132
C47	C	1.518336	-0.779059	-0.506134
C48	C	2.018336	-0.279059	-0.006134
C49	C	1.518407	-0.895835	-0.506162
C50	C	2.018407	-0.395835	-0.006162
C51	C	1.652724	-0.895640	-0.640651
C52	C	2.152724	-0.395640	-0.140651
C53	C	1.719916	-0.950403	-0.707903
C54	C	2.219916	-0.450403	-0.207903
C55	C	1.719979	-1.060125	-0.707925
C56	C	2.219979	-0.560125	-0.207925
C57	C	1.652840	-1.115086	-0.640691
C58	C	2.152840	-0.615086	-0.140691
C59	C	1.585648	-1.060322	-0.573439
C60	C	2.085648	-0.560322	-0.073439
C61	C	1.585595	-0.950598	-0.573421
C62	C	2.085595	-0.450598	-0.073421
C63	C	1.451326	-1.060518	-0.438957
C64	C	1.951326	-0.560518	0.061043
C65	C	1.451268	-0.950796	-0.438928
C66	C	1.951268	-0.450796	0.061072
C67	C	1.384187	-1.115479	-0.371723
C68	C	1.884187	-0.615479	0.128277
C69	C	1.316999	-1.060715	-0.304464
C70	C	1.816999	-0.560715	0.195536
C71	C	1.316940	-0.950987	-0.304443
C72	C	1.816940	-0.450987	0.195557
C73	C	1.384076	-0.896033	-0.371675
C74	C	1.884076	-0.396033	0.128325
C75	C	1.792427	-0.506116	-0.506168
C76	C	2.292427	-0.006116	-0.006168
C77	C	1.909204	-0.506127	-0.506175
C78	C	2.409204	-0.006127	-0.006175
C79	C	1.518473	-0.505990	-0.780185
C80	C	2.018473	-0.005990	-0.280185
C81	C	1.518506	-0.505947	-0.896962
C82	C	2.018506	-0.005947	-0.396962
C83	C	1.518481	-0.232058	-0.506192
C84	C	2.018481	0.267942	-0.006192
C85	C	1.518518	-0.115281	-0.506209
C86	C	2.018518	0.384719	-0.006209
C87	C	1.585729	-0.438746	-0.951839
C88	C	2.085729	0.061254	-0.451839
C89	C	1.585746	-0.438701	-1.061564
C90	C	2.085746	0.061299	-0.561564
C91	C	1.451316	-0.573067	-1.061523
C92	C	1.951316	-0.073067	-0.561523
C93	C	1.451294	-0.573106	-0.951801
C94	C	1.951294	-0.073106	-0.451801
C95	C	1.518376	-0.506116	-0.233184
C96	C	2.018376	-0.006116	0.266816
C97	C	1.518546	-0.505863	-0.116408
C98	C	2.018546	-0.005863	0.383592
H99	H	1.118501	-0.384330	-0.628266
H100	H	1.618501	0.115670	-0.128266
H101	H	0.919341	-0.627899	-0.384065
H102	H	1.419341	-0.127899	0.115935
F103	F	1.245419	-0.892712	-0.232867
F104	F	1.745419	-0.392712	0.267133
H105	H	1.774681	-1.104713	-0.762699
H106	H	2.274681	-0.604713	-0.262699
H107	H	0.919454	-0.384362	-0.628277
H108	H	1.419454	0.115638	-0.128277
H109	H	1.396596	-0.627747	-1.106186
H110	H	1.896596	-0.127747	-0.606186
F111	F	1.652654	-0.778864	-0.640642
F112	F	2.152654	-0.278864	-0.140642
H113	H	1.118408	-0.627845	-0.384053
H114	H	1.618408	-0.127845	0.115947
F115	F	1.791359	-0.891903	-0.779463
F116	F	2.291359	-0.391903	-0.279463
H117	H	1.652888	-1.204427	-0.640724
H118	H	2.152888	-0.704427	-0.140724
F119	F	1.384367	-1.232254	-0.371637
F120	F	1.884367	-0.732254	0.128363
F121	F	1.657259	-0.367268	-0.893479
F122	F	2.157259	0.132732	-0.393479
H123	H	1.640484	-0.383978	-1.106240
H124	H	2.140484	0.116022	-0.606240
H125	H	1.396545	-0.627828	-0.907118
H126	H	1.896545	-0.127828	-0.407118
F127	F	1.384007	-0.779257	-0.371671
F128	F	1.884007	-0.279257	0.128329
H129	H	1.262335	-1.105473	-0.249732
H130	H	1.762335	-0.605473	0.250268
