data_functionalizedCrystal
_audit_creation_method	'MofGen! by Chris Wilmer'
_symmetry_space_group_name_H-M	'P1'
_symmetry_Int_Tables_number	1
_symmetry_cell_setting	triclinic
loop_
_symmetry_equiv_pos_as_xyz
  x,y,z
_cell_length_a	25.639242
_cell_length_b	19.121063
_cell_length_c	19.120904
_cell_angle_alpha	85.258387
_cell_angle_beta	92.414207
_cell_angle_gamma	87.535104
loop_
_atom_site_label
_atom_site_type_symbol
_atom_site_fract_x
_atom_site_fract_y
_atom_site_fract_z
Zn1	Zn	0.776825	0.297199	-0.409934
Zn2	Zn	1.026825	0.547199	-0.159934
Zn3	Zn	1.276825	0.797199	0.090066
Zn4	Zn	1.526825	1.047199	0.340066
Zn5	Zn	0.776760	0.409846	-0.297285
Zn6	Zn	1.026760	0.659846	-0.047285
Zn7	Zn	1.276760	0.909846	0.202715
Zn8	Zn	1.526760	1.159846	0.452715
Zn9	Zn	0.693292	0.292190	-0.292269
Zn10	Zn	0.943292	0.542190	-0.042269
Zn11	Zn	1.193292	0.792190	0.207731
Zn12	Zn	1.443292	1.042190	0.457731
Zn13	Zn	0.685471	0.414816	-0.414886
Zn14	Zn	0.935471	0.664816	-0.164886
Zn15	Zn	1.185471	0.914816	0.085114
Zn16	Zn	1.435471	1.164816	0.335114
O17	O	0.733087	0.353513	-0.353593
O18	O	0.983087	0.603513	-0.103593
O19	O	1.233087	0.853513	0.146407
O20	O	1.483087	1.103513	0.396407
O21	O	0.849980	0.312158	-0.395017
O22	O	1.099980	0.562158	-0.145017
O23	O	1.349980	0.812158	0.104983
O24	O	1.599980	1.062158	0.354983
O25	O	0.768934	0.390063	-0.198160
O26	O	1.018934	0.640063	0.051840
O27	O	1.268934	0.890063	0.301840
O28	O	1.518934	1.140063	0.551840
O29	O	0.707673	0.194392	-0.303706
O30	O	0.957673	0.444392	-0.053706
O31	O	1.207673	0.694392	0.196294
O32	O	1.457673	0.944392	0.446294
O33	O	0.849933	0.394919	-0.312254
O34	O	1.099933	0.644919	-0.062254
O35	O	1.349933	0.894919	0.187746
O36	O	1.599933	1.144919	0.437746
O37	O	0.769045	0.198072	-0.390154
O38	O	1.019045	0.448072	-0.140154
O39	O	1.269045	0.698072	0.109846
O40	O	1.519045	0.948072	0.359846
O41	O	0.707611	0.303622	-0.194475
O42	O	0.957611	0.553622	0.055525
O43	O	1.207611	0.803622	0.305525
O44	O	1.457611	1.053622	0.555525
O45	O	0.619091	0.308441	-0.308508
O46	O	0.869091	0.558441	-0.058508
O47	O	1.119091	0.808441	0.191492
O48	O	1.369091	1.058441	0.441492
O49	O	0.694343	0.403390	-0.512689
O50	O	0.944343	0.653390	-0.262689
O51	O	1.194343	0.903390	-0.012689
O52	O	1.444343	1.153390	0.237311
O53	O	0.613344	0.398533	-0.398594
O54	O	0.863344	0.648533	-0.148594
O55	O	1.113344	0.898533	0.101406
O56	O	1.363344	1.148533	0.351406
O57	O	0.761460	0.316977	-0.509050
O58	O	1.011460	0.566977	-0.259050
O59	O	1.261460	0.816977	-0.009050
O60	O	1.511460	1.066977	0.240950
O61	O	0.761350	0.508968	-0.317056
O62	O	1.011350	0.758968	-0.067056
O63	O	1.261350	1.008968	0.182944
O64	O	1.511350	1.258968	0.432944
O65	O	0.694280	0.512619	-0.403457
O66	O	0.944280	0.762619	-0.153457
O67	O	1.194280	1.012619	0.096543
O68	O	1.444280	1.262619	0.346543
C69	C	0.726973	0.536324	-0.361354
C70	C	0.976973	0.786324	-0.111354
C71	C	1.226973	1.036324	0.138646
C72	C	1.476973	1.286324	0.388646
C73	C	0.724404	0.614533	-0.364697
C74	C	0.974404	0.864533	-0.114697
C75	C	1.224404	1.114533	0.135303
C76	C	1.474404	1.364533	0.385303
C77	C	0.597247	0.353483	-0.353545
C78	C	0.847247	0.603483	-0.103545
C79	C	1.097247	0.853483	0.146455
C80	C	1.347247	1.103483	0.396455
C81	C	0.539133	0.353488	-0.353541
C82	C	0.789133	0.603488	-0.103541
C83	C	1.039133	0.853488	0.146459
C84	C	1.289133	1.103488	0.396459
C85	C	0.727036	0.361297	-0.537113
C86	C	0.977036	0.611297	-0.287113
C87	C	1.227036	0.861297	-0.037113
C88	C	1.477036	1.111297	0.212887
C89	C	0.724458	0.364613	-0.615318
C90	C	0.974458	0.614613	-0.365318
C91	C	1.224458	0.864613	-0.115318
C92	C	1.474458	1.114613	0.134682
C93	C	0.175783	0.400497	-0.400462
C94	C	0.425783	0.650497	-0.150462
C95	C	0.675783	0.900497	0.099538
C96	C	0.925783	1.150497	0.349538
C97	C	0.121178	0.400502	-0.400473
C98	C	0.371178	0.650502	-0.150473
C99	C	0.621178	0.900502	0.099527
C100	C	0.871178	1.150502	0.349527
O101	O	0.090404	0.440435	-0.440325
O102	O	0.340404	0.690435	-0.190325
O103	O	0.590404	0.940435	0.059675
O104	O	0.840404	1.190435	0.309675
N105	N	0.096846	0.353534	-0.353640
N106	N	0.346846	0.603534	-0.103640
N107	N	0.596846	0.853534	0.146360
N108	N	0.846846	1.103534	0.396360
C109	C	0.127121	0.306554	-0.306798
C110	C	0.377121	0.556554	-0.056798
C111	C	0.627121	0.806554	0.193202
C112	C	0.877121	1.056554	0.443202
O113	O	0.101411	0.266604	-0.266964
O114	O	0.351411	0.516604	-0.016964
O115	O	0.601411	0.766604	0.233036
O116	O	0.851411	1.016604	0.483036
C117	C	0.181725	0.306546	-0.306790
C118	C	0.431725	0.556546	-0.056790
C119	C	0.681725	0.806546	0.193210
C120	C	0.931725	1.056546	0.443210
C121	C	0.206054	0.353522	-0.353622
C122	C	0.456054	0.603522	-0.103622
C123	C	0.706054	0.853522	0.146378
C124	C	0.956054	1.103522	0.396378
C125	C	0.200113	0.447469	-0.447290
C126	C	0.450113	0.697469	-0.197290
C127	C	0.700113	0.947469	0.052710
C128	C	0.950113	1.197469	0.302710
C129	C	0.254714	0.447465	-0.447277
C130	C	0.504714	0.697465	-0.197277
C131	C	0.754714	0.947465	0.052723
C132	C	1.004714	1.197465	0.302723
C133	C	0.284985	0.400489	-0.400437
C134	C	0.534985	0.650489	-0.150437
C135	C	0.784985	0.900489	0.099563
C136	C	1.034985	1.150489	0.349563
C137	C	0.260655	0.353518	-0.353609
C138	C	0.510655	0.603518	-0.103609
C139	C	0.760655	0.853518	0.146391
C140	C	1.010655	1.103518	0.396391
C141	C	0.211999	0.259562	-0.259952
C142	C	0.461999	0.509562	-0.009952
C143	C	0.711999	0.759562	0.240048
C144	C	0.961999	1.009562	0.490048
C145	C	0.266607	0.259558	-0.259949
C146	C	0.516607	0.509558	-0.009949
C147	C	0.766607	0.759558	0.240051
C148	C	1.016607	1.009558	0.490051
C149	C	0.290936	0.306534	-0.306780
C150	C	0.540936	0.556534	-0.056780
C151	C	0.790936	0.806534	0.193220
C152	C	1.040936	1.056534	0.443220
C153	C	0.345528	0.306538	-0.306757
C154	C	0.595528	0.556538	-0.056757
C155	C	0.845528	0.806538	0.193243
C156	C	1.095528	1.056538	0.443243
N157	N	0.369860	0.353506	-0.353589
N158	N	0.619860	0.603506	-0.103589
N159	N	0.869860	0.853506	0.146411
N160	N	1.119860	1.103506	0.396411
C161	C	0.339589	0.400482	-0.400430
C162	C	0.589589	0.650482	-0.150430
C163	C	0.839589	0.900482	0.099570
C164	C	1.089589	1.150482	0.349570
C165	C	0.012449	0.306572	-0.306818
C166	C	0.262449	0.556572	-0.056818
C167	C	0.512449	0.806572	0.193182
C168	C	0.762449	1.056572	0.443182
C169	C	-0.042153	0.306583	-0.306821
C170	C	0.207847	0.556583	-0.056821
C171	C	0.457847	0.806583	0.193179
C172	C	0.707847	1.056583	0.443179
C173	C	-0.048093	0.400531	-0.400497
C174	C	0.201907	0.650531	-0.150497
C175	C	0.451907	0.900531	0.099503
C176	C	0.701907	1.150531	0.349503
C177	C	0.006511	0.400523	-0.400490
C178	C	0.256511	0.650523	-0.150490
C179	C	0.506511	0.900523	0.099510
C180	C	0.756511	1.150523	0.349510
C181	C	0.036782	0.353540	-0.353650
C182	C	0.286782	0.603540	-0.103650
C183	C	0.536782	0.853540	0.146350
C184	C	0.786782	1.103540	0.396350
C185	C	0.454255	0.400470	-0.400400
C186	C	0.704255	0.650470	-0.150400
C187	C	0.954255	0.900470	0.099600
C188	C	1.204255	1.150470	0.349600
C189	C	0.508861	0.400464	-0.400381
C190	C	0.758861	0.650464	-0.150381
C191	C	1.008861	0.900464	0.099619
C192	C	1.258861	1.150464	0.349619
C193	C	0.514796	0.306513	-0.306708
C194	C	0.764796	0.556513	-0.056708
C195	C	1.014796	0.806513	0.193292
C196	C	1.264796	1.056513	0.443292
C197	C	0.460195	0.306522	-0.306723
C198	C	0.710195	0.556522	-0.056723
C199	C	0.960195	0.806522	0.193277
C200	C	1.210195	1.056522	0.443277
C201	C	0.429925	0.353503	-0.353575
C202	C	0.679925	0.603503	-0.103575
C203	C	0.929925	0.853503	0.146425
C204	C	1.179925	1.103503	0.396425
O205	O	0.376335	0.266624	-0.266927
O206	O	0.626335	0.516624	-0.016927
O207	O	0.876335	0.766624	0.233073
O208	O	1.126335	1.016624	0.483073
O209	O	0.365307	0.440418	-0.440263
O210	O	0.615307	0.690418	-0.190263
O211	O	0.865307	0.940418	0.059737
O212	O	1.115307	1.190418	0.309737
C213	C	0.869457	0.353543	-0.353643
C214	C	1.119457	0.603543	-0.103643
C215	C	1.369457	0.853543	0.146357
C216	C	1.619457	1.103543	0.396357
C217	C	0.927570	0.353556	-0.353664
C218	C	1.177570	0.603556	-0.103664
C219	C	1.427570	0.853556	0.146336
C220	C	1.677570	1.103556	0.396336
C221	C	0.739239	0.169988	-0.345818
C222	C	0.989239	0.419988	-0.095818
C223	C	1.239239	0.669988	0.154182
C224	C	1.489239	0.919988	0.404182
C225	C	0.741860	0.091781	-0.342505
C226	C	0.991860	0.341781	-0.092505
C227	C	1.241860	0.591781	0.157495
C228	C	1.491860	0.841781	0.407495
C229	C	0.758142	0.649352	-0.321321
C230	C	1.008142	0.899352	-0.071321
C231	C	1.258142	1.149352	0.178679
C232	C	1.508142	1.399352	0.428679
C233	C	0.755730	0.722838	-0.324469
C234	C	1.005730	0.972838	-0.074469
C235	C	1.255730	1.222838	0.175531
C236	C	1.505730	1.472838	0.425531
C237	C	0.719576	0.761502	-0.370991
C238	C	0.969576	1.011502	-0.120991
C239	C	1.219576	1.261502	0.129009
C240	C	1.469576	1.511502	0.379009
C241	C	0.685837	0.726677	-0.414372
C242	C	0.935837	0.976677	-0.164372
C243	C	1.185837	1.226677	0.085628
C244	C	1.435837	1.476677	0.335628
C245	C	0.688252	0.653193	-0.411227
C246	C	0.938252	0.903193	-0.161227
C247	C	1.188252	1.153193	0.088773
C248	C	1.438252	1.403193	0.338773
C249	C	0.710536	0.983472	-0.382741
C250	C	0.960536	1.233472	-0.132741
C251	C	1.210536	1.483472	0.117259
C252	C	1.460536	1.733472	0.367259
C253	C	0.708122	1.056961	-0.385881
C254	C	0.958122	1.306961	-0.135881
C255	C	1.208122	1.556961	0.114119
C256	C	1.458122	1.806961	0.364119
C257	C	0.778016	1.053117	-0.295979
C258	C	1.028016	1.303117	-0.045979
C259	C	1.278016	1.553117	0.204021
C260	C	1.528016	1.803117	0.454021
C261	C	0.780426	0.979631	-0.292834
C262	C	1.030426	1.229631	-0.042834
C263	C	1.280426	1.479631	0.207166
C264	C	1.530426	1.729631	0.457166
C265	C	0.746689	0.944813	-0.336218
C266	C	0.996689	1.194813	-0.086218
C267	C	1.246689	1.444813	0.163782
C268	C	1.496689	1.694813	0.413782
C269	C	0.717108	0.836616	-0.374209
C270	C	0.967108	1.086616	-0.124209
C271	C	1.217108	1.336616	0.125791
C272	C	1.467108	1.586616	0.375791
C273	C	0.749160	0.869701	-0.333003
C274	C	0.999160	1.119701	-0.083003
C275	C	1.249160	1.369701	0.166997
C276	C	1.499160	1.619701	0.416997
C277	C	0.758189	0.321183	-0.650166
C278	C	1.008189	0.571183	-0.400166
C279	C	1.258189	0.821183	-0.150166
C280	C	1.508189	1.071183	0.099834
C281	C	0.755760	0.324297	-0.723648
C282	C	1.005760	0.574297	-0.473648
C283	C	1.255760	0.824297	-0.223648
C284	C	1.505760	1.074297	0.026352
C285	C	0.719602	0.370845	-0.762280
C286	C	0.969602	0.620845	-0.512280
C287	C	1.219602	0.870845	-0.262280
C288	C	1.469602	1.120845	-0.012280
C289	C	0.685867	0.414277	-0.727427
C290	C	0.935867	0.664277	-0.477427
C291	C	1.185867	0.914277	-0.227427
C292	C	1.435867	1.164277	0.022573
C293	C	0.688294	0.411159	-0.653947
C294	C	0.938294	0.661159	-0.403947
C295	C	1.188294	0.911159	-0.153947
C296	C	1.438294	1.161159	0.096053
C297	C	0.710524	0.382507	-0.984239
C298	C	0.960524	0.632507	-0.734239
C299	C	1.210524	0.882507	-0.484239
C300	C	1.460524	1.132507	-0.234239
C301	C	0.708101	0.385623	-1.057725
C302	C	0.958101	0.635623	-0.807725
C303	C	1.208101	0.885623	-0.557725
C304	C	1.458101	1.135623	-0.307725
C305	C	0.777994	0.295642	-1.053940
C306	C	1.027994	0.545642	-0.803940
C307	C	1.277994	0.795642	-0.553940
C308	C	1.527994	1.045642	-0.303940
C309	C	0.780419	0.292531	-0.980458
C310	C	1.030419	0.542531	-0.730458
C311	C	1.280419	0.792531	-0.480458
C312	C	1.530419	1.042531	-0.230458
C313	C	0.746683	0.335961	-0.945611
C314	C	0.996683	0.585961	-0.695611
C315	C	1.246683	0.835961	-0.445611
C316	C	1.496683	1.085961	-0.195611
C317	C	0.717119	0.374031	-0.837391
C318	C	0.967119	0.624031	-0.587391
C319	C	1.217119	0.874031	-0.337391
C320	C	1.467119	1.124031	-0.087391
C321	C	0.749163	0.332771	-0.870502
C322	C	0.999163	0.582771	-0.620502
C323	C	1.249163	0.832771	-0.370502
C324	C	1.499163	1.082771	-0.120502
C325	C	0.739146	0.345709	-0.170786
C326	C	0.989146	0.595709	0.079214
C327	C	1.239146	0.845709	0.329214
C328	C	1.489146	1.095709	0.579214
C329	C	0.741832	0.342193	-0.092573
C330	C	0.991832	0.592193	0.157427
C331	C	1.241832	0.842193	0.407427
C332	C	1.491832	1.092193	0.657427
H333	H	0.528668	0.438720	-0.438517
H334	H	0.778668	0.688720	-0.188517
H335	H	1.028668	0.938720	0.061483
H336	H	1.278668	1.188720	0.311483
H337	H	0.656424	0.452175	-0.758888
H338	H	0.906424	0.702175	-0.508888
H339	H	1.156424	0.952175	-0.258888
H340	H	1.406424	1.202175	-0.008888
H341	H	0.429616	0.438724	-0.438552
H342	H	0.679616	0.688724	-0.188552
H343	H	0.929616	0.938724	0.061448
H344	H	1.179616	1.188724	0.311448
H345	H	0.660780	0.624844	-0.446549
H346	H	0.910780	0.874844	-0.196549
H347	H	1.160780	1.124844	0.053451
H348	H	1.410780	1.374844	0.303451
H349	H	0.291251	0.221295	-0.221810
H350	H	0.541251	0.471295	0.028190
H351	H	0.791251	0.721295	0.278190
H352	H	1.041251	0.971295	0.528190
H353	H	0.660821	0.446518	-0.625574
H354	H	0.910821	0.696518	-0.375574
H355	H	1.160821	0.946518	-0.125574
H356	H	1.410821	1.196518	0.124426
H357	H	0.805484	1.081474	-0.260659
H358	H	1.055484	1.331474	-0.010659
H359	H	1.305484	1.581474	0.239341
H360	H	1.555484	1.831474	0.489341
H361	H	0.809865	0.254629	-0.949008
H362	H	1.059865	0.504629	-0.699008
H363	H	1.309865	0.754629	-0.449008
H364	H	1.559865	1.004629	-0.199008
H365	H	0.037093	0.268314	-0.268670
H366	H	0.287093	0.518314	-0.018670
H367	H	0.537093	0.768314	0.231330
H368	H	0.787093	1.018314	0.481330
H369	H	0.683060	0.417881	-0.955876
H370	H	0.933060	0.667881	-0.705876
H371	H	1.183060	0.917881	-0.455876
H372	H	1.433060	1.167881	-0.205876
H373	H	-0.072750	0.438779	-0.438639
H374	H	0.177250	0.688779	-0.188639
H375	H	0.427250	0.938779	0.061361
H376	H	0.677250	1.188779	0.311361
H377	H	0.192200	0.221311	-0.221815
H378	H	0.442200	0.471311	0.028185
H379	H	0.692200	0.721311	0.278185
H380	H	0.942200	0.971311	0.528185
H381	H	0.787580	0.617876	-0.283434
H382	H	1.037580	0.867876	-0.033434
H383	H	1.287580	1.117876	0.216566
H384	H	1.537580	1.367876	0.466566
H385	H	0.787635	0.283281	-0.618716
H386	H	1.037635	0.533281	-0.368716
H387	H	1.287635	0.783281	-0.118716
H388	H	1.537635	1.033281	0.131284
H389	H	0.809865	0.948152	-0.254953
H390	H	1.059865	1.198152	-0.004953
H391	H	1.309865	1.448152	0.245047
H392	H	1.559865	1.698152	0.495047
H393	H	0.440385	0.268272	-0.268588
H394	H	0.690385	0.518272	-0.018588
H395	H	0.940385	0.768272	0.231412
H396	H	1.190385	1.018272	0.481412
H397	H	0.778601	0.294869	-0.839044
H398	H	1.028601	0.544869	-0.589044
H399	H	1.278601	0.794869	-0.339044
H400	H	1.528601	1.044869	-0.089044
H401	H	0.678688	1.088440	-0.423777
H402	H	0.928688	1.338440	-0.173777
H403	H	1.178688	1.588440	0.076223
H404	H	1.428688	1.838440	0.326223
H405	H	0.274518	0.485716	-0.485413
H406	H	0.524518	0.735716	-0.235413
H407	H	0.774518	0.985716	0.014587
H408	H	1.024518	1.235716	0.264587
H409	H	0.539453	0.268269	-0.268569
H410	H	0.789453	0.518269	-0.018569
H411	H	1.039453	0.768269	0.231431
H412	H	1.289453	1.018269	0.481431
H413	H	0.678655	0.423530	-1.089178
H414	H	0.928655	0.673530	-0.839178
H415	H	1.178655	0.923530	-0.589178
H416	H	1.428655	1.173530	-0.339178
H417	H	0.683065	0.955129	-0.418064
H418	H	0.933065	1.205129	-0.168064
H419	H	1.183065	1.455129	0.081936
H420	H	1.433065	1.705129	0.331936
H421	H	0.687682	0.411934	-0.868854
H422	H	0.937682	0.661934	-0.618854
H423	H	1.187682	0.911934	-0.368854
H424	H	1.437682	1.161934	-0.118854
H425	H	0.656402	0.758164	-0.452255
H426	H	0.906402	1.008164	-0.202255
H427	H	1.156402	1.258164	0.047745
H428	H	1.406402	1.508164	0.297745
H429	H	0.778598	0.838218	-0.295128
H430	H	1.028598	1.088218	-0.045128
H431	H	1.278598	1.338218	0.204872
H432	H	1.528598	1.588218	0.454872
H433	H	0.783229	0.288934	-0.752017
H434	H	1.033229	0.538934	-0.502017
H435	H	1.283229	0.788934	-0.252017
H436	H	1.533229	1.038934	-0.002017
H437	H	0.805460	0.260284	-1.082320
H438	H	1.055460	0.510284	-0.832320
H439	H	1.305460	0.760284	-0.582320
H440	H	1.555460	1.010284	-0.332320
H441	H	0.175471	0.485722	-0.485436
H442	H	0.425471	0.735722	-0.235436
H443	H	0.675471	0.985722	0.014564
H444	H	0.925471	1.235722	0.264564
H445	H	0.026316	0.438774	-0.438625
H446	H	0.276316	0.688774	-0.188625
H447	H	0.526316	0.938774	0.061375
H448	H	0.776316	1.188774	0.311375
H449	H	0.687671	0.868104	-0.412086
H450	H	0.937671	1.118104	-0.162086
H451	H	1.187671	1.368104	0.087914
H452	H	1.437671	1.618104	0.337914
H453	H	0.783202	0.751185	-0.289147
H454	H	1.033202	1.001185	-0.039147
H455	H	1.283202	1.251185	0.210853
H456	H	1.533202	1.501185	0.460853
H457	H	-0.061958	0.268337	-0.268680
H458	H	0.188042	0.518337	-0.018680
H459	H	0.438042	0.768337	0.231320
H460	H	0.688042	1.018337	0.481320
