data_functionalizedCrystal
_audit_creation_method	'MofGen! by Chris Wilmer'
_symmetry_space_group_name_H-M	'P1'
_symmetry_Int_Tables_number	1
_symmetry_cell_setting	triclinic
loop_
_symmetry_equiv_pos_as_xyz
  x,y,z
_cell_length_a	19.121321
_cell_length_b	19.120904
_cell_length_c	12.594516
_cell_angle_alpha	87.581008
_cell_angle_beta	92.419628
_cell_angle_gamma	94.963752
loop_
_atom_site_label
_atom_site_type_symbol
_atom_site_fract_x
_atom_site_fract_y
_atom_site_fract_z
Zn1	Zn	1.058701	-0.351951	0.514852
Zn2	Zn	1.063655	-0.234303	0.685560
Zn3	Zn	0.946063	-0.239324	0.500331
Zn4	Zn	0.941026	-0.356947	0.685517
O5	O	1.002361	-0.295631	0.596565
O6	O	1.157817	-0.332152	0.543592
O7	O	1.052238	-0.136508	0.654930
O8	O	0.961040	-0.254275	0.353314
O9	O	1.161458	-0.245717	0.669011
O10	O	1.043794	-0.337021	0.363983
O11	O	0.965844	-0.140197	0.518842
O12	O	0.846935	-0.259120	0.518801
O13	O	0.952454	-0.454746	0.668937
O14	O	0.843235	-0.345536	0.654856
O15	O	1.038909	-0.451075	0.543551
O16	O	1.047354	-0.250562	0.834497
O17	O	0.957258	-0.340668	0.834466
C18	C	0.819556	-0.303415	0.585249
C19	C	0.741350	-0.306762	0.580434
C20	C	0.298937	-0.327984	0.549852
C21	C	0.372420	-0.324836	0.554396
C22	C	0.411050	-0.278186	0.621849
C23	C	0.376194	-0.234688	0.684772
C24	C	0.302713	-0.237840	0.680233
C25	C	0.633012	-0.266416	0.638818
C26	C	0.706499	-0.263265	0.643350
C27	C	0.702719	-0.353415	0.512974
C28	C	0.629236	-0.356560	0.508437
C29	C	0.594386	-0.313064	0.571364
C30	C	0.486162	-0.274965	0.626492
C31	C	0.519276	-0.316289	0.566726
C32	C	0.994567	-0.479154	0.607859
C33	C	0.991246	-0.557360	0.612672
C34	C	1.034695	-0.592192	0.549654
C35	C	1.031566	-0.665676	0.554171
C36	C	0.984990	-0.704326	0.621713
C37	C	0.941535	-0.669490	0.684734
C38	C	0.944662	-0.596007	0.680210
C39	C	0.973295	-0.926290	0.638633
C40	C	0.970174	-0.999777	0.643155
C41	C	1.060204	-0.995959	0.512590
C42	C	1.063329	-0.922475	0.508077
C43	C	1.019872	-0.887645	0.571093
C44	C	0.981792	-0.779438	0.626335
C45	C	1.023067	-0.812534	0.566465
C46	C	1.185881	-0.287817	0.607926
C47	C	1.264086	-0.284488	0.612768
C48	C	1.002315	-0.295626	0.873103
C49	C	1.002359	-0.295645	0.991412
C50	C	1.010166	-0.112821	0.585241
C51	C	1.013623	-0.034609	0.580137
C52	C	1.002426	-0.295651	0.318950
C53	C	1.002453	-0.295659	0.200646
C54	C	0.953353	-0.344621	1.060684
C55	C	0.938953	-0.281148	1.126508
C56	C	1.016823	-0.359126	1.136392
C57	C	0.987927	-0.232140	1.055673
C58	C	1.065824	-0.310160	1.065556
C59	C	1.051451	-0.246642	1.131346
H60	H	0.731102	-0.388827	0.461744
H61	H	1.029019	-0.412805	1.171681
H62	H	0.604646	-0.230997	0.690055
H63	H	0.911842	-0.385983	1.029650
N64	N	0.408033	-0.369262	0.490141
N65	N	0.447142	-0.412296	0.532989
H66	H	0.472297	-0.443674	0.487609
N67	N	1.133076	-0.325575	1.031700
N68	N	1.168161	-0.281894	0.974347
H69	H	1.215657	-0.292788	0.950430
H70	H	0.885326	-0.268884	1.153471
N71	N	0.259490	-0.375643	0.480947
N72	N	0.290620	-0.414480	0.424787
H73	H	0.262763	-0.448145	0.376125
N74	N	0.972540	-0.164790	1.011551
N75	N	0.969986	-0.153924	0.912954
H76	H	0.959112	-0.106362	0.881788
H77	H	0.597788	-0.394549	0.453513
H78	H	1.066949	-0.694032	0.502858
N79	N	1.110916	-0.883007	0.439088
N80	N	1.149711	-0.914116	0.382831
H81	H	1.183323	-0.886242	0.334111
N82	N	1.103494	-0.194647	1.170052
N83	N	1.152671	-0.212448	1.231042
H84	H	1.189425	-0.175726	1.258383
N85	N	0.922568	-1.039250	0.712121
N86	N	0.883755	-1.008145	0.768355
H87	H	0.850127	-1.036022	0.817047
N88	N	1.104583	-1.031527	0.448198
N89	N	1.146161	-0.997009	0.387890
H90	H	1.177504	-1.022128	0.342405
N91	N	1.082262	-0.552716	0.480643
N92	N	1.059263	-0.512773	0.408761
H93	H	1.092856	-0.484894	0.360015
H94	H	0.487820	-0.354273	0.511809
H95	H	0.517623	-0.236981	0.681409
H96	H	0.737950	-0.225277	0.698282
N97	N	0.415663	-0.187046	0.753679
N98	N	0.481270	-0.184237	0.757723
H99	H	0.509145	-0.150589	0.806389
N100	N	0.928902	-0.890730	0.703008
N101	N	0.887322	-0.925250	0.763310
H102	H	0.855968	-0.900133	0.808779
H103	H	0.274338	-0.202422	0.731468
N104	N	0.893957	-0.708979	0.753712
N105	N	0.891171	-0.774587	0.757744
H106	H	0.857568	-0.802476	0.806462
H107	H	0.909273	-0.567649	0.731515
H108	H	1.060986	-0.781062	0.511468
N109	N	0.934209	-0.818930	0.695304
N110	N	0.887646	-0.861841	0.657578
H111	H	0.854039	-0.889738	0.706279
