data_functionalizedCrystal
_audit_creation_method	'MofGen! by Chris Wilmer'
_symmetry_space_group_name_H-M	'P1'
_symmetry_Int_Tables_number	1
_symmetry_cell_setting	triclinic
loop_
_symmetry_equiv_pos_as_xyz
  x,y,z
_cell_length_a	18.101398
_cell_length_b	18.101395
_cell_length_c	18.101389
_cell_angle_alpha	90.016841
_cell_angle_beta	90.024327
_cell_angle_gamma	90.026371
loop_
_atom_site_label
_atom_site_type_symbol
_atom_site_fract_x
_atom_site_fract_y
_atom_site_fract_z
Zn1	Zn	1.132121	-0.295001	0.418847
Zn2	Zn	1.632121	0.204999	0.918847
Zn3	Zn	1.132017	-0.418826	0.295009
Zn4	Zn	1.632017	0.081174	0.795009
Zn5	Zn	1.008280	-0.294993	0.295008
Zn6	Zn	1.508280	0.205007	0.795008
Zn7	Zn	1.008231	-0.418795	0.418797
Zn8	Zn	1.508231	0.081205	0.918797
O9	O	1.070162	-0.356904	0.356915
O10	O	1.570162	0.143096	0.856915
O11	O	1.235740	-0.311443	0.402440
O12	O	1.735740	0.188557	0.902440
O13	O	1.115580	-0.402410	0.191376
O14	O	1.615580	0.097590	0.691376
O15	O	1.024772	-0.191361	0.311456
O16	O	1.524772	0.308639	0.811456
O17	O	1.235664	-0.402417	0.311457
O18	O	1.735664	0.097583	0.811457
O19	O	1.115757	-0.191367	0.402440
O20	O	1.615757	0.308633	0.902440
O21	O	1.024671	-0.311430	0.191375
O22	O	1.524671	0.188570	0.691375
O23	O	0.904641	-0.311399	0.311408
O24	O	1.404641	0.188601	0.811408
O25	O	1.024688	-0.402363	0.522437
O26	O	1.524688	0.097637	1.022437
O27	O	0.904604	-0.402356	0.402355
O28	O	1.404604	0.097644	0.902355
O29	O	1.115710	-0.311412	0.522473
O30	O	1.615710	0.188588	1.022473
O31	O	1.115532	-0.522455	0.311409
O32	O	1.615532	-0.022455	0.811409
O33	O	1.024587	-0.522432	0.402356
O34	O	1.524587	-0.022432	0.902356
C35	C	0.877752	-0.356874	0.356877
C36	C	1.377752	0.143126	0.856877
C37	C	0.795437	-0.356879	0.356878
C38	C	1.295437	0.143121	0.856878
C39	C	0.496347	-0.356925	0.356940
C40	C	0.996347	0.143075	0.856940
C41	C	0.527670	-0.299412	0.299997
C42	C	1.027670	0.200588	0.799997
C43	C	0.613288	-0.299566	0.299754
C44	C	1.113288	0.200434	0.799754
C45	C	0.644729	-0.356901	0.356909
C46	C	1.144729	0.143099	0.856909
C47	C	0.613611	-0.434909	0.335587
C48	C	1.113611	0.065091	0.835587
C49	C	0.527966	-0.434590	0.335191
C50	C	1.027966	0.065410	0.835191
C51	C	0.527961	-0.337109	0.435339
C52	C	1.027961	0.162891	0.935339
C53	C	0.613612	-0.335371	0.434911
C54	C	1.113612	0.164629	0.934911
C55	C	0.728589	-0.356893	0.356893
C56	C	1.228589	0.143107	0.856893
C57	C	0.412487	-0.356939	0.356954
C58	C	0.912487	0.143061	0.856954
C59	C	1.070063	-0.549314	0.356893
C60	C	1.570063	-0.049314	0.856893
C61	C	1.070088	-0.631628	0.356909
C62	C	1.570088	-0.131628	0.856909
C63	C	1.070251	-0.930719	0.356949
C64	C	1.570251	-0.430719	0.856949
C65	C	1.013163	-0.899410	0.414312
C66	C	1.513163	-0.399410	0.914312
C67	C	1.012892	-0.813792	0.414133
C68	C	1.512892	-0.313792	0.914133
C69	C	1.070170	-0.782337	0.356930
C70	C	1.570170	-0.282337	0.856930
C71	C	1.049041	-0.813472	0.278878
C72	C	1.549041	-0.313472	0.778878
C73	C	1.048673	-0.899117	0.279221
C74	C	1.548673	-0.399117	0.779221
C75	C	1.148593	-0.899073	0.376950
C76	C	1.648593	-0.399073	0.876950
C77	C	1.148132	-0.813422	0.378661
C78	C	1.648132	-0.313422	0.878661
C79	C	1.070126	-0.698477	0.356914
C80	C	1.570126	-0.198477	0.856914
C81	C	1.070293	-1.014579	0.356959
C82	C	1.570293	-0.514579	0.856959
C83	C	1.263324	-0.356934	0.356954
C84	C	1.763324	0.143066	0.856954
C85	C	1.345638	-0.356948	0.356971
C86	C	1.845638	0.143052	0.856971
C87	C	1.070205	-0.356885	0.550077
C88	C	1.570205	0.143115	1.050077
C89	C	1.070223	-0.356877	0.632391
C90	C	1.570223	0.143123	1.132391
C91	C	1.070282	-0.163742	0.356953
C92	C	1.570282	0.336258	0.856953
C93	C	1.070333	-0.081428	0.356970
C94	C	1.570333	0.418572	0.856970
C95	C	1.070162	-0.356869	0.164505
C96	C	1.570162	0.143131	0.664505
C97	C	1.070287	-0.356668	0.082191
C98	C	1.570287	0.143332	0.582191
C99	C	1.070266	-0.356738	0.931482
C100	C	1.570266	0.143262	1.431482
C101	C	1.012801	-0.413780	0.900134
C102	C	1.512801	0.086220	1.400134
C103	C	1.012956	-0.414045	0.814516
C104	C	1.512956	0.085955	1.314516
C105	C	1.070244	-0.356807	0.783100
C106	C	1.570244	0.143193	1.283100
C107	C	1.148270	-0.377998	0.814206
C108	C	1.648270	0.122002	1.314206
C109	C	1.147949	-0.378372	0.899851
C110	C	1.647949	0.121628	1.399851
C111	C	1.050385	-0.278379	0.899905
C112	C	1.550385	0.221621	1.399905
C113	C	1.048649	-0.278832	0.814254
C114	C	1.548649	0.221168	1.314254
C115	C	1.070237	-0.356845	0.699240
C116	C	1.570237	0.143155	1.199240
C117	C	1.070279	-0.356702	1.015342
C118	C	1.570279	0.143298	1.515342
H119	H	0.507099	-0.241388	0.313215
H120	H	1.007099	0.258612	0.813215
C121	C	0.974862	-0.252297	0.929063
C122	C	1.474862	0.247703	1.429063
H123	H	0.954746	-0.288958	0.960771
H124	H	1.454746	0.211042	1.460771
H125	H	0.980940	-0.207501	0.955737
H126	H	1.480940	0.292499	1.455737
H127	H	0.942299	-0.244357	0.888669
H128	H	1.442299	0.255643	1.388669
H129	H	1.089313	-0.793097	0.234972
H130	H	1.589313	-0.293097	0.734972
C131	C	1.207670	-0.323643	0.786723
C132	C	1.707670	0.176357	1.286723
H133	H	1.254408	-0.337474	0.806187
H134	H	1.754408	0.162526	1.306187
H135	H	1.209497	-0.324806	0.734289
H136	H	1.709497	0.175194	1.234289
H137	H	1.195755	-0.275112	0.802750
H138	H	1.695755	0.224888	1.302750
C139	C	0.934798	-0.396121	0.786098
C140	C	1.434798	0.103879	1.286098
H141	H	0.902664	-0.388617	0.826897
H142	H	1.402664	0.111383	1.326897
H143	H	0.936386	-0.352592	0.756841
H144	H	1.436386	0.147408	1.256841
H145	H	0.917117	-0.436108	0.757035
H146	H	1.417117	0.063892	1.257035
H147	H	0.992380	-0.792080	0.261633
H148	H	1.492380	-0.292080	0.761633
H149	H	0.991229	-0.262852	0.793921
H150	H	1.491229	0.237148	1.293921
H151	H	1.026082	-0.472127	0.794035
H152	H	1.526082	0.027873	1.294035
H153	H	1.165415	-0.434671	0.792765
H154	H	1.665415	0.065329	1.292765
C155	C	0.641095	-0.257824	0.456636
C156	C	1.141095	0.242176	0.956636
H157	H	0.671410	-0.238645	0.418337
H158	H	1.171410	0.261355	0.918337
H159	H	0.599949	-0.226097	0.463919
H160	H	1.099949	0.273903	0.963919
H161	H	0.668898	-0.260896	0.501052
H162	H	1.168898	0.239104	1.001052
C163	C	0.498825	-0.261604	0.461534
C164	C	0.998825	0.238396	0.961534
H165	H	0.518564	-0.250700	0.508940
H166	H	1.018564	0.249300	1.008940
H167	H	0.513492	-0.224435	0.427524
H168	H	1.013492	0.275565	0.927524
H169	H	0.446438	-0.263101	0.464304
H170	H	0.946438	0.236899	0.964304
C171	C	0.642527	-0.458011	0.258995
C172	C	1.142527	0.041989	0.758995
H173	H	0.623389	-0.505294	0.246583
H174	H	1.123389	-0.005294	0.746583
H175	H	0.627076	-0.422943	0.223152
H176	H	1.127076	0.077057	0.723152
H177	H	0.694959	-0.460059	0.260003
H178	H	1.194959	0.039941	0.760003
H179	H	0.634329	-0.241719	0.313119
H180	H	1.134329	0.258281	0.813119
C181	C	1.030745	-0.785344	0.492313
C182	C	1.530745	-0.285344	0.992313
H183	H	1.030605	-0.732861	0.492307
H184	H	1.530605	-0.232861	0.992307
H185	H	0.994562	-0.802940	0.525993
H186	H	1.494562	-0.302940	1.025993
H187	H	1.078093	-0.802676	0.506868
H188	H	1.578093	-0.302676	1.006868
C189	C	1.106921	-0.220962	0.927293
C190	C	1.606921	0.279038	1.427293
H191	H	1.094621	-0.173726	0.908025
H192	H	1.594621	0.326274	1.408025
H193	H	1.106104	-0.219214	0.979736
H194	H	1.606104	0.280786	1.479736
H195	H	1.154920	-0.234524	0.911002
H196	H	1.654920	0.265476	1.411002
C197	C	1.206055	-0.926422	0.320516
C198	C	1.706055	-0.426422	0.820516
H199	H	1.253279	-0.907113	0.332887
H200	H	1.753279	-0.407113	0.832887
H201	H	1.207806	-0.978863	0.321350
H202	H	1.707806	-0.478863	0.821350
H203	H	1.192528	-0.910149	0.272490
H204	H	1.692528	-0.410149	0.772490
C205	C	1.101068	-0.218368	0.785373
C206	C	1.601068	0.281632	1.285373
H207	H	1.136973	-0.239985	0.753801
H208	H	1.636973	0.260015	1.253801
H209	H	1.073495	-0.182636	0.758614
H210	H	1.573495	0.317364	1.258614
H211	H	1.125092	-0.195191	0.825894
H212	H	1.625092	0.304809	1.325894
H213	H	0.506120	-0.312363	0.242242
H214	H	1.006120	0.187637	0.742242
H215	H	1.164804	-0.435654	0.919836
H216	H	1.664804	0.064346	1.419836
H217	H	0.507244	-0.478892	0.374857
H218	H	1.007244	0.021108	0.874857
H219	H	0.954768	-0.400655	0.920720
H220	H	1.454768	0.099345	1.420720
H221	H	0.633741	-0.312665	0.241661
H222	H	1.133741	0.187335	0.741661
C223	C	0.500924	-0.457296	0.257770
C224	C	1.000924	0.042704	0.757770
H225	H	0.448447	-0.457307	0.256847
H226	H	0.948447	0.042693	0.756847
H227	H	0.519041	-0.423204	0.222234
H228	H	1.019041	0.076796	0.722234
H229	H	0.518594	-0.505398	0.246470
H230	H	1.018594	-0.005398	0.746470
C231	C	0.641125	-0.494353	0.389853
C232	C	1.141125	0.005647	0.889853
H233	H	0.671911	-0.472072	0.426079
H234	H	1.171911	0.027928	0.926079
H235	H	0.600010	-0.516982	0.413331
H236	H	1.100010	-0.016982	0.913331
H237	H	0.668443	-0.530673	0.363623
H238	H	1.168443	-0.030673	0.863623
H239	H	0.635017	-0.374209	0.479611
H240	H	1.135017	0.125791	0.979611
C241	C	0.935193	-0.928560	0.396649
C242	C	1.435193	-0.428560	0.896649
H243	H	0.901044	-0.909384	0.431570
H244	H	1.401044	-0.409384	0.931570
H245	H	0.921307	-0.913303	0.348396
H246	H	1.421307	-0.413303	0.848396
H247	H	0.935126	-0.980984	0.399098
H248	H	1.435126	-0.480984	0.899098
H249	H	1.026252	-0.919970	0.472374
H250	H	1.526252	-0.419970	0.972374
H251	H	0.507705	-0.378999	0.477766
H252	H	1.007705	0.121001	0.977766
H253	H	1.192217	-0.338629	0.920590
H254	H	1.692217	0.161371	1.420590
H255	H	1.025796	-0.471508	0.921661
H256	H	1.525796	0.028492	1.421661
H257	H	0.991406	-0.919153	0.262279
H258	H	1.491406	-0.419153	0.762279
C259	C	0.934451	-0.786187	0.396224
C260	C	1.434451	-0.286187	0.896224
H261	H	0.902628	-0.827316	0.389024
H262	H	1.402628	-0.327316	0.889024
H263	H	0.916660	-0.757044	0.436071
H264	H	1.416660	-0.257044	0.936071
H265	H	0.935670	-0.757179	0.352513
H266	H	1.435670	-0.257179	0.852513
H267	H	1.088449	-0.919830	0.235023
H268	H	1.588449	-0.419830	0.735023
H269	H	1.167856	-0.920633	0.432895
H270	H	1.667856	-0.420633	0.932895
H271	H	1.164065	-0.793071	0.436103
H272	H	1.664065	-0.293071	0.936103
C273	C	1.208631	-0.784507	0.326327
C274	C	1.708631	-0.284507	0.826327
H275	H	1.187038	-0.752961	0.290376
H276	H	1.687038	-0.252961	0.790376
H277	H	1.244345	-0.757714	0.353945
H278	H	1.744345	-0.257714	0.853945
H279	H	1.231823	-0.825018	0.302355
H280	H	1.731823	-0.325018	0.802355
