data_functionalizedCrystal
_audit_creation_method	'MofGen! by Chris Wilmer'
_symmetry_space_group_name_H-M	'P1'
_symmetry_Int_Tables_number	1
_symmetry_cell_setting	triclinic
loop_
_symmetry_equiv_pos_as_xyz
  x,y,z
_cell_length_a	14.044191
_cell_length_b	12.503572
_cell_length_c	11.792241
_cell_angle_alpha	86.452757
_cell_angle_beta	88.692596
_cell_angle_gamma	93.837835
loop_
_atom_site_label
_atom_site_type_symbol
_atom_site_fract_x
_atom_site_fract_y
_atom_site_fract_z
O1	O	1.264548	0.089269	0.267796
O2	O	1.764548	0.589269	0.767796
O3	O	0.988528	0.089283	0.257907
O4	O	1.488528	0.589283	0.757907
O5	O	1.133235	0.089268	0.098311
O6	O	1.633235	0.589268	0.598311
O7	O	1.119840	0.089284	0.427393
O8	O	1.619840	0.589284	0.927393
O9	O	1.122353	-0.089373	0.110335
O10	O	1.622353	0.410627	0.610335
O11	O	0.977645	-0.089358	0.269932
O12	O	1.477645	0.410642	0.769932
O13	O	1.253665	-0.089372	0.279820
O14	O	1.753665	0.410628	0.779820
Cu15	Cu	1.114661	-0.105676	0.275974
Cu16	Cu	1.614661	0.394324	0.775974
Cu17	Cu	1.127531	0.105587	0.261754
Cu18	Cu	1.627531	0.605587	0.761754
O19	O	1.108957	-0.089357	0.439417
O20	O	1.608957	0.410643	0.939417
C21	C	0.947750	-0.000036	0.259594
C22	C	1.447750	0.499964	0.759594
C23	C	0.842458	-0.000031	0.246692
C24	C	1.342458	0.499969	0.746692
N25	N	1.105616	-0.254268	0.285976
N26	N	1.605616	0.245732	0.785976
C27	C	0.592520	-0.000039	0.314609
C28	C	1.092520	0.499961	0.814609
C29	C	0.649679	-0.000041	0.223123
C30	C	1.149679	0.499959	0.723123
C31	C	0.756951	-0.000036	0.236240
C32	C	1.256951	0.499964	0.736240
C33	C	0.485238	-0.000044	0.301494
C34	C	0.985238	0.499956	0.801494
C35	C	1.092310	-0.473382	0.300698
C36	C	1.592310	0.026618	0.800698
C37	C	1.149887	-0.526715	0.237025
C38	C	1.649887	-0.026715	0.737025
C39	C	1.142483	-0.648637	0.245217
C40	C	1.642483	-0.148637	0.745217
C41	C	1.099713	-0.351448	0.292508
C42	C	1.599713	0.148552	0.792508
C43	C	1.294443	-0.000051	0.278133
C44	C	1.794443	0.499949	0.778133
C45	C	1.399735	-0.000049	0.291035
C46	C	1.899735	0.499951	0.791035
C47	C	1.126953	-0.000052	0.061953
C48	C	1.626953	0.499948	0.561953
C49	C	1.124434	-0.000051	-0.064297
C50	C	1.624434	0.499949	0.435703
N51	N	1.136584	0.254178	0.251744
N52	N	1.636584	0.754178	0.751744
C53	C	1.119804	-0.000033	-0.295446
C54	C	1.619804	0.499967	0.204554
C55	C	1.122376	-0.000043	-0.166818
C56	C	1.622376	0.499957	0.333182
C57	C	1.115240	-0.000035	0.475775
C58	C	1.615240	0.499965	0.975775
C59	C	1.117759	-0.000029	0.602024
C60	C	1.617759	0.499971	1.102024
H61	H	0.618055	0.000030	0.134942
H62	H	1.118055	0.500030	0.634942
H63	H	1.037461	-0.519284	0.361359
H64	H	1.537461	-0.019284	0.861359
H65	H	0.624147	-0.000031	0.402778
H66	H	1.124147	0.499969	0.902778
H67	H	1.204741	-0.480807	0.176361
H68	H	1.704741	0.019193	0.676361
