data_functionalizedCrystal
_audit_creation_method	'MofGen! by Chris Wilmer'
_symmetry_space_group_name_H-M	'P1'
_symmetry_Int_Tables_number	1
_symmetry_cell_setting	triclinic
loop_
_symmetry_equiv_pos_as_xyz
  x,y,z
_cell_length_a	12.594517
_cell_length_b	16.625546
_cell_length_c	16.625539
_cell_angle_alpha	90.030397
_cell_angle_beta	89.979100
_cell_angle_gamma	89.977732
loop_
_atom_site_label
_atom_site_type_symbol
_atom_site_fract_x
_atom_site_fract_y
_atom_site_fract_z
Zn1	Zn	1.627215	0.321004	-0.455905
Zn2	Zn	1.877215	0.571004	-0.205905
Zn3	Zn	2.127215	0.821004	0.044095
Zn4	Zn	2.377215	1.071004	0.294095
Zn5	Zn	1.627087	0.455848	-0.321067
Zn6	Zn	1.877087	0.705848	-0.071067
Zn7	Zn	2.127087	0.955848	0.178933
Zn8	Zn	2.377087	1.205848	0.428933
Zn9	Zn	1.449220	0.321032	-0.321084
Zn10	Zn	1.699220	0.571032	-0.071084
Zn11	Zn	1.949220	0.821032	0.178916
Zn12	Zn	2.199220	1.071032	0.428916
Zn13	Zn	1.449181	0.455798	-0.455856
Zn14	Zn	1.699181	0.705798	-0.205856
Zn15	Zn	1.949181	0.955798	0.044144
Zn16	Zn	2.199181	1.205798	0.294144
O17	O	1.538176	0.388421	-0.388478
O18	O	1.788176	0.638421	-0.138478
O19	O	2.038176	0.888421	0.111522
O20	O	2.288176	1.138421	0.361522
O21	O	1.776144	0.338901	-0.438031
O22	O	2.026144	0.588901	-0.188031
O23	O	2.276144	0.838901	0.061969
O24	O	2.526144	1.088901	0.311969
O25	O	1.603456	0.437996	-0.208237
O26	O	1.853456	0.687996	0.041763
O27	O	2.103456	0.937996	0.291763
O28	O	2.353456	1.187996	0.541763
O29	O	1.472901	0.208196	-0.338996
O30	O	1.722901	0.458196	-0.088996
O31	O	1.972901	0.708196	0.161004
O32	O	2.222901	0.958196	0.411004
O33	O	1.776050	0.437969	-0.338967
O34	O	2.026050	0.687969	-0.088967
O35	O	2.276050	0.937969	0.161033
O36	O	2.526050	1.187969	0.411033
O37	O	1.603673	0.208176	-0.438048
O38	O	1.853673	0.458176	-0.188048
O39	O	2.103673	0.708176	0.061952
O40	O	2.353673	0.958176	0.311952
O41	O	1.472778	0.338948	-0.208250
O42	O	1.722778	0.588948	0.041750
O43	O	1.972778	0.838948	0.291750
O44	O	2.222778	1.088948	0.541750
O45	O	1.300269	0.338900	-0.338949
O46	O	1.550269	0.588900	-0.088949
O47	O	1.800269	0.838900	0.161051
O48	O	2.050269	1.088900	0.411051
O49	O	1.472835	0.437885	-0.568695
O50	O	1.722835	0.687885	-0.318695
O51	O	1.972835	0.937885	-0.068695
O52	O	2.222835	1.187885	0.181305
O53	O	1.300241	0.437912	-0.437965
O54	O	1.550241	0.687912	-0.187965
O55	O	1.800241	0.937912	0.062035
O56	O	2.050241	1.187912	0.312035
O57	O	1.603636	0.338853	-0.568731
O58	O	1.853636	0.588853	-0.318731
O59	O	2.103636	0.838853	-0.068731
O60	O	2.353636	1.088853	0.181269
O61	O	1.603418	0.568673	-0.338919
O62	O	1.853418	0.818673	-0.088919
O63	O	2.103418	1.068673	0.161081
O64	O	2.353418	1.318673	0.411081
O65	O	1.472711	0.568637	-0.437948
O66	O	1.722711	0.818637	-0.187948
O67	O	1.972711	1.068637	0.062052
O68	O	2.222711	1.318637	0.312052
C69	C	1.261635	0.388404	-0.388454
C70	C	1.511635	0.638404	-0.138454
C71	C	1.761635	0.888404	0.111546
C72	C	2.011635	1.138404	0.361546
C73	C	1.143329	0.388417	-0.388463
C74	C	1.393329	0.638417	-0.138463
C75	C	1.643329	0.888417	0.111537
C76	C	1.893329	1.138417	0.361537
C77	C	1.538075	0.597912	-0.388444
C78	C	1.788075	0.847912	-0.138444
C79	C	2.038075	1.097912	0.111556
C80	C	2.288075	1.347912	0.361556
C81	C	1.538129	0.687533	-0.388457
C82	C	1.788129	0.937533	-0.138457
C83	C	2.038129	1.187533	0.111543
C84	C	2.288129	1.437533	0.361543
C85	C	1.538245	0.388361	-0.598787
C86	C	1.788245	0.638361	-0.348787
C87	C	2.038245	0.888361	-0.098787
C88	C	2.288245	1.138361	0.151213
C89	C	1.538275	0.388335	-0.688408
C90	C	1.788275	0.638335	-0.438408
C91	C	2.038275	0.888335	-0.188408
C92	C	2.288275	1.138335	0.061592
C93	C	1.074061	0.334491	-0.334711
C94	C	1.324061	0.584491	-0.084711
C95	C	1.574061	0.834491	0.165289
C96	C	1.824061	1.084491	0.415289
C97	C	1.003239	0.408038	-0.314872
C98	C	1.253239	0.658038	-0.064872
C99	C	1.503239	0.908038	0.185128
C100	C	1.753239	1.158038	0.435128
C101	C	1.003352	0.314905	-0.408316
C102	C	1.253352	0.564905	-0.158316
C103	C	1.503352	0.814905	0.091684
C104	C	1.753352	1.064905	0.341684
C105	C	1.074066	0.462003	-0.368586
C106	C	1.324066	0.712003	-0.118586
C107	C	1.574066	0.962003	0.131414
C108	C	1.824066	1.212003	0.381414
C109	C	1.074185	0.368821	-0.462064
C110	C	1.324185	0.618821	-0.212064
C111	C	1.574185	0.868821	0.037936
C112	C	1.824185	1.118821	0.287936
C113	C	1.003395	0.442419	-0.442253
C114	C	1.253395	0.692419	-0.192253
C115	C	1.503395	0.942419	0.057747
C116	C	1.753395	1.192419	0.307747
C117	C	1.815797	0.388437	-0.388502
C118	C	2.065797	0.638437	-0.138502
C119	C	2.315797	0.888437	0.111498
C120	C	2.565797	1.138437	0.361498
C121	C	1.934102	0.388445	-0.388513
C122	C	2.184102	0.638445	-0.138513
C123	C	2.434102	0.888445	0.111487
C124	C	2.684102	1.138445	0.361487
C125	C	1.538306	0.178112	-0.388530
C126	C	1.788306	0.428112	-0.138530
C127	C	2.038306	0.678112	0.111470
C128	C	2.288306	0.928112	0.361470
C129	C	1.538361	0.088491	-0.388552
C130	C	1.788361	0.338491	-0.138552
C131	C	2.038361	0.588491	0.111448
C132	C	2.288361	0.838491	0.361448
C133	C	1.538315	1.015708	-0.388541
C134	C	1.788315	1.265708	-0.138541
C135	C	2.038315	1.515708	0.111459
C136	C	2.288315	1.765708	0.361459
C137	C	1.538260	0.924400	-0.388520
C138	C	1.788260	1.174400	-0.138520
C139	C	2.038260	1.424400	0.111480
C140	C	2.288260	1.674400	0.361480
C141	C	1.538221	0.851623	-0.388498
C142	C	1.788221	1.101623	-0.138498
C143	C	2.038221	1.351623	0.111502
C144	C	2.288221	1.601623	0.361502
C145	C	1.538168	0.760309	-0.388478
C146	C	1.788168	1.010309	-0.138478
C147	C	2.038168	1.260309	0.111522
C148	C	2.288168	1.510309	0.361522
C149	C	1.538324	0.388245	-1.016584
C150	C	1.788324	0.638245	-0.766584
C151	C	2.038324	0.888245	-0.516584
C152	C	2.288324	1.138245	-0.266584
C153	C	1.538307	0.388272	-0.925276
C154	C	1.788307	0.638272	-0.675276
C155	C	2.038307	0.888272	-0.425276
C156	C	2.288307	1.138272	-0.175276
C157	C	1.538300	0.388290	-0.852499
C158	C	1.788300	0.638290	-0.602499
C159	C	2.038300	0.888290	-0.352499
C160	C	2.288300	1.138290	-0.102499
C161	C	1.538282	0.388317	-0.761185
C162	C	1.788282	0.638317	-0.511185
C163	C	2.038282	0.888317	-0.261185
C164	C	2.288282	1.138317	-0.011185
C165	C	1.538168	0.388422	-0.178987
C166	C	1.788168	0.638422	0.071013
C167	C	2.038168	0.888422	0.321013
C168	C	2.288168	1.138422	0.571013
C169	C	1.538345	0.388221	-0.089367
C170	C	1.788345	0.638221	0.160633
C171	C	2.038345	0.888221	0.410633
C172	C	2.288345	1.138221	0.660633
H173	H	1.105089	0.288932	-0.289199
H174	H	1.355089	0.538932	-0.039199
H175	H	1.605089	0.788932	0.210801
H176	H	1.855089	1.038932	0.460801
H177	H	0.972234	0.252734	-0.425059
H178	H	1.222234	0.502734	-0.175059
H179	H	1.472234	0.752734	0.074941
H180	H	1.722234	1.002734	0.324941
H181	H	0.972562	0.488087	-0.487730
H182	H	1.222562	0.738087	-0.237730
H183	H	1.472562	0.988087	0.012270
H184	H	1.722562	1.238087	0.262270
H185	H	1.105371	0.352206	-0.524266
H186	H	1.355371	0.602206	-0.274266
H187	H	1.605371	0.852206	-0.024266
H188	H	1.855371	1.102206	0.225734
H189	H	1.104999	0.524201	-0.351746
H190	H	1.354999	0.774201	-0.101746
H191	H	1.604999	1.024201	0.148254
H192	H	1.854999	1.274201	0.398254
H193	H	0.972079	0.424631	-0.252651
H194	H	1.222079	0.674631	-0.002651
H195	H	1.472079	0.924631	0.247349
H196	H	1.722079	1.174631	0.497349
