data_functionalizedCrystal
_audit_creation_method	'MofGen! by Chris Wilmer'
_symmetry_space_group_name_H-M	'P1'
_symmetry_Int_Tables_number	1
_symmetry_cell_setting	triclinic
loop_
_symmetry_equiv_pos_as_xyz
  x,y,z
_cell_length_a	10.489711
_cell_length_b	10.489741
_cell_length_c	7.088929
_cell_angle_alpha	83.712943
_cell_angle_beta	96.265165
_cell_angle_gamma	84.533091
loop_
_atom_site_label
_atom_site_type_symbol
_atom_site_fract_x
_atom_site_fract_y
_atom_site_fract_z
O1	O	1.681096	0.192787	-0.159056
O2	O	1.309896	0.209718	-0.159044
O3	O	1.503943	0.015653	-0.159039
O4	O	1.487049	0.386852	-0.159061
O5	O	1.529875	-0.010341	0.158937
O6	O	1.335828	0.183724	0.158931
O7	O	1.707028	0.166793	0.158920
Cu8	Cu	1.523796	0.172885	0.187959
Cu9	Cu	1.493128	0.203626	-0.188084
O10	O	1.512980	0.360858	0.158915
C11	C	1.275330	0.195450	-0.000055
C12	C	1.133699	0.191648	-0.000050
C13	C	1.515633	-0.044876	-0.000052
C14	C	1.511816	-0.186504	-0.000056
C15	C	0.951310	0.308355	-0.000079
C16	C	1.030670	0.262875	-0.156852
C17	C	1.056210	0.237216	0.156648
C18	C	0.960708	0.139344	-0.156993
C19	C	0.986250	0.113690	0.156647
C20	C	1.065579	0.068124	-0.000163
C21	C	1.388349	-0.254631	-0.000066
C22	C	1.459459	-0.359576	0.156711
C23	C	1.433921	-0.333922	-0.156788
C24	C	1.582987	-0.289595	0.156851
C25	C	1.557421	-0.263920	-0.156789
C26	C	1.628624	-0.368841	0.000026
C27	C	1.741594	0.181061	-0.000074
C28	C	1.883223	0.184864	-0.000091
C29	C	1.501290	0.421387	-0.000076
C30	C	1.505107	0.563017	-0.000086
N31	N	1.545375	0.151263	0.452448
N32	N	1.471559	0.225238	-0.452573
H33	H	1.050856	0.325966	-0.289392
H34	H	1.370854	-0.354044	-0.289343
H35	H	1.598808	-0.222045	-0.289343
H36	H	1.621891	0.074607	0.534106
N37	N	0.888965	0.435706	-0.000293
N38	N	0.896190	0.521071	-0.135123
H39	H	0.852158	0.611013	-0.135283
N40	N	0.908477	0.087449	-0.323437
N41	N	0.790536	0.076146	-0.350346
H42	H	0.753643	0.039497	-0.467896
N43	N	1.127617	-0.059315	-0.000274
N44	N	1.098198	-0.122644	-0.135005
H45	H	1.142011	-0.212646	-0.135093
H46	H	1.730235	-0.418282	0.000110
H47	H	0.966037	0.050645	0.289200
H48	H	1.395057	0.301898	0.465779
H49	H	1.286849	-0.204982	0.000095
N50	N	1.108600	0.289212	0.322907
N51	N	1.069692	0.401188	0.350792
H52	H	1.106687	0.437920	0.468205
N53	N	1.407473	-0.412058	0.322982
N54	N	1.295486	-0.373214	0.350920
H55	H	1.258762	-0.410276	0.468343
H56	H	1.646004	-0.269615	0.289542
