data_functionalizedCrystal
_audit_creation_method	'MofGen! by Chris Wilmer'
_symmetry_space_group_name_H-M	'P1'
_symmetry_Int_Tables_number	1
_symmetry_cell_setting	triclinic
loop_
_symmetry_equiv_pos_as_xyz
  x,y,z
_cell_length_a	15.944551
_cell_length_b	15.944493
_cell_length_c	14.421503
_cell_angle_alpha	90.007064
_cell_angle_beta	90.009182
_cell_angle_gamma	96.513109
loop_
_atom_site_label
_atom_site_type_symbol
_atom_site_fract_x
_atom_site_fract_y
_atom_site_fract_z
O1	O	-0.108089	1.114560	0.077089
O2	O	-0.121496	0.870003	0.077092
O3	O	0.007484	0.998960	0.077096
O4	O	-0.237068	0.985603	0.077086
O5	O	0.007465	0.998938	-0.077127
O6	O	-0.121515	0.869982	-0.077131
O7	O	-0.108108	1.114538	-0.077134
Cu8	Cu	-0.114813	0.992258	-0.091214
Cu9	Cu	-0.114790	0.992283	0.091173
O10	O	-0.237087	0.985582	-0.077138
C11	C	-0.120957	0.838698	-0.000019
C12	C	-0.119314	0.745449	-0.000017
C13	C	-0.195235	0.509689	-0.000020
C14	C	-0.154303	0.459120	-0.076062
C15	C	-0.116270	0.574728	-0.000019
C16	C	-0.154266	0.459146	0.075990
C17	C	-0.113336	0.409819	-0.000016
C18	C	-0.075360	0.525388	-0.076124
C19	C	-0.075334	0.525417	0.075997
C20	C	-0.034345	0.474880	-0.000064
C21	C	-0.117963	0.669728	-0.000021
C22	C	-0.111637	0.314821	-0.000021
C23	C	-0.268372	0.986147	-0.000028
C24	C	-0.361617	0.987809	-0.000031
C25	C	-0.576457	1.071716	-0.000019
C26	C	-0.637490	1.032742	-0.076059
C27	C	-0.532343	0.990817	-0.000023
C28	C	-0.637457	1.032744	0.075993
C29	C	-0.697255	0.993728	-0.000011
C30	C	-0.592148	0.951820	-0.076127
C31	C	-0.592109	0.951834	0.075994
C32	C	-0.653125	0.912801	-0.000065
C33	C	-0.437341	0.989142	-0.000031
C34	C	-0.792256	0.995396	-0.000010
C35	C	0.038768	0.998395	-0.000012
C36	C	0.132014	0.996732	-0.000002
C37	C	-0.108646	1.145844	-0.000021
C38	C	-0.110289	1.239092	-0.000017
N39	N	-0.114828	0.992246	-0.219496
C40	C	-0.174442	0.932607	-0.469151
C41	C	-0.190733	1.008509	-0.530956
C42	C	-0.114808	0.992267	-0.408657
C43	C	-0.098537	0.916384	-0.530946
C44	C	-0.114791	0.992280	-0.591379
C45	C	-0.131138	1.068207	-0.469101
C46	C	-0.038908	0.976033	-0.469086
C47	C	-0.055167	1.051990	-0.530863
C48	C	-0.114821	0.992258	-0.303396
C49	C	-0.114778	0.992297	-0.696637
N50	N	-0.114768	0.992302	0.219454
H51	H	-0.187622	0.430217	0.140269
H52	H	-0.571979	0.917654	0.140285
H53	H	-0.084782	0.852207	-0.558115
H54	H	-0.144970	1.132399	-0.442049
C55	C	-0.226309	0.785270	-0.465124
C56	C	-0.242571	0.864569	-0.432560
H57	H	-0.268373	0.743272	-0.442537
H58	H	-0.172431	0.773603	-0.443934
H59	H	-0.227109	0.785155	-0.530988
H60	H	-0.241765	0.864686	-0.366695
H61	H	-0.296463	0.876239	-0.453745
H62	H	-0.004726	1.102504	-0.557789
H63	H	-0.254913	1.022251	-0.558131
H64	H	0.025251	0.962267	-0.441889
H65	H	-0.263254	0.525313	-0.000094
C66	C	-0.158809	0.454766	-0.242431
C67	C	-0.199326	0.420027	-0.162846
H68	H	-0.186611	0.430633	-0.296003
H69	H	-0.101694	0.443120	-0.242504
H70	H	-0.160656	0.514106	-0.242766
H71	H	-0.197474	0.360688	-0.162508
H72	H	-0.256455	0.431667	-0.162774
H73	H	-0.042040	0.554206	-0.140475
H74	H	-0.572172	0.917621	-0.140482
H75	H	0.033726	0.459415	-0.000105
H76	H	-0.042003	0.554372	0.140290
H77	H	-0.543137	1.138867	-0.000094
H78	H	-0.686297	0.845592	-0.000107
C79	C	-0.625564	1.162120	-0.162705
C80	C	-0.664647	1.078919	-0.162841
H81	H	-0.642332	1.190632	-0.216275
H82	H	-0.566026	1.161845	-0.163050
H83	H	-0.641840	1.190314	-0.108703
H84	H	-0.648366	1.050724	-0.216840
H85	H	-0.724198	1.079190	-0.162504
C86	C	-0.625458	1.162157	0.162619
C87	C	-0.664554	1.078961	0.162778
H88	H	-0.642181	1.190690	0.216196
H89	H	-0.641762	1.190331	0.108628
H90	H	-0.565914	1.161870	0.162940
H91	H	-0.724099	1.079248	0.162450
H92	H	-0.648256	1.050779	0.216783
