data_functionalizedCrystal
_audit_creation_method	'MofGen! by Chris Wilmer'
_symmetry_space_group_name_H-M	'P1'
_symmetry_Int_Tables_number	1
_symmetry_cell_setting	triclinic
loop_
_symmetry_equiv_pos_as_xyz
  x,y,z
_cell_length_a	12.837943
_cell_length_b	14.519709
_cell_length_c	11.892095
_cell_angle_alpha	93.895429
_cell_angle_beta	85.689438
_cell_angle_gamma	89.254542
loop_
_atom_site_label
_atom_site_type_symbol
_atom_site_fract_x
_atom_site_fract_y
_atom_site_fract_z
O1	O	1.382515	0.234472	-0.093988
O2	O	1.882515	0.734472	0.406012
O3	O	1.080688	0.222627	-0.093995
O4	O	1.580688	0.722627	0.406005
O5	O	1.239604	0.095003	-0.093981
O6	O	1.739604	0.595003	0.406019
O7	O	1.223600	0.362096	-0.094002
O8	O	1.723600	0.862096	0.405998
O9	O	1.226354	0.105626	0.094025
O10	O	1.726354	0.605626	0.594025
O11	O	1.067438	0.233250	0.094012
O12	O	1.567438	0.733250	0.594012
O13	O	1.369265	0.245095	0.094018
O14	O	1.869265	0.745095	0.594018
Zn15	Zn	1.216248	0.240859	0.123865
Zn16	Zn	1.716248	0.740859	0.623865
Zn17	Zn	1.233706	0.226863	-0.123842
Zn18	Zn	1.733706	0.726863	0.376158
O19	O	1.210350	0.372719	0.094005
O20	O	1.710350	0.872719	0.594005
C21	C	1.035435	0.223937	0.000008
C22	C	1.535435	0.723937	0.500008
C23	C	0.920336	0.212002	0.000006
C24	C	1.420336	0.712002	0.500006
C25	C	0.679644	0.355473	0.000011
C26	C	1.179644	0.855473	0.500011
C27	C	0.571497	0.344264	0.000010
C28	C	1.071497	0.844264	0.500010
C29	C	0.595894	0.178377	0.000010
C30	C	1.095894	0.678377	0.500010
C31	C	0.704041	0.189586	0.000012
C32	C	1.204041	0.689586	0.500012
C33	C	0.745911	0.278137	0.000010
C34	C	1.245911	0.778137	0.500010
C35	C	0.854060	0.289344	0.000003
C36	C	1.354060	0.789344	0.500003
C37	C	0.878455	0.123458	0.000012
C38	C	1.378455	0.623458	0.500012
C39	C	0.770308	0.112249	0.000011
C40	C	1.270308	0.612249	0.500011
C41	C	1.232233	0.065890	0.000022
C42	C	1.732233	0.565890	0.500022
C43	C	1.229998	-0.036684	0.000023
C44	C	1.729998	0.463316	0.500023
C45	C	1.221771	-0.412293	-0.000007
C46	C	1.721771	0.087707	0.499993
C47	C	1.224055	-0.307787	0.000002
C48	C	1.724055	0.192213	0.500002
C49	C	1.225884	-0.224492	0.000009
C50	C	1.725884	0.275508	0.500009
C51	C	1.228169	-0.119979	0.000016
C52	C	1.728169	0.380021	0.500016
C53	C	1.414519	0.243785	0.000013
C54	C	1.914519	0.743785	0.500013
C55	C	1.529618	0.255719	0.000008
C56	C	2.029618	0.755719	0.500008
C57	C	1.217721	0.401831	-0.000001
C58	C	1.717721	0.901831	0.499999
C59	C	1.219957	0.504405	-0.000009
C60	C	1.719957	1.004405	0.499991
N61	N	1.204341	0.250411	0.292918
N62	N	1.704341	0.750411	0.792918
N63	N	1.245621	0.217304	-0.292895
N64	N	1.745621	0.717304	0.207105
C65	C	1.328473	0.150784	0.529576
C66	C	1.828473	0.650784	1.029576
C67	C	1.320158	0.157468	0.647918
C68	C	1.820158	0.657468	1.147918
C69	C	1.179391	0.270458	0.647944
C70	C	1.679391	0.770458	1.147944
C71	C	1.187707	0.263774	0.529603
C72	C	1.687707	0.763774	1.029603
C73	C	1.262251	0.203936	0.470423
C74	C	1.762251	0.703936	0.970423
C75	C	1.270570	0.197257	0.352080
C76	C	1.770570	0.697257	0.852080
C77	C	1.129800	0.310242	0.352108
C78	C	1.629800	0.810242	0.852108
C79	C	1.121484	0.316926	0.470449
C80	C	1.621484	0.816926	0.970449
H81	H	0.888149	0.361447	0.000004
H82	H	1.388149	0.861447	0.500004
H83	H	0.713735	0.427575	0.000008
H84	H	1.213735	0.927575	0.500008
F85	F	0.500973	0.426577	0.000014
F86	F	1.000973	0.926577	0.500014
F87	F	0.948991	0.041145	-0.000003
F88	F	1.448991	0.541145	0.499997
H89	H	1.075880	0.353524	0.303932
H90	H	1.575880	0.853524	0.803932
F91	F	1.349909	0.133576	0.289099
F92	F	1.849909	0.633576	0.789099
H93	H	0.561777	0.106288	0.000105
H94	H	1.061777	0.606288	0.500105
F95	F	1.407817	0.087110	0.466593
F96	F	1.907817	0.587110	0.966593
F97	F	0.725734	0.018012	0.000016
F98	F	1.225734	0.518012	0.500016
F99	F	1.390639	0.100894	0.710869
F100	F	1.890639	0.600894	1.210869
H101	H	1.118692	0.319170	0.696143
H102	H	1.618692	0.819170	1.196143
H103	H	1.060789	0.365642	0.518647
H104	H	1.560789	0.865642	1.018647
