data_functionalizedCrystal
_audit_creation_method	'MofGen! by Chris Wilmer'
_symmetry_space_group_name_H-M	'P1'
_symmetry_Int_Tables_number	1
_symmetry_cell_setting	triclinic
loop_
_symmetry_equiv_pos_as_xyz
  x,y,z
_cell_length_a	14.908558
_cell_length_b	18.050590
_cell_length_c	14.908308
_cell_angle_alpha	93.264736
_cell_angle_beta	90.175599
_cell_angle_gamma	86.713657
loop_
_atom_site_label
_atom_site_type_symbol
_atom_site_fract_x
_atom_site_fract_y
_atom_site_fract_z
Zn1	Zn	1.345315	-0.387578	-0.587551
Zn2	Zn	1.845315	0.112422	-0.087551
Zn3	Zn	1.353900	-0.505045	-0.437185
Zn4	Zn	1.853900	-0.005045	0.062815
Zn5	Zn	1.203629	-0.373312	-0.428550
Zn6	Zn	1.703629	0.126688	0.071450
Zn7	Zn	1.194927	-0.504160	-0.578838
Zn8	Zn	1.694927	-0.004160	-0.078838
O9	O	1.274443	-0.442524	-0.508031
O10	O	1.774443	0.057476	-0.008031
O11	O	1.472280	-0.409501	-0.574864
O12	O	1.972280	0.090499	-0.074864
O13	O	1.341201	-0.481970	-0.310215
O14	O	1.841201	0.018030	0.189785
O15	O	1.222473	-0.271284	-0.449675
O16	O	1.722473	0.228716	0.050325
O17	O	1.478588	-0.495803	-0.464391
O18	O	1.978588	0.004197	0.035609
O19	O	1.326568	-0.281765	-0.566492
O20	O	1.826568	0.218235	-0.066492
O21	O	1.230797	-0.385186	-0.303871
O22	O	1.730797	0.114814	0.196129
O23	O	1.076648	-0.384329	-0.441226
O24	O	1.576648	0.115671	0.058774
O25	O	1.207642	-0.494296	-0.705818
O26	O	1.707642	0.005704	-0.205818
O27	O	1.070255	-0.480462	-0.551642
O28	O	1.570255	0.019538	-0.051642
O29	O	1.318131	-0.408644	-0.712219
O30	O	1.818131	0.091356	-0.212219
O31	O	1.332763	-0.608848	-0.455943
O32	O	1.832763	-0.108848	0.044057
O33	O	1.215967	-0.608199	-0.560014
O34	O	1.715967	-0.108199	-0.060014
C35	C	1.040826	-0.430752	-0.494552
C36	C	1.540826	0.069248	0.005448
C37	C	0.940883	-0.425735	-0.488807
C38	C	1.440883	0.074265	0.011193
C39	C	1.274376	-0.635471	-0.507991
C40	C	1.774376	-0.135471	-0.007991
C41	C	1.274427	-0.718020	-0.508009
C42	C	1.774427	-0.218020	-0.008009
C43	C	0.803314	-0.368546	-0.423317
C44	C	1.303314	0.131454	0.076683
C45	C	0.897220	-0.373257	-0.428712
C46	C	1.397220	0.126743	0.071288
C47	C	0.890633	-0.473505	-0.543515
C48	C	1.390633	0.026495	-0.043515
C49	C	0.796727	-0.468795	-0.538121
C50	C	1.296727	0.031205	-0.038121
C51	C	0.753071	-0.416315	-0.478019
C52	C	1.253071	0.083685	0.021981
C53	C	0.659163	-0.411608	-0.472621
C54	C	1.159163	0.088392	0.027379
C55	C	0.652578	-0.511853	-0.587429
C56	C	1.152578	-0.011853	-0.087429
C57	C	0.746484	-0.516563	-0.592823
C58	C	1.246484	-0.016563	-0.092823
C59	C	1.338061	-0.917807	-0.451505
C60	C	1.838061	-0.417807	0.048495
C61	C	1.355288	-0.971914	-0.534833
C62	C	1.855288	-0.471914	-0.034833
C63	C	1.274476	-0.869155	-0.508048
C64	C	1.774476	-0.369155	-0.008048
C65	C	1.257339	-0.962135	-0.424763
C66	C	1.757339	-0.462135	0.075237
C67	C	1.274526	-1.015143	-0.508078
C68	C	1.774526	-0.515143	-0.008078
C69	C	1.291743	-0.922178	-0.591420
C70	C	1.791743	-0.422178	-0.091420
C71	C	1.193759	-0.912391	-0.481293
C72	C	1.693759	-0.412391	0.018707
C73	C	1.210951	-0.966477	-0.564675
C74	C	1.710951	-0.466477	-0.064675
C75	C	1.274450	-0.785054	-0.508029
C76	C	1.774450	-0.285054	-0.008029
C77	C	1.274551	-1.099242	-0.508106
C78	C	1.774551	-0.599242	-0.008106
C79	C	1.508971	-0.454342	-0.521563
C80	C	2.008971	0.045658	-0.021563
C81	C	1.608914	-0.459379	-0.527329
C82	C	2.108914	0.040621	-0.027329
C83	C	1.260958	-0.452962	-0.742556
C84	C	1.760958	0.047038	-0.242556
C85	C	1.255212	-0.457411	-0.842496
C86	C	1.755212	0.042589	-0.342496
C87	C	1.274533	-0.248826	-0.508092
C88	C	1.774533	0.251174	-0.008092
C89	C	1.274572	-0.166283	-0.508118
C90	C	1.774572	0.333717	-0.008118
C91	C	1.359463	-0.376562	-1.036962
C92	C	1.859463	0.123438	-0.536962
C93	C	1.354067	-0.380739	-1.130865
C94	C	1.854067	0.119261	-0.630865
C95	C	1.239018	-0.469938	-1.124207
C96	C	1.739018	0.030062	-0.624207
C97	C	1.244415	-0.465761	-1.030304
C98	C	1.744415	0.034239	-0.530304
C99	C	1.304640	-0.419072	-0.986685
C100	C	1.804640	0.080928	-0.486685
C101	C	1.310040	-0.414899	-0.892780
C102	C	1.810040	0.085101	-0.392780
C103	C	1.194988	-0.504093	-0.886124
C104	C	1.694988	-0.004093	-0.386124
C105	C	1.189592	-0.508270	-0.980027
C106	C	1.689592	-0.008270	-0.480027
C107	C	1.287927	-0.432075	-0.274421
C108	C	1.787927	0.067925	0.225579
C109	C	1.293847	-0.427426	-0.174491
C110	C	1.793847	0.072574	0.325509
H111	H	0.623620	-0.368876	-0.423684
H112	H	1.123620	0.131124	0.076316
C113	C	1.134680	-0.550858	-0.830811
C114	C	1.634680	-0.050858	-0.330811
N115	N	1.089258	-0.586081	-0.789149
N116	N	1.589258	-0.086081	-0.289149
H117	H	0.611660	-0.550749	-0.631971
H118	H	1.111660	-0.050749	-0.131971
C119	C	1.138330	-0.995179	-0.629366
C120	C	1.638330	-0.495179	-0.129366
N121	N	1.083634	-1.016798	-0.678094
N122	N	1.583634	-0.516798	-0.178094
H123	H	0.938124	-0.334356	-0.384171
H124	H	1.438124	0.165644	0.115829
H125	H	1.398707	-0.346121	-1.171798
H126	H	1.898707	0.153879	-0.671798
C127	C	0.794517	-0.574291	-0.658927
C128	C	1.294517	-0.074291	-0.158927
N129	N	0.830694	-0.617777	-0.708715
N130	N	1.330694	-0.117777	-0.208715
C131	C	1.425714	-0.325209	-0.988979
C132	C	1.925714	0.174791	-0.488979
N133	N	1.475616	-0.286528	-0.952840
N134	N	1.975616	0.213472	-0.452840
C135	C	1.311467	-0.898387	-0.686622
C136	C	1.811467	-0.398387	-0.186622
N137	N	1.326328	-0.880465	-0.758326
N138	N	1.826328	-0.380465	-0.258326
H139	H	0.926194	-0.516228	-0.592452
H140	H	1.426194	-0.016228	-0.092452
C141	C	1.237724	-0.986056	-0.329593
C142	C	1.737724	-0.486056	0.170407
N143	N	1.222957	-1.004070	-0.257909
N144	N	1.722957	-0.504070	0.242091
H145	H	1.189986	-0.507949	-1.159738
H146	H	1.689986	-0.007949	-0.659738
H147	H	1.140557	-0.546281	-1.015554
H148	H	1.640557	-0.046281	-0.515554
C149	C	1.101546	-0.877262	-0.450660
C150	C	1.601546	-0.377262	0.049340
N151	N	1.032093	-0.850798	-0.427577
N152	N	1.532093	-0.350798	0.072423
H153	H	1.391847	-0.896431	-0.403743
H154	H	1.891847	-0.396431	0.096257
H155	H	0.767769	-0.325816	-0.374378
H156	H	1.267769	0.174184	0.125622
C157	C	1.447533	-1.007016	-0.565426
C158	C	1.947533	-0.507016	-0.065426
N159	N	1.517013	-1.033454	-0.588462
N160	N	2.017013	-0.533454	-0.088462
H161	H	1.359080	-0.376884	-0.857267
H162	H	1.859080	0.123116	-0.357267
