data_functionalizedCrystal
_audit_creation_method	'MofGen! by Chris Wilmer'
_symmetry_space_group_name_H-M	'P1'
_symmetry_Int_Tables_number	1
_symmetry_cell_setting	triclinic
loop_
_symmetry_equiv_pos_as_xyz
  x,y,z
_cell_length_a	6.817900
_cell_length_b	7.190339
_cell_length_c	11.100257
_cell_angle_alpha	92.009098
_cell_angle_beta	71.429968
_cell_angle_gamma	119.388276
loop_
_atom_site_label
_atom_site_type_symbol
_atom_site_fract_x
_atom_site_fract_y
_atom_site_fract_z
V1	V	4.172233	0.295502	-0.395383
O2	O	4.067445	-0.013780	-0.388781
O3	O	4.208863	0.585527	-0.391790
O4	O	4.147992	0.291141	-0.568229
O5	O	4.128738	0.282644	-0.211121
V6	V	4.641712	0.258487	-0.373452
O7	O	4.464297	0.376699	-0.443491
O8	O	4.799845	0.177290	-0.325344
O9	O	4.381875	-0.031538	-0.377045
O10	O	4.863897	0.567769	-0.380054
O11	O	4.802604	0.271345	-0.557715
O12	O	4.442747	0.262848	-0.200606
C13	C	4.073786	0.656226	-0.385329
C14	C	4.187279	0.897783	-0.383513
C15	C	3.996118	0.280702	-0.610387
C16	C	4.058145	0.279055	-0.751684
C17	C	3.974008	-0.115748	-0.981469
C18	C	3.844157	-0.310058	-0.897267
C19	C	3.785629	-0.308004	-0.764537
C20	C	3.856969	-0.111618	-0.716009
C21	C	3.986821	0.082691	-0.800211
C22	C	4.045332	0.080616	-0.932941
C23	C	4.187996	0.473365	-0.835886
C24	C	4.246512	0.471315	-0.968615
C25	C	4.259336	0.669751	-0.787358
C26	C	4.389176	0.864065	-0.871560
C27	C	4.447700	0.862002	-1.004296
C28	C	4.376363	0.665625	-1.052817
C29	C	4.257963	0.273294	-0.158441
C30	C	4.175172	0.274930	-0.017143
H31	H	4.021628	-0.117442	-1.089541
C32	C	4.405789	0.789078	-0.612753
C33	C	4.195026	0.671999	-0.641460
H34	H	4.366084	0.790451	-0.522680
H35	H	4.493300	0.932891	-0.655942
H36	H	4.500900	0.723265	-0.640152
H37	H	4.099922	0.737821	-0.614069
H38	H	4.107477	0.528159	-0.598255
C39	C	4.812689	1.204424	-1.081369
C40	C	4.590441	1.075601	-1.096847
H41	H	4.900801	1.336296	-1.138498
H42	H	4.899973	1.130640	-1.099745
H43	H	4.788011	1.233728	-0.995369
H44	H	4.615119	1.046283	-1.182845
H45	H	4.503139	1.149399	-1.078480
H46	H	4.423993	0.663927	-1.160890
H47	H	3.786086	-0.469951	-0.936793
H48	H	3.679904	-0.466228	-0.695979
H49	H	3.809329	-0.109962	-0.607933
C50	C	4.264258	1.082644	-0.737078
C51	C	4.467404	1.079824	-0.818120
H52	H	4.312503	1.215827	-0.704062
H53	H	4.178596	0.967127	-0.668009
H54	H	4.163924	1.066924	-0.784213
H55	H	4.567730	1.095527	-0.770983
H56	H	4.553105	1.195374	-0.887200
