data_functionalizedCrystal
_audit_creation_method	'MofGen! by Chris Wilmer'
_symmetry_space_group_name_H-M	'P1'
_symmetry_Int_Tables_number	1
_symmetry_cell_setting	triclinic
loop_
_symmetry_equiv_pos_as_xyz
  x,y,z
_cell_length_a	11.792241
_cell_length_b	10.723024
_cell_length_c	9.798715
_cell_angle_alpha	90.003391
_cell_angle_beta	89.996704
_cell_angle_gamma	95.669357
loop_
_atom_site_label
_atom_site_type_symbol
_atom_site_fract_x
_atom_site_fract_y
_atom_site_fract_z
O1	O	0.159192	-1.656766	-0.113483
O2	O	0.659192	-1.156766	0.386517
O3	O	0.174430	-1.293573	-0.113488
O4	O	0.674430	-0.793573	0.386512
O5	O	0.001660	-1.483983	-0.113475
O6	O	0.501660	-0.983983	0.386525
O7	O	0.331962	-1.466356	-0.113495
O8	O	0.831962	-0.966356	0.386505
O9	O	0.001659	-1.483969	0.113507
O10	O	0.501659	-0.983969	0.613507
O11	O	0.174430	-1.293559	0.113495
O12	O	0.674430	-0.793559	0.613495
O13	O	0.159192	-1.656752	0.113499
O14	O	0.659192	-1.156752	0.613499
Zn15	Zn	0.166811	-1.475153	0.149535
Zn16	Zn	0.666811	-0.975153	0.649535
Zn17	Zn	0.166811	-1.475172	-0.149523
Zn18	Zn	0.666811	-0.975172	0.350477
O19	O	0.331962	-1.466342	0.113487
O20	O	0.831962	-0.966342	0.613487
C21	C	0.173321	-1.247070	0.000003
C22	C	0.673321	-0.747070	0.500003
C23	C	0.170003	-1.108524	0.000001
C24	C	0.670003	-0.608524	0.500001
C25	C	-0.040634	-1.482869	0.000015
C26	C	0.459366	-0.982869	0.500015
C27	C	-0.166655	-1.479555	0.000014
C28	C	0.333345	-0.979555	0.500014
N29	N	0.166809	-1.475150	0.353635
N30	N	0.666809	-0.975150	0.853635
C31	C	-0.397380	-1.473461	-0.000009
C32	C	0.102620	-0.973461	0.499991
C33	C	-0.268988	-1.476847	0.000003
C34	C	0.231012	-0.976847	0.500003
C35	C	0.374255	-1.467456	-0.000006
C36	C	0.874255	-0.967456	0.499994
C37	C	0.500276	-1.470770	-0.000014
C38	C	1.000276	-0.970770	0.499986
C39	C	0.160301	-1.703256	0.000006
C40	C	0.660301	-1.203256	0.500006
C41	C	0.163619	-1.841801	-0.000002
C42	C	0.663619	-1.341801	0.499998
C43	C	0.266676	-1.033286	-0.000005
C44	C	0.766676	-0.533286	0.499995
C45	C	0.263249	-0.890091	-0.000007
C46	C	0.763249	-0.390091	0.499993
N47	N	0.166803	-1.475186	-0.353623
N48	N	0.666803	-0.975186	0.146377
C49	C	0.093948	-1.555098	0.421417
C50	C	0.593948	-1.055098	0.921417
C51	C	0.093944	-1.555118	0.578580
C52	C	0.593944	-1.055118	1.078580
H53	H	0.351978	-1.074882	-0.000002
H54	H	0.851978	-0.574882	0.499998
H55	H	0.346009	-0.825440	-0.000018
H56	H	0.846009	-0.325440	0.499982
Cl57	Cl	0.263113	-1.369483	0.443667
Cl58	Cl	0.763113	-0.869483	0.943667
H59	H	0.229190	-1.406739	0.588096
H60	H	0.729190	-0.906739	1.088096
Cl61	Cl	-0.002617	-1.660475	0.331385
Cl62	Cl	0.497383	-1.160475	0.831385
H63	H	0.080854	-0.906445	-0.000005
H64	H	0.580854	-0.406445	0.499995
Cl65	Cl	0.038296	-1.044314	0.000019
Cl66	Cl	0.538296	-0.544314	0.500019
H67	H	0.031569	-1.623571	0.636869
H68	H	0.531569	-1.123571	1.136869
