data_functionalizedCrystal
_audit_creation_method	'MofGen! by Chris Wilmer'
_symmetry_space_group_name_H-M	'P1'
_symmetry_Int_Tables_number	1
_symmetry_cell_setting	triclinic
loop_
_symmetry_equiv_pos_as_xyz
  x,y,z
_cell_length_a	16.625547
_cell_length_b	16.625545
_cell_length_c	13.032268
_cell_angle_alpha	82.853505
_cell_angle_beta	82.841885
_cell_angle_gamma	90.025495
loop_
_atom_site_label
_atom_site_type_symbol
_atom_site_fract_x
_atom_site_fract_y
_atom_site_fract_z
Zn1	Zn	1.174716	-0.378881	0.590969
Zn2	Zn	1.508050	-0.045548	0.924302
Zn3	Zn	1.841383	0.287785	1.257635
Zn4	Zn	1.191746	-0.496610	0.416229
Zn5	Zn	1.525079	-0.163277	0.749562
Zn6	Zn	1.858413	0.170056	1.082896
Zn7	Zn	1.057012	-0.361796	0.416233
Zn8	Zn	1.390345	-0.028462	0.749566
Zn9	Zn	1.723678	0.304871	1.082899
Zn10	Zn	1.039848	-0.513669	0.590901
Zn11	Zn	1.373181	-0.180336	0.924234
Zn12	Zn	1.706514	0.152998	1.257567
O13	O	1.115830	-0.437739	0.503583
O14	O	1.449164	-0.104406	0.836916
O15	O	1.782497	0.228928	1.170249
O16	O	1.289805	-0.394510	0.567816
O17	O	1.623138	-0.061177	0.901149
O18	O	1.956472	0.272157	1.234483
O19	O	1.188183	-0.464437	0.270001
O20	O	1.521517	-0.131104	0.603334
O21	O	1.854850	0.202229	0.936668
O22	O	1.072681	-0.251233	0.439442
O23	O	1.406015	0.082101	0.772775
O24	O	1.739348	0.415434	1.106108
O25	O	1.302317	-0.481005	0.439435
O26	O	1.635650	-0.147671	0.772769
O27	O	1.968983	0.185662	1.106102
O28	O	1.159158	-0.263786	0.567820
O29	O	1.492492	0.069548	0.901153
O30	O	1.825825	0.402881	1.234486
O31	O	1.089195	-0.365390	0.270004
O32	O	1.422528	-0.032056	0.603337
O33	O	1.755861	0.301277	0.936670
O34	O	0.941905	-0.381931	0.439376
O35	O	1.275238	-0.048597	0.772709
O36	O	1.608572	0.284736	1.106042
O37	O	1.043428	-0.510079	0.737138
O38	O	1.376762	-0.176745	1.070472
O39	O	1.710095	0.156588	1.403805
O40	O	0.929295	-0.493511	0.567704
O41	O	1.262628	-0.160178	0.901037
O42	O	1.595962	0.173155	1.234370
O43	O	1.142515	-0.411051	0.737188
O44	O	1.475849	-0.077718	1.070521
O45	O	1.809182	0.255616	1.403855
O46	O	1.171540	-0.611703	0.439370
O47	O	1.504874	-0.278369	0.772703
O48	O	1.838207	0.054964	1.106036
O49	O	1.059941	-0.624236	0.567700
O50	O	1.393275	-0.290902	0.901033
O51	O	1.726608	0.042431	1.234367
C52	C	0.906344	-0.437719	0.503533
C53	C	1.239678	-0.104385	0.836867
C54	C	1.573011	0.228948	1.170200
C55	C	0.816723	-0.437732	0.503537
C56	C	1.150056	-0.104398	0.836870
C57	C	1.483390	0.228935	1.170204
C58	C	0.743939	-0.437735	0.503550
C59	C	1.077273	-0.104401	0.836883
C60	C	1.410606	0.228932	1.170217
C61	C	0.652628	-0.437741	0.503576
C62	C	0.985962	-0.104408	0.836909
C63	C	1.319295	0.228925	1.170243
C64	C	0.579849	-0.437751	0.503603
C65	C	0.913183	-0.104418	0.836936
C66	C	1.246516	0.228915	1.170269
C67	C	0.488532	-0.437759	0.503628
C68	C	0.821866	-0.104426	0.836961
C69	C	1.155199	0.228907	1.170294
C70	C	1.115746	-0.647227	0.503550
C71	C	1.449079	-0.313893	0.836883
C72	C	1.782413	0.019440	1.170217
C73	C	1.115780	-0.736850	0.503571
C74	C	1.449114	-0.403517	0.836904
C75	C	1.782447	-0.070183	1.170237
C76	C	1.115810	-0.809634	0.503592
C77	C	1.449143	-0.476301	0.836925
C78	C	1.782476	-0.142968	1.170258
C79	C	1.115854	-0.900945	0.503615
C80	C	1.449188	-0.567612	0.836948
C81	C	1.782521	-0.234278	1.170281
C82	C	1.115895	-0.973723	0.503628
C83	C	1.449228	-0.640389	0.836961
C84	C	1.782561	-0.307056	1.170295
C85	C	1.115939	-1.065039	0.503649
C86	C	1.449272	-0.731706	0.836983
C87	C	1.782605	-0.398373	1.170316
C88	C	1.326134	-0.437760	0.503633
C89	C	1.659468	-0.104427	0.836966
C90	C	1.992801	0.228906	1.170300
C91	C	1.415753	-0.437769	0.503654
C92	C	1.749087	-0.104436	0.836988
C93	C	2.082420	0.228897	1.170321
C94	C	1.089158	-0.464373	0.776139
C95	C	1.422491	-0.131040	1.109472
C96	C	1.755824	0.202293	1.442805
C97	C	1.077791	-0.475723	0.892286
C98	C	1.411125	-0.142390	1.225619
C99	C	1.744458	0.190943	1.558952
C100	C	1.115935	-0.227436	0.503639
C101	C	1.449268	0.105898	0.836972
C102	C	1.782602	0.439231	1.170305
C103	C	1.115979	-0.137817	0.503663
C104	C	1.449313	0.195516	0.836996
C105	C	1.782646	0.528850	1.170329
C106	C	1.142446	-0.411150	0.232087
C107	C	1.475779	-0.077817	0.565420
C108	C	1.809113	0.255516	0.898754
C109	C	1.153968	-0.399573	0.115941
C110	C	1.487302	-0.066240	0.449274
C111	C	1.820635	0.267093	0.782607
C112	C	1.121750	-0.431787	0.944093
C113	C	1.455083	-0.098453	1.277426
C114	C	1.788417	0.234880	1.610759
C115	C	1.110003	-0.443516	1.064137
C116	C	1.443337	-0.110183	1.397470
C117	C	1.776670	0.223150	1.730803
H118	H	1.168078	-0.385484	0.899574
H119	H	1.501412	-0.052151	1.232907
H120	H	1.834745	0.281183	1.566241
H121	H	1.063664	-0.489814	1.108651
H122	H	1.396997	-0.156481	1.441984
H123	H	1.730331	0.176853	1.775318
Cl124	Cl	1.225518	-0.328095	1.047223
Cl125	Cl	1.558851	0.005239	1.380557
Cl126	Cl	1.892185	0.338572	1.713890
Cl127	Cl	1.006252	-0.547205	0.961010
Cl128	Cl	1.339586	-0.213871	1.294343
Cl129	Cl	1.672919	0.119462	1.627677
