data_functionalizedCrystal
_audit_creation_method	'MofGen! by Chris Wilmer'
_symmetry_space_group_name_H-M	'P1'
_symmetry_Int_Tables_number	1
_symmetry_cell_setting	triclinic
loop_
_symmetry_equiv_pos_as_xyz
  x,y,z
_cell_length_a	21.395364
_cell_length_b	12.759399
_cell_length_c	21.395356
_cell_angle_alpha	89.976567
_cell_angle_beta	89.976411
_cell_angle_gamma	90.030067
loop_
_atom_site_label
_atom_site_type_symbol
_atom_site_fract_x
_atom_site_fract_y
_atom_site_fract_z
Zn1	Zn	0.957921	-0.417874	-0.354280
Zn2	Zn	0.957854	-0.593566	-0.249510
Zn3	Zn	0.853138	-0.417948	-0.249517
Zn4	Zn	0.853134	-0.593557	-0.354250
O5	O	0.905512	-0.505736	-0.301889
O6	O	1.045590	-0.441153	-0.340392
O7	O	0.943937	-0.570305	-0.161833
O8	O	0.867067	-0.270917	-0.263429
O9	O	1.045541	-0.570233	-0.263418
O10	O	0.944051	-0.270863	-0.340398
O11	O	0.867002	-0.441279	-0.161838
O12	O	0.765459	-0.441270	-0.263400
O13	O	0.867060	-0.570217	-0.441932
O14	O	0.765456	-0.570289	-0.340348
O15	O	0.944047	-0.441144	-0.441954
O16	O	0.943933	-0.740586	-0.263389
O17	O	0.866995	-0.740579	-0.340341
C18	C	0.742724	-0.505787	-0.301872
C19	C	0.673083	-0.505835	-0.301879
C20	C	0.640418	-0.438732	-0.342021
C21	C	0.574982	-0.438704	-0.342024
C22	C	0.542214	-0.505797	-0.301891
C23	C	0.574887	-0.572904	-0.261741
C24	C	0.640322	-0.572923	-0.261735
C25	C	0.438506	-0.600413	-0.296857
C26	C	0.373073	-0.600397	-0.296867
C27	C	0.340394	-0.505740	-0.301904
C28	C	0.373156	-0.411097	-0.306945
C29	C	0.438590	-0.411115	-0.306939
C30	C	0.471262	-0.505784	-0.301892
C31	C	0.236776	-0.438601	-0.342051
C32	C	0.171340	-0.438572	-0.342049
C33	C	0.171246	-0.572781	-0.261770
C34	C	0.236681	-0.572801	-0.261768
C35	C	0.269442	-0.505713	-0.301913
C36	C	0.905473	-0.778704	-0.301875
C37	C	0.905514	-0.895480	-0.301890
C38	C	0.945621	-0.950311	-0.261867
C39	C	0.945661	-1.060035	-0.261888
C40	C	0.865482	-1.060088	-0.341957
C41	C	0.865446	-0.950366	-0.341939
C42	C	1.019615	-1.209876	-0.239593
C43	C	1.059717	-1.264711	-0.199560
C44	C	1.069355	-1.229153	-0.138427
C45	C	1.038882	-1.138763	-0.117315
C46	C	0.998776	-1.083934	-0.157345
C47	C	0.989150	-1.119490	-0.218487
C48	C	0.791491	-0.800523	-0.364227
C49	C	0.751381	-0.745692	-0.404254
C50	C	0.741737	-0.781247	-0.465388
C51	C	0.772199	-0.871641	-0.486498
C52	C	0.812308	-0.926472	-0.446471
C53	C	0.821954	-0.890909	-0.385337
C54	C	1.068935	-0.505686	-0.301907
C55	C	1.138576	-0.505664	-0.301915
C56	C	0.905561	-0.505671	-0.465313
C57	C	0.905582	-0.505643	-0.534954
C58	C	0.905567	-0.231703	-0.301917
C59	C	0.905591	-0.114926	-0.301929
C60	C	0.865533	-0.438452	-0.567660
C61	C	0.865531	-0.438432	-0.633095
C62	C	0.905589	-0.505593	-0.665822
C63	C	0.945641	-0.572798	-0.633109
C64	C	0.945637	-0.572823	-0.567675
C65	C	0.962042	-0.513829	-0.769509
C66	C	0.962047	-0.513796	-0.834942
C67	C	0.905599	-0.505522	-0.867643
C68	C	0.849145	-0.497259	-0.834903
C69	C	0.849142	-0.497284	-0.769469
C70	C	0.905597	-0.505574	-0.736775
C71	C	0.865544	-0.438306	-0.971302
C72	C	0.865541	-0.438294	-1.036738
C73	C	0.945657	-0.572654	-1.036751
C74	C	0.945654	-0.572672	-0.971315
C75	C	0.905599	-0.505492	-0.938595
C76	C	0.905499	-0.505725	-0.139102
C77	C	0.905599	-0.505457	-0.069461
H78	H	0.465262	-0.334053	-0.311041
H79	H	0.832929	-0.383606	-0.944659
H80	H	0.263452	-0.383967	-0.374735
H81	H	1.008015	-0.520520	-0.861594
C82	C	0.337218	-0.306968	-0.312488
H83	H	0.293556	-0.320507	-0.311764
H84	H	0.347974	-0.273464	-0.350666
H85	H	0.347945	-0.262701	-0.278447
C86	C	0.787048	-0.488188	-0.870865
H87	H	0.795132	-0.489377	-0.914524
H88	H	0.767014	-0.424245	-0.860150
H89	H	0.760692	-0.545369	-0.860117
C90	C	0.676257	-0.646742	-0.217581
H91	H	0.719920	-0.637141	-0.223324
H92	H	0.665508	-0.717349	-0.226676
H93	H	0.665522	-0.631261	-0.175497
C94	C	0.821486	-0.364379	-1.072715
H95	H	0.797636	-0.324369	-1.043853
H96	H	0.794176	-0.404561	-1.098226
H97	H	0.845471	-0.318587	-1.098254
H98	H	1.008012	-0.520557	-0.742889
C99	C	0.135209	-0.646587	-0.217626
H100	H	0.091560	-0.636972	-0.223382
H101	H	0.145918	-0.631129	-0.175543
H102	H	0.145909	-0.717203	-0.226731
H103	H	0.978274	-0.627336	-1.063396
H104	H	0.799345	-0.771558	-0.314448
C105	C	0.821471	-0.364563	-0.531671
H106	H	0.797616	-0.324548	-0.560525
H107	H	0.845447	-0.318791	-0.506157
H108	H	0.794157	-0.404773	-0.506132
H109	H	0.978268	-0.627384	-0.944686
H110	H	0.837114	-1.000073	-0.463665
C111	C	0.821407	-1.120461	-0.386006
H112	H	0.797519	-1.072088	-0.409844
H113	H	0.794132	-1.163342	-0.362022
H114	H	0.845380	-1.163186	-0.413336
C115	C	0.989705	-0.646669	-0.669106
H116	H	0.983977	-0.637024	-0.712761
H117	H	0.980522	-0.717268	-0.658373
H118	H	1.031807	-0.631277	-0.658397
C119	C	0.989697	-0.646730	-0.531697
H120	H	1.013557	-0.686725	-0.560557
H121	H	0.965720	-0.692521	-0.506154
H122	H	1.017007	-0.606532	-0.506189
C123	C	0.821479	-0.364512	-0.669079
H124	H	0.797627	-0.324502	-0.640220
H125	H	0.794172	-0.404692	-0.694594
H126	H	0.845468	-0.318721	-0.694615
H127	H	1.084528	-1.338307	-0.216756
C128	C	0.135408	-0.364755	-0.386208
H129	H	0.164293	-0.324813	-0.410118
H130	H	0.109890	-0.318913	-0.362293
H131	H	0.109878	-0.405008	-0.413468
H132	H	1.102007	-1.273806	-0.105832
C133	C	0.787050	-0.488207	-0.733455
H134	H	0.795136	-0.489401	-0.689802
H135	H	0.760683	-0.545363	-0.744161
H136	H	0.767028	-0.424242	-0.744175
C137	C	0.989700	-0.889940	-0.217821
H138	H	1.013596	-0.938314	-0.193992
H139	H	0.965735	-0.847211	-0.190491
H140	H	1.016976	-0.847063	-0.241812
C141	C	0.676452	-0.364925	-0.386170
H142	H	0.647622	-0.324949	-0.410074
H143	H	0.701978	-0.405175	-0.413427
H144	H	0.701981	-0.319097	-0.362241
H145	H	0.548381	-0.384056	-0.374711
H146	H	0.263277	-0.627448	-0.229083
H147	H	0.346403	-0.677461	-0.292766
H148	H	1.011778	-1.238829	-0.289375
H149	H	0.764346	-0.900591	-0.536278
C150	C	0.474446	-0.704544	-0.291321
H151	H	0.445564	-0.760905	-0.288331
H152	H	0.499957	-0.703115	-0.255003
H153	H	0.499983	-0.713857	-0.327224
H154	H	0.548204	-0.627531	-0.229063
H155	H	0.709074	-0.736595	-0.497977
C156	C	0.965262	-0.984510	-0.134130
H157	H	0.976746	-0.971181	-0.091987
H158	H	0.921325	-0.994398	-0.136626
H159	H	0.977052	-0.926600	-0.159453
H160	H	1.046728	-1.109825	-0.067532
H161	H	0.726581	-0.672084	-0.387062
