data_functionalizedCrystal
_audit_creation_method	'MofGen! by Chris Wilmer'
_symmetry_space_group_name_H-M	'P1'
_symmetry_Int_Tables_number	1
_symmetry_cell_setting	triclinic
loop_
_symmetry_equiv_pos_as_xyz
  x,y,z
_cell_length_a	16.959454
_cell_length_b	16.959455
_cell_length_c	12.759393
_cell_angle_alpha	89.978381
_cell_angle_beta	89.970360
_cell_angle_gamma	90.017022
loop_
_atom_site_label
_atom_site_type_symbol
_atom_site_fract_x
_atom_site_fract_y
_atom_site_fract_z
Zn1	Zn	-0.314708	1.208441	-0.594045
Zn2	Zn	0.185292	1.708441	-0.094045
Zn3	Zn	-0.446907	1.208346	-0.418368
Zn4	Zn	0.053093	1.708346	0.081632
Zn5	Zn	-0.314739	1.076252	-0.418378
Zn6	Zn	0.185261	1.576252	0.081622
Zn7	Zn	-0.446841	1.076234	-0.594003
Zn8	Zn	0.053159	1.576234	-0.094003
O9	O	-0.380799	1.142318	-0.506199
O10	O	0.119201	1.642318	-0.006199
O11	O	-0.332259	1.319039	-0.570755
O12	O	0.167741	1.819039	-0.070755
O13	O	-0.429415	1.190792	-0.271348
O14	O	0.070585	1.690792	0.228652
O15	O	-0.204124	1.093835	-0.441703
O16	O	0.295876	1.593835	0.058297
O17	O	-0.429385	1.318970	-0.441685
O18	O	0.070615	1.818970	0.058315
O19	O	-0.204101	1.190953	-0.570765
O20	O	0.295899	1.690953	-0.070765
O21	O	-0.332312	1.093743	-0.271356
O22	O	0.167688	1.593743	0.228644
O23	O	-0.332248	0.965639	-0.441662
O24	O	0.167752	1.465639	0.058338
O25	O	-0.429273	1.093803	-0.741030
O26	O	0.070727	1.593803	-0.241030
O27	O	-0.429303	0.965625	-0.570693
O28	O	0.070697	1.465625	-0.070693
O29	O	-0.332195	1.190935	-0.741061
O30	O	0.167805	1.690935	-0.241061
O31	O	-0.557509	1.190774	-0.441645
O32	O	-0.057509	1.690774	0.058355
O33	O	-0.557461	1.093712	-0.570683
O34	O	-0.057461	1.593712	-0.070683
C35	C	-0.380773	0.936952	-0.506175
C36	C	0.119227	1.436952	-0.006175
C37	C	-0.380780	0.849095	-0.506189
C38	C	0.119220	1.349095	-0.006189
C39	C	-0.586165	1.142252	-0.506181
C40	C	-0.086165	1.642252	-0.006181
C41	C	-0.674022	1.142296	-0.506208
C42	C	-0.174022	1.642296	-0.006208
C43	C	-0.330221	0.477603	-0.439153
C44	C	0.169779	0.977603	0.060847
C45	C	-0.431441	0.477637	-0.573305
C46	C	0.068559	0.977637	-0.073305
C47	C	-0.431430	0.560183	-0.573299
C48	C	0.068570	1.060183	-0.073299
C49	C	-0.380814	0.601442	-0.506217
C50	C	0.119186	1.101442	-0.006217
C51	C	-0.330210	0.560156	-0.439142
C52	C	0.169790	1.060156	0.060858
C53	C	-0.482039	0.601476	-0.640365
C54	C	0.017961	1.101476	-0.140365
C55	C	-0.482031	0.684027	-0.640360
C56	C	0.017969	1.184027	-0.140360
C57	C	-0.431410	0.725288	-0.573283
C58	C	0.068590	1.225288	-0.073283
C59	C	-0.380803	0.683996	-0.506206
C60	C	0.119197	1.183996	-0.006206
C61	C	-0.330187	0.725255	-0.439125
C62	C	0.169813	1.225255	0.060875
C63	C	-0.279575	0.683965	-0.372053
C64	C	0.220425	1.183965	0.127947
C65	C	-0.279589	0.601417	-0.372065
C66	C	0.220411	1.101417	0.127935
C67	C	-0.431396	0.807836	-0.573271
C68	C	0.068604	1.307836	-0.073271
C69	C	-0.330176	0.807809	-0.439114
C70	C	0.169824	1.307809	0.060886
C71	C	-1.045502	1.091851	-0.573382
C72	C	-0.545502	1.591851	-0.073382
C73	C	-1.045492	1.193006	-0.439123
C74	C	-0.545492	1.693006	0.060877
C75	C	-0.962946	1.192978	-0.439113
C76	C	-0.462946	1.692978	0.060887
C77	C	-0.921674	1.142385	-0.506238
C78	C	-0.421674	1.642385	-0.006238
C79	C	-0.962948	1.091820	-0.573372
C80	C	-0.462948	1.591820	-0.073372
C81	C	-0.921666	1.243536	-0.371972
C82	C	-0.421666	1.743536	0.128028
C83	C	-0.839115	1.243510	-0.371959
C84	C	-0.339115	1.743510	0.128041
C85	C	-0.797842	1.192921	-0.439090
C86	C	-0.297842	1.692921	0.060910
C87	C	-0.839121	1.142355	-0.506228
C88	C	-0.339121	1.642355	-0.006228
C89	C	-0.797849	1.091762	-0.573353
C90	C	-0.297849	1.591762	-0.073353
C91	C	-0.839126	1.041199	-0.640497
C92	C	-0.339126	1.541199	-0.140497
C93	C	-0.921675	1.041231	-0.640503
C94	C	-0.421675	1.541231	-0.140503
C95	C	-0.715293	1.192889	-0.439084
C96	C	-0.215293	1.692889	0.060916
C97	C	-0.715295	1.091731	-0.573343
C98	C	-0.215295	1.591731	-0.073343
C99	C	-0.174630	1.142406	-0.506240
C100	C	0.325370	1.642406	-0.006240
C101	C	-0.086774	1.142444	-0.506257
C102	C	0.413226	1.642444	-0.006257
C103	C	-0.380723	1.142377	-0.780232
C104	C	0.119277	1.642377	-0.280232
C105	C	-0.380690	1.142403	-0.897009
C106	C	0.119310	1.642403	-0.397009
C107	C	-0.380825	1.348486	-0.506224
C108	C	0.119175	1.848486	-0.006224
C109	C	-0.380837	1.436343	-0.506234
C110	C	0.119163	1.936343	-0.006234
C111	C	-0.330134	1.192983	-0.951889
C112	C	0.169866	1.692983	-0.451889
C113	C	-0.330100	1.192996	-1.061613
C114	C	0.169900	1.692996	-0.561613
C115	C	-0.431186	1.091847	-1.061568
C116	C	0.068814	1.591847	-0.561568
C117	C	-0.431215	1.091830	-0.951846
C118	C	0.068785	1.591830	-0.451846
C119	C	-0.380817	1.142305	-0.233231
C120	C	0.119183	1.642305	0.266769
C121	C	-0.380627	1.142433	-0.116455
C122	C	0.119373	1.642433	0.383545
H123	H	-0.288953	0.841397	-0.384494
H124	H	0.211047	1.341397	0.115506
H125	H	-0.523241	0.717638	-0.694975
H126	H	-0.023241	1.217638	-0.194975
Cl127	Cl	-1.097378	1.256605	-0.354743
Cl128	Cl	-0.597378	1.756605	0.145257
H129	H	-0.472384	1.050636	-0.907161
H130	H	0.027616	1.550636	-0.407161
H131	H	-0.238367	0.717570	-0.317430
H132	H	0.261633	1.217570	0.182570
Cl133	Cl	-0.787231	1.307081	-0.287561
Cl134	Cl	-0.287231	1.807081	0.212439
H135	H	-0.238385	0.567791	-0.317457
H136	H	0.261615	1.067791	0.182543
H137	H	-0.472606	0.841451	-0.627877
H138	H	0.027394	1.341451	-0.127877
Cl139	Cl	-0.266547	1.256593	-1.130600
Cl140	Cl	0.233453	1.756593	-0.630600
Cl141	Cl	-0.494703	1.028278	-1.130513
Cl142	Cl	0.005297	1.528278	-0.630513
H143	H	-0.289012	0.443981	-0.384547
H144	H	0.210988	0.943981	0.115453
Cl145	Cl	-0.663417	1.028129	-0.657739
Cl146	Cl	-0.163417	1.528129	-0.157739
Cl147	Cl	-0.266614	1.256556	-0.882955
Cl148	Cl	0.233386	1.756556	-0.382955
H149	H	-0.805513	1.000002	-0.695145
H150	H	-0.305513	1.500002	-0.195145
H151	H	-0.955290	1.000065	-0.695167
H152	H	-0.455290	1.500065	-0.195167
H153	H	-0.523254	0.567876	-0.694971
H154	H	-0.023254	1.067876	-0.194971
Cl155	Cl	-0.495086	0.425767	-0.657609
Cl156	Cl	0.004914	0.925767	-0.157609
H157	H	-1.079114	1.050686	-0.628052
H158	H	-0.579114	1.550686	-0.128052
Cl159	Cl	-0.973554	1.307139	-0.287600
Cl160	Cl	-0.473554	1.807139	0.212400
H161	H	-0.681689	1.234053	-0.384411
H162	H	-0.181689	1.734053	0.115589
