data_functionalizedCrystal
_audit_creation_method	'MofGen! by Chris Wilmer'
_symmetry_space_group_name_H-M	'P1'
_symmetry_Int_Tables_number	1
_symmetry_cell_setting	triclinic
loop_
_symmetry_equiv_pos_as_xyz
  x,y,z
_cell_length_a	15.299816
_cell_length_b	18.050591
_cell_length_c	15.296720
_cell_angle_alpha	99.654681
_cell_angle_beta	110.757046
_cell_angle_gamma	80.345724
loop_
_atom_site_label
_atom_site_type_symbol
_atom_site_fract_x
_atom_site_fract_y
_atom_site_fract_z
Zn1	Zn	0.461305	-1.116933	0.590176
Zn2	Zn	0.961305	-0.616933	1.090176
Zn3	Zn	0.589901	-1.153491	0.461611
Zn4	Zn	1.089901	-0.653491	0.961611
Zn5	Zn	0.434421	-1.011081	0.434665
Zn6	Zn	0.934421	-0.511081	0.934665
Zn7	Zn	0.616712	-1.011020	0.617034
Zn8	Zn	1.116712	-0.511020	1.117034
O9	O	0.525585	-1.073131	0.525872
O10	O	1.025585	-0.573131	1.025872
O11	O	0.478394	-1.225706	0.573158
O12	O	0.978394	-0.725706	1.073158
O13	O	0.546805	-1.149925	0.327910
O14	O	1.046805	-0.649925	0.827910
O15	O	0.307880	-1.009849	0.432777
O16	O	0.807880	-0.509849	0.932777
O17	O	0.572873	-1.252565	0.478702
O18	O	1.072873	-0.752565	0.978702
O19	O	0.327631	-1.087617	0.547029
O20	O	0.827631	-0.587617	1.047029
O21	O	0.432574	-1.045298	0.308113
O22	O	0.932574	-0.545298	0.808113
O23	O	0.458572	-0.907149	0.458820
O24	O	0.958572	-0.407149	0.958820
O25	O	0.618568	-1.009744	0.743598
O26	O	1.118568	-0.509744	1.243598
O27	O	0.592500	-0.907104	0.592806
O28	O	1.092500	-0.407104	1.092806
O29	O	0.504391	-1.087558	0.723865
O30	O	1.004391	-0.587558	1.223865
O31	O	0.723565	-1.149866	0.504746
O32	O	1.223565	-0.649866	1.004746
O33	O	0.743263	-1.045193	0.618935
O34	O	1.243263	-0.545193	1.118935
C35	C	0.525529	-0.880181	0.525805
C36	C	1.025529	-0.380181	1.025805
C37	C	0.525531	-0.797636	0.525802
C38	C	1.025531	-0.297636	1.025802
C39	C	0.767153	-1.101508	0.567699
C40	C	1.267153	-0.601508	1.067699
C41	C	0.870502	-1.113712	0.585624
C42	C	1.370502	-0.613712	1.085624
C43	C	0.452643	-0.548788	0.453057
C44	C	0.952643	-0.048788	0.953057
C45	C	0.444679	-0.585550	0.534005
C46	C	0.944679	-0.085550	1.034005
C47	C	0.525569	-0.500512	0.525863
C48	C	1.025569	-0.000512	1.025863
C49	C	0.533471	-0.610828	0.444883
C50	C	1.033471	-0.110828	0.944883
C51	C	0.525547	-0.646499	0.525828
C52	C	1.025547	-0.146499	1.025828
C53	C	0.517569	-0.536176	0.606849
C54	C	1.017569	-0.036176	1.106849
C55	C	0.606391	-0.561461	0.517676
C56	C	1.106391	-0.061461	1.017676
C57	C	0.598470	-0.598197	0.598688
C58	C	1.098470	-0.098197	1.098688
C59	C	0.525579	-0.416412	0.525882
C60	C	1.025579	0.083588	1.025882
C61	C	0.525539	-0.730596	0.525819
C62	C	1.025539	-0.230596	1.025819
C63	C	0.283077	-1.044662	0.483901
C64	C	0.783077	-0.544662	0.983901
C65	C	0.179734	-1.032530	0.466016
C66	C	0.679734	-0.532530	0.966016
C67	C	1.120968	-0.986358	0.398075
C68	C	1.620968	-0.486358	0.898075
C69	C	1.023867	-0.974887	0.381235
C70	C	1.523867	-0.474887	0.881235
C71	C	0.985521	-1.009593	0.432331
C72	C	1.485521	-0.509593	0.932331
C73	C	1.044286	-1.055770	0.500269
C74	C	1.544286	-0.555770	1.000269
C75	C	1.141398	-1.067236	0.517115
C76	C	1.641398	-0.567236	1.017115
C77	C	1.005950	-1.090471	0.551371
C78	C	1.505950	-0.590471	1.051371
C79	C	1.064716	-1.136649	0.619309
C80	C	1.564716	-0.636649	1.119309
C81	C	1.161818	-1.148114	0.636152
C82	C	1.661818	-0.648114	1.136152
C83	C	1.200164	-1.113408	0.585056
C84	C	1.700164	-0.613408	1.085056
C85	C	0.908838	-1.079005	0.534525
C86	C	1.408838	-0.579005	1.034525
C87	C	0.929268	-1.159884	0.653565
C88	C	1.429268	-0.659884	1.153565
C89	C	1.026370	-1.171354	0.670404
C90	C	1.526370	-0.671354	1.170404
C91	C	0.567469	-1.044566	0.768416
C92	C	1.067469	-0.544566	1.268416
C93	C	0.585318	-1.032393	0.871774
C94	C	1.085318	-0.532393	1.371774
C95	C	0.525622	-0.266835	0.525920
C96	C	1.025622	0.233165	1.025920
C97	C	0.525588	-0.349380	0.525892
C98	C	1.025588	0.150620	1.025892
C99	C	0.483796	-1.101620	0.284259
C100	C	0.983796	-0.601620	0.784259
C101	C	0.465685	-1.113906	0.180857
C102	C	0.965685	-0.613906	0.680857
C103	C	0.397854	-1.160141	1.122028
C104	C	0.897854	-0.660141	1.622028
C105	C	0.381086	-1.171582	1.024918
C106	C	0.881086	-0.671582	1.524918
C107	C	0.432142	-1.136786	0.986627
C108	C	0.932142	-0.636786	1.486627
C109	C	0.499970	-1.090546	1.045455
C110	C	0.999970	-0.590546	1.545455
C111	C	0.516745	-1.079108	1.142575
C112	C	1.016745	-0.579108	1.642575
C113	C	0.551033	-1.055753	1.007175
C114	C	1.051033	-0.555753	1.507175
C115	C	0.618861	-1.009513	1.066003
C116	C	1.118861	-0.509513	1.566003
C117	C	0.635633	-0.998077	1.163113
C118	C	1.135633	-0.498077	1.663113
C119	C	0.584577	-1.032873	1.201404
C120	C	1.084577	-0.532873	1.701404
C121	C	0.534258	-1.067191	0.910055
C122	C	1.034258	-0.567191	1.410055
C123	C	0.653149	-0.986159	0.930602
C124	C	1.153149	-0.486159	1.430602
C125	C	0.669918	-0.974717	1.027712
C126	C	1.169918	-0.474717	1.527712
H127	H	0.390952	-0.527080	0.391560
H128	H	0.890952	-0.027080	0.891560
H129	H	0.376320	-0.596533	0.540934
H130	H	0.876320	-0.096533	1.040934
Cl131	Cl	0.720918	-0.939961	1.237069
Cl132	Cl	1.220918	-0.439961	1.737069
Cl133	Cl	0.543809	-0.660807	0.339173
Cl134	Cl	1.043809	-0.160807	0.839173
H135	H	0.479031	-1.104840	0.862166
H136	H	0.979031	-0.604840	1.362166
H137	H	1.152200	-0.958102	0.356484
H138	H	1.652200	-0.458102	0.856484
Cl139	Cl	0.411058	-1.151168	0.864544
Cl140	Cl	0.911058	-0.651168	1.364544
Cl141	Cl	1.100256	-1.229402	0.755811
Cl142	Cl	1.600256	-0.729402	1.255811
Cl143	Cl	0.295820	-1.229710	0.950970
Cl144	Cl	0.795820	-0.729710	1.450970
Cl145	Cl	1.322205	-1.128004	0.606029
Cl146	Cl	1.822205	-0.628004	1.106029
H147	H	0.598226	-1.023560	1.280478
H148	H	1.098226	-0.523560	1.780478
Cl149	Cl	0.950000	-0.916830	0.295841
Cl150	Cl	1.450000	-0.416830	0.795841
Cl151	Cl	0.834974	-1.020957	0.449119
Cl152	Cl	1.334974	-0.520957	0.949119
Cl153	Cl	0.333686	-1.203886	1.170172
Cl154	Cl	0.833686	-0.703886	1.670172
Cl155	Cl	0.881070	-1.203514	0.717805
Cl156	Cl	1.381070	-0.703514	1.217805
H157	H	1.209663	-1.185711	0.691475
H158	H	1.709663	-0.685711	1.191475
Cl159	Cl	0.755186	-0.916590	1.101678
Cl160	Cl	1.255186	-0.416590	1.601678
H161	H	0.660143	-0.619750	0.660304
H162	H	1.160143	-0.119750	1.160304
H163	H	0.674723	-0.550448	0.510729
H164	H	1.174723	-0.050448	1.010729
H165	H	0.694725	-0.957826	0.899427
H166	H	1.194725	-0.457826	1.399427
Cl167	Cl	0.863506	-0.994874	0.411485
Cl168	Cl	1.363506	-0.494874	0.911485
Cl169	Cl	0.507107	-0.486325	0.712570
Cl170	Cl	1.007107	0.013675	1.212570
