data_functionalizedCrystal
_audit_creation_method	'MofGen! by Chris Wilmer'
_symmetry_space_group_name_H-M	'P1'
_symmetry_Int_Tables_number	1
_symmetry_cell_setting	triclinic
loop_
_symmetry_equiv_pos_as_xyz
  x,y,z
_cell_length_a	17.638686
_cell_length_b	17.640280
_cell_length_c	17.640968
_cell_angle_alpha	65.682561
_cell_angle_beta	65.692372
_cell_angle_gamma	65.687361
loop_
_atom_site_label
_atom_site_type_symbol
_atom_site_fract_x
_atom_site_fract_y
_atom_site_fract_z
Zn1	Zn	1.434158	-0.475596	-0.640339
Zn2	Zn	1.934158	0.024404	-0.140339
Zn3	Zn	1.434088	-0.641253	-0.474689
Zn4	Zn	1.934088	-0.141253	0.025311
Zn5	Zn	1.268478	-0.475556	-0.474741
Zn6	Zn	1.768478	0.024444	0.025259
Zn7	Zn	1.316157	-0.593471	-0.592680
Zn8	Zn	1.816157	-0.093471	-0.092680
O9	O	1.363220	-0.546469	-0.545612
O10	O	1.863220	-0.046469	-0.045612
O11	O	1.552841	-0.517584	-0.638289
O12	O	2.052841	-0.017584	-0.138289
O13	O	1.392137	-0.639253	-0.356012
O14	O	1.892137	-0.139253	0.143988
O15	O	1.270531	-0.356885	-0.516675
O16	O	1.770531	0.143115	-0.016675
O17	O	1.552790	-0.639292	-0.516587
O18	O	2.052790	-0.139292	-0.016587
O19	O	1.392255	-0.356915	-0.638339
O20	O	1.892255	0.143085	-0.138339
O21	O	1.270464	-0.517516	-0.356050
O22	O	1.770464	-0.017516	0.143950
O23	O	1.156111	-0.471184	-0.470462
O24	O	1.656111	0.028816	0.029538
O25	O	1.351793	-0.557855	-0.717686
O26	O	1.851793	-0.057855	-0.217686
O27	O	1.191141	-0.557816	-0.557112
O28	O	1.691141	-0.057816	-0.057112
O29	O	1.438488	-0.471252	-0.752701
O30	O	1.938488	0.028748	-0.252701
O31	O	1.438369	-0.753591	-0.470374
O32	O	1.938369	-0.253591	0.029626
O33	O	1.351726	-0.718486	-0.557061
O34	O	1.851726	-0.218486	-0.057061
C35	C	1.142850	-0.509311	-0.508621
C36	C	1.642850	-0.009311	-0.008621
C37	C	1.048582	-0.493432	-0.492813
C38	C	1.548582	0.006568	0.007187
C39	C	0.829849	-0.667251	-0.665889
C40	C	1.329849	-0.167251	-0.165889
C41	C	0.741265	-0.652326	-0.651014
C42	C	1.241265	-0.152326	-0.151014
C43	C	0.704755	-0.561919	-0.560982
C44	C	1.204755	-0.061919	-0.060982
C45	C	0.793338	-0.576840	-0.575846
C46	C	1.293338	-0.076840	-0.075846
C47	C	0.855879	-0.629505	-0.628301
C48	C	1.355879	-0.129505	-0.128301
C49	C	0.819367	-0.539095	-0.538257
C50	C	1.319367	-0.039095	-0.038257
C51	C	0.907943	-0.554011	-0.553124
C52	C	1.407943	-0.054011	-0.053124
C53	C	0.970488	-0.606672	-0.605578
C54	C	1.470488	-0.106672	-0.105578
C55	C	0.944454	-0.644421	-0.643167
C56	C	1.444454	-0.144421	-0.143167
C57	C	0.756825	-0.486425	-0.485808
C58	C	1.256825	0.013575	0.014192
C59	C	0.782854	-0.448679	-0.448220
C60	C	1.282854	0.051321	0.051780
C61	C	0.871431	-0.463600	-0.463080
C62	C	1.371431	0.036400	0.036920
C63	C	0.933977	-0.516261	-0.515535
C64	C	1.433977	-0.016261	-0.015535
C65	C	0.897465	-0.425851	-0.425492
C66	C	1.397465	0.074149	0.074508
C67	C	0.986041	-0.440767	-0.440358
C68	C	1.486041	0.059233	0.059642
C69	C	1.022552	-0.531177	-0.530401
C70	C	1.522552	-0.031177	-0.030401
C71	C	1.400240	-0.766810	-0.508563
C72	C	1.900240	-0.266810	-0.008563
C73	C	1.416160	-0.861081	-0.492754
C74	C	1.916160	-0.361081	0.007246
C75	C	1.242681	-1.079893	-0.666076
C76	C	1.742681	-0.579893	-0.166076
C77	C	1.257637	-1.168480	-0.651194
C78	C	1.757637	-0.668480	-0.151194
C79	C	1.347944	-1.204962	-0.561047
C80	C	1.847944	-0.704962	-0.061047
C81	C	1.332999	-1.116377	-0.575924
C82	C	1.832999	-0.616377	-0.075924
C83	C	1.280366	-1.053848	-0.628439
C84	C	1.780366	-0.553848	-0.128439
C85	C	1.370684	-1.090332	-0.538287
C86	C	1.870684	-0.590332	-0.038287
C87	C	1.355737	-1.001754	-0.553160
C88	C	1.855737	-0.501754	-0.053160
C89	C	1.303104	-0.939221	-0.605670
C90	C	1.803104	-0.439221	-0.105670
C91	C	1.265418	-0.965270	-0.643311
C92	C	1.765418	-0.465270	-0.143311
C93	C	1.423312	-1.152862	-0.485769
C94	C	1.923312	-0.652862	0.014231
C95	C	1.460998	-1.126817	-0.448132
C96	C	1.960998	-0.626817	0.051868
C97	C	1.446055	-1.038237	-0.463009
C98	C	1.946055	-0.538237	0.036991
C99	C	1.393422	-0.975704	-0.515518
C100	C	1.893422	-0.475704	-0.015518
C101	C	1.483741	-1.012188	-0.425367
C102	C	1.983741	-0.512188	0.074633
C103	C	1.468793	-0.923610	-0.440240
C104	C	1.968793	-0.423610	0.059760
C105	C	1.378475	-0.887126	-0.530391
C106	C	1.878475	-0.387126	-0.030391
C107	C	1.584451	-0.583772	-0.582748
C108	C	2.084451	-0.083772	-0.082748
C109	C	1.678726	-0.599669	-0.598574
C110	C	2.178726	-0.099669	-0.098574
C111	C	1.400467	-0.509228	-0.766827
C112	C	1.900467	-0.009228	-0.266827
C113	C	1.416339	-0.493358	-0.861095
C114	C	1.916339	0.006642	-0.361095
C115	C	1.326082	-0.325268	-0.582829
C116	C	1.826082	0.174732	-0.082829
C117	C	1.310256	-0.231006	-0.598689
C118	C	1.810256	0.268994	-0.098689
C119	C	1.242889	-0.666624	-1.079985
C120	C	1.742889	-0.166624	-0.579985
C121	C	1.257819	-0.651704	-1.168569
C122	C	1.757819	-0.151704	-0.668569
C123	C	1.348086	-0.561532	-1.205017
C124	C	1.848086	-0.061532	-0.705017
C125	C	1.333160	-0.576441	-1.116434
C126	C	1.833160	-0.076441	-0.616434
C127	C	1.280561	-0.628989	-1.053924
C128	C	1.780561	-0.128989	-0.553924
C129	C	1.370833	-0.538806	-1.090373
C130	C	1.870833	-0.038806	-0.590373
C131	C	1.355911	-0.553718	-1.001798
C132	C	1.855911	-0.053718	-0.501798
C133	C	1.303317	-0.606265	-0.939283
C134	C	1.803317	-0.106265	-0.439283
C135	C	1.265640	-0.643900	-0.965349
C136	C	1.765640	-0.143900	-0.465349
C137	C	1.423436	-0.486264	-1.152884
C138	C	1.923436	0.013736	-0.652884
C139	C	1.461109	-0.448629	-1.126823
C140	C	1.961109	0.051371	-0.626823
C141	C	1.446182	-0.463535	-1.038246
C142	C	1.946182	0.036465	-0.538246
C143	C	1.393588	-0.516082	-0.975732
C144	C	1.893588	-0.016082	-0.475732
C145	C	1.483859	-0.425900	-1.012181
C146	C	1.983859	0.074100	-0.512181
C147	C	1.468938	-0.440811	-0.923605
C148	C	1.968938	0.059189	-0.423605
C149	C	1.378666	-0.530994	-0.887156
C150	C	1.878666	-0.030994	-0.387156
C151	C	1.326157	-0.583512	-0.325277
C152	C	1.826157	-0.083512	0.174723
C153	C	1.310409	-0.599171	-0.231076
C154	C	1.810409	-0.099171	0.268924
H155	H	0.684702	-0.474277	-0.473711
H156	H	1.184702	0.025723	0.026289
H157	H	1.335622	-0.836212	-0.573161
H158	H	1.835622	-0.336212	-0.073161
F159	F	0.896415	-0.723313	-0.721708
F160	F	1.396415	-0.223313	-0.221708
F161	F	1.287373	-0.844947	-0.621677
F162	F	1.787373	-0.344947	-0.121677
H163	H	1.499480	-0.902406	-0.409591
H164	H	1.999480	-0.402406	0.090409
F165	F	1.217513	-1.196193	-0.691248
F166	F	1.717513	-0.696193	-0.191248
H167	H	1.291173	-0.618408	-0.867160
H168	H	1.791173	-0.118408	-0.367160
H169	H	1.007233	-0.410023	-0.409757
H170	H	1.507233	0.089977	0.090243
F171	F	1.209650	-0.699819	-0.898816
F172	F	1.709650	-0.199819	-0.398816
H173	H	1.390795	-1.255884	-0.518287
H174	H	1.890795	-0.755884	-0.018287
F175	F	1.011020	-0.700483	-0.698986
F176	F	1.511020	-0.200483	-0.198986
H177	H	1.073478	-0.574068	-0.573110
H178	H	1.573478	-0.074068	-0.073110
H179	H	1.222566	-0.914356	-0.686081
H180	H	1.722566	-0.414356	-0.186081
H181	H	1.042611	-0.618810	-0.617686
H182	H	1.542611	-0.118810	-0.117686
H183	H	0.731922	-0.405797	-0.405514
H184	H	1.231922	0.094203	0.094486
H185	H	0.846532	-0.382964	-0.382790
H186	H	1.346532	0.117036	0.117210
F187	F	1.539749	-1.078744	-0.369474
F188	F	2.039749	-0.578744	0.130526
F189	F	0.713567	-0.692501	-0.691028
F190	F	1.213567	-0.192501	-0.191028
F191	F	1.509036	-0.400758	-0.895867
F192	F	2.009036	0.099242	-0.395867
F193	F	1.186671	-1.013340	-0.721976
F194	F	1.686671	-0.513340	-0.221976
H195	H	1.200034	-0.709389	-1.029085
H196	H	1.700034	-0.209389	-0.529085
H197	H	1.435484	-1.224986	-0.473664
H198	H	1.935484	-0.724986	0.026336
H199	H	0.653822	-0.519036	-0.518276
H200	H	1.153822	-0.019036	-0.018276
H201	H	1.503849	-1.177739	-0.405372
H202	H	2.003849	-0.677739	0.094628
F203	F	1.322677	-0.586913	-0.820623
F204	F	1.822677	-0.086913	-0.320623
F205	F	1.517089	-0.392709	-1.193358
F206	F	2.017089	0.107291	-0.693358
F207	F	1.217716	-0.691763	-1.196300
F208	F	1.717716	-0.191763	-0.696300
H209	H	1.390915	-0.518751	-1.255924
H210	H	1.890915	-0.018751	-0.755924
F211	F	1.439319	-0.470398	-1.247155
F212	F	1.939319	0.029602	-0.747155
F213	F	1.539846	-0.369987	-1.078717
F214	F	2.039846	0.130013	-0.578717
