data_functionalizedCrystal
_audit_creation_method	'MofGen! by Chris Wilmer'
_symmetry_space_group_name_H-M	'P1'
_symmetry_Int_Tables_number	1
_symmetry_cell_setting	triclinic
loop_
_symmetry_equiv_pos_as_xyz
  x,y,z
_cell_length_a	15.995350
_cell_length_b	23.532407
_cell_length_c	15.072220
_cell_angle_alpha	89.994175
_cell_angle_beta	89.991149
_cell_angle_gamma	83.170526
loop_
_atom_site_label
_atom_site_type_symbol
_atom_site_fract_x
_atom_site_fract_y
_atom_site_fract_z
O1	O	1.110385	0.073404	-0.073717
O2	O	0.866535	0.082469	-0.073736
O3	O	0.995813	-0.004967	-0.073710
O4	O	0.981107	0.160840	-0.073743
O5	O	0.995781	-0.004962	0.073856
O6	O	0.866503	0.082474	0.073829
O7	O	1.110354	0.073409	0.073848
Zn8	Zn	0.988423	0.077942	0.097268
Zn9	Zn	0.988465	0.077935	-0.097155
O10	O	0.981075	0.160845	0.073822
C11	C	0.835327	0.082096	0.000044
C12	C	0.742386	0.080973	0.000038
C13	C	0.404672	0.076938	0.000057
C14	C	0.452624	0.014668	0.000399
C15	C	0.549305	0.015792	0.000060
C16	C	0.572216	0.078939	0.000048
C17	C	0.530892	0.109650	-0.084222
C18	C	0.434269	0.108086	-0.084286
C19	C	0.433883	0.109378	0.083523
C20	C	0.530828	0.109363	0.084631
C21	C	0.666904	0.080074	0.000040
C22	C	0.309984	0.075805	0.000059
C23	C	0.995423	-0.026182	0.000075
C24	C	0.994297	-0.089404	0.000082
C25	C	1.063739	-0.488239	0.000039
C26	C	1.062693	-0.547644	0.000032
O27	O	1.127067	-0.584141	0.000004
N28	N	0.985837	-0.570566	0.000027
C29	C	0.910022	-0.534080	0.000019
O30	O	0.844554	-0.559031	0.000013
C31	C	0.911069	-0.474677	0.000019
C32	C	0.987930	-0.451758	0.000034
C33	C	1.140594	-0.465320	0.000052
C34	C	1.141640	-0.405920	0.000061
C35	C	1.065830	-0.369439	0.000056
C36	C	0.988975	-0.392358	0.000042
C37	C	0.835255	-0.438192	0.000005
C38	C	0.836308	-0.378785	0.000005
C39	C	0.913169	-0.355867	0.000020
C40	C	0.914212	-0.296477	0.000046
N41	N	0.991068	-0.273555	0.000051
C42	C	1.066877	-0.310036	0.000056
C43	C	0.907829	-0.658831	0.000016
C44	C	0.906781	-0.718233	0.000022
C45	C	1.059453	-0.731793	0.000034
C46	C	1.060500	-0.672389	0.000034
C47	C	0.984685	-0.635909	0.000022
C48	C	1.069067	-0.185291	0.000075
C49	C	1.070106	-0.125885	0.000087
C50	C	0.917435	-0.112330	0.000071
C51	C	0.916396	-0.171731	0.000063
C52	C	0.992219	-0.208210	0.000062
O53	O	0.849872	-0.259945	0.000070
O54	O	1.132335	-0.285076	0.000051
C55	C	1.141561	0.073781	0.000066
C56	C	1.234502	0.074905	0.000067
C57	C	0.981465	0.182060	0.000035
C58	C	0.982591	0.245281	0.000023
N59	N	0.988401	0.077946	0.229957
N60	N	0.988494	0.077927	-0.229844
C61	C	0.988463	0.077933	0.589158
C62	C	0.919059	0.124562	0.551537
C63	C	0.919216	0.124732	0.448711
C64	C	0.988431	0.077940	0.410954
C65	C	1.075688	0.090918	0.448249
C66	C	1.075299	0.091250	0.551107
C67	C	0.971391	0.018188	0.551269
C68	C	0.969383	0.018587	0.448405
C69	C	0.988419	0.077942	0.310241
C70	C	0.988482	0.077932	0.689872
H71	H	0.558318	0.086945	0.146973
H72	H	0.413503	0.089023	0.147397
H73	H	0.544631	0.156043	-0.087364
N74	N	0.933363	0.183500	0.416086
H75	H	0.939552	0.209391	0.468522
H76	H	0.986241	0.180580	0.378915
H77	H	0.853809	-0.190392	0.000076
H78	H	0.559457	0.088316	-0.146929
H79	H	0.545809	0.155413	0.089712
H80	H	0.854341	0.116999	0.423497
H81	H	0.401740	0.155290	0.084084
N82	N	0.933231	0.182961	0.585738
H83	H	0.888383	0.212663	0.561255
H84	H	0.930319	0.183127	0.652676
H85	H	1.132698	-0.107228	0.000101
H86	H	1.130810	-0.214986	0.000071
N87	N	0.754533	-0.339440	0.000017
H88	H	0.766852	-0.298330	0.000028
H89	H	0.721021	-0.346854	-0.054688
N90	N	1.145706	0.047129	0.415854
H91	H	1.147851	0.047967	0.348900
H92	H	1.201169	0.056333	0.440701
N93	N	0.823876	-0.742941	0.000016
H94	H	0.820044	-0.767279	-0.054689
H95	H	0.820070	-0.767261	0.054752
N96	N	1.145737	0.047984	0.584076
H97	H	1.146035	0.047863	0.651086
H98	H	1.136938	0.008698	0.561625
H99	H	1.123087	-0.653734	0.000045
N100	N	1.095314	0.148968	0.582861
H101	H	1.046922	0.167734	0.619640
H102	H	1.148141	0.143845	0.620132
N103	N	0.752347	-0.462893	-0.000004
H104	H	0.719177	-0.449581	-0.054711
H105	H	0.763235	-0.506058	0.000030
H106	H	0.401641	0.153804	-0.088119
H107	H	0.846088	-0.629131	0.000014
N108	N	0.410273	0.078415	-0.167712
H109	H	0.462438	0.066472	-0.204100
H110	H	0.382611	0.043461	-0.151300
N111	N	1.096222	0.147974	0.414109
H112	H	1.049130	0.165492	0.374493
H113	H	1.102856	0.174330	0.465855
N114	N	0.888962	0.001662	0.585663
H115	H	0.861850	0.032740	0.626161
H116	H	0.850222	-0.003381	0.534087
N117	N	1.032047	-0.029532	0.414382
H118	H	1.073859	-0.013468	0.374029
H119	H	1.062793	-0.049693	0.466137
N120	N	0.884335	0.005556	0.416182
H121	H	0.858251	0.037957	0.377477
H122	H	0.891313	-0.031132	0.380760
N123	N	1.038436	-0.027778	0.583491
H124	H	1.079676	-0.010021	0.622440
H125	H	1.011273	-0.057183	0.618664
H126	H	0.853973	0.116956	0.576295
N127	N	0.587219	-0.016181	0.080078
H128	H	0.541133	-0.031134	0.115889
H129	H	0.628856	-0.049299	0.059893
N130	N	1.141222	-0.771146	0.000039
H131	H	1.128890	-0.812254	0.000034
H132	H	1.174751	-0.763723	-0.054662
N133	N	0.835680	-0.072969	0.000082
H134	H	0.832730	-0.048013	-0.054616
H135	H	0.786868	-0.096531	0.000111
N136	N	0.428354	-0.018302	0.080452
H137	H	0.386036	0.006804	0.117275
H138	H	0.402710	-0.053316	0.060287
H139	H	0.577378	-0.008516	-0.060444
N140	N	0.426944	-0.018166	-0.079177
H141	H	0.384385	0.007122	-0.115448
H142	H	0.478152	-0.030592	-0.116749
N143	N	1.224545	-0.381212	0.000069
H144	H	1.257738	-0.394517	-0.054634
H145	H	1.213653	-0.338048	0.000104
N146	N	1.222367	-0.504663	0.000059
H147	H	1.271205	-0.481121	0.000068
H148	H	1.225247	-0.529605	0.054766
