data_functionalizedCrystal
_audit_creation_method	'MofGen! by Chris Wilmer'
_symmetry_space_group_name_H-M	'P1'
_symmetry_Int_Tables_number	1
_symmetry_cell_setting	triclinic
loop_
_symmetry_equiv_pos_as_xyz
  x,y,z
_cell_length_a	10.654550
_cell_length_b	10.723024
_cell_length_c	9.730223
_cell_angle_alpha	89.996766
_cell_angle_beta	89.999957
_cell_angle_gamma	84.476400
loop_
_atom_site_label
_atom_site_type_symbol
_atom_site_fract_x
_atom_site_fract_y
_atom_site_fract_z
O1	O	1.667813	0.175275	-0.114183
O2	O	1.302332	0.191974	-0.114208
O3	O	1.493503	0.002049	-0.114190
O4	O	1.476642	0.365199	-0.114202
O5	O	1.493490	0.002044	0.114390
O6	O	1.302319	0.191968	0.114372
O7	O	1.667800	0.175269	0.114396
Zn8	Zn	1.485058	0.183618	0.150676
Zn9	Zn	1.485074	0.183625	-0.150488
O10	O	1.476629	0.365194	0.114378
C11	C	1.255528	0.190745	0.000078
C12	C	1.116085	0.187077	0.000069
C13	C	1.036583	0.298901	0.000069
C14	C	0.905562	0.295447	0.000093
C15	C	0.933560	0.068334	0.000111
C16	C	1.064577	0.071789	0.000097
C17	C	1.492269	-0.044453	0.000098
C18	C	1.488598	-0.183008	0.000093
C19	C	1.595567	-0.257975	0.000098
C20	C	1.591776	-0.401179	0.000093
C21	C	1.714604	0.176498	0.000107
C22	C	1.854047	0.180167	0.000107
C23	C	1.477863	0.411696	0.000087
C24	C	1.481534	0.550251	0.000083
N25	N	1.485056	0.183613	0.356212
N26	N	1.485086	0.183621	-0.356024
C27	C	1.569735	0.099550	0.428146
C28	C	1.569748	0.099550	0.572029
C29	C	1.400397	0.267687	0.572032
C30	C	1.400380	0.267680	0.428151
H31	H	0.840836	0.386506	0.000097
O32	O	1.652024	0.017763	0.358477
C33	C	1.726786	-0.056412	0.452829
H34	H	1.675296	-0.058290	0.555399
H35	H	1.745087	-0.155899	0.411270
H36	H	1.820428	-0.015030	0.468112
O37	O	0.883584	-0.043682	0.000365
C38	C	0.924147	-0.111937	0.118730
H39	H	0.951975	-0.044549	0.201471
H40	H	0.844338	-0.165723	0.158471
H41	H	1.008927	-0.180733	0.091961
H42	H	1.331458	0.336135	0.630619
H43	H	1.689955	-0.216138	0.000113
O44	O	1.372241	-0.372967	0.000319
C45	C	1.301808	-0.396271	0.118676
H46	H	1.367674	-0.440267	0.201425
H47	H	1.252345	-0.304310	0.158411
H48	H	1.228454	-0.463077	0.091900
H49	H	1.394211	-0.224844	0.000078
O50	O	1.318244	0.349520	0.358329
C51	C	1.339695	0.473247	0.393489
H52	H	1.440252	0.474793	0.433027
H53	H	1.325773	0.535736	0.298859
H54	H	1.270408	0.509263	0.477009
H55	H	1.638700	0.031098	0.630594
H56	H	1.129312	-0.019278	0.000100
O57	O	1.086411	0.410993	0.000115
C58	C	0.988138	0.508950	0.000088
H59	H	0.898853	0.473193	0.043375
H60	H	1.016207	0.589367	0.066445
H61	H	0.969888	0.543500	-0.109572
H62	H	1.683350	-0.465598	0.000104
