data_functionalizedCrystal
_audit_creation_method	'MofGen! by Chris Wilmer'
_symmetry_space_group_name_H-M	'P1'
_symmetry_Int_Tables_number	1
_symmetry_cell_setting	triclinic
loop_
_symmetry_equiv_pos_as_xyz
  x,y,z
_cell_length_a	23.096457
_cell_length_b	23.096457
_cell_length_c	18.426585
_cell_angle_alpha	60.001289
_cell_angle_beta	90.000142
_cell_angle_gamma	60.000185
loop_
_atom_site_label
_atom_site_type_symbol
_atom_site_fract_x
_atom_site_fract_y
_atom_site_fract_z
Zr1	Zr	0.557777	0.633742	-0.095231
O2	O	0.465327	0.754530	-0.211102
O3	O	0.586116	0.512955	-0.059715
O4	O	0.586112	0.633746	-0.211114
O5	O	0.465335	0.633735	0.059728
O6	O	0.681393	0.633748	-0.211118
O7	O	0.465330	0.633739	-0.059703
O8	O	0.681399	0.417675	0.059706
O9	O	0.465329	0.849808	-0.211097
O10	O	0.669311	0.562637	-0.044566
O11	O	0.598208	0.562633	0.044567
O12	O	0.598204	0.704849	-0.133685
O13	O	0.527101	0.704844	-0.044552
Zr14	Zr	0.709746	0.633738	0.095240
Zr15	Zr	0.709738	0.633744	-0.095238
Zr16	Zr	0.557785	0.633735	0.095247
Zr17	Zr	0.557781	0.785699	-0.095223
Zr18	Zr	0.709742	0.481781	0.095232
O19	O	0.681407	0.754524	0.059724
O20	O	0.681396	0.754534	-0.211112
O21	O	0.465338	0.754521	0.059734
O22	O	0.802196	0.512950	0.211111
O23	O	0.802185	0.512959	-0.059725
O24	O	0.586127	0.512946	0.211121
O25	O	0.802188	0.633745	-0.059719
O26	O	0.681410	0.633734	0.211123
O27	O	0.586130	0.633732	0.211127
O28	O	0.802193	0.633741	0.059712
O29	O	0.586118	0.849810	-0.211102
O30	O	0.681405	0.417670	0.211111
O31	O	0.802194	0.417672	0.211106
O32	O	0.802187	0.417677	0.059701
O33	O	0.465335	0.849803	-0.059692
O34	O	0.586124	0.849805	-0.059697
O35	O	0.669318	0.562631	0.133694
O36	O	0.740421	0.562635	0.044561
O37	O	0.669315	0.704847	-0.044558
O38	O	0.598212	0.704843	0.044575
C39	C	0.633757	0.443664	-0.000006
C40	C	0.633755	0.379154	-0.000009
C41	C	0.443681	0.633737	0.000013
C42	C	0.379170	0.633736	0.000016
C43	C	0.670865	0.348856	-0.046539
C44	C	0.670872	0.288233	-0.046532
C45	C	0.633755	0.257924	-0.000007
C46	C	0.596643	0.288227	0.046534
C47	C	0.596643	0.348842	0.046532
N48	N	0.573350	0.195527	-0.006455
N49	N	0.573352	0.137947	-0.006459
C50	C	0.633754	0.075292	0.000002
N51	N	0.694154	0.072400	0.006449
N52	N	0.694151	0.129989	0.006447
C53	C	0.633751	0.192196	0.000000
C54	C	0.670875	-0.020741	-0.046523
C55	C	0.670884	-0.081368	-0.046509
C56	C	0.596648	-0.081368	0.046550
C57	C	0.596646	-0.020748	0.046543
C58	C	0.633758	0.009564	0.000001
C59	C	0.385981	0.559505	0.046527
C60	C	0.325365	0.559504	0.046531
C61	C	0.257939	0.633737	0.000006
C62	C	0.251130	0.707978	-0.046506
C63	C	0.311745	0.707977	-0.046502
N64	N	0.135141	0.688995	-0.075713
N65	N	0.077562	0.688991	-0.075716
C66	C	0.075306	0.633745	-0.000009
N67	N	0.132811	0.578490	0.075699
N68	N	0.190397	0.578492	0.075700
C69	C	0.192208	0.633747	-0.000003
C70	C	0.016394	0.559508	0.046510
C71	C	-0.044224	0.559510	0.046516
C72	C	-0.118459	0.707986	-0.046529
C73	C	-0.057841	0.707982	-0.046527
C74	C	0.009583	0.633741	-0.000010
C75	C	0.823842	0.633743	-0.000004
C76	C	0.888353	0.633744	-0.000007
C77	C	0.633751	0.633748	-0.238255
C78	C	0.633748	0.633751	-0.319118
C79	C	0.633766	0.823815	0.000015
C80	C	0.633768	0.888325	0.000018
C81	C	0.633775	0.633726	-0.615202
C82	C	0.633769	0.633729	-0.532821
C83	C	0.633761	0.633738	-0.467163
C84	C	0.633756	0.633742	-0.384776
C85	C	0.633771	0.633732	0.238264
C86	C	0.633775	0.633729	0.319127
C87	C	0.823837	0.443668	-0.000014
C88	C	0.888347	0.379159	-0.000021
C89	C	0.633766	0.443656	0.238254
C90	C	0.633768	0.379144	0.319114
C91	C	0.823847	0.443660	0.238245
C92	C	0.888360	0.379148	0.319102
C93	C	0.443676	0.823820	-0.238236
C94	C	0.379163	0.888332	-0.319093
C95	C	0.443686	0.823812	0.000023
C96	C	0.379176	0.888321	0.000030
C97	C	0.633756	0.823823	-0.238245
C98	C	0.633755	0.888336	-0.319105
C99	C	0.881522	0.348866	-0.046555
C100	C	0.942130	0.288261	-0.046579
C101	C	1.009562	0.257947	-0.000063
C102	C	1.016385	0.288246	0.046473
C103	C	0.955778	0.348853	0.046491
C104	C	0.670888	0.348847	0.403618
C105	C	0.670887	0.288239	0.479601
C106	C	0.633770	0.257925	0.471079
C107	C	0.596645	0.288227	0.386566
C108	C	0.596643	0.348838	0.310585
C109	C	0.955777	0.348855	0.310547
C110	C	1.016400	0.288248	0.386513
C111	C	1.009604	0.257931	0.471034
C112	C	0.942179	0.288230	0.479587
C113	C	0.881558	0.348840	0.403622
C114	C	0.311745	0.918632	-0.310538
C115	C	0.251122	0.979258	-0.386504
C116	C	0.257919	1.009578	-0.471025
C117	C	0.325343	0.979275	-0.479579
C118	C	0.385965	0.918655	-0.403613
C119	C	0.386000	0.918620	0.046556
C120	C	0.325392	0.979242	0.046559
C121	C	0.257960	1.009558	0.000040
C122	C	0.251138	0.979256	-0.046492
C123	C	0.311745	0.918640	-0.046500
C124	C	0.670879	0.918631	-0.310554
C125	C	0.670891	0.979239	-0.386523
C126	C	0.633775	1.009556	-0.471042
C127	C	0.596649	0.979255	-0.479591
C128	C	0.596641	0.918643	-0.403623
H129	H	0.701086	0.373532	-0.084433
C130	C	0.332848	0.477849	0.097688
H131	H	0.287091	0.488484	0.091026
H132	H	0.358032	0.447352	0.074707
H133	H	0.358032	0.447340	0.158903
H134	H	-0.063391	0.768429	-0.084408
H135	H	0.196227	0.768420	-0.084386
H136	H	0.440857	0.893984	-0.410590
H137	H	0.961344	0.373510	0.084390
H138	H	0.306198	0.893949	-0.241723
H139	H	0.936656	0.263537	0.548414
C140	C	0.304253	0.789634	-0.097673
H141	H	0.255416	0.833847	-0.125386
H142	H	0.326358	0.792719	-0.057516
H143	H	0.326354	0.792719	-0.141704
C144	C	1.076291	0.191255	0.554588
H145	H	1.117414	0.177554	0.537379
H146	H	1.076307	0.211111	0.588968
H147	H	1.076301	0.143954	0.588954
H148	H	0.208616	1.058915	0.000053
C149	C	0.460169	0.885283	0.097725
H150	H	0.495294	0.844837	0.091070
H151	H	0.465485	0.928799	0.074746
H152	H	0.465487	0.861636	0.158937
H153	H	1.071295	0.263585	0.379532
H154	H	0.826666	0.373497	0.410600
C155	C	0.711701	0.012601	-0.097706
H156	H	0.706378	0.053050	-0.091053
H157	H	0.760534	-0.030909	-0.074734
H158	H	0.693365	0.036249	-0.158916
C159	C	0.555831	0.254874	0.097733
H160	H	0.533738	0.281594	0.125457
H161	H	0.520703	0.264796	0.057596
H162	H	0.587889	0.197646	0.141757
H163	H	0.701113	0.373522	0.410574
C164	C	0.176961	1.012604	-0.097651
H165	H	0.141848	1.053036	-0.090968
H166	H	0.171628	1.036256	-0.158862
H167	H	0.171640	0.969088	-0.074665
H168	H	0.196228	1.003920	-0.379522
H169	H	0.440877	0.499052	0.084400
C170	C	0.807355	0.382205	-0.097732
H171	H	0.811982	0.355484	-0.125454
H172	H	0.782164	0.372268	-0.057580
H173	H	0.782170	0.439435	-0.141756
H174	H	0.071294	0.499056	0.084406
H175	H	0.936561	0.263599	-0.084473
C176	C	0.711716	-0.114709	-0.097681
H177	H	0.706411	-0.155161	-0.091004
H178	H	0.693387	-0.071201	-0.158891
H179	H	0.760550	-0.138354	-0.074701
H180	H	0.306178	0.893972	-0.084384
H181	H	0.701093	0.263559	-0.084423
C182	C	0.633785	1.076229	-0.554602
H183	H	0.606367	1.089945	-0.606167
H184	H	0.613919	1.123515	-0.554594
H185	H	0.681081	1.056348	-0.554598
H186	H	0.961324	0.373530	0.241732
C187	C	0.332910	1.012555	0.097756
H188	H	0.381751	0.985804	0.125470
H189	H	0.310818	1.069779	0.057612
H190	H	0.310808	1.002615	0.141787
C191	C	0.555814	0.382178	0.097710
H192	H	0.533706	0.355449	0.125417
H193	H	0.587850	0.372251	0.141730
H194	H	0.520684	0.439406	0.057544
C195	C	0.191231	1.076248	-0.554579
H196	H	0.150109	1.089939	-0.537370
H197	H	0.191214	1.123549	-0.588959
H198	H	0.191223	1.056373	-0.588945
H199	H	-0.038672	0.499059	0.084397
C200	C	0.711732	0.254910	0.572553
H201	H	0.733846	0.281637	0.566740
H202	H	0.679704	0.264847	0.604136
H203	H	0.746859	0.197680	0.604123
C204	C	0.332810	1.012626	-0.572554
H205	H	0.287047	1.053061	-0.616563
H206	H	0.357996	1.036275	-0.579235
H207	H	0.357984	0.969112	-0.579227
H208	H	0.701104	0.893957	-0.241742
H209	H	0.566418	0.373498	0.241781
C210	C	0.555819	-0.114699	0.097729
H211	H	0.533718	-0.087971	0.125443
H212	H	0.520695	-0.104768	0.057576
H213	H	0.587863	-0.171927	0.141759
C214	C	0.711721	1.012569	-0.377104
H215	H	0.733812	0.985841	-0.315886
H216	H	0.746853	1.002634	-0.404797
H217	H	0.679679	1.069798	-0.404805
H218	H	1.058907	0.208596	-0.000084
C219	C	-0.192619	0.789644	-0.097704
H220	H	-0.187992	0.833855	-0.125402
H221	H	-0.217811	0.792735	-0.141732
H222	H	-0.217805	0.792727	-0.057538
C223	C	0.555818	1.012615	-0.572564
H224	H	0.561136	1.053059	-0.616576
H225	H	0.574135	0.969114	-0.579251
H226	H	0.506981	1.036275	-0.579228
H227	H	0.566407	0.893984	-0.410597
H228	H	0.566424	0.003924	0.084429
H229	H	0.566426	0.263537	0.379641
H230	H	0.633777	0.208571	0.532955
C231	C	1.090562	0.254888	0.097645
H232	H	1.125674	0.214447	0.090973
H233	H	1.095894	0.298390	0.074685
H234	H	1.095884	0.231225	0.158859
