data_functionalizedCrystal
_audit_creation_method	'MofGen! by Chris Wilmer'
_symmetry_space_group_name_H-M	'P1'
_symmetry_Int_Tables_number	1
_symmetry_cell_setting	triclinic
loop_
_symmetry_equiv_pos_as_xyz
  x,y,z
_cell_length_a	18.050589
_cell_length_b	19.077142
_cell_length_c	19.076919
_cell_angle_alpha	89.925643
_cell_angle_beta	92.275255
_cell_angle_gamma	92.276109
loop_
_atom_site_label
_atom_site_type_symbol
_atom_site_fract_x
_atom_site_fract_y
_atom_site_fract_z
Zn1	Zn	-0.359299	-1.058246	-0.440474
Zn2	Zn	0.140701	-0.558246	0.059526
Zn3	Zn	-0.478707	-1.062878	-0.322974
Zn4	Zn	0.021293	-0.562878	0.177026
Zn5	Zn	-0.349349	-0.945464	-0.318263
Zn6	Zn	0.150651	-0.445464	0.181737
Zn7	Zn	-0.478257	-0.940700	-0.435722
Zn8	Zn	0.021743	-0.440700	0.064278
O9	O	-0.416403	-1.001822	-0.379358
O10	O	0.083597	-0.501822	0.120642
O11	O	-0.379491	-1.157192	-0.428847
O12	O	0.120509	-0.657192	0.071153
O13	O	-0.457572	-1.051235	-0.224017
O14	O	0.042428	-0.551235	0.275983
O15	O	-0.246747	-0.960480	-0.334491
O16	O	0.253253	-0.460480	0.165509
O17	O	-0.467220	-1.160595	-0.342520
O18	O	0.032780	-0.660595	0.157480
O19	O	-0.254058	-1.043340	-0.424279
O20	O	0.245942	-0.543340	0.075721
O21	O	-0.362532	-0.964972	-0.220556
O22	O	0.137468	-0.464972	0.279444
O23	O	-0.362096	-0.846501	-0.329884
O24	O	0.137904	-0.346501	0.170116
O25	O	-0.466453	-0.952360	-0.534684
O26	O	0.033547	-0.452360	-0.034684
O27	O	-0.456805	-0.843000	-0.416181
O28	O	0.043195	-0.343000	0.083819
O29	O	-0.379055	-1.038720	-0.538175
O30	O	0.120945	-0.538720	-0.038175
O31	O	-0.582569	-1.046615	-0.337913
O32	O	-0.082569	-0.546615	0.162087
O33	O	-0.582239	-0.956852	-0.420749
O34	O	-0.082239	-0.456852	0.079251
C35	C	-0.408322	-0.819254	-0.372006
C36	C	0.091678	-0.319254	0.127994
C37	C	-0.404884	-0.741151	-0.368877
C38	C	0.095116	-0.241151	0.131123
C39	C	-0.452647	-0.702656	-0.412267
C40	C	0.047353	-0.202656	0.087733
C41	C	-0.449407	-0.629269	-0.409331
C42	C	0.050593	-0.129269	0.090669
C43	C	-0.398406	-0.594378	-0.363001
C44	C	0.101594	-0.094378	0.136999
C45	C	-0.350638	-0.632878	-0.319609
C46	C	0.149362	-0.132878	0.180391
C47	C	-0.353875	-0.706263	-0.322550
C48	C	0.146125	-0.206263	0.177450
C49	C	-0.383425	-0.375092	-0.349400
C50	C	0.116575	0.124908	0.150600
C51	C	-0.380193	-0.301701	-0.346462
C52	C	0.119807	0.198299	0.153538
C53	C	-0.478961	-0.298097	-0.436185
C54	C	0.021039	0.201903	0.063815
C55	C	-0.482197	-0.371485	-0.439118
C56	C	0.017803	0.128515	0.060882
C57	C	-0.434426	-0.409978	-0.395729
C58	C	0.065574	0.090022	0.104271
N59	N	-0.395094	-0.519365	-0.359997
N60	N	0.104906	-0.019365	0.140003
N61	N	-0.437735	-0.484990	-0.398737
N62	N	0.062265	0.015010	0.101263
C63	C	-0.609351	-1.001738	-0.379343
C64	C	-0.109351	-0.501738	0.120657
C65	C	-0.691899	-1.001765	-0.379363
C66	C	-0.191899	-0.501765	0.120637
C67	C	-0.891198	-0.952998	-0.424394
C68	C	-0.391198	-0.452998	0.075606
C69	C	-0.937272	-0.938448	-0.359587
C70	C	-0.437272	-0.438448	0.140413
C71	C	-0.843032	-1.001834	-0.379375
C72	C	-0.343032	-0.501834	0.120625
C73	C	-0.944042	-1.016418	-0.444191
C74	C	-0.444042	-0.516418	0.055809
C75	C	-0.989021	-1.001898	-0.379392
C76	C	-0.489021	-0.501898	0.120608
C77	C	-0.888016	-0.987251	-0.314532
C78	C	-0.388016	-0.487251	0.185468
C79	C	-0.894786	-1.065249	-0.399180
C80	C	-0.394786	-0.565249	0.100820
C81	C	-0.940836	-1.050725	-0.334330
C82	C	-0.440836	-0.550725	0.165670
C83	C	-0.758932	-1.001794	-0.379366
C84	C	-0.258932	-0.501794	0.120634
C85	C	-1.073119	-1.001938	-0.379393
C86	C	-0.573119	-0.501938	0.120607
C87	C	-0.222703	-1.001925	-0.379389
C88	C	0.277297	-0.501925	0.120611
C89	C	-0.140160	-1.001969	-0.379403
C90	C	0.359840	-0.501969	0.120597
C91	C	-0.423814	-0.994492	-0.562638
C92	C	0.076186	-0.494492	-0.062638
C93	C	-0.426972	-0.991368	-0.640742
C94	C	0.073028	-0.491368	-0.140742
C95	C	-0.424512	-0.185103	-0.386731
C96	C	0.075488	0.314897	0.113269
C97	C	-0.427956	-0.263207	-0.389851
C98	C	0.072044	0.236793	0.110149
C99	C	-0.382954	-1.034862	-0.679253
C100	C	0.117046	-0.534862	-0.179253
C101	C	-0.385918	-1.031918	-0.752639
C102	C	0.114082	-0.531918	-0.252639
C103	C	-0.432905	-0.985485	-0.787512
C104	C	0.067095	-0.485485	-0.287512
C105	C	-0.476924	-0.941986	-0.748995
C106	C	0.023076	-0.441986	-0.248995
C107	C	-0.473956	-0.944927	-0.675611
C108	C	0.026044	-0.444927	-0.175611
C109	C	-0.446659	-0.971866	-1.006794
C110	C	0.053341	-0.471866	-0.506794
C111	C	-0.449626	-0.968930	-1.080184
C112	C	0.050374	-0.468930	-0.580184
C113	C	-0.358618	-1.058862	-1.083822
C114	C	0.141382	-0.558862	-0.583822
C115	C	-0.355657	-1.061801	-1.010436
C116	C	0.144343	-0.561801	-0.510436
C117	C	-0.399674	-1.018300	-0.971926
C118	C	0.100326	-0.518300	-0.471926
N119	N	-0.435938	-0.982476	-0.862524
N120	N	0.064062	-0.482476	-0.362524
N121	N	-0.396637	-1.021305	-0.896915
N122	N	0.103363	-0.521305	-0.396915
C123	C	-0.408969	-1.009164	-0.196792
C124	C	0.091031	-0.509164	0.303208
C125	C	-0.405608	-1.012424	-0.118695
C126	C	0.094392	-0.512424	0.381305
H127	H	-0.344532	-0.406425	-0.314064
H128	H	0.155468	0.093575	0.185936
Br129	Br	-0.281415	-0.585527	-0.256738
Br130	Br	0.218585	-0.085527	0.243262
H131	H	-0.494179	-0.731059	-0.449992
H132	H	0.005821	-0.231059	0.050008
Br133	Br	-0.289047	-0.758507	-0.263665
Br134	Br	0.210953	-0.258507	0.236335
H135	H	-0.869403	-0.911643	-0.462407
H136	H	-0.369403	-0.411643	0.037593
H137	H	-0.875993	-1.118833	-0.415947
H138	H	-0.375993	-0.618833	0.084053
Br139	Br	-0.543792	-0.245853	-0.495064
Br140	Br	-0.043792	0.254147	0.004936
Br141	Br	-0.298884	-1.117894	-1.136090
Br142	Br	0.201116	-0.617894	-0.636090
H143	H	-0.487889	-0.931116	-1.108575
H144	H	0.012111	-0.431116	-0.608575
H145	H	-0.488301	-0.597930	-0.444663
H146	H	0.011699	-0.097930	0.055337
Br147	Br	-0.319190	-1.097888	-0.631933
Br148	Br	0.180810	-0.597888	-0.131933
Br149	Br	-0.976927	-1.119612	-0.270815
Br150	Br	-0.476927	-0.619612	0.229185
Br151	Br	-0.968566	-0.849111	-0.331668
Br152	Br	-0.468566	-0.349111	0.168332
H153	H	-0.863604	-0.974879	-0.259707
H154	H	-0.363604	-0.474879	0.240293
H155	H	-0.968540	-1.028727	-0.498998
H156	H	-0.468540	-0.528727	0.001002
H157	H	-0.350076	-1.067337	-0.783992
H158	H	0.149924	-0.567337	-0.283992
H159	H	-0.317398	-1.099614	-0.982048
H160	H	0.182602	-0.599614	-0.482048
H161	H	-0.482511	-0.936454	-0.975447
H162	H	0.017489	-0.436454	-0.475447
Br163	Br	-0.540688	-0.878964	-0.796322
Br164	Br	-0.040688	-0.378964	-0.296322
Br165	Br	-0.533692	-0.885893	-0.623344
Br166	Br	-0.033692	-0.385893	-0.123344
H167	H	-0.523729	-0.399888	-0.476843
H168	H	-0.023729	0.100112	0.023157
Br169	Br	-0.310981	-0.254350	-0.283573
Br170	Br	0.189019	0.245650	0.216427
