data_functionalizedCrystal
_audit_creation_method	'MofGen! by Chris Wilmer'
_symmetry_space_group_name_H-M	'P1'
_symmetry_Int_Tables_number	1
_symmetry_cell_setting	triclinic
loop_
_symmetry_equiv_pos_as_xyz
  x,y,z
_cell_length_a	19.121242
_cell_length_b	13.032831
_cell_length_c	13.032721
_cell_angle_alpha	90.902885
_cell_angle_beta	80.122247
_cell_angle_gamma	99.289790
loop_
_atom_site_label
_atom_site_type_symbol
_atom_site_fract_x
_atom_site_fract_y
_atom_site_fract_z
Zn1	Zn	-0.584871	-1.552047	0.650576
Zn2	Zn	-0.479103	-1.524338	0.815104
Zn3	Zn	-0.449479	-1.372703	0.619207
Zn4	Zn	-0.581081	-1.357989	0.800356
O5	O	-0.523634	-1.451769	0.721311
O6	O	-0.584825	-1.693045	0.691702
O7	O	-0.375834	-1.498784	0.782161
O8	O	-0.456628	-1.414247	0.478701
O9	O	-0.507118	-1.672687	0.812579
O10	O	-0.556099	-1.546011	0.501748
O11	O	-0.354069	-1.387379	0.638237
O12	O	-0.452952	-1.226077	0.623936
O13	O	-0.680924	-1.389170	0.787444
O14	O	-0.549640	-1.215267	0.757026
O15	O	-0.683708	-1.531744	0.677402
O16	O	-0.503443	-1.484517	0.957815
O17	O	-0.578365	-1.362301	0.946980
C18	C	-0.497671	-1.183160	0.685478
C19	C	-0.486582	-1.068246	0.670174
C20	C	-0.543725	-1.418835	0.989913
C21	C	-0.552354	-1.404841	1.104836
C22	C	-0.708794	-1.461907	0.734277
C23	C	-0.787698	-1.466227	0.739802
C24	C	-1.234542	-1.493620	0.774871
C25	C	-1.160401	-1.489547	0.769671
C26	C	-1.112007	-1.429514	0.692133
C27	C	-1.137757	-1.373543	0.619797
C28	C	-1.211896	-1.377611	0.625003
C29	C	-0.887587	-1.414324	0.672672
C30	C	-0.813443	-1.410262	0.667470
C31	C	-0.836093	-1.526265	0.817346
C32	C	-0.910233	-1.530333	0.822540
C33	C	-0.935976	-1.474357	0.750208
C34	C	-1.036223	-1.425351	0.686814
C35	C	-1.011759	-1.478515	0.755532
C36	C	-0.339194	-1.441740	0.708329
C37	C	-0.260288	-1.437656	0.702539
C38	C	-0.549698	-1.721427	0.757285
C39	C	-0.560806	-1.836339	0.772615
C40	C	-0.529421	-1.011677	0.729298
C41	C	-0.517961	-0.892906	0.713483
C42	C	-0.503482	-1.484861	0.451665
C43	C	-0.494894	-1.498963	0.336758
C44	C	-0.519168	-1.459129	1.161408
C45	C	-0.528085	-1.444667	1.280188
H46	H	-1.273941	-1.542511	0.838007
O47	O	-0.957265	-1.588798	0.897725
C48	C	-1.055495	-1.731264	0.936097
C49	C	-1.002267	-1.665130	0.850856
H50	H	-1.091903	-1.792980	0.898237
H51	H	-1.024384	-1.770644	0.986882
H52	H	-1.089636	-1.679069	0.986290
H53	H	-0.968113	-1.717253	0.800591
H54	H	-1.033421	-1.625740	0.800146
O55	O	-0.453025	-1.567122	1.289751
C56	C	-0.334678	-1.614822	1.254736
C57	C	-0.382015	-1.537572	1.308040
H58	H	-0.277254	-1.590946	1.269485
H59	H	-0.356764	-1.696317	1.287842
H60	H	-0.334966	-1.614353	1.167344
H61	H	-0.381747	-1.537948	1.395435
H62	H	-0.359913	-1.456114	1.274851
H63	H	-0.587370	-1.347661	1.144339
O64	O	-1.237028	-1.323276	0.554847
C65	C	-1.341209	-1.278176	0.496409
C66	C	-1.312846	-1.339749	0.575938
H67	H	-1.402511	-1.291490	0.513420
H68	H	-1.319984	-1.191765	0.502419
H69	H	-1.322121	-1.305749	0.414455
H70	H	-1.331923	-1.312265	0.657928
H71	H	-1.334066	-1.426150	0.569837
H72	H	-0.563103	-1.387483	1.319686
H73	H	-1.139444	-1.535105	0.828583
O74	O	-0.583243	-1.058947	0.803639
C75	C	-0.643783	-1.220434	0.887114
C76	C	-0.582791	-1.167035	0.802899
H77	H	-0.643448	-1.307833	0.886528
H78	H	-0.635437	-1.188438	0.966802
H79	H	-0.697658	-1.204558	0.870306
H80	H	-0.528890	-1.182888	0.819608
H81	H	-0.591201	-1.199036	0.723237
H82	H	-0.441426	-1.028749	0.607844
H83	H	-0.815124	-1.571836	0.876236
H84	H	-0.774041	-1.361378	0.604322
H85	H	-0.605972	-0.875832	0.834940
O86	O	-0.464090	-0.845628	0.639208
C87	C	-0.403590	-0.684152	0.555671
C88	C	-0.464618	-0.737560	0.639831
H89	H	-0.404006	-0.596774	0.556132
H90	H	-0.349685	-0.699889	0.572490
H91	H	-0.411931	-0.716277	0.476028
H92	H	-0.456346	-0.705469	0.719507
H93	H	-0.518501	-0.721829	0.622921
O94	O	-0.477391	-1.527425	1.114464
C95	C	-0.400874	-1.652369	1.136749
C96	C	-0.448181	-1.575078	1.190046
H97	H	-0.377232	-1.690902	1.197831
H98	H	-0.434915	-1.714362	1.095642
H99	H	-0.355410	-1.609000	1.077296
H100	H	-0.493651	-1.618358	1.249546
H101	H	-0.414090	-1.513088	1.231086
O102	O	-0.912468	-1.359933	0.602294
C103	C	-0.882171	-1.244406	0.453119
C104	C	-0.853894	-1.305972	0.532746
H105	H	-0.834828	-1.200746	0.396883
H106	H	-0.917402	-1.300370	0.407758
H107	H	-0.915226	-1.186464	0.495822
H108	H	-0.820808	-1.363917	0.490125
H109	H	-0.818702	-1.249946	0.578105
O110	O	-1.090675	-1.315153	0.544609
C111	C	-0.992474	-1.172652	0.506197
C112	C	-1.045739	-1.238710	0.591456
H113	H	-0.956140	-1.110818	0.544040
H114	H	-0.958263	-1.224790	0.456045
H115	H	-1.023627	-1.133400	0.455377
H116	H	-1.014644	-1.277972	0.642349
H117	H	-1.079951	-1.186521	0.641533
H118	H	-1.051165	-1.527391	0.818665
H119	H	-0.996812	-1.376474	0.623682
