data_functionalizedCrystal
_audit_creation_method	'MofGen! by Chris Wilmer'
_symmetry_space_group_name_H-M	'P1'
_symmetry_Int_Tables_number	1
_symmetry_cell_setting	triclinic
loop_
_symmetry_equiv_pos_as_xyz
  x,y,z
_cell_length_a	12.759401
_cell_length_b	15.297327
_cell_length_c	12.759393
_cell_angle_alpha	99.642569
_cell_angle_beta	89.981287
_cell_angle_gamma	99.708126
loop_
_atom_site_label
_atom_site_type_symbol
_atom_site_fract_x
_atom_site_fract_y
_atom_site_fract_z
Zn1	Zn	1.533790	-0.359082	-0.666329
Zn2	Zn	1.503243	-0.509967	-0.521034
Zn3	Zn	1.358085	-0.359130	-0.490674
Zn4	Zn	1.327648	-0.509904	-0.696658
O5	O	1.430691	-0.434521	-0.593674
O6	O	1.676757	-0.379103	-0.647068
O7	O	1.483941	-0.490005	-0.369995
O8	O	1.406915	-0.232877	-0.488577
O9	O	1.654314	-0.489958	-0.540320
O10	O	1.536004	-0.232842	-0.617630
O11	O	1.377295	-0.379185	-0.347690
O12	O	1.207028	-0.379124	-0.517986
O13	O	1.355039	-0.489851	-0.839647
O14	O	1.184666	-0.489897	-0.669321
O15	O	1.506490	-0.379042	-0.817364
O16	O	1.454427	-0.636205	-0.569729
O17	O	1.325419	-0.636158	-0.698760
C18	C	1.157726	-0.434510	-0.593651
C19	C	1.040946	-0.434527	-0.593670
C20	C	1.383334	-0.668916	-0.640853
C21	C	1.363170	-0.769191	-0.661071
C22	C	0.974450	-0.492294	-0.672383
C23	C	0.864725	-0.492298	-0.672404
C24	C	0.888003	-0.376764	-0.514991
C25	C	0.997727	-0.376756	-0.514975
C26	C	0.708293	-0.524669	-0.802783
C27	C	0.641790	-0.582450	-0.881489
C28	C	0.659622	-0.670493	-0.915167
C29	C	0.743952	-0.700772	-0.870126
C30	C	0.810448	-0.642995	-0.791413
C31	C	0.792620	-0.554940	-0.757754
C32	C	1.154159	-0.344394	-0.384596
C33	C	1.220657	-0.286621	-0.305878
C34	C	1.202827	-0.198577	-0.272190
C35	C	1.118493	-0.168302	-0.317213
C36	C	1.051995	-0.226075	-0.395931
C37	C	1.069833	-0.314118	-0.429621
C38	C	1.575237	-1.051821	-0.449528
C39	C	1.594181	-0.957608	-0.430526
C40	C	1.536430	-0.910499	-0.488161
C41	C	1.459732	-0.957613	-0.564800
C42	C	1.440780	-1.051836	-0.583798
C43	C	1.401973	-0.910513	-0.622431
C44	C	1.325274	-0.957627	-0.699070
C45	C	1.306326	-1.051841	-0.718065
C46	C	1.364077	-1.098949	-0.660430
C47	C	1.420925	-0.816290	-0.603434
C48	C	1.286468	-0.816305	-0.737704
C49	C	1.267524	-0.910518	-0.756705
C50	C	1.704722	-0.434532	-0.593698
C51	C	1.821498	-0.434537	-0.593708
C52	C	1.430777	-0.434434	-0.867690
C53	C	1.430813	-0.434397	-0.984459
C54	C	1.478262	-0.199210	-0.546334
C55	C	1.498534	-0.098935	-0.526160
C56	C	1.351981	-0.492068	-1.050920
C57	C	1.352025	-0.492035	-1.160637
C58	C	1.509739	-0.376651	-1.137422
C59	C	1.509698	-0.376690	-1.027708
C60	C	1.293031	-0.598376	-1.331986
C61	C	1.214184	-0.656039	-1.398449
C62	C	1.108857	-0.669897	-1.365624
C63	C	1.082359	-0.626078	-1.266335
C64	C	1.161203	-0.568408	-1.199876
C65	C	1.266540	-0.554568	-1.232703
C66	C	1.568681	-0.270347	-0.856357
C67	C	1.647521	-0.212672	-0.789895
C68	C	1.752851	-0.198805	-0.822716
C69	C	1.779348	-0.242608	-0.922005
C70	C	1.700509	-0.300283	-0.988467
C71	C	1.595179	-0.314151	-0.955639
C72	C	1.430680	-0.434542	-0.320711
C73	C	1.430898	-0.434325	-0.203891
H74	H	1.009636	-0.539332	-0.736464
C75	C	1.638742	-1.103647	-0.386128
N76	N	1.686575	-1.142683	-0.338368
H77	H	1.044658	-0.716848	-1.419746
C78	C	1.098878	-0.071448	-0.280156
N79	N	1.084107	0.001504	-0.252241
C80	C	1.221946	-1.103663	-0.802361
N81	N	1.158390	-1.142695	-0.865854
H82	H	1.168691	-0.416085	-0.412031
H83	H	0.996588	-0.637357	-1.239623
H84	H	1.239440	-0.777949	-0.784633
C85	C	1.243337	-0.704246	-1.507659
N86	N	1.265292	-0.740555	-1.589915
H87	H	0.605468	-0.717539	-0.979252
C88	C	1.452811	-0.285599	-0.820244
N89	N	1.365538	-0.297081	-0.793043
C90	C	1.678529	-0.905789	-0.346208
N91	N	1.742059	-0.866759	-0.282689
C92	C	1.275957	-0.135038	-0.185568
N93	N	1.331029	-0.087182	-0.120321
C94	C	1.343238	-1.202591	-0.681324
N95	N	1.327542	-1.280655	-0.697057
H96	H	1.287742	-0.539052	-1.015710
C97	C	1.895218	-0.227356	-0.958112
N98	N	1.982494	-0.215865	-0.985304
H99	H	0.573131	-0.557789	-0.918161
C100	C	1.183148	-0.962356	-0.840998
N101	N	1.119594	-1.001401	-0.904486
C102	C	1.408919	-0.583222	-1.368049
N103	N	1.496214	-0.571835	-1.395200
H104	H	1.139628	-0.532729	-1.119039
C105	C	1.313437	-0.319924	-0.256365
N106	N	1.383324	-0.345005	-0.219079
H107	H	1.551858	-0.833786	-0.472684
C108	C	1.596495	-0.313164	-1.185004
N109	N	1.661837	-0.265339	-1.220840
H110	H	1.722090	-0.335946	-1.069316
C111	C	1.839574	-0.135356	-0.749603
N112	N	1.904895	-0.087570	-0.694536
H113	H	1.483374	-0.777939	-0.541033
H114	H	0.693774	-0.452975	-0.775378
H115	H	0.852800	-0.329730	-0.450919
H116	H	0.983333	-0.201414	-0.432596
C117	C	1.618370	-0.164490	-0.680672
N118	N	1.596415	-0.128204	-0.598403
H119	H	0.758455	-0.772469	-0.897545
C120	C	0.903210	-0.676295	-0.741874
N121	N	0.973083	-0.701378	-0.704567
