data_functionalizedCrystal
_audit_creation_method	'MofGen! by Chris Wilmer'
_symmetry_space_group_name_H-M	'P1'
_symmetry_Int_Tables_number	1
_symmetry_cell_setting	triclinic
loop_
_symmetry_equiv_pos_as_xyz
  x,y,z
_cell_length_a	15.944551
_cell_length_b	23.532407
_cell_length_c	14.421503
_cell_angle_alpha	89.999621
_cell_angle_beta	89.996859
_cell_angle_gamma	83.173708
loop_
_atom_site_label
_atom_site_type_symbol
_atom_site_fract_x
_atom_site_fract_y
_atom_site_fract_z
O1	O	1.113910	0.073442	-0.077025
O2	O	1.447244	0.406775	0.256309
O3	O	1.780577	0.740109	0.589642
O4	O	0.869284	0.082498	-0.077049
O5	O	1.202618	0.415831	0.256284
O6	O	1.535951	0.749164	0.589618
O7	O	0.998974	-0.004933	-0.077019
O8	O	1.332307	0.328400	0.256314
O9	O	1.665641	0.661733	0.589648
O10	O	0.984221	0.160873	-0.077055
O11	O	1.317554	0.494206	0.256279
O12	O	1.650887	0.827540	0.589612
O13	O	0.998953	-0.004920	0.077204
O14	O	1.332286	0.328413	0.410538
O15	O	1.665619	0.661746	0.743871
O16	O	0.869263	0.082511	0.077174
O17	O	1.202596	0.415844	0.410508
O18	O	1.535930	0.749177	0.743841
O19	O	1.113889	0.073455	0.077199
O20	O	1.447222	0.406788	0.410532
O21	O	1.780556	0.740122	0.743865
Cu22	Cu	0.991574	0.077984	0.091268
Cu23	Cu	1.324907	0.411317	0.424602
Cu24	Cu	1.658241	0.744651	0.757935
Cu25	Cu	0.991599	0.077969	-0.091119
Cu26	Cu	1.324933	0.411302	0.242215
Cu27	Cu	1.658266	0.744635	0.575548
O28	O	0.984199	0.160886	0.077169
O29	O	1.317533	0.494219	0.410502
O30	O	1.650866	0.827553	0.743836
C31	C	0.837983	0.082128	0.000060
C32	C	1.171316	0.415461	0.333393
C33	C	1.504650	0.748795	0.666727
C34	C	0.744746	0.081001	0.000051
C35	C	1.078080	0.414334	0.333385
C36	C	1.411413	0.747668	0.666718
C37	C	0.530369	0.024113	0.000081
C38	C	0.863702	0.357447	0.333415
C39	C	1.197036	0.690780	0.666748
C40	C	0.469137	0.050524	-0.075964
C41	C	0.802470	0.383857	0.257369
C42	C	1.135804	0.717190	0.590702
C43	C	0.574038	0.078962	0.000063
C44	C	0.907371	0.412295	0.333396
C45	C	1.240704	0.745629	0.666729
C46	C	0.469138	0.050550	0.076088
C47	C	0.802471	0.383883	0.409421
C48	C	1.135805	0.717216	0.742754
C49	C	0.409142	0.076989	0.000078
C50	C	0.742475	0.410322	0.333411
C51	C	1.075808	0.743655	0.666744
C52	C	0.514034	0.105388	-0.076046
C53	C	0.847367	0.438721	0.257287
C54	C	1.180700	0.772054	0.590621
C55	C	0.514041	0.105406	0.076075
C56	C	0.847374	0.438739	0.409408
C57	C	1.180708	0.772072	0.742741
C58	C	0.452826	0.131856	0.000010
C59	C	0.786159	0.465189	0.333343
C60	C	1.119493	0.798523	0.666677
C61	C	0.669030	0.080097	0.000053
C62	C	1.002364	0.413431	0.333387
C63	C	1.335697	0.746764	0.666720
C64	C	0.314150	0.075858	0.000081
C65	C	0.647483	0.409191	0.333414
C66	C	0.980817	0.742524	0.666747
C67	C	0.998588	-0.026144	0.000095
C68	C	1.331921	0.307189	0.333428
C69	C	1.665254	0.640522	0.666762
C70	C	0.997458	-0.089366	0.000102
C71	C	1.330791	0.243968	0.333435
C72	C	1.664125	0.577301	0.666769
C73	C	1.067121	-0.488199	0.000058
C74	C	1.400454	-0.154866	0.333391
C75	C	1.733788	0.178468	0.666725
C76	C	1.066072	-0.547603	0.000051
C77	C	1.399405	-0.214270	0.333384
C78	C	1.732738	0.119063	0.666718
O79	O	1.130650	-0.584098	0.000023
O80	O	1.463983	-0.250764	0.333356
O81	O	1.797317	0.082569	0.666690
N82	N	0.988971	-0.570528	0.000044
N83	N	1.322305	-0.237195	0.333377
N84	N	1.655638	0.096139	0.666711
C85	C	0.912915	-0.534045	0.000035
C86	C	1.246249	-0.200712	0.333368
C87	C	1.579582	0.132622	0.666701
O88	O	0.847239	-0.558999	0.000027
O89	O	1.180572	-0.225666	0.333361
O90	O	1.513906	0.107667	0.666694
C91	C	0.913965	-0.474642	0.000035
C92	C	1.247299	-0.141309	0.333368
C93	C	1.580632	0.192025	0.666702
C94	C	0.991071	-0.451721	0.000052
C95	C	1.324404	-0.118387	0.333385
C96	C	1.657737	0.214946	0.666718
C97	C	1.144220	-0.465277	0.000073
C98	C	1.477554	-0.131944	0.333407
C99	C	1.810887	0.201390	0.666740
C100	C	1.145269	-0.405877	0.000082
C101	C	1.478603	-0.072543	0.333416
C102	C	1.811936	0.260790	0.666749
C103	C	1.069219	-0.369399	0.000076
C104	C	1.402552	-0.036065	0.333409
C105	C	1.735886	0.297268	0.666742
C106	C	0.992120	-0.392320	0.000060
C107	C	1.325453	-0.058987	0.333394
C108	C	1.658786	0.274346	0.666727
C109	C	0.837910	-0.438160	0.000019
C110	C	1.171243	-0.104827	0.333353
C111	C	1.504577	0.228507	0.666686
C112	C	0.838967	-0.378754	0.000019
C113	C	1.172300	-0.045420	0.333352
C114	C	1.505634	0.287913	0.666686
C115	C	0.916072	-0.355832	0.000035
C116	C	1.249406	-0.022499	0.333369
C117	C	1.582739	0.310834	0.666702
C118	C	0.917118	-0.296442	0.000063
C119	C	1.250452	0.036891	0.333396
C120	C	1.583785	0.370225	0.666729
N121	N	0.994219	-0.273517	0.000070
N122	N	1.327552	0.059816	0.333403
N123	N	1.660886	0.393150	0.666736
C124	C	1.070269	-0.309995	0.000076
C125	C	1.403602	0.023338	0.333410
C126	C	1.736936	0.356671	0.666743
C127	C	0.910716	-0.658796	0.000032
C128	C	1.244049	-0.325463	0.333365
C129	C	1.577382	0.007870	0.666699
C130	C	0.909664	-0.718198	0.000038
C131	C	1.242998	-0.384865	0.333371
C132	C	1.576331	-0.051531	0.666705
C133	C	1.062821	-0.731752	0.000053
C134	C	1.396155	-0.398419	0.333386
C135	C	1.729488	-0.065086	0.666719
C136	C	1.063872	-0.672349	0.000053
C137	C	1.397205	-0.339016	0.333386
C138	C	1.730538	-0.005682	0.666720
C139	C	0.987816	-0.635871	0.000039
C140	C	1.321149	-0.302538	0.333372
C141	C	1.654483	0.030795	0.666706
C142	C	1.072466	-0.185250	0.000096
C143	C	1.405800	0.148083	0.333429
C144	C	1.739133	0.481417	0.666762
C145	C	1.073508	-0.125844	0.000108
C146	C	1.406842	0.207489	0.333442
C147	C	1.740175	0.540823	0.666775
C148	C	0.920352	-0.112295	0.000089
C149	C	1.253685	0.221038	0.333422
C150	C	1.587019	0.554371	0.666756
C151	C	0.919309	-0.171696	0.000081
C152	C	1.252643	0.161637	0.333415
C153	C	1.585976	0.494971	0.666748
C154	C	0.995373	-0.208173	0.000081
C155	C	1.328707	0.125161	0.333415
C156	C	1.662040	0.458494	0.666748
O157	O	0.852574	-0.259913	0.000087
O158	O	1.185907	0.073421	0.333420
O159	O	1.519241	0.406754	0.666753
O160	O	1.135935	-0.285033	0.000072
O161	O	1.469268	0.048300	0.333405
O162	O	1.802601	0.381634	0.666738
C163	C	1.145190	0.073824	0.000088
C164	C	1.478524	0.407158	0.333421
C165	C	1.811857	0.740491	0.666755
C166	C	1.238427	0.074951	0.000090
C167	C	1.571760	0.408285	0.333424
C168	C	1.905094	0.741618	0.666757
C169	C	0.984586	0.182097	0.000053
C170	C	1.317919	0.515430	0.333386
C171	C	1.651252	0.848764	0.666719
C172	C	0.985715	0.245318	0.000040
C173	C	1.319049	0.578652	0.333373
C174	C	1.652382	0.911985	0.666706
N175	N	0.991562	0.077994	0.219550
N176	N	1.324896	0.411328	0.552883
N177	N	1.658229	0.744661	0.886216
N178	N	0.991618	0.077954	-0.219400
N179	N	1.324951	0.411287	0.113933
N180	N	1.658285	0.744620	0.447267
C181	C	0.931583	0.118404	0.469190
C182	C	1.264917	0.451738	0.802523
C183	C	1.598250	0.785071	1.135856
C184	C	1.007390	0.129461	0.530997
C185	C	1.340724	0.462794	0.864330
C186	C	1.674057	0.796127	1.197664
C187	C	0.991583	0.077981	0.408711
C188	C	1.324916	0.411314	0.742044
C189	C	1.658249	0.744647	1.075378
C190	C	0.915795	0.066938	0.530998
C191	C	1.249129	0.400271	0.864331
C192	C	1.582462	0.733604	1.197664
C193	C	0.991596	0.077969	0.591433
C194	C	1.324929	0.411302	0.924766
C195	C	1.658262	0.744636	1.258099
C196	C	1.067428	0.089063	0.469158
C197	C	1.400761	0.422396	0.802491
C198	C	1.734094	0.755730	1.135824
C199	C	0.975783	0.026517	0.469153
C200	C	1.309117	0.359851	0.802486
C201	C	1.642450	0.693184	1.135820
C202	C	1.051645	0.037552	0.530932
C203	C	1.384978	0.370885	0.864266
C204	C	1.718312	0.704219	1.197599
C205	C	0.991574	0.077989	0.303450
C206	C	1.324907	0.411322	0.636783
C207	C	1.658241	0.744656	0.970117
C208	C	0.991613	0.077960	0.696691
C209	C	1.324947	0.411294	1.030025
C210	C	1.658280	0.744627	1.363358
H211	H	0.419284	0.177423	-0.000042
H212	H	0.752617	0.510756	0.333291
H213	H	1.085950	0.844089	0.666624
H214	H	0.856524	-0.190359	0.000094
H215	H	1.189857	0.142974	0.333427
H216	H	1.523190	0.476307	0.666760
C217	C	1.156134	-0.225366	0.000104
C218	C	1.489468	0.107967	0.333437
C219	C	1.822801	0.441301	0.666770
H220	H	1.202196	-0.203199	0.000123
H221	H	1.535530	0.130134	0.333456
H222	H	1.868863	0.463467	0.666790
H223	H	1.158928	-0.248821	-0.053677
H224	H	1.492261	0.084512	0.279656
H225	H	1.825595	0.417845	0.612989
H226	H	1.158901	-0.248820	0.053892
H227	H	1.492235	0.084513	0.387225
H228	H	1.825568	0.417846	0.720558
H229	H	0.533968	0.128591	0.140359
H230	H	0.867301	0.461924	0.473693
H231	H	1.200635	0.795257	0.807026
H232	H	0.858434	-0.082584	0.000087
H233	H	1.191767	0.250749	0.333420
H234	H	1.525101	0.584083	0.666754
H235	H	1.131539	0.098450	0.442108
H236	H	1.464872	0.431784	0.775442
H237	H	1.798206	0.765117	1.108775
H238	H	1.020766	0.172977	0.558161
H239	H	1.354099	0.506310	0.891495
H240	H	1.687433	0.839644	1.224828
H241	H	0.846878	-0.736855	0.000041
H242	H	1.180211	-0.403522	0.333374
H243	H	1.513544	-0.070188	0.666707
H244	H	1.102445	0.003360	0.557872
H245	H	1.435779	0.336693	0.891205
H246	H	1.769112	0.670027	1.224539
H247	H	0.449238	0.027346	0.140377
H248	H	0.782572	0.360679	0.473710
H249	H	1.115905	0.694013	0.807043
C250	C	1.230084	-0.380668	0.000095
C251	C	1.563417	-0.047335	0.333428
C252	C	1.896750	0.285999	0.666761
H253	H	1.219828	-0.340065	0.000104
H254	H	1.553162	-0.006731	0.333437
H255	H	1.886495	0.326602	0.666771
H256	H	1.261382	-0.393191	-0.053683
H257	H	1.594715	-0.059858	0.279651
H258	H	1.928048	0.273476	0.612984
H259	H	1.261363	-0.393193	0.053886
H260	H	1.594697	-0.059860	0.387220
H261	H	1.928030	0.273474	0.720553
C262	C	0.957681	-0.032248	0.432416
C263	C	1.291015	0.301086	0.765749
C264	C	1.624348	0.634419	1.099083
H265	H	0.903777	-0.040032	0.453551
H266	H	1.237110	0.293301	0.786884
H267	H	1.570444	0.626634	1.120218
H268	H	0.999755	-0.061043	0.454474
H269	H	1.333089	0.272290	0.787807
H270	H	1.666422	0.605624	1.121141
H271	H	0.958322	-0.031916	0.366549
H272	H	1.291655	0.301417	0.699882
H273	H	1.624988	0.634750	1.033215
C274	C	0.863110	0.164616	0.432554
C275	C	1.196443	0.497950	0.765887
C276	C	1.529776	0.831283	1.099220
H277	H	0.823580	0.147082	0.396311
H278	H	1.156914	0.480415	0.729644
H279	H	1.490247	0.813749	1.062977
H280	H	0.888683	0.191108	0.395401
H281	H	1.222016	0.524441	0.728735
H282	H	1.555350	0.857774	1.062068
H283	H	0.834813	0.184163	0.483354
H284	H	1.168147	0.517497	0.816687
H285	H	1.501480	0.850830	1.150020
C286	C	1.158328	-0.100634	0.000121
C287	C	1.491661	0.232699	0.333454
C288	C	1.824994	0.566033	0.666788
H289	H	1.203468	-0.130870	0.000113
H290	H	1.536801	0.202463	0.333447
H291	H	1.870135	0.535796	0.666780
H292	H	1.161918	-0.077745	0.053904
H293	H	1.495251	0.255589	0.387238
H294	H	1.828585	0.588922	0.720571
H295	H	1.161928	-0.077742	-0.053665
H296	H	1.495261	0.255591	0.279669
H297	H	1.828594	0.588925	0.613002
H298	H	0.851698	0.057603	0.558164
H299	H	1.185031	0.390936	0.891497
H300	H	1.518365	0.724269	1.224830
H301	H	0.564086	-0.021407	-0.000003
H302	H	0.897419	0.311927	0.333331
H303	H	1.230752	0.645260	0.666664
H304	H	0.449231	0.027320	-0.140246
H305	H	0.782565	0.360653	0.193087
H306	H	1.115898	0.693986	0.526420
C307	C	1.227881	-0.505397	0.000078
C308	C	1.561214	-0.172064	0.333412
C309	C	1.894548	0.161269	0.666745
H310	H	1.216228	-0.544062	0.000069
H311	H	1.549561	-0.210728	0.333403
H312	H	1.882894	0.122605	0.666736
H313	H	1.259507	-0.498442	0.053863
H314	H	1.592840	-0.165109	0.387196
H315	H	1.926174	0.168225	0.720529
H316	H	1.259520	-0.498442	-0.053706
H317	H	1.592853	-0.165109	0.279627
H318	H	1.926187	0.168224	0.612960
H319	H	0.533835	0.128563	-0.140407
H320	H	0.867168	0.461897	0.192926
H321	H	1.200502	0.795230	0.526260
H322	H	1.126658	-0.653691	0.000066
H323	H	1.459991	-0.320358	0.333399
H324	H	1.793324	0.012976	0.666732
H325	H	0.848778	-0.629098	0.000028
H326	H	1.182111	-0.295765	0.333362
H327	H	1.515445	0.037568	0.666695
C328	C	1.146476	-0.771886	0.000042
C329	C	1.479810	-0.438553	0.333376
C330	C	1.813143	-0.105219	0.666709
H331	H	1.134802	-0.810546	0.000027
H332	H	1.468135	-0.477212	0.333360
H333	H	1.801468	-0.143879	0.666694
H334	H	1.178116	-0.764944	0.053822
H335	H	1.511450	-0.431611	0.387156
H336	H	1.844783	-0.098277	0.720489
H337	H	1.178111	-0.764934	-0.053747
H338	H	1.511445	-0.431601	0.279587
H339	H	1.844778	-0.098267	0.612920
H340	H	0.777032	-0.349056	0.000006
H341	H	1.110365	-0.015722	0.333339
H342	H	1.443698	0.317611	0.666673
C343	C	0.753093	-0.463361	-0.000007
C344	C	1.086426	-0.130027	0.333327
C345	C	1.419760	0.203306	0.666660
H346	H	0.707958	-0.433120	-0.000023
H347	H	1.041292	-0.099787	0.333311
H348	H	1.374625	0.233546	0.666644
H349	H	0.749476	-0.486254	0.053769
H350	H	1.082810	-0.152920	0.387102
H351	H	1.416143	0.180413	0.720436
H352	H	0.749509	-0.486248	-0.053800
H353	H	1.082842	-0.152914	0.279533
H354	H	1.416175	0.180419	0.612867
