data_functionalizedCrystal
_audit_creation_method	'MofGen! by Chris Wilmer'
_symmetry_space_group_name_H-M	'P1'
_symmetry_Int_Tables_number	1
_symmetry_cell_setting	triclinic
loop_
_symmetry_equiv_pos_as_xyz
  x,y,z
_cell_length_a	13.897449
_cell_length_b	12.827892
_cell_length_c	13.897449
_cell_angle_alpha	90.007969
_cell_angle_beta	90.005980
_cell_angle_gamma	90.016671
loop_
_atom_site_label
_atom_site_type_symbol
_atom_site_fract_x
_atom_site_fract_y
_atom_site_fract_z
Zn1	Zn	1.474578	-0.416174	0.545396
Zn2	Zn	1.474520	-0.590884	0.384104
Zn3	Zn	1.313308	-0.416161	0.384115
Zn4	Zn	1.313255	-0.590877	0.545357
O5	O	1.393915	-0.503524	0.464743
O6	O	1.609551	-0.439357	0.524013
O7	O	1.453133	-0.567704	0.249124
O8	O	1.334748	-0.269927	0.405530
O9	O	1.609509	-0.567716	0.405512
O10	O	1.453231	-0.269936	0.524023
O11	O	1.334691	-0.439336	0.249132
O12	O	1.178320	-0.439330	0.405492
O13	O	1.334657	-0.567705	0.680344
O14	O	1.178280	-0.567693	0.523955
O15	O	1.453180	-0.439351	0.680373
O16	O	1.453081	-0.737119	0.405474
O17	O	1.334600	-0.737114	0.523945
C18	C	1.143301	-0.503510	0.464721
C19	C	1.036087	-0.503529	0.464734
C20	C	1.393855	-0.775034	0.464725
C21	C	1.393917	-0.891187	0.464750
C22	C	1.335435	-1.063095	0.406112
C23	C	1.335370	-0.943045	0.406085
C24	C	0.839792	-0.503533	0.464760
C25	C	0.949024	-0.503528	0.464743
C26	C	1.645508	-0.503539	0.464766
C27	C	1.752722	-0.503545	0.464775
C28	C	1.393919	-0.503528	0.716336
C29	C	1.393920	-0.503530	0.823550
C30	C	1.394002	-0.230954	0.464782
C31	C	1.394039	-0.114801	0.464799
C32	C	1.393896	-0.503535	1.019845
C33	C	1.393906	-0.503535	0.910612
C34	C	1.393902	-0.503541	1.214129
C35	C	1.393895	-0.503533	1.106915
H36	H	1.285308	-1.107704	0.355891
H37	H	1.285200	-0.898580	0.355837
H38	H	1.444096	-0.935647	0.514993
O39	O	1.453704	-1.061477	0.524766
C40	C	1.466399	-0.938101	0.654918
C41	C	1.398719	-0.998404	0.587048
H42	H	1.421970	-0.887109	0.705303
H43	H	1.516784	-0.886898	0.610678
H44	H	1.510556	-0.995722	0.699065
H45	H	1.354499	-0.940859	0.542887
H46	H	1.348397	-1.049623	0.631344
