data_functionalizedCrystal
_audit_creation_method	'MofGen! by Chris Wilmer'
_symmetry_space_group_name_H-M	'P1'
_symmetry_Int_Tables_number	1
_symmetry_cell_setting	triclinic
loop_
_symmetry_equiv_pos_as_xyz
  x,y,z
_cell_length_a	10.908878
_cell_length_b	15.944545
_cell_length_c	10.065875
_cell_angle_alpha	98.787614
_cell_angle_beta	83.443480
_cell_angle_gamma	71.790482
loop_
_atom_site_label
_atom_site_type_symbol
_atom_site_fract_x
_atom_site_fract_y
_atom_site_fract_z
O1	O	1.722629	-0.144700	-0.113457
O2	O	1.348771	-0.079109	-0.113470
O3	O	1.545911	-0.235604	-0.113447
O4	O	1.525489	0.011796	-0.113480
O5	O	1.508319	-0.205664	0.113538
O6	O	1.311179	-0.049168	0.113515
O7	O	1.685037	-0.114760	0.113528
Zn8	Zn	1.492139	-0.077210	0.149560
Zn9	Zn	1.541668	-0.116658	-0.149502
O10	O	1.487897	0.041736	0.113505
C11	C	1.282134	-0.058009	0.000021
C12	C	1.139583	-0.039754	0.000017
C13	C	1.090569	-0.106363	0.000025
C14	C	0.943236	-0.087497	0.000021
C15	C	1.526268	-0.251810	0.000047
C16	C	1.523729	-0.344701	0.000051
C17	C	1.393952	-0.597204	0.000019
C18	C	1.475057	-0.570123	-0.111895
C19	C	1.514684	-0.679085	0.000012
C20	C	1.438027	-0.540636	0.111894
C21	C	1.519121	-0.514789	0.000033
C22	C	1.595773	-0.653240	-0.111995
C23	C	1.558708	-0.623741	0.111895
C24	C	1.639907	-0.596709	-0.000046
C25	C	1.512125	-0.773731	-0.000002
C26	C	1.521692	-0.420149	0.000037
C27	C	1.751675	-0.135860	0.000034
C28	C	1.894227	-0.154116	0.000029
C29	C	1.507540	0.057941	0.000008
C30	C	1.510081	0.150831	-0.000005
N31	N	1.458347	-0.050290	0.353661
N32	N	1.575471	-0.143586	-0.353603
C33	C	1.529903	-0.107296	0.421449
C34	C	1.503905	-0.086572	0.578613
H35	H	1.157683	-0.177357	0.000029
H36	H	0.961336	-0.225116	0.000029
H37	H	1.610408	-0.171446	0.363134
H38	H	1.423386	-0.022423	0.636924
H39	H	1.072470	0.031239	0.000001
N40	N	1.676463	-0.224066	0.573238
N41	N	1.697437	-0.240791	0.445672
H42	H	1.768761	-0.297629	0.394001
N43	N	1.679390	-0.713975	-0.230810
N44	N	1.773874	-0.779424	-0.218589
H45	H	1.832928	-0.822318	-0.302501
N46	N	1.357327	0.030174	0.426807
N47	N	1.264358	0.025258	0.506580
H48	H	1.193007	0.082086	0.558237
N49	N	0.859042	0.001565	-0.000000
N50	N	0.739478	0.016764	-0.000006
H51	H	0.680013	0.079663	-0.000019
H52	H	1.289995	-0.598344	-0.000094
H53	H	1.743973	-0.595765	-0.000106
N54	N	1.602947	-0.653324	0.230606
N55	N	1.542526	-0.610860	0.346727
H56	H	1.573757	-0.631750	0.430578
N57	N	1.354368	-0.479761	0.230569
N58	N	1.234691	-0.468842	0.250471
H59	H	1.175598	-0.425848	0.334277
N60	N	1.430742	-0.540549	-0.230590
N61	N	1.317669	-0.534883	-0.250537
H62	H	1.286363	-0.513997	-0.334362
