data_functionalizedCrystal
_audit_creation_method	'MofGen! by Chris Wilmer'
_symmetry_space_group_name_H-M	'P1'
_symmetry_Int_Tables_number	1
_symmetry_cell_setting	triclinic
loop_
_symmetry_equiv_pos_as_xyz
  x,y,z
_cell_length_a	17.699104
_cell_length_b	15.944493
_cell_length_c	16.776229
_cell_angle_alpha	89.999222
_cell_angle_beta	89.991971
_cell_angle_gamma	83.383281
loop_
_atom_site_label
_atom_site_type_symbol
_atom_site_fract_x
_atom_site_fract_y
_atom_site_fract_z
O1	O	1.004230	0.106308	-0.066294
O2	O	1.337563	0.439641	0.267039
O3	O	1.670897	0.772975	0.600373
O4	O	0.783875	0.120110	-0.066291
O5	O	1.117208	0.453443	0.267043
O6	O	1.450542	0.786777	0.600376
O7	O	0.900093	-0.009081	-0.066299
O8	O	1.233426	0.324252	0.267034
O9	O	1.566759	0.657585	0.600368
O10	O	0.888012	0.235499	-0.066286
O11	O	1.221346	0.568833	0.267048
O12	O	1.554679	0.902166	0.600381
O13	O	0.900077	-0.009089	0.066277
O14	O	1.233411	0.324244	0.399611
O15	O	1.566744	0.657577	0.732944
O16	O	0.783859	0.120102	0.066286
O17	O	1.117193	0.453435	0.399619
O18	O	1.450526	0.786769	0.732952
O19	O	1.004215	0.106300	0.066283
O20	O	1.337548	0.439633	0.399616
O21	O	1.670881	0.772967	0.732949
Zn22	Zn	0.894035	0.113200	0.087334
Zn23	Zn	1.227368	0.446533	0.420667
Zn24	Zn	1.560701	0.779866	0.754000
Zn25	Zn	0.894055	0.113210	-0.087342
Zn26	Zn	1.227388	0.446544	0.245992
Zn27	Zn	1.560722	0.779877	0.579325
O28	O	0.887997	0.235491	0.066291
O29	O	1.221330	0.568825	0.399624
O30	O	1.554663	0.902158	0.732958
C31	C	0.755670	0.119608	-0.000002
C32	C	1.089003	0.452942	0.333331
C33	C	1.422336	0.786275	0.666664
C34	C	0.671650	0.118116	-0.000002
C35	C	1.004984	0.451449	0.333332
C36	C	1.338317	0.784782	0.666665
C37	C	0.899591	-0.040379	-0.000014
C38	C	1.232925	0.292954	0.333319
C39	C	1.566258	0.626287	0.666652
C40	C	0.898111	-0.133625	-0.000024
C41	C	1.231444	0.199709	0.333309
C42	C	1.564778	0.533042	0.666642
C43	C	0.146882	0.185531	-0.000006
C44	C	0.480215	0.518864	0.333327
C45	C	0.813548	0.852198	0.666660
C46	C	0.225828	0.186928	-0.000008
C47	C	0.559161	0.520262	0.333325
C48	C	0.892494	0.853595	0.666658
C49	C	0.274330	0.111088	-0.000012
C50	C	0.607663	0.444421	0.333321
C51	C	0.940996	0.777755	0.666654
C52	C	0.243883	0.033845	-0.000022
C53	C	0.577216	0.367179	0.333311
C54	C	0.910549	0.700512	0.666644
C55	C	0.164938	0.032449	-0.000026
C56	C	0.498271	0.365782	0.333308
C57	C	0.831605	0.699116	0.666641
C58	C	0.562257	0.039476	-0.000009
C59	C	0.895591	0.372809	0.333324
C60	C	1.228924	0.706142	0.666657
C61	C	0.641207	0.040878	-0.000003
C62	C	0.974540	0.374212	0.333330
C63	C	1.307873	0.707545	0.666663
C64	C	0.623147	0.193955	0.000008
C65	C	0.956480	0.527288	0.333342
C66	C	1.289813	0.860622	0.666675
C67	C	0.544202	0.192559	0.000005
C68	C	0.877535	0.525892	0.333338
C69	C	1.210869	0.859225	0.666671
C70	C	0.513762	0.115317	-0.000009
C71	C	0.847095	0.448650	0.333324
C72	C	1.180428	0.781983	0.666657
C73	C	0.428160	0.113802	-0.000009
C74	C	0.761493	0.447136	0.333325
C75	C	1.094826	0.780469	0.666658
C76	C	0.359931	0.112602	-0.000008
C77	C	0.693264	0.445935	0.333326
C78	C	1.026597	0.779268	0.666659
C79	C	0.966520	-0.369523	-0.000010
C80	C	1.299853	-0.036190	0.333323
C81	C	1.633186	0.297144	0.666656
C82	C	0.929637	-0.420012	-0.065376
C83	C	1.262970	-0.086679	0.267957
C84	C	1.596304	0.246654	0.601290
C85	C	0.895368	-0.304340	-0.000015
C86	C	1.228701	0.028993	0.333319
C87	C	1.562035	0.362326	0.666652
C88	C	0.929605	-0.419996	0.065334
C89	C	1.262939	-0.086663	0.398667
C90	C	1.596272	0.246670	0.732000
C91	C	0.892724	-0.469245	-0.000002
C92	C	1.226057	-0.135911	0.333332
C93	C	1.559391	0.197422	0.666665
C94	C	0.858505	-0.353602	-0.065435
C95	C	1.191838	-0.020268	0.267899
C96	C	1.525171	0.313065	0.601232
C97	C	0.858483	-0.353582	0.065334
C98	C	1.191817	-0.020249	0.398667
C99	C	1.525150	0.313085	0.732001
C100	C	0.821549	-0.404039	-0.000048
C101	C	1.154882	-0.070705	0.333285
C102	C	1.488215	0.262628	0.666619
C103	C	0.896893	-0.209343	-0.000023
C104	C	1.230227	0.123990	0.333311
C105	C	1.563560	0.457323	0.666644
C106	C	0.891193	-0.564239	0.000001
C107	C	1.224526	-0.230905	0.333334
C108	C	1.557860	0.102428	0.666668
C109	C	1.032420	0.106802	-0.000008
C110	C	1.365753	0.440135	0.333326
C111	C	1.699087	0.773468	0.666659
C112	C	1.116439	0.108294	-0.000014
C113	C	1.449773	0.441628	0.333320
C114	C	1.783106	0.774961	0.666653
C115	C	0.888498	0.266789	0.000004
C116	C	1.221832	0.600122	0.333338
C117	C	1.555165	0.933456	0.666671
C118	C	0.889979	0.360035	0.000009
C119	C	1.223312	0.693368	0.333342
C120	C	1.556645	1.026701	0.666676
N121	N	0.894026	0.113192	0.206545
N122	N	1.227360	0.446525	0.539878
N123	N	1.560693	0.779859	0.873211
N124	N	0.894069	0.113211	-0.206553
N125	N	1.227403	0.446545	0.126780
N126	N	1.560736	0.779878	0.460114
C127	C	0.945503	0.056010	0.248258
C128	C	1.278837	0.389343	0.581591
C129	C	1.612170	0.722676	0.914925
C130	C	0.945507	0.056009	0.331710
C131	C	1.278841	0.389342	0.665044
C132	C	1.612174	0.722676	0.998377
C133	C	0.894038	0.113195	0.373448
C134	C	1.227371	0.446529	0.706781
C135	C	1.560704	0.779862	1.040114
C136	C	0.842555	0.170381	0.331728
C137	C	1.175889	0.503714	0.665062
C138	C	1.509222	0.837047	0.998395
C139	C	0.842548	0.170377	0.248278
C140	C	1.175881	0.503710	0.581611
C141	C	1.509215	0.837043	0.914944
C142	C	0.842583	0.170397	0.668276
C143	C	1.175916	0.503730	1.001609
C144	C	1.509249	0.837064	1.334942
C145	C	0.842595	0.170398	0.751732
C146	C	1.175929	0.503732	1.085065
C147	C	1.509262	0.837065	1.418399
C148	C	0.945542	0.056029	0.751708
C149	C	1.278875	0.389363	1.085042
C150	C	1.612209	0.722696	1.418375
C151	C	0.945535	0.056025	0.668258
C152	C	1.278868	0.389359	1.001591
C153	C	1.612202	0.722692	1.334924
C154	C	0.894050	0.113207	0.626546
C155	C	1.227383	0.446541	0.959879
C156	C	1.560717	0.779874	1.293212
C157	C	0.894045	0.113206	0.536057
C158	C	1.227379	0.446540	0.869391
C159	C	1.560712	0.779873	1.202724
C160	C	0.894046	0.113201	0.463934
C161	C	1.227379	0.446534	0.797268
C162	C	1.560712	0.779868	1.130601
H163	H	0.107396	0.247289	0.000003
H164	H	0.440729	0.580622	0.333336
H165	H	0.774063	0.913956	0.666670
H166	H	0.250609	0.249822	-0.000010
H167	H	0.583943	0.583155	0.333324
H168	H	0.917276	0.916489	0.666657
H169	H	0.828455	-0.324564	0.120600
H170	H	1.161788	0.008769	0.453933
H171	H	1.495121	0.342103	0.787267
Br172	Br	1.068668	-0.343678	-0.000115
Br173	Br	1.402001	-0.010345	0.333218
Br174	Br	1.735335	0.322989	0.666551
H175	H	0.800629	0.216939	0.214315
H176	H	1.133963	0.550273	0.547649
H177	H	1.467296	0.883606	0.880982
H178	H	0.140154	-0.030445	-0.000033
H179	H	0.473487	0.302888	0.333300
H180	H	0.806821	0.636222	0.666633
H181	H	0.800680	0.216968	0.785713
H182	H	1.134013	0.550301	1.119047
H183	H	1.467346	0.883635	1.452380
H184	H	0.800663	0.216958	0.634320
H185	H	1.133997	0.550291	0.967654
H186	H	1.467330	0.883625	1.300987
Br187	Br	0.478381	0.295488	0.000014
Br188	Br	0.811714	0.628821	0.333348
Br189	Br	1.145048	0.962155	0.666681
H190	H	0.680696	-0.020884	-0.000009
H191	H	1.014030	0.312449	0.333325
H192	H	1.347363	0.645783	0.666658
H193	H	0.987462	0.009466	0.785679
H194	H	1.320795	0.342799	1.119012
H195	H	1.654128	0.676133	1.452346
Br196	Br	0.979727	-0.468355	-0.157487
Br197	Br	1.313060	-0.135021	0.175847
Br198	Br	1.646394	0.198312	0.509180
H199	H	0.800644	0.216940	0.365716
H200	H	1.133977	0.550273	0.699049
H201	H	1.467310	0.883607	1.032382
Br202	Br	1.015392	-0.021582	0.611616
Br203	Br	1.348726	0.311751	0.944950
Br204	Br	1.682059	0.645085	1.278283
Br205	Br	0.979699	-0.468324	0.157435
Br206	Br	1.313032	-0.134991	0.490768
Br207	Br	1.646366	0.198343	0.824102
H208	H	0.760213	-0.419381	-0.000083
H209	H	1.093547	-0.086048	0.333250
H210	H	1.426880	0.247286	0.666584
Br211	Br	1.015367	-0.021600	0.388324
Br212	Br	1.348701	0.311734	0.721657
Br213	Br	1.682034	0.645067	1.054991
Br214	Br	0.664462	0.298786	0.000024
Br215	Br	0.997796	0.632119	0.333357
Br216	Br	1.331129	0.965453	0.666691
Br217	Br	0.520955	-0.065353	-0.000052
Br218	Br	0.854288	0.267981	0.333281
Br219	Br	1.187622	0.601314	0.666615
H220	H	0.283380	-0.027905	-0.000030
H221	H	0.616713	0.305428	0.333303
H222	H	0.950046	0.638762	0.666636
Br223	Br	0.808463	-0.305467	-0.157643
Br224	Br	1.141796	0.027866	0.175691
Br225	Br	1.475129	0.361199	0.509024
H226	H	0.987419	0.009445	0.214281
H227	H	1.320752	0.342779	0.547614
H228	H	1.654086	0.676112	0.880948
