data_functionalizedCrystal
_audit_creation_method	'MofGen! by Chris Wilmer'
_symmetry_space_group_name_H-M	'P1'
_symmetry_Int_Tables_number	1
_symmetry_cell_setting	triclinic
loop_
_symmetry_equiv_pos_as_xyz
  x,y,z
_cell_length_a	14.395555
_cell_length_b	14.395555
_cell_length_c	18.426585
_cell_angle_alpha	60.000369
_cell_angle_beta	90.000313
_cell_angle_gamma	60.003201
loop_
_atom_site_label
_atom_site_type_symbol
_atom_site_fract_x
_atom_site_fract_y
_atom_site_fract_z
Zr1	Zr	0.894906	1.016827	-0.095264
O2	O	0.746590	1.210610	-0.211140
O3	O	0.940369	0.823035	-0.059740
O4	O	0.940377	1.016823	-0.211141
O5	O	0.746580	1.016829	0.059687
O6	O	1.093245	1.016830	-0.211144
O7	O	0.746582	1.016822	-0.059739
O8	O	1.093229	0.670179	0.059685
O9	O	0.746595	1.363480	-0.211141
O10	O	1.073846	0.902753	-0.044594
O11	O	0.959761	0.902753	0.044535
O12	O	0.959772	1.130913	-0.133720
O13	O	0.845687	1.130912	-0.044592
Zr14	Zr	1.138708	1.016849	0.095202
Zr15	Zr	1.138712	1.016838	-0.095268
Zr16	Zr	0.894903	1.016837	0.095207
Zr17	Zr	0.894913	1.260636	-0.095267
Zr18	Zr	1.138701	0.773039	0.095205
O19	O	1.093245	1.210640	0.059679
O20	O	1.093251	1.210626	-0.211146
O21	O	0.746585	1.210625	0.059685
O22	O	1.287024	0.823066	0.211078
O23	O	1.287029	0.823051	-0.059746
O24	O	0.940364	0.823050	0.211085
O25	O	1.287035	1.016847	-0.059749
O26	O	1.093237	1.016853	0.211079
O27	O	0.940370	1.016846	0.211082
O28	O	1.287032	1.016853	0.059677
O29	O	0.940388	1.363488	-0.211145
O30	O	1.093226	0.670187	0.211084
O31	O	1.287019	0.670196	0.211080
O32	O	1.287022	0.670188	0.059681
O33	O	0.746592	1.363488	-0.059743
O34	O	0.940385	1.363496	-0.059746
O35	O	1.073843	0.902763	0.133659
O36	O	1.187927	0.902763	0.044531
O37	O	1.073853	1.130923	-0.044596
O38	O	0.959768	1.130922	0.044532
C39	C	1.016798	0.711870	-0.000027
C40	C	1.016795	0.608366	-0.000026
C41	C	0.711844	1.016824	-0.000025
C42	C	0.608342	1.016819	-0.000023
C43	C	0.954594	0.547774	0.048574
C44	C	0.909516	0.562024	-0.035233
C45	C	1.061846	0.409721	0.083755
C46	C	0.971653	0.624042	-0.083882
C47	C	1.124044	0.471676	0.035167
C48	C	1.078992	0.485973	-0.048690
C49	C	0.609951	0.892417	0.048571
C50	C	0.516937	0.954609	0.083793
C51	C	0.516928	0.954632	-0.035219
C52	C	0.516690	1.079012	0.035247
C53	C	0.516696	1.079017	-0.083811
C54	C	0.423664	1.141301	-0.048611
C55	C	1.321771	1.016852	-0.000036
C56	C	1.425273	1.016856	-0.000038
C57	C	1.016812	1.016825	-0.238280
C58	C	1.016813	1.016821	-0.319140
C59	C	1.016816	1.321806	-0.000034
C60	C	1.016819	1.425309	-0.000036
C61	C	1.016814	1.016816	-0.384807
C62	C	1.016813	1.016821	-0.467193
C63	C	1.016808	1.016835	-0.532861
C64	C	1.016806	1.016841	-0.615253
C65	C	1.016803	1.016851	0.238219
C66	C	1.016801	1.016855	0.319079
C67	C	1.321762	0.711883	-0.000033
C68	C	1.425260	0.608385	-0.000033
C69	C	1.016793	0.711883	0.238222
C70	C	1.016789	0.608384	0.319083
C71	C	1.321757	0.711896	0.238217
C72	C	1.425254	0.608402	0.319076
C73	C	0.711857	1.321779	-0.238278
C74	C	0.608360	1.425274	-0.319137
C75	C	0.711853	1.321792	-0.000029
C76	C	0.608354	1.425291	-0.000028
C77	C	1.016821	1.321793	-0.238284
C78	C	1.016825	1.425292	-0.319145
C79	C	1.076336	0.559785	0.403586
C80	C	1.076327	0.462550	0.479571
C81	C	1.016777	0.413909	0.471051
C82	C	0.957223	0.462518	0.386539
C83	C	0.957226	0.559757	0.310556
C84	C	1.533419	0.559800	0.310524
C85	C	1.630675	0.462570	0.386492
C86	C	1.619764	0.413936	0.471012
C87	C	1.511588	0.462548	0.479562
C88	C	1.414334	0.559783	0.403594
C89	C	0.500195	1.473887	-0.310586
C90	C	0.402939	1.571148	-0.386554
C91	C	0.413851	1.619786	-0.471073
C92	C	0.522027	1.571169	-0.479623
C93	C	0.619280	1.473917	-0.403656
C94	C	1.076387	1.473902	-0.310596
C95	C	1.076413	1.571137	-0.386566
C96	C	1.016871	1.619768	-0.471084
C97	C	0.957308	1.571148	-0.479631
C98	C	0.957289	1.473908	-0.403662
C99	C	1.548047	0.547837	0.048534
C100	C	1.578902	0.409732	0.083732
C101	C	1.578815	0.562130	-0.035282
C102	C	1.454752	0.471580	0.035214
C103	C	1.454668	0.624052	-0.083847
C104	C	1.485450	0.485957	-0.048670
H105	H	0.901922	0.574999	0.089611
N106	N	0.515779	0.888645	0.172678
N107	N	0.594590	0.770647	0.229376
H108	H	0.593780	0.724050	0.292153
H109	H	0.344040	1.246581	-0.089702
N110	N	1.137233	1.620814	-0.377825
N111	N	1.085405	1.740202	-0.409837
H112	H	1.128357	1.775286	-0.403662
H113	H	0.908830	1.610759	-0.548456
N114	N	0.896437	1.424277	-0.412418
N115	N	0.843281	1.467719	-0.487889
H116	H	0.800301	1.432671	-0.494080
H117	H	1.502720	0.422936	0.548388
H118	H	1.124828	0.422984	0.548377
N119	N	1.453279	0.452068	-0.100244
N120	N	1.394130	0.537914	-0.180593
H121	H	1.371411	0.513975	-0.217014
H122	H	0.516016	0.902028	-0.064980
H123	H	0.818826	0.599203	-0.065008
N124	N	1.016789	0.314584	0.548679
N125	N	1.069968	0.271210	0.624121
H126	H	1.069982	0.201059	0.678950
H127	H	1.124829	0.599377	0.410541
N128	N	1.741155	0.412923	0.377730
N129	N	1.770144	0.358660	0.338091
H130	H	1.848168	0.323598	0.331898
N131	N	1.579970	0.581790	0.100173
N132	N	1.637644	0.496378	0.180848
H133	H	1.660190	0.520353	0.217320
H134	H	1.632435	0.318099	0.154574
H135	H	0.314867	1.610716	-0.379575
H136	H	0.517518	1.131555	0.065089
N137	N	0.517911	1.144910	-0.172679
N138	N	0.519308	1.102486	-0.217855
H139	H	0.520170	1.149014	-0.280621
H140	H	0.334651	1.698975	-0.532924
H141	H	0.908739	0.422900	0.379615
N142	N	1.544562	0.609496	0.224189
N143	N	1.457733	0.696319	0.156359
H144	H	1.465608	0.731420	0.095386
N145	N	0.896392	0.609378	0.224247
N146	N	0.843233	0.565927	0.216662
H147	H	0.800264	0.600967	0.155707
H148	H	1.214713	0.434516	0.064962
H149	H	1.698963	0.334761	0.532862
H150	H	1.326265	0.599342	0.410570
H151	H	1.016896	1.698948	-0.532936
H152	H	0.491289	1.434291	-0.241772
N153	N	0.533142	1.620878	-0.565967
N154	N	0.446291	1.707706	-0.633780
H155	H	0.454136	1.742813	-0.694764
N156	N	1.645928	0.608799	-0.072635
N157	N	1.665405	0.616207	-0.140774
H158	H	1.712821	0.649147	-0.167142
N159	N	0.729757	1.424258	-0.412416
N160	N	0.758729	1.370019	-0.452070
H161	H	0.836751	1.334952	-0.458265
N162	N	1.137218	1.424254	-0.224276
N163	N	1.190397	1.467676	-0.216672
H164	H	1.233368	1.432613	-0.155710
H165	H	1.401415	0.434161	0.065067
H166	H	1.401138	0.715708	-0.154673
H167	H	1.131590	0.459030	-0.089850
N168	N	0.923722	0.738914	-0.172808
N169	N	0.836943	0.845784	-0.193646
H170	H	0.803088	0.926916	-0.256449
N171	N	1.109620	0.294813	0.172644
N172	N	1.064167	0.301084	0.229327
H173	H	1.097898	0.219937	0.292106
H174	H	0.689703	0.787223	0.089721
