data_functionalizedCrystal
_audit_creation_method	'MofGen! by Chris Wilmer'
_symmetry_space_group_name_H-M	'P1'
_symmetry_Int_Tables_number	1
_symmetry_cell_setting	triclinic
loop_
_symmetry_equiv_pos_as_xyz
  x,y,z
_cell_length_a	16.120530
_cell_length_b	21.295417
_cell_length_c	16.120297
_cell_angle_alpha	92.867002
_cell_angle_beta	90.128140
_cell_angle_gamma	87.125778
loop_
_atom_site_label
_atom_site_type_symbol
_atom_site_fract_x
_atom_site_fract_y
_atom_site_fract_z
Zn1	Zn	1.247391	-0.318915	-0.534523
Zn2	Zn	1.254326	-0.419125	-0.395453
Zn3	Zn	1.115383	-0.308278	-0.388443
Zn4	Zn	1.108282	-0.418545	-0.527422
O5	O	1.181345	-0.366216	-0.461460
O6	O	1.364676	-0.336903	-0.521981
O7	O	1.241769	-0.400212	-0.278158
O8	O	1.132963	-0.221604	-0.407859
O9	O	1.369771	-0.410526	-0.419806
O10	O	1.229949	-0.229419	-0.515184
O11	O	1.139688	-0.318773	-0.273008
O12	O	0.998075	-0.318211	-0.400973
O13	O	1.120862	-0.409538	-0.644729
O14	O	0.992859	-0.399224	-0.503081
O15	O	1.223064	-0.336340	-0.649946
O16	O	1.234884	-0.507133	-0.412921
O17	O	1.127586	-0.506707	-0.509878
C18	C	0.965295	-0.357501	-0.450496
C19	C	0.872866	-0.353788	-0.445825
C20	C	0.703638	-0.346996	-0.437305
C21	C	0.659891	-0.385485	-0.485677
C22	C	0.565726	-0.381705	-0.480936
C23	C	0.797811	-0.350774	-0.442045
C24	C	1.181239	-0.529761	-0.461409
C25	C	1.181268	-0.599731	-0.461418
C26	C	1.237182	-0.632802	-0.410990
C27	C	1.237220	-0.698547	-0.411010
C28	C	1.181329	-0.731217	-0.461450
C29	C	1.125411	-0.698138	-0.511889
C30	C	1.125380	-0.632395	-0.511873
N31	N	1.108264	-0.831783	-0.464098
N32	N	1.108296	-0.894236	-0.464108
C33	C	1.181420	-0.929297	-0.461503
N34	N	1.254514	-0.899546	-0.458870
N35	N	1.254481	-0.837087	-0.458855
C36	C	1.181357	-0.802504	-0.461473
C37	C	1.237380	-1.033657	-0.411094
C38	C	1.237419	-1.099403	-0.411120
C39	C	1.125603	-1.098992	-0.511994
C40	C	1.125571	-1.033248	-0.511973
C41	C	1.181459	-1.000584	-0.461518
C42	C	1.398240	-0.374966	-0.472468
C43	C	1.490667	-0.378694	-0.477159
C44	C	1.170397	-0.374061	-0.678353
C45	C	1.165731	-0.377404	-0.770780
C46	C	1.181474	-0.202033	-0.461531
C47	C	1.181529	-0.132068	-0.461562
C48	C	1.157183	-0.383493	-0.940004
C49	C	1.205672	-0.348757	-0.983777
C50	C	1.200915	-0.352144	-1.077938
C51	C	1.161938	-0.380106	-0.845834
C52	C	1.192299	-0.358358	-0.245413
C53	C	1.197126	-0.354844	-0.152995
H54	H	0.670373	-0.311209	-0.392335
H55	H	1.282957	-1.126329	-0.370057
O56	O	1.071173	-0.600246	-0.560953
C57	C	1.115742	-0.566000	-0.617073
H58	H	1.180978	-0.588590	-0.625593
H59	H	1.119900	-0.515369	-0.591495
C60	C	0.990559	-0.538723	-0.690956
C61	C	1.070682	-0.566473	-0.701425
H62	H	0.962764	-0.539012	-0.742988
H63	H	0.960532	-0.561793	-0.653146
H64	H	0.994036	-0.496533	-0.669638
H65	H	1.067204	-0.608664	-0.722733
H66	H	1.100708	-0.543410	-0.739242
O67	O	1.291708	-1.001861	-0.362208
C68	C	1.342980	-0.967665	-0.412308
H69	H	1.310415	-0.958905	-0.473807
H70	H	1.404145	-0.995770	-0.424632
C71	C	1.400351	-0.914935	-0.291780
C72	C	1.360351	-0.904172	-0.367311
H73	H	1.411070	-0.875771	-0.264023
H74	H	1.365811	-0.937976	-0.258026
H75	H	1.451317	-0.938358	-0.302060
H76	H	1.309381	-0.880757	-0.357029
H77	H	1.394883	-0.881126	-0.401062
O78	O	1.259374	-0.310149	-0.944165
C79	C	1.240218	-0.247428	-0.964429
H80	H	1.172602	-0.242413	-0.984985
H81	H	1.282316	-0.234554	-1.017048
C82	C	1.336810	-0.209240	-0.862472
C83	C	1.253761	-0.203079	-0.887712
H84	H	1.345167	-0.181882	-0.815151
H85	H	1.349719	-0.251496	-0.848821
H86	H	1.371882	-0.198512	-0.906328
H87	H	1.218691	-0.213814	-0.843861
H88	H	1.240847	-0.160823	-0.901354
H89	H	1.282755	-0.725479	-0.369945
H90	H	1.080099	-1.125592	-0.553068
H91	H	1.080037	-1.006319	-0.553033
O92	O	1.071231	-0.729946	-0.560932
C93	C	1.115837	-0.771763	-0.617100
H94	H	1.180360	-0.783060	-0.591023
H95	H	1.121802	-0.748996	-0.679187
C96	C	0.990093	-0.819063	-0.661838
C97	C	1.069340	-0.832942	-0.629806
H98	H	0.961411	-0.856800	-0.669680
H99	H	0.960041	-0.790888	-0.623999
H100	H	0.995076	-0.800089	-0.713574
H101	H	1.064356	-0.851909	-0.578067
H102	H	1.099390	-0.861122	-0.667637
H103	H	1.112102	-0.415774	-0.973246
O104	O	1.291557	-0.601174	-0.361966
C105	C	1.340905	-0.644466	-0.317446
H106	H	1.342053	-0.692664	-0.351663
H107	H	1.313700	-0.647988	-0.252724
C108	C	1.428599	-0.562695	-0.267998
C109	C	1.430015	-0.621891	-0.310028
H110	H	1.483565	-0.548769	-0.263418
H111	H	1.395351	-0.533527	-0.297989
H112	H	1.405924	-0.565638	-0.214067
H113	H	1.452680	-0.618946	-0.363960
H114	H	1.463269	-0.651058	-0.280045
H115	H	0.693157	-0.421274	-0.530651
