data_functionalizedCrystal
_audit_creation_method	'MofGen! by Chris Wilmer'
_symmetry_space_group_name_H-M	'P1'
_symmetry_Int_Tables_number	1
_symmetry_cell_setting	triclinic
loop_
_symmetry_equiv_pos_as_xyz
  x,y,z
_cell_length_a	16.959455
_cell_length_b	18.050589
_cell_length_c	16.959447
_cell_angle_alpha	89.973357
_cell_angle_beta	89.985678
_cell_angle_gamma	90.025168
loop_
_atom_site_label
_atom_site_type_symbol
_atom_site_fract_x
_atom_site_fract_y
_atom_site_fract_z
Zn1	Zn	1.208339	-0.295705	-0.446929
Zn2	Zn	1.541672	0.037628	-0.113596
Zn3	Zn	1.875006	0.370961	0.219738
Zn4	Zn	1.208243	-0.419907	-0.314759
Zn5	Zn	1.541576	-0.086574	0.018575
Zn6	Zn	1.874909	0.246760	0.351908
Zn7	Zn	1.076167	-0.295729	-0.314766
Zn8	Zn	1.409501	0.037605	0.018567
Zn9	Zn	1.742834	0.370938	0.351900
Zn10	Zn	1.076113	-0.419851	-0.446897
Zn11	Zn	1.409447	-0.086518	-0.113564
Zn12	Zn	1.742780	0.246815	0.219769
O13	O	1.142216	-0.357798	-0.380838
O14	O	1.475549	-0.024465	-0.047505
O15	O	1.808882	0.308869	0.285829
O16	O	1.318937	-0.312194	-0.429406
O17	O	1.652270	0.021139	-0.096073
O18	O	1.985604	0.354472	0.237260
O19	O	1.190705	-0.403467	-0.204149
O20	O	1.524038	-0.070134	0.129184
O21	O	1.857372	0.263199	0.462518
O22	O	1.093763	-0.191801	-0.332314
O23	O	1.427097	0.141532	0.001019
O24	O	1.760430	0.474866	0.334352
O25	O	1.318866	-0.403445	-0.332301
O26	O	1.652200	-0.070111	0.001032
O27	O	1.985533	0.263222	0.334365
O28	O	1.190869	-0.191784	-0.429414
O29	O	1.524202	0.141550	-0.096080
O30	O	1.857536	0.474883	0.237253
O31	O	1.093670	-0.312234	-0.204154
O32	O	1.427003	0.021099	0.129179
O33	O	1.760337	0.354433	0.462512
O34	O	0.965549	-0.312180	-0.332284
O35	O	1.298883	0.021153	0.001050
O36	O	1.632216	0.354486	0.334383
O37	O	1.093671	-0.403350	-0.557512
O38	O	1.427004	-0.070017	-0.224179
O39	O	1.760338	0.263317	0.109154
O40	O	0.965510	-0.403373	-0.429360
O41	O	1.298843	-0.070039	-0.096027
O42	O	1.632176	0.263294	0.237307
O43	O	1.190817	-0.312141	-0.557536
O44	O	1.524150	0.021193	-0.224202
O45	O	1.857483	0.354526	0.109131
O46	O	1.190653	-0.523824	-0.332271
O47	O	1.523986	-0.190491	0.001062
O48	O	1.857319	0.142843	0.334396
O49	O	1.093578	-0.523783	-0.429353
O50	O	1.426911	-0.190450	-0.096019
O51	O	1.760244	0.142883	0.237314
C52	C	0.936849	-0.357774	-0.380820
C53	C	1.270183	-0.024440	-0.047486
C54	C	1.603516	0.308893	0.285847
C55	C	0.848993	-0.357781	-0.380831
C56	C	1.182326	-0.024448	-0.047497
C57	C	1.515659	0.308886	0.285836
C58	C	0.477513	-0.310275	-0.330396
C59	C	0.810847	0.023058	0.002937
C60	C	1.144180	0.356391	0.336271
C61	C	0.477521	-0.405382	-0.431325
C62	C	0.810854	-0.072049	-0.097992
C63	C	1.144188	0.261285	0.235342
C64	C	0.560067	-0.405371	-0.431320
C65	C	0.893400	-0.072038	-0.097987
C66	C	1.226733	0.261295	0.235346
C67	C	0.601340	-0.357813	-0.380852
C68	C	0.934673	-0.024479	-0.047518
C69	C	1.268006	0.308854	0.285815
C70	C	0.560067	-0.310265	-0.330388
C71	C	0.893400	0.023069	0.002946
C72	C	1.226734	0.356402	0.336279
C73	C	0.601346	-0.452924	-0.481777
C74	C	0.934679	-0.119590	-0.148444
C75	C	1.268012	0.213743	0.184889
C76	C	0.683897	-0.452916	-0.481774
C77	C	1.017230	-0.119582	-0.148441
C78	C	1.350563	0.213751	0.184893
C79	C	0.725171	-0.405353	-0.431309
C80	C	1.058505	-0.072019	-0.097975
C81	C	1.391838	0.261314	0.235358
C82	C	0.683893	-0.357802	-0.380844
C83	C	1.017227	-0.024469	-0.047510
C84	C	1.350560	0.308865	0.285823
C85	C	0.725166	-0.310243	-0.330375
C86	C	1.058500	0.023090	0.002958
C87	C	1.391833	0.356423	0.336292
C88	C	0.683890	-0.262689	-0.279913
C89	C	1.017223	0.070645	0.053420
C90	C	1.350557	0.403978	0.386754
C91	C	0.601342	-0.262702	-0.279923
C92	C	0.934675	0.070632	0.053411
C93	C	1.268008	0.403965	0.386744
C94	C	0.807720	-0.405340	-0.431299
C95	C	1.141053	-0.072006	-0.097966
C96	C	1.474386	0.261327	0.235367
C97	C	0.807720	-0.310233	-0.330367
C98	C	1.141053	0.023100	0.002966
C99	C	1.474387	0.356434	0.336300
C100	C	1.142120	-0.550750	-0.380825
C101	C	1.475454	-0.217417	-0.047491
C102	C	1.808787	0.115916	0.285842
C103	C	1.142152	-0.633296	-0.380846
C104	C	1.475485	-0.299963	-0.047512
C105	C	1.808818	0.033371	0.285821
C106	C	1.089414	-0.832751	-0.433620
C107	C	1.422748	-0.499418	-0.100287
C108	C	1.756081	-0.166085	0.233047
C109	C	1.070151	-0.882194	-0.361493
C110	C	1.403485	-0.548861	-0.028160
C111	C	1.736818	-0.215528	0.305174
C112	C	1.142229	-0.784426	-0.380856
C113	C	1.475563	-0.451093	-0.047523
C114	C	1.808896	-0.117760	0.285811
C115	C	1.161531	-0.882065	-0.452991
C116	C	1.494864	-0.548732	-0.119658
C117	C	1.828198	-0.215398	0.213676
C118	C	1.142303	-0.930411	-0.380872
C119	C	1.475636	-0.597078	-0.047539
C120	C	1.808970	-0.263745	0.285794
C121	C	1.122929	-0.832782	-0.308691
C122	C	1.456262	-0.499449	0.024643
C123	C	1.789595	-0.166115	0.357976
C124	C	1.214342	-0.832648	-0.400237
C125	C	1.547675	-0.499315	-0.066904
C126	C	1.881008	-0.165982	0.266429
C127	C	1.195106	-0.882069	-0.328061
C128	C	1.528440	-0.548736	0.005273
C129	C	1.861773	-0.215402	0.338606
C130	C	1.142185	-0.700328	-0.380848
C131	C	1.475518	-0.366995	-0.047514
C132	C	1.808852	-0.033661	0.285819
C133	C	1.142347	-1.014508	-0.380872
C134	C	1.475681	-0.681175	-0.047539
C135	C	1.809014	-0.347841	0.285794
C136	C	1.348384	-0.357823	-0.380857
C137	C	1.681717	-0.024490	-0.047523
C138	C	2.015050	0.308843	0.285810
C139	C	1.436240	-0.357834	-0.380864
C140	C	1.769574	-0.024501	-0.047531
C141	C	2.102907	0.308833	0.285802
C142	C	1.142249	-0.357737	-0.587006
C143	C	1.475582	-0.024403	-0.253673
C144	C	1.808915	0.308930	0.079661
C145	C	1.142263	-0.357710	-0.674863
C146	C	1.475596	-0.024377	-0.341529
C147	C	1.808929	0.308956	-0.008196
C148	C	1.142333	-0.164092	-0.380868
C149	C	1.475666	0.169241	-0.047535
C150	C	1.809000	0.502574	0.285798
C151	C	1.142383	-0.081547	-0.380881
C152	C	1.475716	0.251787	-0.047548
C153	C	1.809050	0.585120	0.285785
C154	C	1.091778	-0.405121	-1.046329
C155	C	1.425111	-0.071787	-0.712996
C156	C	1.758444	0.261546	-0.379662
C157	C	1.192936	-0.310143	-1.046348
C158	C	1.526270	0.023190	-0.713015
C159	C	1.859603	0.356523	-0.379682
C160	C	1.192915	-0.310159	-0.963802
C161	C	1.526249	0.023174	-0.630469
C162	C	1.859582	0.356507	-0.297136
C163	C	1.142326	-0.357657	-0.922516
C164	C	1.475659	-0.024324	-0.589183
C165	C	1.808992	0.309010	-0.255849
C166	C	1.091757	-0.405139	-0.963775
C167	C	1.425090	-0.071806	-0.630442
C168	C	1.758423	0.261527	-0.297109
C169	C	1.243489	-0.262683	-0.922537
C170	C	1.576822	0.070650	-0.589203
C171	C	1.910155	0.403984	-0.255870
C172	C	1.243470	-0.262698	-0.839986
C173	C	1.576804	0.070636	-0.506652
C174	C	1.910137	0.403969	-0.173319
C175	C	1.192876	-0.310192	-0.798698
C176	C	1.526209	0.023141	-0.465364
C177	C	1.859543	0.356474	-0.132031
C178	C	1.142305	-0.357676	-0.839962
C179	C	1.475638	-0.024343	-0.506629
C180	C	1.808971	0.308991	-0.173296
C181	C	1.091715	-0.405174	-0.798676
C182	C	1.425048	-0.071841	-0.465343
C183	C	1.758381	0.261493	-0.132009
C184	C	1.041139	-0.452654	-0.839939
C185	C	1.374472	-0.119321	-0.506606
C186	C	1.707805	0.214012	-0.173272
C187	C	1.041162	-0.452634	-0.922488
C188	C	1.374496	-0.119301	-0.589154
C189	C	1.707829	0.214032	-0.255821
C190	C	1.192852	-0.310212	-0.716149
C191	C	1.526186	0.023121	-0.382816
C192	C	1.859519	0.356454	-0.049483
C193	C	1.091694	-0.405193	-0.716122
C194	C	1.425027	-0.071859	-0.382789
C195	C	1.758360	0.261474	-0.049456
C196	C	1.142228	-0.357806	-0.175472
C197	C	1.475562	-0.024472	0.157862
C198	C	1.808895	0.308861	0.491195
C199	C	1.142368	-0.357623	-0.087615
C200	C	1.475701	-0.024289	0.245718
C201	C	1.809034	0.309044	0.579051
H202	H	0.567735	-0.491649	-0.522861
H203	H	0.901069	-0.158315	-0.189527
H204	H	1.234402	0.175018	0.143806
F205	F	0.727825	-0.212079	-0.226198
F206	F	1.061159	0.121254	0.107135
F207	F	1.394492	0.454588	0.440468
F208	F	0.557407	-0.212095	-0.226222
F209	F	0.890741	0.121238	0.107111
F210	F	1.224074	0.454571	0.440444
F211	F	0.433585	-0.259663	-0.276697
F212	F	0.766918	0.073670	0.056636
F213	F	1.100252	0.407004	0.389969
F214	F	0.433593	-0.456007	-0.485020
F215	F	0.766927	-0.122674	-0.151687
F216	F	1.100260	0.210659	0.181647
F217	F	1.101538	-0.804606	-0.228939
F218	F	1.434871	-0.471273	0.104394
F219	F	1.768205	-0.137940	0.437727
F220	F	0.727819	-0.503526	-0.535480
F221	F	1.061152	-0.170192	-0.202147
F222	F	1.394485	0.163141	0.131186
H223	H	0.841323	-0.444060	-0.472382
H224	H	1.174657	-0.110727	-0.139049
H225	H	1.507990	0.222606	0.194285
H226	H	1.009203	-0.903974	-0.345115
H227	H	1.342536	-0.570640	-0.011782
H228	H	1.675869	-0.237307	0.321552
F229	F	0.987344	-0.503164	-0.966408
F230	F	1.320677	-0.169831	-0.633074
F231	F	1.654010	0.163502	-0.299741
H232	H	1.234129	-0.271477	-1.079969
H233	H	1.567462	0.061856	-0.746635
H234	H	1.900795	0.395190	-0.413302
H235	H	1.044685	-0.811096	-0.478178
H236	H	1.378018	-0.477763	-0.144845
H237	H	1.711351	-0.144429	0.188489
H238	H	1.239802	-0.903587	-0.283395
H239	H	1.573135	-0.570254	0.049938
H240	H	1.906468	-0.236920	0.383272
F241	F	1.182831	-0.910364	-0.532718
F242	F	1.516164	-0.577031	-0.199384
F243	F	1.849497	-0.243697	0.133949
H244	H	1.234033	-0.271557	-0.682556
H245	H	1.567366	0.061777	-0.349223
H246	H	1.900699	0.395110	-0.015890
H247	H	1.275277	-0.810871	-0.416650
H248	H	1.608610	-0.477538	-0.083317
H249	H	1.941943	-0.144204	0.250017
F250	F	1.037844	-0.455744	-0.672189
F251	F	1.371177	-0.122411	-0.338855
F252	F	1.704511	0.210923	-0.005522
F253	F	0.987303	-0.503207	-0.795990
F254	F	1.320637	-0.169874	-0.462656
F255	F	1.653970	0.163460	-0.129323
H256	H	1.284652	-0.224036	-0.806396
H257	H	1.617985	0.109298	-0.473063
H258	H	1.951319	0.442631	-0.139729
H259	H	1.284681	-0.224017	-0.956158
H260	H	1.618014	0.109316	-0.622825
H261	H	1.951348	0.442649	-0.289491
F262	F	0.851639	-0.259609	-0.276654
F263	F	1.184973	0.073724	0.056679
F264	F	1.518306	0.407057	0.390013
F265	F	1.037952	-0.455648	-1.090243
F266	F	1.371285	-0.122315	-0.756910
F267	F	1.704618	0.211019	-0.423577
