data_functionalizedCrystal
_audit_creation_method	'MofGen! by Chris Wilmer'
_symmetry_space_group_name_H-M	'P1'
_symmetry_Int_Tables_number	1
_symmetry_cell_setting	triclinic
loop_
_symmetry_equiv_pos_as_xyz
  x,y,z
_cell_length_a	10.686220
_cell_length_b	12.759400
_cell_length_c	10.686551
_cell_angle_alpha	94.405838
_cell_angle_beta	89.691918
_cell_angle_gamma	94.396325
loop_
_atom_site_label
_atom_site_type_symbol
_atom_site_fract_x
_atom_site_fract_y
_atom_site_fract_z
Zn1	Zn	1.972289	-0.256138	0.562385
Zn2	Zn	1.956061	-0.446298	0.352626
Zn3	Zn	1.746408	-0.283014	0.368703
Zn4	Zn	1.762491	-0.444169	0.578404
O5	O	1.859312	-0.357405	0.465529
O6	O	2.145678	-0.271007	0.521128
O7	O	1.914727	-0.436777	0.179213
O8	O	1.776432	-0.132422	0.394419
O9	O	2.133755	-0.410716	0.367019
O10	O	1.942386	-0.112677	0.536717
O11	O	1.760696	-0.316813	0.191024
O12	O	1.572999	-0.314748	0.409952
O13	O	1.803844	-0.407088	0.751824
O14	O	1.584816	-0.433148	0.564018
O15	O	1.957981	-0.268942	0.740056
O16	O	1.930323	-0.593042	0.382552
O17	O	1.788108	-0.591478	0.548429
C18	C	1.533391	-0.376634	0.490468
C19	C	1.393964	-0.384884	0.501167
C20	C	1.859236	-0.630378	0.465509
C21	C	1.859321	-0.747148	0.465533
C22	C	1.933468	-0.802778	0.379243
C23	C	1.933548	-0.912495	0.379275
C24	C	1.785323	-0.910942	0.551894
C25	C	1.785251	-0.801226	0.551866
C26	C	2.007538	-0.748700	0.292910
C27	C	2.081690	-0.804330	0.206611
C28	C	2.081770	-0.914047	0.206644
C29	C	2.007698	-0.968133	0.292976
C30	C	2.186505	-0.338101	0.440494
C31	C	2.325936	-0.329875	0.429825
C32	C	1.884517	-0.334779	0.792730
C33	C	1.895257	-0.325138	0.932163
C34	C	1.859425	-0.083361	0.465575
C35	C	1.859473	0.033420	0.465594
C36	C	1.834278	-0.379862	0.139596
C37	C	1.823780	-0.389193	0.000145
H38	H	2.142005	-0.760287	0.136329
O39	O	1.383628	-0.266285	0.347016
C40	C	1.342015	-0.299586	0.224368
H41	H	1.305400	-0.386071	0.220602
H42	H	1.263541	-0.249917	0.197450
C43	C	1.496995	-0.180009	0.136467
C44	C	1.452034	-0.286234	0.131840
H45	H	1.564857	-0.171768	0.079390
H46	H	1.525028	-0.157569	0.219098
H47	H	1.431590	-0.138630	0.114039
H48	H	1.517435	-0.327609	0.154283
H49	H	1.424015	-0.308680	0.049211
O50	O	1.336394	-0.448689	0.583833
C51	C	1.427638	-0.498151	0.648042
H52	H	1.517102	-0.499813	0.589568
H53	H	1.448897	-0.452387	0.742335
C54	C	1.267860	-0.609714	0.741612
C55	C	1.377737	-0.611763	0.669788
H56	H	1.237079	-0.679793	0.755032
H57	H	1.206387	-0.576388	0.698358
H58	H	1.285591	-0.571572	0.820182
H59	H	1.360002	-0.649893	0.591215
H60	H	1.439207	-0.645098	0.713030
O61	O	2.153832	-0.967931	0.122702
C62	C	2.219213	-0.896665	0.046525
H63	H	2.167442	-0.821831	0.046053
H64	H	2.317987	-0.876107	0.085243
C65	C	2.290727	-1.039589	-0.087775
C66	C	2.227134	-0.947681	-0.088362
H67	H	2.295619	-1.071058	-0.170978
H68	H	2.246683	-1.087603	-0.036451
H69	H	2.373032	-1.022444	-0.055503
H70	H	2.144827	-0.964829	-0.120618
H71	H	2.271165	-0.899671	-0.139695
O72	O	2.007885	-1.074719	0.292808
C73	C	2.089246	-1.112222	0.198160
H74	H	2.101181	-1.053040	0.123512
H75	H	2.184527	-1.122758	0.240986
C76	C	2.018630	-1.291592	0.229442
C77	C	2.033280	-1.218907	0.137752
H78	H	1.984113	-1.357402	0.192183
H79	H	1.963819	-1.266326	0.293212
H80	H	2.098036	-1.300359	0.265123
H81	H	1.953874	-1.210130	0.102084
H82	H	2.088077	-1.244173	0.073975
H83	H	2.007477	-0.659363	0.292870
H84	H	1.725016	-0.954988	0.622180
H85	H	1.724875	-0.755932	0.622133
H86	H	1.754372	-0.451413	0.951677
H87	H	1.964679	-0.262921	0.980637
