data_functionalizedCrystal
_audit_creation_method	'MofGen! by Chris Wilmer'
_symmetry_space_group_name_H-M	'P1'
_symmetry_Int_Tables_number	1
_symmetry_cell_setting	triclinic
loop_
_symmetry_equiv_pos_as_xyz
  x,y,z
_cell_length_a	18.050590
_cell_length_b	15.297327
_cell_length_c	15.299447
_cell_angle_alpha	91.592977
_cell_angle_beta	80.316663
_cell_angle_gamma	99.693582
loop_
_atom_site_label
_atom_site_type_symbol
_atom_site_fract_x
_atom_site_fract_y
_atom_site_fract_z
Zn1	Zn	1.176978	-0.263310	-0.555276
Zn2	Zn	1.135136	-0.435144	-0.434144
Zn3	Zn	1.028305	-0.288654	-0.408858
Zn4	Zn	1.035502	-0.409714	-0.580598
O5	O	1.093980	-0.349206	-0.494719
O6	O	1.275345	-0.286140	-0.539194
O7	O	1.100441	-0.436961	-0.308222
O8	O	1.062526	-0.162715	-0.407101
O9	O	1.244603	-0.412386	-0.450198
O10	O	1.171756	-0.144095	-0.514674
O11	O	1.021953	-0.329336	-0.289644
O12	O	0.925342	-0.304677	-0.431654
O13	O	1.074792	-0.369044	-0.699807
O14	O	0.930630	-0.393619	-0.557830
O15	O	1.178734	-0.261482	-0.681203
O16	O	1.107420	-0.554348	-0.474751
O17	O	1.034219	-0.535665	-0.582350
C18	C	0.901041	-0.349139	-0.494746
C19	C	0.818502	-0.349128	-0.494783
C20	C	1.067083	-0.576786	-0.534062
C21	C	1.055649	-0.674141	-0.550922
C22	C	1.176056	-0.987327	-0.374516
C23	C	1.186797	-0.895858	-0.358670
C24	C	1.154011	-0.840424	-0.406732
C25	C	1.110482	-0.876468	-0.470641
C26	C	1.099734	-0.967947	-0.486483
C27	C	1.077690	-0.821045	-0.518700
C28	C	1.034160	-0.857089	-0.582609
C29	C	1.023415	-0.948559	-0.598449
C30	C	1.056201	-1.003992	-0.550387
C31	C	1.088438	-0.729566	-0.502858
C32	C	1.012116	-0.710186	-0.614825
C33	C	1.001375	-0.801655	-0.630671
C34	C	0.621906	-0.397687	-0.563287
C35	C	0.585524	-0.314088	-0.571024
C36	C	0.667359	-0.349185	-0.494748
C37	C	0.556653	-0.432829	-0.487019
C38	C	0.521361	-0.349246	-0.494718
C39	C	0.632077	-0.265536	-0.502519
C40	C	0.603198	-0.384338	-0.418486
C41	C	0.566840	-0.300689	-0.426183
C42	C	0.751465	-0.349150	-0.494768
C43	C	0.437258	-0.349271	-0.494696
C44	C	1.287672	-0.349273	-0.494692
C45	C	1.370212	-0.349301	-0.494681
C46	C	1.132234	-0.309599	-0.723174
C47	C	1.148535	-0.292721	-0.820528
C48	C	1.121006	-0.120733	-0.455242
C49	C	1.132522	-0.023372	-0.438419
C50	C	0.978018	-0.469156	-1.133697
C51	C	0.962696	-0.485009	-1.042227
C52	C	1.009154	-0.436939	-0.986798
C53	C	1.070938	-0.373012	-1.022847
C54	C	1.086259	-0.357152	-1.114325
C55	C	1.117394	-0.324935	-0.967426
C56	C	1.179178	-0.261009	-1.003476
C57	C	1.194496	-0.245152	-1.094945
C58	C	1.148038	-0.293223	-1.150374
C59	C	1.102074	-0.340795	-0.875949
C60	C	1.210314	-0.228791	-0.856577
C61	C	1.225637	-0.212938	-0.948047
C62	C	1.055926	-0.388595	-0.267142
C63	C	1.039798	-0.405226	-0.169746
H64	H	1.123879	-0.700227	-0.450822
H65	H	1.222238	-0.866514	-0.306635
H66	H	0.985417	-0.665052	-0.653960
H67	H	1.275941	-0.160888	-0.977411
H68	H	0.987960	-0.977904	-0.650478
H69	H	1.202740	-1.032469	-0.335385
H70	H	1.244800	-0.193093	-1.124292
H71	H	0.542894	-0.259642	-0.368199
H72	H	0.611500	-0.414069	-0.354031
F73	F	0.955048	-0.840027	-0.698686
F74	F	0.513916	-0.525254	-0.478487
F75	F	1.259764	-0.177631	-0.797590
H76	H	0.664697	-0.194792	-0.509118
F77	F	1.036321	-0.408829	-0.837593
H78	H	0.996676	-0.449851	-0.912320
F79	F	1.165635	-0.743042	-0.390054
H80	H	1.047460	-1.078474	-0.563287
H81	H	0.646011	-0.438607	-0.621289
H82	H	1.160512	-0.280322	-1.224857
F83	F	0.574693	-0.275253	-0.655301
F84	F	0.896942	-0.553039	-1.003867
H85	H	0.940196	-0.508285	-1.178834
