data_functionalizedCrystal
_audit_creation_method	'MofGen! by Chris Wilmer'
_symmetry_space_group_name_H-M	'P1'
_symmetry_Int_Tables_number	1
_symmetry_cell_setting	triclinic
loop_
_symmetry_equiv_pos_as_xyz
  x,y,z
_cell_length_a	16.625548
_cell_length_b	21.295417
_cell_length_c	16.625539
_cell_angle_alpha	89.967674
_cell_angle_beta	89.979432
_cell_angle_gamma	90.030770
loop_
_atom_site_label
_atom_site_type_symbol
_atom_site_fract_x
_atom_site_fract_y
_atom_site_fract_z
Zn1	Zn	1.232640	-0.250590	-0.455887
Zn2	Zn	1.565973	0.082743	-0.122553
Zn3	Zn	1.899307	0.416077	0.210780
Zn4	Zn	1.232526	-0.355864	-0.321045
Zn5	Zn	1.565859	-0.022530	0.012289
Zn6	Zn	1.899193	0.310803	0.345622
Zn7	Zn	1.097802	-0.250614	-0.321067
Zn8	Zn	1.431135	0.082719	0.012266
Zn9	Zn	1.764468	0.416053	0.345599
Zn10	Zn	1.097755	-0.355827	-0.455834
Zn11	Zn	1.431088	-0.022494	-0.122501
Zn12	Zn	1.764422	0.310839	0.210832
O13	O	1.165181	-0.303224	-0.388458
O14	O	1.498514	0.030110	-0.055125
O15	O	1.831847	0.363443	0.278208
O16	O	1.345457	-0.264560	-0.438012
O17	O	1.678791	0.068773	-0.104679
O18	O	2.012124	0.402107	0.228655
O19	O	1.214627	-0.341927	-0.208215
O20	O	1.547960	-0.008594	0.125118
O21	O	1.881293	0.324740	0.458452
O22	O	1.115755	-0.162522	-0.338983
O23	O	1.449089	0.170812	-0.005650
O24	O	1.782422	0.504145	0.327684
O25	O	1.345374	-0.341904	-0.338944
O26	O	1.678707	-0.008571	-0.005611
O27	O	2.012040	0.324763	0.327723
O28	O	1.214820	-0.162504	-0.438034
O29	O	1.548154	0.170829	-0.104701
O30	O	1.881487	0.504163	0.228632
O31	O	1.115645	-0.264601	-0.208232
O32	O	1.448978	0.068732	0.125101
O33	O	1.782312	0.402066	0.458435
O34	O	0.984963	-0.264566	-0.338932
O35	O	1.318297	0.068768	-0.005599
O36	O	1.651630	0.402101	0.327735
O37	O	1.115676	-0.341842	-0.568674
O38	O	1.449009	-0.008509	-0.235340
O39	O	1.782343	0.324824	0.097993
O40	O	0.984929	-0.341866	-0.437945
O41	O	1.318262	-0.008532	-0.104612
O42	O	1.651596	0.324801	0.228722
O43	O	1.214775	-0.264525	-0.568712
O44	O	1.548109	0.068808	-0.235379
O45	O	1.881442	0.402142	0.097954
O46	O	1.214581	-0.443948	-0.338893
O47	O	1.547915	-0.110615	-0.005560
O48	O	1.881248	0.222719	0.327773
O49	O	1.115566	-0.443922	-0.437923
O50	O	1.448899	-0.110588	-0.104589
O51	O	1.782232	0.222745	0.228744
C52	C	0.955690	-0.303215	-0.388436
C53	C	1.289023	0.030119	-0.055102
C54	C	1.622357	0.363452	0.278231
C55	C	0.866069	-0.303226	-0.388445
C56	C	1.199402	0.030107	-0.055112
C57	C	1.532735	0.363441	0.278221
C58	C	0.537893	-0.303230	-0.388480
C59	C	0.871226	0.030103	-0.055146
C60	C	1.204560	0.363436	0.278187
C61	C	0.629202	-0.303227	-0.388468
C62	C	0.962535	0.030106	-0.055134
C63	C	1.295868	0.363439	0.278199
C64	C	0.701978	-0.303229	-0.388462
C65	C	1.035311	0.030105	-0.055128
C66	C	1.368645	0.363438	0.278205
C67	C	0.793292	-0.303225	-0.388451
C68	C	1.126626	0.030108	-0.055118
C69	C	1.459959	0.363442	0.278216
C70	C	1.165078	-0.466775	-0.388417
C71	C	1.498411	-0.133442	-0.055084
C72	C	1.831745	0.199891	0.278249
C73	C	1.165108	-0.536744	-0.388427
C74	C	1.498441	-0.203410	-0.055094
C75	C	1.831774	0.129923	0.278240
C76	C	1.216661	-0.569544	-0.440040
C77	C	1.549995	-0.236210	-0.106706
C78	C	1.883328	0.097123	0.226627
C79	C	1.216690	-0.635286	-0.440060
C80	C	1.550023	-0.301953	-0.106726
C81	C	1.883357	0.031380	0.226607
C82	C	1.165173	-0.668226	-0.388452
C83	C	1.498506	-0.334893	-0.055119
C84	C	1.831840	-0.001559	0.278214
C85	C	1.113609	-0.635418	-0.336836
C86	C	1.446943	-0.302084	-0.003503
C87	C	1.780276	0.031249	0.329831
C88	C	1.113577	-0.569677	-0.336823
C89	C	1.446910	-0.236343	-0.003490
C90	C	1.780243	0.096990	0.329843
N91	N	1.159082	-0.771490	-0.317887
N92	N	1.492415	-0.438156	0.015446
N93	N	1.825748	-0.104823	0.348780
N94	N	1.159117	-0.833941	-0.317901
N95	N	1.492451	-0.500608	0.015432
N96	N	1.825784	-0.167274	0.348765
C97	C	1.165267	-0.866301	-0.388489
C98	C	1.498601	-0.532967	-0.055155
C99	C	1.831934	-0.199634	0.278178
N100	N	1.171396	-0.833850	-0.459063
N101	N	1.504729	-0.500516	-0.125729
N102	N	1.838063	-0.167183	0.207604
N103	N	1.171364	-0.771392	-0.459047
N104	N	1.504698	-0.438059	-0.125714
N105	N	1.838031	-0.104726	0.207619
C106	C	1.165203	-0.739511	-0.388461
C107	C	1.498536	-0.406178	-0.055127
C108	C	1.831869	-0.072845	0.278206
C109	C	1.216855	-0.970387	-0.440128
C110	C	1.550188	-0.637053	-0.106794
C111	C	1.883521	-0.303720	0.226539
C112	C	1.216877	-1.036130	-0.440149
C113	C	1.550211	-0.702797	-0.106815
C114	C	1.883544	-0.369464	0.226518
C115	C	1.113801	-1.036260	-0.336918
C116	C	1.447135	-0.702927	-0.003584
C117	C	1.780468	-0.369594	0.329749
C118	C	1.113774	-0.970518	-0.336904
C119	C	1.447108	-0.637185	-0.003570
C120	C	1.780441	-0.303851	0.329763
C121	C	1.165305	-0.937585	-0.388508
C122	C	1.498638	-0.604252	-0.055174
C123	C	1.831972	-0.270918	0.278159
C124	C	1.375490	-0.303233	-0.388481
C125	C	1.708823	0.030100	-0.055148
C126	C	2.042156	0.363433	0.278185
C127	C	1.465111	-0.303237	-0.388491
C128	C	1.798444	0.030096	-0.055158
C129	C	2.131777	0.363429	0.278175
C130	C	1.165233	-0.303177	-0.598767
C131	C	1.498566	0.030156	-0.265434
C132	C	1.831900	0.363490	0.067899
C133	C	1.165256	-0.303157	-0.688388
C134	C	1.498589	0.030176	-0.355055
C135	C	1.831922	0.363510	-0.021722
C136	C	1.165306	-0.139033	-0.388517
C137	C	1.498639	0.194300	-0.055184
C138	C	1.831973	0.527633	0.278150
C139	C	1.165359	-0.069065	-0.388542
C140	C	1.498693	0.264268	-0.055209
C141	C	1.832026	0.597601	0.278125
C142	C	1.165293	-0.303086	-1.016564
C143	C	1.498626	0.030247	-0.683231
C144	C	1.831959	0.363580	-0.349898
C145	C	1.165280	-0.303108	-0.925256
C146	C	1.498613	0.030225	-0.591922
C147	C	1.831947	0.363559	-0.258589
C148	C	1.165275	-0.303122	-0.852479
C149	C	1.498608	0.030211	-0.519146
C150	C	1.831941	0.363545	-0.185813
C151	C	1.165261	-0.303143	-0.761165
C152	C	1.498594	0.030191	-0.427832
C153	C	1.831928	0.363524	-0.094498
C154	C	1.165175	-0.303225	-0.178967
C155	C	1.498508	0.030108	0.154366
C156	C	1.831842	0.363442	0.487699
C157	C	1.165309	-0.303068	-0.089347
C158	C	1.498642	0.030266	0.243987
C159	C	1.831975	0.363599	0.577320
H160	H	1.258619	-0.542732	-0.482061
H161	H	1.591952	-0.209398	-0.148727
H162	H	1.925286	0.123935	0.184606
H163	H	1.258812	-0.943571	-0.482149
H164	H	1.592145	-0.610238	-0.148816
H165	H	1.925478	-0.276905	0.184518
H166	H	1.071662	-0.662241	-0.294819
H167	H	1.404996	-0.328908	0.038515
H168	H	1.738329	0.004425	0.371848
H169	H	1.258664	-0.661998	-0.482098
H170	H	1.591998	-0.328664	-0.148765
H171	H	1.925331	0.004669	0.184568
H172	H	1.071595	-0.542970	-0.294793
H173	H	1.404928	-0.209637	0.038540
H174	H	1.738261	0.123697	0.371874
H175	H	1.071798	-0.943810	-0.294872
H176	H	1.405131	-0.610477	0.038461
H177	H	1.738464	-0.277144	0.371794
H178	H	1.258858	-1.062835	-0.482182
H179	H	1.592192	-0.729502	-0.148849
H180	H	1.925525	-0.396168	0.184485
H181	H	1.071850	-1.063079	-0.294903
H182	H	1.405184	-0.729746	0.038430
H183	H	1.738517	-0.396413	0.371764
