data_functionalizedCrystal
_audit_creation_method	'MofGen! by Chris Wilmer'
_symmetry_space_group_name_H-M	'P1'
_symmetry_Int_Tables_number	1
_symmetry_cell_setting	triclinic
loop_
_symmetry_equiv_pos_as_xyz
  x,y,z
_cell_length_a	17.640112
_cell_length_b	12.645330
_cell_length_c	17.640968
_cell_angle_alpha	101.228407
_cell_angle_beta	87.860920
_cell_angle_gamma	101.241872
loop_
_atom_site_label
_atom_site_type_symbol
_atom_site_fract_x
_atom_site_fract_y
_atom_site_fract_z
Zn1	Zn	1.247780	-0.030458	0.195081
Zn2	Zn	1.222027	-0.249165	0.068107
Zn3	Zn	1.095118	-0.099415	0.093730
Zn4	Zn	1.120767	-0.235211	0.220689
O5	O	1.171423	-0.153562	0.144402
O6	O	1.350632	-0.036452	0.156798
O7	O	1.183680	-0.263999	-0.034766
O8	O	1.115413	0.058093	0.107181
O9	O	1.331711	-0.197135	0.063511
O10	O	1.227573	0.108755	0.181643
O11	O	1.090440	-0.153978	-0.015941
O12	O	0.992252	-0.140447	0.132011
O13	O	1.159127	-0.173352	0.323563
O14	O	1.011096	-0.240216	0.225287
O15	O	1.252444	-0.022921	0.304750
O16	O	1.208550	-0.395675	0.088341
O17	O	1.134155	-0.385423	0.200442
C18	C	0.974120	-0.196301	0.184209
C19	C	0.889717	-0.214604	0.201257
C20	C	1.171365	-0.429008	0.144402
C21	C	1.171415	-0.546821	0.144414
C22	C	0.563040	-0.014493	0.014899
C23	C	0.483733	-0.031710	0.030928
C24	C	0.503375	-0.135841	0.127889
C25	C	0.582687	-0.118628	0.111870
C26	C	0.612512	-0.057954	0.055374
C27	C	0.632159	-0.162089	0.152345
C28	C	0.711463	-0.144883	0.136325
C29	C	0.741294	-0.084215	0.079830
C30	C	0.691816	-0.040748	0.039354
C31	C	0.602331	-0.222769	0.208838
C32	C	0.651804	-0.266231	0.249313
C33	C	0.731110	-0.249018	0.233297
C34	C	0.760941	-0.188350	0.176801
C35	C	0.780588	-0.292485	0.273773
C36	C	0.859892	-0.275278	0.257753
C37	C	0.840245	-0.171143	0.160781
C38	C	1.124892	-0.707868	0.215069
C39	C	1.124554	-0.585435	0.214940
C40	C	1.133571	-0.622203	0.068749
C41	C	1.133287	-0.744763	0.069178
C42	C	1.256009	-0.689787	0.148703
C43	C	1.255870	-0.566716	0.150553
C44	C	1.369496	-0.110658	0.104440
C45	C	1.453902	-0.092374	0.087410
C46	C	1.211520	-0.088888	0.342482
C47	C	1.228606	-0.061328	0.426892
C48	C	1.171505	0.122968	0.144414
C49	C	1.171539	0.240809	0.144419
C50	C	1.131526	-0.217899	-0.052917
C51	C	1.114586	-0.245129	-0.137356
C52	C	1.041907	-0.362295	0.753477
C53	C	1.057979	-0.336381	0.832790
C54	C	1.155141	-0.179751	0.813190
C55	C	1.139075	-0.205649	0.733875
C56	C	1.082458	-0.296923	0.704024
C57	C	1.179626	-0.140276	0.684422
C58	C	1.163563	-0.166176	0.605113
C59	C	1.106950	-0.257448	0.575256
C60	C	1.066395	-0.322822	0.624715
C61	C	1.236246	-0.049007	0.714273
C62	C	1.276797	0.016366	0.664821
C63	C	1.260731	-0.009529	0.585511
C64	C	1.204118	-0.100801	0.555654
C65	C	1.301286	0.055846	0.536052
C66	C	1.285224	0.029947	0.456742
C67	C	1.188056	-0.126700	0.476345
H68	H	0.864533	-0.121717	0.114788
H69	H	0.900174	-0.310667	0.290713
H70	H	1.165754	-0.598780	0.015382
H71	H	1.287369	-0.697644	0.202086
H72	H	1.071058	-0.791839	0.063665
H73	H	1.322897	0.090679	0.689136
O74	O	1.011308	-0.411368	0.595704
C75	C	0.952993	-0.376630	0.559710
H76	H	0.953164	-0.286339	0.584551
H77	H	0.964298	-0.387533	0.494863
C78	C	0.873583	-0.556820	0.543921
C79	C	0.873788	-0.445926	0.574437
H80	H	0.824725	-0.599567	0.553002
H81	H	0.912871	-0.580226	0.568168
H82	H	0.883006	-0.565890	0.489884
H83	H	0.864374	-0.436855	0.628474
H84	H	0.834495	-0.422520	0.550199
H85	H	1.093876	-0.278537	0.510676
H86	H	0.443454	0.003695	-0.002031
O87	O	1.170919	-0.787414	0.005267
C88	C	1.120128	-0.875246	-0.039719
H89	H	1.071770	-0.909881	-0.001535
H90	H	1.094303	-0.844518	-0.087665
C91	C	1.224251	-0.923371	-0.122570
C92	C	1.164861	-0.965916	-0.075670
H93	H	1.251844	-0.979299	-0.144750
H94	H	1.258469	-0.864194	-0.092264
H95	H	1.202721	-0.897765	-0.162519
H96	H	1.186392	-0.991508	-0.035717
H97	H	1.130647	-1.025100	-0.105970
O98	O	1.133148	-0.215420	0.447227
C99	C	1.167089	-0.289509	0.392637
H100	H	1.222248	-0.243521	0.369159
H101	H	1.181593	-0.356298	0.421510
C102	C	1.042315	-0.398825	0.354553
C103	C	1.110059	-0.342339	0.325712
H104	H	1.007135	-0.431417	0.313273
H105	H	1.019448	-0.348912	0.391334
H106	H	1.054412	-0.454474	0.378614
H107	H	1.097963	-0.286683	0.301661
H108	H	1.132923	-0.392244	0.288926
H109	H	1.150106	-0.532996	0.271552
O110	O	0.720743	0.018033	-0.015630
C111	C	0.686006	-0.033888	-0.087426
H112	H	0.663392	-0.124582	-0.086954
H113	H	0.635974	0.006553	-0.097915
C114	C	0.773965	0.088671	-0.152899
C115	C	0.746197	-0.022723	-0.152322
H116	H	0.811092	0.095561	-0.192931
H117	H	0.797367	0.123654	-0.104529
H118	H	0.732266	0.122359	-0.161638
H119	H	0.787894	-0.056406	-0.143574
H120	H	0.722803	-0.057712	-0.200692
O121	O	1.050204	-0.571338	0.213173
C122	C	1.010566	-0.601869	0.278829
H123	H	1.040837	-0.661009	0.301852
H124	H	1.010249	-0.525519	0.325387
C125	C	0.889622	-0.585831	0.228279
C126	C	0.926799	-0.658475	0.256552
H127	H	0.837950	-0.620744	0.214539
H128	H	0.916327	-0.565258	0.184046
H129	H	0.889366	-0.522211	0.267082
H130	H	0.927063	-0.722087	0.217746
H131	H	0.900092	-0.679061	0.300778
H132	H	1.249324	-0.027925	0.778852
O133	O	1.356183	0.144602	0.565109
C134	C	1.322268	0.218680	0.619734
H135	H	1.257620	0.204476	0.607910
H136	H	1.331818	0.204953	0.680366
C137	C	1.439051	0.354773	0.627996
C138	C	1.359650	0.337334	0.613469
H139	H	1.462111	0.427965	0.624135
H140	H	1.461901	0.304865	0.591197
H141	H	1.446998	0.343327	0.678522
H142	H	1.351704	0.348766	0.562941
H143	H	1.336799	0.387247	0.650261
O144	O	1.059942	-0.607702	0.061753
C145	C	1.016169	-0.635040	0.126108
H146	H	1.044050	-0.693144	0.152942
H147	H	1.014168	-0.557128	0.170666
C148	C	0.899151	-0.620297	0.067007
C149	C	0.933391	-0.691669	0.099961
H150	H	0.848088	-0.655223	0.050880
H151	H	0.928641	-0.601874	0.023651
H152	H	0.897490	-0.555375	0.104145
H153	H	0.935060	-0.756582	0.062821
H154	H	0.903899	-0.710103	0.143311
O155	O	0.591887	0.044426	-0.040033
C156	C	0.531221	0.079127	-0.072312
H157	H	0.474141	0.022580	-0.063569
H158	H	0.528454	0.166869	-0.042710
C159	C	0.615902	0.144344	-0.170106
C160	C	0.545796	0.074886	-0.159374
H161	H	0.624893	0.141734	-0.223810
H162	H	0.656775	0.120970	-0.148358
H163	H	0.613588	0.217456	-0.145433
H164	H	0.548115	0.001775	-0.184039
H165	H	0.504923	0.098248	-0.181128
H166	H	1.284115	-0.514821	0.206159
O167	O	1.300952	-0.533724	0.092032
C168	C	1.256918	-0.491675	0.044051
H169	H	1.192972	-0.526989	0.050675
H170	H	1.267214	-0.398332	0.061382
C171	C	1.359831	-0.480755	-0.048856
C172	C	1.281291	-0.524136	-0.040725
H173	H	1.374867	-0.500774	-0.101149
H174	H	1.389498	-0.509081	-0.016529
H175	H	1.368401	-0.402972	-0.034408
H176	H	1.272724	-0.601918	-0.055163
H177	H	1.251623	-0.495824	-0.073056
O178	O	1.297614	-0.729930	0.087059
C179	C	1.250654	-0.820256	0.040234
H180	H	1.201284	-0.857404	0.076305
H181	H	1.225986	-0.791654	-0.009392
C182	C	1.360009	-0.861758	-0.036908
C183	C	1.299375	-0.907388	0.007396
H184	H	1.390063	-0.915503	-0.057167
H185	H	1.391647	-0.800900	-0.005363
H186	H	1.339444	-0.837923	-0.078258
H187	H	1.319942	-0.931209	0.048750
H188	H	1.267742	-0.968252	-0.024143
O189	O	0.986921	-0.451043	0.724593
C190	C	0.954561	-0.503184	0.785248
H191	H	0.997102	-0.481632	0.835514
H192	H	0.898592	-0.474131	0.805311
C193	C	0.885101	-0.654969	0.694763
C194	C	0.937354	-0.628506	0.756499
H195	H	0.874483	-0.732273	0.677030
H196	H	0.906900	-0.619839	0.653899
H197	H	0.838466	-0.630750	0.711491
H198	H	0.983991	-0.652713	0.739768
H199	H	0.915562	-0.663643	0.797360
H200	H	1.318243	0.083181	0.416477
O201	O	1.155133	-0.716390	0.282920
C202	C	1.098551	-0.778510	0.323575
H203	H	1.038615	-0.775086	0.303311
H204	H	1.106743	-0.867463	0.312168
C205	C	1.180253	-0.735038	0.435655
C206	C	1.106639	-0.730825	0.410771
H207	H	1.185243	-0.705628	0.489441
H208	H	1.218375	-0.693190	0.408265
H209	H	1.187071	-0.809168	0.426142
H210	H	1.099825	-0.656695	0.420274
H211	H	1.068515	-0.772660	0.438164
H212	H	0.756290	-0.341894	0.319767
O213	O	1.051076	-0.765324	0.213194
C214	C	1.041413	-0.851758	0.148328
H215	H	1.086633	-0.831287	0.102849
H216	H	1.048633	-0.930910	0.166566
C217	C	0.904482	-0.892048	0.170130
C218	C	0.960017	-0.866901	0.114269
H219	H	0.854272	-0.901393	0.149121
H220	H	0.910992	-0.833818	0.213832
H221	H	0.910508	-0.958005	0.185323
H222	H	0.953996	-0.800938	0.099084
H223	H	0.953504	-0.925120	0.070562
O224	O	1.018557	-0.399720	0.880919
C225	C	0.978800	-0.335008	0.936681
H226	H	1.008014	-0.244983	0.943162
H227	H	0.916340	-0.345526	0.917470
C228	C	0.944401	-0.482290	1.006831
C229	C	0.980286	-0.371721	1.014795
H230	H	0.945314	-0.504938	1.055015
H231	H	0.971183	-0.525890	0.969261
H232	H	0.892354	-0.491041	0.990819
H233	H	1.032334	-0.362973	1.030797
H234	H	0.953513	-0.328120	1.052370
H235	H	1.201241	-0.105438	0.837505
H236	H	0.479080	-0.185245	0.173886
O237	O	0.818305	-0.067629	0.064140
C238	C	0.830034	-0.112701	-0.014031
H239	H	0.777957	-0.179041	-0.036243
H240	H	0.837452	-0.045239	-0.049682
C241	C	0.967135	-0.081974	0.006026
C242	C	0.903176	-0.163460	-0.021254
H243	H	1.012254	-0.113280	0.001569
H244	H	0.959234	-0.051604	0.058691
H245	H	0.973307	-0.025762	-0.023687
H246	H	0.897000	-0.219663	0.008465
H247	H	0.911078	-0.193841	-0.073914
O248	O	0.525323	-0.239455	0.224538
C249	C	0.513578	-0.194353	0.302700
H250	H	0.568140	-0.188352	0.337188
H251	H	0.499842	-0.108897	0.307265
C252	C	0.378581	-0.276002	0.292967
C253	C	0.445594	-0.268640	0.335327
H254	H	0.336644	-0.321822	0.313093
H255	H	0.386493	-0.306385	0.240307
H256	H	0.367145	-0.204783	0.296774
H257	H	0.457034	-0.339856	0.331511
H258	H	0.437682	-0.238271	0.387987
H259	H	0.627508	-0.315635	0.295310
