data_functionalizedCrystal
_audit_creation_method	'MofGen! by Chris Wilmer'
_symmetry_space_group_name_H-M	'P1'
_symmetry_Int_Tables_number	1
_symmetry_cell_setting	triclinic
loop_
_symmetry_equiv_pos_as_xyz
  x,y,z
_cell_length_a	11.169417
_cell_length_b	29.839131
_cell_length_c	29.839125
_cell_angle_alpha	89.982291
_cell_angle_beta	89.991094
_cell_angle_gamma	90.042299
loop_
_atom_site_label
_atom_site_type_symbol
_atom_site_fract_x
_atom_site_fract_y
_atom_site_fract_z
Zn1	Zn	1.834574	-0.178906	-0.253968
Zn2	Zn	1.834392	-0.254018	-0.178838
Zn3	Zn	1.633898	-0.178904	-0.178855
Zn4	Zn	1.633758	-0.254011	-0.253944
O5	O	1.734156	-0.216460	-0.216401
O6	O	2.002499	-0.188873	-0.244005
O7	O	1.807779	-0.244056	-0.115973
O8	O	1.660652	-0.116037	-0.188836
O9	O	2.002366	-0.244058	-0.188808
O10	O	1.808088	-0.116038	-0.244022
O11	O	1.660476	-0.188870	-0.115986
O12	O	1.465930	-0.188863	-0.188812
O13	O	1.660414	-0.244046	-0.316814
O14	O	1.465827	-0.244044	-0.243980
O15	O	1.807952	-0.188866	-0.316832
O16	O	1.807644	-0.316884	-0.188784
O17	O	1.660239	-0.316879	-0.243964
C18	C	1.422331	-0.216453	-0.216396
C19	C	1.288931	-0.216461	-0.216404
C20	C	1.733939	-0.333182	-0.216379
C21	C	1.733956	-0.383117	-0.216385
C22	C	1.811049	-0.692750	-0.187711
C23	C	1.811197	-0.880423	-0.187729
O24	O	1.876572	-0.904679	-0.163332
N25	N	1.734404	-0.903902	-0.216435
C26	C	1.657575	-0.880459	-0.245142
O27	O	1.592270	-0.904735	-0.269562
C28	C	1.657434	-0.692787	-0.245126
C29	C	1.734223	-0.669311	-0.216414
C30	C	1.887833	-0.669274	-0.159002
C31	C	1.887790	-0.622358	-0.158997
C32	C	1.810964	-0.598919	-0.187700
C33	C	1.734180	-0.622395	-0.216409
C34	C	1.580611	-0.669345	-0.273834
C35	C	1.580585	-0.622424	-0.273829
C36	C	1.657374	-0.598948	-0.245117
C37	C	1.657312	-0.552040	-0.245106
N38	N	1.734104	-0.528562	-0.216399
C39	C	1.810931	-0.552001	-0.187696
C40	C	1.657653	-0.978990	-0.245147
C41	C	1.657686	-1.025907	-0.245150
C42	C	1.811310	-1.025868	-0.187738
C43	C	1.811270	-0.978950	-0.187733
C44	C	1.734445	-0.955511	-0.216441
C45	C	1.810835	-0.453475	-0.187686
C46	C	1.810782	-0.406556	-0.187681
C47	C	1.657163	-0.406599	-0.245095
C48	C	1.657211	-0.453515	-0.245098
C49	C	1.734056	-0.476952	-0.216392
O50	O	1.591980	-0.527755	-0.269493
O51	O	1.876244	-0.527717	-0.163287
C52	C	1.811091	-0.739665	-0.187717
C53	C	1.734308	-0.763142	-0.216426
C54	C	1.657481	-0.739702	-0.245129
C55	C	1.734341	-0.810059	-0.216429
C56	C	1.811167	-0.833499	-0.187726
C57	C	1.887960	-0.810020	-0.159020
C58	C	1.887918	-0.763105	-0.159014
C59	C	1.580689	-0.763181	-0.273836
C60	C	1.580736	-0.810096	-0.273839
C61	C	1.657563	-0.833536	-0.245136
C62	C	2.047198	-0.216467	-0.216407
C63	C	2.180598	-0.216470	-0.216410
C64	C	1.734188	-0.216455	-0.333580
C65	C	1.734202	-0.216454	-0.383514
C66	C	1.734406	-0.099281	-0.216434
C67	C	1.734512	-0.049347	-0.216447
C68	C	1.811106	-0.187647	-0.693170
C69	C	1.811165	-0.187608	-0.880843
O70	O	1.876463	-0.163158	-0.905119
N71	N	1.734361	-0.216333	-0.904300
C72	C	1.657531	-0.245068	-0.880835
O73	O	1.592197	-0.269496	-0.905092
C74	C	1.657466	-0.245104	-0.693162
C75	C	1.734284	-0.216380	-0.669709
C76	C	1.887917	-0.158925	-0.669716
C77	C	1.887906	-0.158937	-0.622801
C78	C	1.811084	-0.187670	-0.599339
C79	C	1.734273	-0.216392	-0.622793
C80	C	1.580631	-0.273836	-0.669698
C81	C	1.580619	-0.273841	-0.622777
C82	C	1.657437	-0.245118	-0.599323
C83	C	1.657440	-0.245137	-0.552416
N84	N	1.734244	-0.216412	-0.528960
C85	C	1.811066	-0.187678	-0.552421
C86	C	1.657572	-0.245048	-0.979365
C87	C	1.657589	-0.245040	-1.026283
C88	C	1.811223	-0.187579	-1.026289
C89	C	1.811210	-0.187590	-0.979370
C90	C	1.734376	-0.216323	-0.955909
C91	C	1.811038	-0.187705	-0.453895
C92	C	1.811024	-0.187720	-0.406976
C93	C	1.657386	-0.245179	-0.406975
C94	C	1.657405	-0.245165	-0.453890
C95	C	1.734234	-0.216425	-0.477349
O96	O	1.592168	-0.269570	-0.528112
O97	O	1.876372	-0.163247	-0.528156
C98	C	1.811117	-0.187635	-0.740086
C99	C	1.734306	-0.216357	-0.763539
C100	C	1.657484	-0.245090	-0.740078
C101	C	1.734324	-0.216349	-0.810457
C102	C	1.811145	-0.187615	-0.833919
C103	C	1.887950	-0.158890	-0.810463
C104	C	1.887939	-0.158902	-0.763547
C105	C	1.580680	-0.273815	-0.763534
C106	C	1.580698	-0.273802	-0.810450
C107	C	1.657520	-0.245068	-0.833911
C108	C	1.734192	-0.216431	-0.099679
C109	C	1.734411	-0.216306	-0.049745
H110	H	1.873313	-0.387443	-0.164299
C111	C	1.572909	-0.276765	-0.479690
N112	N	1.509257	-0.300564	-0.499119
C113	C	1.496096	-0.305452	-0.596973
N114	N	1.432437	-0.329262	-0.577539
H115	H	1.594687	-0.472630	-0.268479
H116	H	1.594844	-0.268574	-0.387864
H117	H	1.950491	-0.135512	-0.744455
H118	H	1.518195	-0.829207	-0.297219
H119	H	1.873582	-0.164330	-0.387882
H120	H	1.950505	-0.135496	-0.829573
C121	C	1.496185	-0.305402	-0.836244
N122	N	1.432522	-0.329199	-0.855670
C123	C	1.895561	-0.156091	-0.479694
N124	N	1.959231	-0.132282	-0.499125
H125	H	1.518077	-0.297226	-0.688786
H126	H	1.950322	-0.603247	-0.135618
H127	H	1.950456	-0.135546	-0.603709
C128	C	1.496164	-0.305426	-0.737733
N129	N	1.432505	-0.329238	-0.718301
H130	H	1.950447	-0.743994	-0.135634
H131	H	1.950474	-0.135524	-0.688814
H132	H	1.873775	-0.164184	-1.045399
C133	C	1.895362	-0.479249	-0.156105
N134	N	1.959021	-0.498662	-0.132316
C135	C	1.972349	-0.695050	-0.127421
N136	N	2.036004	-0.714461	-0.103629
H137	H	1.873866	-1.044960	-0.164367
C138	C	1.496201	-0.737404	-0.305425
N139	N	1.432568	-0.717991	-0.329224
C140	C	1.972468	-0.835813	-0.127446
N141	N	2.036120	-0.855242	-0.103667
H142	H	1.873760	-0.164200	-0.960277
H143	H	1.518075	-0.688451	-0.297212
H144	H	1.595146	-1.045018	-0.268526
C145	C	1.573092	-0.276641	-1.052077
N146	N	1.509440	-0.300442	-1.071503
H147	H	1.873799	-0.959838	-0.164354
H148	H	1.595090	-0.959909	-0.268525
C149	C	1.573044	-0.276659	-0.953564
N150	N	1.509379	-0.300469	-0.934133
C151	C	1.496070	-0.596645	-0.305411
N152	N	1.432411	-0.577228	-0.329197
H153	H	1.594608	-0.387508	-0.268464
