data_functionalizedCrystal
_audit_creation_method	'MofGen! by Chris Wilmer'
_symmetry_space_group_name_H-M	'P1'
_symmetry_Int_Tables_number	1
_symmetry_cell_setting	triclinic
loop_
_symmetry_equiv_pos_as_xyz
  x,y,z
_cell_length_a	14.519731
_cell_length_b	14.519709
_cell_length_c	13.596369
_cell_angle_alpha	89.994194
_cell_angle_beta	90.006024
_cell_angle_gamma	83.684499
loop_
_atom_site_label
_atom_site_type_symbol
_atom_site_fract_x
_atom_site_fract_y
_atom_site_fract_z
O1	O	1.223858	0.120979	0.081780
O2	O	1.473858	0.370979	0.331780
O3	O	1.723858	0.620979	0.581780
O4	O	1.973858	0.870979	0.831780
O5	O	0.955384	0.135195	0.081779
O6	O	1.205384	0.385195	0.331779
O7	O	1.455384	0.635195	0.581779
O8	O	1.705384	0.885195	0.831779
O9	O	1.096739	-0.006151	0.081788
O10	O	1.346739	0.243849	0.331788
O11	O	1.596739	0.493849	0.581788
O12	O	1.846739	0.743849	0.831788
O13	O	1.082503	0.262325	0.081771
O14	O	1.332503	0.512325	0.331771
O15	O	1.582503	0.762325	0.581771
O16	O	1.832503	1.012325	0.831771
O17	O	1.096722	-0.006143	-0.081794
O18	O	1.346722	0.243857	0.168206
O19	O	1.596722	0.493857	0.418206
O20	O	1.846722	0.743857	0.668206
O21	O	0.955366	0.135203	-0.081803
O22	O	1.205366	0.385203	0.168197
O23	O	1.455366	0.635203	0.418197
O24	O	1.705366	0.885203	0.668197
O25	O	1.223841	0.120986	-0.081803
O26	O	1.473841	0.370986	0.168197
O27	O	1.723841	0.620986	0.418197
O28	O	1.973841	0.870986	0.668197
Zn29	Zn	1.089601	0.128096	-0.107776
Zn30	Zn	1.339601	0.378096	0.142224
Zn31	Zn	1.589601	0.628096	0.392224
Zn32	Zn	1.839601	0.878096	0.642224
Zn33	Zn	1.089624	0.128085	0.107752
Zn34	Zn	1.339624	0.378085	0.357752
Zn35	Zn	1.589624	0.628085	0.607752
Zn36	Zn	1.839624	0.878085	0.857752
O37	O	1.082485	0.262332	-0.081812
O38	O	1.332485	0.512332	0.168188
O39	O	1.582485	0.762332	0.418188
O40	O	1.832485	1.012332	0.668188
C41	C	0.921016	0.134532	-0.000012
C42	C	1.171016	0.384532	0.249988
C43	C	1.421016	0.634532	0.499988
C44	C	1.671016	0.884532	0.749988
C45	C	0.818635	0.132536	-0.000011
C46	C	1.068635	0.382536	0.249989
C47	C	1.318635	0.632536	0.499989
C48	C	1.568635	0.882536	0.749989
C49	C	1.096067	-0.040507	0.000001
C50	C	1.346067	0.209493	0.250001
C51	C	1.596067	0.459493	0.500001
C52	C	1.846067	0.709493	0.750001
C53	C	1.094079	-0.142889	0.000015
C54	C	1.344079	0.107111	0.250015
C55	C	1.594079	0.357111	0.500015
C56	C	1.844079	0.607111	0.750015
C57	C	0.735491	0.130915	-0.000007
C58	C	0.985491	0.380915	0.249993
C59	C	1.235491	0.630915	0.499993
C60	C	1.485491	0.880915	0.749993
C61	C	0.631182	0.128888	-0.000007
C62	C	0.881182	0.378888	0.249993
C63	C	1.131182	0.628888	0.499993
C64	C	1.381182	0.878888	0.749993
C65	C	0.548043	0.127280	-0.000007
C66	C	0.798043	0.377280	0.249993
C67	C	1.048043	0.627280	0.499993
C68	C	1.298043	0.877280	0.749993
C69	C	0.443728	0.125253	-0.000004
C70	C	0.693728	0.375253	0.249996
C71	C	0.943728	0.625253	0.499996
C72	C	1.193728	0.875253	0.749996
C73	C	1.258209	0.121649	-0.000010
C74	C	1.508209	0.371649	0.249990
C75	C	1.758209	0.621649	0.499990
C76	C	2.008209	0.871649	0.749990
C77	C	1.360589	0.123645	-0.000004
C78	C	1.610589	0.373645	0.249996
C79	C	1.860589	0.623645	0.499996
C80	C	2.110589	0.873645	0.749996
N81	N	1.089592	0.128102	-0.254868
N82	N	1.339592	0.378102	-0.004868
N83	N	1.589592	0.628102	0.245132
N84	N	1.839592	0.878102	0.495132
C85	C	1.083157	0.296688	-0.000023
C86	C	1.333157	0.546688	0.249977
C87	C	1.583157	0.796688	0.499977
C88	C	1.833157	1.046688	0.749977
C89	C	1.085146	0.399070	-0.000030
C90	C	1.335146	0.649070	0.249970
C91	C	1.585146	0.899070	0.499970
C92	C	1.835146	1.149070	0.749970
C93	C	1.092465	0.773966	0.000009
C94	C	1.342465	1.023966	0.250009
C95	C	1.592465	1.273966	0.500009
C96	C	1.842465	1.523966	0.750009
C97	C	1.090432	0.669658	-0.000002
C98	C	1.340432	0.919658	0.249998
C99	C	1.590432	1.169658	0.499998
C100	C	1.840432	1.419658	0.749998
C101	C	1.088806	0.586521	-0.000011
C102	C	1.338806	0.836521	0.249989
C103	C	1.588806	1.086521	0.499989
C104	C	1.838806	1.336521	0.749989
C105	C	1.086773	0.482207	-0.000021
C106	C	1.336773	0.732207	0.249979
C107	C	1.586773	0.982207	0.499979
C108	C	1.836773	1.232207	0.749979
C109	C	1.089596	0.128104	-0.343865
C110	C	1.339596	0.378104	-0.093865
C111	C	1.589596	0.628104	0.156135
C112	C	1.839596	0.878104	0.406135
C113	C	1.089605	0.128098	-0.455517
C114	C	1.339605	0.378098	-0.205517
C115	C	1.589605	0.628098	0.044483
C116	C	1.839605	0.878098	0.294483
C117	C	1.089617	0.128088	-0.544507
C118	C	1.339617	0.378088	-0.294507
C119	C	1.589617	0.628088	-0.044507
C120	C	1.839617	0.878088	0.205493
C121	C	1.089628	0.128082	-0.656166
C122	C	1.339628	0.378082	-0.406166
C123	C	1.589628	0.628082	-0.156166
C124	C	1.839628	0.878082	0.093834
N125	N	1.089640	0.128072	0.254844
N126	N	1.339640	0.378072	0.504844
N127	N	1.589640	0.628072	0.754844
N128	N	1.839640	0.878072	1.004844
