data_functionalizedCrystal
_audit_creation_method	'MofGen! by Chris Wilmer'
_symmetry_space_group_name_H-M	'P1'
_symmetry_Int_Tables_number	1
_symmetry_cell_setting	triclinic
loop_
_symmetry_equiv_pos_as_xyz
  x,y,z
_cell_length_a	10.967916
_cell_length_b	11.026607
_cell_length_c	9.483334
_cell_angle_alpha	78.597888
_cell_angle_beta	111.285193
_cell_angle_gamma	96.380693
loop_
_atom_site_label
_atom_site_type_symbol
_atom_site_fract_x
_atom_site_fract_y
_atom_site_fract_z
O1	O	-1.733382	-0.121596	-0.313351
O2	O	-1.362056	-0.152441	-0.220326
O3	O	-1.516944	0.038680	-0.259134
O4	O	-1.578493	-0.312717	-0.274543
O5	O	-1.548337	0.077650	-0.508775
O6	O	-1.393449	-0.113471	-0.469967
O7	O	-1.764775	-0.082626	-0.562992
Cu8	Cu	-1.581978	-0.094490	-0.539274
Cu9	Cu	-1.544852	-0.140577	-0.244044
O10	O	-1.609886	-0.273747	-0.524184
C11	C	-1.329476	-0.133656	-0.333053
C12	C	-1.185623	-0.135729	-0.297015
C13	C	-1.137752	-0.116465	-0.410269
C14	C	-0.989073	-0.118607	-0.373025
C15	C	-1.521286	0.103023	-0.381108
C16	C	-1.487436	0.236685	-0.372623
N17	N	-1.608100	-0.062075	-0.746925
C18	C	-0.797355	-0.101411	-0.450264
C19	C	-0.941207	-0.099341	-0.486296
C20	C	-1.605544	-0.338090	-0.402207
C21	C	-1.639393	-0.471754	-0.410682
C22	C	-1.580899	0.313392	-0.396036
C23	C	-1.545916	0.451540	-0.387266
C24	C	-1.552542	-0.131015	-0.805234
C25	C	-1.574305	-0.104031	-0.978092
N26	N	-1.518739	-0.172982	-0.036396
H27	H	-1.206837	-0.098381	-0.534803
O28	O	-1.419569	0.495301	-0.355416
C29	C	-1.378165	0.546673	-0.219802
H30	H	-1.467217	0.574274	-0.200363
H31	H	-1.311215	0.631983	-0.231185
H32	H	-1.322584	0.475304	-0.118198
H33	H	-1.686817	0.276791	-0.422579
O34	O	-1.765821	0.484794	-0.442296
C35	C	-1.845933	0.582948	-0.462403
H36	H	-1.783940	0.659871	-0.401095
H37	H	-1.925881	0.547839	-0.412242
H38	H	-1.892759	0.620503	-0.590128
H39	H	-0.919990	-0.136682	-0.248483
O40	O	-1.684149	0.032192	-0.839821
C41	C	-1.731550	0.091077	-0.752035
H42	H	-1.730678	0.024346	-0.643281
H43	H	-1.835955	0.119940	-0.822262
H44	H	-1.666349	0.176561	-0.719579
H45	H	-1.637993	-0.025030	-1.056139
H46	H	-1.116536	-0.153803	-0.172481
O47	O	-1.361095	0.280452	-0.340774
C48	C	-1.319692	0.331824	-0.205160
H49	H	-1.408744	0.359426	-0.185722
H50	H	-1.252741	0.417134	-0.216544
H51	H	-1.264110	0.260456	-0.103557
H52	H	-1.488869	-0.210020	-0.727187
O53	O	-1.442941	-0.267390	-0.943414
C54	C	-1.496956	-0.379955	-0.994058
H55	H	-1.605841	-0.370397	-1.063246
H56	H	-1.483481	-0.456954	-0.890527
H57	H	-1.445225	-0.403539	-1.069350
O58	O	-1.023722	-0.077619	-0.634815
C59	C	-1.093108	0.029509	-0.659993
H60	H	-1.095105	0.046266	-0.546035
H61	H	-1.197643	0.016299	-0.741829
H62	H	-1.042687	0.112589	-0.712475
