data_functionalizedCrystal
_audit_creation_method	'MofGen! by Chris Wilmer'
_symmetry_space_group_name_H-M	'P1'
_symmetry_Int_Tables_number	1
_symmetry_cell_setting	triclinic
loop_
_symmetry_equiv_pos_as_xyz
  x,y,z
_cell_length_a	17.077404
_cell_length_b	16.625546
_cell_length_c	17.077396
_cell_angle_alpha	89.968950
_cell_angle_beta	89.982756
_cell_angle_gamma	90.022693
loop_
_atom_site_label
_atom_site_type_symbol
_atom_site_fract_x
_atom_site_fract_y
_atom_site_fract_z
Zn1	Zn	1.200039	-0.320990	-0.443833
Zn2	Zn	1.700039	0.179010	0.056167
Zn3	Zn	1.199953	-0.455835	-0.312563
Zn4	Zn	1.699953	0.044165	0.187437
Zn5	Zn	1.068776	-0.321020	-0.312581
Zn6	Zn	1.568776	0.178980	0.187419
Zn7	Zn	1.068740	-0.455785	-0.443787
Zn8	Zn	1.568740	0.044215	0.056213
O9	O	1.134377	-0.388408	-0.378191
O10	O	1.634377	0.111592	0.121809
O11	O	1.309875	-0.338886	-0.426432
O12	O	1.809875	0.161114	0.073568
O13	O	1.182531	-0.437985	-0.202719
O14	O	1.682531	0.062015	0.297281
O15	O	1.086240	-0.208184	-0.330019
O16	O	1.586240	0.291816	0.169981
O17	O	1.309811	-0.437956	-0.329988
O18	O	1.809811	0.062044	0.170012
O19	O	1.182679	-0.208162	-0.426449
O20	O	1.682679	0.291838	0.073551
O21	O	1.086156	-0.338937	-0.202732
O22	O	1.586156	0.161063	0.297268
O23	O	0.958925	-0.338889	-0.329974
O24	O	1.458925	0.161111	0.170026
O25	O	1.086178	-0.437871	-0.553640
O26	O	1.586178	0.062129	-0.053640
O27	O	0.958898	-0.437900	-0.426370
O28	O	1.458898	0.062100	0.073630
O29	O	1.182643	-0.338837	-0.553674
O30	O	1.682643	0.161163	-0.053674
O31	O	1.182496	-0.568661	-0.329943
O32	O	1.682496	-0.068661	0.170057
O33	O	1.086094	-0.568624	-0.426353
O34	O	1.586094	-0.068624	0.073647
C35	C	0.930429	-0.388393	-0.378169
C36	C	1.430429	0.111607	0.121831
C37	C	0.843180	-0.388406	-0.378179
C38	C	1.343180	0.111594	0.121821
C39	C	0.802196	-0.440039	-0.428292
C40	C	1.302196	0.059961	0.071708
C41	C	0.720216	-0.440041	-0.428304
C42	C	1.220216	0.059959	0.071696
C43	C	0.679220	-0.388413	-0.378199
C44	C	1.179220	0.111587	0.121801
C45	C	0.720209	-0.336775	-0.328084
C46	C	1.220209	0.163225	0.171916
C47	C	0.802188	-0.336769	-0.328076
C48	C	1.302188	0.163231	0.171924
C49	C	0.549339	-0.336790	-0.328103
C50	C	1.049339	0.163210	0.171897
C51	C	0.467355	-0.336797	-0.328110
C52	C	0.967355	0.163203	0.171890
C53	C	0.467367	-0.440062	-0.428331
C54	C	0.967367	0.059938	0.071669
C55	C	0.549346	-0.440057	-0.428323
C56	C	1.049346	0.059943	0.071677
C57	C	0.590329	-0.388419	-0.378207
C58	C	1.090329	0.111581	0.121793
C59	C	1.134303	-0.597898	-0.378158
C60	C	1.634303	-0.097898	0.121842
C61	C	1.134343	-0.687520	-0.378170
C62	C	1.634343	-0.187520	0.121830
C63	C	1.134480	-1.015695	-0.378252
C64	C	1.634480	-0.515695	0.121748
C65	C	1.134439	-0.924387	-0.378232
C66	C	1.634439	-0.424387	0.121768
C67	C	1.134411	-0.851610	-0.378211
C68	C	1.634411	-0.351610	0.121789
C69	C	1.134371	-0.760296	-0.378191
C70	C	1.634371	-0.260296	0.121809
C71	C	1.339121	-0.388423	-0.378213
C72	C	1.839121	0.111577	0.121787
C73	C	1.426371	-0.388429	-0.378223
C74	C	1.926371	0.111571	0.121777
C75	C	1.134417	-0.388345	-0.582936
C76	C	1.634417	0.111655	-0.082936
C77	C	1.134433	-0.388319	-0.670185
C78	C	1.634433	0.111681	-0.170185
C79	C	1.134473	-0.178099	-0.378241
C80	C	1.634473	0.321901	0.121759
C81	C	1.134514	-0.088478	-0.378263
C82	C	1.634514	0.411522	0.121737
C83	C	1.084266	-0.336738	-0.711182
C84	C	1.584266	0.163262	-0.211182
C85	C	1.084279	-0.336720	-0.793162
C86	C	1.584279	0.163280	-0.293162
C87	C	1.134464	-0.388278	-0.834145
C88	C	1.634464	0.111722	-0.334145
C89	C	1.184633	-0.439864	-0.793143
C90	C	1.684633	0.060136	-0.293143
C91	C	1.184615	-0.439886	-0.711164
C92	C	1.684615	0.060114	-0.211164
C93	C	1.184667	-0.439814	-0.964013
C94	C	1.684667	0.060186	-0.464013
C95	C	1.184685	-0.439791	-1.045998
C96	C	1.684685	0.060209	-0.545998
C97	C	1.084331	-0.336648	-1.046011
C98	C	1.584331	0.163352	-0.546011
C99	C	1.084313	-0.336670	-0.964032
C100	C	1.584313	0.163330	-0.464032
C101	C	1.134484	-0.388255	-0.923036
C102	C	1.634484	0.111745	-0.423036
C103	C	1.134383	-0.388412	-0.174243
C104	C	1.634383	0.111588	0.325757
C105	C	1.134518	-0.388211	-0.086994
C106	C	1.634518	0.111789	0.413006
H107	H	0.582706	-0.294734	-0.287300
H108	H	1.082706	0.205266	0.212700
H109	H	1.043405	-0.294749	-0.677820
H110	H	1.543405	0.205251	-0.177820
H111	H	1.043425	-0.294721	-0.826538
H112	H	1.543425	0.205279	-0.326538
H113	H	1.043481	-0.294644	-1.079395
H114	H	1.543481	0.205356	-0.579395
H115	H	1.043452	-0.294682	-0.930667
H116	H	1.543452	0.205318	-0.430667
H117	H	1.225550	-0.481775	-1.079363
H118	H	1.725550	0.018225	-0.579363
N119	N	1.235914	-0.492516	-0.922147
N120	N	1.735914	0.007484	-0.422147
N121	N	1.280720	-0.538546	-0.958745
N122	N	1.780720	-0.038546	-0.458745
H123	H	1.316915	-0.575765	-0.929178
H124	H	1.816915	-0.075765	-0.429178
N125	N	1.235896	-0.492515	-0.835021
N126	N	1.735896	0.007485	-0.335021
N127	N	1.285935	-0.464128	-0.880777
N128	N	1.785935	0.035872	-0.380777
H129	H	1.322142	-0.501310	-0.910355
H130	H	1.822142	-0.001310	-0.410355
H131	H	0.835569	-0.482083	-0.469091
H132	H	1.335569	0.017917	0.030909
N133	N	0.591211	-0.492804	-0.479501
N134	N	1.091211	0.007196	0.020499
N135	N	0.554612	-0.538905	-0.524243
N136	N	1.054612	-0.038905	-0.024243
H137	H	0.584179	-0.576158	-0.560389
H138	H	1.084179	-0.076158	-0.060389
H139	H	0.835556	-0.294720	-0.287273
H140	H	1.335556	0.205280	0.212727
N141	N	0.678364	-0.492783	-0.479503
N142	N	1.178364	0.007217	0.020497
N143	N	0.714977	-0.538876	-0.524235
N144	N	1.214977	-0.038876	-0.024235
H145	H	0.685420	-0.576127	-0.560398
H146	H	1.185420	-0.076127	-0.060398
N147	N	0.425495	-0.492812	-0.479512
N148	N	0.925495	0.007188	0.020488
N149	N	0.352301	-0.492815	-0.479512
N150	N	0.852301	0.007185	0.020488
H151	H	0.322725	-0.530073	-0.515652
H152	H	0.822725	-0.030073	-0.015652
N153	N	0.425489	-0.284053	-0.276928
N154	N	0.925489	0.215947	0.223072
N155	N	0.462088	-0.237947	-0.232192
N156	N	0.962088	0.262053	0.267808
H157	H	0.432522	-0.200694	-0.196045
H158	H	0.932522	0.299306	0.303955
N159	N	0.678336	-0.284026	-0.276915
N160	N	1.178336	0.215974	0.223085
N161	N	0.632619	-0.232684	-0.304629
N162	N	1.132619	0.267316	0.195371
H163	H	0.603046	-0.195429	-0.268489
H164	H	1.103046	0.304571	0.231511
H165	H	1.225472	-0.481882	-0.677785
H166	H	1.725472	0.018118	-0.177785
