data_functionalizedCrystal
_audit_creation_method	'MofGen! by Chris Wilmer'
_symmetry_space_group_name_H-M	'P1'
_symmetry_Int_Tables_number	1
_symmetry_cell_setting	triclinic
loop_
_symmetry_equiv_pos_as_xyz
  x,y,z
_cell_length_a	10.908937
_cell_length_b	17.019294
_cell_length_c	10.065875
_cell_angle_alpha	94.957055
_cell_angle_beta	83.441416
_cell_angle_gamma	71.768120
loop_
_atom_site_label
_atom_site_type_symbol
_atom_site_fract_x
_atom_site_fract_y
_atom_site_fract_z
O1	O	1.720273	-0.133973	-0.097790
O2	O	2.220273	0.366027	0.402210
O3	O	1.347482	-0.073243	-0.104920
O4	O	1.847482	0.426757	0.395080
O5	O	1.542078	-0.218141	-0.087888
O6	O	2.042078	0.281859	0.412112
O7	O	1.525677	0.010925	-0.114822
O8	O	2.025677	0.510925	0.385178
O9	O	1.504972	-0.190419	0.135842
O10	O	2.004972	0.309581	0.635842
O11	O	1.310376	-0.045522	0.118810
O12	O	1.810376	0.454478	0.618810
O13	O	1.683168	-0.106251	0.125940
O14	O	2.183168	0.393749	0.625940
Zn15	Zn	1.490881	-0.071485	0.157897
Zn16	Zn	1.990881	0.428515	0.657897
Zn17	Zn	1.539769	-0.108009	-0.136877
Zn18	Zn	2.039769	0.391991	0.363123
O19	O	1.488572	0.038646	0.108909
O20	O	1.988572	0.538646	0.608909
C21	C	1.281188	-0.053707	0.006279
C22	C	1.781188	0.446293	0.506279
C23	C	1.138934	-0.036805	0.004295
C24	C	1.638934	0.463195	0.504295
C25	C	1.522171	-0.233145	0.027368
C26	C	2.022171	0.266855	0.527368
C27	C	1.518123	-0.319152	0.037472
C28	C	2.018123	0.180848	0.537472
C29	C	0.941816	-0.081018	0.009469
C30	C	1.441816	0.418982	0.509469
C31	C	1.088840	-0.098486	0.011540
C32	C	1.588840	0.401514	0.511540
C33	C	1.536450	-0.374665	-0.079735
C34	C	2.036450	0.125335	0.420265
C35	C	1.532637	-0.455476	-0.070237
C36	C	2.032637	0.044524	0.429763
C37	C	1.510506	-0.480773	0.056470
C38	C	2.010506	0.019227	0.556470
C39	C	1.492174	-0.425253	0.173686
C40	C	1.992174	0.074747	0.673686
C41	C	1.495978	-0.344442	0.164186
C42	C	1.995978	0.155558	0.664186
C43	C	1.498000	-0.724012	0.091253
C44	C	1.998000	-0.224012	0.591253
C45	C	1.494202	-0.804831	0.100744
C46	C	1.994202	-0.304831	0.600744
C47	C	1.534662	-0.835048	-0.143181
C48	C	2.034662	-0.335048	0.356819
C49	C	1.538472	-0.754236	-0.152669
C50	C	2.038472	-0.254236	0.347331
C51	C	1.520133	-0.698721	-0.035453
C52	C	2.020133	-0.198721	0.464547
C53	C	1.506612	-0.563375	0.066181
C54	C	2.006612	-0.063375	0.566181
C55	C	1.524018	-0.616119	-0.045166
C56	C	2.024018	-0.116119	0.454834
C57	C	1.749462	-0.125788	0.014738
C58	C	2.249462	0.374212	0.514738
C59	C	1.891718	-0.142691	0.016713
C60	C	2.391718	0.357309	0.516713
C61	C	1.508479	0.053650	-0.006351
C62	C	2.008479	0.553650	0.493649
C63	C	1.512529	0.139656	-0.016464
C64	C	2.012529	0.639656	0.483536
N65	N	1.457526	-0.046560	0.359073
N66	N	1.957526	0.453440	0.859073
N67	N	1.573134	-0.132942	-0.338052
N68	N	2.073134	0.367058	0.161948
C69	C	1.528155	-0.099341	0.433056
C70	C	2.028155	0.400659	0.933056
C71	C	1.502494	-0.080153	0.587968
C72	C	2.002494	0.419847	1.087968
H73	H	0.875863	-0.015288	0.001727
H74	H	1.375863	0.484712	0.501727
H75	H	1.072985	0.028931	-0.003443
H76	H	1.572985	0.528931	0.496557
C77	C	1.684667	-0.216810	0.452631
C78	C	2.184667	0.283190	0.952631
C79	C	1.680135	-0.213260	0.592672
C80	C	2.180135	0.286740	1.092672
H81	H	1.750644	-0.266431	0.409870
H82	H	2.250644	0.233569	0.909870
H83	H	1.602610	-0.216672	0.429461
H84	H	2.102610	0.283328	0.929461
H85	H	1.703841	-0.169738	0.423586
H86	H	2.203841	0.330262	0.923586
H87	H	1.660952	-0.260329	0.621718
H88	H	2.160952	0.239671	1.121718
H89	H	1.762210	-0.213406	0.615852
H90	H	2.262210	0.286594	1.115852
H91	H	0.957674	-0.208424	0.024439
H92	H	1.457674	0.291576	0.524439
H93	H	1.488597	-0.583983	0.169347
H94	H	1.988597	-0.083983	0.669347
C95	C	1.289836	0.078752	0.330346
C96	C	1.789836	0.578752	0.830346
C97	C	1.350240	0.033619	0.428372
C98	C	1.850240	0.533619	0.928372
H99	H	1.223596	0.128249	0.373129
H100	H	1.723596	0.628249	0.873129
H101	H	1.352850	0.092949	0.272936
H102	H	1.852850	0.592949	0.772936
H103	H	1.252080	0.045669	0.278505
H104	H	1.752080	0.545669	0.778505
H105	H	1.388005	0.066699	0.480207
H106	H	1.888005	0.566699	0.980207
H107	H	1.287216	0.019424	0.485805
H108	H	1.787216	0.519424	0.985805
H109	H	1.554478	-0.354077	-0.182914
H110	H	2.054478	0.145923	0.317086
H111	H	1.547566	-0.500673	-0.165680
H112	H	2.047566	-0.000673	0.334320
H113	H	1.556495	-0.733646	-0.255847
H114	H	2.056495	-0.233646	0.244153
H115	H	1.607617	-0.158736	0.381713
H116	H	2.107617	0.341264	0.881713
C117	C	1.306276	-0.187357	0.022017
C118	C	1.806276	0.312643	0.522017
C119	C	1.177860	-0.187230	0.021985
C120	C	1.677860	0.312770	0.521985
H121	H	1.361229	-0.242142	0.028473
H122	H	1.861229	0.257858	0.528473
H123	H	1.335296	-0.169685	-0.059211
H124	H	1.835296	0.330315	0.440789
H125	H	1.309392	-0.150340	0.096827
H126	H	1.809392	0.349660	0.596827
H127	H	1.174742	-0.224243	-0.052832
H128	H	1.674742	0.275757	0.447168
H129	H	1.148832	-0.204913	0.103222
H130	H	1.648832	0.295087	0.603222
H131	H	1.549590	-0.880255	-0.238611
H132	H	2.049590	-0.380255	0.261389
H133	H	1.483093	-0.678826	0.186699
H134	H	1.983093	-0.178826	0.686699
C135	C	1.454561	-0.766843	0.340910
C136	C	1.954561	-0.266843	0.840910
C137	C	1.469862	-0.832636	0.240030
C138	C	1.969862	-0.332636	0.740030
H139	H	1.439530	-0.784011	0.426893
H140	H	1.939530	-0.284011	0.926893
H141	H	1.531438	-0.751558	0.333979
H142	H	2.031438	-0.251558	0.833979
H143	H	1.382321	-0.720345	0.330285
H144	H	1.882321	-0.220345	0.830285
H145	H	1.542109	-0.879133	0.250650
H146	H	2.042109	-0.379133	0.750650
H147	H	1.392977	-0.847933	0.246966
H148	H	1.892977	-0.347933	0.746966
H149	H	1.423018	-0.020759	0.639307
H150	H	1.923018	0.479241	1.139307
H151	H	1.474147	-0.445855	0.276853
H152	H	1.974147	0.054145	0.776853
C153	C	1.455588	-0.322683	0.406246
C154	C	1.955588	0.177317	0.906246
C155	C	1.475819	-0.283416	0.293024
C156	C	1.975819	0.216584	0.793024
H157	H	1.443140	-0.285006	0.485786
H158	H	1.943140	0.214994	0.985786
H159	H	1.380399	-0.339230	0.403032
H160	H	1.880399	0.160770	0.903032
H161	H	1.529518	-0.370437	0.406716
H162	H	2.029518	0.129563	0.906716
H163	H	1.401884	-0.235665	0.292548
H164	H	1.901884	0.264335	0.792548
H165	H	1.551016	-0.266857	0.296240
H166	H	2.051016	0.233143	0.796240
H167	H	1.542028	-0.595516	-0.148330
H168	H	2.042028	-0.095516	0.351670
