data_functionalizedCrystal
_audit_creation_method	'MofGen! by Chris Wilmer'
_symmetry_space_group_name_H-M	'P1'
_symmetry_Int_Tables_number	1
_symmetry_cell_setting	triclinic
loop_
_symmetry_equiv_pos_as_xyz
  x,y,z
_cell_length_a	10.723024
_cell_length_b	10.723024
_cell_length_c	14.586319
_cell_angle_alpha	90.004820
_cell_angle_beta	90.000220
_cell_angle_gamma	84.467869
loop_
_atom_site_label
_atom_site_type_symbol
_atom_site_fract_x
_atom_site_fract_y
_atom_site_fract_z
O1	O	1.657181	0.175030	0.076232
O2	O	1.294029	0.191784	0.076235
O3	O	1.483981	0.001831	0.076230
O4	O	1.467228	0.364983	0.076237
O5	O	1.483980	0.001819	-0.076251
O6	O	1.294027	0.191772	-0.076246
O7	O	1.657179	0.175018	-0.076249
Cu8	Cu	1.475603	0.183394	-0.090170
Cu9	Cu	1.475605	0.183408	0.090156
O10	O	1.467227	0.364971	-0.076244
C11	C	1.247528	0.190558	-0.000005
C12	C	1.108974	0.186911	-0.000004
C13	C	1.033991	0.293198	-0.000002
C14	C	0.890788	0.289431	-0.000000
C15	C	1.482762	-0.044675	-0.000009
C16	C	1.479114	-0.183229	-0.000006
C17	C	1.585401	-0.258212	-0.000006
C18	C	1.581634	-0.401415	-0.000002
C19	C	1.703680	0.176243	-0.000007
C20	C	1.842234	0.179891	-0.000002
C21	C	1.468447	0.411477	-0.000003
C22	C	1.472094	0.550031	0.000000
N23	N	1.475607	0.183409	0.216988
N24	N	1.475611	0.183383	-0.217002
C25	C	1.559883	0.099464	0.451992
C26	C	1.559887	0.099461	0.547973
C27	C	1.391330	0.267337	0.547987
C28	C	1.391334	0.267345	0.452008
C29	C	1.475609	0.183401	0.404013
C30	C	1.475609	0.183390	0.595973
C31	C	1.475612	0.183388	0.700040
C32	C	1.475607	0.183405	0.299939
H33	H	0.906659	0.088896	0.000002
H34	H	1.381099	-0.385544	-0.000007
H35	H	1.679187	-0.216390	-0.000012
Cl36	Cl	1.285385	0.372857	0.608328
Cl37	Cl	1.334308	-0.247788	0.000004
H38	H	1.628507	0.031113	0.412917
H39	H	1.628512	0.031113	0.587036
Cl40	Cl	1.285386	0.372881	0.391684
Cl41	Cl	0.791315	0.429921	0.000010
Cl42	Cl	1.098550	0.438004	-0.000001
H43	H	1.067152	0.093125	0.000018
H44	H	1.672624	-0.465848	-0.000006
