data_functionalizedCrystal
_audit_creation_method	'MofGen! by Chris Wilmer'
_symmetry_space_group_name_H-M	'P1'
_symmetry_Int_Tables_number	1
_symmetry_cell_setting	triclinic
loop_
_symmetry_equiv_pos_as_xyz
  x,y,z
_cell_length_a	17.038272
_cell_length_b	16.109301
_cell_length_c	15.186229
_cell_angle_alpha	90.004940
_cell_angle_beta	90.002089
_cell_angle_gamma	92.713481
loop_
_atom_site_label
_atom_site_type_symbol
_atom_site_fract_x
_atom_site_fract_y
_atom_site_fract_z
O1	O	1.037364	-0.180538	-0.073123
O2	O	1.287364	0.069462	0.176877
O3	O	1.537364	0.319462	0.426877
O4	O	1.787364	0.569462	0.676877
O5	O	0.809734	-0.177671	-0.073149
O6	O	1.059734	0.072329	0.176851
O7	O	1.309734	0.322329	0.426851
O8	O	1.559734	0.572329	0.676851
O9	O	0.929802	-0.058518	-0.073127
O10	O	1.179802	0.191482	0.176873
O11	O	1.429802	0.441482	0.426873
O12	O	1.679802	0.691482	0.676873
O13	O	0.917296	-0.299692	-0.073146
O14	O	1.167296	-0.049692	0.176854
O15	O	1.417296	0.200308	0.426854
O16	O	1.667296	0.450308	0.676854
O17	O	0.929794	-0.058516	0.073331
O18	O	1.179794	0.191484	0.323331
O19	O	1.429794	0.441484	0.573331
O20	O	1.679794	0.691484	0.823331
O21	O	0.809725	-0.177670	0.073308
O22	O	1.059725	0.072330	0.323308
O23	O	1.309725	0.322330	0.573308
O24	O	1.559725	0.572330	0.823308
O25	O	1.037356	-0.180536	0.073334
O26	O	1.287356	0.069464	0.323334
O27	O	1.537356	0.319464	0.573334
O28	O	1.787356	0.569464	0.823334
Zn29	Zn	0.923539	-0.179103	0.096574
Zn30	Zn	1.173539	0.070897	0.346574
Zn31	Zn	1.423539	0.320897	0.596574
Zn32	Zn	1.673539	0.570897	0.846574
Zn33	Zn	0.923550	-0.179105	-0.096390
Zn34	Zn	1.173550	0.070895	0.153610
Zn35	Zn	1.423550	0.320895	0.403610
Zn36	Zn	1.673550	0.570895	0.653610
O37	O	0.917287	-0.299690	0.073311
O38	O	1.167287	-0.049690	0.323311
O39	O	1.417287	0.200310	0.573311
O40	O	1.667287	0.450310	0.823311
C41	C	0.780601	-0.175063	0.000076
C42	C	1.030601	0.074937	0.250076
C43	C	1.280601	0.324937	0.500076
C44	C	1.530601	0.574937	0.750076
C45	C	0.693808	-0.167284	0.000067
C46	C	0.943808	0.082716	0.250067
C47	C	1.193808	0.332716	0.500067
C48	C	1.443808	0.582716	0.750067
C49	C	0.643694	-0.238705	0.000062
C50	C	0.893694	0.011295	0.250062
C51	C	1.143694	0.261295	0.500062
C52	C	1.393694	0.511295	0.750062
C53	C	0.562143	-0.231391	0.000074
C54	C	0.812143	0.018609	0.250074
C55	C	1.062143	0.268609	0.500074
C56	C	1.312143	0.518609	0.750074
C57	C	0.530709	-0.152655	0.000086
C58	C	0.780709	0.097345	0.250086
C59	C	1.030709	0.347345	0.500086
C60	C	1.280709	0.597345	0.750086
C61	C	0.580830	-0.081229	0.000093
C62	C	0.830830	0.168771	0.250093
C63	C	1.080830	0.418771	0.500093
C64	C	1.330830	0.668771	0.750093
C65	C	0.662379	-0.088544	0.000087
C66	C	0.912379	0.161456	0.250087
C67	C	1.162379	0.411456	0.500087
C68	C	1.412379	0.661456	0.750087
C69	C	0.284951	-0.126813	0.000111
C70	C	0.534951	0.123187	0.250111
C71	C	0.784951	0.373187	0.500111
C72	C	1.034951	0.623187	0.750111
C73	C	0.203396	-0.119503	0.000115
C74	C	0.453396	0.130497	0.250115
C75	C	0.703396	0.380497	0.500115
C76	C	0.953396	0.630497	0.750115
C77	C	0.184714	-0.269665	0.000098
C78	C	0.434714	-0.019665	0.250098
C79	C	0.684714	0.230335	0.500098
C80	C	0.934714	0.480335	0.750098
C81	C	0.266266	-0.276973	0.000086
C82	C	0.516266	-0.026973	0.250086
C83	C	0.766266	0.223027	0.500086
C84	C	1.016266	0.473027	0.750086
C85	C	0.316380	-0.205547	0.000098
C86	C	0.566380	0.044453	0.250098
C87	C	0.816380	0.294453	0.500098
C88	C	1.066380	0.544453	0.750098
C89	C	0.447352	-0.145177	0.000096
C90	C	0.697352	0.104823	0.250096
C91	C	0.947352	0.354823	0.500096
C92	C	1.197352	0.604823	0.750096
C93	C	0.399736	-0.213026	0.000094
C94	C	0.649736	0.036974	0.250094
C95	C	0.899736	0.286974	0.500094
C96	C	1.149736	0.536974	0.750094
C97	C	0.929291	-0.027506	0.000102
C98	C	1.179291	0.222494	0.250102
C99	C	1.429291	0.472494	0.500102
C100	C	1.679291	0.722494	0.750102
C101	C	0.927773	0.064897	0.000103
C102	C	1.177773	0.314897	0.250103
C103	C	1.427773	0.564897	0.500103
C104	C	1.677773	0.814897	0.750103
C105	C	1.066488	-0.183145	0.000106
C106	C	1.316488	0.066855	0.250106
C107	C	1.566488	0.316855	0.500106
C108	C	1.816488	0.566855	0.750106
C109	C	1.153281	-0.190924	0.000110
C110	C	1.403281	0.059076	0.250110
C111	C	1.653281	0.309076	0.500110
C112	C	1.903281	0.559076	0.750110
C113	C	0.917798	-0.330702	0.000080
C114	C	1.167798	-0.080702	0.250080
C115	C	1.417798	0.169298	0.500080
C116	C	1.667798	0.419298	0.750080
C117	C	0.919317	-0.423105	0.000073
C118	C	1.169317	-0.173105	0.250073
C119	C	1.419317	0.076895	0.500073
C120	C	1.669317	0.326895	0.750073
N121	N	0.923537	-0.179101	0.228267
N122	N	1.173537	0.070899	0.478267
N123	N	1.423537	0.320899	0.728267
N124	N	1.673537	0.570899	0.978267
C125	C	0.995487	0.282360	0.000097
C126	C	1.245487	0.532360	0.250097
C127	C	1.495487	0.782360	0.500097
C128	C	1.745487	1.032360	0.750097
C129	C	0.994054	0.369183	0.000090
C130	C	1.244054	0.619183	0.250090
C131	C	1.494054	0.869183	0.500090
C132	C	1.744054	1.119183	0.750090
C133	C	0.851597	0.359425	0.000077
C134	C	1.101597	0.609425	0.250077
C135	C	1.351597	0.859425	0.500077
C136	C	1.601597	1.109425	0.750077
C137	C	0.853031	0.272605	0.000078
C138	C	1.103031	0.522605	0.250078
C139	C	1.353031	0.772605	0.500078
C140	C	1.603031	1.022605	0.750078
C141	C	0.924978	0.234075	0.000093
C142	C	1.174978	0.484075	0.250093
C143	C	1.424978	0.734075	0.500093
C144	C	1.674978	0.984075	0.750093
C145	C	0.922111	0.407718	0.000084
C146	C	1.172111	0.657718	0.250084
C147	C	1.422111	0.907718	0.500084
C148	C	1.672111	1.157718	0.750084
C149	C	0.920557	0.501854	0.000076
C150	C	1.170557	0.751854	0.250076
C151	C	1.420557	1.001854	0.500076
C152	C	1.670557	1.251854	0.750076
C153	C	0.926533	0.139932	0.000099
C154	C	1.176533	0.389932	0.250099
C155	C	1.426533	0.639932	0.500099
C156	C	1.676533	0.889932	0.750099
C157	C	0.976721	-0.126361	0.454000
C158	C	1.226721	0.123639	0.704000
C159	C	1.476721	0.373639	0.954000
C160	C	1.726721	0.623639	1.204000
C161	C	0.976723	-0.126360	0.546189
C162	C	1.226723	0.123640	0.796189
C163	C	1.476723	0.373640	1.046189
C164	C	1.726723	0.623640	1.296189
C165	C	0.870366	-0.231847	0.546178
C166	C	1.120366	0.018153	0.796178
C167	C	1.370366	0.268153	1.046178
C168	C	1.620366	0.518153	1.296178
C169	C	0.870361	-0.231843	0.453990
C170	C	1.120361	0.018157	0.703990
C171	C	1.370361	0.268157	0.953990
C172	C	1.620361	0.518157	1.203990
C173	C	0.923543	-0.179102	0.407903
C174	C	1.173543	0.070898	0.657903
C175	C	1.423543	0.320898	0.907903
C176	C	1.673543	0.570898	1.157903
C177	C	0.923550	-0.179104	0.592281
C178	C	1.173550	0.070896	0.842281
C179	C	1.423550	0.320896	1.092281
C180	C	1.673550	0.570896	1.342281
C181	C	0.923552	-0.179103	0.692237
C182	C	1.173552	0.070897	0.942237
C183	C	1.423552	0.320897	1.192237
C184	C	1.673552	0.570897	1.442237
C185	C	0.923540	-0.179102	0.307941
C186	C	1.173540	0.070898	0.557941
C187	C	1.423540	0.320898	0.807941
C188	C	1.673540	0.570898	1.057941
N189	N	0.923555	-0.179105	0.771918
N190	N	1.173555	0.070895	1.021918
N191	N	1.423555	0.320895	1.271918
N192	N	1.673555	0.570895	1.521918
H193	H	0.425333	-0.277132	0.000090
H194	H	0.675333	-0.027132	0.250090
H195	H	0.925333	0.222868	0.500090
H196	H	1.175333	0.472868	0.750090
F197	F	0.777981	0.221212	0.000067
F198	F	1.027981	0.471212	0.250067
F199	F	1.277981	0.721212	0.500067
F200	F	1.527981	0.971212	0.750067
H201	H	0.703182	-0.030385	0.000091
H202	H	0.953182	0.219615	0.250091
H203	H	1.203182	0.469615	0.500091
H204	H	1.453182	0.719615	0.750091
H205	H	1.051470	0.408493	0.000091
H206	H	1.301470	0.658493	0.250091
H207	H	1.551470	0.908493	0.500091
H208	H	1.801470	1.158493	0.750091
H209	H	1.020024	-0.083414	0.416478
H210	H	1.270024	0.166586	0.666478
H211	H	1.520024	0.416586	0.916478
H212	H	1.770024	0.666586	1.166478
H213	H	0.827053	-0.274791	0.416456
H214	H	1.077053	-0.024791	0.666456
H215	H	1.327053	0.225209	0.916456
H216	H	1.577053	0.475209	1.166456
F217	F	1.072060	0.241357	0.000112
F218	F	1.322060	0.491357	0.250112
F219	F	1.572060	0.741357	0.500112
F220	F	1.822060	0.991357	0.750112
H221	H	0.827067	-0.274789	0.583712
H222	H	1.077067	-0.024789	0.833712
H223	H	1.327067	0.225211	1.083712
H224	H	1.577067	0.475211	1.333712
F225	F	0.299714	-0.360775	0.000069
F226	F	0.549714	-0.110775	0.250069
F227	F	0.799714	0.139225	0.500069
F228	F	1.049714	0.389225	0.750069
H229	H	0.793020	0.390807	0.000067
H230	H	1.043020	0.640807	0.250067
H231	H	1.293020	0.890807	0.500067
H232	H	1.543020	1.140807	0.750067
H233	H	0.143903	-0.327816	0.000089
H234	H	0.393903	-0.077816	0.250089
H235	H	0.643903	0.172184	0.500089
H236	H	0.893903	0.422184	0.750089
F237	F	1.033321	-0.070224	0.595245
F238	F	1.283321	0.179776	0.845245
F239	F	1.533321	0.429776	1.095245
F240	F	1.783321	0.679776	1.345245
H241	H	0.669280	-0.302820	0.000052
H242	H	0.919280	-0.052820	0.250052
H243	H	1.169280	0.197180	0.500052
H244	H	1.419280	0.447180	0.750052
F245	F	0.169944	-0.035698	0.000143
F246	F	0.419944	0.214302	0.250143
F247	F	0.669944	0.464302	0.500143
F248	F	0.919944	0.714302	0.750143
H249	H	0.325745	-0.068652	0.000122
H250	H	0.575745	0.181348	0.250122
H251	H	0.825745	0.431348	0.500122
H252	H	1.075745	0.681348	0.750122
F253	F	0.508810	-0.307407	0.000065
F254	F	0.758810	-0.057407	0.250065
F255	F	1.008810	0.192593	0.500065
F256	F	1.258810	0.442593	0.750065
H257	H	0.555230	-0.017121	0.000115
H258	H	0.805230	0.232879	0.250115
H259	H	1.055230	0.482879	0.500115
H260	H	1.305230	0.732879	0.750115
H261	H	0.421749	-0.081070	0.000130
H262	H	0.671749	0.168930	0.250130
H263	H	0.921749	0.418930	0.500130
H264	H	1.171749	0.668930	0.750130
