data_functionalizedCrystal
_audit_creation_method	'MofGen! by Chris Wilmer'
_symmetry_space_group_name_H-M	'P1'
_symmetry_Int_Tables_number	1
_symmetry_cell_setting	triclinic
loop_
_symmetry_equiv_pos_as_xyz
  x,y,z
_cell_length_a	10.540539
_cell_length_b	14.044220
_cell_length_c	12.503572
_cell_angle_alpha	86.156832
_cell_angle_beta	93.551804
_cell_angle_gamma	88.857185
loop_
_atom_site_label
_atom_site_type_symbol
_atom_site_fract_x
_atom_site_fract_y
_atom_site_fract_z
O1	O	-1.706103	-0.128248	-0.089273
O2	O	-1.372770	0.205085	0.244061
O3	O	-1.039436	0.538419	0.577394
O4	O	-1.337964	-0.140843	-0.089286
O5	O	-1.004631	0.192490	0.244047
O6	O	-0.671298	0.525824	0.577381
O7	O	-1.516507	0.003476	-0.089269
O8	O	-1.183174	0.336809	0.244064
O9	O	-0.849840	0.670143	0.577398
O10	O	-1.527560	-0.272567	-0.089290
O11	O	-1.194227	0.060766	0.244044
O12	O	-0.860893	0.394100	0.577377
O13	O	-1.503082	-0.007396	0.089372
O14	O	-1.169748	0.325937	0.422705
O15	O	-0.836415	0.659271	0.756038
O16	O	-1.324539	-0.151715	0.089355
O17	O	-0.991205	0.181619	0.422688
O18	O	-0.657872	0.514952	0.756021
O19	O	-1.692677	-0.139120	0.089368
O20	O	-1.359344	0.194213	0.422701
O21	O	-1.026011	0.527547	0.756035
Cu22	Cu	-1.507382	-0.146410	0.105673
Cu23	Cu	-1.174049	0.186923	0.439006
Cu24	Cu	-0.840716	0.520257	0.772339
Cu25	Cu	-1.523259	-0.133553	-0.105591
Cu26	Cu	-1.189926	0.199780	0.227743
Cu27	Cu	-0.856593	0.533114	0.561076
O28	O	-1.514135	-0.283439	0.089351
O29	O	-1.180801	0.049895	0.422684
O30	O	-0.847468	0.383228	0.756018
C31	C	-1.504957	0.033387	0.000052
C32	C	-1.171623	0.366720	0.333385
C33	C	-0.838290	0.700054	0.666718
C34	C	-1.490527	0.138711	0.000052
C35	C	-1.157193	0.472044	0.333386
C36	C	-0.823860	0.805377	0.666719
C37	C	-1.283853	-0.145334	0.000033
C38	C	-0.950520	0.187999	0.333366
C39	C	-0.617186	0.521333	0.666699
C40	C	-1.142620	-0.142508	0.000028
C41	C	-0.809286	0.190826	0.333361
C42	C	-0.475953	0.524159	0.666694
C43	C	-1.746789	-0.134629	0.000047
C44	C	-1.413455	0.198705	0.333380
C45	C	-1.080122	0.532038	0.666714
C46	C	-1.888023	-0.137454	0.000045
C47	C	-1.554689	0.195879	0.333378
C48	C	-1.221356	0.529212	0.666711
C49	C	-0.948213	-0.034244	0.000453
C50	C	-0.614880	0.299089	0.333786
C51	C	-0.281547	0.632422	0.667120
C52	C	-1.095152	-0.037084	0.000039
C53	C	-0.761819	0.296250	0.333372
C54	C	-0.428485	0.629583	0.666706
C55	C	-1.093743	-0.187034	-0.101985
C56	C	-0.760410	0.146299	0.231349
C57	C	-0.427076	0.479632	0.564682
C58	C	-0.946840	-0.183432	-0.102059
C59	C	-0.613507	0.149902	0.231275
C60	C	-0.280174	0.483235	0.564608
C61	C	-0.931301	-0.197940	0.101089
C62	C	-0.597968	0.135394	0.434422
C63	C	-0.264635	0.468727	0.767756
C64	C	-1.078281	-0.198992	0.102426
C65	C	-0.744948	0.134341	0.435759
C66	C	-0.411614	0.467675	0.769093
C67	C	-1.525685	-0.313350	0.000028
C68	C	-1.192352	0.019984	0.333361
C69	C	-0.859018	0.353317	0.666695
C70	C	-1.540116	-0.418673	0.000020
C71	C	-1.206782	-0.085339	0.333353
C72	C	-0.873449	0.247994	0.666687
N73	N	-1.496224	-0.155452	0.254264
N74	N	-1.162891	0.177881	0.587597
N75	N	-0.829558	0.511214	0.920930
C76	C	-1.464147	0.331552	0.000036
C77	C	-1.130814	0.664885	0.333369
C78	C	-0.797480	0.998218	0.666703
C79	C	-1.566490	0.388492	0.000036
C80	C	-1.233156	0.721825	0.333370
C81	C	-0.899823	1.055159	0.666703
C82	C	-1.551812	0.495795	0.000027
C83	C	-1.218478	0.829129	0.333361
C84	C	-0.885145	1.162462	0.666694
C85	C	-1.478823	0.224238	0.000045
C86	C	-1.145490	0.557571	0.333378
C87	C	-0.812156	0.890905	0.666712
N88	N	-1.534427	-0.124503	-0.254182
N89	N	-1.201093	0.208830	0.079151
N90	N	-0.867760	0.542164	0.412485
C91	C	-1.479811	-0.168762	0.473377
C92	C	-1.146478	0.164571	0.806711
C93	C	-0.813145	0.497904	1.140044
C94	C	-1.550836	-0.111196	0.526711
C95	C	-1.217502	0.222137	0.860045
C96	C	-0.884169	0.555470	1.193378
C97	C	-1.541703	-0.118602	0.648634
C98	C	-1.208370	0.214731	0.981967
C99	C	-0.875037	0.548065	1.315300
C100	C	-1.488942	-0.161358	0.351444
C101	C	-1.155609	0.171976	0.684777
C102	C	-0.822276	0.505309	1.018111
H103	H	-1.128234	-0.001614	0.073166
H104	H	-0.794901	0.331719	0.406500
H105	H	-0.461568	0.665053	0.739833
Cl106	Cl	-1.162796	-0.125489	-0.219194
Cl107	Cl	-0.829463	0.207844	0.114139
Cl108	Cl	-0.496130	0.541178	0.447472
Cl109	Cl	-1.375352	-0.253439	0.544247
Cl110	Cl	-1.042019	0.079894	0.877580
Cl111	Cl	-0.708686	0.413228	1.210913
Cl112	Cl	-1.311861	0.380706	0.000025
Cl113	Cl	-0.978527	0.714040	0.333358
Cl114	Cl	-0.645194	1.047373	0.666692
H115	H	-0.909919	0.002952	0.073612
H116	H	-0.576586	0.336285	0.406946
H117	H	-0.243252	0.669619	0.740279
H118	H	-0.919280	0.011655	-0.072293
H119	H	-0.585947	0.344989	0.261041
H120	H	-0.252614	0.678322	0.594374
Cl121	Cl	-1.161834	0.031607	-0.113243
Cl122	Cl	-0.828501	0.364940	0.220091
Cl123	Cl	-0.495167	0.698274	0.553424
Cl124	Cl	-1.140817	-0.306198	-0.107882
Cl125	Cl	-0.807484	0.027135	0.225452
Cl126	Cl	-0.474150	0.360468	0.558785
H127	H	-0.890495	-0.168527	0.178413
H128	H	-0.557161	0.164806	0.511747
H129	H	-0.223828	0.498139	0.845080
H130	H	-1.665137	0.356657	-0.000032
H131	H	-1.331803	0.689991	0.333301
H132	H	-0.998470	1.023324	0.666635
Cl133	Cl	-0.870194	-0.315569	0.102146
Cl134	Cl	-0.536861	0.017765	0.435479
Cl135	Cl	-0.203528	0.351098	0.768813
H136	H	-0.906885	-0.258969	-0.106695
H137	H	-0.573551	0.074364	0.226639
H138	H	-0.240218	0.407697	0.559972
Cl139	Cl	-0.906274	-0.118373	-0.219781
Cl140	Cl	-0.572941	0.214961	0.113553
Cl141	Cl	-0.239607	0.548294	0.446886
H142	H	-1.618501	-0.056351	0.480805
H143	H	-1.285167	0.276982	0.814138
H144	H	-0.951834	0.610316	1.147472
H145	H	-1.109825	-0.166521	0.177895
H146	H	-0.776491	0.166812	0.511228
H147	H	-0.443158	0.500145	0.844561
Cl148	Cl	-1.126955	-0.318244	0.111925
Cl149	Cl	-0.793622	0.015090	0.445259
Cl150	Cl	-0.460289	0.348423	0.778592
