data_functionalizedCrystal
_audit_creation_method	'MofGen! by Chris Wilmer'
_symmetry_space_group_name_H-M	'P1'
_symmetry_Int_Tables_number	1
_symmetry_cell_setting	triclinic
loop_
_symmetry_equiv_pos_as_xyz
  x,y,z
_cell_length_a	21.295417
_cell_length_b	19.121246
_cell_length_c	19.120904
_cell_angle_alpha	89.874251
_cell_angle_beta	87.591662
_cell_angle_gamma	87.536295
loop_
_atom_site_label
_atom_site_type_symbol
_atom_site_fract_x
_atom_site_fract_y
_atom_site_fract_z
Zn1	Zn	-0.227297	-1.054844	0.442197
Zn2	Zn	0.106036	-0.721511	0.775530
Zn3	Zn	0.439369	-0.388178	1.108863
Zn4	Zn	-0.327896	-1.059754	0.324951
Zn5	Zn	0.005437	-0.726420	0.658284
Zn6	Zn	0.338771	-0.393087	0.991618
Zn7	Zn	-0.226922	-0.942611	0.319964
Zn8	Zn	0.106411	-0.609278	0.653297
Zn9	Zn	0.439745	-0.275944	0.986631
Zn10	Zn	-0.336812	-0.937562	0.437134
Zn11	Zn	-0.003479	-0.604228	0.770467
Zn12	Zn	0.329854	-0.270895	1.103801
O13	O	-0.279732	-0.998693	0.381061
O14	O	0.053601	-0.665359	0.714395
O15	O	0.386935	-0.332026	1.047728
O16	O	-0.237068	-1.153603	0.430850
O17	O	0.096266	-0.820270	0.764183
O18	O	0.429599	-0.486937	1.097516
O19	O	-0.310613	-1.048382	0.226185
O20	O	0.022720	-0.715049	0.559519
O21	O	0.356053	-0.381716	0.892852
O22	O	-0.138881	-0.957557	0.336210
O23	O	0.194452	-0.624224	0.669543
O24	O	0.527785	-0.290891	1.002877
O25	O	-0.310977	-1.157210	0.344710
O26	O	0.022356	-0.823877	0.678043
O27	O	0.355690	-0.490544	1.011376
O28	O	-0.139157	-1.040015	0.426014
O29	O	0.194176	-0.706681	0.759347
O30	O	0.527510	-0.373348	1.092681
O31	O	-0.236428	-0.962318	0.222522
O32	O	0.096905	-0.628985	0.555855
O33	O	0.430239	-0.295651	0.889188
O34	O	-0.245074	-0.843833	0.331301
O35	O	0.088260	-0.510500	0.664634
O36	O	0.421593	-0.177167	0.997968
O37	O	-0.326173	-0.948952	0.535910
O38	O	0.007160	-0.615618	0.869243
O39	O	0.340493	-0.282285	1.202576
O40	O	-0.325810	-0.840124	0.417385
O41	O	0.007524	-0.506790	0.750719
O42	O	0.340857	-0.173457	1.084052
O43	O	-0.245713	-1.035119	0.539629
O44	O	0.087620	-0.701785	0.872962
O45	O	0.420953	-0.368452	1.206296
O46	O	-0.417169	-1.043486	0.339801
O47	O	-0.083836	-0.710153	0.673134
O48	O	0.249497	-0.376820	1.006467
O49	O	-0.423720	-0.953712	0.422221
O50	O	-0.090387	-0.620379	0.755554
O51	O	0.242947	-0.287046	1.088888
C52	C	-0.286369	-0.816540	0.373253
C53	C	0.046964	-0.483207	0.706587
C54	C	0.380298	-0.149874	1.039920
C55	C	-0.289224	-0.738614	0.369929
C56	C	0.044109	-0.405281	0.703263
C57	C	0.377443	-0.071947	1.036596
C58	C	-0.252151	-0.700124	0.413285
C59	C	0.081182	-0.366790	0.746618
C60	C	0.414515	-0.033457	1.079951
C61	C	-0.254831	-0.626904	0.410156
C62	C	0.078503	-0.293571	0.743489
C63	C	0.411836	0.039763	1.076822
C64	C	-0.294587	-0.592176	0.363674
C65	C	0.038747	-0.258842	0.697008
C66	C	0.372080	0.074491	1.030341
C67	C	-0.331661	-0.630671	0.320314
C68	C	0.001673	-0.297338	0.653647
C69	C	0.335006	0.035996	0.986981
C70	C	-0.328978	-0.703890	0.323440
C71	C	0.004356	-0.370556	0.656773
C72	C	0.337689	-0.037223	0.990107
C73	C	-0.304607	-0.371197	0.351985
C74	C	0.028727	-0.037864	0.685318
C75	C	0.362060	0.295470	1.018652
C76	C	-0.307289	-0.297973	0.348864
C77	C	0.026045	0.035360	0.682197
C78	C	0.359378	0.368694	1.015530
C79	C	-0.230457	-0.294211	0.438705
C80	C	0.102876	0.039122	0.772038
C81	C	0.436209	0.372456	1.105372
C82	C	-0.227780	-0.367431	0.441830
C83	C	0.105553	-0.034098	0.775163
C84	C	0.438886	0.299236	1.108496
C85	C	-0.264852	-0.405920	0.398467
C86	C	0.068481	-0.072587	0.731800
C87	C	0.401815	0.260746	1.065134
C88	C	-0.297328	-0.517333	0.360476
C89	C	0.036005	-0.184000	0.693810
C90	C	0.369339	0.149334	1.027143
C91	C	-0.262107	-0.480761	0.401662
C92	C	0.071226	-0.147428	0.734995
C93	C	0.404560	0.185905	1.068329
C94	C	-0.443285	-0.998602	0.381019
C95	C	-0.109952	-0.665269	0.714352
C96	C	0.223381	-0.331936	1.047685
C97	C	-0.513253	-0.998627	0.381027
C98	C	-0.179920	-0.665294	0.714360
C99	C	0.153414	-0.331960	1.047693
C100	C	-0.542688	-1.045410	0.338158
C101	C	-0.209355	-0.712077	0.671491
C102	C	0.123979	-0.378743	1.004825
C103	C	-0.608430	-1.045442	0.338175
C104	C	-0.275097	-0.712109	0.671508
C105	C	0.058237	-0.378776	1.004842
C106	C	-0.644734	-0.998679	0.381053
C107	C	-0.311401	-0.665346	0.714386
C108	C	0.021932	-0.332012	1.047720
C109	C	-0.615292	-0.951892	0.423930
C110	C	-0.281958	-0.618559	0.757264
C111	C	0.051375	-0.285226	1.090597
C112	C	-0.549551	-0.951866	0.423917
C113	C	-0.216218	-0.618533	0.757250
C114	C	0.117116	-0.285200	1.090584
N115	N	-0.750452	-0.937121	0.383768
N116	N	-0.417119	-0.603787	0.717102
N117	N	-0.083785	-0.270454	1.050435
N118	N	-0.812903	-0.937147	0.383777
N119	N	-0.479569	-0.603814	0.717110
N120	N	-0.146236	-0.270481	1.050444
C121	C	-0.842808	-0.998756	0.381097
C122	C	-0.509474	-0.665423	0.714430
C123	C	-0.176141	-0.332089	1.047763
N124	N	-0.807902	-1.060338	0.378394
N125	N	-0.474569	-0.727005	0.711727
N126	N	-0.141236	-0.393672	1.045060
N127	N	-0.745446	-1.060311	0.378381
N128	N	-0.412112	-0.726977	0.711715
N129	N	-0.078779	-0.393644	1.045048
C130	C	-0.716020	-0.998703	0.381072
C131	C	-0.382686	-0.665369	0.714406
C132	C	-0.049353	-0.332036	1.047739
C133	C	-0.943528	-1.045578	0.338244
C134	C	-0.610194	-0.712245	0.671578
C135	C	-0.276861	-0.378911	1.004911
C136	C	-1.009271	-1.045611	0.338266
C137	C	-0.675938	-0.712278	0.671600
C138	C	-0.342604	-0.378944	1.004933
C139	C	-1.016131	-0.952055	0.424018
C140	C	-0.682798	-0.618722	0.757351
C141	C	-0.349465	-0.285388	1.090684
C142	C	-0.950389	-0.952028	0.424000
C143	C	-0.617056	-0.618695	0.757333
C144	C	-0.283723	-0.285361	1.090666
C145	C	-0.914091	-0.998789	0.381109
C146	C	-0.580758	-0.665455	0.714442
C147	C	-0.247425	-0.332122	1.047776
C148	C	-0.115540	-0.998802	0.381121
C149	C	0.217794	-0.665468	0.714454
C150	C	0.551127	-0.332135	1.047787
C151	C	-0.045571	-0.998848	0.381146
C152	C	0.287763	-0.665515	0.714479
C153	C	0.621096	-0.332182	1.047812
C154	C	-0.286980	-0.990924	0.563918
C155	C	0.046354	-0.657591	0.897251
C156	C	0.379687	-0.324258	1.230585
C157	C	-0.290068	-0.987614	0.641840
C158	C	0.043265	-0.654281	0.975174
C159	C	0.376598	-0.320947	1.308507
C160	C	-0.273066	-0.181557	0.388895
C161	C	0.060267	0.151777	0.722228
C162	C	0.393601	0.485110	1.055562
C163	C	-0.270216	-0.259483	0.392219
C164	C	0.063118	0.073850	0.725553
C165	C	0.396451	0.407184	1.058886
C166	C	-0.272465	-1.006471	0.198918
C167	C	0.060868	-0.673138	0.532252
C168	C	0.394201	-0.339804	0.865585
C169	C	-0.269195	-1.009917	0.121002
C170	C	0.064139	-0.676584	0.454335
C171	C	0.397472	-0.343251	0.787669
C172	C	-0.249630	-1.030919	0.680386
C173	C	0.083703	-0.697586	1.013719
C174	C	0.417037	-0.364252	1.347053
C175	C	-0.252530	-1.027800	0.753602
C176	C	0.080803	-0.694467	1.086936
C177	C	0.414137	-0.361133	1.420269
C178	C	-0.295872	-0.981379	0.788271
C179	C	0.037462	-0.648046	1.121605
C180	C	0.370795	-0.314712	1.454938
C181	C	-0.336312	-0.938069	0.749720
C182	C	-0.002979	-0.604736	1.083054
C183	C	0.330355	-0.271403	1.416387
C184	C	-0.333408	-0.941185	0.676505
C185	C	-0.000075	-0.607852	1.009839
C186	C	0.333258	-0.274519	1.343172
C187	C	-0.306731	-0.969723	1.009236
C188	C	0.026602	-0.636390	1.342569
C189	C	0.359935	-0.303057	1.675903
C190	C	-0.309633	-0.966612	1.082456
C191	C	0.023700	-0.633279	1.415790
C192	C	0.357034	-0.299946	1.749123
C193	C	-0.225850	-1.056342	1.086333
C194	C	0.107484	-0.723009	1.419666
C195	C	0.440817	-0.389676	1.753000
C196	C	-0.222953	-1.059457	1.013117
C197	C	0.110381	-0.726124	1.346450
C198	C	0.443714	-0.392791	1.679783
C199	C	-0.263391	-1.016145	0.974572
C200	C	0.069943	-0.682812	1.307905
C201	C	0.403276	-0.349478	1.641239
C202	C	-0.298838	-0.978191	0.863110
C203	C	0.034495	-0.644858	1.196443
C204	C	0.367828	-0.311525	1.529777
C205	C	-0.260421	-1.019329	0.899734
C206	C	0.072913	-0.685996	1.233068
C207	C	0.406246	-0.352663	1.566401
H208	H	-0.339666	-0.269699	0.311013
H209	H	-0.006332	0.063634	0.644346
H210	H	0.327001	0.396967	0.977679
H211	H	-0.195409	-0.395702	0.479683
H212	H	0.137924	-0.062368	0.813016
H213	H	0.471257	0.270965	1.146349
H214	H	-0.359166	-0.735228	0.288135
H215	H	-0.025832	-0.401894	0.621468
H216	H	0.307501	-0.068561	0.954802
H217	H	-0.200275	-0.262865	0.474007
H218	H	0.133058	0.070468	0.807341
H219	H	0.466392	0.403801	1.140674
C220	C	-0.201950	-1.081986	0.642257
C221	C	0.131384	-0.748652	0.975590
C222	C	0.464717	-0.415319	1.308924
N223	N	-0.166033	-1.120448	0.613540
N224	N	0.167300	-0.787115	0.946873
N225	N	0.500634	-0.453781	1.280207
C226	C	-0.208045	-1.075441	0.795999
C227	C	0.125288	-0.742107	1.129333
C228	C	0.458621	-0.408774	1.462666
N229	N	-0.174537	-1.111326	0.827933
N230	N	0.158796	-0.777992	1.161266
N231	N	0.492129	-0.444659	1.494599
C232	C	-0.375392	-0.592467	0.269183
C233	C	-0.042059	-0.259134	0.602516
C234	C	0.291275	0.074199	0.935849
N235	N	-0.408333	-0.563693	0.230671
N236	N	-0.075000	-0.230359	0.564005
N237	N	0.258334	0.102974	0.897338
H238	H	-0.334794	-0.402526	0.316677
H239	H	-0.001461	-0.069193	0.650010
H240	H	0.331873	0.264141	0.983343
C241	C	-0.208416	-0.738318	0.464418
C242	C	0.124918	-0.404985	0.797751
C243	C	0.458251	-0.071651	1.131085
N244	N	-0.175470	-0.767084	0.502931
N245	N	0.157863	-0.433751	0.836264
N246	N	0.491196	-0.100418	1.169597
H247	H	-0.229735	-0.509041	0.439504
H248	H	0.103598	-0.175707	0.772838
H249	H	0.436931	0.157626	1.106171
C250	C	-0.918010	-0.900576	0.471174
C251	C	-0.584676	-0.567242	0.804507
C252	C	-0.251343	-0.233909	1.137841
N253	N	-0.893622	-0.861827	0.506717
N254	N	-0.560288	-0.528494	0.840050
N255	N	-0.226955	-0.195160	1.173383
H256	H	-0.329697	-0.489049	0.322631
H257	H	0.003636	-0.155716	0.655964
H258	H	0.336969	0.177618	0.989298
C259	C	-0.517172	-0.900407	0.471087
C260	C	-0.183838	-0.567074	0.804421
C261	C	0.149495	-0.233741	1.137754
N262	N	-0.492783	-0.861650	0.506620
N263	N	-0.159449	-0.528317	0.839953
N264	N	0.173884	-0.194984	1.173286
H265	H	-1.033235	-1.083712	0.303359
H266	H	-0.699902	-0.750378	0.636692
H267	H	-0.366569	-0.417045	0.970026
C268	C	-0.346509	-0.927125	0.901253
C269	C	-0.013176	-0.593792	1.234587
C270	C	0.320157	-0.260458	1.567920
N271	N	-0.382412	-0.888658	0.929985
N272	N	-0.049079	-0.555325	1.263318
N273	N	0.284254	-0.221992	1.596652
H274	H	-0.513136	-1.083487	0.303236
H275	H	-0.179802	-0.750154	0.636569
H276	H	0.153531	-0.416820	0.969902
H277	H	-0.632401	-1.083541	0.303266
H278	H	-0.299067	-0.750208	0.636600
H279	H	0.034266	-0.416875	0.969933
H280	H	-0.644855	-0.913819	0.458843
H281	H	-0.311522	-0.580485	0.792177
H282	H	0.021812	-0.247152	1.125510
H283	H	-0.224643	-0.595568	0.445462
H284	H	0.108690	-0.262235	0.778795
H285	H	0.442023	0.071098	1.112128
C286	C	-0.175267	-1.110517	0.974986
C287	C	0.158066	-0.777183	1.308319
C288	C	0.491399	-0.443850	1.641653
N289	N	-0.139349	-1.148975	0.946266
N290	N	0.193984	-0.815642	1.279599
N291	N	0.527318	-0.482308	1.612932
C292	C	-0.383983	-0.886999	0.787859
C293	C	-0.050649	-0.553666	1.121192
C294	C	0.282684	-0.220332	1.454525
N295	N	-0.419889	-0.848531	0.816584
N296	N	-0.086556	-0.515198	1.149917
N297	N	0.246778	-0.181865	1.483250
C298	C	-0.903597	-1.097025	0.291075
C299	C	-0.570264	-0.763691	0.624408
C300	C	-0.236931	-0.430358	0.957742
N301	N	-0.873524	-1.135778	0.255549
N302	N	-0.540190	-0.802444	0.588883
N303	N	-0.206857	-0.469111	0.922216
C304	C	-1.056063	-0.900616	0.471186
C305	C	-0.722729	-0.567283	0.804519
C306	C	-0.389396	-0.233949	1.137852
N307	N	-1.086142	-0.861872	0.506715
N308	N	-0.752809	-0.528538	0.840048
N309	N	-0.419475	-0.195205	1.173382
C310	C	-0.181364	-1.103974	1.128738
C311	C	0.151970	-0.770641	1.462071
C312	C	0.485303	-0.437307	1.795404
N313	N	-0.147852	-1.139848	1.160677
N314	N	0.185481	-0.806515	1.494010
N315	N	0.518815	-0.473182	1.827344
H316	H	-0.344929	-0.928809	1.110681
H317	H	-0.011595	-0.595475	1.444015
H318	H	0.321738	-0.262142	1.777348
C319	C	-0.377895	-0.893547	0.634105
C320	C	-0.044562	-0.560214	0.967439
C321	C	0.288772	-0.226881	1.300772
N322	N	-0.411403	-0.857664	0.602170
N323	N	-0.078069	-0.524330	0.935504
N324	N	0.255264	-0.190997	1.268837
H325	H	-0.339668	-0.934466	0.977862
H326	H	-0.006334	-0.601132	1.311195
H327	H	0.326999	-0.267799	1.644529
H328	H	-0.225129	-1.057122	0.871504
H329	H	0.108204	-0.723789	1.204837
H330	H	0.441537	-0.390456	1.538170
