data_functionalizedCrystal
_audit_creation_method	'MofGen! by Chris Wilmer'
_symmetry_space_group_name_H-M	'P1'
_symmetry_Int_Tables_number	1
_symmetry_cell_setting	triclinic
loop_
_symmetry_equiv_pos_as_xyz
  x,y,z
_cell_length_a	15.944486
_cell_length_b	15.021413
_cell_length_c	14.971486
_cell_angle_alpha	89.996188
_cell_angle_beta	96.456729
_cell_angle_gamma	89.989186
loop_
_atom_site_label
_atom_site_type_symbol
_atom_site_fract_x
_atom_site_fract_y
_atom_site_fract_z
O1	O	-1.114672	0.074105	0.115073
O2	O	-0.614672	0.574105	0.615073
O3	O	-0.870129	0.074091	0.129356
O4	O	-0.370129	0.574091	0.629356
O5	O	-0.998955	0.074092	-0.007994
O6	O	-0.498955	0.574092	0.492006
O7	O	-0.985846	0.074104	0.252424
O8	O	-0.485846	0.574104	0.752424
O9	O	-0.998934	-0.073973	-0.007974
O10	O	-0.498934	0.426027	0.492026
O11	O	-0.870108	-0.073974	0.129376
O12	O	-0.370108	0.426026	0.629376
O13	O	-1.114652	-0.073960	0.115093
O14	O	-0.614652	0.426040	0.615093
Zn15	Zn	-0.992377	-0.097475	0.122238
Zn16	Zn	-0.492377	0.402525	0.622238
Zn17	Zn	-0.992404	0.097606	0.122212
Zn18	Zn	-0.492404	0.597606	0.622212
O19	O	-0.985825	-0.073961	0.252443
O20	O	-0.485825	0.426039	0.752443
C21	C	-0.838823	0.000057	0.128783
C22	C	-0.338823	0.500057	0.628783
C23	C	-0.745572	0.000051	0.127036
C24	C	-0.245572	0.500051	0.627036
N25	N	-0.992364	-0.230613	0.122255
N26	N	-0.492364	0.269387	0.622255
C27	C	-0.454111	0.000063	0.206844
C28	C	0.045889	0.500063	0.706844
C29	C	-0.515111	0.073067	0.165353
C30	C	-0.015111	0.573067	0.665353
C31	C	-0.409928	0.000066	0.120689
C32	C	0.090072	0.500066	0.620689
C33	C	-0.515076	-0.072912	0.165349
C34	C	-0.015076	0.427088	0.665349
C35	C	-0.574841	0.000057	0.123812
C36	C	-0.074841	0.500057	0.623812
C37	C	-0.469700	0.073130	0.079174
C38	C	0.030300	0.573130	0.579174
C39	C	-0.469659	-0.072915	0.079182
C40	C	0.030341	0.427085	0.579182
C41	C	-0.530642	0.000107	0.037628
C42	C	-0.030642	0.500107	0.537628
C43	C	-0.314925	0.000072	0.118892
C44	C	0.185075	0.500072	0.618892
C45	C	-0.669842	0.000058	0.125602
C46	C	-0.169842	0.500058	0.625602
C47	C	-0.932786	-0.470296	0.185736
C48	C	-0.432786	0.029704	0.685736
C49	C	-1.008705	-0.529625	0.203082
C50	C	-0.508705	-0.029625	0.703082
C51	C	-0.992386	-0.412219	0.122232
C52	C	-0.492386	0.087781	0.622232
C53	C	-0.916487	-0.529632	0.104906
C54	C	-0.416487	-0.029632	0.604906
C55	C	-0.992400	-0.587644	0.122213
C56	C	-0.492400	-0.087644	0.622213
C57	C	-1.068343	-0.470242	0.139619
C58	C	-0.568343	0.029758	0.639619
C59	C	-0.976075	-0.470244	0.041408
C60	C	-0.476075	0.029756	0.541408
C61	C	-1.052049	-0.529546	0.058720
C62	C	-0.552049	-0.029546	0.558720
C63	C	-0.992377	-0.311162	0.122246
C64	C	-0.492377	0.188838	0.622246
C65	C	-0.992418	-0.688699	0.122199
C66	C	-0.492418	-0.188699	0.622199
C67	C	-0.145956	0.000072	0.115678
C68	C	0.354044	0.500072	0.615678
C69	C	-0.239202	0.000071	0.117462
C70	C	0.260798	0.500071	0.617462
C71	C	-0.998358	0.000060	-0.041308
C72	C	-0.498358	0.500060	0.458692
C73	C	-0.996601	0.000060	-0.140603
C74	C	-0.496601	0.500060	0.359397
N75	N	-0.992423	0.230744	0.122188
N76	N	-0.492423	0.730744	0.622188
C77	C	-1.072283	0.000064	-0.197928
C78	C	-0.572283	0.500064	0.302072
C79	C	-1.070628	0.000073	-0.291226
C80	C	-0.570628	0.500073	0.208774
C81	C	-0.993289	0.000072	-0.327195
C82	C	-0.493289	0.500072	0.172805
C83	C	-0.917601	0.000071	-0.269862
C84	C	-0.417601	0.500071	0.230138
C85	C	-0.919258	0.000068	-0.176567
C86	C	-0.419258	0.500068	0.323433
C87	C	-0.914154	0.000074	-0.464320
C88	C	-0.414154	0.500074	0.035680
C89	C	-0.912497	0.000075	-0.557622
C90	C	-0.412497	0.500075	-0.057622
C91	C	-1.065523	0.000079	-0.578979
C92	C	-0.565523	0.500079	-0.078979
C93	C	-1.067180	0.000076	-0.485684
C94	C	-0.567180	0.500076	0.014316
C95	C	-0.991492	0.000073	-0.428357
C96	C	-0.491492	0.500073	0.071643
C97	C	-0.986422	0.000073	0.285757
C98	C	-0.486422	0.500073	0.785757
C99	C	-0.988179	0.000078	0.385052
C100	C	-0.488179	0.500078	0.885052
H101	H	-0.535252	0.134786	0.201787
H102	H	-0.035252	0.634786	0.701787
O103	O	-0.410052	0.000156	0.301558
O104	O	0.089948	0.500156	0.801558
H105	H	-0.340697	-0.000471	0.299408
H106	H	0.159303	0.499529	0.799408
O107	O	-0.829081	0.000070	-0.596417
O108	O	-0.329081	0.500070	-0.096417
H109	H	-0.840648	0.000057	-0.670922
H110	H	-0.340648	0.500057	-0.170922
H111	H	-0.854631	0.000075	-0.299156
H112	H	-0.354631	0.500075	0.200844
O113	O	-1.153394	-0.435837	0.159124
O114	O	-0.653394	0.064163	0.659124
H115	H	-1.195662	-0.492902	0.168772
H116	H	-0.695662	0.007098	0.668772
O117	O	-1.152259	0.000063	-0.353051
O118	O	-0.652259	0.500063	0.146949
H119	H	-1.189285	0.060403	-0.340262
H120	H	-0.689285	0.560403	0.159738
O121	O	-0.443213	0.154980	0.030940
O122	O	0.056787	0.654980	0.530940
H123	H	-0.373703	0.154359	0.030031
H124	H	0.126297	0.654359	0.530031
O125	O	-0.832521	0.000063	-0.402484
O126	O	-0.332521	0.500063	0.097516
H127	H	-0.778464	0.000050	-0.443168
H128	H	-0.278464	0.500050	0.056832
H129	H	-0.563751	0.000143	-0.033940
H130	H	-0.063751	0.500143	0.466060
H131	H	-1.102512	-0.555398	0.005006
H132	H	-0.602512	-0.055398	0.505006
O133	O	-0.837631	0.000055	-0.114730
O134	O	-0.337631	0.500055	0.385270
H135	H	-0.783573	0.000044	-0.155414
H136	H	-0.283573	0.500044	0.344586
H137	H	-0.962244	-0.444140	-0.026913
H138	H	-0.462244	0.055860	0.473087
H139	H	-0.449499	-0.134639	0.042780
H140	H	0.050501	0.365361	0.542780
H141	H	-0.535178	-0.134628	0.201811
H142	H	-0.035178	0.365372	0.701811
H143	H	-1.127151	0.000084	-0.625659
H144	H	-0.627151	0.500084	-0.125659
O145	O	-0.866087	-0.435826	0.256917
O146	O	-0.366087	0.064174	0.756917
H147	H	-0.896327	-0.394152	0.305490
H148	H	-0.396327	0.105848	0.805490
O149	O	-1.026972	-0.564232	0.293596
O150	O	-0.526972	-0.064232	0.793596
H151	H	-0.977400	-0.540527	0.346202
H152	H	-0.477400	-0.040527	0.846202
H153	H	-1.135261	0.000060	-0.168650
H154	H	-0.635261	0.500060	0.331350
H155	H	-1.130156	0.000071	-0.456400
H156	H	-0.630156	0.500071	0.043600
O157	O	-0.831462	-0.564190	0.085493
O158	O	-0.331462	-0.064190	0.585493
H159	H	-0.782101	-0.540451	0.138306
H160	H	-0.282101	-0.040451	0.638306
