data_functionalizedCrystal
_audit_creation_method	'MofGen! by Chris Wilmer'
_symmetry_space_group_name_H-M	'P1'
_symmetry_Int_Tables_number	1
_symmetry_cell_setting	triclinic
loop_
_symmetry_equiv_pos_as_xyz
  x,y,z
_cell_length_a	10.723023
_cell_length_b	10.723023
_cell_length_c	16.776229
_cell_angle_alpha	89.994384
_cell_angle_beta	89.993342
_cell_angle_gamma	84.467548
loop_
_atom_site_label
_atom_site_type_symbol
_atom_site_fract_x
_atom_site_fract_y
_atom_site_fract_z
O1	O	1.657193	0.175026	-0.066278
O2	O	1.294041	0.191780	-0.066281
O3	O	1.483994	0.001827	-0.066276
O4	O	1.467240	0.364979	-0.066283
O5	O	1.483968	0.001814	0.066300
O6	O	1.294015	0.191768	0.066295
O7	O	1.657168	0.175014	0.066298
Zn8	Zn	1.475587	0.183389	0.087346
Zn9	Zn	1.475621	0.183405	-0.087329
O10	O	1.467214	0.364967	0.066293
C11	C	1.247528	0.190555	0.000006
C12	C	1.108974	0.186908	0.000005
C13	C	0.904019	0.181518	-0.068673
C14	C	1.047223	0.185288	-0.068674
C15	C	1.482762	-0.044679	0.000011
C16	C	1.479115	-0.183233	0.000008
C17	C	1.477502	-0.244993	-0.068671
C18	C	1.473732	-0.388196	-0.068676
C19	C	1.703680	0.176239	0.000009
C20	C	1.842234	0.179886	0.000005
C21	C	1.468446	0.411473	0.000004
C22	C	1.472093	0.550027	0.000002
N23	N	1.475573	0.183377	0.206557
N24	N	1.475645	0.183406	-0.206540
C25	C	1.559711	0.099301	0.248277
C26	C	1.559718	0.099300	0.331729
C27	C	1.475592	0.183382	0.373460
C28	C	1.391446	0.267463	0.331735
C29	C	1.391434	0.267457	0.248284
C30	C	1.391491	0.267488	0.668282
C31	C	1.391512	0.267490	0.751739
C32	C	1.559775	0.099331	0.751727
C33	C	1.559763	0.099325	0.668276
C34	C	1.475613	0.183400	0.626558
C35	C	1.475605	0.183399	0.536070
C36	C	1.475605	0.183391	0.463947
H37	H	0.895356	0.181274	0.058802
C38	C	1.652328	0.006836	0.797618
H39	H	1.640281	0.018867	0.853295
H40	H	1.735722	0.021150	0.783930
H41	H	1.638058	-0.076579	0.783948
C42	C	1.471857	-0.459935	-0.148111
H43	H	1.469560	-0.546771	-0.137693
H44	H	1.545064	-0.447546	-0.177825
H45	H	1.399766	-0.429759	-0.177820
H46	H	1.478907	-0.191849	-0.127467
C47	C	1.118992	0.187186	-0.148108
H48	H	1.205826	0.189463	-0.137687
H49	H	1.088826	0.259271	-0.177822
H50	H	1.106617	0.113973	-0.177816
H51	H	1.322975	0.335947	0.634322
C52	C	0.832270	0.179639	-0.148107
H53	H	0.745432	0.177361	-0.137686
H54	H	0.862444	0.107560	-0.177820
H55	H	0.844655	0.252858	-0.177816
C56	C	1.298911	0.359954	0.377637
H57	H	1.310977	0.347926	0.433313
H58	H	1.215512	0.345642	0.363976
H59	H	1.313180	0.443366	0.363948
H60	H	1.473486	-0.396870	0.058804
H61	H	1.322919	0.335919	0.214317
H62	H	1.477697	-0.236375	0.058804
H63	H	1.628221	0.030837	0.214304
H64	H	1.628228	0.030838	0.365696
C65	C	1.652297	0.006831	0.622376
H66	H	1.702400	-0.043252	0.659175
H67	H	1.704619	0.052190	0.589807
H68	H	1.606948	-0.045532	0.589836
H69	H	1.323002	0.335962	0.785715
H70	H	1.055847	0.185511	0.058806
