data_functionalizedCrystal
_audit_creation_method	'MofGen! by Chris Wilmer'
_symmetry_space_group_name_H-M	'P1'
_symmetry_Int_Tables_number	1
_symmetry_cell_setting	triclinic
loop_
_symmetry_equiv_pos_as_xyz
  x,y,z
_cell_length_a	16.974769
_cell_length_b	27.732048
_cell_length_c	26.210047
_cell_angle_alpha	89.996535
_cell_angle_beta	93.653471
_cell_angle_gamma	96.985238
loop_
_atom_site_label
_atom_site_type_symbol
_atom_site_fract_x
_atom_site_fract_y
_atom_site_fract_z
O1	O	-0.094073	0.641293	-0.046250
O2	O	-0.108378	0.500555	-0.046857
O3	O	0.013927	0.574854	-0.041792
O4	O	-0.216378	0.566994	-0.051316
O5	O	0.013908	0.574839	0.043065
O6	O	-0.108397	0.500540	0.038000
O7	O	-0.094092	0.641279	0.038607
Cu8	Cu	-0.101246	0.570908	0.046052
Cu9	Cu	-0.101224	0.570925	-0.054302
O10	O	-0.216397	0.566980	0.033542
C11	C	0.043372	0.574549	0.001854
C12	C	0.131139	0.573659	0.005479
C13	C	-0.108087	0.482540	-0.004418
C14	C	-0.107183	0.428881	-0.004386
C15	C	0.625162	0.568601	0.030833
C16	C	0.542697	0.569443	0.027428
C17	C	0.501467	0.569875	-0.020531
C18	C	0.542705	0.569461	-0.065088
C19	C	0.625168	0.568616	-0.061684
C20	C	0.254840	0.572400	-0.035674
C21	C	0.172372	0.573246	-0.039075
C22	C	0.172369	0.573227	0.053442
C23	C	0.254834	0.572385	0.056843
C24	C	0.296064	0.571968	0.012285
N25	N	0.417175	0.570737	-0.024012
N26	N	0.380354	0.571103	0.015766
C27	C	-0.173765	0.090322	-0.007118
C28	C	-0.170410	-0.111350	-0.006974
O29	O	-0.231294	-0.142371	-0.009470
N30	N	-0.097888	-0.130753	-0.003976
C31	C	-0.026200	-0.099734	-0.001010
O32	O	0.035561	-0.120865	0.001548
C33	C	-0.029556	0.101937	-0.001150
C34	C	-0.102082	0.121337	-0.004154
C35	C	-0.246285	0.109723	-0.010120
C36	C	-0.247123	0.160138	-0.010159
C37	C	-0.175441	0.191153	-0.007195
C38	C	-0.102920	0.171752	-0.004192
C39	C	0.042132	0.132955	0.001819
C40	C	0.041286	0.183376	0.001785
C41	C	-0.031240	0.202775	-0.001218
C42	C	-0.032075	0.253182	-0.001267
N43	N	-0.104597	0.272585	-0.004265
C44	C	-0.176280	0.241570	-0.007229
C45	C	-0.024443	-0.205615	-0.000938
C46	C	-0.023604	-0.256033	-0.000904
C47	C	-0.167814	-0.267645	-0.006867
C48	C	-0.168653	-0.217227	-0.006905
C49	C	-0.096965	-0.186212	-0.003936
C50	C	-0.178034	0.347446	-0.007310
C51	C	-0.178866	0.397866	-0.007350
C52	C	-0.034656	0.409474	-0.001385
C53	C	-0.033824	0.359059	-0.001347
C54	C	-0.105520	0.328045	-0.004308
O55	O	0.028776	0.284232	0.001233
O56	O	-0.238032	0.262711	-0.009776
C57	C	-0.172927	0.039907	-0.007079
C58	C	-0.100406	0.020507	-0.004076
C59	C	-0.028724	0.051522	-0.001112
C60	C	-0.099567	-0.029911	-0.004042
C61	C	-0.171250	-0.060926	-0.007006
C62	C	-0.243772	-0.041523	-0.010004
C63	C	-0.244610	0.008892	-0.010043
C64	C	0.043798	0.032119	0.001886
C65	C	0.044630	-0.018297	0.001923
C66	C	-0.027052	-0.049312	-0.001041
C67	C	0.754159	0.567288	-0.010102
C68	C	0.666394	0.568189	-0.013722
C69	C	-0.094382	0.659294	-0.003833
C70	C	-0.095287	0.712952	-0.003868
N71	N	-0.101262	0.570900	0.116635
N72	N	-0.101202	0.570938	-0.124885
C73	C	-0.047079	0.603821	0.471393
C74	C	-0.047068	0.603832	0.685052
O75	O	-0.001004	0.631804	0.714582
N76	N	-0.101206	0.570928	0.709531
C77	C	-0.155348	0.538017	0.680592
O78	O	-0.201390	0.510026	0.706316
C79	C	-0.155354	0.538004	0.466934
C80	C	-0.101218	0.570914	0.442458
C81	C	0.007053	0.636728	0.446916
C82	C	0.007047	0.636727	0.393504
C83	C	-0.047092	0.603819	0.364569
C84	C	-0.101224	0.570912	0.389046
C85	C	-0.209491	0.505091	0.437997
C86	C	-0.209487	0.505090	0.384579
C87	C	-0.155350	0.537999	0.360103
C88	C	-0.155369	0.538003	0.306700
N89	N	-0.101231	0.570908	0.282220
C90	C	-0.047092	0.603815	0.311155
C91	C	-0.155341	0.538026	0.792766
C92	C	-0.155341	0.538030	0.846180
C93	C	-0.047060	0.603845	0.850636
C94	C	-0.047065	0.603843	0.797221
C95	C	-0.101203	0.570930	0.768287
C96	C	-0.047110	0.603811	0.198987
C97	C	-0.047123	0.603808	0.145570
C98	C	-0.155400	0.537991	0.141119
C99	C	-0.155390	0.537996	0.194531
C100	C	-0.101238	0.570907	0.223464
O101	O	-0.201403	0.510042	0.277138
O102	O	-0.001045	0.631794	0.285422
C103	C	-0.047073	0.603823	0.524805
C104	C	-0.101206	0.570916	0.549281
C105	C	-0.155344	0.538008	0.520346
C106	C	-0.101205	0.570920	0.602696
C107	C	-0.047066	0.603828	0.631630
C108	C	0.007072	0.636732	0.607151
C109	C	0.007066	0.636730	0.553740
C110	C	-0.209482	0.505104	0.544826
C111	C	-0.209472	0.505108	0.598237
C112	C	-0.155334	0.538016	0.627172
H113	H	0.658726	0.568251	0.069886
H114	H	-0.199432	0.511237	0.866105
C115	C	-0.258649	0.419206	-0.010651
C116	C	-0.279053	0.452269	-0.055561
C117	C	-0.358833	0.473607	-0.058859
C118	C	-0.418208	0.461882	-0.017248
C119	C	-0.397805	0.428818	0.027666
C120	C	-0.318025	0.407480	0.030964
H121	H	-0.235099	0.460950	-0.086367
H122	H	-0.373937	0.498084	-0.092107
H123	H	-0.477266	0.477678	-0.019689
H124	H	-0.441759	0.420137	0.058472
H125	H	-0.302922	0.383003	0.064212
C126	C	-0.324392	0.030227	-0.013341
C127	C	-0.344816	0.063284	0.029880
C128	C	-0.424603	0.084614	0.026584
C129	C	-0.483966	0.072886	-0.019932
C130	C	-0.463543	0.039827	-0.063156
C131	C	-0.383756	0.018497	-0.059860
H132	H	-0.300870	0.071968	0.064317
H133	H	-0.439721	0.109087	0.058582
H134	H	-0.543029	0.088675	-0.022372
H135	H	-0.507489	0.031143	-0.097593
H136	H	-0.368638	-0.005976	-0.091858
C137	C	0.066605	0.672923	0.366583
C138	C	0.156637	0.672174	0.377648
C139	C	0.216201	0.708370	0.350730
C140	C	0.185733	0.745315	0.312748
C141	C	0.095696	0.746065	0.301682
C142	C	0.036133	0.709869	0.328599
H143	H	0.179196	0.644824	0.405766
H144	H	0.282853	0.707815	0.358923
H145	H	0.229826	0.772109	0.292822
H146	H	0.073138	0.773415	0.273564
H147	H	-0.030519	0.710425	0.320407
H148	H	0.138804	0.573598	-0.078131
H149	H	0.288400	0.572065	-0.071956
H150	H	-0.227710	-0.201435	-0.009348
H151	H	0.103694	-0.034087	0.004365
C152	C	0.044191	0.443598	0.001877
C153	C	0.063419	0.479853	0.046738
C154	C	0.142267	0.513978	0.050004
C155	C	0.201885	0.511848	0.008409
C156	C	0.182659	0.475591	-0.036455
C157	C	0.103811	0.441466	-0.039721
H158	H	0.019285	0.481431	0.077533
H159	H	0.156499	0.540818	0.083216
H160	H	0.260253	0.537109	0.010827
H161	H	0.226793	0.474013	-0.067250
H162	H	0.089579	0.414626	-0.072933
C163	C	0.056177	-0.277369	0.002393
C164	C	0.115533	-0.265645	0.048913
C165	C	0.195317	-0.286978	0.052214
C166	C	0.215744	-0.320035	0.008994
C167	C	0.156386	-0.331761	-0.037530
C168	C	0.076603	-0.310428	-0.040830
H169	H	0.100413	-0.241172	0.080910
H170	H	0.239257	-0.278298	0.086654
H171	H	0.274805	-0.335828	0.011437
H172	H	0.171507	-0.356234	-0.069527
H173	H	0.032662	-0.319108	-0.075270
C174	C	-0.256899	0.313337	-0.010571
C175	C	-0.276182	0.277078	0.032696
C176	C	-0.355046	0.242969	0.029431
C177	C	-0.414627	0.245119	-0.017102
C178	C	-0.395346	0.281379	-0.060373
C179	C	-0.316482	0.315488	-0.057107
H180	H	-0.232074	0.275486	0.067146
H181	H	-0.369318	0.216127	0.061463
H182	H	-0.473007	0.219870	-0.019519
H183	H	-0.439453	0.282972	-0.094822
H184	H	-0.302209	0.342330	-0.089139
H185	H	0.509129	0.569810	-0.104138
C186	C	-0.269037	0.468887	0.464914
C187	C	-0.268314	0.413849	0.457598
C188	C	-0.327862	0.377642	0.484515
C189	C	-0.388132	0.396472	0.518747
C190	C	-0.388857	0.451512	0.526064
C191	C	-0.329310	0.487719	0.499148
H192	H	-0.223696	0.399908	0.432256
H193	H	-0.327324	0.336898	0.479098
H194	H	-0.432213	0.369669	0.538672
H195	H	-0.433475	0.465453	0.551407
H196	H	-0.329847	0.528464	0.504565
H197	H	-0.003038	0.630608	0.125643
C198	C	0.127012	0.573679	0.102453
C199	C	0.128849	0.531600	0.140681
C200	C	0.083491	0.532049	0.189693
C201	C	0.036297	0.574578	0.200478
C202	C	0.034459	0.616660	0.162249
C203	C	0.079816	0.616211	0.113236
H204	H	0.163786	0.500114	0.132698
H205	H	0.084853	0.500896	0.217993
H206	H	0.002721	0.574910	0.236760
H207	H	-0.000479	0.648146	0.170232
H208	H	0.078455	0.647364	0.084937
H209	H	-0.199429	0.511224	0.769211
C210	C	0.300183	0.571906	0.109598
C211	C	0.390889	0.570978	0.113345
C212	C	0.436240	0.570501	0.166101
C213	C	0.390885	0.570953	0.215111
C214	C	0.300174	0.571881	0.211367
C215	C	0.254823	0.572358	0.158611
H216	H	0.424469	0.570644	0.077063
H217	H	0.503390	0.569814	0.168872
H218	H	0.424456	0.570600	0.254165
H219	H	0.266594	0.572215	0.247649
H220	H	0.187673	0.573045	0.155839
C221	C	-0.246668	-0.301767	-0.010124
C222	C	-0.265914	-0.338026	-0.054981
C223	C	-0.344763	-0.372150	-0.058232
C224	C	-0.404365	-0.370014	-0.016628
C225	C	-0.385120	-0.333754	0.028232
C226	C	-0.306271	-0.299630	0.031484
H227	H	-0.221792	-0.339608	-0.085782
H228	H	-0.359009	-0.398992	-0.091441
H229	H	-0.462733	-0.395275	-0.019035
H230	H	-0.429242	-0.332172	0.059033
H231	H	-0.292025	-0.272788	0.064692
C232	C	0.670528	0.568163	-0.110693
C233	C	0.668701	0.610241	-0.148925
C234	C	0.714060	0.609785	-0.197936
C235	C	0.761248	0.567252	-0.208716
C236	C	0.763077	0.525171	-0.170484
C237	C	0.717718	0.525627	-0.121473
H238	H	0.633768	0.641729	-0.140945
H239	H	0.712706	0.640936	-0.226238
H240	H	0.794825	0.566915	-0.244997
H241	H	0.798010	0.493683	-0.178463
H242	H	0.719072	0.494476	-0.093171
C243	C	0.012490	0.640041	0.770300
C244	C	0.102523	0.639298	0.781365
C245	C	0.162083	0.675496	0.754447
C246	C	0.131610	0.712438	0.716464
C247	C	0.041572	0.713183	0.705397
C248	C	-0.017988	0.676984	0.732314
H249	H	0.125086	0.611950	0.809484
H250	H	0.228735	0.674945	0.762641
H251	H	0.175699	0.739235	0.696538
H252	H	0.019010	0.740531	0.677278
H253	H	-0.084640	0.677536	0.724121
H254	H	0.509130	0.569786	0.063709
C255	C	0.122654	0.066232	0.005143
C256	C	0.141921	0.102488	-0.038128
C257	C	0.220782	0.136600	-0.034874
C258	C	0.280377	0.134455	0.011653
C259	C	0.261112	0.098197	0.054928
C260	C	0.182251	0.064085	0.051673
H261	H	0.097803	0.104078	-0.072573
H262	H	0.235043	0.163440	-0.066909
H263	H	0.338755	0.159706	0.014062
H264	H	0.305229	0.096607	0.089372
H265	H	0.167990	0.037245	0.083709
H266	H	-0.302138	-0.066784	-0.012420
C267	C	0.066621	0.672929	0.526820
C268	C	0.156654	0.672184	0.537883
C269	C	0.216215	0.708383	0.510967
C270	C	0.185742	0.745329	0.472988
C271	C	0.095704	0.746075	0.461922
C272	C	0.036144	0.709876	0.488838
H273	H	0.179216	0.644833	0.566000
H274	H	0.282866	0.707830	0.519159
H275	H	0.229832	0.772126	0.453063
H276	H	0.073143	0.773426	0.433805
H277	H	-0.030508	0.710429	0.480646
C278	C	-0.214945	0.501797	0.221456
C279	C	-0.214237	0.446759	0.214139
C280	C	-0.273787	0.410556	0.241059
C281	C	-0.334046	0.429392	0.275296
C282	C	-0.334757	0.484433	0.282615
C283	C	-0.275206	0.520636	0.255695
H284	H	-0.169627	0.432813	0.188793
H285	H	-0.273261	0.369811	0.235641
H286	H	-0.378129	0.402593	0.295224
H287	H	-0.379366	0.498379	0.307961
H288	H	-0.275733	0.561381	0.261113
H289	H	-0.306182	0.175928	-0.012605
C290	C	0.120146	0.217491	0.005049
C291	C	0.179733	0.215346	0.051580
C292	C	0.258591	0.249461	0.054842
C293	C	0.277862	0.285720	0.011573
C294	C	0.218274	0.287867	-0.034961
C295	C	0.139416	0.253752	-0.038223
H296	H	0.165469	0.188503	0.083612
H297	H	0.302703	0.247871	0.089289
H298	H	0.336238	0.310974	0.013988
H299	H	0.232538	0.314709	-0.066994
H300	H	0.095304	0.255341	-0.072671
H301	H	-0.253572	0.478287	0.361023
C302	C	0.054421	-0.171504	0.002321
C303	C	0.114016	-0.173655	0.048847
C304	C	0.192881	-0.139547	0.052103
C305	C	0.212151	-0.103288	0.008834
C306	C	0.152554	-0.101135	-0.037695
C307	C	0.073689	-0.135243	-0.040951
H308	H	0.099753	-0.200498	0.080880
H309	H	0.236999	-0.141141	0.086547
H310	H	0.270532	-0.078039	0.011245
H311	H	0.166817	-0.074292	-0.069728
H312	H	0.029572	-0.133649	-0.075395
C313	C	-0.269027	0.468905	0.625158
C314	C	-0.268309	0.413867	0.617842
C315	C	-0.327856	0.377661	0.644762
C316	C	-0.388120	0.396493	0.678998
C317	C	-0.388840	0.451534	0.686315
C318	C	-0.329294	0.487739	0.659396
H319	H	-0.223696	0.399924	0.592498
H320	H	-0.327323	0.336917	0.639344
H321	H	-0.432200	0.369692	0.698925
H322	H	-0.433454	0.465477	0.711660
H323	H	-0.329827	0.528484	0.664813
H324	H	-0.304661	0.084475	-0.012532
H325	H	0.101190	0.117169	0.004265
H326	H	0.025233	0.343263	0.001091
H327	H	-0.003013	0.630610	0.222538
H328	H	0.051143	0.663525	0.470471
H329	H	-0.002979	0.630640	0.874204
H330	H	-0.199482	0.511199	0.117551
H331	H	0.051151	0.663528	0.630719
H332	H	-0.253568	0.478306	0.521271
