data_functionalizedCrystal
_audit_creation_method	'MofGen! by Chris Wilmer'
_symmetry_space_group_name_H-M	'P1'
_symmetry_Int_Tables_number	1
_symmetry_cell_setting	triclinic
loop_
_symmetry_equiv_pos_as_xyz
  x,y,z
_cell_length_a	17.640112
_cell_length_b	12.594516
_cell_length_c	17.640968
_cell_angle_alpha	101.227826
_cell_angle_beta	87.860920
_cell_angle_gamma	101.240082
loop_
_atom_site_label
_atom_site_type_symbol
_atom_site_fract_x
_atom_site_fract_y
_atom_site_fract_z
Zn1	Zn	1.247781	-0.030581	0.195081
Zn2	Zn	1.222032	-0.250168	0.068109
Zn3	Zn	1.095120	-0.099815	0.093731
Zn4	Zn	1.120772	-0.236158	0.220690
O5	O	1.171426	-0.154181	0.144403
O6	O	1.350633	-0.036598	0.156798
O7	O	1.183686	-0.265062	-0.034764
O8	O	1.115411	0.058327	0.107180
O9	O	1.331715	-0.197928	0.063512
O10	O	1.227571	0.109193	0.181642
O11	O	1.090444	-0.154598	-0.015940
O12	O	0.992255	-0.141013	0.132012
O13	O	1.159131	-0.174050	0.323565
O14	O	1.011102	-0.241184	0.225289
O15	O	1.252445	-0.023013	0.304750
O16	O	1.208559	-0.397268	0.088344
O17	O	1.134164	-0.386975	0.200445
C18	C	0.974125	-0.197091	0.184210
C19	C	0.889722	-0.215468	0.201258
C20	C	0.563040	-0.014551	0.014899
C21	C	0.483733	-0.031838	0.030928
C22	C	0.503379	-0.136388	0.127890
C23	C	0.582690	-0.119106	0.111871
C24	C	0.612514	-0.058188	0.055374
C25	C	0.632163	-0.162742	0.152347
C26	C	0.711466	-0.145466	0.136326
C27	C	0.741296	-0.084554	0.079830
C28	C	0.691817	-0.040912	0.039354
C29	C	0.602336	-0.223666	0.208839
C30	C	0.651810	-0.267303	0.249315
C31	C	0.731115	-0.250020	0.233299
C32	C	0.760946	-0.189108	0.176803
C33	C	0.780595	-0.293662	0.273775
C34	C	0.859898	-0.276386	0.257755
C35	C	0.840249	-0.171832	0.160783
C36	C	1.171375	-0.430735	0.144405
C37	C	1.171428	-0.549023	0.144418
C38	C	1.130952	-0.612729	0.205355
C39	C	1.098441	-0.710300	0.139790
C40	C	1.204011	-0.662232	0.209981
C41	C	1.138872	-0.645055	0.078824
C42	C	1.244484	-0.596959	0.149055
C43	C	1.211989	-0.694508	0.083437
C44	C	1.369498	-0.111103	0.104440
C45	C	1.453905	-0.092746	0.087411
C46	C	1.211522	-0.089246	0.342483
C47	C	1.228608	-0.061575	0.426893
C48	C	1.171502	0.123463	0.144413
C49	C	1.171534	0.241779	0.144417
C50	C	1.131531	-0.218777	-0.052915
C51	C	1.114592	-0.246116	-0.137354
C52	C	1.041915	-0.363754	0.753480
C53	C	1.057987	-0.337736	0.832792
C54	C	1.155145	-0.180474	0.813192
C55	C	1.139080	-0.206477	0.733876
C56	C	1.082465	-0.298118	0.704027
C57	C	1.179629	-0.140841	0.684423
C58	C	1.163567	-0.166845	0.605114
C59	C	1.106956	-0.258484	0.575258
C60	C	1.066403	-0.324122	0.624718
C61	C	1.236247	-0.049204	0.714274
C62	C	1.276797	0.016432	0.664821
C63	C	1.260731	-0.009567	0.585511
C64	C	1.204120	-0.101207	0.555655
C65	C	1.301285	0.056071	0.536051
C66	C	1.285223	0.030067	0.456742
C67	C	1.188059	-0.127210	0.476346
H68	H	0.756298	-0.343271	0.319769
H69	H	0.900181	-0.311918	0.290715
H70	H	0.479084	-0.185991	0.173887
O71	O	1.105853	-0.635334	0.012690
C72	C	0.991764	-0.683430	-0.067179
C73	C	1.029071	-0.694553	0.007729
H74	H	0.929675	-0.731280	-0.071206
H75	H	1.025980	-0.717995	-0.119137
H76	H	0.992006	-0.592699	-0.066624
H77	H	1.028836	-0.785259	0.007250
H78	H	0.994844	-0.659918	0.059654
O79	O	1.011505	-0.413275	0.595721
C80	C	0.969692	-0.610315	0.578902
C81	C	1.031915	-0.509447	0.611771
H82	H	0.986163	-0.688092	0.591881
H83	H	0.965198	-0.617707	0.513713
H84	H	0.911614	-0.599803	0.606829
H85	H	1.090027	-0.519887	0.583905
H86	H	1.036342	-0.502086	0.676963
H87	H	0.805870	-0.070492	0.066786
O88	O	1.090137	-0.570033	0.266842
C89	C	1.092540	-0.433812	0.383875
C90	C	1.138859	-0.482075	0.314295
H91	H	1.131908	-0.362675	0.422252
H92	H	1.068881	-0.500600	0.418526
H93	H	1.042517	-0.402386	0.362326
H94	H	1.188917	-0.513494	0.335778
H95	H	1.162461	-0.415251	0.279659
O96	O	0.592099	0.044486	-0.040035
C97	C	0.660831	0.044892	-0.160648
C98	C	0.627973	-0.022077	-0.098488
H99	H	0.689829	-0.008903	-0.207931
H100	H	0.705086	0.119987	-0.133265
H101	H	0.611847	0.073157	-0.186790
H102	H	0.676905	-0.050419	-0.072323
H103	H	0.583698	-0.097119	-0.125911
H104	H	0.443454	0.003710	-0.002031
H105	H	0.716104	0.008713	-0.006640
H106	H	0.995796	-0.438357	0.729178
O107	O	1.252763	-0.737081	0.021875
C108	C	1.250573	-0.874171	-0.094660
C109	C	1.204319	-0.826076	-0.024969
H110	H	1.211422	-0.946116	-0.132561
H111	H	1.301264	-0.904359	-0.073294
H112	H	1.273271	-0.807579	-0.129750
H113	H	1.181570	-0.892610	0.010150
H114	H	1.153668	-0.795859	-0.046386
H115	H	1.306209	-0.547846	0.153008
H116	H	1.249325	-0.028037	0.778852
H117	H	1.231525	-0.670666	0.265426
H118	H	0.537762	-0.237731	0.221881
O119	O	1.018682	-0.401404	0.880936
C120	C	1.000318	-0.430998	1.011812
C121	C	1.044900	-0.358821	0.957374
H122	H	1.021487	-0.396584	1.073626
H123	H	1.010482	-0.519050	0.993586
H124	H	0.935934	-0.430753	1.008527
H125	H	1.109298	-0.358974	0.960632
H126	H	1.034672	-0.270804	0.975617
H127	H	1.141939	-0.201813	0.452045
O128	O	1.210239	-0.091556	0.842135
C129	C	1.344325	-0.003791	0.840290
C130	C	1.282014	-0.104569	0.807464
H131	H	1.402366	-0.014266	0.812261
H132	H	1.348910	0.003537	0.905465
H133	H	1.327810	0.074012	0.827408
H134	H	1.298483	-0.182429	0.820289
H135	H	1.277441	-0.111799	0.742298
H136	H	0.627515	-0.316906	0.295312
H137	H	1.093883	-0.279658	0.510678
O138	O	1.331687	0.105550	0.693877
C139	C	1.360079	0.280811	0.781398
C140	C	1.297837	0.179957	0.748546
H141	H	1.332738	0.340985	0.825616
H142	H	1.386294	0.323345	0.732465
H143	H	1.407303	0.252721	0.810474
H144	H	1.250567	0.207954	0.719478
H145	H	1.271683	0.137445	0.797509
H146	H	1.036709	-0.759408	0.135873
H147	H	1.347386	0.130679	0.560366
O148	O	1.324656	0.093969	0.408812
C149	C	1.422755	0.252672	0.397724
C150	C	1.378139	0.180415	0.452095
H151	H	1.466017	0.322566	0.432694
H152	H	1.380425	0.288656	0.367645
H153	H	1.454892	0.200230	0.352564
H154	H	1.345999	0.232783	0.497298
H155	H	1.420507	0.144422	0.482116
H156	H	0.864535	-0.122207	0.114788
