data_functionalizedCrystal
_audit_creation_method	'MofGen! by Chris Wilmer'
_symmetry_space_group_name_H-M	'P1'
_symmetry_Int_Tables_number	1
_symmetry_cell_setting	triclinic
loop_
_symmetry_equiv_pos_as_xyz
  x,y,z
_cell_length_a	15.995350
_cell_length_b	14.853567
_cell_length_c	13.330367
_cell_angle_alpha	89.999156
_cell_angle_beta	89.996093
_cell_angle_gamma	83.563652
loop_
_atom_site_label
_atom_site_type_symbol
_atom_site_fract_x
_atom_site_fract_y
_atom_site_fract_z
O1	O	-1.111124	-0.116206	0.083330
O2	O	-0.611124	0.383794	0.583330
O3	O	-0.867366	-0.130556	0.083350
O4	O	-0.367366	0.369444	0.583350
O5	O	-0.995756	0.007858	0.083342
O6	O	-0.495756	0.507858	0.583342
O7	O	-0.982734	-0.254619	0.083337
O8	O	-0.482734	0.245381	0.583337
O9	O	-0.995738	0.007861	-0.083505
O10	O	-0.495738	0.507861	0.416495
O11	O	-0.867347	-0.130553	-0.083498
O12	O	-0.367347	0.369447	0.416502
O13	O	-1.111106	-0.116203	-0.083517
O14	O	-0.611106	0.383797	0.416483
Cu15	Cu	-0.989225	-0.123377	-0.098742
Cu16	Cu	-0.489225	0.376623	0.401258
Cu17	Cu	-0.989247	-0.123381	0.098574
Cu18	Cu	-0.489247	0.376619	0.598574
O19	O	-0.982715	-0.254616	-0.083510
O20	O	-0.482715	0.245384	0.416490
C21	C	-0.995157	0.041447	-0.000078
C22	C	-0.495157	0.541447	0.499922
C23	C	-0.993389	0.141528	-0.000069
C24	C	-0.493389	0.641528	0.499931
C25	C	-0.836161	-0.129961	-0.000071
C26	C	-0.336161	0.370039	0.499929
C27	C	-0.743209	-0.128182	-0.000064
C28	C	-0.243209	0.371818	0.499936
C29	C	-1.142311	-0.116798	-0.000094
C30	C	-0.642311	0.383202	0.499906
C31	C	-1.235263	-0.118576	-0.000095
C32	C	-0.735263	0.381424	0.499905
C33	C	-0.405454	-0.121795	-0.000084
C34	C	0.094546	0.378205	0.499916
C35	C	-0.452773	-0.023220	-0.000455
C36	C	0.047227	0.476780	0.499545
C37	C	-0.549465	-0.024999	-0.000072
C38	C	-0.049465	0.475001	0.499928
C39	C	-0.573018	-0.124963	-0.000075
C40	C	-0.073018	0.375037	0.499925
C41	C	-0.531998	-0.173586	0.095198
C42	C	-0.031998	0.326414	0.595198
C43	C	-0.435359	-0.171110	0.095271
C44	C	0.064641	0.328890	0.595271
C45	C	-0.435002	-0.173143	-0.094465
C46	C	0.064998	0.326857	0.405535
C47	C	-0.531947	-0.173119	-0.095717
C48	C	-0.031947	0.326881	0.404283
C49	C	-0.667717	-0.126759	-0.000066
C50	C	-0.167717	0.373241	0.499934
C51	C	-0.310754	-0.120002	-0.000086
C52	C	0.189246	0.379998	0.499914
C53	C	-0.983315	-0.288206	-0.000087
C54	C	-0.483315	0.211794	0.499913
C55	C	-0.985083	-0.388287	-0.000089
C56	C	-0.485083	0.111713	0.499911
N57	N	-0.989215	-0.123374	-0.237523
N58	N	-0.489215	0.376626	0.262477
C59	C	-0.909648	0.553949	-0.000082
C60	C	-0.409648	1.053949	0.499918
C61	C	-1.062178	0.575436	-0.000094
C62	C	-0.562178	1.075436	0.499906
C63	C	-1.063841	0.481405	-0.000088
C64	C	-0.563841	0.981405	0.499912
C65	C	-0.988406	0.423641	-0.000081
C66	C	-0.488406	0.923641	0.499919
C67	C	-0.911308	0.459909	-0.000079
C68	C	-0.411308	0.959909	0.499921
C69	C	-1.140937	0.445129	-0.000100
C70	C	-0.640937	0.945129	0.499900
C71	C	-1.142603	0.351093	-0.000096
C72	C	-0.642603	0.851093	0.499904
C73	C	-1.067167	0.293327	-0.000081
C74	C	-0.567167	0.793327	0.499919
C75	C	-0.990066	0.329600	-0.000078
C76	C	-0.490066	0.829600	0.499922
C77	C	-0.914631	0.271837	-0.000071
C78	C	-0.414631	0.771837	0.499929
C79	C	-0.837529	0.308108	-0.000061
C80	C	-0.337529	0.808108	0.499939
C81	C	-0.835872	0.402144	-0.000064
C82	C	-0.335872	0.902144	0.499936
C83	C	-1.068824	0.199292	-0.000077
C84	C	-0.568824	0.699292	0.499923
C85	C	-0.916291	0.177796	-0.000068
C86	C	-0.416291	0.677796	0.499932
C87	C	-0.932393	-0.184646	-0.710143
C88	C	-0.432393	0.315354	-0.210143
C89	C	-1.046123	-0.062109	-0.710117
C90	C	-0.546123	0.437891	-0.210117
C91	C	-1.046114	-0.062106	-0.605099
C92	C	-0.546114	0.437894	-0.105099
C93	C	-0.989244	-0.123375	-0.552598
C94	C	-0.489244	0.376625	-0.052598
C95	C	-0.932384	-0.184647	-0.605115
C96	C	-0.432384	0.315353	-0.105115
C97	C	-1.102979	-0.000841	-0.552574
C98	C	-0.602979	0.499159	-0.052574
C99	C	-1.102972	-0.000836	-0.447549
C100	C	-0.602972	0.499164	0.052451
C101	C	-1.046098	-0.062102	-0.395046
C102	C	-0.546098	0.437898	0.104954
C103	C	-0.989234	-0.123376	-0.447570
C104	C	-0.489234	0.376624	0.052430
C105	C	-0.932365	-0.184646	-0.395068
C106	C	-0.432365	0.315354	0.104932
C107	C	-0.875497	-0.245916	-0.447590
C108	C	-0.375497	0.254084	0.052410
C109	C	-0.875509	-0.245913	-0.552612
C110	C	-0.375509	0.254087	-0.052612
C111	C	-1.046085	-0.062105	-0.290025
C112	C	-0.546085	0.437895	0.209975
C113	C	-0.932355	-0.184647	-0.290040
C114	C	-0.432355	0.315353	0.209960
N115	N	-0.989263	-0.123377	0.237356
N116	N	-0.489263	0.376623	0.737356
H117	H	-0.577842	0.013221	-0.068367
H118	H	-0.077842	0.513221	0.431633
Br119	Br	-1.123264	0.021033	-0.218752
Br120	Br	-0.623264	0.521033	0.281248
H121	H	-0.846873	0.583486	-0.000070
H122	H	-0.346873	1.083486	0.499930
Br123	Br	-1.164550	0.653829	-0.000126
Br124	Br	-0.664550	1.153829	0.499874
H125	H	-1.131599	0.169764	-0.000092
H126	H	-0.631599	0.669764	0.499908
Br127	Br	-1.243307	0.523525	-0.000138
Br128	Br	-0.743307	1.023525	0.499862
H129	H	-0.886041	-0.234537	-0.247300
H130	H	-0.386041	0.265463	0.252700
Br131	Br	-1.247238	0.301875	-0.000094
Br132	Br	-0.747238	0.801875	0.499906
H133	H	-1.149285	0.049039	-0.595324
H134	H	-0.649285	0.549039	-0.095324
Br135	Br	-0.555707	-0.295985	0.101128
Br136	Br	-0.055707	0.204015	0.601128
H137	H	-1.149276	0.049054	-0.404793
H138	H	-0.649276	0.549054	0.095207
H139	H	-0.434198	0.016185	-0.068778
H140	H	0.065802	0.516185	0.431222
Br141	Br	-0.798327	-0.329073	-0.376327
Br142	Br	-0.298327	0.170927	0.123673
H143	H	-0.829210	-0.295798	-0.595381
H144	H	-0.329210	0.204202	-0.095381
H145	H	-0.773099	0.431685	-0.000057
H146	H	-0.273099	0.931685	0.499943
Br147	Br	-0.813909	0.099409	-0.000046
Br148	Br	-0.313909	0.599409	0.499954
H149	H	-1.092429	-0.012229	-0.752867
H150	H	-0.592429	0.487771	-0.252867
Br151	Br	-0.420047	0.042160	0.112788
Br152	Br	0.079953	0.542160	0.612788
Br153	Br	-0.404784	-0.112017	0.213977
Br154	Br	0.095216	0.387983	0.713977
Br155	Br	-0.595808	0.038843	0.114160
Br156	Br	-0.095808	0.538843	0.614160
Br157	Br	-0.381746	-0.291731	0.102474
Br158	Br	0.118254	0.208269	0.602474
Br159	Br	-0.557689	-0.294625	-0.105314
Br160	Br	-0.057689	0.205375	0.394686
Br161	Br	-0.400704	-0.119425	-0.214830
Br162	Br	0.099296	0.380575	0.285170
Br163	Br	-0.579234	-0.117306	0.213384
Br164	Br	-0.079234	0.382694	0.713384
Br165	Br	-0.577277	-0.113859	-0.213194
Br166	Br	-0.077277	0.386141	0.286806
H167	H	-0.886090	-0.234530	-0.752909
H168	H	-0.386090	0.265470	-0.252909
Br169	Br	-0.382208	-0.294279	-0.095543
Br170	Br	0.117792	0.205721	0.404457
H171	H	-0.776110	0.261065	-0.000061
H172	H	-0.276110	0.761065	0.499939
