data_functionalizedCrystal
_audit_creation_method	'MofGen! by Chris Wilmer'
_symmetry_space_group_name_H-M	'P1'
_symmetry_Int_Tables_number	1
_symmetry_cell_setting	triclinic
loop_
_symmetry_equiv_pos_as_xyz
  x,y,z
_cell_length_a	12.759401
_cell_length_b	25.639239
_cell_length_c	12.759393
_cell_angle_alpha	90.037607
_cell_angle_beta	90.018567
_cell_angle_gamma	90.038328
loop_
_atom_site_label
_atom_site_type_symbol
_atom_site_fract_x
_atom_site_fract_y
_atom_site_fract_z
Zn1	Zn	1.606076	-0.208133	0.593939
Zn2	Zn	1.605895	-0.295580	0.418241
Zn3	Zn	1.430378	-0.208159	0.418278
Zn4	Zn	1.430291	-0.295538	0.593882
O5	O	1.518160	-0.251853	0.506085
O6	O	1.753073	-0.219740	0.570641
O7	O	1.582573	-0.284012	0.271225
O8	O	1.453797	-0.134990	0.441620
O9	O	1.752940	-0.283987	0.441556
O10	O	1.582881	-0.134971	0.570677
O11	O	1.453621	-0.219784	0.271252
O12	O	1.283345	-0.219743	0.441564
O13	O	1.453649	-0.283915	0.740911
O14	O	1.283282	-0.283940	0.570580
O15	O	1.582797	-0.219699	0.740953
O16	O	1.582489	-0.368740	0.441500
O17	O	1.453473	-0.368709	0.570543
C18	C	1.245193	-0.251840	0.506070
C19	C	1.128416	-0.251848	0.506089
C20	C	1.073616	-0.218458	0.573408
C21	C	0.963892	-0.218468	0.573414
C22	C	0.963777	-0.285262	0.438781
C23	C	1.073499	-0.285249	0.438770
C24	C	1.128533	-0.185056	0.640727
C25	C	1.073733	-0.151663	0.708052
C26	C	0.964009	-0.151673	0.708059
C27	C	0.909085	-0.185076	0.640740
C28	C	1.517980	-0.387695	0.506034
C29	C	1.518000	-0.445809	0.506048
C30	C	1.450969	-0.696999	0.573256
C31	C	1.450930	-0.642395	0.573244
O32	O	1.393766	-0.614155	0.630352
N33	N	1.518132	-0.615083	0.506103
C34	C	1.585385	-0.642379	0.438977
O35	O	1.642542	-0.614134	0.381867
C36	C	1.585428	-0.696982	0.438995
C37	C	1.518214	-0.724291	0.506133
C38	C	1.383761	-0.724308	0.640390
C39	C	1.383799	-0.778908	0.640401
C40	C	1.451045	-0.806200	0.573277
C41	C	1.518252	-0.778891	0.506144
C42	C	1.652685	-0.724276	0.371875
C43	C	1.652723	-0.778883	0.371900
C44	C	1.585510	-0.806192	0.439038
C45	C	1.585535	-0.860783	0.439031
N46	N	1.518333	-0.888095	0.506173
C47	C	1.451088	-0.860803	0.573296
C48	C	1.585290	-0.527708	0.438945
C49	C	1.585242	-0.473106	0.438920
C50	C	1.450788	-0.473126	0.573189
C51	C	1.450832	-0.527729	0.573208
C52	C	1.518088	-0.555020	0.506086
C53	C	1.451172	-0.975468	0.573312
C54	C	1.451213	-1.030074	0.573314
C55	C	1.585669	-1.030049	0.439049
C56	C	1.585625	-0.975449	0.439043
C57	C	1.518373	-0.948160	0.506183
O58	O	1.642673	-0.889058	0.381955
O59	O	1.393950	-0.889055	0.630405
C60	C	1.792193	-0.251865	0.506100
C61	C	1.908970	-0.251871	0.506107
C62	C	1.518234	-0.251800	0.780119
C63	C	1.518265	-0.251777	0.896895
C64	C	1.518369	-0.115480	0.506159
C65	C	1.518458	-0.057365	0.506190
C66	C	1.518147	-0.251867	0.233118
C67	C	1.518319	-0.251743	0.116342
C68	C	1.585522	-0.218337	0.951781
C69	C	1.585547	-0.218318	1.061505
C70	C	1.451055	-0.285185	1.061448
C71	C	1.451026	-0.285200	0.951726
C72	C	1.652761	-0.184914	0.896950
C73	C	1.720024	-0.151471	0.951836
C74	C	1.720049	-0.151452	1.061560
C75	C	1.652811	-0.184876	1.116398
H76	H	1.118459	-0.124465	0.762854
C77	C	0.904204	-0.321465	0.365530
C78	C	0.930834	-0.310010	0.261616
C79	C	0.875967	-0.343347	0.194112
H80	H	0.922118	-0.356620	0.380638
H81	H	0.830999	-0.316688	0.375110
H82	H	1.004022	-0.314792	0.252042
H83	H	0.912917	-0.274861	0.246476
H84	H	0.802762	-0.338569	0.203691
H85	H	0.893885	-0.378500	0.209228
H86	H	0.894020	-0.335576	0.123598
H87	H	1.396477	-1.052306	0.627988
C88	C	1.132952	-0.321591	0.365819
C89	C	1.106253	-0.373339	0.388527
C90	C	1.161012	-0.406831	0.321353
H91	H	1.114998	-0.313971	0.295218
H92	H	1.206173	-0.316832	0.375465
H93	H	1.033049	-0.378096	0.378871
H94	H	1.124210	-0.380976	0.459115
H95	H	1.234233	-0.402072	0.330999
H96	H	1.143053	-0.399207	0.250756
H97	H	1.142912	-0.441946	0.336757
C98	C	1.792847	-0.115150	0.892170
C99	C	1.733397	-0.081655	0.829176
C100	C	1.800445	-0.048192	0.774191
H101	H	1.832926	-0.095181	0.940457
H102	H	1.838568	-0.135145	0.849297
H103	H	1.687694	-0.061662	0.872045
H104	H	1.693320	-0.101610	0.780870
H105	H	1.846166	-0.068186	0.731318
H106	H	1.840521	-0.028226	0.822485
H107	H	1.760119	-0.025464	0.731436
H108	H	1.652824	-0.184852	1.205743
C109	C	1.658486	-0.557348	0.366255
C110	C	1.725844	-0.588610	0.425839
C111	C	1.793319	-0.615907	0.358929
H112	H	1.618513	-0.578741	0.320400
H113	H	1.698557	-0.533263	0.326315
H114	H	1.685777	-0.612692	0.465761
H115	H	1.765840	-0.567231	0.471691
H116	H	1.833389	-0.591822	0.318988
H117	H	1.753337	-0.637296	0.313077
H118	H	1.839035	-0.637117	0.399347
H119	H	0.819740	-0.185070	0.640729
C120	C	1.310878	-0.808648	0.713196
C121	C	1.325276	-0.862311	0.698843
C122	C	1.258112	-0.889719	0.765883
H123	H	1.326155	-0.799720	0.783834
H124	H	1.240264	-0.799771	0.697754
H125	H	1.395874	-0.871184	0.714292
H126	H	1.309992	-0.871254	0.628219
H127	H	1.187498	-0.880842	0.750442
H128	H	1.273394	-0.880787	0.836518
H129	H	1.267865	-0.926131	0.756147
H130	H	1.396243	-0.312422	0.907037
C131	C	1.310626	-0.694777	0.713310
C132	C	1.251769	-0.730391	0.772078
C133	C	1.184365	-0.703211	0.839251
H134	H	1.350643	-0.673433	0.759217
H135	H	1.264793	-0.673531	0.673097
H136	H	1.297597	-0.751628	0.812289
H137	H	1.211731	-0.751736	0.726199
H138	H	1.138532	-0.681964	0.799038
H139	H	1.224391	-0.681868	0.885151
H140	H	1.144416	-0.727371	0.879127
H141	H	1.396313	-0.312396	1.106106
H142	H	1.396410	-0.953256	0.627985
H143	H	1.217876	-0.185044	0.640729
H144	H	1.707496	-0.801101	0.317243
H145	H	1.707417	-0.702049	0.317206
C146	C	1.793185	-0.115124	1.120963
C147	C	1.852077	-0.085868	1.049455
C148	C	1.919477	-0.052402	1.104135
H149	H	1.753163	-0.092286	1.163781
H150	H	1.838996	-0.135109	1.163733
H151	H	1.806273	-0.065883	1.006703
H152	H	1.892121	-0.108692	1.006634
H153	H	1.965288	-0.072388	1.146906
H154	H	1.879446	-0.029568	1.146952
H155	H	1.959450	-0.032552	1.055626
H156	H	1.396035	-0.450895	0.627846
C157	C	1.658700	-0.945890	0.366098
C158	C	1.717609	-0.981481	0.307329
C159	C	1.784952	-0.954275	0.240135
H160	H	1.618636	-0.924624	0.320193
H161	H	1.704503	-0.924563	0.406296
H162	H	1.671812	-1.002798	0.267134
H163	H	1.757695	-1.002748	0.353206
H164	H	1.830755	-0.932948	0.280333
H165	H	1.744879	-0.933010	0.194237
H166	H	1.824936	-0.978419	0.200259
H167	H	0.919394	-0.124480	0.762870
H168	H	1.396106	-0.549960	0.627883
H169	H	1.639962	-0.450875	0.384239
C170	C	1.658609	-1.059781	0.366263
C171	C	1.644258	-1.113444	0.380661
C172	C	1.711435	-1.140850	0.313631
H173	H	1.643313	-1.050927	0.295620
H174	H	1.729218	-1.050830	0.381686
H175	H	1.573666	-1.122392	0.365230
H176	H	1.659562	-1.122314	0.451289
H177	H	1.782043	-1.131899	0.329054
H178	H	1.696133	-1.131992	0.242992
H179	H	1.701714	-1.177263	0.323397
H180	H	1.652750	-0.184927	0.807607
