data_functionalizedCrystal
_audit_creation_method	'MofGen! by Chris Wilmer'
_symmetry_space_group_name_H-M	'P1'
_symmetry_Int_Tables_number	1
_symmetry_cell_setting	triclinic
loop_
_symmetry_equiv_pos_as_xyz
  x,y,z
_cell_length_a	19.851628
_cell_length_b	12.970454
_cell_length_c	12.970454
_cell_angle_alpha	59.999776
_cell_angle_beta	90.003352
_cell_angle_gamma	59.998287
loop_
_atom_site_label
_atom_site_type_symbol
_atom_site_fract_x
_atom_site_fract_y
_atom_site_fract_z
Zr1	Zr	0.648978	1.128404	-0.135184
O2	O	0.541412	1.343513	-0.299829
O3	O	0.681953	0.913307	-0.084711
O4	O	0.681954	1.128397	-0.299802
O5	O	0.541410	1.128424	0.084928
O6	O	0.792815	1.128377	-0.299781
O7	O	0.541411	1.128423	-0.084738
O8	O	0.792814	0.743621	0.084977
O9	O	0.541412	1.513180	-0.299830
O10	O	0.778751	1.001760	-0.063170
O11	O	0.696015	1.001775	0.063434
O12	O	0.696017	1.255016	-0.189807
O13	O	0.613281	1.255031	-0.063202
Zr14	Zr	0.825788	1.128373	0.135447
Zr15	Zr	0.825790	1.128372	-0.135151
Zr16	Zr	0.648977	1.128405	0.135414
Zr17	Zr	0.648978	1.399003	-0.135186
Zr18	Zr	0.825788	0.857773	0.135449
O19	O	0.792814	1.343470	0.084974
O20	O	0.792815	1.343468	-0.299782
O21	O	0.541410	1.343515	0.084927
O22	O	0.933354	0.913264	0.300092
O23	O	0.933356	0.913262	-0.084664
O24	O	0.681951	0.913309	0.300045
O25	O	0.933356	1.128353	-0.084665
O26	O	0.792813	1.128380	0.300065
O27	O	0.681951	1.128400	0.300044
O28	O	0.933355	1.128354	0.085001
O29	O	0.681954	1.513155	-0.299804
O30	O	0.792813	0.743622	0.300067
O31	O	0.933354	0.743597	0.300093
O32	O	0.933355	0.743595	0.085003
O33	O	0.541411	1.513181	-0.084740
O34	O	0.681953	1.513156	-0.084714
O35	O	0.778750	1.001761	0.190070
O36	O	0.861485	1.001746	0.063465
O37	O	0.778751	1.255001	-0.063172
O38	O	0.696015	1.255017	0.063433
C39	C	0.737383	0.789909	0.000133
C40	C	0.737383	0.675032	0.000134
C41	C	0.516219	1.128428	0.000090
C42	C	0.441157	1.128442	0.000076
C43	C	0.214702	1.266495	-0.068929
C44	C	0.192341	1.197470	-0.118959
C45	C	0.303751	1.128404	0.000112
C46	C	0.192371	1.197438	0.050119
C47	C	0.171019	1.128378	0.000147
C48	C	0.282378	1.059378	-0.049987
C49	C	0.282406	1.059366	0.119158
C50	C	0.260098	0.990240	0.069157
C51	C	0.380213	1.128423	0.000090
C52	C	0.094561	1.128348	0.000167
C53	C	0.958548	1.128349	0.000173
C54	C	1.033609	1.128335	0.000187
C55	C	0.737385	1.128387	-0.338346
C56	C	0.737385	1.128386	-0.453222
C57	C	0.737383	1.466868	0.000130
C58	C	0.737383	1.581744	0.000129
C59	C	0.737382	1.128390	0.338609
C60	C	0.737381	1.128391	0.453485
C61	C	0.958548	0.789869	0.000174
C62	C	1.033609	0.674979	0.000189
C63	C	0.737382	0.789911	0.338611
C64	C	0.737381	0.675035	0.453487
C65	C	0.958546	0.789871	0.338652
C66	C	1.033607	0.674982	0.453543
C67	C	0.516220	1.466906	-0.338389
C68	C	0.441159	1.581795	-0.453280
C69	C	0.516219	1.466907	0.000089
C70	C	0.441157	1.581798	0.000074
C71	C	0.737385	1.466866	-0.338348
C72	C	0.737385	1.581742	-0.453225
C73	C	1.025672	0.621033	-0.065918
C74	C	1.096193	0.513096	-0.065930
C75	C	1.174650	0.459100	0.000174
C76	C	1.182586	0.513057	0.066283
C77	C	1.112065	0.620999	0.066286
C78	C	1.112051	0.621020	0.441410
C79	C	1.182585	0.513084	0.549352
C80	C	1.174673	0.459104	0.669425
C81	C	1.096221	0.513076	0.681555
C82	C	1.025689	0.621018	0.573614
C83	C	0.362716	1.635770	-0.441147
C84	C	0.292181	1.743739	-0.549089
C85	C	0.300093	1.797725	-0.669162
C86	C	0.378545	1.743746	-0.681292
C87	C	0.449077	1.635786	-0.573351
C88	C	0.449094	1.635755	0.066170
C89	C	0.378573	1.743722	0.066152
C90	C	0.300116	1.797721	0.000044
C91	C	0.292180	1.743759	-0.066060
C92	C	0.362701	1.635802	-0.066048
H93	H	0.196251	1.383258	-0.127399
H94	H	0.153531	1.255832	-0.219621
O95	O	0.949445	0.673341	-0.129939
C96	C	0.819667	0.706475	-0.117881
C97	C	0.905972	0.647142	-0.045206
H98	H	0.784488	0.685342	-0.049410
H99	H	0.826071	0.649350	-0.165093
H100	H	0.784528	0.828765	-0.192971
H101	H	0.941158	0.524863	0.029943
H102	H	0.899509	0.704377	0.001918
H103	H	1.232066	0.371206	0.000162
H104	H	1.246457	0.469151	0.539453
O105	O	0.216042	1.795947	-0.537064
C106	C	0.137843	1.784556	-0.394520
C107	C	0.224116	1.725285	-0.407961
H108	H	0.144341	1.727474	-0.290147
H109	H	0.102644	1.763301	-0.441682
H110	H	0.102669	1.906865	-0.441798
H111	H	0.259358	1.602969	-0.360676
H112	H	0.259252	1.746653	-0.360834
H113	H	0.356227	1.591873	-0.119868
H114	H	0.228291	1.787742	-0.119882
O115	O	0.355059	1.583124	-0.324491
C116	C	0.384575	1.372431	-0.125868
C117	C	0.393300	1.431844	-0.257946
H118	H	0.415502	1.250110	-0.072019
H119	H	0.316398	1.429467	-0.135690
H120	H	0.415416	1.393730	-0.072083
H121	H	0.362504	1.410559	-0.311804
H122	H	0.461490	1.374807	-0.248034
O123	O	0.328408	0.989944	-0.100747
C124	C	0.333581	0.983663	-0.283273
C125	C	0.281356	1.062407	-0.225932
H126	H	0.295566	1.042235	-0.384502
H127	H	0.353056	0.866265	-0.224946
H128	H	0.390815	0.984246	-0.282841
H129	H	0.224087	1.061935	-0.226356
H130	H	0.261946	1.179764	-0.284276
O131	O	1.258863	0.460386	0.130479
C132	C	1.405788	0.294102	0.189011
C133	C	1.319453	0.353611	0.116272
H134	H	1.454798	0.207786	0.177528
H135	H	1.413283	0.243447	0.293400
H136	H	1.413196	0.387110	0.149878
H137	H	1.311986	0.260684	0.155298
H138	H	1.311998	0.404309	0.011891
H139	H	0.278704	0.873382	0.127544
H140	H	0.384977	1.787715	-0.779068
O141	O	1.088396	0.460841	0.798103
C142	C	0.995312	0.472130	0.917872
C143	C	1.004052	0.531444	0.785804
H144	H	0.927124	0.529165	0.907973
H145	H	1.026124	0.493406	0.971723
H146	H	1.026227	0.349814	0.971699
H147	H	0.973132	0.653768	0.731872
H148	H	0.973263	0.510055	0.732048
H149	H	0.153570	1.255828	0.092397
O150	O	1.119929	0.673179	0.130630
C151	C	1.213080	0.661760	0.261723
C152	C	1.204285	0.602522	0.188927
H153	H	1.281277	0.604681	0.308854
H154	H	1.182281	0.640472	0.336864
H155	H	1.182181	0.784074	0.193259
H156	H	1.235188	0.480201	0.257294
H157	H	1.235061	0.623922	0.113770
H158	H	0.512972	1.591797	0.120011
O159	O	0.525214	1.583462	-0.585372
C160	C	0.603411	1.594934	-0.727920
C161	C	0.517139	1.654286	-0.714476
H162	H	0.596911	1.652192	-0.832293
H163	H	0.638597	1.472648	-0.680781
H164	H	0.638599	1.616093	-0.680622
H165	H	0.481882	1.633233	-0.761781
H166	H	0.482015	1.776555	-0.761580
O167	O	0.231488	1.902545	-0.773879
C168	C	0.082883	2.057502	-0.856209
C169	C	0.160511	1.938777	-0.737521
H170	H	0.025479	2.086854	-0.826856
H171	H	0.082800	2.015093	-0.914824
H172	H	0.082907	2.158537	-0.914826
H173	H	0.160539	1.837703	-0.678806
H174	H	0.160565	1.981304	-0.679000
O175	O	0.949472	0.673646	0.585346
C176	C	0.819690	0.884338	0.540164
C177	C	0.905984	0.824931	0.526801
H178	H	0.784499	1.006663	0.492817
H179	H	0.826112	0.827316	0.644511
H180	H	0.784552	0.863018	0.492981
H181	H	0.941170	0.846237	0.573914
H182	H	0.899503	0.881955	0.422433
H183	H	0.385050	1.787639	0.119986
H184	H	0.242700	1.885627	0.000045
H185	H	0.321213	1.001054	0.219797
H186	H	1.089716	0.469178	-0.119763
H187	H	1.118508	0.664955	0.343650
H188	H	1.232112	0.371211	0.757306
