data_functionalizedCrystal
_audit_creation_method	'MofGen! by Chris Wilmer'
_symmetry_space_group_name_H-M	'P1'
_symmetry_Int_Tables_number	1
_symmetry_cell_setting	triclinic
loop_
_symmetry_equiv_pos_as_xyz
  x,y,z
_cell_length_a	20.919309
_cell_length_b	17.917603
_cell_length_c	17.917603
_cell_angle_alpha	60.138055
_cell_angle_beta	90.204349
_cell_angle_gamma	60.553501
loop_
_atom_site_label
_atom_site_type_symbol
_atom_site_fract_x
_atom_site_fract_y
_atom_site_fract_z
Zr1	Zr	0.676095	0.748213	-0.097077
O2	O	0.581024	0.901492	-0.222110
O3	O	0.700696	0.593851	-0.054262
O4	O	0.712700	0.734662	-0.209103
O5	O	0.564720	0.771748	0.049769
O6	O	0.821736	0.725204	-0.203945
O7	O	0.569021	0.760681	-0.067270
O8	O	0.800264	0.473319	0.073037
O9	O	0.586193	1.023633	-0.227213
O10	O	0.798050	0.650685	-0.037572
O11	O	0.713468	0.666002	0.045923
O12	O	0.727601	0.831789	-0.136382
O13	O	0.643019	0.847106	-0.052887
Zr14	Zr	0.843137	0.750779	0.097812
Zr15	Zr	0.849995	0.733129	-0.088851
Zr16	Zr	0.669237	0.765863	0.089585
Zr17	Zr	0.684338	0.943013	-0.105215
Zr18	Zr	0.834894	0.555978	0.105950
O19	O	0.818536	0.905140	0.054997
O20	O	0.828288	0.880045	-0.210414
O21	O	0.571272	0.926588	0.043300
O22	O	0.938208	0.597499	0.222845
O23	O	0.947960	0.572404	-0.042565
O24	O	0.690944	0.618947	0.211148
O25	O	0.954512	0.727244	-0.049034
O26	O	0.806532	0.764329	0.209837
O27	O	0.697496	0.773787	0.204679
O28	O	0.950211	0.738310	0.068004
O29	O	0.724420	1.011643	-0.220674
O30	O	0.794812	0.487349	0.221409
O31	O	0.933039	0.475359	0.227948
O32	O	0.938491	0.461329	0.079576
O33	O	0.580741	1.037662	-0.078841
O34	O	0.718968	1.025672	-0.072302
O35	O	0.791631	0.667203	0.137117
O36	O	0.876213	0.651886	0.053622
O37	O	0.805764	0.832989	-0.045188
O38	O	0.721182	0.848306	0.038307
C39	C	0.749306	0.505830	0.010547
C40	C	0.745806	0.423133	0.014002
C41	C	0.739413	0.271720	0.020311
C42	C	0.779817	0.227267	-0.019574
C43	C	0.776260	0.143016	-0.016064
C44	C	0.742969	0.355979	0.016802
C45	C	0.542093	0.768364	-0.009923
C46	C	0.468268	0.774767	-0.013415
C47	C	0.470357	0.683243	0.036517
C48	C	0.400988	0.689267	0.033234
C49	C	0.329531	0.786814	-0.019988
C50	C	0.327445	0.878345	-0.069922
C51	C	0.396813	0.872321	-0.066633
C52	C	0.118245	0.809731	-0.032495
C53	C	0.048875	0.815748	-0.035783
C54	C	0.122423	0.626669	0.067375
C55	C	0.191789	0.620654	0.070655
C56	C	0.189697	0.712185	0.020725
C57	C	0.258624	0.792973	-0.023348
C58	C	0.260603	0.706026	0.024090
C59	C	0.977138	0.730628	0.010657
C60	C	1.050964	0.724224	0.014150
C61	C	0.768195	0.727418	-0.233119
C62	C	0.771107	0.719926	-0.312362
C63	C	0.769926	0.993161	-0.009812
C64	C	0.773426	1.075859	-0.013267
C65	C	0.776442	0.706238	-0.457465
C66	C	0.742792	0.792749	-0.541803
C67	C	0.745760	0.785133	-0.622543
C68	C	0.773474	0.713852	-0.376716
C69	C	0.751037	0.771573	0.233854
C70	C	0.748125	0.779066	0.313097
C71	C	0.966828	0.486962	0.020837
C72	C	1.037154	0.397861	0.027784
C73	C	0.740726	0.527908	0.244033
C74	C	0.734315	0.452703	0.326732
C75	C	0.958249	0.509040	0.254323
C76	C	1.025663	0.427431	0.340514
C77	C	0.560983	0.989952	-0.253589
C78	C	0.493569	1.071560	-0.339779
C79	C	0.552404	1.012029	-0.020102
C80	C	0.482078	1.101130	-0.027050
C81	C	0.778505	0.971084	-0.243299
C82	C	0.784916	1.046289	-0.325997
C83	C	1.029380	0.355391	-0.016563
C84	C	1.095453	0.271680	-0.010054
C85	C	1.169299	0.230437	0.040809
C86	C	1.177072	0.272915	0.085157
C87	C	1.111000	0.356629	0.078642
C88	C	0.772105	0.418013	0.413177
C89	C	0.766078	0.347362	0.490888
C90	C	0.722266	0.311396	0.482150
C91	C	0.684472	0.346093	0.395695
C92	C	0.690495	0.416748	0.317986
C93	C	1.101480	0.381111	0.337406
C94	C	1.164830	0.304441	0.418384
C95	C	1.152362	0.274087	0.502468
C96	C	1.076537	0.320415	0.505573
C97	C	1.013189	0.397089	0.424596
C98	C	0.417753	1.117890	-0.336672
C99	C	0.354403	1.194584	-0.417651
C100	C	0.366872	1.224942	-0.501735
C101	C	0.442696	1.178609	-0.504840
C102	C	0.506044	1.101921	-0.423863
C103	C	0.489853	1.143608	0.017290
C104	C	0.423781	1.227338	0.010759
C105	C	0.349935	1.268584	-0.040107
C106	C	0.342162	1.226102	-0.084451
C107	C	0.408233	1.142379	-0.077925
C108	C	0.828735	1.082232	-0.317230
C109	C	0.834773	1.152884	-0.394926
C110	C	0.796989	1.187597	-0.481387
C111	C	0.753169	1.151647	-0.490152
C112	C	0.747136	1.080990	-0.412457
H113	H	0.702153	0.246506	0.057091
H114	H	0.951457	0.434794	0.427139
H115	H	0.711451	1.051733	-0.419608
C116	C	0.711642	1.189801	-0.585265
N117	N	0.680373	1.218531	-0.656906
H118	H	0.859504	1.053980	-0.246836
C119	C	1.062835	0.287006	0.598076
N120	N	1.052516	0.261833	0.667752
H121	H	0.528536	0.603810	0.079860
H122	H	1.111646	0.405813	0.268949
C123	C	1.248230	0.253483	0.414949
N124	N	1.311044	0.215101	0.412358
C125	C	1.222055	0.189733	0.591538
N126	N	1.274551	0.126194	0.658623
H127	H	0.402695	0.614738	0.073895
H128	H	0.659724	0.444982	0.247602
C129	C	0.339206	0.598726	0.082628
N130	N	0.398416	0.517907	0.126714
H131	H	0.282028	1.259698	-0.125866
C132	C	0.948155	0.400748	-0.072524
N133	N	0.886979	0.434911	-0.114682
C134	C	0.404019	1.084519	-0.244188
N135	N	0.393668	1.059394	-0.174531
H136	H	0.124118	0.552150	0.108025
H137	H	0.292670	1.232297	-0.415105
H138	H	0.870454	1.182149	-0.387772
H139	H	0.717369	0.253863	0.545433
C140	C	0.297178	1.309295	-0.590805
N141	N	0.244682	1.372825	-0.657890
C142	C	0.248839	0.985648	-0.128470
N143	N	0.189634	1.066471	-0.172574
H144	H	1.117340	0.391198	0.114761
H145	H	1.089109	0.237105	-0.046169
C146	C	1.258310	0.227528	0.141111
N147	N	1.319500	0.193334	0.183262
H148	H	0.200437	0.872396	-0.066681
H149	H	0.796859	0.319120	0.561276
C150	C	0.270390	0.513344	0.129203
N151	N	0.329592	0.432516	0.173301
H152	H	0.452839	1.203337	-0.573311
C153	C	0.830154	0.261335	-0.069271
N154	N	0.868065	0.287001	-0.106704
C155	C	0.589441	1.050954	-0.427295
N156	N	0.652255	1.012566	-0.429887
C157	C	0.636285	0.306513	0.386100
N158	N	0.599995	0.276694	0.378876
H159	H	0.801908	1.245131	-0.544644
H160	H	-0.009309	0.895187	-0.079127
C161	C	0.571078	1.098258	0.073243
N162	N	0.632256	1.064110	0.115384
C163	C	0.700851	0.900537	-0.557431
N164	N	0.669257	0.981720	-0.569197
C165	C	0.432349	1.274045	0.059553
N166	N	0.438804	1.309220	0.096308
H167	H	0.296142	1.336757	-0.045413
H168	H	0.116531	0.884261	-0.073168
C169	C	0.818363	0.598459	-0.441842
N170	N	0.849932	0.517282	-0.430084
H171	H	0.395107	0.946851	-0.107282
H172	H	1.223093	0.162271	0.046107
C173	C	0.820298	0.457569	0.422810
N174	N	0.856595	0.487364	0.430073
H175	H	0.401892	1.107796	-0.114030
