data_functionalizedCrystal
_audit_creation_method	'MofGen! by Chris Wilmer'
_symmetry_space_group_name_H-M	'P1'
_symmetry_Int_Tables_number	1
_symmetry_cell_setting	triclinic
loop_
_symmetry_equiv_pos_as_xyz
  x,y,z
_cell_length_a	15.995350
_cell_length_b	15.995292
_cell_length_c	14.472310
_cell_angle_alpha	89.985801
_cell_angle_beta	90.001162
_cell_angle_gamma	83.480495
loop_
_atom_site_label
_atom_site_type_symbol
_atom_site_fract_x
_atom_site_fract_y
_atom_site_fract_z
O1	O	0.107689	1.111027	-0.076861
O2	O	0.121067	0.867245	-0.076857
O3	O	-0.007511	0.995800	-0.076858
O4	O	0.236267	0.982472	-0.076860
O5	O	-0.007503	0.995767	0.076824
O6	O	0.121075	0.867212	0.076825
O7	O	0.107696	1.110994	0.076821
Cu8	Cu	0.114386	0.989100	0.090855
Cu9	Cu	0.114378	0.989139	-0.090892
O10	O	0.236275	0.982439	0.076822
C11	C	0.120527	0.836033	-0.000016
C12	C	0.118894	0.743080	-0.000014
C13	C	0.112893	0.405341	-0.000025
C14	C	0.205697	0.428654	-0.000368
C15	C	0.207461	0.525329	-0.000018
C16	C	0.115871	0.572897	-0.000020
C17	C	0.069477	0.543777	0.087737
C18	C	0.068360	0.446986	0.087807
C19	C	0.066457	0.447168	-0.086958
C20	C	0.069896	0.543661	-0.088114
C21	C	0.117549	0.667593	-0.000014
C22	C	0.111212	0.310646	-0.000024
C23	C	-0.038702	0.995232	-0.000019
C24	C	-0.131652	0.993580	-0.000024
C25	C	-0.469398	0.987648	-0.000021
C26	C	-0.421945	0.896094	-0.000364
C27	C	-0.325255	0.897746	-0.000018
C28	C	-0.301838	0.990591	-0.000023
C29	C	-0.342921	1.035730	0.087734
C30	C	-0.439556	1.033430	0.087808
C31	C	-0.439923	1.035359	-0.086958
C32	C	-0.342978	1.035337	-0.088117
C33	C	-0.207141	0.992259	-0.000021
C34	C	-0.564095	0.985983	-0.000017
C35	C	0.267466	0.983006	-0.000019
C36	C	0.360416	0.984658	-0.000020
C37	C	0.108237	1.142206	-0.000023
C38	C	0.109870	1.235159	-0.000030
N39	N	0.114392	0.989078	0.218686
N40	N	0.114365	0.989167	-0.218722
C41	C	0.114374	0.989138	0.592777
C42	C	0.182943	0.920120	0.553612
C43	C	0.183193	0.920279	0.446524
C44	C	0.114383	0.989108	0.407186
C45	C	0.133447	1.076475	0.446022
C46	C	0.133934	1.076087	0.553143
C47	C	0.026538	0.971568	0.553308
C48	C	0.027124	0.969564	0.446180
C49	C	0.114386	0.989096	0.302298
C50	C	0.114373	0.989155	0.697665
H51	H	0.243790	0.544369	-0.062928
H52	H	0.012657	0.905296	0.420799
H53	H	-0.315725	1.002335	-0.153038
C54	C	-0.467663	0.994936	-0.176817
N55	N	-0.488555	0.964480	-0.244495
H56	H	-0.001854	0.433175	-0.087553
C57	C	-0.322251	1.126811	-0.095279
N58	N	-0.306643	1.195714	-0.100664
C59	C	-0.286849	0.849802	-0.085000
N60	N	-0.257925	0.813685	-0.149008
H61	H	0.248375	0.931499	0.420889
H62	H	0.196774	1.092327	0.419184
C63	C	0.001785	0.887351	0.589842
N64	N	-0.016849	0.823915	0.617360
C65	C	0.220479	1.096987	0.586885
N66	N	0.285669	1.112722	0.612295
H67	H	-0.440472	0.859514	-0.063297
C68	C	0.167872	0.832103	0.588473
N69	N	0.156522	0.765807	0.614743
H70	H	-0.471698	1.102861	-0.087551
H71	H	0.085960	1.129049	0.579049
C72	C	0.167867	0.832541	0.411053
N73	N	0.156329	0.766452	0.384340
C74	C	0.067774	1.147518	0.411593
N75	N	0.018308	1.201027	0.385659
C76	C	-0.483142	1.124235	0.093196
N77	N	-0.515968	1.192628	0.097261
H78	H	0.103675	0.562245	-0.153037
H79	H	0.247758	0.931185	0.580521
C80	C	0.113015	0.570846	0.175970
N81	N	0.145814	0.591230	0.242425
H82	H	-0.026291	1.016569	0.419406
C83	C	0.105735	0.409022	-0.176820
N84	N	0.135330	0.380292	-0.244500
H85	H	-0.024488	1.021900	0.578633
C86	C	-0.023563	0.427325	0.093195
N87	N	-0.092798	0.412521	0.097258
H88	H	0.241465	0.400671	-0.063303
H89	H	0.241273	0.399622	0.062213
C90	C	0.111791	0.410734	0.176422
N91	N	0.144511	0.383433	0.243166
C92	C	-0.021563	0.586856	0.092169
N93	N	-0.090131	0.619315	0.095512
H94	H	0.244020	0.543719	0.062997
H95	H	-0.441528	0.859649	0.062219
C96	C	-0.020424	0.588195	-0.095272
N97	N	-0.088457	0.621735	-0.100655
C98	C	-0.287593	0.849453	0.085117
N99	N	-0.259228	0.813078	0.149246
H100	H	-0.328809	1.103940	0.090994
H101	H	-0.457847	1.000486	0.153412
C102	C	-0.304573	0.993335	0.175967
N103	N	-0.275691	0.961397	0.242422
