data_functionalizedCrystal
_audit_creation_method	'MofGen! by Chris Wilmer'
_symmetry_space_group_name_H-M	'P1'
_symmetry_Int_Tables_number	1
_symmetry_cell_setting	triclinic
loop_
_symmetry_equiv_pos_as_xyz
  x,y,z
_cell_length_a	9.065215
_cell_length_b	8.559649
_cell_length_c	7.681481
_cell_angle_alpha	94.912555
_cell_angle_beta	95.826309
_cell_angle_gamma	102.603319
loop_
_atom_site_label
_atom_site_type_symbol
_atom_site_fract_x
_atom_site_fract_y
_atom_site_fract_z
O1	O	-0.034313	-2.104524	0.146429
O2	O	0.465687	-1.604524	0.646429
O3	O	0.041753	-1.640420	0.146432
O4	O	0.541753	-1.140420	0.646432
O5	O	-0.212130	-1.882068	0.146423
O6	O	0.287870	-1.382068	0.646423
O7	O	0.219569	-1.862876	0.146438
O8	O	0.719569	-1.362876	0.646438
O9	O	-0.243441	-1.911810	-0.146436
O10	O	0.256559	-1.411810	0.353564
O11	O	0.010441	-1.670162	-0.146427
O12	O	0.510441	-1.170162	0.353573
O13	O	-0.065625	-2.134266	-0.146430
O14	O	0.434375	-1.634266	0.353570
Zn15	Zn	-0.032563	-1.906936	-0.192926
Zn16	Zn	0.467437	-1.406936	0.307074
Zn17	Zn	0.008691	-1.867750	0.192928
Zn18	Zn	0.508691	-1.367750	0.692928
O19	O	0.188257	-1.892618	-0.146421
O20	O	0.688257	-1.392618	0.353579
C21	C	0.031861	-1.595844	0.000002
C22	C	0.531861	-1.095844	0.500002
C23	C	0.049020	-1.418712	0.000003
C24	C	0.549020	-0.918712	0.500003
C25	C	-0.282540	-1.895095	-0.000005
C26	C	0.217460	-1.395095	0.499995
C27	C	-0.445690	-1.889583	0.000001
C28	C	0.054310	-1.389583	0.500001
C29	C	0.258668	-1.879590	0.000011
C30	C	0.758668	-1.379590	0.500011
C31	C	0.421820	-1.885101	0.000017
C32	C	0.921820	-1.385101	0.500017
N33	N	-0.060721	-1.933691	-0.456261
N34	N	0.439279	-1.433691	0.043739
C35	C	-0.055734	-1.178841	0.000000
C36	C	0.444266	-0.678841	0.500000
C37	C	-0.072892	-1.355973	0.000001
C38	C	0.427108	-0.855973	0.500001
N39	N	0.036835	-1.841007	0.456263
N40	N	0.536835	-1.341007	0.956263
H41	H	-0.190393	-1.437770	0.000006
H42	H	0.309607	-0.937770	0.500006
Cl43	Cl	0.230451	-1.292417	0.000025
Cl44	Cl	0.730451	-0.792417	0.500025
H45	H	-0.160294	-2.028321	-0.531470
H46	H	0.339706	-1.528321	-0.031470
H47	H	0.136412	-1.746395	-0.468536
H48	H	0.636412	-1.246395	0.031464
