data_functionalizedCrystal
_audit_creation_method	'MofGen! by Chris Wilmer'
_symmetry_space_group_name_H-M	'P1'
_symmetry_Int_Tables_number	1
_symmetry_cell_setting	triclinic
loop_
_symmetry_equiv_pos_as_xyz
  x,y,z
_cell_length_a	12.811453
_cell_length_b	14.750779
_cell_length_c	15.625429
_cell_angle_alpha	59.907167
_cell_angle_beta	82.449958
_cell_angle_gamma	97.442935
loop_
_atom_site_label
_atom_site_type_symbol
_atom_site_fract_x
_atom_site_fract_y
_atom_site_fract_z
O1	O	-1.319044	0.258906	-0.184619
O2	O	-1.020153	0.235494	-0.192105
O3	O	-1.191398	0.199366	-0.045486
O4	O	-1.147799	0.295035	-0.331238
O5	O	-1.239806	0.029504	-0.004043
O6	O	-1.068561	0.065632	-0.150662
O7	O	-1.367452	0.089044	-0.143176
Zn8	Zn	-1.225693	0.050369	-0.140339
Zn9	Zn	-1.161912	0.274170	-0.194942
O10	O	-1.196207	0.125173	-0.289795
C11	C	-1.006362	0.146668	-0.169692
C12	C	-0.893152	0.135055	-0.164642
C13	C	-0.627630	0.298442	-0.200355
C14	C	-0.521257	0.287536	-0.195610
C15	C	-0.574029	0.102339	-0.150416
C16	C	-0.680402	0.113245	-0.155160
C17	C	-0.707198	0.211300	-0.180129
C18	C	-0.813575	0.222203	-0.184866
C19	C	-0.866343	0.037009	-0.139679
C20	C	-0.759970	0.026103	-0.134935
N21	N	-1.269228	-0.102368	-0.103074
C22	C	-0.996800	-0.396743	-0.336232
C23	C	-1.027314	-0.503673	-0.310126
C24	C	-1.178975	-0.535608	-0.180345
C25	C	-1.148471	-0.428680	-0.206437
C26	C	-1.057383	-0.359255	-0.284382
C27	C	-1.209054	-0.391192	-0.154587
C28	C	-1.178555	-0.284272	-0.180681
C29	C	-1.087473	-0.214839	-0.258625
C30	C	-1.026884	-0.252334	-0.310476
C31	C	-1.300146	-0.460617	-0.076647
C32	C	-1.360730	-0.423129	-0.024797
C33	C	-1.330226	-0.316209	-0.050886
C34	C	-1.239144	-0.246776	-0.128830
C35	C	-1.390815	-0.278714	0.000965
C36	C	-1.360316	-0.171793	-0.025129
C37	C	-1.208645	-0.139856	-0.154924
C38	C	-0.381242	0.177872	-0.165589
C39	C	-0.494452	0.189487	-0.170640
C40	C	-1.218428	0.101929	0.011876
C41	C	-1.226836	0.064663	0.121056
N42	N	-1.118385	0.426905	-0.232199
C43	C	-1.169176	0.222612	-0.347158
C44	C	-1.160767	0.259884	-0.456339
C45	C	-1.122532	0.405021	0.367193
C46	C	-1.130437	0.369972	0.469791
C47	C	-1.183209	0.184801	0.514955
C48	C	-1.175314	0.219834	0.412359
C49	C	-1.144974	0.329945	0.338485
C50	C	-1.197755	0.144759	0.383652
C51	C	-1.189855	0.179789	0.281064
C52	C	-1.159513	0.289895	0.207184
C53	C	-1.137074	0.364976	0.235898
C54	C	-1.228087	0.034648	0.457527
C55	C	-1.250529	-0.040428	0.428819
C56	C	-1.242636	-0.005398	0.326231
C57	C	-1.212295	0.104709	0.252351
C58	C	-1.265076	-0.080478	0.297518
C59	C	-1.257176	-0.045448	0.194930
C60	C	-1.204394	0.139739	0.149763
H61	H	-0.552190	0.022510	-0.130097
C62	C	-0.730669	-0.080281	-0.107794
C63	C	-0.620487	-0.071191	-0.107945
C64	C	-0.593463	-0.169176	-0.082932
H65	H	-0.745589	-0.097928	-0.156318
H66	H	-0.772151	-0.135268	-0.042184
H67	H	-0.579018	-0.016221	-0.173546
H68	H	-0.605541	-0.053560	-0.059421
H69	H	-0.634945	-0.224163	-0.017322
H70	H	-0.608389	-0.186816	-0.131459
H71	H	-0.518705	-0.163025	-0.083022
H72	H	-1.112377	0.454640	0.175745
C73	C	-1.459554	-0.498690	0.059833
C74	C	-1.473285	-0.600358	0.071605
C75	C	-1.564301	-0.669995	0.149568
H76	H	-1.521786	-0.471068	0.043068
H77	H	-1.449737	-0.504599	0.121508
H78	H	-1.483110	-0.594447	0.009943
H79	H	-1.411078	-0.628012	0.088385
H80	H	-1.554484	-0.675904	0.211244
H81	H	-1.626525	-0.642363	0.132796
H82	H	-1.573624	-0.738987	0.157572
C83	C	-1.089863	0.524579	0.286978
C84	C	-1.172712	0.554789	0.235469
C85	C	-1.142683	0.664917	0.161590
H86	H	-1.025475	0.539073	0.240032
H87	H	-1.077699	0.564301	0.318757
H88	H	-1.184862	0.515080	0.203691
H89	H	-1.237107	0.540322	0.282387
H90	H	-1.130520	0.704639	0.193368
H91	H	-1.078295	0.679401	0.114651
H92	H	-1.198895	0.685431	0.126638
H93	H	-0.952705	-0.195808	-0.373940
C94	C	-1.489632	-0.354028	0.085716
C95	C	-1.474889	-0.362430	0.176428
C96	C	-1.565901	-0.431791	0.254521
H97	H	-1.499208	-0.423128	0.093965
H98	H	-1.551799	-0.326264	0.068912
H99	H	-1.412741	-0.390198	0.193228
H100	H	-1.465328	-0.293350	0.168212
H101	H	-1.628067	-0.404026	0.237717
H102	H	-1.575468	-0.500885	0.262760
H103	H	-1.555914	-0.437493	0.316075
H104	H	-0.931141	-0.033949	-0.123208
H105	H	-1.324978	-0.547676	-0.055408
C106	C	-0.434776	0.382177	-0.217760
C107	C	-0.352615	0.408944	-0.300574
C108	C	-0.272937	0.496135	-0.321018
H109	H	-0.405316	0.363177	-0.159863
H110	H	-0.465920	0.442178	-0.233368
H111	H	-0.321474	0.348957	-0.284960
H112	H	-0.382042	0.427964	-0.358488
H113	H	-0.304081	0.556136	-0.336627
H114	H	-0.243486	0.477127	-0.263116
H115	H	-0.217187	0.514314	-0.377215
H116	H	-1.179698	0.229403	0.089611
H117	H	-1.134466	-0.083329	-0.218388
H118	H	-1.062645	-0.127777	-0.279873
H119	H	-0.649448	0.378281	-0.220680
C120	C	-1.106015	0.451658	0.500754
C121	C	-1.077749	0.555581	0.414097
C122	C	-1.055225	0.630853	0.442579
H123	H	-1.047719	0.438745	0.533925
H124	H	-1.168220	0.445146	0.545677
H125	H	-1.015550	0.562090	0.369191
H126	H	-1.136030	0.568528	0.380915
H127	H	-1.117430	0.624340	0.487502
H128	H	-0.996932	0.617930	0.475751
H129	H	-1.036054	0.701373	0.383789
C130	C	-1.215944	0.065232	0.595102
C131	C	-1.141054	0.013160	0.575139
C132	C	-1.171170	-0.096986	0.648955
H133	H	-1.285707	0.035996	0.593498
H134	H	-1.217391	0.055073	0.660325
H135	H	-1.139619	0.023311	0.509933
H136	H	-1.071285	0.042363	0.576751
H137	H	-1.172617	-0.107145	0.714178
H138	H	-1.240935	-0.126210	0.647346
H139	H	-1.120358	-0.132328	0.635426
C140	C	-1.425912	-0.130911	0.031097
C141	C	-1.359785	-0.095164	0.077784
C142	C	-1.420184	-0.057448	0.129535
H143	H	-1.484563	-0.187445	0.081318
H144	H	-1.453074	-0.073023	-0.015698
H145	H	-1.332640	-0.153046	0.124575
H146	H	-1.301135	-0.038621	0.027587
H147	H	-1.447346	0.000440	0.082740
H148	H	-1.478833	-0.113987	0.179750
H149	H	-1.375324	-0.033180	0.161210
H150	H	-0.922620	-0.340216	-0.399696
H151	H	-1.153070	0.318415	0.123651
C152	C	-1.283302	-0.159949	0.509123
C153	C	-1.200514	-0.190200	0.560707
C154	C	-1.230678	-0.300291	0.634697
H155	H	-1.295520	-0.199772	0.477461
H156	H	-1.347701	-0.174280	0.555998
H157	H	-1.136134	-0.175879	0.513839
H158	H	-1.188284	-0.150405	0.592390
H159	H	-1.295077	-0.314623	0.681573
H160	H	-1.242896	-0.340105	0.603027
H161	H	-1.174516	-0.320829	0.669712
H162	H	-1.234508	0.006129	0.541058
H163	H	-0.977972	-0.534187	-0.352356
C164	C	-1.297837	-0.199999	0.377821
C165	C	-1.215039	-0.230236	0.429395
C166	C	-1.245187	-0.340328	0.503385
H167	H	-1.310054	-0.239824	0.346161
H168	H	-1.362234	-0.214338	0.424703
H169	H	-1.150661	-0.215907	0.382520
H170	H	-1.202811	-0.190440	0.461076
H171	H	-1.309583	-0.354667	0.550267
H172	H	-1.257403	-0.380143	0.471716
H173	H	-1.189018	-0.360856	0.538393
H174	H	-1.275428	-0.106583	0.171555
H175	H	-1.253143	-0.592145	-0.116884
H176	H	-0.835389	0.302044	-0.205196
