data_functionalizedCrystal
_audit_creation_method	'MofGen! by Chris Wilmer'
_symmetry_space_group_name_H-M	'P1'
_symmetry_Int_Tables_number	1
_symmetry_cell_setting	triclinic
loop_
_symmetry_equiv_pos_as_xyz
  x,y,z
_cell_length_a	16.974800
_cell_length_b	14.519731
_cell_length_c	13.596369
_cell_angle_alpha	89.993185
_cell_angle_beta	93.650975
_cell_angle_gamma	83.539176
loop_
_atom_site_label
_atom_site_type_symbol
_atom_site_fract_x
_atom_site_fract_y
_atom_site_fract_z
O1	O	1.049322	0.117474	0.001762
O2	O	0.819138	0.132460	-0.016569
O3	O	0.940324	-0.009290	-0.006909
O4	O	0.928136	0.259224	-0.007898
O5	O	0.940311	-0.009297	0.156673
O6	O	0.819125	0.132453	0.147013
O7	O	1.049309	0.117467	0.165344
Zn8	Zn	0.934215	0.124959	0.182151
Zn9	Zn	0.934232	0.124968	-0.033376
O10	O	0.928122	0.259217	0.155684
C11	C	0.789672	0.131889	0.062876
C12	C	0.701893	0.130187	0.055886
C13	C	0.660651	0.129381	0.141772
C14	C	0.578175	0.127767	0.135207
C15	C	0.536941	0.126965	0.042754
C16	C	0.578188	0.127768	-0.043139
C17	C	0.660664	0.129376	-0.036573
C18	C	0.290277	0.122151	0.013554
C19	C	0.207795	0.120546	0.006994
C20	C	0.207788	0.120543	0.185341
C21	C	0.290264	0.122157	0.191899
C22	C	0.331505	0.122955	0.106006
N23	N	0.452637	0.125318	0.036041
N24	N	0.415809	0.124595	0.112720
C25	C	0.939746	-0.043651	0.074837
C26	C	0.938035	-0.146026	0.074701
C27	C	0.936645	-0.229165	0.074588
C28	C	0.934907	-0.333468	0.074442
C29	C	0.933528	-0.416603	0.074326
C30	C	0.931791	-0.520913	0.074182
C31	C	1.078775	0.118038	0.085897
C32	C	1.166554	0.119740	0.092881
C33	C	0.928700	0.293578	0.073936
C34	C	0.930412	0.395953	0.074066
N35	N	0.934208	0.124952	0.329242
C36	C	0.934225	0.124972	0.730534
C37	C	0.934218	0.124970	0.618882
C38	C	0.934217	0.124963	0.529892
C39	C	0.934209	0.124959	0.418233
N40	N	0.934237	0.124971	0.819533
H41	H	0.544602	0.127095	0.205145
H42	H	0.323832	0.122805	0.267184
O43	O	0.334753	0.123022	-0.079083
H44	H	0.292221	0.122206	-0.144471
O45	O	0.163258	0.120150	0.277975
H46	H	0.098962	0.119064	0.257880
O47	O	0.533720	0.126907	-0.142860
H48	H	0.469439	0.125665	-0.132999
O49	O	0.163323	0.119675	-0.092731
H50	H	0.118796	0.181775	-0.100551
O51	O	0.705156	0.130243	-0.129203
H52	H	0.682382	0.192764	-0.173782
H53	H	0.694218	0.130041	0.217057
