data_functionalizedCrystal
_audit_creation_method	'MofGen! by Chris Wilmer'
_symmetry_space_group_name_H-M	'P1'
_symmetry_Int_Tables_number	1
_symmetry_cell_setting	triclinic
loop_
_symmetry_equiv_pos_as_xyz
  x,y,z
_cell_length_a	21.395364
_cell_length_b	21.395362
_cell_length_c	21.395355
_cell_angle_alpha	90.020549
_cell_angle_beta	90.024552
_cell_angle_gamma	90.044742
loop_
_atom_site_label
_atom_site_type_symbol
_atom_site_fract_x
_atom_site_fract_y
_atom_site_fract_z
Zn1	Zn	0.957863	-0.249261	0.354253
Zn2	Zn	1.291197	0.084072	0.687586
Zn3	Zn	1.624530	0.417406	1.020919
Zn4	Zn	0.957767	-0.354021	0.249471
Zn5	Zn	1.291101	-0.020688	0.582805
Zn6	Zn	1.624434	0.312646	0.916138
Zn7	Zn	0.853078	-0.249289	0.249489
Zn8	Zn	1.186412	0.084045	0.582823
Zn9	Zn	1.519745	0.417378	0.916156
Zn10	Zn	0.853049	-0.354032	0.354212
Zn11	Zn	1.186382	-0.020699	0.687545
Zn12	Zn	1.519716	0.312634	1.020878
O13	O	0.905439	-0.301651	0.301856
O14	O	1.238773	0.031683	0.635190
O15	O	1.572106	0.365016	0.968523
O16	O	1.045528	-0.263142	0.340363
O17	O	1.378862	0.070192	0.673696
O18	O	1.712195	0.403525	1.007030
O19	O	0.943852	-0.340135	0.161796
O20	O	1.277186	-0.006801	0.495129
O21	O	1.610519	0.326532	0.828463
O22	O	0.867030	-0.161607	0.263411
O23	O	1.200364	0.171726	0.596744
O24	O	1.533697	0.505060	0.930078
O25	O	1.045458	-0.340108	0.263381
O26	O	1.378791	-0.006775	0.596714
O27	O	1.712125	0.326558	0.930047
O28	O	0.944016	-0.161587	0.340380
O29	O	1.277349	0.171746	0.673714
O30	O	1.610682	0.505080	1.007047
O31	O	0.866938	-0.263188	0.161809
O32	O	1.200271	0.070145	0.495142
O33	O	1.533604	0.403478	0.828476
O34	O	0.765396	-0.263199	0.263371
O35	O	1.098730	0.070134	0.596705
O36	O	1.432063	0.403467	0.930038
O37	O	0.866981	-0.340127	0.441895
O38	O	1.200314	-0.006794	0.775228
O39	O	1.533647	0.326539	1.108562
O40	O	0.765375	-0.340154	0.340310
O41	O	1.098708	-0.006821	0.673644
O42	O	1.432042	0.326513	1.006977
O43	O	0.943987	-0.263152	0.441925
O44	O	1.277321	0.070181	0.775258
O45	O	1.610654	0.403514	1.108592
O46	O	0.943824	-0.441700	0.263341
O47	O	1.277157	-0.108367	0.596674
O48	O	1.610491	0.224966	0.930007
O49	O	0.866888	-0.441709	0.340293
O50	O	1.200221	-0.108375	0.673626
O51	O	1.533555	0.224958	1.006960
C52	C	0.742652	-0.301681	0.301839
C53	C	1.075985	0.031652	0.635172
C54	C	1.409318	0.364985	0.968505
C55	C	0.673011	-0.301709	0.301846
C56	C	1.006344	0.031624	0.635179
C57	C	1.339677	0.364957	0.968513
C58	C	0.640356	-0.261698	0.341993
C59	C	0.973690	0.071635	0.675326
C60	C	1.307023	0.404968	1.008659
C61	C	0.574921	-0.261682	0.341995
C62	C	0.908254	0.071652	0.675328
C63	C	1.241588	0.404985	1.008662
C64	C	0.542142	-0.301687	0.301857
C65	C	0.875476	0.031646	0.635191
C66	C	1.208809	0.364979	0.968524
C67	C	0.574804	-0.341701	0.261703
C68	C	0.908138	-0.008368	0.595036
C69	C	1.241471	0.324966	0.928370
C70	C	0.640238	-0.341712	0.261697
C71	C	0.973572	-0.008379	0.595031
C72	C	1.306905	0.324955	0.928364
C73	C	0.438419	-0.358112	0.296818
C74	C	0.771752	-0.024779	0.630151
C75	C	1.105085	0.308555	0.963484
C76	C	0.372986	-0.358102	0.296828
C77	C	0.706319	-0.024769	0.630161
C78	C	1.039652	0.308565	0.963495
C79	C	0.340322	-0.301653	0.301871
C80	C	0.673655	0.031681	0.635205
C81	C	1.006988	0.365014	0.968538
C82	C	0.373098	-0.245212	0.306918
C83	C	0.706432	0.088121	0.640251
C84	C	1.039765	0.421455	0.973584
C85	C	0.438532	-0.245223	0.306912
C86	C	0.771866	0.088110	0.640245
C87	C	1.105199	0.421444	0.973579
C88	C	0.471190	-0.301679	0.301859
C89	C	0.804523	0.031654	0.635192
C90	C	1.137857	0.364987	0.968525
C91	C	0.236715	-0.261620	0.342023
C92	C	0.570048	0.071713	0.675356
C93	C	0.903382	0.405046	1.008689
C94	C	0.171278	-0.261603	0.342021
C95	C	0.504612	0.071731	0.675354
C96	C	0.837945	0.405064	1.008687
C97	C	0.171163	-0.341627	0.261732
C98	C	0.504496	-0.008294	0.595065
C99	C	0.837829	0.325039	0.928399
C100	C	0.236598	-0.341640	0.261731
C101	C	0.569931	-0.008306	0.595064
C102	C	0.903265	0.325027	0.928397
C103	C	0.269370	-0.301637	0.301879
C104	C	0.602704	0.031696	0.635213
C105	C	0.936037	0.365030	0.968546
C106	C	0.905359	-0.464438	0.301824
C107	C	1.238693	-0.131105	0.635157
C108	C	1.572026	0.202228	0.968491
C109	C	0.905382	-0.534080	0.301831
C110	C	1.238716	-0.200746	0.635165
C111	C	1.572049	0.132587	0.968498
C112	C	0.945446	-0.566725	0.341938
C113	C	1.278779	-0.233392	0.675271
C114	C	1.612112	0.099941	1.008604
C115	C	0.945468	-0.632161	0.341953
C116	C	1.278801	-0.298827	0.675286
C117	C	1.612134	0.034506	1.008620
C118	C	0.905433	-0.664948	0.301851
C119	C	1.238766	-0.331615	0.635184
C120	C	1.572100	0.001719	0.968517
C121	C	0.865362	-0.632294	0.261742
C122	C	1.198695	-0.298961	0.595075
C123	C	1.532029	0.034372	0.928408
C124	C	0.865337	-0.566860	0.261732
C125	C	1.198670	-0.233527	0.595065
C126	C	1.532003	0.099806	0.928399
C127	C	0.900556	-0.768649	0.245412
C128	C	1.233889	-0.435316	0.578745
C129	C	1.567223	-0.101983	0.912079
C130	C	0.900586	-0.834082	0.245421
C131	C	1.233919	-0.500749	0.578754
C132	C	1.567252	-0.167416	0.912087
C133	C	0.905507	-0.866769	0.301881
C134	C	1.238841	-0.533435	0.635214
C135	C	1.572174	-0.200102	0.968548
C136	C	0.910413	-0.834014	0.358334
C137	C	1.243746	-0.500680	0.691668
C138	C	1.577079	-0.167347	1.025001
C139	C	0.910387	-0.768580	0.358325
C140	C	1.243721	-0.435246	0.691658
C141	C	1.577054	-0.101913	1.024991
C142	C	0.905456	-0.735900	0.301857
C143	C	1.238789	-0.402567	0.635190
C144	C	1.572122	-0.069234	0.968524
C145	C	0.945597	-0.970367	0.342007
C146	C	1.278930	-0.637034	0.675341
C147	C	1.612263	-0.303700	1.008674
C148	C	0.945614	-1.035803	0.342024
C149	C	1.278948	-0.702470	0.675357
C150	C	1.612281	-0.369137	1.008690
C151	C	0.865512	-1.035936	0.261807
C152	C	1.198845	-0.702602	0.595140
C153	C	1.532179	-0.369269	0.928473
C154	C	0.865491	-0.970500	0.261796
C155	C	1.198824	-0.637167	0.595129
C156	C	1.532158	-0.303834	0.928463
C157	C	0.905537	-0.937720	0.301895
C158	C	1.238870	-0.604387	0.635229
C159	C	1.572203	-0.271053	0.968562
C160	C	1.068863	-0.301621	0.301874
C161	C	1.402196	0.031713	0.635208
C162	C	1.735529	0.365046	0.968541
C163	C	1.138504	-0.301608	0.301882
C164	C	1.471837	0.031726	0.635215
C165	C	1.805171	0.365059	0.968549
C166	C	0.905491	-0.301638	0.465280
C167	C	1.238825	0.031695	0.798613
C168	C	1.572158	0.365029	1.131946
C169	C	0.905514	-0.301633	0.534921
C170	C	1.238847	0.031701	0.868254
C171	C	1.572180	0.365034	1.201588
C172	C	0.905537	-0.138227	0.301902
C173	C	1.238870	0.195106	0.635236
C174	C	1.572204	0.528439	0.968569
C175	C	0.905578	-0.068586	0.301922
C176	C	1.238912	0.264747	0.635255
C177	C	1.572245	0.598081	0.968588
C178	C	0.905424	-0.301618	0.139069
C179	C	1.238757	0.031715	0.472402
C180	C	1.572090	0.365049	0.805735
C181	C	0.905523	-0.301447	0.069428
C182	C	1.238856	0.031886	0.402761
C183	C	1.572190	0.365220	0.736094
C184	C	0.945609	-0.261550	0.567651
C185	C	1.278943	0.071783	0.900984
C186	C	1.612276	0.405117	1.234317
C187	C	0.945608	-0.261523	0.633086
C188	C	1.278942	0.071810	0.966419
C189	C	1.612275	0.405143	1.299753
C190	C	0.905519	-0.301590	0.665789
C191	C	1.238852	0.031743	0.999123
C192	C	1.572185	0.365077	1.332456
C193	C	0.865415	-0.341675	0.633052
C194	C	1.198748	-0.008342	0.966385
C195	C	1.532082	0.324991	1.299718
C196	C	0.865413	-0.341697	0.567617
C197	C	1.198746	-0.008363	0.900951
C198	C	1.532079	0.324970	1.234284
C199	C	0.900543	-0.358007	0.769453
C200	C	1.233877	-0.024673	1.102786
C201	C	1.567210	0.308660	1.436119
C202	C	0.900550	-0.357986	0.834886
C203	C	1.233884	-0.024653	1.168219
C204	C	1.567217	0.308680	1.501552
C205	C	0.905522	-0.301524	0.867610
C206	C	1.238856	0.031810	1.200943
C207	C	1.572189	0.365143	1.534277
C208	C	0.910501	-0.245080	0.834893
C209	C	1.243834	0.088254	1.168227
C210	C	1.577167	0.421587	1.501560
C211	C	0.910498	-0.245101	0.769459
C212	C	1.243832	0.088232	1.102793
C213	C	1.577165	0.421566	1.436126
C214	C	0.905516	-0.301571	0.736742
C215	C	1.238850	0.031762	1.070075
C216	C	1.572183	0.365096	1.403408
C217	C	0.945619	-0.261409	0.971293
C218	C	1.278953	0.071925	1.304626
C219	C	1.612286	0.405258	1.637959
C220	C	0.945614	-0.261381	1.036729
C221	C	1.278947	0.071953	1.370063
C222	C	1.612281	0.405286	1.703396
C223	C	0.865424	-0.341538	1.036693
C224	C	1.198757	-0.008205	1.370027
C225	C	1.532091	0.325128	1.703360
C226	C	0.865426	-0.341561	0.971258
C227	C	1.198759	-0.008227	1.304591
C228	C	1.532093	0.325106	1.637925
C229	C	0.905527	-0.301497	0.938561
C230	C	1.238860	0.031837	1.271895
C231	C	1.572194	0.365170	1.605228
H232	H	0.666825	-0.374295	0.229004
H233	H	1.000158	-0.040961	0.562337
H234	H	1.333492	0.292372	0.895671
H235	H	0.548329	-0.229097	0.374686
H236	H	0.881662	0.104236	0.708020
H237	H	1.214996	0.437570	1.041353
N238	N	0.822156	-0.384928	0.532320
N239	N	1.155489	-0.051595	0.865654
N240	N	1.488822	0.281738	1.198987
H241	H	0.831854	-0.429691	0.543711
H242	H	1.165187	-0.096357	0.877044
H243	H	1.498521	0.236976	1.210378
H244	H	0.828252	-0.378813	0.485916
H245	H	1.161586	-0.045479	0.819250
H246	H	1.494919	0.287854	1.152583
N247	N	0.915664	-0.733252	0.419210
N248	N	1.248997	-0.399919	0.752543
N249	N	1.582330	-0.066586	1.085877
H250	H	0.914899	-0.686842	0.410634
H251	H	1.248232	-0.353508	0.743967
H252	H	1.581565	-0.020175	1.077301
H253	H	0.956203	-0.744628	0.440546
H254	H	1.289537	-0.411294	0.773880
H255	H	1.622870	-0.077961	1.107213
N256	N	0.822289	-0.935287	0.218527
N257	N	1.155622	-0.601954	0.551860
N258	N	1.488956	-0.268620	0.885194
H259	H	0.828348	-0.888860	0.224605
H260	H	1.161681	-0.555527	0.557938
H261	H	1.495015	-0.222193	0.891272
H262	H	0.777540	-0.946770	0.228237
H263	H	1.110873	-0.613437	0.561570
H264	H	1.444207	-0.280104	0.894904
H265	H	0.263185	-0.374223	0.229041
H266	H	0.596519	-0.040890	0.562375
H267	H	0.929852	0.292443	0.895708
H268	H	0.896327	-0.403973	0.742814
H269	H	1.229660	-0.070640	1.076148
H270	H	1.562994	0.262693	1.409481
N271	N	0.822335	-1.071292	0.218549
N272	N	1.155669	-0.737958	0.551883
N273	N	1.489002	-0.404625	0.885216
H274	H	0.796953	-1.040678	0.193137
H275	H	1.130287	-0.707345	0.526470
H276	H	1.463620	-0.374012	0.859804
H277	H	0.793337	-1.098461	0.244030
H278	H	1.126670	-0.765128	0.577363
H279	H	1.460003	-0.431795	0.910696
H280	H	0.914550	-0.199143	0.742824
H281	H	1.247884	0.134191	1.076157
H282	H	1.581217	0.467524	1.409491
N283	N	0.988857	-0.218135	1.072026
N284	N	1.322190	0.115199	1.405359
N285	N	1.655524	0.448532	1.738692
H286	H	1.033618	-0.227862	1.060659
H287	H	1.366952	0.105471	1.393992
H288	H	1.700285	0.438805	1.727325
H289	H	0.982722	-0.224210	1.118430
H290	H	1.316055	0.109123	1.451763
H291	H	1.649388	0.442456	1.785096
N292	N	0.988683	-0.667378	0.385213
N293	N	1.322016	-0.334045	0.718546
N294	N	1.655349	-0.000711	1.051879
H295	H	1.033449	-0.655943	0.375515
H296	H	1.366782	-0.322610	0.708848
H297	H	1.700115	0.010723	1.042182
H298	H	0.982570	-0.713793	0.379113
H299	H	1.315903	-0.380460	0.712446
H300	H	1.649236	-0.047127	1.045780
H301	H	0.978051	-0.540037	0.374591
H302	H	1.311385	-0.206704	0.707924
H303	H	1.644718	0.126629	1.041257
N304	N	0.337636	-0.418973	0.291385
N305	N	0.670970	-0.085640	0.624719
N306	N	1.004303	0.247693	0.958052
H307	H	0.368256	-0.454734	0.288180
H308	H	0.701590	-0.121401	0.621513
H309	H	1.034923	0.211932	0.954847
H310	H	0.310469	-0.418004	0.252784
H311	H	0.643802	-0.084670	0.586117
H312	H	0.977135	0.248663	0.919450
H313	H	0.978202	-0.943676	0.374661
H314	H	1.311536	-0.610343	0.707994
H315	H	1.644869	-0.277009	1.041328
H316	H	0.465216	-0.199267	0.311019
H317	H	0.798550	0.134066	0.644352
H318	H	1.131883	0.467400	0.977686
N319	N	0.988877	-0.218203	0.936029
N320	N	1.322210	0.115131	1.269362
N321	N	1.655544	0.448464	1.602696
H322	H	1.017898	-0.243679	0.908902
H323	H	1.351231	0.089654	1.242236
H324	H	1.684564	0.422988	1.575569
H325	H	1.014232	-0.192819	0.966742
H326	H	1.347566	0.140514	1.300075
H327	H	1.680899	0.473848	1.633409
H328	H	0.896595	-0.860746	0.199453
H329	H	1.229929	-0.527413	0.532786
H330	H	1.563262	-0.194080	0.866119
N331	N	0.895241	-0.733398	0.184512
N332	N	1.228574	-0.400065	0.517846
N333	N	1.561907	-0.066731	0.851179
H334	H	0.892142	-0.764075	0.148752
H335	H	1.225475	-0.430742	0.482086
H336	H	1.558808	-0.097408	0.815419
H337	H	0.933407	-0.706206	0.178724
H338	H	1.266741	-0.372873	0.512058
H339	H	1.600074	-0.039539	0.845391
N340	N	0.822171	-0.384880	0.668328
N341	N	1.155504	-0.051547	1.001661
N342	N	1.488838	0.281787	1.334995
H343	H	0.847614	-0.413903	0.695487
H344	H	1.180947	-0.080570	1.028821
H345	H	1.514280	0.252763	1.362154
H346	H	0.796772	-0.410235	0.637628
H347	H	1.130106	-0.076902	0.970961
H348	H	1.463439	0.256431	1.304294
H349	H	0.832764	-0.658994	0.229091
H350	H	1.166098	-0.325660	0.562425
H351	H	1.499431	0.007673	0.895758
H352	H	0.914421	-0.860625	0.404310
H353	H	1.247755	-0.527292	0.737643
H354	H	1.581088	-0.193959	1.070977
H355	H	0.263399	-0.229044	0.374710
H356	H	0.596733	0.104289	0.708044
H357	H	0.930066	0.437623	1.041377
N358	N	0.675703	-0.218554	0.385293
N359	N	1.009037	0.114780	0.718626
N360	N	1.342370	0.448113	1.051959
H361	H	0.645084	-0.193204	0.410726
H362	H	0.978417	0.140130	0.744059
H363	H	1.311751	0.473463	1.077392
H364	H	0.702866	-0.189523	0.359841
H365	H	1.036200	0.143810	0.693174
H366	H	1.369533	0.477143	1.026507
H367	H	0.144475	-0.374200	0.229051
H368	H	0.477808	-0.040867	0.562384
H369	H	0.811142	0.292466	0.895718
N370	N	0.988804	-1.071018	0.385307
N371	N	1.322137	-0.737684	0.718640
N372	N	1.655470	-0.404351	1.051974
H373	H	1.014161	-1.040320	0.410712
H374	H	1.347494	-0.706986	0.744045
H375	H	1.680827	-0.373653	1.077379
H376	H	1.017826	-1.098160	0.359853
H377	H	1.351159	-0.764827	0.693186
H378	H	1.684493	-0.431493	1.026520
N379	N	0.822125	-0.531645	0.218471
N380	N	1.155459	-0.198311	0.551805
N381	N	1.488792	0.135022	0.885138
H382	H	0.796765	-0.562342	0.193069
H383	H	1.130098	-0.229008	0.526402
H384	H	1.463431	0.104325	0.859735
H385	H	0.847636	-0.504483	0.189495
H386	H	1.180969	-0.171150	0.522828
H387	H	1.514303	0.162183	0.856162
H388	H	0.465009	-0.404083	0.292710
H389	H	0.798342	-0.070750	0.626044
H390	H	1.131675	0.262584	0.959377
N391	N	0.988851	-0.218324	0.532395
N392	N	1.322184	0.115009	0.865729
N393	N	1.655517	0.448343	1.199062
H394	H	0.963401	-0.189301	0.505243
H395	H	1.296734	0.144032	0.838576
H396	H	1.630067	0.477366	1.171909
H397	H	1.017867	-0.243824	0.505289
H398	H	1.351200	0.089510	0.838623
H399	H	1.684534	0.422843	1.171956
H400	H	0.978258	-0.228880	0.659740
H401	H	1.311591	0.104454	0.993073
H402	H	1.644924	0.437787	1.326407
H403	H	0.914551	-0.199103	0.861536
H404	H	1.247884	0.134231	1.194869
H405	H	1.581217	0.467564	1.528203
N406	N	0.822178	-0.384749	1.071956
N407	N	1.155511	-0.051416	1.405290
N408	N	1.488844	0.281917	1.738623
H409	H	0.828261	-0.378653	1.118376
H410	H	1.161594	-0.045319	1.451709
H411	H	1.494928	0.288014	1.785042
H412	H	0.831901	-0.429500	1.060523
H413	H	1.165234	-0.096166	1.393856
H414	H	1.498568	0.237167	1.727190
H415	H	0.832780	-0.374204	0.944609
H416	H	1.166113	-0.040871	1.277942
H417	H	1.499446	0.292463	1.611276
N418	N	0.895186	-0.418861	0.870171
N419	N	1.228519	-0.085528	1.203504
N420	N	1.561852	0.247805	1.536837
H421	H	0.892028	-0.454633	0.839512
H422	H	1.225361	-0.121299	1.172846
H423	H	1.558694	0.212034	1.506179
H424	H	0.856583	-0.417955	0.897306
H425	H	1.189916	-0.084622	1.230639
H426	H	1.523250	0.248712	1.563973
H427	H	0.346504	-0.199246	0.311025
H428	H	0.679838	0.134088	0.644358
H429	H	1.013171	0.467421	0.977691
N430	N	0.136063	-0.218434	0.385319
N431	N	0.469397	0.114899	0.718652
N432	N	0.802730	0.448233	1.051986
H433	H	0.147462	-0.228234	0.430068
H434	H	0.480795	0.105100	0.763401
H435	H	0.814128	0.438433	1.096734
H436	H	0.089648	-0.224507	0.379178
H437	H	0.422981	0.108826	0.712512
H438	H	0.756315	0.442160	1.045845
N439	N	0.539455	-0.384846	0.218406
N440	N	0.872788	-0.051512	0.551740
N441	N	1.206121	0.281821	0.885073
H442	H	0.493047	-0.378768	0.224502
H443	H	0.826380	-0.045435	0.557835
H444	H	1.159714	0.287898	0.891169
H445	H	0.550855	-0.429610	0.228071
H446	H	0.884188	-0.096277	0.561404
H447	H	1.217521	0.237056	0.894738
