data_functionalizedCrystal
_audit_creation_method	'MofGen! by Chris Wilmer'
_symmetry_space_group_name_H-M	'P1'
_symmetry_Int_Tables_number	1
_symmetry_cell_setting	triclinic
loop_
_symmetry_equiv_pos_as_xyz
  x,y,z
_cell_length_a	10.654541
_cell_length_b	12.837943
_cell_length_c	11.295483
_cell_angle_alpha	94.538773
_cell_angle_beta	94.135029
_cell_angle_gamma	90.343566
loop_
_atom_site_label
_atom_site_type_symbol
_atom_site_fract_x
_atom_site_fract_y
_atom_site_fract_z
O1	O	0.319125	-1.384727	-0.099003
O2	O	0.302983	-1.082806	-0.099010
O3	O	0.129073	-1.240709	-0.098999
O4	O	0.493035	-1.226824	-0.099014
O5	O	0.144321	-1.226840	0.099051
O6	O	0.318232	-1.068937	0.099040
O7	O	0.334373	-1.370858	0.099047
Cu8	Cu	0.327695	-1.218631	0.117127
Cu9	Cu	0.309662	-1.235033	-0.117090
O10	O	0.508284	-1.212955	0.099036
C11	C	0.305155	-1.037211	0.000014
C12	C	0.288892	-0.922018	0.000012
C13	C	0.089788	-1.232755	0.000025
C14	C	-0.049989	-1.229706	0.000023
C15	C	0.332202	-1.416452	0.000020
C16	C	0.348464	-1.531646	0.000015
C17	C	-0.057353	-1.418522	0.000043
C18	C	-0.126701	-1.511493	0.000055
C19	C	-0.258033	-1.508622	0.000051
C20	C	-0.320020	-1.412770	0.000031
C21	C	-0.250672	-1.319799	0.000019
C22	C	-0.119337	-1.322680	0.000027
C23	C	-0.243308	-1.130987	-0.000009
C24	C	-0.111975	-1.133855	0.000004
C25	C	-0.305294	-1.035135	-0.000028
C26	C	-0.235946	-0.942161	-0.000032
C27	C	-0.104606	-0.945036	-0.000027
C28	C	-0.042627	-1.040884	-0.000008
C29	C	0.547569	-1.220908	0.000009
C30	C	0.687344	-1.223958	0.000003
N31	N	0.340379	-1.207102	0.281862
C32	C	0.484397	-0.682463	0.000021
C33	C	0.469123	-0.574227	0.000019
C34	C	0.243071	-0.597309	0.000016
C35	C	0.258345	-0.705544	0.000017
C36	C	0.379012	-0.748117	0.000018
C37	C	0.394285	-0.856355	0.000011
C38	C	0.168234	-0.879434	0.000016
C39	C	0.152960	-0.771198	0.000014
N40	N	0.296969	-1.246569	-0.281825
C41	C	0.205592	-1.329558	0.531160
C42	C	0.215188	-1.320854	0.655823
C43	C	0.369157	-1.180983	0.655854
C44	C	0.359562	-1.189688	0.531191
C45	C	0.277778	-1.263979	0.468848
C46	C	0.268191	-1.272688	0.344183
C47	C	0.422153	-1.132814	0.344216
C48	C	0.431748	-1.124109	0.468879
H49	H	-0.076216	-1.589533	0.000081
H50	H	0.144837	-0.562620	0.000113
H51	H	0.492538	-0.891016	0.000013
O52	O	0.492220	-1.068955	0.283813
C53	C	0.541194	-0.891759	0.245639
C54	C	0.461784	-0.963947	0.314142
H55	H	0.516596	-0.806846	0.270116
H56	H	0.645397	-0.904205	0.270172
H57	H	0.520316	-0.910799	0.145836
H58	H	0.482554	-0.944952	0.413960
H59	H	0.357606	-0.951489	0.289510
H60	H	0.082421	-0.932903	0.000006
H61	H	-0.048151	-0.869327	-0.000042
O62	O	0.035740	-0.729875	0.000219
C63	C	-0.154286	-0.709362	0.102765
C64	C	-0.021546	-0.756193	0.102702
H65	H	-0.200651	-0.730641	0.185601
H66	H	-0.147175	-0.620715	0.102841
H67	H	-0.213339	-0.742123	0.019838
H68	H	0.037580	-0.723513	0.185615
H69	H	-0.028751	-0.844839	0.102563
H70	H	0.139010	-1.390056	0.480400
O71	O	-0.325281	-1.599011	-0.000098
C72	C	-0.379730	-1.766677	-0.102719
C73	C	-0.303484	-1.664374	-0.102684
H74	H	-0.362154	-1.819541	-0.185664
H75	H	-0.349335	-1.808067	-0.019886
H76	H	-0.484230	-1.748123	-0.102667
H77	H	-0.198967	-1.682837	-0.102779
H78	H	-0.333984	-1.623013	-0.185511
H79	H	-0.426958	-1.410442	0.000014
O80	O	0.448434	-1.108674	0.716377
C81	C	0.503326	-0.926140	0.754526
C82	C	0.413445	-1.007921	0.685926
H83	H	0.475087	-0.844663	0.729913
H84	H	0.497755	-0.931096	0.854341
H85	H	0.603745	-0.942131	0.730047
H86	H	0.312987	-0.991983	0.710306
H87	H	0.419126	-1.002946	0.586128
O88	O	0.188645	-1.344875	0.283805
C89	C	0.036990	-1.482723	0.296939
C90	C	0.127008	-1.401003	0.365460
H91	H	-0.012849	-1.528140	0.362926
H92	H	-0.035758	-1.441604	0.238619
H93	H	0.093011	-1.538977	0.238529
H94	H	0.071092	-1.344726	0.423934
H95	H	0.199757	-1.442192	0.423704
H96	H	0.498331	-1.063619	0.519652
H97	H	0.156405	-1.374254	0.706554
H98	H	0.582649	-0.717126	0.000019
H99	H	0.049585	-1.420868	0.000062
H100	H	-0.286427	-0.864127	-0.000055
H101	H	-0.412232	-1.032805	-0.000039
H102	H	0.064310	-1.043233	0.000003
H103	H	0.554939	-0.520775	0.000025
