data_functionalizedCrystal
_audit_creation_method	'MofGen! by Chris Wilmer'
_symmetry_space_group_name_H-M	'P1'
_symmetry_Int_Tables_number	1
_symmetry_cell_setting	triclinic
loop_
_symmetry_equiv_pos_as_xyz
  x,y,z
_cell_length_a	19.077105
_cell_length_b	16.120484
_cell_length_c	19.076919
_cell_angle_alpha	95.046610
_cell_angle_beta	90.076224
_cell_angle_gamma	90.738523
loop_
_atom_site_label
_atom_site_type_symbol
_atom_site_fract_x
_atom_site_fract_y
_atom_site_fract_z
Zn1	Zn	1.040337	-0.403262	-0.456942
Zn2	Zn	1.540337	0.096738	0.043058
Zn3	Zn	1.039017	-0.537287	-0.344927
Zn4	Zn	1.539017	-0.037287	0.155073
Zn5	Zn	0.928051	-0.392095	-0.334278
Zn6	Zn	1.428051	0.107905	0.165722
Zn7	Zn	0.916861	-0.536784	-0.457659
Zn8	Zn	1.416861	-0.036784	0.042341
O9	O	0.981066	-0.467357	-0.398451
O10	O	1.481066	0.032643	0.101549
O11	O	1.138276	-0.425924	-0.446240
O12	O	1.638276	0.074076	0.053760
O13	O	1.028428	-0.513564	-0.245000
O14	O	1.528428	-0.013564	0.255000
O15	O	0.948182	-0.276934	-0.345793
O16	O	1.448182	0.223066	0.154207
O17	O	1.137306	-0.524392	-0.363943
O18	O	1.637306	-0.024392	0.136057
O19	O	1.030678	-0.285138	-0.435913
O20	O	1.530678	0.214862	0.064087
O21	O	0.946902	-0.406892	-0.237176
O22	O	1.446902	0.093108	0.262824
O23	O	0.828452	-0.406405	-0.346488
O24	O	1.328452	0.093595	0.153512
O25	O	0.929109	-0.523535	-0.556078
O26	O	1.429109	-0.023535	-0.056078
O27	O	0.820230	-0.512707	-0.437136
O28	O	1.320230	-0.012707	0.062864
O29	O	1.019827	-0.425436	-0.555551
O30	O	1.519827	0.074564	-0.055551
O31	O	1.017576	-0.653863	-0.364638
O32	O	1.517576	-0.153863	0.135362
O33	O	0.927829	-0.653494	-0.447462
O34	O	1.427829	-0.153494	0.052538
C35	C	0.798901	-0.458290	-0.390734
C36	C	1.298901	0.041710	0.109266
C37	C	0.720969	-0.454433	-0.387451
C38	C	1.220969	0.045567	0.112549
C39	C	0.680093	-0.508043	-0.433036
C40	C	1.180093	-0.008043	0.066964
C41	C	0.606867	-0.504408	-0.429953
C42	C	1.106867	-0.004408	0.070047
C43	C	0.574519	-0.447165	-0.381281
C44	C	1.074519	0.052835	0.118719
C45	C	0.615400	-0.393548	-0.335694
C46	C	1.115400	0.106452	0.164306
C47	C	0.688624	-0.397180	-0.338781
C48	C	1.188624	0.102820	0.161219
C49	C	0.355979	-0.430354	-0.367000
C50	C	0.855979	0.069646	0.133000
C51	C	0.282749	-0.426728	-0.363916
C52	C	0.782749	0.073272	0.136084
C53	C	0.274222	-0.537586	-0.458176
C54	C	0.774222	-0.037586	0.041824
C55	C	0.347448	-0.541217	-0.461255
C56	C	0.847448	-0.041217	0.038745
C57	C	0.388323	-0.487598	-0.415670
C58	C	0.888323	0.012402	0.084330
N59	N	0.499670	-0.443449	-0.378128
N60	N	0.999670	0.056551	0.121872
N61	N	0.463169	-0.491310	-0.418828
N62	N	0.963169	0.008690	0.081172
C63	C	0.971363	-0.683924	-0.407299
C64	C	1.471363	-0.183924	0.092701
C65	C	0.967276	-0.776577	-0.411111
C66	C	1.467276	-0.276577	0.088889
C67	C	0.959816	-0.946215	-0.418084
C68	C	1.459816	-0.446215	0.081916
C69	C	1.002442	-0.987665	-0.378836
C70	C	1.502442	-0.487665	0.121164
C71	C	0.998291	-1.082058	-0.382716
C72	C	1.498291	-0.582058	0.117284
C73	C	0.963966	-0.851814	-0.414205
C74	C	1.463966	-0.351814	0.085795
C75	C	1.163943	-0.476459	-0.406199
C76	C	1.663943	0.023541	0.093801
C77	C	1.241874	-0.480338	-0.409501
C78	C	1.741874	0.019662	0.090499
C79	C	0.973367	-0.475675	-0.582072
C80	C	1.473367	0.024325	-0.082072
C81	C	0.970086	-0.479220	-0.660321
C82	C	1.470086	0.020780	-0.160321
C83	C	0.990826	-0.249946	-0.389585
C84	C	1.490826	0.250054	0.110415
C85	C	0.994984	-0.157298	-0.385807
C86	C	1.494984	0.342702	0.114193
C87	C	1.015774	-0.429813	-0.696809
C88	C	1.515774	0.070187	-0.196809
C89	C	1.012683	-0.433140	-0.770331
C90	C	1.512683	0.066860	-0.270331
C91	C	0.963906	-0.485879	-0.807364
C92	C	1.463906	0.014121	-0.307364
C93	C	0.918214	-0.535288	-0.770871
C94	C	1.418214	-0.035288	-0.270871
C95	C	0.921302	-0.531956	-0.697350
C96	C	1.421302	-0.031956	-0.197350
C97	C	0.949602	-0.501317	-1.027278
C98	C	1.449602	-0.001317	-0.527278
C99	C	0.946518	-0.504647	-1.100804
C100	C	1.446518	-0.004647	-0.600804
C101	C	1.040987	-0.402498	-1.100259
C102	C	1.540987	0.097502	-0.600259
C103	C	1.044074	-0.399174	-1.026737
C104	C	1.544074	0.100826	-0.526737
C105	C	0.998378	-0.448580	-0.990250
C106	C	1.498378	0.051420	-0.490250
N107	N	0.960747	-0.489283	-0.882516
N108	N	1.460747	0.010717	-0.382516
N109	N	1.001535	-0.445171	-0.915099
N110	N	1.501535	0.054829	-0.415099
C111	C	0.988779	-0.459013	-0.215544
C112	C	1.488779	0.040987	0.284456
C113	C	0.992206	-0.455240	-0.137292
C114	C	1.492206	0.044760	0.362708
H115	H	0.573589	-0.548064	-0.467073
H116	H	1.073589	-0.048064	0.032927
C117	C	1.055366	-0.940516	-0.330233
C118	C	1.555366	-0.440516	0.169767
C119	C	1.123178	-0.965660	-0.349407
C120	C	1.623178	-0.465660	0.150593
C121	C	1.171945	-0.922232	-0.304657
C122	C	1.671945	-0.422232	0.195343
H123	H	1.046603	-0.952088	-0.283044
H124	H	1.546603	-0.452088	0.216956
H125	H	1.051217	-0.882422	-0.334071
H126	H	1.551217	-0.382422	0.165929
H127	H	1.127325	-1.023740	-0.345564
H128	H	1.627325	-0.523740	0.154436
H129	H	1.131964	-0.954086	-0.396589
H130	H	1.631964	-0.454086	0.103411
H131	H	1.167797	-0.864138	-0.308494
H132	H	1.667797	-0.364138	0.191506
H133	H	1.163176	-0.933808	-0.257471
H134	H	1.663176	-0.433808	0.242529
H135	H	1.217962	-0.939280	-0.317664
H136	H	1.717962	-0.439280	0.182336
C137	C	0.907020	-0.993563	-0.466697
C138	C	1.407020	-0.493563	0.033303
C139	C	0.913333	-1.079127	-0.460904
C140	C	1.413333	-0.579127	0.039096
C141	C	0.864702	-1.122780	-0.505665
C142	C	1.364702	-0.622780	-0.005665
H143	H	0.915816	-0.982064	-0.513898
H144	H	1.415816	-0.482064	-0.013898
H145	H	0.860948	-0.976640	-0.453779
H146	H	1.360948	-0.476640	0.046221
H147	H	0.959395	-1.096045	-0.473827
H148	H	1.459395	-0.596045	0.026173
H149	H	0.904531	-1.090651	-0.413713
H150	H	1.404531	-0.590651	0.086287
H151	H	0.818630	-1.105856	-0.492746
H152	H	1.318630	-0.605856	0.007254
H153	H	0.873502	-1.111274	-0.552863
H154	H	1.373502	-0.611274	-0.052863
H155	H	0.868974	-1.180839	-0.501736
H156	H	1.368974	-0.680839	-0.001736
H157	H	0.906796	-0.547595	-1.130954
H158	H	1.406796	-0.047595	-0.630954
H159	H	1.055495	-0.386870	-0.666662
H160	H	1.555495	0.113130	-0.166662
C161	C	0.247495	-0.364635	-0.311115
C162	C	0.747495	0.135365	0.188885
C163	C	0.174620	-0.372941	-0.318166
C164	C	0.674620	0.127059	0.181834
C165	C	0.142121	-0.315757	-0.269542
C166	C	0.642121	0.184243	0.230458
H167	H	0.261493	-0.309682	-0.319687
H168	H	0.761493	0.190318	0.180313
H169	H	0.260878	-0.375174	-0.264772
H170	H	0.760878	0.124826	0.235228
H171	H	0.161242	-0.362395	-0.364498
H172	H	0.661242	0.137605	0.135502
H173	H	0.160602	-0.427880	-0.309587
H174	H	0.660602	0.072120	0.190413
H175	H	0.155504	-0.326297	-0.223199
H176	H	0.655504	0.173703	0.276801
H177	H	0.156124	-0.260809	-0.278119
H178	H	0.656124	0.239191	0.221881
H179	H	0.092672	-0.321390	-0.274315
H180	H	0.592672	0.178610	0.225685
H181	H	1.049888	-0.392910	-0.800037
H182	H	1.549888	0.107090	-0.300037
H183	H	1.078188	-0.362273	-1.129975
H184	H	1.578188	0.137727	-0.629975
H185	H	1.083794	-0.356231	-0.996590
H186	H	1.583794	0.143769	-0.496590
C187	C	0.899946	-0.555039	-0.987798
C188	C	1.399946	-0.055039	-0.487798
C189	C	0.856579	-0.601947	-1.035970
C190	C	1.356579	-0.101947	-0.535970
C191	C	0.810826	-0.651448	-0.999624
C192	C	1.310826	-0.151448	-0.499624
H193	H	0.871969	-0.520409	-0.956528
H194	H	1.371969	-0.020409	-0.456528
H195	H	0.926307	-0.591443	-0.961743
H196	H	1.426307	-0.091443	-0.461743
H197	H	0.830220	-0.565547	-1.062012
H198	H	1.330220	-0.065547	-0.562012
H199	H	0.884536	-0.636594	-1.067241
H200	H	1.384536	-0.136594	-0.567241
H201	H	0.837187	-0.687852	-0.973569
H202	H	1.337187	-0.187852	-0.473569
H203	H	0.782854	-0.616812	-0.968355
H204	H	1.282854	-0.116812	-0.468355
H205	H	0.781400	-0.683287	-1.032303
H206	H	1.281400	-0.183287	-0.532303
C207	C	0.865365	-0.592658	-0.811123
C208	C	1.365365	-0.092658	-0.311123
C209	C	0.900894	-0.649987	-0.857180
C210	C	1.400894	-0.149987	-0.357180
C211	C	0.852234	-0.702859	-0.894263
C212	C	1.352234	-0.202859	-0.394263
H213	H	0.835024	-0.560650	-0.837269
H214	H	1.335024	-0.060650	-0.337269
H215	H	0.838605	-0.621655	-0.778885
H216	H	1.338605	-0.121655	-0.278885
H217	H	0.927642	-0.620992	-0.889413
H218	H	1.427642	-0.120992	-0.389413
H219	H	0.931232	-0.682014	-0.831052
H220	H	1.431232	-0.182014	-0.331052
H221	H	0.825474	-0.731856	-0.862026
H222	H	1.325474	-0.231856	-0.362026
H223	H	0.821895	-0.670844	-0.920405
H224	H	1.321895	-0.170844	-0.420405
H225	H	0.876334	-0.741767	-0.925512
H226	H	1.376334	-0.241767	-0.425512
H227	H	0.884091	-0.572180	-0.667641
H228	H	1.384091	-0.072180	-0.167641
H229	H	0.706425	-0.554659	-0.472667
H230	H	1.206425	-0.054659	0.027333
C231	C	0.229722	-0.595694	-0.507634
C232	C	0.729722	-0.095694	-0.007634
C233	C	0.158671	-0.580250	-0.494530
C234	C	0.658671	-0.080250	0.005470
C235	C	0.117658	-0.633755	-0.540088
C236	C	0.617658	-0.133755	-0.040088
H237	H	0.239560	-0.651838	-0.500092
H238	H	0.739560	-0.151838	-0.000092
H239	H	0.240251	-0.586309	-0.554975
H240	H	0.740251	-0.086309	-0.054975
H241	H	0.148146	-0.589642	-0.447200
H242	H	0.648146	-0.089642	0.052800
H243	H	0.148811	-0.524117	-0.502077
H244	H	0.648811	-0.024117	-0.002077
H245	H	0.128187	-0.624370	-0.587429
H246	H	0.628187	-0.124370	-0.087429
H247	H	0.127503	-0.689896	-0.532542
H248	H	0.627503	-0.189896	-0.032542
H249	H	0.069446	-0.623279	-0.531207
H250	H	0.569446	-0.123279	-0.031207
C251	C	0.382436	-0.603396	-0.514173
C252	C	0.882436	-0.103396	-0.014173
C253	C	0.330965	-0.649556	-0.553447
C254	C	0.830965	-0.149556	-0.053447
C255	C	0.363170	-0.706839	-0.602205
C256	C	0.863170	-0.206839	-0.102205
H257	H	0.410498	-0.639935	-0.489957
H258	H	0.910498	-0.139935	0.010043
H259	H	0.411128	-0.574397	-0.544833
H260	H	0.911128	-0.074397	-0.044833
H261	H	0.302285	-0.678554	-0.522792
H262	H	0.802285	-0.178554	-0.022792
H263	H	0.302900	-0.613039	-0.577678
H264	H	0.802900	-0.113039	-0.077678
H265	H	0.391862	-0.677839	-0.632865
H266	H	0.891862	-0.177839	-0.132865
H267	H	0.391231	-0.743372	-0.577984
H268	H	0.891231	-0.243372	-0.077984
H269	H	0.328252	-0.738160	-0.628864
H270	H	0.828252	-0.238160	-0.128864
H271	H	0.589056	-0.346936	-0.296068
H272	H	1.089056	0.153064	0.203932
C273	C	0.400229	-0.372099	-0.317426
C274	C	0.900229	0.127901	0.182574
C275	C	0.356224	-0.321208	-0.274131
C276	C	0.856224	0.178792	0.225869
C277	C	0.396966	-0.267536	-0.228448
C278	C	0.896966	0.232464	0.271552
H279	H	0.429298	-0.338390	-0.344050
H280	H	0.929298	0.161610	0.155950
H281	H	0.428642	-0.403925	-0.289171
H282	H	0.928642	0.096075	0.210829
H283	H	0.327824	-0.289384	-0.302383
H284	H	0.827824	0.210616	0.197617
H285	H	0.327156	-0.354893	-0.247491
H286	H	0.827156	0.145107	0.252509
H287	H	0.425378	-0.299362	-0.200193
H288	H	0.925378	0.200638	0.299807
H289	H	0.426032	-0.233833	-0.255078
H290	H	0.926032	0.266167	0.244922
H291	H	0.367114	-0.233006	-0.199062
H292	H	0.867114	0.266994	0.300938
C293	C	0.732885	-0.338938	-0.289200
C294	C	1.232885	0.161062	0.210800
C295	C	0.688885	-0.288046	-0.245899
C296	C	1.188885	0.211954	0.254101
C297	C	0.729631	-0.234388	-0.200210
C298	C	1.229631	0.265612	0.299790
H299	H	0.761958	-0.305230	-0.315819
H300	H	1.261958	0.194770	0.184181
H301	H	0.761292	-0.370774	-0.260948
H302	H	1.261292	0.129226	0.239052
H303	H	0.660489	-0.256212	-0.274148
H304	H	1.160489	0.243788	0.225852
H305	H	0.659811	-0.321731	-0.219265
H306	H	1.159811	0.178269	0.280735
H307	H	0.758039	-0.266224	-0.171958
H308	H	1.258039	0.233776	0.328042
H309	H	0.758703	-0.200686	-0.226835
H310	H	1.258703	0.299314	0.273165
H311	H	0.699783	-0.199857	-0.170821
H312	H	1.199783	0.300143	0.329179
