data_functionalizedCrystal
_audit_creation_method	'MofGen! by Chris Wilmer'
_symmetry_space_group_name_H-M	'P1'
_symmetry_Int_Tables_number	1
_symmetry_cell_setting	triclinic
loop_
_symmetry_equiv_pos_as_xyz
  x,y,z
_cell_length_a	14.971482
_cell_length_b	15.995292
_cell_length_c	15.072220
_cell_angle_alpha	89.997939
_cell_angle_beta	90.011946
_cell_angle_gamma	83.540612
loop_
_atom_site_label
_atom_site_type_symbol
_atom_site_fract_x
_atom_site_fract_y
_atom_site_fract_z
O1	O	1.186809	0.109097	0.073765
O2	O	0.926390	0.122168	0.073768
O3	O	1.063745	-0.006252	0.073768
O4	O	1.049454	0.237516	0.073765
O5	O	1.063711	-0.006244	-0.073798
O6	O	0.926356	0.122175	-0.073797
O7	O	1.186775	0.109104	-0.073801
Zn8	Zn	1.056560	0.115641	-0.097228
Zn9	Zn	1.056605	0.115631	0.097195
O10	O	1.049420	0.237523	-0.073800
C11	C	0.893049	0.121587	-0.000014
C12	C	0.793755	0.119837	-0.000012
C13	C	0.747093	0.119017	-0.080451
C14	C	0.653796	0.117359	-0.080452
C15	C	0.607163	0.116528	-0.000013
C16	C	0.653832	0.117346	0.080432
C17	C	0.747127	0.118997	0.080432
C18	C	0.459375	0.113905	0.080426
C19	C	0.366073	0.112255	0.080426
C20	C	0.366044	0.112267	-0.080458
C21	C	0.459339	0.113919	-0.080458
C22	C	0.506001	0.114738	-0.000012
C23	C	1.063147	-0.037444	-0.000013
C24	C	1.061403	-0.130399	-0.000006
C25	C	1.054992	-0.468144	-0.000014
C26	C	1.154131	-0.444733	-0.000345
C27	C	1.156016	-0.348056	-0.000009
C28	C	1.058173	-0.300585	-0.000011
C29	C	1.008628	-0.329739	0.084254
C30	C	1.007434	-0.426530	0.084322
C31	C	1.005371	-0.426381	-0.083488
C32	C	1.009045	-0.329885	-0.084598
C33	C	1.059966	-0.205887	-0.000006
C34	C	1.053197	-0.562841	-0.000013
C35	C	1.220116	0.109685	-0.000017
C36	C	1.319411	0.111435	-0.000012
C37	C	1.050018	0.268716	-0.000018
C38	C	1.051762	0.361671	-0.000019
N39	N	1.056536	0.115646	-0.229917
C40	C	1.056603	0.115628	-0.589118
C41	C	0.982861	0.184112	-0.551511
C42	C	0.983030	0.184362	-0.448685
C43	C	1.056569	0.115637	-0.410914
C44	C	1.149893	0.134812	-0.448207
C45	C	1.149480	0.135298	-0.551065
C46	C	1.037854	0.027767	-0.551217
C47	C	1.035712	0.028351	-0.448354
C48	C	1.056556	0.115641	-0.310201
C49	C	1.056623	0.115626	-0.689832
N50	N	1.056636	0.115619	0.229884
H51	H	0.615810	0.116677	-0.145953
H52	H	1.192146	-0.473716	0.059745
C53	C	1.208781	-0.323140	0.081739
N54	N	1.248524	-0.304374	0.143317
H55	H	1.166005	0.199377	-0.575047
H56	H	1.192330	-0.472690	-0.060775
C57	C	1.103576	-0.043732	-0.413642
N58	N	1.154703	-0.098022	-0.387505
C59	C	0.912561	-0.285444	-0.091473
N60	N	0.839885	-0.251972	-0.096645
H61	H	1.206067	0.087390	-0.575940
C62	C	1.225799	0.069227	-0.415150
N63	N	1.282970	0.019827	-0.390249
H64	H	1.166813	0.198161	-0.422439
C65	C	0.602532	0.116429	0.168915
N66	N	0.563894	0.115741	0.235563
C67	C	0.947897	0.002907	-0.586295
N68	N	0.880136	-0.015807	-0.612714
C69	C	0.510634	0.114834	-0.168944
N70	N	0.549269	0.115520	-0.235594
C71	C	0.798455	0.119902	0.168921
N72	N	0.837114	0.120581	0.235573
H73	H	0.967062	0.013802	-0.423981
H74	H	1.194819	-0.328989	-0.060412
H75	H	1.091631	-0.023197	-0.575536
C76	C	0.314714	0.111360	-0.168948
N77	N	0.276049	0.110678	-0.235597
H78	H	0.785054	0.119701	-0.145954
H79	H	0.936629	-0.297942	0.087386
H80	H	1.041775	-0.453316	0.147312
C81	C	0.909238	-0.446287	0.089504
N82	N	0.835278	-0.461164	0.093416
C83	C	0.314778	0.111337	0.168913
N84	N	0.276144	0.110645	0.235562
C85	C	1.055151	-0.302606	0.168975
N86	N	1.090198	-0.282172	0.232784
C87	C	1.047312	-0.464506	-0.169773
N88	N	1.078912	-0.493221	-0.234759
H89	H	1.045121	-0.311281	-0.146936
H90	H	0.497364	0.114573	0.145933
H91	H	0.932397	-0.440444	-0.084056
H92	H	0.913659	0.172924	-0.423473
H93	H	0.913266	0.172861	-0.576271
H94	H	0.994666	0.248942	-0.577350
C95	C	0.999207	0.272441	-0.415430
N96	N	1.011397	0.338784	-0.390384
