data_functionalizedCrystal
_audit_creation_method	'MofGen! by Chris Wilmer'
_symmetry_space_group_name_H-M	'P1'
_symmetry_Int_Tables_number	1
_symmetry_cell_setting	triclinic
loop_
_symmetry_equiv_pos_as_xyz
  x,y,z
_cell_length_a	29.839134
_cell_length_b	29.839131
_cell_length_c	29.839126
_cell_angle_alpha	90.021998
_cell_angle_beta	90.038073
_cell_angle_gamma	90.034165
loop_
_atom_site_label
_atom_site_type_symbol
_atom_site_fract_x
_atom_site_fract_y
_atom_site_fract_z
Zn1	Zn	0.686781	-0.178984	0.254153
Zn2	Zn	1.186781	0.321016	0.754153
Zn3	Zn	0.686695	-0.254102	0.179023
Zn4	Zn	1.186695	0.245898	0.679023
Zn5	Zn	0.611645	-0.178977	0.179019
Zn6	Zn	1.111645	0.321023	0.679019
Zn7	Zn	0.611611	-0.254078	0.254108
Zn8	Zn	1.111611	0.245922	0.754108
O9	O	0.649183	-0.216535	0.216576
O10	O	1.149183	0.283465	0.716576
O11	O	0.749636	-0.188961	0.244207
O12	O	1.249636	0.311039	0.744207
O13	O	0.676718	-0.244143	0.116155
O14	O	1.176718	0.255857	0.616155
O15	O	0.621663	-0.116111	0.189003
O16	O	1.121663	0.383889	0.689003
O17	O	0.749573	-0.244150	0.189009
O18	O	1.249573	0.255850	0.689009
O19	O	0.676864	-0.116116	0.244204
O20	O	1.176864	0.383884	0.744204
O21	O	0.621579	-0.188949	0.116153
O22	O	1.121579	0.311051	0.616153
O23	O	0.548774	-0.188927	0.188960
O24	O	1.048774	0.311073	0.688960
O25	O	0.621604	-0.244110	0.316981
O26	O	1.121604	0.255890	0.816981
O27	O	0.548749	-0.244103	0.244127
O28	O	1.048749	0.255897	0.744127
O29	O	0.676831	-0.188939	0.317014
O30	O	1.176831	0.311061	0.817014
O31	O	0.676684	-0.316966	0.188966
O32	O	1.176684	0.183034	0.688966
O33	O	0.621521	-0.316949	0.244131
O34	O	1.121521	0.183051	0.744131
C35	C	0.532460	-0.216512	0.216539
C36	C	1.032460	0.283488	0.716539
C37	C	0.482526	-0.216513	0.216534
C38	C	0.982526	0.283487	0.716534
C39	C	0.125939	-0.187763	0.187909
C40	C	0.625939	0.312237	0.687909
C41	C	0.313613	-0.187750	0.187882
C42	C	0.813613	0.312250	0.687882
O43	O	0.337878	-0.163267	0.163502
O44	O	0.837878	0.336733	0.663502
N45	N	0.337081	-0.216520	0.216556
N46	N	0.837081	0.283480	0.716556
C47	C	0.313628	-0.245294	0.245242
C48	C	0.813628	0.254706	0.745242
O49	O	0.337896	-0.269761	0.269634
O50	O	0.837896	0.230239	0.769634
C51	C	0.125956	-0.245304	0.245271
C52	C	0.625956	0.254696	0.745271
C53	C	0.102490	-0.216535	0.216591
C54	C	0.602490	0.283465	0.716591
C55	C	0.102473	-0.158996	0.159232
C56	C	0.602473	0.341004	0.659232
C57	C	0.055558	-0.159001	0.159237
C58	C	0.555558	0.340999	0.659237
C59	C	0.032109	-0.187773	0.187920
C60	C	0.532109	0.312227	0.687920
C61	C	0.055574	-0.216540	0.216597
C62	C	0.555574	0.283460	0.716597
C63	C	0.102504	-0.274075	0.273958
C64	C	0.602504	0.225925	0.773958
C65	C	0.055583	-0.274074	0.273964
C66	C	0.555583	0.225926	0.773964
C67	C	0.032117	-0.245305	0.245284
C68	C	0.532117	0.254695	0.745284
C69	C	-0.014790	-0.245317	0.245284
C70	C	0.485210	0.254683	0.745284
N71	N	-0.038259	-0.216547	0.216610
N72	N	0.461741	0.283453	0.716610
C73	C	-0.014809	-0.187775	0.187927
C74	C	0.485191	0.312225	0.687927
C75	C	0.412159	-0.245287	0.245224
C76	C	0.912159	0.254713	0.745224
C77	C	0.459077	-0.245285	0.245216
C78	C	0.959077	0.254715	0.745216
C79	C	0.459058	-0.187741	0.187856
C80	C	0.959058	0.312259	0.687856
C81	C	0.412139	-0.187745	0.187862
C82	C	0.912139	0.312255	0.687862
C83	C	0.388690	-0.216517	0.216549
C84	C	0.888690	0.283483	0.716549
C85	C	-0.113335	-0.187788	0.187941
C86	C	0.386665	0.312212	0.687941
C87	C	-0.160255	-0.187797	0.187947
C88	C	0.339745	0.312203	0.687947
C89	C	-0.160232	-0.245340	0.245308
C90	C	0.339768	0.254660	0.745308
C91	C	-0.113316	-0.245333	0.245300
C92	C	0.386684	0.254667	0.745300
C93	C	-0.089869	-0.216553	0.216615
C94	C	0.410131	0.283447	0.716615
O95	O	-0.039084	-0.269784	0.269654
O96	O	0.460916	0.230216	0.769654
O97	O	-0.039085	-0.163304	0.163546
O98	O	0.460915	0.336696	0.663546
C99	C	0.172855	-0.187757	0.187904
C100	C	0.672855	0.312243	0.687904
C101	C	0.196321	-0.216524	0.216580
C102	C	0.696321	0.283476	0.716580
C103	C	0.172871	-0.245296	0.245263
C104	C	0.672871	0.254704	0.745263
C105	C	0.243239	-0.216522	0.216573
C106	C	0.743239	0.283478	0.716573
C107	C	0.266688	-0.187750	0.187890
C108	C	0.766688	0.312250	0.687890
C109	C	0.243220	-0.158980	0.159216
C110	C	0.743220	0.341020	0.659216
C111	C	0.196304	-0.158985	0.159221
C112	C	0.696304	0.341015	0.659221
C113	C	0.196340	-0.274067	0.273937
C114	C	0.696340	0.225933	0.773937
C115	C	0.243255	-0.274060	0.273929
C116	C	0.743255	0.225940	0.773929
C117	C	0.266705	-0.245287	0.245247
C118	C	0.766705	0.254713	0.745247
C119	C	0.649102	-0.333258	0.216554
C120	C	1.149102	0.166742	0.716554
C121	C	0.649108	-0.383192	0.216559
C122	C	1.149108	0.116808	0.716559
C123	C	0.677959	-0.692832	0.187894
C124	C	1.177959	-0.192832	0.687894
C125	C	0.678014	-0.880505	0.187911
C126	C	1.178014	-0.380505	0.687911
O127	O	0.702480	-0.904767	0.163521
O128	O	1.202480	-0.404767	0.663521
N129	N	0.649276	-0.903977	0.216610
N130	N	1.149276	-0.403977	0.716610
C131	C	0.620524	-0.880529	0.245308
C132	C	1.120524	-0.380529	0.745308
O133	O	0.596085	-0.904799	0.269722
O134	O	1.096085	-0.404799	0.769722
C135	C	0.620471	-0.692856	0.245293
C136	C	1.120471	-0.192856	0.745293
C137	C	0.649208	-0.669387	0.216589
C138	C	1.149208	-0.169387	0.716589
C139	C	0.706694	-0.669362	0.159192
C140	C	1.206694	-0.169362	0.659192
C141	C	0.706678	-0.622447	0.159187
C142	C	1.206678	-0.122447	0.659187
C143	C	0.677927	-0.599001	0.187882
C144	C	1.177927	-0.099001	0.687882
C145	C	0.649192	-0.622471	0.216583
C146	C	1.149192	-0.122471	0.716583
C147	C	0.591722	-0.669408	0.273993
C148	C	1.091722	-0.169408	0.773993
C149	C	0.591712	-0.622487	0.273988
C150	C	1.091712	-0.122487	0.773988
C151	C	0.620449	-0.599018	0.245284
C152	C	1.120449	-0.099018	0.745284
C153	C	0.620426	-0.552110	0.245273
C154	C	1.120426	-0.052110	0.745273
N155	N	0.649164	-0.528638	0.216574
N156	N	1.149164	-0.028638	0.716574
C157	C	0.677915	-0.552083	0.187879
C158	C	1.177915	-0.052083	0.687879
C159	C	0.620553	-0.979059	0.245314
C160	C	1.120553	-0.479059	0.745314
C161	C	0.620566	-1.025977	0.245317
C162	C	1.120566	-0.525977	0.745317
C163	C	0.678057	-1.025950	0.187920
C164	C	1.178057	-0.525950	0.687920
C165	C	0.678042	-0.979032	0.187915
C166	C	1.178042	-0.479032	0.687915
C167	C	0.649291	-0.955587	0.216615
C168	C	1.149291	-0.455587	0.716615
C169	C	0.677879	-0.453558	0.187868
C170	C	1.177879	0.046442	0.687868
C171	C	0.677859	-0.406638	0.187864
C172	C	1.177859	0.093362	0.687864
C173	C	0.620370	-0.406669	0.245262
C174	C	1.120370	0.093331	0.745262
C175	C	0.620388	-0.453584	0.245265
C176	C	1.120388	0.046416	0.745265
C177	C	0.649146	-0.477027	0.216567
C178	C	1.149146	0.022973	0.716567
O179	O	0.595976	-0.527819	0.269653
O180	O	1.095976	-0.027819	0.769653
O181	O	0.702357	-0.527804	0.163475
O182	O	1.202357	-0.027804	0.663475
C183	C	0.677975	-0.739748	0.187899
C184	C	1.177975	-0.239748	0.687899
C185	C	0.649240	-0.763217	0.216601
C186	C	1.149240	-0.263217	0.716601
C187	C	0.620489	-0.739772	0.245296
C188	C	1.120489	-0.239772	0.745296
C189	C	0.649252	-0.810135	0.216604
C190	C	1.149252	-0.310135	0.716604
C191	C	0.678003	-0.833581	0.187909
C192	C	1.178003	-0.333581	0.687909
C193	C	0.706741	-0.810109	0.159210
C194	C	1.206741	-0.310109	0.659210
C195	C	0.706726	-0.763193	0.159204
C196	C	1.206726	-0.263193	0.659204
C197	C	0.591751	-0.763244	0.273995
C198	C	1.091751	-0.263244	0.773995
C199	C	0.591769	-0.810160	0.273998
C200	C	1.091769	-0.310160	0.773998
C201	C	0.620520	-0.833605	0.245303
C202	C	1.120520	-0.333605	0.745303
C203	C	0.766361	-0.216559	0.216614
C204	C	1.266361	0.283441	0.716614
C205	C	0.816296	-0.216569	0.216630
C206	C	1.316296	0.283431	0.716630
C207	C	0.649223	-0.216523	0.333754
C208	C	1.149223	0.283477	0.833754
C209	C	0.649240	-0.216517	0.383689
C210	C	1.149240	0.283483	0.883689
C211	C	0.649277	-0.099357	0.216608
C212	C	1.149277	0.400643	0.716608
C213	C	0.649317	-0.049423	0.216622
C214	C	1.149317	0.450577	0.716622
C215	C	0.649169	-0.216516	0.099853
C216	C	1.149169	0.283484	0.599853
C217	C	0.649239	-0.216395	0.049919
C218	C	1.149239	0.283605	0.549919
C219	C	0.677945	-0.245197	0.740280
C220	C	1.177945	0.254803	1.240280
C221	C	0.677946	-0.245228	0.552607
C222	C	1.177946	0.254772	1.052607
O223	O	0.702347	-0.269683	0.528346
O224	O	1.202347	0.230317	1.028346
N225	N	0.649238	-0.216495	0.529134
N226	N	1.149238	0.283505	1.029134
C227	C	0.620527	-0.187755	0.552582
C228	C	1.120527	0.312245	1.052582
O229	O	0.596106	-0.163320	0.528310
O230	O	1.096106	0.336680	1.028310
C231	C	0.620524	-0.187727	0.740254
C232	C	1.120524	0.312273	1.240254
C233	C	0.649237	-0.216458	0.763725
C234	C	1.149237	0.283542	1.263725
C235	C	0.706655	-0.273926	0.763751
C236	C	1.206655	0.226074	1.263751
C237	C	0.706656	-0.273916	0.810667
C238	C	1.206656	0.226084	1.310667
C239	C	0.677947	-0.245177	0.834111
C240	C	1.177947	0.254823	1.334111
C241	C	0.649238	-0.216448	0.810640
C242	C	1.149238	0.283552	1.310640
C243	C	0.591811	-0.158989	0.763701
C244	C	1.091811	0.341011	1.263701
C245	C	0.591812	-0.158985	0.810622
C246	C	1.091812	0.341015	1.310622
C247	C	0.620524	-0.187716	0.834093
C248	C	1.120524	0.312284	1.334093
C249	C	0.620531	-0.187699	0.881000
C250	C	1.120531	0.312301	1.381000
N251	N	0.649238	-0.216431	0.904474
N252	N	1.149238	0.283569	1.404474
C253	C	0.677946	-0.245170	0.881029
C254	C	1.177946	0.254830	1.381029
C255	C	0.620531	-0.187772	0.454051
C256	C	1.120531	0.312228	0.954051
C257	C	0.620532	-0.187778	0.407133
C258	C	1.120532	0.312222	0.907133
C259	C	0.677950	-0.245252	0.407162
C260	C	1.177950	0.254748	0.907162
C261	C	0.677951	-0.245242	0.454081
C262	C	1.177951	0.254758	0.954081
C263	C	0.649238	-0.216504	0.477524
C264	C	1.149238	0.283496	0.977524
C265	C	0.677947	-0.245147	0.979555
C266	C	1.177947	0.254853	1.479555
C267	C	0.677947	-0.245134	1.026475
C268	C	1.177947	0.254866	1.526475
C269	C	0.620527	-0.187662	1.026442
C270	C	1.120527	0.312338	1.526442
C271	C	0.620529	-0.187674	0.979526
C272	C	1.120529	0.312326	1.479526
C273	C	0.649240	-0.216420	0.956084
C274	C	1.149240	0.283580	1.456084
O275	O	0.596139	-0.163260	0.905290
O276	O	1.096139	0.336740	1.405290
O277	O	0.702356	-0.269609	0.905309
O278	O	1.202356	0.230391	1.405309
C279	C	0.677944	-0.245206	0.693365
C280	C	1.177944	0.254794	1.193365
C281	C	0.649234	-0.216477	0.669894
C282	C	1.149234	0.283523	1.169894
C283	C	0.620526	-0.187738	0.693339
C284	C	1.120526	0.312262	1.193339
C285	C	0.649235	-0.216484	0.622976
C286	C	1.149235	0.283516	1.122976
C287	C	0.677944	-0.245223	0.599532
C288	C	1.177944	0.254777	1.099532
C289	C	0.706651	-0.273955	0.623005
C290	C	1.206651	0.226045	1.123005
C291	C	0.706652	-0.273945	0.669920
C292	C	1.206652	0.226055	1.169920
C293	C	0.591818	-0.159006	0.669865
C294	C	1.091818	0.340994	1.169865
C295	C	0.591820	-0.159018	0.622950
C296	C	1.091820	0.340982	1.122950
C297	C	0.620528	-0.187757	0.599505
C298	C	1.120528	0.312243	1.099505
H299	H	0.393036	-0.164317	0.164510
H300	H	0.893036	0.335683	0.664510
H301	H	0.730035	-0.297313	0.829773
H302	H	1.230035	0.202687	1.329773
N303	N	0.560735	-0.737963	0.304944
N304	N	1.060735	-0.237963	0.804944
H305	H	0.539917	-0.718527	0.286660
H306	H	1.039917	-0.218527	0.786660
H307	H	0.579002	-0.718495	0.325780
H308	H	1.079002	-0.218495	0.825780
H309	H	0.393071	-0.268718	0.268585
H310	H	0.893071	0.231282	0.768585
N311	N	0.484350	-0.156699	0.156925
N312	N	0.984350	0.343301	0.656925
H313	H	0.476159	-0.163623	0.124812
H314	H	0.976159	0.336377	0.624812
H315	H	0.517625	-0.161076	0.161312
H316	H	1.017625	0.338924	0.661312
N317	N	0.589536	-0.953779	0.276268
N318	N	1.089536	-0.453779	0.776268
H319	H	0.568720	-0.934340	0.257985
H320	H	1.068720	-0.434340	0.757985
H321	H	0.607805	-0.934313	0.297105
H322	H	1.107805	-0.434313	0.797105
N323	N	-0.185533	-0.276367	0.276243
N324	N	0.314467	0.223633	0.776243
H325	H	-0.177340	-0.269431	0.308353
H326	H	0.322660	0.230569	0.808353
H327	H	-0.177386	-0.308446	0.269175
H328	H	0.322614	0.191554	0.769175
N329	N	0.268562	-0.305095	0.304861
N330	N	0.768562	0.194905	0.804861
H331	H	0.246583	-0.323320	0.323030
H332	H	0.746583	0.176680	0.823030
H333	H	0.288053	-0.286834	0.325683
H334	H	0.788053	0.213166	0.825683
N335	N	0.127806	-0.305105	0.304891
N336	N	0.627806	0.194895	0.804891
H337	H	0.105825	-0.323328	0.323060
H338	H	0.605825	0.176672	0.823060
H339	H	0.147298	-0.286846	0.325712
H340	H	0.647298	0.213154	0.825712
N341	N	0.737681	-0.597138	0.128234
N342	N	1.237681	-0.097138	0.628234
H343	H	0.733315	-0.563857	0.132581
H344	H	1.233315	-0.063857	0.632581
H345	H	0.730709	-0.605362	0.096141
H346	H	1.230709	-0.105362	0.596141
H347	H	0.036493	-0.297502	0.297326
H348	H	0.536493	0.202498	0.797326
N349	N	0.708917	-0.276122	1.051790
N350	N	1.208917	0.223878	1.551790
H351	H	0.727102	-0.294330	1.029815
H352	H	1.227102	0.205670	1.529815
H353	H	0.690616	-0.296906	1.071241
H354	H	1.190616	0.203094	1.571241
N355	N	0.708860	-0.381326	0.156907
N356	N	1.208860	0.118674	0.656907
H357	H	0.704489	-0.348045	0.161255
H358	H	1.204489	0.151955	0.661255
H359	H	0.701887	-0.389550	0.124815
H360	H	1.201887	0.110450	0.624815
H361	H	0.177252	-0.297497	0.297295
H362	H	0.677252	0.202503	0.797295
H363	H	0.730109	-0.688447	0.135825
H364	H	1.230109	-0.188447	0.635825
N365	N	0.484384	-0.276321	0.276141
N366	N	0.984384	0.223679	0.776141
H367	H	0.462405	-0.294546	0.294312
H368	H	0.962405	0.205454	0.794312
H369	H	0.503878	-0.258065	0.296963
H370	H	1.003878	0.241935	0.796963
H371	H	0.730033	-0.297341	0.689026
H372	H	1.230033	0.202659	1.189026
H373	H	0.597155	-0.164273	0.960415
H374	H	1.097155	0.335727	1.460415
H375	H	0.701442	-0.959925	0.164542
H376	H	1.201442	-0.459925	0.664542
H377	H	0.568439	-0.135604	0.688949
H378	H	1.068439	0.364396	1.188949
H379	H	0.177203	-0.135558	0.135868
H380	H	0.677203	0.364442	0.635868
H381	H	0.597161	-1.045082	0.268687
H382	H	1.097161	-0.545082	0.768687
H383	H	0.701467	-1.045048	0.164556
H384	H	1.201467	-0.545048	0.664556
N385	N	0.708896	-0.478839	0.156916
N386	N	1.208896	0.021161	0.656916
H387	H	0.727094	-0.456846	0.138735
H388	H	1.227094	0.043154	0.638735
H389	H	0.690626	-0.498332	0.136106
H390	H	1.190626	0.001668	0.636106
H391	H	0.568319	-0.688510	0.297365
H392	H	1.068319	-0.188510	0.797365
H393	H	0.568429	-0.135594	0.744599
H394	H	1.068429	0.364406	1.244599
N395	N	-0.088003	-0.276366	0.276227
N396	N	0.411997	0.223634	0.776227
H397	H	-0.109980	-0.294595	0.294396
H398	H	0.390020	0.205405	0.794396
H399	H	-0.068514	-0.258106	0.297049
H400	H	0.431486	0.241894	0.797049
H401	H	0.262321	-0.135554	0.135860
H402	H	0.762321	0.364446	0.635860
N403	N	0.737747	-0.835405	0.128258
N404	N	1.237747	-0.335405	0.628258
H405	H	0.758561	-0.854844	0.146544
H406	H	1.258561	-0.354844	0.646544
H407	H	0.755923	-0.813395	0.110078
H408	H	1.255923	-0.313395	0.610078
H409	H	0.568301	-0.603401	0.297360
H410	H	1.068301	-0.103401	0.797360
H411	H	0.596989	-0.472694	0.268640
H412	H	1.096989	0.027306	0.768640
H413	H	0.596960	-0.387572	0.268624
H414	H	1.096960	0.112428	0.768624
H415	H	0.730126	-0.744087	0.135831
H416	H	1.230126	-0.244087	0.635831
H417	H	0.568364	-0.829265	0.297372
H418	H	1.068364	-0.329265	0.797372
H419	H	0.701330	-0.268552	0.960474
H420	H	1.201330	0.231448	1.460474
N421	N	0.737620	-0.304927	0.738469
N422	N	1.237620	0.195073	1.238469
H423	H	0.755804	-0.323122	0.760465
H424	H	1.255804	0.176878	1.260465
H425	H	0.758428	-0.286647	0.719023
H426	H	1.258428	0.213353	1.219023
N427	N	0.708919	-0.276231	0.479394
N428	N	1.208919	0.223769	0.979394
H429	H	0.727105	-0.294435	0.457418
H430	H	1.227105	0.205565	0.957418
H431	H	0.690617	-0.297018	0.498842
H432	H	1.190617	0.202982	0.998842
H433	H	0.701327	-0.268651	0.388065
H434	H	1.201327	0.231349	0.888065
H435	H	0.597157	-0.164377	0.388027
H436	H	1.097157	0.335623	0.888027
N437	N	0.589560	-0.156773	0.479334
N438	N	1.089560	0.343227	0.979334
H439	H	0.571378	-0.138574	0.457340
H440	H	1.071378	0.361426	0.957340
H441	H	0.607861	-0.135981	0.498818
H442	H	1.107861	0.364019	0.998818
N443	N	0.560840	-0.127990	0.835908
N444	N	1.060840	0.372010	1.335908
H445	H	0.542653	-0.109792	0.813917
H446	H	1.042653	0.390208	1.313917
H447	H	0.579141	-0.107196	0.855390
H448	H	1.079141	0.392804	1.355390
H449	H	0.597155	-0.164262	1.045539
H450	H	1.097155	0.335738	1.545539
N451	N	0.737617	-0.304950	0.597713
N452	N	1.237617	0.195050	1.097713
H453	H	0.733203	-0.300646	0.564430
H454	H	1.233203	0.199354	1.064430
H455	H	0.730651	-0.337030	0.605957
H456	H	1.230651	0.162970	1.105957
H457	H	0.568439	-0.135617	0.603844
H458	H	1.068439	0.364383	1.103844
H459	H	-0.094250	-0.164351	0.164584
H460	H	0.405750	0.335649	0.664584
N461	N	-0.185563	-0.156768	0.157011
N462	N	0.314437	0.343232	0.657011
H463	H	-0.177377	-0.124678	0.164044
H464	H	0.322623	0.375322	0.664044
H465	H	-0.218836	-0.161174	0.161378
H466	H	0.281164	0.338826	0.661378
N467	N	0.030257	-0.127966	0.128305
N468	N	0.530257	0.372034	0.628305
H469	H	0.038451	-0.095879	0.135344
H470	H	0.538451	0.404121	0.635344
H471	H	-0.003017	-0.132364	0.132669
H472	H	0.496983	0.367636	0.632669
N473	N	0.127761	-0.127955	0.128298
N474	N	0.627761	0.372045	0.628298
H475	H	0.105769	-0.109734	0.110137
H476	H	0.605769	0.390266	0.610137
H477	H	0.147201	-0.146208	0.107468
H478	H	0.647201	0.353792	0.607468
