data_functionalizedCrystal
_audit_creation_method	'MofGen! by Chris Wilmer'
_symmetry_space_group_name_H-M	'P1'
_symmetry_Int_Tables_number	1
_symmetry_cell_setting	triclinic
loop_
_symmetry_equiv_pos_as_xyz
  x,y,z
_cell_length_a	14.853566
_cell_length_b	10.654550
_cell_length_c	13.330367
_cell_angle_alpha	90.001482
_cell_angle_beta	89.997816
_cell_angle_gamma	95.940328
loop_
_atom_site_label
_atom_site_type_symbol
_atom_site_fract_x
_atom_site_fract_y
_atom_site_fract_z
O1	O	1.197244	-0.163948	-0.083357
O2	O	1.697244	0.336052	0.416643
O3	O	0.934889	-0.183481	-0.083373
O4	O	1.434889	0.316519	0.416627
O5	O	1.072099	0.009088	-0.083358
O6	O	1.572099	0.509088	0.416642
O7	O	1.060035	-0.356516	-0.083372
O8	O	1.560035	0.143484	0.416628
O9	O	1.072085	0.009082	0.083489
O10	O	1.572085	0.509082	0.583489
O11	O	0.934875	-0.183487	0.083474
O12	O	1.434875	0.316513	0.583474
O13	O	1.197230	-0.163953	0.083490
O14	O	1.697230	0.336047	0.583490
Cu15	Cu	1.066051	-0.173720	0.098716
Cu16	Cu	1.566051	0.326280	0.598716
Cu17	Cu	1.066068	-0.173714	-0.098600
Cu18	Cu	1.566068	0.326286	0.401400
O19	O	1.060021	-0.356522	0.083475
O20	O	1.560021	0.143478	0.583475
C21	C	0.901289	-0.182599	0.000048
C22	C	1.401289	0.317401	0.500048
C23	C	0.801191	-0.179948	0.000042
C24	C	1.301191	0.320052	0.500042
C25	C	0.377954	-0.168730	-0.090888
C26	C	0.877954	0.331270	0.409112
C27	C	0.377959	-0.168737	0.091015
C28	C	0.877959	0.331263	0.591015
C29	C	0.472007	-0.171227	0.091012
C30	C	0.972007	0.328773	0.591012
C31	C	0.519032	-0.172470	0.000057
C32	C	1.019032	0.327530	0.500057
C33	C	0.472009	-0.171224	-0.090894
C34	C	0.972009	0.328776	0.409106
C35	C	0.519035	-0.172486	0.181961
C36	C	1.019035	0.327514	0.681961
C37	C	0.613088	-0.174977	0.181962
C38	C	1.113088	0.325023	0.681962
C39	C	0.660116	-0.176212	0.091006
C40	C	1.160116	0.323788	0.591006
C41	C	0.613088	-0.174964	0.000051
C42	C	1.113088	0.325036	0.500051
C43	C	0.660113	-0.176207	-0.090904
C44	C	1.160113	0.323793	0.409096
C45	C	0.613087	-0.174950	-0.181860
C46	C	1.113087	0.325050	0.318140
C47	C	0.519037	-0.172458	-0.181850
C48	C	1.019037	0.327542	0.318150
C49	C	0.754166	-0.178704	0.090996
C50	C	1.254166	0.321296	0.590996
C51	C	0.754168	-0.178701	-0.090910
C52	C	1.254168	0.321299	0.409090
C53	C	1.071206	0.055874	0.000065
C54	C	1.571206	0.555874	0.500065
C55	C	1.068556	0.195289	0.000063
C56	C	1.568556	0.695289	0.500063
C57	C	1.230831	-0.164835	0.000067
C58	C	1.730831	0.335165	0.500067
C59	C	1.330929	-0.167487	0.000066
C60	C	1.830929	0.332513	0.500066
C61	C	1.060913	-0.403308	0.000050
C62	C	1.560913	0.096692	0.500050
C63	C	1.063564	-0.542723	0.000045
C64	C	1.563564	-0.042723	0.500045
N65	N	1.066046	-0.173724	0.237498
N66	N	1.566046	0.326276	0.737498
C67	C	1.149343	0.275615	0.000068
C68	C	1.649343	0.775615	0.500068
C69	C	1.146847	0.406610	0.000055
C70	C	1.646847	0.906610	0.500055
C71	C	0.982771	0.376941	0.000038
C72	C	1.482771	0.876941	0.500038
C73	C	0.985267	0.245949	0.000043
C74	C	1.485267	0.745949	0.500043
N75	N	1.066080	-0.173700	-0.237381
N76	N	1.566080	0.326300	0.262619
C77	C	1.005281	-0.258968	0.290017
C78	C	1.505281	0.241032	0.790017
C79	C	1.126816	-0.088476	0.290007
C80	C	1.626816	0.411524	0.790007
C81	C	1.126826	-0.088471	0.395026
C82	C	1.626826	0.411529	0.895026
C83	C	1.066061	-0.173714	0.447544
C84	C	1.566061	0.326286	0.947544
C85	C	1.005286	-0.258963	0.395045
C86	C	1.505286	0.241037	0.895045
C87	C	1.187592	-0.003216	0.447533
C88	C	1.687592	0.496784	0.947533
C89	C	1.187603	-0.003207	0.552558
C90	C	1.687603	0.496793	1.052558
C91	C	1.126842	-0.088457	0.605079
C92	C	1.626842	0.411543	1.105079
C93	C	1.066066	-0.173710	0.552572
C94	C	1.566066	0.326290	1.052572
C95	C	1.005301	-0.258953	0.605091
C96	C	1.505301	0.241047	1.105091
C97	C	0.944529	-0.344213	0.552587
C98	C	1.444529	0.155787	1.052587
C99	C	0.944525	-0.344213	0.447565
C100	C	1.444525	0.155787	0.947565
C101	C	1.126845	-0.088456	0.710100
C102	C	1.626845	0.411544	1.210100
C103	C	1.005306	-0.258948	0.710119
C104	C	1.505306	0.241052	1.210119
H105	H	0.651386	-0.175971	-0.255915
H106	H	1.151386	0.324029	0.244085
O107	O	1.233982	0.493248	0.000062
O108	O	1.733982	0.993248	0.500062
H109	H	1.236754	0.553652	0.068059
H110	H	1.736754	1.053652	0.568059
O111	O	0.898126	0.159304	0.000050
O112	O	1.398126	0.659304	0.500050
H113	H	0.858309	0.177330	-0.067952
H114	H	1.358309	0.677330	0.432048
H115	H	0.955827	-0.328368	0.752874
H116	H	1.455827	0.171632	1.252874
O117	O	1.192388	0.003482	0.766734
O118	O	1.692388	0.503482	1.266734
H119	H	1.234642	0.062752	0.712570
H120	H	1.734642	0.562752	1.212570
O121	O	0.878991	-0.436158	0.609234
O122	O	1.378991	0.063842	1.109234
H123	H	0.889212	-0.421827	0.691081
H124	H	1.389212	0.078173	1.191081
O125	O	1.239175	0.220981	0.000072
O126	O	1.739175	0.720981	0.500072
H127	H	1.244242	0.162025	0.068082
H128	H	1.744242	0.662025	0.568082
H129	H	1.176285	-0.019067	0.247243
H130	H	1.676285	0.480933	0.747243
H131	H	0.480740	-0.171433	-0.255902
H132	H	0.980740	0.328567	0.244098
H133	H	0.914960	0.418204	0.000023
H134	H	1.414960	0.918204	0.500023
O135	O	0.663806	-0.176356	0.280057
O136	O	1.163806	0.323644	0.780057
H137	H	0.615304	-0.175078	0.343303
H138	H	1.115304	0.324922	0.843303
O139	O	0.878954	-0.436129	0.390940
O140	O	1.378954	0.063871	0.890940
H141	H	0.889145	-0.421788	0.309089
H142	H	1.389145	0.078212	0.809089
O143	O	1.253165	0.088729	0.609177
O144	O	1.753165	0.588729	1.109177
H145	H	1.241078	0.186662	0.589020
H146	H	1.741078	0.686662	1.089020
O147	O	0.467964	-0.171454	0.279845
O148	O	0.967964	0.328546	0.779845
H149	H	0.493198	-0.086522	0.323770
H150	H	0.993198	0.413478	0.823770
H151	H	0.339662	-0.167701	-0.164943
H152	H	0.839662	0.332299	0.335057
H153	H	0.955803	-0.328388	0.247265
H154	H	1.455803	0.171612	0.747265
H155	H	0.339665	-0.167733	0.165066
H156	H	0.839665	0.332267	0.665066
O157	O	0.804889	-0.180069	0.189085
O158	O	1.304889	0.319931	0.689085
H159	H	0.756389	-0.178787	0.252331
H160	H	1.256389	0.321213	0.752331
O161	O	1.253086	0.088781	0.390894
O162	O	1.753086	0.588781	0.890894
H163	H	1.242864	0.074463	0.309045
H164	H	1.742864	0.574463	0.809045
H165	H	0.792450	-0.179709	-0.164977
H166	H	1.292450	0.320291	0.335023
