data_functionalizedCrystal
_audit_creation_method	'MofGen! by Chris Wilmer'
_symmetry_space_group_name_H-M	'P1'
_symmetry_Int_Tables_number	1
_symmetry_cell_setting	triclinic
loop_
_symmetry_equiv_pos_as_xyz
  x,y,z
_cell_length_a	17.699083
_cell_length_b	11.026607
_cell_length_c	16.776229
_cell_angle_alpha	89.996140
_cell_angle_beta	89.998886
_cell_angle_gamma	95.934516
loop_
_atom_site_label
_atom_site_type_symbol
_atom_site_fract_x
_atom_site_fract_y
_atom_site_fract_z
O1	O	1.025155	0.153399	-0.066172
O2	O	1.525155	0.653399	0.433828
O3	O	0.807518	0.173356	-0.066197
O4	O	1.307518	0.673356	0.433803
O5	O	0.898299	-0.013222	-0.066184
O6	O	1.398299	0.486778	0.433816
O7	O	0.934374	0.339978	-0.066186
O8	O	1.434374	0.839978	0.433814
O9	O	0.898282	-0.013234	0.066393
O10	O	1.398282	0.486766	0.566393
O11	O	0.807501	0.173345	0.066379
O12	O	1.307501	0.673345	0.566379
O13	O	1.025138	0.153387	0.066405
O14	O	1.525138	0.653387	0.566405
Zn15	Zn	0.916317	0.163364	0.087441
Zn16	Zn	1.416317	0.663364	0.587441
Zn17	Zn	0.916339	0.163379	-0.087234
Zn18	Zn	1.416339	0.663379	0.412766
O19	O	0.934357	0.339966	0.066391
O20	O	1.434357	0.839966	0.566391
C21	C	0.779214	0.172636	0.000087
C22	C	1.279214	0.672636	0.500087
C23	C	0.694902	0.170490	0.000078
C24	C	1.194902	0.670490	0.500078
C25	C	0.891635	-0.058419	0.000103
C26	C	1.391635	0.441581	0.500103
C27	C	0.871796	-0.193075	0.000097
C28	C	1.371796	0.306925	0.500097
C29	C	0.661328	0.280008	0.000077
C30	C	1.161328	0.780008	0.500077
C31	C	0.582106	0.277985	0.000088
C32	C	1.082106	0.777985	0.500088
C33	C	0.536460	0.166443	0.000092
C34	C	1.036460	0.666443	0.500092
C35	C	0.570039	0.056917	0.000095
C36	C	1.070039	0.556917	0.500095
C37	C	0.649259	0.058941	0.000090
C38	C	1.149259	0.558941	0.500090
C39	C	0.250554	0.048751	0.000115
C40	C	0.750554	0.548751	0.500115
C41	C	0.171329	0.046735	0.000117
C42	C	0.671329	0.546735	0.500117
C43	C	0.183402	0.267794	0.000112
C44	C	0.683402	0.767794	0.500112
C45	C	0.262621	0.269819	0.000107
C46	C	0.762621	0.769819	0.500107
C47	C	0.296194	0.160293	0.000114
C48	C	0.796194	0.660293	0.500114
C49	C	0.382094	0.162488	0.000104
C50	C	0.882094	0.662488	0.500104
C51	C	0.450561	0.164247	0.000096
C52	C	0.950561	0.664247	0.500096
C53	C	0.926576	-0.267042	0.000103
C54	C	1.426576	0.232958	0.500103
C55	C	0.906072	-0.406216	0.000097
C56	C	1.406072	0.093784	0.500097
C57	C	1.053441	0.154108	0.000118
C58	C	1.553441	0.654108	0.500118
C59	C	1.137754	0.156254	0.000123
C60	C	1.637754	0.656254	0.500123
C61	C	0.941021	0.385163	0.000103
C62	C	1.441021	0.885163	0.500103
C63	C	0.960860	0.519819	0.000103
C64	C	1.460860	1.019819	0.500103
N65	N	0.916307	0.163353	0.206652
N66	N	1.416307	0.663353	0.706652
N67	N	0.916354	0.163381	-0.206445
N68	N	1.416354	0.663381	0.293555
C69	C	0.956525	0.080770	0.248375
C70	C	1.456525	0.580770	0.748375
C71	C	0.956529	0.080769	0.331828
C72	C	1.456529	0.580769	0.831828
C73	C	0.916319	0.163358	0.373555
C74	C	1.416319	0.663358	0.873555
C75	C	0.876096	0.245945	0.331826
C76	C	1.376096	0.745945	0.831826
C77	C	0.876088	0.245939	0.248376
C78	C	1.376088	0.745939	0.748376
C79	C	0.876127	0.245969	0.668374
C80	C	1.376127	0.745969	1.168374
C81	C	0.876140	0.245971	0.751830
C82	C	1.376140	0.745971	1.251830
C83	C	0.956568	0.080799	0.751826
C84	C	1.456568	0.580799	1.251826
C85	C	0.956560	0.080793	0.668375
C86	C	1.456560	0.580793	1.168375
C87	C	0.916334	0.163375	0.626653
C88	C	1.416334	0.663375	1.126653
C89	C	0.916329	0.163374	0.536165
C90	C	1.416329	0.663374	1.036165
C91	C	0.916328	0.163366	0.464042
C92	C	1.416328	0.663366	0.964042
H93	H	0.698488	0.370838	0.000073
H94	H	1.198488	0.870838	0.500073
C95	C	0.121120	-0.075976	0.000132
C96	C	0.621120	0.424024	0.500132
N97	N	0.083302	-0.168397	0.000145
N98	N	0.583302	0.331603	0.500145
C99	C	0.822201	-0.459848	0.000089
C100	C	1.322201	0.040152	0.500089
N101	N	0.759030	-0.500246	0.000084
N102	N	1.259030	-0.000246	0.500084
C103	C	1.000791	-0.010064	0.622479
C104	C	1.500791	0.489936	1.122479
N105	N	1.034105	-0.078504	0.587912
N106	N	1.534105	0.421496	1.087912
C107	C	0.831897	0.336822	0.797729
C108	C	1.331897	0.836822	1.297729
N109	N	0.798575	0.405246	0.832300
N110	N	1.298575	0.905246	1.332300
H111	H	0.989319	0.013552	0.785804
H112	H	1.489319	0.513552	1.285804
H113	H	0.989277	0.013523	0.365798
H114	H	1.489277	0.513523	0.865798
H115	H	0.809717	-0.232783	0.000085
H116	H	1.309717	0.267217	0.500085
C117	C	0.831852	0.336797	0.202481
C118	C	1.331852	0.836797	0.702481
N119	N	0.798533	0.405235	0.167914
N120	N	1.298533	0.905235	0.667914
H121	H	1.022943	-0.440480	0.000050
H122	H	1.522943	0.059520	0.500050
C123	C	0.545179	0.398463	0.000102
C124	C	1.045179	0.898463	0.500102
N125	N	0.517366	0.489213	0.000118
N126	N	1.017366	0.989213	0.500118
C127	C	0.312828	0.392523	0.000107
C128	C	0.812828	0.892523	0.500107
N129	N	0.350643	0.484947	0.000112
N130	N	0.850643	0.984947	0.500112
H131	H	0.532868	-0.033903	0.000110
H132	H	1.032868	0.466097	0.500110
C133	C	0.287473	-0.071731	0.000117
C134	C	0.787473	0.428269	0.500117
N135	N	0.315283	-0.162484	0.000118
N136	N	0.815283	0.337516	0.500118
C137	C	1.000759	-0.010086	0.202483
C138	C	1.500759	0.489914	0.702483
N139	N	1.034075	-0.078526	0.167919
N140	N	1.534075	0.421474	0.667919
H141	H	0.156058	0.356975	0.000111
H142	H	0.656058	0.856975	0.500111
H143	H	0.988654	-0.227333	0.000115
H144	H	1.488654	0.272667	0.500115
H145	H	0.676594	-0.030240	0.000090
H146	H	1.176594	0.469760	0.500090
C147	C	0.831997	0.336969	0.622491
C148	C	1.331997	0.836969	1.122491
N149	N	0.798798	0.405571	0.587929
N150	N	1.298798	0.905571	1.087929
C151	C	0.831856	0.336783	0.377730
C152	C	1.331856	0.836783	0.877730
N153	N	0.798533	0.405203	0.412303
N154	N	1.298533	0.905203	0.912303
