data_functionalizedCrystal
_audit_creation_method	'MofGen! by Chris Wilmer'
_symmetry_space_group_name_H-M	'P1'
_symmetry_Int_Tables_number	1
_symmetry_cell_setting	triclinic
loop_
_symmetry_equiv_pos_as_xyz
  x,y,z
_cell_length_a	25.639240
_cell_length_b	12.759401
_cell_length_c	12.759393
_cell_angle_alpha	89.981433
_cell_angle_beta	89.967965
_cell_angle_gamma	90.031103
loop_
_atom_site_label
_atom_site_type_symbol
_atom_site_fract_x
_atom_site_fract_y
_atom_site_fract_z
Zn1	Zn	-0.208133	1.606129	-0.593980
Zn2	Zn	0.291867	2.106129	-0.093980
Zn3	Zn	-0.295580	1.605970	-0.418299
Zn4	Zn	0.204420	2.105970	0.081701
Zn5	Zn	-0.208159	1.430431	-0.418319
Zn6	Zn	0.291841	1.930431	0.081681
Zn7	Zn	-0.295538	1.430366	-0.593940
Zn8	Zn	0.204462	1.930366	-0.093940
O9	O	-0.251853	1.518224	-0.506134
O10	O	0.248147	2.018224	-0.006134
O11	O	-0.219740	1.753129	-0.570684
O12	O	0.280260	2.253129	-0.070684
O13	O	-0.284012	1.582645	-0.271280
O14	O	0.215988	2.082645	0.228720
O15	O	-0.134990	1.453831	-0.441646
O16	O	0.365010	1.953831	0.058354
O17	O	-0.283987	1.753012	-0.441611
O18	O	0.216013	2.253012	0.058389
O19	O	-0.134971	1.582915	-0.570703
O20	O	0.365029	2.082915	-0.070703
O21	O	-0.219784	1.453677	-0.271295
O22	O	0.280216	1.953677	0.228705
O23	O	-0.219743	1.283401	-0.441607
O24	O	0.280257	1.783401	0.058393
O25	O	-0.283915	1.453721	-0.740966
O26	O	0.216085	1.953721	-0.240966
O27	O	-0.283940	1.283354	-0.570635
O28	O	0.216060	1.783354	-0.070635
O29	O	-0.219699	1.582853	-0.740996
O30	O	0.280301	2.082853	-0.240996
O31	O	-0.368740	1.582582	-0.441572
O32	O	0.131260	2.082582	0.058428
O33	O	-0.368709	1.453567	-0.570615
O34	O	0.131291	1.953567	-0.070615
C35	C	-0.251840	1.245256	-0.506120
C36	C	0.248160	1.745256	-0.006120
C37	C	-0.251848	1.128480	-0.506138
C38	C	0.248152	1.628480	-0.006138
C39	C	-0.218457	1.073672	-0.573450
C40	C	0.281543	1.573672	-0.073450
C41	C	-0.218467	0.963947	-0.573457
C42	C	0.281533	1.463947	-0.073457
C43	C	-0.285262	0.963850	-0.438837
C44	C	0.214738	1.463850	0.061163
C45	C	-0.285249	1.073572	-0.438825
C46	C	0.214751	1.573572	0.061175
C47	C	-0.185056	1.128580	-0.640763
C48	C	0.314944	1.628580	-0.140763
C49	C	-0.151663	1.073771	-0.708082
C50	C	0.348337	1.573771	-0.208082
C51	C	-0.151673	0.964047	-0.708088
C52	C	0.348327	1.464047	-0.208088
C53	C	-0.185076	0.909132	-0.640777
C54	C	0.314924	1.409132	-0.140777
C55	C	-0.387695	1.518079	-0.506110
C56	C	0.112305	2.018079	-0.006110
C57	C	-0.445809	1.518113	-0.506135
C58	C	0.054191	2.018113	-0.006135
C59	C	-0.696941	1.585432	-0.573403
C60	C	-0.196941	2.085432	-0.073403
C61	C	-0.642337	1.585401	-0.573395
C62	C	-0.142337	2.085401	-0.073395
O63	O	-0.614049	1.642517	-0.630554
O64	O	-0.114049	2.142517	-0.130554
N65	N	-0.615083	1.518228	-0.506148
N66	N	-0.115083	2.018228	-0.006148
C67	C	-0.642436	1.451089	-0.438897
C68	C	-0.142436	1.951089	0.061103
O69	O	-0.614240	1.393952	-0.381697
O70	O	-0.114240	1.893952	0.118303
C71	C	-0.697039	1.451127	-0.438900
C72	C	-0.197039	1.951127	0.061100
C73	C	-0.724291	1.518297	-0.506159
C74	C	-0.224291	2.018297	-0.006159
C75	C	-0.724193	1.652597	-0.640656
C76	C	-0.224193	2.152597	-0.140656
C77	C	-0.778793	1.652627	-0.640665
C78	C	-0.278793	2.152627	-0.140665
C79	C	-0.806143	1.585492	-0.573421
C80	C	-0.306143	2.085492	-0.073421
C81	C	-0.778891	1.518327	-0.506168
C82	C	-0.278891	2.018327	-0.006168
C83	C	-0.724391	1.383995	-0.371645
C84	C	-0.224391	1.883995	0.128355
C85	C	-0.778998	1.384039	-0.371653
C86	C	-0.278998	1.884039	0.128347
C87	C	-0.806250	1.451209	-0.438912
C88	C	-0.306250	1.951209	0.061088
C89	C	-0.860841	1.451222	-0.438934
C90	C	-0.360841	1.951222	0.061066
N91	N	-0.888095	1.518394	-0.506181
N92	N	-0.388095	2.018394	-0.006181
C93	C	-0.860746	1.585530	-0.573425
C94	C	-0.360746	2.085530	-0.073425
C95	C	-0.527765	1.451017	-0.438894
C96	C	-0.027765	1.951017	0.061106
C97	C	-0.473163	1.450973	-0.438895
C98	C	0.026837	1.950973	0.061105
C99	C	-0.473068	1.585286	-0.573392
C100	C	0.026932	2.085286	-0.073392
C101	C	-0.527671	1.585323	-0.573395
C102	C	-0.027671	2.085323	-0.073395
C103	C	-0.555020	1.518190	-0.506141
C104	C	-0.055020	2.018190	-0.006141
C105	C	-0.975411	1.585587	-0.573439
C106	C	-0.475411	2.085587	-0.073439
C107	C	-1.030016	1.585608	-0.573445
C108	C	-0.530016	2.085608	-0.073445
C109	C	-1.030107	1.451299	-0.438945
C110	C	-0.530107	1.951299	0.061055
C111	C	-0.975506	1.451274	-0.438942
C112	C	-0.475506	1.951274	0.061058
C113	C	-0.948160	1.518426	-0.506193
C114	C	-0.448160	2.018426	-0.006193
O115	O	-0.889164	1.394137	-0.381801
O116	O	-0.389164	1.894137	0.118199
O117	O	-0.888948	1.642668	-0.630606
O118	O	-0.388948	2.142668	-0.130606
C119	C	-0.115480	1.518398	-0.506182
C120	C	0.384520	2.018398	-0.006182
C121	C	-0.057365	1.518472	-0.506202
C122	C	0.442635	2.018472	-0.006202
C123	C	-0.251800	1.518297	-0.780168
C124	C	0.248200	2.018297	-0.280168
C125	C	-0.251777	1.518329	-0.896944
C126	C	0.248223	2.018329	-0.396944
C127	C	-0.251865	1.792257	-0.506150
C128	C	0.248135	2.292257	-0.006150
C129	C	-0.251871	1.909034	-0.506156
C130	C	0.248129	2.409034	-0.006156
C131	C	-0.218337	1.585577	-0.951824
C132	C	0.281663	2.085577	-0.451824
C133	C	-0.218318	1.585602	-1.061548
C134	C	0.281682	2.085602	-0.561548
C135	C	-0.285184	1.451127	-1.061504
C136	C	0.214816	1.951127	-0.561504
C137	C	-0.285200	1.451098	-0.951782
C138	C	0.214800	1.951098	-0.451782
C139	C	-0.184914	1.652808	-0.896986
C140	C	0.315086	2.152808	-0.396986
C141	C	-0.151471	1.720062	-0.951865
C142	C	0.348529	2.220062	-0.451865
C143	C	-0.151452	1.720087	-1.061589
C144	C	0.348548	2.220087	-0.561589
C145	C	-0.184876	1.652858	-1.116434
C146	C	0.315124	2.152858	-0.616434
C147	C	-0.251867	1.518211	-0.233167
C148	C	0.248133	2.018211	0.266833
C149	C	-0.251743	1.518383	-0.116391
C150	C	0.248257	2.018383	0.383609
H151	H	-0.124480	0.919425	-0.762894
H152	H	0.375520	1.419425	-0.262894
H153	H	-0.800977	1.707332	-0.695426
H154	H	-0.300977	2.207332	-0.195426
H155	H	-0.312396	1.396392	-1.106168
H156	H	0.187604	1.896392	-0.606168
H157	H	-0.953152	1.640269	-0.628200
H158	H	-0.453152	2.140269	-0.128200
H159	H	-0.702211	1.329300	-0.316876
H160	H	-0.202211	1.829300	0.183124
H161	H	-0.701930	1.707272	-0.695413
H162	H	-0.201930	2.207272	-0.195413
H163	H	-0.450979	1.396266	-0.384138
H164	H	0.049021	1.896266	0.115862
H165	H	-0.550029	1.396339	-0.384130
H166	H	-0.050029	1.896339	0.115870
H167	H	-0.953318	1.396568	-0.384185
H168	H	-0.453318	1.896568	0.115815
H169	H	-0.185070	0.819787	-0.640765
H170	H	0.314930	1.319787	-0.140765
H171	H	-0.312422	1.396322	-0.907098
H172	H	0.187578	1.896322	-0.407098
H173	H	-0.185044	1.217923	-0.640765
H174	H	0.314956	1.717923	-0.140765
H175	H	-0.549856	1.640015	-0.628168
H176	H	-0.049856	2.140015	-0.128168
H177	H	-1.052384	1.396637	-0.384199
H178	H	-0.552384	1.896637	0.115801
H179	H	-0.801262	1.329370	-0.316884
H180	H	-0.301262	1.829370	0.183116
H181	H	-0.124218	1.774842	-1.106269
H182	H	0.375782	2.274842	-0.606269
H183	H	-0.184927	1.652797	-0.807643
H184	H	0.315073	2.152797	-0.307643
H185	H	-0.124256	1.774792	-0.907203
H186	H	0.375744	2.274792	-0.407203
H187	H	-0.184852	1.652871	-1.205779
H188	H	0.315148	2.152871	-0.705779
H189	H	-0.312458	0.919128	-0.384036
H190	H	0.187542	1.419128	0.115964
H191	H	-1.052202	1.640304	-0.628222
H192	H	-0.552202	2.140304	-0.128222
H193	H	-0.124465	1.118491	-0.762878
H194	H	0.375535	1.618491	-0.262878
H195	H	-0.312439	1.118198	-0.384014
H196	H	0.187561	1.618198	0.115986
H197	H	-0.450790	1.639953	-0.628144
H198	H	0.049210	2.139953	-0.128144
