data_functionalizedCrystal
_audit_creation_method	'MofGen! by Chris Wilmer'
_symmetry_space_group_name_H-M	'P1'
_symmetry_Int_Tables_number	1
_symmetry_cell_setting	triclinic
loop_
_symmetry_equiv_pos_as_xyz
  x,y,z
_cell_length_a	10.654545
_cell_length_b	8.597304
_cell_length_c	9.730223
_cell_angle_alpha	82.295717
_cell_angle_beta	89.997167
_cell_angle_gamma	84.908900
loop_
_atom_site_label
_atom_site_type_symbol
_atom_site_fract_x
_atom_site_fract_y
_atom_site_fract_z
O1	O	1.669013	0.220431	-0.140372
O2	O	1.303645	0.241442	-0.142865
O3	O	1.493519	0.002547	-0.114572
O4	O	1.479139	0.459326	-0.168665
O5	O	1.493507	0.002541	0.114009
O6	O	1.303633	0.241436	0.085716
O7	O	1.669001	0.220424	0.088209
Zn8	Zn	1.486315	0.230929	0.123254
Zn9	Zn	1.486331	0.230937	-0.177911
O10	O	1.479127	0.459319	0.059915
C11	C	1.256833	0.239898	-0.028393
C12	C	1.117365	0.235286	-0.027849
C13	C	1.051842	0.233112	0.097008
C14	C	0.920799	0.228753	0.097524
C15	C	0.920814	0.228750	-0.151686
C16	C	1.051855	0.233097	-0.152199
C17	C	1.491969	-0.055944	0.006642
C18	C	1.487351	-0.230222	0.027272
C19	C	1.715813	0.221969	-0.026266
C20	C	1.855281	0.226580	-0.026819
C21	C	1.480678	0.517811	-0.061302
C22	C	1.485295	0.692088	-0.081940
N23	N	1.486313	0.230922	0.328792
N24	N	1.486343	0.230932	-0.383446
C25	C	1.570418	0.125184	0.413241
C26	C	1.570431	0.125185	0.557123
C27	C	1.402228	0.336675	0.532094
C28	C	1.402211	0.336665	0.388215
H29	H	0.867459	0.226969	-0.252927
C30	C	1.378942	-0.240770	-0.302240
C31	C	1.487679	-0.217752	-0.229498
H32	H	1.380409	-0.185099	-0.393337
H33	H	1.376061	-0.349977	-0.307234
H34	H	1.306614	-0.202817	-0.255490
H35	H	1.560008	-0.255715	-0.276243
H36	H	1.490572	-0.108522	-0.224511
H37	H	1.333756	0.422771	0.580491
C38	C	1.740862	0.092991	0.255142
C39	C	1.662793	0.008903	0.347891
H40	H	1.797876	0.021184	0.214800
H41	H	1.690770	0.155986	0.184283
H42	H	1.786903	0.158810	0.303451
H43	H	1.616746	-0.056908	0.299579
H44	H	1.712892	-0.054119	0.418760
C45	C	1.038664	0.232652	0.343394
C46	C	1.123854	0.235492	0.233694
H47	H	1.083123	0.234107	0.427781
H48	H	0.979098	0.322325	0.327596
H49	H	0.996010	0.139580	0.349216
H50	H	1.166502	0.328571	0.227867
H51	H	1.183442	0.145811	0.249497
H52	H	1.105205	0.234864	-0.253878
H53	H	1.638916	0.039082	0.625879
H54	H	1.485564	-0.297040	0.136572
H55	H	1.333716	0.422770	0.319451
H56	H	0.867457	0.226983	0.199196
