data_functionalizedCrystal
_audit_creation_method	'MofGen! by Chris Wilmer'
_symmetry_space_group_name_H-M	'P1'
_symmetry_Int_Tables_number	1
_symmetry_cell_setting	triclinic
loop_
_symmetry_equiv_pos_as_xyz
  x,y,z
_cell_length_a	12.827893
_cell_length_b	12.759399
_cell_length_c	12.827885
_cell_angle_alpha	89.969872
_cell_angle_beta	89.980919
_cell_angle_gamma	90.015377
loop_
_atom_site_label
_atom_site_type_symbol
_atom_site_fract_x
_atom_site_fract_y
_atom_site_fract_z
Zn1	Zn	1.597669	-0.418216	-0.590841
Zn2	Zn	2.097669	0.081784	-0.090841
Zn3	Zn	1.597564	-0.593932	-0.416100
Zn4	Zn	2.097564	-0.093932	0.083900
Zn5	Zn	1.422911	-0.418267	-0.416115
Zn6	Zn	1.922911	0.081733	0.083885
Zn7	Zn	1.422896	-0.593854	-0.590801
Zn8	Zn	1.922896	-0.093854	-0.090801
O9	O	1.510260	-0.506067	-0.503464
O10	O	2.010260	-0.006067	-0.003464
O11	O	1.743891	-0.441537	-0.567672
O12	O	2.243891	0.058463	-0.067672
O13	O	1.574357	-0.570684	-0.269866
O14	O	2.074357	-0.070684	0.230134
O15	O	1.446144	-0.271240	-0.439316
O16	O	1.946144	0.228760	0.060684
O17	O	1.743814	-0.570634	-0.439290
O18	O	2.243814	-0.070634	0.060710
O19	O	1.574538	-0.271202	-0.567686
O20	O	2.074538	0.228798	-0.067686
O21	O	1.446041	-0.441624	-0.269877
O22	O	1.946041	0.058376	0.230123
O23	O	1.276673	-0.441548	-0.439277
O24	O	1.776673	0.058452	0.060723
O25	O	1.446118	-0.570501	-0.737042
O26	O	1.946118	-0.070501	-0.237042
O27	O	1.276662	-0.570550	-0.567618
O28	O	1.776662	-0.070550	-0.067618
O29	O	1.574524	-0.441461	-0.737072
O30	O	2.074524	0.058539	-0.237072
O31	O	1.574343	-0.740942	-0.439251
O32	O	2.074343	-0.240942	0.060749
O33	O	1.446016	-0.740885	-0.567603
O34	O	1.946016	-0.240885	-0.067603
C35	C	1.238750	-0.506047	-0.503445
C36	C	1.738750	-0.006047	-0.003445
C37	C	1.122597	-0.506064	-0.503462
C38	C	1.622597	-0.006064	-0.003462
C39	C	0.950806	-0.442314	-0.567104
C40	C	1.450806	0.057686	-0.067104
C41	C	1.070857	-0.442295	-0.567088
C42	C	1.570857	0.057705	-0.067088
C43	C	1.510195	-0.779035	-0.503444
C44	C	2.010195	-0.279035	-0.003444
C45	C	1.510262	-0.895811	-0.503470
C46	C	2.010262	-0.395811	-0.003470
C47	C	1.577230	-1.060393	-0.436743
C48	C	2.077230	-0.560393	0.063257
C49	C	1.577162	-0.950669	-0.436713
C50	C	2.077162	-0.450669	0.063287
C51	C	1.443419	-0.950683	-0.570256
C52	C	1.943419	-0.450683	-0.070256
C53	C	1.443482	-1.060405	-0.570280
C54	C	1.943482	-0.560405	-0.070280
C55	C	1.644142	-1.115245	-0.369989
C56	C	2.144142	-0.615245	0.130011
C57	C	1.710985	-1.060381	-0.303202
C58	C	2.210985	-0.560381	0.196798
C59	C	1.710916	-0.950657	-0.303172
C60	C	2.210916	-0.450657	0.196828
C61	C	1.644006	-0.895797	-0.369928
C62	C	2.144006	-0.395797	0.130072
C63	C	1.782830	-0.506088	-0.503484
C64	C	2.282830	-0.006088	-0.003484
C65	C	1.898983	-0.506097	-0.503492
C66	C	2.398983	-0.006097	-0.003492
C67	C	1.510331	-0.505966	-0.776035
C68	C	2.010331	-0.005966	-0.276035
C69	C	1.510361	-0.505923	-0.892188
C70	C	2.010361	-0.005923	-0.392188
C71	C	1.510354	-0.232034	-0.503507
C72	C	2.010354	0.267966	-0.003507
C73	C	1.510394	-0.115257	-0.503526
C74	C	2.010394	0.384743	-0.003526
C75	C	1.446876	-0.569705	-1.064002
C76	C	1.946876	-0.069705	-0.564002
C77	C	1.446843	-0.569750	-0.943952
C78	C	1.946843	-0.069750	-0.443952
C79	C	1.510249	-0.506092	-0.231954
C80	C	2.010249	-0.006092	0.268046
C81	C	1.510421	-0.505839	-0.115802
C82	C	2.010421	-0.005839	0.384198
H83	H	0.906297	-0.387725	-0.621580
H84	H	1.406297	0.112275	-0.121580
F85	F	1.375735	-0.641226	-0.885731
F86	F	1.875735	-0.141226	-0.385731
H87	H	1.644208	-1.204588	-0.370009
H88	H	2.144208	-0.704588	0.129991
F89	F	1.375791	-0.641126	-1.122200
F90	F	1.875791	-0.141126	-0.622200
H91	H	1.388944	-0.906009	-0.624607
H92	H	1.888944	-0.406009	-0.124607
F93	F	1.581482	-0.434455	-0.950402
F94	F	2.081482	0.065545	-0.450402
F95	F	1.129104	-0.370912	-0.638269
F96	F	1.629104	0.129088	-0.138269
F97	F	1.782185	-1.118768	-0.232153
F98	F	2.282185	-0.618768	0.267847
F99	F	1.782048	-0.892269	-0.232087
F100	F	2.282048	-0.392269	0.267913
H101	H	1.389069	-1.105077	-0.624670
H102	H	1.889069	-0.605077	-0.124670
F103	F	1.064356	-0.577440	-0.432268
F104	F	1.564356	-0.077440	0.067732
F105	F	0.957154	-0.577463	-0.432296
F106	F	1.457154	-0.077463	0.067704
F107	F	1.581497	-0.434408	-1.057604
F108	F	2.081497	0.065592	-0.557604
F109	F	1.644155	-0.779018	-0.370111
F110	F	2.144155	-0.279018	0.129889
