data_functionalizedCrystal
_audit_creation_method	'MofGen! by Chris Wilmer'
_symmetry_space_group_name_H-M	'P1'
_symmetry_Int_Tables_number	1
_symmetry_cell_setting	triclinic
loop_
_symmetry_equiv_pos_as_xyz
  x,y,z
_cell_length_a	13.262533
_cell_length_b	11.804783
_cell_length_c	12.837942
_cell_angle_alpha	102.037669
_cell_angle_beta	90.566225
_cell_angle_gamma	61.251876
loop_
_atom_site_label
_atom_site_type_symbol
_atom_site_fract_x
_atom_site_fract_y
_atom_site_fract_z
O1	O	1.486880	-0.382513	-0.212259
O2	O	1.160650	-0.276860	-0.207403
O3	O	1.316533	-0.327352	-0.058456
O4	O	1.330998	-0.332022	-0.361206
O5	O	1.361118	-0.539830	-0.098755
O6	O	1.205235	-0.489338	-0.247702
O7	O	1.531465	-0.594991	-0.252558
Cu8	Cu	1.372421	-0.561566	-0.253810
Cu9	Cu	1.319694	-0.310286	-0.206151
O10	O	1.375582	-0.544500	-0.401505
C11	C	1.140897	-0.369482	-0.224118
C12	C	1.015612	-0.328907	-0.213872
N13	N	1.409513	-0.738305	-0.287330
C14	C	0.759659	-0.677823	-0.272872
C15	C	0.877371	-0.715951	-0.282505
C16	C	0.911938	-0.619193	-0.265347
C17	C	0.828779	-0.484301	-0.238555
C18	C	0.711055	-0.446169	-0.228929
C19	C	0.863334	-0.387539	-0.221404
C20	C	0.780175	-0.252647	-0.194612
C21	C	0.662463	-0.214522	-0.184987
C22	C	0.627897	-0.311279	-0.202145
C23	C	0.981058	-0.425672	-0.231030
C24	C	0.932454	-0.194018	-0.187088
C25	C	0.814741	-0.155890	-0.177454
C26	C	1.193495	-1.042376	-0.092118
C27	C	1.165412	-0.908630	-0.066752
C28	C	1.226435	-0.866042	-0.121895
C29	C	1.315546	-0.957214	-0.202407
C30	C	1.343638	-1.090975	-0.227770
C31	C	1.376577	-0.914640	-0.257547
C32	C	1.465688	-1.005812	-0.338059
C33	C	1.493775	-1.139559	-0.363418
C34	C	1.432752	-1.182148	-0.308275
C35	C	1.348485	-0.780879	-0.232184
C36	C	1.498628	-0.829478	-0.367836
C37	C	1.526711	-0.963224	-0.393202
C38	C	1.551218	-0.502367	-0.235843
C39	C	1.676501	-0.542933	-0.246088
C40	C	1.333938	-0.432007	-0.039665
C41	C	1.319361	-0.427285	0.076367
N42	N	1.282610	-0.133549	-0.172623
C43	C	1.358177	-0.439841	-0.420296
C44	C	1.372752	-0.444556	-0.536326
C45	C	1.494591	-0.484010	0.305858
C46	C	1.480900	-0.479574	0.414881
C47	C	1.278287	-0.413968	0.403438
C48	C	1.291978	-0.418404	0.294415
C49	C	1.400134	-0.453428	0.245629
C50	C	1.413826	-0.457873	0.136603
C51	C	1.211212	-0.392258	0.125164
C52	C	1.197521	-0.387822	0.234186
H53	H	1.007786	-0.650246	-0.273192
H54	H	0.747018	-0.046058	-0.155641
C55	C	1.391222	-1.347281	-0.270771
C56	C	1.463614	-1.329166	-0.336166
H57	H	1.410276	-1.438045	-0.287989
H58	H	1.312988	-1.293748	-0.282163
H59	H	1.401324	-1.322355	-0.197808
H60	H	1.453505	-1.354083	-0.409129
H61	H	1.541867	-1.382718	-0.324782
C62	C	0.600775	-0.722207	-0.277631
C63	C	0.721660	-0.784166	-0.291735
H64	H	0.577320	-0.787868	-0.289274
H65	H	0.569410	-0.667689	-0.327296
H66	H	0.573615	-0.669060	-0.206748
H67	H	0.748820	-0.837305	-0.362620
H68	H	0.753038	-0.838707	-0.242068
H69	H	1.548319	-0.794805	-0.412737
H70	H	1.599267	-1.037474	-0.458756
H71	H	1.190228	-0.385439	0.443181
C72	C	1.061817	-0.635857	-0.182588
C73	C	1.072459	-0.573938	-0.260467
H74	H	1.118251	-0.727394	-0.200758
H75	H	0.986770	-0.626992	-0.179320
H76	H	1.073233	-0.595189	-0.114871
H77	H	1.061035	-0.614599	-0.328183
H78	H	1.147524	-0.582812	-0.263746
C79	C	0.913580	-0.941092	-0.324969
C80	C	0.968774	-0.864216	-0.311947
H81	H	0.970013	-1.032629	-0.343140
H82	H	0.864552	-0.920716	-0.380570
H83	H	0.868757	-0.922080	-0.260021
H84	H	1.013590	-0.883221	-0.376899
H85	H	1.017822	-0.884601	-0.256343
C86	C	1.682549	-0.544877	0.415235
C87	C	1.584732	-0.513198	0.481085
H88	H	1.746653	-0.565642	0.456107
H89	H	1.668125	-0.471149	0.386527
H90	H	1.699218	-0.619341	0.358420
H91	H	1.568058	-0.438728	0.537895
H92	H	1.599157	-0.586933	0.509809
C93	C	1.612718	-0.522251	0.158873
C94	C	1.532705	-0.496357	0.082977
H95	H	1.686107	-0.545997	0.125769
H96	H	1.618722	-0.593253	0.187104
H97	H	1.587594	-0.445050	0.215211
H98	H	1.557825	-0.573561	0.026642
H99	H	1.526704	-0.425348	0.054729
C100	C	1.086569	-0.351899	0.396228
C101	C	1.078642	-0.349333	0.287816
H102	H	1.013178	-0.328148	0.429331
H103	H	1.110385	-0.290549	0.430488
H104	H	1.141509	-0.438750	0.402386
H105	H	1.023708	-0.262479	0.281658
H106	H	1.054811	-0.410686	0.253546
H107	H	0.960595	-0.115229	-0.173120
H108	H	1.582658	-0.512540	0.266134
C109	C	1.142224	-0.369917	-0.047038
C110	C	1.107373	-0.358629	0.058958
H111	H	1.078118	-0.349150	-0.087907
H112	H	1.201631	-0.458212	-0.076597
H113	H	1.170543	-0.310022	-0.048495
H114	H	1.079062	-0.418531	0.060416
H115	H	1.047945	-0.270320	0.088524
H116	H	1.275930	-0.706659	-0.166631
H117	H	0.532048	-0.280242	-0.194293
C118	C	1.639356	-1.174157	-0.494965
C119	C	1.591729	-1.239778	-0.451915
H120	H	1.699823	-1.236028	-0.549603
H121	H	1.669448	-1.135276	-0.440080
H122	H	1.581098	-1.106678	-0.524424
H123	H	1.649985	-1.307252	-0.422449
H124	H	1.561639	-1.278681	-0.506809
C125	C	0.626246	0.010630	-0.142505
C126	C	0.571053	-0.066248	-0.155539
H127	H	0.569813	0.102167	-0.124317
H128	H	0.671060	-0.008365	-0.207442
H129	H	0.675283	-0.009762	-0.086900
H130	H	0.522022	-0.045863	-0.211149
H131	H	0.526219	-0.047244	-0.090593
C132	C	1.104453	-0.647991	-0.011716
C133	C	1.195558	-0.719023	-0.094023
H134	H	1.085382	-0.557222	0.005484
H135	H	1.127260	-0.683563	0.049765
H136	H	1.038922	-0.655000	-0.034588
H137	H	1.261092	-0.712023	-0.071149
H138	H	1.172755	-0.683441	-0.155517
C139	C	0.963688	-0.804995	-0.005525
C140	C	1.067452	-0.808429	0.021732
H141	H	0.903204	-0.743130	0.049101
H142	H	0.971702	-0.890746	-0.012741
H143	H	0.945778	-0.778758	-0.071413
H144	H	1.085366	-0.834677	0.087617
H145	H	1.059438	-0.722660	0.028960
H146	H	1.143827	-1.077068	-0.047223
