data_functionalizedCrystal
_audit_creation_method	'MofGen! by Chris Wilmer'
_symmetry_space_group_name_H-M	'P1'
_symmetry_Int_Tables_number	1
_symmetry_cell_setting	triclinic
loop_
_symmetry_equiv_pos_as_xyz
  x,y,z
_cell_length_a	13.032831
_cell_length_b	16.625546
_cell_length_c	13.033352
_cell_angle_alpha	82.833343
_cell_angle_beta	89.095163
_cell_angle_gamma	82.826778
loop_
_atom_site_label
_atom_site_type_symbol
_atom_site_fract_x
_atom_site_fract_y
_atom_site_fract_z
Zn1	Zn	1.498220	-0.544737	0.780749
Zn2	Zn	1.748220	-0.294737	1.030749
Zn3	Zn	1.998220	-0.044737	1.280749
Zn4	Zn	2.248220	0.205263	1.530749
Zn5	Zn	1.519997	-0.664820	0.608762
Zn6	Zn	1.769997	-0.414820	0.858762
Zn7	Zn	2.019997	-0.164820	1.108762
Zn8	Zn	2.269997	0.085180	1.358762
Zn9	Zn	1.348133	-0.511001	0.587001
Zn10	Zn	1.598133	-0.261001	0.837001
Zn11	Zn	1.848133	-0.011001	1.087001
Zn12	Zn	2.098133	0.238999	1.337001
Zn13	Zn	1.326205	-0.660503	0.758883
Zn14	Zn	1.576205	-0.410503	1.008883
Zn15	Zn	1.826205	-0.160503	1.258883
Zn16	Zn	2.076205	0.089497	1.508883
O17	O	1.423139	-0.595265	0.683849
O18	O	1.673139	-0.345265	0.933849
O19	O	1.923139	-0.095265	1.183849
O20	O	2.173139	0.154735	1.433849
O21	O	1.645023	-0.576592	0.776193
O22	O	1.895023	-0.326592	1.026193
O23	O	2.145023	-0.076592	1.276193
O24	O	2.395023	0.173408	1.526193
O25	O	1.515490	-0.632104	0.461965
O26	O	1.765490	-0.382104	0.711965
O27	O	2.015490	-0.132104	0.961965
O28	O	2.265490	0.117896	1.211965
O29	O	1.368106	-0.402654	0.612746
O30	O	1.618106	-0.152654	0.862746
O31	O	1.868106	0.097346	1.112746
O32	O	2.118106	0.347346	1.362746
O33	O	1.661023	-0.664817	0.649835
O34	O	1.911023	-0.414817	0.899835
O35	O	2.161023	-0.164817	1.149835
O36	O	2.411023	0.085183	1.399835
O37	O	1.478373	-0.427440	0.755092
O38	O	1.728373	-0.177440	1.005092
O39	O	1.978373	0.072560	1.255092
O40	O	2.228373	0.322560	1.505092
O41	O	1.389222	-0.519094	0.445977
O42	O	1.639222	-0.269094	0.695977
O43	O	1.889222	-0.019094	0.945977
O44	O	2.139222	0.230906	1.195977
O45	O	1.201310	-0.514907	0.591543
O46	O	1.451310	-0.264907	0.841543
O47	O	1.701310	-0.014907	1.091543
O48	O	1.951310	0.235093	1.341543
O49	O	1.330733	-0.657458	0.905694
O50	O	1.580733	-0.407458	1.155694
O51	O	1.830733	-0.157458	1.405694
O52	O	2.080733	0.092542	1.655694
O53	O	1.185200	-0.624745	0.717824
O54	O	1.435200	-0.374745	0.967824
O55	O	1.685200	-0.124745	1.217824
O56	O	1.935200	0.125255	1.467824
O57	O	1.457111	-0.572406	0.921759
O58	O	1.707111	-0.322406	1.171759
O59	O	1.957111	-0.072406	1.421759
O60	O	2.207111	0.177594	1.671759
O61	O	1.494227	-0.777069	0.628632
O62	O	1.744227	-0.527069	0.878632
O63	O	1.994227	-0.277069	1.128632
O64	O	2.244227	-0.027069	1.378632
O65	O	1.351849	-0.773897	0.738925
O66	O	1.601849	-0.523897	0.988925
O67	O	1.851849	-0.273897	1.238925
O68	O	2.101849	-0.023897	1.488925
C69	C	1.155940	-0.565697	0.649950
C70	C	1.405940	-0.315697	0.899950
C71	C	1.655940	-0.065697	1.149950
C72	C	1.905940	0.184303	1.399950
C73	C	1.041628	-0.553070	0.635472
C74	C	1.291628	-0.303070	0.885472
C75	C	1.541628	-0.053070	1.135472
C76	C	1.791628	0.196930	1.385472
C77	C	0.982732	-0.601856	0.691405
C78	C	1.232732	-0.351856	0.941405
C79	C	1.482732	-0.101856	1.191405
C80	C	1.732732	0.148144	1.441405
C81	C	0.864584	-0.588806	0.676443
C82	C	1.114584	-0.338806	0.926443
C83	C	1.364584	-0.088806	1.176443
C84	C	1.614584	0.161194	1.426443
C85	C	1.423047	-0.804742	0.683793
C86	C	1.673047	-0.554742	0.933793
C87	C	1.923047	-0.304742	1.183793
C88	C	2.173047	-0.054742	1.433793
C89	C	1.423098	-0.894370	0.683816
C90	C	1.673098	-0.644370	0.933816
C91	C	1.923098	-0.394370	1.183816
C92	C	2.173098	-0.144370	1.433816
C93	C	1.423263	-1.222575	0.683946
C94	C	1.673263	-0.972575	0.933946
C95	C	1.923263	-0.722575	1.183946
C96	C	2.173263	-0.472575	1.433946
C97	C	1.423214	-1.131258	0.683912
C98	C	1.673214	-0.881258	0.933912
C99	C	1.923214	-0.631258	1.183912
C100	C	2.173214	-0.381258	1.433912
C101	C	1.423180	-1.058475	0.683880
C102	C	1.673180	-0.808475	0.933880
C103	C	1.923180	-0.558475	1.183880
C104	C	2.173180	-0.308475	1.433880
C105	C	1.423131	-0.967153	0.683848
C106	C	1.673131	-0.717153	0.933848
C107	C	1.923131	-0.467153	1.183848
C108	C	2.173131	-0.217153	1.433848
C109	C	1.691382	-0.624949	0.717881
C110	C	1.941382	-0.374949	0.967881
C111	C	2.191382	-0.124949	1.217881
C112	C	2.441382	0.125051	1.467881
C113	C	1.805691	-0.637599	0.732384
C114	C	2.055691	-0.387599	0.982384
C115	C	2.305691	-0.137599	1.232384
C116	C	2.555691	0.112401	1.482384
C117	C	1.389047	-0.618213	0.952084
C118	C	1.639047	-0.368213	1.202084
C119	C	1.889047	-0.118213	1.452084
C120	C	2.139047	0.131787	1.702084
C121	C	1.374519	-0.627992	1.066390
C122	C	1.624519	-0.377992	1.316390
C123	C	1.874519	-0.127992	1.566390
C124	C	2.124519	0.122008	1.816390
C125	C	1.423256	-0.384976	0.683930
C126	C	1.673256	-0.134976	0.933930
C127	C	1.923256	0.115024	1.183930
C128	C	2.173256	0.365024	1.433930
C129	C	1.423306	-0.295363	0.683965
C130	C	1.673306	-0.045363	0.933965
C131	C	1.923306	0.204637	1.183965
C132	C	2.173306	0.454637	1.433965
C133	C	1.430571	-0.590270	1.125300
C134	C	1.680571	-0.340270	1.375300
C135	C	1.930571	-0.090270	1.625300
C136	C	2.180571	0.159730	1.875300
C137	C	1.415557	-0.600376	1.243441
C138	C	1.665557	-0.350376	1.493441
C139	C	1.915557	-0.100376	1.743441
C140	C	2.165557	0.149624	1.993441
C141	C	1.457090	-0.572425	1.416656
C142	C	1.707090	-0.322425	1.666656
C143	C	1.957090	-0.072425	1.916656
C144	C	2.207090	0.177575	2.166656
C145	C	1.471617	-0.562649	1.302350
C146	C	1.721617	-0.312649	1.552350
C147	C	1.971617	-0.062649	1.802350
C148	C	2.221617	0.187351	2.052350
H149	H	1.004581	-0.501637	0.576513
H150	H	1.254581	-0.251637	0.826513
H151	H	1.504581	-0.001637	1.076513
H152	H	1.754581	0.248363	1.326513
Br153	Br	0.802854	-0.503073	0.578167
Br154	Br	1.052854	-0.253073	0.828167
Br155	Br	1.302854	-0.003073	1.078167
Br156	Br	1.552854	0.246927	1.328167
H157	H	1.489671	-0.550489	1.088271
H158	H	1.739671	-0.300489	1.338271
H159	H	1.989671	-0.050489	1.588271
H160	H	2.239671	0.199511	1.838271
Br161	Br	1.275995	-0.694286	1.128094
Br162	Br	1.525995	-0.444286	1.378094
Br163	Br	1.775995	-0.194286	1.628094
Br164	Br	2.025995	0.055714	1.878094
H165	H	1.356442	-0.640150	1.280464
H166	H	1.606442	-0.390150	1.530464
H167	H	1.856442	-0.140150	1.780464
H168	H	2.106442	0.109850	2.030464
Br169	Br	1.044466	-0.687581	0.789682
Br170	Br	1.294466	-0.437581	1.039682
Br171	Br	1.544466	-0.187581	1.289682
Br172	Br	1.794466	0.062419	1.539682
Br173	Br	0.867414	-0.723312	0.830689
Br174	Br	1.117414	-0.473312	1.080689
Br175	Br	1.367414	-0.223312	1.330689
Br176	Br	1.617414	0.026688	1.580689
Br177	Br	1.570150	-0.496356	1.240654
Br178	Br	1.820150	-0.246356	1.490654
Br179	Br	2.070150	0.003644	1.740654
Br180	Br	2.320150	0.253644	1.990654
