data_functionalizedCrystal
_audit_creation_method	'MofGen! by Chris Wilmer'
_symmetry_space_group_name_H-M	'P1'
_symmetry_Int_Tables_number	1
_symmetry_cell_setting	triclinic
loop_
_symmetry_equiv_pos_as_xyz
  x,y,z
_cell_length_a	17.639664
_cell_length_b	19.805405
_cell_length_c	19.805398
_cell_angle_alpha	90.028511
_cell_angle_beta	78.817901
_cell_angle_gamma	101.257049
loop_
_atom_site_label
_atom_site_type_symbol
_atom_site_fract_x
_atom_site_fract_y
_atom_site_fract_z
Zn1	Zn	-1.208344	0.059989	-0.173880
Zn2	Zn	-0.708344	0.559989	0.326120
Zn3	Zn	-1.208256	0.173194	-0.060707
Zn4	Zn	-0.708256	0.673194	0.439293
Zn5	Zn	-1.076177	0.082922	-0.083547
Zn6	Zn	-0.576177	0.582922	0.416453
Zn7	Zn	-1.076116	0.196065	-0.196692
Zn8	Zn	-0.576116	0.696065	0.303308
O9	O	-1.142223	0.128042	-0.128707
O10	O	-0.642223	0.628042	0.371293
O11	O	-1.318945	0.055836	-0.139762
O12	O	-0.818945	0.555836	0.360238
O13	O	-1.190724	0.161246	0.030978
O14	O	-0.690724	0.661246	0.530978
O15	O	-1.093771	-0.014847	-0.095542
O16	O	-0.593771	0.485153	0.404458
O17	O	-1.318881	0.139008	-0.056614
O18	O	-0.818881	0.639008	0.443386
O19	O	-1.190873	-0.031696	-0.161909
O20	O	-0.690873	0.468304	0.338091
O21	O	-1.093686	0.094924	0.014197
O22	O	-0.593686	0.594924	0.514197
O23	O	-0.965555	0.117100	-0.117662
O24	O	-0.465555	0.617100	0.382338
O25	O	-1.093668	0.177987	-0.288381
O26	O	-0.593668	0.677987	0.211619
O27	O	-0.965511	0.200225	-0.200789
O28	O	-0.465511	0.700225	0.299211
O29	O	-1.190815	0.078013	-0.271621
O30	O	-0.690815	0.578013	0.228379
O31	O	-1.190665	0.270955	-0.078734
O32	O	-0.690665	0.770955	0.421266
O33	O	-1.093583	0.287758	-0.178641
O34	O	-0.593583	0.787758	0.321359
C35	C	-0.936852	0.163633	-0.164179
C36	C	-0.436852	0.663633	0.335821
C37	C	-0.848994	0.178876	-0.179371
C38	C	-0.348994	0.678876	0.320629
C39	C	-0.725158	0.243697	-0.243988
C40	C	-0.225158	0.743697	0.256012
C41	C	-0.807715	0.229369	-0.229708
C42	C	-0.307715	0.729369	0.270292
C43	C	-0.807725	0.142687	-0.143296
C44	C	-0.307725	0.642687	0.356704
C45	C	-0.725167	0.157004	-0.157571
C46	C	-0.225167	0.657004	0.342429
C47	C	-0.683890	0.207511	-0.207917
C48	C	-0.183890	0.707511	0.292083
C49	C	-0.683899	0.120818	-0.121500
C50	C	-0.183899	0.620818	0.378500
C51	C	-0.601348	0.135138	-0.135772
C52	C	-0.101348	0.635138	0.364228
C53	C	-0.560065	0.185643	-0.186114
C54	C	-0.060065	0.685643	0.313886
C55	C	-0.601339	0.221830	-0.222189
C56	C	-0.101339	0.721830	0.277811
C57	C	-0.725177	0.070316	-0.071151
C58	C	-0.225177	0.570316	0.428849
C59	C	-0.683909	0.034130	-0.035080
C60	C	-0.183909	0.534130	0.464920
C61	C	-0.601356	0.048446	-0.049355
C62	C	-0.101356	0.548446	0.450645
C63	C	-0.560074	0.098951	-0.099697
C64	C	-0.060074	0.598951	0.400303
C65	C	-0.560082	0.012259	-0.013281
C66	C	-0.060082	0.512259	0.486719
C67	C	-0.477531	0.026578	-0.027552
C68	C	0.022469	0.526578	0.472448
C69	C	-0.477523	0.113270	-0.113969
C70	C	0.022477	0.613270	0.386031
C71	C	-1.142129	0.303915	-0.128696
C72	C	-0.642129	0.803915	0.371304
C73	C	-1.142162	0.379141	-0.128701
C74	C	-0.642162	0.879141	0.371299
C75	C	-0.348396	0.092312	-0.093090
C76	C	0.151604	0.592312	0.406910
C77	C	-0.436254	0.077084	-0.077898
C78	C	0.063746	0.577084	0.422102
C79	C	-1.192761	0.405705	-0.076718
C80	C	-0.692761	0.905705	0.423282
C81	C	-1.192792	0.476388	-0.076729
C82	C	-0.692792	0.976388	0.423271
C83	C	-1.142220	0.520507	-0.128723
C84	C	-0.642220	1.020507	0.371277
C85	C	-1.091619	0.493938	-0.180711
C86	C	-0.591619	0.993938	0.319289
C87	C	-1.091592	0.423255	-0.180702
C88	C	-0.591592	0.923255	0.319298
C89	C	-1.091728	0.778992	-0.180752
C90	C	-0.591728	1.278992	0.319248
C91	C	-1.091757	0.849679	-0.180756
C92	C	-0.591757	1.349679	0.319244
C93	C	-1.192928	0.832125	-0.076779
C94	C	-0.692928	1.332125	0.423221
C95	C	-1.192901	0.761443	-0.076770
C96	C	-0.692901	1.261443	0.423230
C97	C	-1.142303	0.734879	-0.128760
C98	C	-0.642303	1.234879	0.371240
C99	C	-1.142271	0.658237	-0.128747
C100	C	-0.642271	1.158237	0.371253
C101	C	-1.142248	0.597149	-0.128733
C102	C	-0.642248	1.097149	0.371267
C103	C	-1.142244	0.127993	-0.305246
C104	C	-0.642244	0.627993	0.194754
C105	C	-1.142253	0.127972	-0.380476
C106	C	-0.642253	0.627972	0.119524
C107	C	-1.142332	0.951481	-0.128738
C108	C	-0.642332	1.451481	0.371262
C109	C	-1.142361	0.876244	-0.128775
C110	C	-0.642361	1.376244	0.371225
C111	C	-1.192906	0.162377	-0.833506
C112	C	-0.692906	0.662377	-0.333506
C113	C	-1.192884	0.162399	-0.762821
C114	C	-0.692884	0.662399	-0.262821
C115	C	-1.142351	0.127879	-0.736221
C116	C	-0.642351	0.627879	-0.236221
C117	C	-1.091832	0.093340	-0.780311
C118	C	-0.591832	0.593340	-0.280311
C119	C	-1.091850	0.093322	-0.850995
C120	C	-0.591850	0.593322	-0.350995
C121	C	-1.091755	0.093411	-0.495251
C122	C	-0.591755	0.593411	0.004749
C123	C	-1.091743	0.093429	-0.424561
C124	C	-0.591743	0.593429	0.075439
C125	C	-1.192789	0.162488	-0.407077
C126	C	-0.692789	0.662488	0.092923
C127	C	-1.192807	0.162470	-0.477761
C128	C	-0.692807	0.662470	0.022239
C129	C	-1.142285	0.127935	-0.521845
C130	C	-0.642285	0.627935	-0.021845
C131	C	-1.142309	0.127912	-0.598490
C132	C	-0.642309	0.627912	-0.098490
C133	C	-1.142331	0.127897	-0.659578
C134	C	-0.642331	0.627897	-0.159578
C135	C	-1.142247	0.128035	0.047153
C136	C	-0.642247	0.628035	0.547153
C137	C	-1.142392	0.127839	0.122410
C138	C	-0.642392	0.627839	0.622410
H139	H	-0.792395	0.058660	-0.059532
H140	H	-0.292395	0.558660	0.440468
C141	C	-0.675625	-0.050116	0.048911
C142	C	-0.175625	0.449884	0.548911
C143	C	-0.729284	-0.021381	0.020263
C144	C	-0.229284	0.478619	0.520263
H145	H	-0.703638	-0.084383	0.083082
H146	H	-0.203638	0.415617	0.583082
H147	H	-0.643455	-0.070389	0.013812
H148	H	-0.143455	0.429611	0.513812
H149	H	-0.643400	-0.015064	0.069279
H150	H	-0.143400	0.484936	0.569279
H151	H	-0.761506	-0.056432	-0.000109
H152	H	-0.261506	0.443568	0.499891
H153	H	-0.761468	-0.001108	0.055369
H154	H	-0.261468	0.498892	0.555369
H155	H	-1.233924	0.190611	-0.371175
H156	H	-0.733924	0.690611	0.128825
C157	C	-1.231331	0.270348	-0.734392
C158	C	-0.731331	0.770348	-0.234392
C159	C	-1.248420	0.200358	-0.714367
C160	C	-0.748420	0.700358	-0.214367
H161	H	-1.265624	0.293781	-0.704480
H162	H	-0.765624	0.793781	-0.204480
H163	H	-1.178222	0.289463	-0.731976
H164	H	-0.678222	0.789463	-0.231976
H165	H	-1.238572	0.275265	-0.780297
H166	H	-0.738572	0.775265	-0.280297
H167	H	-1.241173	0.195441	-0.668462
H168	H	-0.741173	0.695441	-0.168462
H169	H	-1.301542	0.181238	-0.716776
H170	H	-0.801542	0.681238	-0.216776
H171	H	-1.234059	0.190483	-0.855157
H172	H	-0.734059	0.690483	-0.355157
C173	C	-0.900505	0.304339	-0.222907
C174	C	-0.400505	0.804339	0.277093
C175	C	-0.853075	0.269151	-0.269363
C176	C	-0.353075	0.769151	0.230637
H177	H	-0.928503	0.328902	-0.247389
H178	H	-0.428503	0.828902	0.252611
H179	H	-0.936903	0.272212	-0.190892
H180	H	-0.436903	0.772212	0.309108
H181	H	-0.868271	0.335776	-0.198943
H182	H	-0.368271	0.835776	0.301057
H183	H	-0.885310	0.237710	-0.293324
H184	H	-0.385310	0.737710	0.206676
H185	H	-0.816672	0.301281	-0.301391
H186	H	-0.316672	0.801281	0.198609
H187	H	-1.234079	0.725523	-0.034430
H188	H	-0.734079	1.225523	0.465570
C189	C	-0.485825	-0.060557	0.059293
C190	C	0.014175	0.439443	0.559293
C191	C	-0.432163	-0.013200	0.012093
C192	C	0.067837	0.486800	0.512093
H193	H	-0.457815	-0.085115	0.083767
H194	H	0.042185	0.414885	0.583767
H195	H	-0.518000	-0.036685	0.090801
H196	H	-0.018000	0.463315	0.590801
H197	H	-0.518046	-0.091996	0.035319
H198	H	-0.018046	0.408004	0.535319
H199	H	-0.399946	0.018243	0.036068
H200	H	0.100054	0.518243	0.536068
H201	H	-0.399975	-0.037073	-0.019419
H202	H	0.100025	0.462927	0.480581
C203	C	-1.292773	0.395460	0.026059
C204	C	-0.792773	0.895460	0.526059
C205	C	-1.248352	0.357213	-0.019564
C206	C	-0.748352	0.857213	0.480436
H207	H	-1.327097	0.365522	0.061341
H208	H	-0.827097	0.865522	0.561341
H209	H	-1.258365	0.429036	0.046023
H210	H	-0.758365	0.929036	0.546023
H211	H	-1.322992	0.417751	0.001754
H212	H	-0.822992	0.917751	0.501754
H213	H	-1.218127	0.334927	0.004741
H214	H	-0.718127	0.834927	0.504741
H215	H	-1.282763	0.323625	-0.039529
H216	H	-0.782763	0.823625	0.460471
H217	H	-1.050390	0.401628	-0.223033
H218	H	-0.550390	0.901628	0.276967
C219	C	-0.957754	0.538973	-0.236722
C220	C	-0.457754	1.038973	0.263278
C221	C	-1.036029	0.542428	-0.237867
C222	C	-0.536029	1.042428	0.262133
H223	H	-0.923435	0.568905	-0.272011
H224	H	-0.423435	1.068905	0.227989
H225	H	-0.946232	0.552599	-0.193236
H226	H	-0.446232	1.052599	0.306764
H227	H	-0.950509	0.493071	-0.244155
H228	H	-0.450509	0.993071	0.255845
H229	H	-1.043275	0.588329	-0.230429
H230	H	-0.543275	1.088329	0.269571
H231	H	-1.047555	0.528806	-0.281363
H232	H	-0.547555	1.028806	0.218637
C233	C	-1.299285	0.537210	-0.049160
C234	C	-0.799285	1.037210	0.450840
C235	C	-1.248541	0.505503	-0.019625
C236	C	-0.748541	1.005503	0.480375
H237	H	-1.333745	0.555154	-0.013914
H238	H	-0.833745	1.055154	0.486086
H239	H	-1.269178	0.573646	-0.080063
H240	H	-0.769178	1.073646	0.419937
H241	H	-1.329357	0.504328	-0.073522
H242	H	-0.829357	1.004328	0.426478
H243	H	-1.218465	0.538386	0.004734
H244	H	-0.718465	1.038386	0.504734
H245	H	-1.278652	0.469063	0.011291
H246	H	-0.778652	0.969063	0.511291
H247	H	-1.234131	0.853760	-0.034448
H248	H	-0.734131	1.353760	0.465552
C249	C	-0.985432	0.102429	-0.593092
C250	C	-0.485432	0.602429	-0.093092
C251	C	-1.036212	0.055454	-0.543696
C252	C	-0.536212	0.555454	-0.043696
H253	H	-0.951133	0.078996	-0.622997
H254	H	-0.451133	0.578996	-0.122997
H255	H	-1.015525	0.122972	-0.619056
H256	H	-0.515525	0.622972	-0.119056
H257	H	-0.955190	0.137170	-0.570721
H258	H	-0.455190	0.637170	-0.070721
H259	H	-1.066458	0.020715	-0.566067
H260	H	-0.566458	0.520715	-0.066067
H261	H	-1.006115	0.034900	-0.517729
H262	H	-0.506115	0.534900	-0.017729
C263	C	-0.991758	0.859934	-0.283552
C264	C	-0.491758	1.359934	0.216448
C265	C	-1.036171	0.898175	-0.237916
C266	C	-0.536171	1.398175	0.262084
H267	H	-0.957448	0.889874	-0.318839
H268	H	-0.457448	1.389874	0.181161
H269	H	-0.961531	0.837646	-0.259262
H270	H	-0.461531	1.337646	0.240738
H271	H	-1.026176	0.826353	-0.303512
H272	H	-0.526176	1.326353	0.196488
H273	H	-1.001753	0.931753	-0.217952
H274	H	-0.501753	1.431753	0.282048
H275	H	-1.066401	0.920474	-0.262210
H276	H	-0.566401	1.420474	0.237790
C277	C	-1.080628	0.701386	-0.273702
C278	C	-0.580628	1.201386	0.226298
C279	C	-1.036103	0.749806	-0.237897
C280	C	-0.536103	1.249806	0.262103
H281	H	-1.046282	0.683371	-0.308986
H282	H	-0.546282	1.183371	0.191014
H283	H	-1.110732	0.664994	-0.242743
H284	H	-0.610732	1.164994	0.257257
H285	H	-1.115056	0.722958	-0.293671
H286	H	-0.615056	1.222958	0.206329
H287	H	-1.001679	0.728232	-0.217924
H288	H	-0.501679	1.228232	0.282076
H289	H	-1.005985	0.786204	-0.268861
H290	H	-0.505985	1.286204	0.231139
H291	H	-1.233959	0.190577	-0.499414
H292	H	-0.733959	0.690577	0.000586
H293	H	-1.050590	0.065317	-0.402907
H294	H	-0.550590	0.565317	0.097093
H295	H	-0.443913	0.154391	-0.154972
H296	H	0.056087	0.654391	0.345028
H297	H	-1.050684	0.065236	-0.758649
H298	H	-0.550684	0.565236	-0.258649
C299	C	-0.958031	0.083537	-0.895891
C300	C	-0.458031	0.583537	-0.395891
C301	C	-1.036324	0.055355	-0.899454
C302	C	-0.536324	0.555355	-0.399454
H303	H	-0.923751	0.060095	-0.925805
H304	H	-0.423751	0.560095	-0.425805
H305	H	-0.946444	0.131014	-0.909468
H306	H	-0.446444	0.631014	-0.409468
H307	H	-0.950800	0.078603	-0.849984
H308	H	-0.450800	0.578603	-0.349984
H309	H	-1.043557	0.060294	-0.945360
H310	H	-0.543557	0.560294	-0.445360
H311	H	-1.047916	0.007866	-0.885881
H312	H	-0.547916	0.507866	-0.385881
C313	C	-0.441843	0.141789	-0.223932
C314	C	0.058157	0.641789	0.276068
C315	C	-0.469323	0.201386	-0.201808
C316	C	0.030677	0.701386	0.298192
H317	H	-0.385823	0.151511	-0.233625
H318	H	0.114177	0.651511	0.266375
H319	H	-0.460514	0.106540	-0.188787
H320	H	0.039486	0.606540	0.311213
H321	H	-0.460546	0.126906	-0.264398
H322	H	0.039454	0.626906	0.235602
H323	H	-0.450624	0.216266	-0.161338
H324	H	0.049376	0.716266	0.338662
H325	H	-0.450644	0.236646	-0.236956
H326	H	0.049356	0.736646	0.263044
H327	H	-0.567729	0.262950	-0.263192
H328	H	-0.067729	0.762950	0.236808
H329	H	-0.691548	0.284817	-0.284991
H330	H	-0.191548	0.784817	0.215009
H331	H	-0.841344	0.101567	-0.102303
H332	H	-0.341344	0.601567	0.397697
H333	H	-0.593702	-0.028858	0.027716
H334	H	-0.093702	0.471142	0.527716
