data_functionalizedCrystal
_audit_creation_method	'MofGen! by Chris Wilmer'
_symmetry_space_group_name_H-M	'P1'
_symmetry_Int_Tables_number	1
_symmetry_cell_setting	triclinic
loop_
_symmetry_equiv_pos_as_xyz
  x,y,z
_cell_length_a	16.974800
_cell_length_b	13.339070
_cell_length_c	15.455313
_cell_angle_alpha	93.394339
_cell_angle_beta	90.973911
_cell_angle_gamma	99.476486
loop_
_atom_site_label
_atom_site_type_symbol
_atom_site_fract_x
_atom_site_fract_y
_atom_site_fract_z
O1	O	1.077288	0.129038	0.003523
O2	O	0.851236	0.144496	-0.012353
O3	O	0.938318	-0.010570	-0.006234
O4	O	0.990206	0.284104	-0.002595
O5	O	0.933331	-0.001739	0.137677
O6	O	0.846248	0.153327	0.131559
O7	O	1.072301	0.137869	0.147435
Cu8	Cu	0.958819	0.146404	0.152637
Cu9	Cu	0.964718	0.135961	-0.017555
O10	O	0.985218	0.292935	0.141316
C11	C	0.819219	0.148162	0.057530
C12	C	0.731246	0.145916	0.051351
C13	C	0.687201	0.149672	0.126897
C14	C	0.604540	0.147545	0.121094
C15	C	0.565925	0.141670	0.039745
C16	C	0.609975	0.137911	-0.035806
C17	C	0.692634	0.140030	-0.030003
C18	C	0.319000	0.134809	0.013975
C19	C	0.236335	0.132693	0.008177
C20	C	0.230906	0.142326	0.165079
C21	C	0.313567	0.144451	0.170875
C22	C	0.357610	0.140686	0.095324
N23	N	0.481432	0.139499	0.033811
N24	N	0.442100	0.142849	0.101258
C25	C	0.927060	-0.043869	0.065105
C26	C	0.900934	-0.156245	0.063267
C27	C	1.104073	-0.520460	0.077533
C28	C	1.128622	-0.414877	0.079266
C29	C	1.071702	-0.350214	0.075266
C30	C	0.990230	-0.391144	0.069534
C31	C	0.965678	-0.496737	0.067808
C32	C	0.933307	-0.326491	0.065541
C33	C	0.851835	-0.367422	0.059809
C34	C	0.827288	-0.473005	0.058083
C35	C	0.884207	-0.537667	0.062083
C36	C	0.957858	-0.220898	0.067266
C37	C	0.819463	-0.197176	0.057541
C38	C	0.794915	-0.302759	0.055809
C39	C	1.104318	0.134203	0.077550
C40	C	1.192291	0.136449	0.083723
C41	C	0.996477	0.326234	0.069975
C42	C	1.022602	0.438610	0.071808
N43	N	0.954676	0.153749	0.272342
N44	N	0.968865	0.128608	-0.137259
C45	C	0.991695	0.087896	0.320337
C46	C	0.988571	0.093459	0.410925
C47	C	0.948432	0.164882	0.453517
C48	C	0.911408	0.230739	0.405515
C49	C	0.914528	0.225169	0.314928
C50	C	0.934961	0.188895	0.724152
C51	C	0.931846	0.194461	0.814746
C52	C	1.009008	0.057180	0.820149
C53	C	1.012128	0.051621	0.729560
C54	C	0.975100	0.117474	0.681566
N55	N	0.945240	0.170573	0.546113
N56	N	0.978288	0.111777	0.588972
H57	H	0.354849	0.131740	-0.047544
H58	H	1.024193	-0.187583	0.071933
Cl59	Cl	0.881383	0.284261	0.868284
H60	H	1.194956	-0.381559	0.083934
H61	H	0.728579	-0.336099	0.051142
Cl62	Cl	1.042162	-0.001893	0.266802
Cl63	Cl	0.747902	-0.115892	0.052518
H64	H	0.760947	-0.506326	0.053422
Cl65	Cl	0.175533	0.147053	0.260051
H66	H	1.018714	0.039836	0.450002
Cl67	Cl	0.867984	0.307957	0.254592
Cl68	Cl	0.561426	0.130487	-0.138075
Cl69	Cl	0.362107	0.151844	0.273147
H70	H	0.718636	0.154465	0.193141
Cl71	Cl	0.888418	0.271683	0.663823
H72	H	0.728495	0.136973	-0.091520
H73	H	0.878722	0.288889	0.440198
H74	H	0.568680	0.150587	0.182611
Cl75	Cl	1.062589	-0.038167	0.676016
Cl76	Cl	0.187792	0.125309	-0.094098
Cl77	Cl	1.102565	-0.217479	0.077438
H78	H	1.039152	0.003565	0.859234
H79	H	1.150408	-0.573116	0.080797
H80	H	0.864224	-0.623643	0.060669
