data_functionalizedCrystal
_audit_creation_method	'MofGen! by Chris Wilmer'
_symmetry_space_group_name_H-M	'P1'
_symmetry_Int_Tables_number	1
_symmetry_cell_setting	triclinic
loop_
_symmetry_equiv_pos_as_xyz
  x,y,z
_cell_length_a	14.971486
_cell_length_b	10.540539
_cell_length_c	13.448316
_cell_angle_alpha	89.995557
_cell_angle_beta	89.998199
_cell_angle_gamma	84.069810
loop_
_atom_site_label
_atom_site_type_symbol
_atom_site_fract_x
_atom_site_fract_y
_atom_site_fract_z
O1	O	1.187879	0.165423	-0.082573
O2	O	0.927591	0.185233	-0.082599
O3	O	1.063673	-0.009446	-0.082584
O4	O	1.051797	0.360102	-0.082588
O5	O	1.063656	-0.009458	0.082800
O6	O	0.927574	0.185221	0.082785
O7	O	1.187862	0.165411	0.082811
Cu8	Cu	1.057716	0.175315	0.097899
Cu9	Cu	1.057737	0.175329	-0.097687
O10	O	1.051779	0.360090	0.082796
C11	C	0.894253	0.184341	0.000089
C12	C	0.794940	0.181686	0.000079
C13	C	0.738360	0.296055	0.000079
C14	C	0.645046	0.293553	0.000094
C15	C	0.608315	0.176681	0.000102
C16	C	0.664903	0.062303	0.000104
C17	C	0.758215	0.064807	0.000097
C18	C	0.470412	0.057094	0.000118
C19	C	0.377093	0.054590	0.000124
C20	C	0.357242	0.285839	0.000116
C21	C	0.450554	0.288343	0.000108
C22	C	0.507136	0.173965	0.000109
C23	C	1.062774	-0.056745	0.000106
C24	C	1.060109	-0.197662	0.000100
C25	C	0.958001	-0.379931	-0.000281
C26	C	0.960702	-0.233343	0.000091
C27	C	1.107939	-0.259870	0.094547
C28	C	1.104546	-0.406376	0.094627
C29	C	1.106588	-0.406903	-0.093445
C30	C	1.107503	-0.259932	-0.094694
C31	C	1.221200	0.166303	0.000121
C32	C	1.320512	0.168958	0.000124
C33	C	1.052679	0.407389	0.000104
C34	C	1.055344	0.548307	0.000103
N35	N	1.057708	0.175304	0.235463
N36	N	1.057752	0.175330	-0.235251
C37	C	1.117985	0.089136	0.287510
C38	C	1.117990	0.089135	0.391613
C39	C	1.057723	0.175309	0.443668
C40	C	0.997440	0.261482	0.391613
C41	C	0.997431	0.261476	0.287512
C42	C	0.997465	0.261490	0.608593
C43	C	0.997475	0.261498	0.712702
C44	C	1.118024	0.089150	0.712695
C45	C	1.118015	0.089144	0.608593
C46	C	1.057733	0.175318	0.556546
H47	H	0.311169	0.378970	0.000119
Br48	Br	1.229615	-0.224001	0.100419
Br49	Br	0.327244	-0.104024	0.000168
H50	H	0.918885	-0.409699	0.067062
H51	H	1.069183	-0.434179	0.165221
Br52	Br	1.199788	-0.027813	0.216876
H53	H	0.948398	0.331669	0.755079
H54	H	1.074700	-0.216898	0.164825
H55	H	1.167094	0.018980	0.566211
H56	H	1.074422	-0.438086	-0.165030
H57	H	0.768258	0.391225	0.000072
Br58	Br	1.049673	-0.190343	-0.211168
H59	H	0.948365	0.331642	0.434002
H60	H	0.634990	-0.032856	0.000125
Br61	Br	0.915618	0.378415	0.216876
Br62	Br	1.228302	-0.220924	-0.104198
Br63	Br	1.226261	-0.486973	-0.094494
Br64	Br	1.199792	-0.027814	0.462252
Br65	Br	1.199838	-0.027794	0.783333
Br66	Br	0.915648	0.378438	0.537961
Br67	Br	0.547201	-0.098135	0.000124
H68	H	0.598981	0.386683	0.000093
H69	H	0.918740	-0.408080	-0.068011
Br70	Br	0.835005	-0.090414	0.000105
H71	H	0.480457	0.383510	0.000092
H72	H	0.923067	-0.190308	-0.067612
Br73	Br	0.897505	-0.163025	0.113107
Br74	Br	1.223699	-0.487687	0.101793
