data_functionalizedCrystal
_audit_creation_method	'MofGen! by Chris Wilmer'
_symmetry_space_group_name_H-M	'P1'
_symmetry_Int_Tables_number	1
_symmetry_cell_setting	triclinic
loop_
_symmetry_equiv_pos_as_xyz
  x,y,z
_cell_length_a	10.723024
_cell_length_b	14.044190
_cell_length_c	9.798715
_cell_angle_alpha	89.992011
_cell_angle_beta	89.996609
_cell_angle_gamma	88.829823
loop_
_atom_site_label
_atom_site_type_symbol
_atom_site_fract_x
_atom_site_fract_y
_atom_site_fract_z
O1	O	1.670502	0.133040	-0.113499
O2	O	2.170502	0.633040	0.386501
O3	O	1.308624	0.145775	-0.113506
O4	O	1.808624	0.645775	0.386494
O5	O	1.484127	0.001387	-0.113476
O6	O	1.984127	0.501387	0.386524
O7	O	1.494999	0.277427	-0.113529
O8	O	1.994999	0.777427	0.386471
O9	O	1.484112	0.001387	0.113507
O10	O	1.984112	0.501387	0.613507
O11	O	1.308610	0.145774	0.113477
O12	O	1.808610	0.645774	0.613477
O13	O	1.670488	0.133040	0.113483
O14	O	2.170488	0.633040	0.613483
Zn15	Zn	1.489546	0.139407	0.149518
Zn16	Zn	1.989546	0.639407	0.649518
Zn17	Zn	1.489565	0.139407	-0.149541
Zn18	Zn	1.989565	0.639407	0.350459
O19	O	1.494985	0.277427	0.113453
O20	O	1.994985	0.777427	0.613453
C21	C	1.262025	0.144848	-0.000015
C22	C	1.762025	0.644848	0.499985
C23	C	1.123193	0.142075	-0.000016
C24	C	1.623193	0.642075	0.499984
C25	C	1.479363	-0.033958	0.000019
C26	C	1.979363	0.466042	0.500019
C27	C	1.465175	-0.139277	0.000031
C28	C	1.965175	0.360723	0.500031
C29	C	1.056296	0.222867	-0.000033
C30	C	1.556296	0.722867	0.499967
C31	C	0.912806	0.220003	-0.000034
C32	C	1.412806	0.720003	0.499966
C33	C	1.539861	-0.389077	-0.000021
C34	C	2.039861	0.110923	0.499979
C35	C	1.439257	-0.332103	-0.000013
C36	C	1.939257	0.167897	0.499987
C37	C	1.453681	-0.224804	0.000011
C38	C	1.953681	0.275196	0.500011
C39	C	1.525438	-0.496386	-0.000046
C40	C	2.025438	0.003614	0.499954
C41	C	1.717087	0.133967	-0.000011
C42	C	2.217087	0.633967	0.499989
C43	C	1.855919	0.136739	-0.000018
C44	C	2.355919	0.636739	0.499982
C45	C	1.499749	0.312773	-0.000045
C46	C	1.999749	0.812773	0.499955
C47	C	1.513937	0.418091	-0.000066
C48	C	2.013937	0.918091	0.499934
N49	N	1.489543	0.139406	0.353618
N50	N	1.989543	0.639406	0.853618
N51	N	1.489578	0.139401	-0.353640
N52	N	1.989578	0.639401	0.146360
C53	C	1.563205	0.078515	0.421407
C54	C	2.063205	0.578515	0.921407
C55	C	1.563224	0.078511	0.578570
C56	C	2.063224	0.578511	1.078570
H57	H	1.105252	0.294155	-0.000039
H58	H	1.605252	0.794155	0.499961
H59	H	1.342294	-0.363909	-0.000023
H60	H	1.842294	0.136091	0.499977
H61	H	0.855295	0.289167	-0.000054
H62	H	1.355295	0.789167	0.499946
H63	H	1.636816	-0.357273	-0.000005
H64	H	2.136816	0.142727	0.499995
H65	H	1.626251	0.026381	0.363095
H66	H	2.126251	0.526381	0.863095
H67	H	1.626294	0.026383	0.636866
H68	H	2.126294	0.526383	1.136866
H69	H	1.074236	0.070786	-0.000037
H70	H	1.574236	0.570786	0.499963
H71	H	1.426487	0.191532	0.411931
H72	H	1.926487	0.691532	0.911931
H73	H	0.913422	0.067572	-0.000013
H74	H	1.413422	0.567572	0.499987
H75	H	1.426515	0.191539	0.588072
H76	H	1.926515	0.691539	1.088072
