data_functionalizedCrystal
_audit_creation_method	'MofGen! by Chris Wilmer'
_symmetry_space_group_name_H-M	'P1'
_symmetry_Int_Tables_number	1
_symmetry_cell_setting	triclinic
loop_
_symmetry_equiv_pos_as_xyz
  x,y,z
_cell_length_a	29.839134
_cell_length_b	29.839131
_cell_length_c	29.839125
_cell_angle_alpha	89.974637
_cell_angle_beta	89.978020
_cell_angle_gamma	90.030088
loop_
_atom_site_label
_atom_site_type_symbol
_atom_site_fract_x
_atom_site_fract_y
_atom_site_fract_z
Zn1	Zn	0.686739	-0.178978	-0.254101
Zn2	Zn	0.686679	-0.254090	-0.178961
Zn3	Zn	0.611622	-0.178968	-0.178971
Zn4	Zn	0.611578	-0.254075	-0.254049
O5	O	0.649154	-0.216528	-0.216521
O6	O	0.749598	-0.188952	-0.244151
O7	O	0.676716	-0.244127	-0.116095
O8	O	0.621630	-0.116102	-0.188963
O9	O	0.749554	-0.244137	-0.188946
O10	O	0.676818	-0.116109	-0.244161
O11	O	0.621572	-0.188935	-0.116102
O12	O	0.548749	-0.188921	-0.188912
O13	O	0.621554	-0.244111	-0.316923
O14	O	0.548716	-0.244101	-0.244072
O15	O	0.676775	-0.188937	-0.316961
O16	O	0.676673	-0.316955	-0.188896
O17	O	0.621497	-0.316944	-0.244063
C18	C	0.532432	-0.216509	-0.216488
C19	C	0.482497	-0.216511	-0.216485
C20	C	0.649086	-0.333250	-0.216483
C21	C	0.649098	-0.383185	-0.216482
C22	C	0.172847	-0.245303	-0.245207
C23	C	-0.014827	-0.245315	-0.245227
O24	O	-0.039098	-0.269774	-0.269629
N25	N	-0.038288	-0.216544	-0.216554
C26	C	-0.014828	-0.187766	-0.187877
O27	O	-0.039089	-0.163291	-0.163492
C28	C	0.172844	-0.187751	-0.187859
C29	C	0.196303	-0.216527	-0.216531
C30	C	0.196305	-0.274076	-0.273877
C31	C	0.243221	-0.274075	-0.273870
C32	C	0.266677	-0.245299	-0.245193
C33	C	0.243219	-0.216526	-0.216524
C34	C	0.196303	-0.158971	-0.159184
C35	C	0.243224	-0.158969	-0.159183
C36	C	0.266683	-0.187745	-0.187855
C37	C	0.313591	-0.187749	-0.187840
N38	N	0.337052	-0.216520	-0.216513
C39	C	0.313595	-0.245295	-0.245189
C40	C	-0.113358	-0.187776	-0.187887
C41	C	-0.160276	-0.187780	-0.187891
C42	C	-0.160272	-0.245329	-0.245242
C43	C	-0.113353	-0.245327	-0.245236
C44	C	-0.089897	-0.216547	-0.216560
C45	C	0.412121	-0.245290	-0.245172
C46	C	0.459041	-0.245287	-0.245161
C47	C	0.459032	-0.187736	-0.187812
C48	C	0.412117	-0.187740	-0.187821
C49	C	0.388662	-0.216519	-0.216505
O50	O	0.337891	-0.163299	-0.163455
O51	O	0.337865	-0.269759	-0.269577
C52	C	0.125931	-0.245304	-0.245214
C53	C	0.102472	-0.216531	-0.216545
C54	C	0.125929	-0.187755	-0.187868
C55	C	0.055554	-0.216535	-0.216548
C56	C	0.032098	-0.245310	-0.245225
C57	C	0.055559	-0.274082	-0.273898
C58	C	0.102474	-0.274080	-0.273891
C59	C	0.102468	-0.158984	-0.159196
C60	C	0.055552	-0.158989	-0.159205
C61	C	0.032096	-0.187764	-0.187881
C62	C	0.677885	-0.692797	-0.245303
C63	C	0.677933	-0.880470	-0.245330
O64	O	0.702342	-0.904708	-0.269807
N65	N	0.649231	-0.903970	-0.216570
C66	C	0.620512	-0.880548	-0.187804
O67	O	0.596096	-0.904843	-0.163346
C68	C	0.620461	-0.692876	-0.187780
C69	C	0.649169	-0.669379	-0.216538
C70	C	0.706590	-0.669300	-0.274059
C71	C	0.706579	-0.622384	-0.274051
C72	C	0.677863	-0.598966	-0.245286
C73	C	0.649158	-0.622463	-0.216529
C74	C	0.591740	-0.669456	-0.159016
C75	C	0.591729	-0.622535	-0.159013
C76	C	0.620437	-0.599037	-0.187771
C77	C	0.620431	-0.552130	-0.187755
N78	N	0.649134	-0.528630	-0.216515
C79	C	0.677850	-0.552048	-0.245280
C80	C	0.620541	-0.979079	-0.187818
C81	C	0.620554	-1.025997	-0.187824
C82	C	0.677975	-1.025915	-0.245351
C83	C	0.677964	-0.978996	-0.245342
C84	C	0.649244	-0.955579	-0.216578
C85	C	0.677826	-0.453522	-0.245259
C86	C	0.677814	-0.406603	-0.245247
C87	C	0.620391	-0.406688	-0.187722
C88	C	0.620404	-0.453604	-0.187732
C89	C	0.649123	-0.477020	-0.216505
O90	O	0.596032	-0.527863	-0.163295
O91	O	0.702255	-0.527746	-0.269742
C92	C	0.677895	-0.739712	-0.245312
C93	C	0.649190	-0.763210	-0.216556
C94	C	0.620474	-0.739792	-0.187790
C95	C	0.649203	-0.810128	-0.216561
C96	C	0.677919	-0.833546	-0.245326
C97	C	0.706622	-0.810046	-0.274086
C98	C	0.706611	-0.763130	-0.274077
C99	C	0.591772	-0.763291	-0.159031
C100	C	0.591785	-0.810207	-0.159041
C101	C	0.620501	-0.833625	-0.187807
C102	C	0.766333	-0.216547	-0.216553
C103	C	0.816267	-0.216555	-0.216567
C104	C	0.649167	-0.216524	-0.333699
C105	C	0.649172	-0.216522	-0.383633
C106	C	0.649235	-0.099349	-0.216568
C107	C	0.649270	-0.049415	-0.216589
C108	C	0.677955	-0.187718	-0.693300
C109	C	0.677978	-0.187680	-0.880973
O110	O	0.702417	-0.163232	-0.905257
N111	N	0.649231	-0.216402	-0.904419
C112	C	0.620475	-0.245133	-0.880943
O113	O	0.596022	-0.269559	-0.905192
C114	C	0.620451	-0.245169	-0.693271
C115	C	0.649202	-0.216448	-0.669828
C116	C	0.706704	-0.158999	-0.669856
C117	C	0.706700	-0.159011	-0.622941
C118	C	0.677947	-0.187741	-0.599469
C119	C	0.649198	-0.216460	-0.622912
C120	C	0.591693	-0.273898	-0.669797
C121	C	0.591689	-0.273903	-0.622876
C122	C	0.620440	-0.245183	-0.599432
C123	C	0.620441	-0.245202	-0.552525
N124	N	0.649188	-0.216480	-0.529079
C125	C	0.677941	-0.187749	-0.552551
C126	C	0.620491	-0.245113	-0.979474
C127	C	0.620497	-0.245105	-1.026392
C128	C	0.677999	-0.187650	-1.026418
C129	C	0.677994	-0.187661	-0.979499
C130	C	0.649237	-0.216391	-0.956028
C131	C	0.677930	-0.187776	-0.454025
C132	C	0.677925	-0.187792	-0.407105
C133	C	0.620421	-0.245244	-0.407083
C134	C	0.620428	-0.245230	-0.453999
C135	C	0.649184	-0.216493	-0.477469
O136	O	0.596011	-0.269633	-0.528212
O137	O	0.702383	-0.163320	-0.528294
C138	C	0.677959	-0.187706	-0.740215
C139	C	0.649211	-0.216425	-0.763659
C140	C	0.620458	-0.245155	-0.740187
C141	C	0.649217	-0.216417	-0.810577
C142	C	0.677970	-0.187686	-0.834049
C143	C	0.706717	-0.158964	-0.810603
C144	C	0.706712	-0.158976	-0.763687
C145	C	0.591711	-0.273877	-0.763633
C146	C	0.591718	-0.273864	-0.810548
C147	C	0.620471	-0.245133	-0.834020
C148	C	0.649168	-0.216499	-0.099798
C149	C	0.649250	-0.216374	-0.049864
H150	H	0.393030	-0.268723	-0.268530
H151	H	0.568387	-0.744228	-0.135607
N152	N	0.735916	-0.598397	-0.303424
N153	N	0.777371	-0.603624	-0.300482
H154	H	0.798095	-0.586689	-0.321228
H155	H	0.730125	-0.135588	-0.744604
N156	N	0.126433	-0.303480	-0.303174
N157	N	0.121167	-0.344929	-0.300111
H158	H	0.138084	-0.365695	-0.320793
N159	N	0.591077	-0.477601	-0.158355
N160	N	0.562436	-0.503789	-0.174128
H161	H	0.541720	-0.520732	-0.153381
N162	N	0.483010	-0.274676	-0.274450
N163	N	0.524900	-0.274674	-0.274443
H164	H	0.541828	-0.295429	-0.295128
H165	H	-0.179372	-0.164352	-0.164539
N166	N	0.031587	-0.303476	-0.303184
N167	N	-0.010304	-0.303470	-0.303180
H168	H	-0.027237	-0.324228	-0.323863
H169	H	0.730118	-0.135601	-0.688962
N170	N	0.031600	-0.129593	-0.129908
N171	N	0.052554	-0.103904	-0.104308
H172	H	0.035640	-0.083141	-0.083620
H173	H	-0.094265	-0.164339	-0.164534
N174	N	0.267173	-0.303471	-0.303161
N175	N	0.246216	-0.329158	-0.328761
H176	H	0.263129	-0.349920	-0.349451
N177	N	0.562313	-0.303246	-0.598894
N178	N	0.533695	-0.287440	-0.572709
H179	H	0.512949	-0.308163	-0.555771
N180	N	0.707362	-0.158300	-1.050406
N181	N	0.691569	-0.129670	-1.076590
H182	H	0.712302	-0.108941	-1.093534
N183	N	0.483006	-0.158343	-0.158529
N184	N	0.509209	-0.129744	-0.174399
H185	H	0.526143	-0.108982	-0.153721
N186	N	0.591052	-0.274583	-0.383094
N187	N	0.562438	-0.258770	-0.356908
H188	H	0.541694	-0.279489	-0.339963
H189	H	0.701339	-0.164403	-0.388020
N190	N	0.172357	-0.129567	-0.129898
N191	N	0.177629	-0.088118	-0.132966
H192	H	0.160718	-0.067348	-0.112282
H193	H	-0.094256	-0.268759	-0.268583
N194	N	0.126417	-0.129585	-0.129900
N195	N	0.105459	-0.103901	-0.104304
H196	H	0.122371	-0.083137	-0.083610
N197	N	0.707294	-0.954998	-0.274714
N198	N	0.748751	-0.960211	-0.271776
H199	H	0.769467	-0.943265	-0.292520
N200	N	0.707308	-1.049848	-0.274729
N201	N	0.707312	-1.091738	-0.274725
H202	H	0.728026	-1.108643	-0.295474
N203	N	0.736087	-0.129622	-0.834591
N204	N	0.736083	-0.129622	-0.876481
H205	H	0.756824	-0.108899	-0.893425
H206	H	0.597182	-1.045124	-0.164401
H207	H	0.729988	-0.744002	-0.297495
N208	N	0.591067	-0.382756	-0.158338
N209	N	0.591066	-0.340865	-0.158338
H210	H	0.570355	-0.323961	-0.137586
H211	H	0.701406	-0.164274	-0.960415
N212	N	0.735955	-0.833979	-0.303463
N213	N	0.735958	-0.875869	-0.303461
H214	H	0.756672	-0.892775	-0.324208
N215	N	0.707303	-0.158417	-0.477987
N216	N	0.732967	-0.132778	-0.457042
H217	H	0.753713	-0.112044	-0.473965
H218	H	0.701208	-0.472582	-0.268692
H219	H	0.597073	-0.268511	-0.960368
N220	N	0.267176	-0.129563	-0.129892
N221	N	0.246221	-0.103872	-0.104299
H222	H	0.263136	-0.083104	-0.083612
H223	H	0.729974	-0.688362	-0.297486
H224	H	0.730112	-0.135623	-0.603857
N225	N	0.562348	-0.303210	-0.834485
N226	N	0.536679	-0.328859	-0.813517
H227	H	0.515935	-0.349582	-0.830420
H228	H	0.568297	-0.297274	-0.744526
N229	N	0.562459	-0.834199	-0.129657
N230	N	0.536823	-0.813278	-0.103977
H231	H	0.516110	-0.830221	-0.083227
H232	H	0.568280	-0.297285	-0.688876
N233	N	0.172357	-0.303473	-0.303177
N234	N	0.193317	-0.329158	-0.328771
H235	H	0.176406	-0.349923	-0.349464
H236	H	0.597090	-0.268497	-1.045476
H237	H	0.597153	-0.960016	-0.164394
H238	H	0.597020	-0.268621	-0.473087
N239	N	0.562407	-0.693443	-0.129642
N240	N	0.536766	-0.672519	-0.103970
H241	H	0.516044	-0.689459	-0.083226
H242	H	0.701192	-0.387473	-0.268665
N243	N	-0.184236	-0.274729	-0.274530
N244	N	-0.210436	-0.303335	-0.258669
H245	H	-0.227362	-0.324097	-0.279354
N246	N	0.388158	-0.158349	-0.158527
N247	N	0.409110	-0.132660	-0.132924
H248	H	0.392192	-0.111898	-0.112237
N249	N	0.562385	-0.598622	-0.129630
N250	N	0.536757	-0.619611	-0.103958
H251	H	0.516033	-0.602724	-0.083206
