data_functionalizedCrystal
_audit_creation_method	'MofGen! by Chris Wilmer'
_symmetry_space_group_name_H-M	'P1'
_symmetry_Int_Tables_number	1
_symmetry_cell_setting	triclinic
loop_
_symmetry_equiv_pos_as_xyz
  x,y,z
_cell_length_a	14.519709
_cell_length_b	23.532407
_cell_length_c	13.596369
_cell_angle_alpha	89.989360
_cell_angle_beta	90.000291
_cell_angle_gamma	83.264412
loop_
_atom_site_label
_atom_site_type_symbol
_atom_site_fract_x
_atom_site_fract_y
_atom_site_fract_z
O1	O	1.222985	0.074654	-0.081674
O2	O	1.722985	0.574654	0.418326
O3	O	0.954404	0.083445	-0.081705
O4	O	1.454404	0.583445	0.418295
O5	O	1.096794	-0.003846	-0.081671
O6	O	1.596794	0.496154	0.418329
O7	O	1.080596	0.161945	-0.081708
O8	O	1.580596	0.661945	0.418292
O9	O	1.096780	-0.003850	0.081912
O10	O	1.596780	0.496150	0.581912
O11	O	0.954390	0.083441	0.081878
O12	O	1.454390	0.583441	0.581878
O13	O	1.222971	0.074649	0.081909
O14	O	1.722971	0.574649	0.581909
Zn15	Zn	1.088678	0.079044	0.107866
Zn16	Zn	1.588678	0.579044	0.607866
Zn17	Zn	1.088697	0.079050	-0.107662
Zn18	Zn	1.588697	0.579050	0.392338
O19	O	1.080582	0.161940	0.081874
O20	O	1.580582	0.661940	0.581874
C21	C	0.920042	0.083033	0.000083
C22	C	1.420042	0.583033	0.500083
C23	C	0.817676	0.081805	0.000071
C24	C	1.317676	0.581805	0.500071
C25	C	0.442833	0.077286	0.000117
C26	C	0.942833	0.577286	0.500117
C27	C	0.547126	0.078541	0.000104
C28	C	1.047126	0.578541	0.500104
C29	C	0.630251	0.079545	0.000093
C30	C	1.130251	0.579545	0.500093
C31	C	0.734551	0.080801	0.000082
C32	C	1.234551	0.580801	0.500082
C33	C	1.096374	-0.025066	0.000123
C34	C	1.596374	0.474934	0.500123
C35	C	1.095134	-0.088288	0.000131
C36	C	1.595134	0.411712	0.500131
C37	C	1.171619	-0.487046	0.000086
C38	C	1.671619	0.012954	0.500086
C39	C	1.170467	-0.546452	0.000078
C40	C	1.670467	-0.046452	0.500078
O41	O	1.241369	-0.582876	0.000050
O42	O	1.741369	-0.082876	0.500050
N43	N	1.085816	-0.569460	0.000069
N44	N	1.585816	-0.069460	0.500069
C45	C	1.002312	-0.533059	0.000057
C46	C	1.502312	-0.033059	0.500057
O47	O	0.930205	-0.558084	0.000048
O48	O	1.430205	-0.058084	0.500048
C49	C	1.003465	-0.473655	0.000058
C50	C	1.503465	0.026345	0.500058
C51	C	1.088121	-0.450650	0.000077
C52	C	1.588121	0.049350	0.500077
C53	C	1.256268	-0.464041	0.000104
C54	C	1.756268	0.035959	0.500104
C55	C	1.257420	-0.404640	0.000113
C56	C	1.757420	0.095360	0.500113
C57	C	1.173922	-0.368244	0.000105
C58	C	1.673922	0.131756	0.500105
C59	C	1.089273	-0.391249	0.000087
C60	C	1.589273	0.108751	0.500087
C61	C	0.919962	-0.437255	0.000039
C62	C	1.419962	0.062745	0.500039
C63	C	0.921123	-0.377847	0.000039
C64	C	1.421123	0.122153	0.500039
C65	C	1.005779	-0.354843	0.000058
C66	C	1.505779	0.145157	0.500058
C67	C	1.006927	-0.295451	0.000087
C68	C	1.506927	0.204549	0.500087
N69	N	1.091578	-0.272443	0.000097
N70	N	1.591578	0.227557	0.500097
C71	C	1.175075	-0.308839	0.000105
C72	C	1.675075	0.191161	0.500105
C73	C	0.999897	-0.657813	0.000055
C74	C	1.499897	-0.157813	0.500055
C75	C	0.998743	-0.717216	0.000061
C76	C	1.498743	-0.217216	0.500061
C77	C	1.166898	-0.730604	0.000080
C78	C	1.666898	-0.230604	0.500080
C79	C	1.168051	-0.671200	0.000080
C80	C	1.668051	-0.171200	0.500080
C81	C	1.084548	-0.634804	0.000064
C82	C	1.584548	-0.134804	0.500064
C83	C	1.177487	-0.184092	0.000126
C84	C	1.677487	0.315908	0.500126
C85	C	1.178632	-0.124685	0.000139
C86	C	1.678632	0.375315	0.500139
C87	C	1.010477	-0.111301	0.000115
C88	C	1.510477	0.388699	0.500115
C89	C	1.009332	-0.170703	0.000107
C90	C	1.509332	0.329297	0.500107
C91	C	1.092845	-0.207098	0.000109
C92	C	1.592845	0.292902	0.500109
O93	O	0.936062	-0.258992	0.000111
O94	O	1.436062	0.241008	0.500111
O95	O	1.247171	-0.283806	0.000102
O96	O	1.747171	0.216194	0.500102
C97	C	1.257333	0.075061	0.000119
C98	C	1.757333	0.575061	0.500119
C99	C	1.359700	0.076289	0.000124
C100	C	1.859700	0.576289	0.500124
C101	C	1.081001	0.183160	0.000078
C102	C	1.581001	0.683160	0.500078
C103	C	1.082241	0.246383	0.000064
C104	C	1.582241	0.746383	0.500064
N105	N	1.088673	0.079040	0.254958
N106	N	1.588673	0.579040	0.754958
N107	N	1.088710	0.079050	-0.254754
N108	N	1.588710	0.579050	0.245246
C109	C	1.088696	0.079051	0.656248
C110	C	1.588696	0.579051	1.156248
C111	C	1.088686	0.079050	0.544597
C112	C	1.588686	0.579050	1.044597
C113	C	1.088685	0.079046	0.455607
C114	C	1.588685	0.579046	0.955607
C115	C	1.088674	0.079044	0.343948
C116	C	1.588674	0.579044	0.843948
H117	H	1.247572	-0.105958	0.000158
H118	H	1.747572	0.394042	0.500158
O119	O	1.258670	-0.219382	0.000001
O120	O	1.758670	0.280618	0.500001
C121	C	1.310099	-0.208933	-0.084720
C122	C	1.810099	0.291067	0.415280
H123	H	1.287021	-0.163896	-0.112966
H124	H	1.787021	0.336104	0.387034
H125	H	1.387049	-0.213020	-0.065650
H126	H	1.887049	0.286980	0.434350
H127	H	1.297814	-0.241433	-0.144050
H128	H	1.797814	0.258567	0.355950
O129	O	0.916427	-0.739464	0.000010
O130	O	1.416427	-0.239464	0.500010
C131	C	0.842984	-0.694595	0.000031
C132	C	1.342984	-0.194595	0.500031
H133	H	0.868465	-0.654210	-0.030929
H134	H	1.368465	-0.154210	0.469071
H135	H	0.783850	-0.707063	-0.047471
H136	H	1.283850	-0.207063	0.452529
H137	H	0.817250	-0.686228	0.078508
H138	H	1.317250	-0.186228	0.578508
H139	H	0.853122	-0.348216	0.000024
H140	H	1.353122	0.151784	0.500024
O141	O	1.250308	-0.648882	-0.000085
O142	O	1.750308	-0.148882	0.499915
C143	C	1.301187	-0.667481	-0.084787
C144	C	1.801187	-0.167481	0.415213
H145	H	1.251677	-0.679885	-0.144006
H146	H	1.751677	-0.179885	0.355994
H147	H	1.340090	-0.631452	-0.113225
H148	H	1.840090	-0.131452	0.386775
H149	H	1.352934	-0.706142	-0.065624
H150	H	1.852934	-0.206142	0.434376
O151	O	1.339630	-0.382269	0.000292
O152	O	1.839630	0.117731	0.500292
C153	C	1.345329	-0.348305	0.084999
C154	C	1.845329	0.151695	0.584999
H155	H	1.297269	-0.362409	0.144216
H156	H	1.797269	0.137591	0.644216
H157	H	1.419703	-0.353562	0.113437
H158	H	1.919703	0.146438	0.613437
H159	H	1.323624	-0.301482	0.065843
H160	H	1.823624	0.198518	0.565843
H161	H	0.851027	-0.455975	0.000018
H162	H	1.351027	0.044025	0.500018
O163	O	0.927159	-0.193122	-0.000034
O164	O	1.427159	0.306878	0.499966
C165	C	0.921461	-0.227055	-0.084778
C166	C	1.421461	0.272945	0.415222
H167	H	0.994289	-0.241762	-0.113016
H168	H	1.494289	0.258238	0.386984
H169	H	0.885066	-0.265999	-0.065742
H170	H	1.385066	0.234001	0.434258
H171	H	0.880420	-0.200845	-0.144102
H172	H	1.380420	0.299155	0.355898
H173	H	0.942496	-0.081657	0.000112
H174	H	1.442496	0.418343	0.500112
H175	H	1.234886	-0.760249	0.000083
H176	H	1.734886	-0.260249	0.500083
H177	H	1.324266	-0.493670	0.000107
H178	H	1.824266	0.006330	0.500107
H179	H	0.931894	-0.628182	0.000049
H180	H	1.431894	-0.128182	0.500049
