data_functionalizedCrystal
_audit_creation_method	'MofGen! by Chris Wilmer'
_symmetry_space_group_name_H-M	'P1'
_symmetry_Int_Tables_number	1
_symmetry_cell_setting	triclinic
loop_
_symmetry_equiv_pos_as_xyz
  x,y,z
_cell_length_a	6.817900
_cell_length_b	17.078472
_cell_length_c	13.561464
_cell_angle_alpha	111.070440
_cell_angle_beta	104.692446
_cell_angle_gamma	99.306020
loop_
_atom_site_label
_atom_site_type_symbol
_atom_site_fract_x
_atom_site_fract_y
_atom_site_fract_z
V1	V	-4.064053	-0.185577	-0.346057
O2	O	-4.072312	-0.069117	-0.339584
O3	O	-3.994680	-0.292917	-0.343580
O4	O	-4.041331	-0.216963	-0.497035
O5	O	-4.025338	-0.145597	-0.185067
V6	V	-4.547072	-0.167601	-0.326815
O7	O	-4.326419	-0.225008	-0.388267
O8	O	-4.734903	-0.128170	-0.284605
O9	O	-4.393238	-0.060261	-0.329292
O10	O	-4.656210	-0.284061	-0.333288
O11	O	-4.703183	-0.207581	-0.487805
O12	O	-4.346587	-0.136215	-0.175837
C13	C	-3.833748	-0.318014	-0.338092
C14	C	-3.858486	-0.405987	-0.337073
C15	C	-4.052378	-0.452569	-0.342129
C16	C	-4.075613	-0.535231	-0.341178
C17	C	-3.904949	-0.571305	-0.335164
C18	C	-3.711044	-0.524717	-0.330112
C19	C	-3.687816	-0.442060	-0.331070
C20	C	-3.954879	-0.817952	-0.331710
C21	C	-3.978121	-0.900615	-0.330748
C22	C	-4.342690	-0.911123	-0.341816
C23	C	-4.319441	-0.828462	-0.342768
C24	C	-4.125542	-0.781883	-0.337722
N25	N	-3.928693	-0.655797	-0.334188
N26	N	-4.101805	-0.697395	-0.338705
C27	C	-3.893255	-0.221126	-0.533838
C28	C	-3.955822	-0.247497	-0.657263
C29	C	-4.016140	-0.017185	-0.941781
C30	C	-3.957261	0.007546	-0.825824
C31	C	-3.956897	-0.056213	-0.783678
C32	C	-4.015420	-0.144707	-0.857500
C33	C	-4.074321	-0.169441	-0.973468
C34	C	-4.015078	-0.208468	-0.815365
C35	C	-4.073601	-0.296962	-0.889188
C36	C	-4.132493	-0.321692	-1.005144
C37	C	-4.132857	-0.257933	-1.047291
C38	C	-3.956177	-0.183734	-0.699397
C39	C	-4.014358	-0.335990	-0.731085
C40	C	-4.073237	-0.360721	-0.847041
C41	C	-4.217511	-0.035167	-0.334777
C42	C	-4.172013	0.052803	-0.335803
C43	C	-4.158004	-0.132054	-0.139028
C44	C	-4.074677	-0.105678	-0.015603
H45	H	-4.191349	-0.423201	-0.347015
H46	H	-4.014066	-0.387907	-0.696771
H47	H	-3.908953	-0.036071	-0.689260
Cl48	Cl	-4.319371	-0.593788	-0.347531
H49	H	-3.908532	-0.111682	-0.639302
Cl50	Cl	-4.586437	-0.969684	-0.348162
H51	H	-3.572092	-0.554098	-0.325222
H52	H	-4.180169	-0.393750	-1.065249
Cl53	Cl	-3.711117	-0.759404	-0.325356
H54	H	-3.839149	-0.929992	-0.325876
H55	H	-3.529933	-0.404135	-0.326959
Cl56	Cl	-3.883571	0.118793	-0.733024
H57	H	-4.016460	0.034717	-0.976109
Cl58	Cl	-4.533978	-0.783103	-0.350286
Cl59	Cl	-4.146856	-0.471968	-0.939860
H60	H	-4.180791	-0.278065	-1.141710
