data_functionalizedCrystal
_audit_creation_method	'MofGen! by Chris Wilmer'
_symmetry_space_group_name_H-M	'P1'
_symmetry_Int_Tables_number	1
_symmetry_cell_setting	triclinic
loop_
_symmetry_equiv_pos_as_xyz
  x,y,z
_cell_length_a	14.044220
_cell_length_b	18.266242
_cell_length_c	14.044190
_cell_angle_alpha	90.010750
_cell_angle_beta	93.190328
_cell_angle_gamma	90.003954
loop_
_atom_site_label
_atom_site_type_symbol
_atom_site_fract_x
_atom_site_fract_y
_atom_site_fract_z
O1	O	1.277180	0.060818	0.230170
O2	O	1.000508	0.060836	0.221865
O3	O	1.134688	0.060813	0.087681
O4	O	1.143001	0.060841	0.364354
O5	O	1.134662	-0.060949	0.087672
O6	O	1.000483	-0.060926	0.221855
O7	O	1.277155	-0.060944	0.230161
Zn8	Zn	1.138815	-0.080267	0.226006
Zn9	Zn	1.138848	0.080159	0.226019
O10	O	1.142975	-0.060921	0.364344
C11	C	0.964874	-0.000043	0.218224
C12	C	0.858731	-0.000037	0.207380
N13	N	1.138799	-0.189754	0.225998
C14	C	0.664392	-0.000053	0.187553
C15	C	0.613264	-0.000048	0.264468
C16	C	0.505128	-0.000058	0.253436
C17	C	0.772539	-0.000044	0.198583
C18	C	1.198237	-0.228073	0.166615
C19	C	1.198243	-0.304718	0.166611
C20	C	1.138821	-0.343041	0.226007
C21	C	1.079370	-0.304713	0.285394
C22	C	1.079359	-0.228069	0.285389
N23	N	1.133814	-0.463365	0.309457
N24	N	1.133829	-0.536173	0.309459
C25	C	1.138848	-0.573964	0.226023
N26	N	1.143870	-0.536196	0.142584
N27	N	1.143859	-0.463381	0.142584
C28	C	1.138825	-0.426148	0.226018
C29	C	1.198296	-0.695390	0.166631
C30	C	1.198295	-0.772036	0.166625
C31	C	1.079428	-0.772029	0.285417
C32	C	1.079424	-0.695384	0.285414
C33	C	1.138863	-0.657069	0.226022
C34	C	1.312789	-0.000064	0.233801
C35	C	1.418932	-0.000065	0.244646
C36	C	1.131039	-0.000070	0.052054
C37	C	1.120191	-0.000076	-0.054089
N38	N	1.138871	0.189646	0.226021
C39	C	1.177292	-0.000051	-0.299547
C40	C	1.100375	-0.000051	-0.248422
C41	C	1.111404	-0.000065	-0.140285
C42	C	1.166265	-0.000037	-0.407694
C43	C	1.146624	-0.000036	0.399971
C44	C	1.157472	-0.000026	0.506114
H45	H	0.650706	-0.000037	0.338602
H46	H	1.026243	-0.000042	-0.285865
H47	H	1.251418	-0.000063	-0.262106
H48	H	1.246694	-0.803236	0.118263
F49	F	1.261493	-0.187297	0.103403
H50	H	0.626954	-0.000065	0.113425
H51	H	1.246693	-0.664192	0.118268
H52	H	1.030986	-0.335919	0.333753
F53	F	1.261509	-0.345507	0.103404
H54	H	1.030956	-0.196869	0.333746
H55	H	1.031041	-0.803231	0.333774
F56	F	1.016165	-0.654599	0.348622
