data_functionalizedCrystal
_audit_creation_method	'MofGen! by Chris Wilmer'
_symmetry_space_group_name_H-M	'P1'
_symmetry_Int_Tables_number	1
_symmetry_cell_setting	triclinic
loop_
_symmetry_equiv_pos_as_xyz
  x,y,z
_cell_length_a	17.699083
_cell_length_b	17.699083
_cell_length_c	16.776229
_cell_angle_alpha	89.992455
_cell_angle_beta	89.998886
_cell_angle_gamma	83.283015
loop_
_atom_site_label
_atom_site_type_symbol
_atom_site_fract_x
_atom_site_fract_y
_atom_site_fract_z
O1	O	-1.004078	-0.095713	0.066178
O2	O	-0.504078	0.404287	0.566178
O3	O	-0.783700	-0.108165	0.066204
O4	O	-0.283700	0.391835	0.566204
O5	O	-0.900116	0.008250	0.066183
O6	O	-0.400116	0.508250	0.566183
O7	O	-0.887663	-0.212128	0.066199
O8	O	-0.387663	0.287872	0.566199
O9	O	-0.900100	0.008257	-0.066393
O10	O	-0.400100	0.508257	0.433607
O11	O	-0.783685	-0.108158	-0.066372
O12	O	-0.283685	0.391842	0.433628
O13	O	-1.004063	-0.095706	-0.066398
O14	O	-0.504063	0.404294	0.433602
Zn15	Zn	-0.893871	-0.101931	-0.087435
Zn16	Zn	-0.393871	0.398069	0.412565
Zn17	Zn	-0.893892	-0.101940	0.087241
Zn18	Zn	-0.393892	0.398060	0.587241
O19	O	-0.887648	-0.212121	-0.066378
O20	O	-0.387648	0.287879	0.433622
C21	C	-0.755495	-0.107716	-0.000081
C22	C	-0.255495	0.392284	0.499919
C23	C	-0.671477	-0.106377	-0.000071
C24	C	-0.171477	0.393623	0.499929
C25	C	-0.899662	0.036451	-0.000105
C26	C	-0.399662	0.536451	0.499895
C27	C	-0.898323	0.120469	-0.000105
C28	C	-0.398323	0.620469	0.499895
C29	C	-1.032268	-0.096156	-0.000112
C30	C	-0.532268	0.403844	0.499888
C31	C	-1.116286	-0.097494	-0.000116
C32	C	-0.616286	0.402506	0.499884
C33	C	-0.622856	-0.174710	-0.000066
C34	C	-0.122856	0.325290	0.499934
C35	C	-0.543913	-0.173448	-0.000077
C36	C	-0.043913	0.326552	0.499923
C37	C	-0.513592	-0.103852	-0.000086
C38	C	-0.013592	0.396148	0.499914
C39	C	-0.562219	-0.035513	-0.000093
C40	C	-0.062219	0.464487	0.499907
C41	C	-0.641161	-0.036776	-0.000088
C42	C	-0.141161	0.463224	0.499912
C43	C	-0.243856	-0.030418	-0.000113
C44	C	0.256144	0.469582	0.499887
C45	C	-0.164908	-0.029160	-0.000115
C46	C	0.335092	0.470840	0.499885
C47	C	-0.146608	-0.167090	-0.000101
C48	C	0.353392	0.332910	0.499899
C49	C	-0.225550	-0.168353	-0.000097
C50	C	0.274450	0.331647	0.499903
C51	C	-0.274170	-0.100015	-0.000108
C52	C	0.225830	0.399985	0.499892
C53	C	-0.359769	-0.101384	-0.000098
C54	C	0.140231	0.398616	0.499902
C55	C	-0.427995	-0.102481	-0.000090
C56	C	0.072005	0.397519	0.499910
C57	C	-0.888102	-0.240322	-0.000087
C58	C	-0.388102	0.259678	0.499913
C59	C	-0.889440	-0.324340	-0.000082
C60	C	-0.389440	0.175660	0.499918
N61	N	-0.893863	-0.101924	-0.206646
N62	N	-0.393863	0.398076	0.293354
C63	C	-0.966656	0.169090	-0.000114
C64	C	-0.466656	0.669090	0.499886
C65	C	-0.965394	0.248033	-0.000107
C66	C	-0.465394	0.748033	0.499893
C67	C	-0.895798	0.278354	-0.000096
C68	C	-0.395798	0.778354	0.499904
C69	C	-0.827459	0.229727	-0.000085
C70	C	-0.327459	0.729727	0.499915
C71	C	-0.828722	0.150785	-0.000086
C72	C	-0.328722	0.650785	0.499914
C73	C	-0.822364	0.548090	-0.000078
C74	C	-0.322364	1.048090	0.499922
C75	C	-0.821106	0.627038	-0.000078
C76	C	-0.321106	1.127038	0.499922
C77	C	-0.959036	0.645338	-0.000099
C78	C	-0.459036	1.145338	0.499901
C79	C	-0.960299	0.566396	-0.000100
C80	C	-0.460299	1.066396	0.499900
C81	C	-0.891961	0.517776	-0.000084
C82	C	-0.391961	1.017776	0.499916
C83	C	-0.893330	0.432177	-0.000090
C84	C	-0.393330	0.932177	0.499910
C85	C	-0.894427	0.363951	-0.000096
C86	C	-0.394427	0.863951	0.499904
C87	C	-0.945428	-0.050396	-0.248372
C88	C	-0.445428	0.449604	0.251628
C89	C	-0.945432	-0.050396	-0.331824
C90	C	-0.445432	0.449604	0.168176
C91	C	-0.893875	-0.101927	-0.373549
C92	C	-0.393875	0.398073	0.126451
C93	C	-0.842305	-0.153457	-0.331817
C94	C	-0.342305	0.346543	0.168183
C95	C	-0.842297	-0.153454	-0.248366
C96	C	-0.342297	0.346546	0.251634
C97	C	-0.842332	-0.153472	-0.668364
C98	C	-0.342332	0.346528	-0.168364
C99	C	-0.842345	-0.153473	-0.751820
C100	C	-0.342345	0.346527	-0.251820
C101	C	-0.945466	-0.050414	-0.751822
C102	C	-0.445466	0.449586	-0.251822
C103	C	-0.945459	-0.050411	-0.668372
C104	C	-0.445459	0.449589	-0.168372
C105	C	-0.893887	-0.101938	-0.626647
C106	C	-0.393887	0.398062	-0.126647
C107	C	-0.893882	-0.101937	-0.536158
C108	C	-0.393882	0.398063	-0.036158
C109	C	-0.893882	-0.101932	-0.464036
C110	C	-0.393882	0.398068	0.035964
N111	N	-0.893906	-0.101941	0.206452
N112	N	-0.393906	0.398059	0.706452
H113	H	-0.504328	-0.229092	-0.000072
H114	H	-0.004328	0.270908	0.499928
O115	O	-0.135418	0.038431	0.000012
O116	O	0.364582	0.538431	0.500012
C117	C	-0.090287	0.043280	0.068663
C118	C	0.409713	0.543280	0.568663
H119	H	-0.108887	0.003767	0.116662
H120	H	0.391113	0.503767	0.616662
H121	H	-0.097482	0.104293	0.091699
H122	H	0.402518	0.604293	0.591699
H123	H	-0.028000	0.025703	0.053142
H124	H	0.472000	0.525703	0.553142
H125	H	-0.800308	-0.195412	-0.214393
H126	H	-0.300308	0.304588	0.285607
O127	O	-0.755931	0.500946	0.000035
O128	O	-0.255931	1.000946	0.500035
C129	C	-0.713682	0.514653	0.068710
C130	C	-0.213682	1.014653	0.568710
H131	H	-0.732385	0.574568	0.091601
H132	H	-0.232385	1.074568	0.591601
H133	H	-0.650546	0.508992	0.053271
H134	H	-0.150546	1.008992	0.553271
H135	H	-0.723950	0.471484	0.116789
H136	H	-0.223950	0.971484	0.616789
O137	O	-1.034330	0.139765	-0.000088
O138	O	-0.534330	0.639765	0.499912
C139	C	-1.094371	0.199612	-0.000111
C140	C	-0.594371	0.699612	0.499889
H141	H	-1.073253	0.253197	0.024989
H142	H	-0.573253	0.753197	0.524989
H143	H	-1.142974	0.183201	0.038376
H144	H	-0.642974	0.683201	0.538376
H145	H	-1.115438	0.210829	-0.063716
H146	H	-0.615438	0.710829	0.436284
O147	O	-0.792212	-0.203600	-0.627963
O148	O	-0.292212	0.296400	-0.127963
C149	C	-0.746700	-0.249071	-0.682688
C150	C	-0.246700	0.250929	-0.182688
H151	H	-0.777738	-0.249887	-0.742168
H152	H	-0.277738	0.250113	-0.242168
H153	H	-0.735036	-0.309530	-0.658568
H154	H	-0.235036	0.190470	-0.158568
H155	H	-0.690527	-0.224565	-0.691579
H156	H	-0.190527	0.275435	-0.191579
H157	H	-0.770792	0.254420	-0.000071
H158	H	-0.270792	0.754420	0.499929
H159	H	-1.014680	0.684934	-0.000107
H160	H	-0.514680	1.184934	0.499893
O161	O	-0.688502	0.029533	-0.000125
O162	O	-0.188502	0.529533	0.499875
C163	C	-0.764679	0.013496	-0.000100
C164	C	-0.264679	0.513496	0.499900
H165	H	-0.767595	-0.045947	-0.025193
H166	H	-0.267595	0.454053	0.474807
H167	H	-0.800528	0.057062	-0.038594
H168	H	-0.300528	0.557062	0.461406
H169	H	-0.787514	0.016404	0.063504
H170	H	-0.287514	0.516404	0.563504
O171	O	-0.762273	0.103660	-0.000113
O172	O	-0.262273	0.603660	0.499887
C173	C	-0.700574	0.147347	-0.000082
C174	C	-0.200574	0.647347	0.499918
H175	H	-0.719887	0.206305	-0.025188
H176	H	-0.219887	0.706305	0.474812
H177	H	-0.652697	0.118139	-0.038562
H178	H	-0.152697	0.618139	0.461438
H179	H	-0.679245	0.152924	0.063525
H180	H	-0.179245	0.652924	0.563525
O181	O	-1.031703	0.295371	-0.000079
O182	O	-0.531703	0.795371	0.499921
C183	C	-1.015669	0.371549	-0.000087
C184	C	-0.515669	0.871549	0.499913
H185	H	-0.956228	0.374461	0.025019
H186	H	-0.456228	0.874461	0.525019
H187	H	-1.059239	0.407387	0.038402
H188	H	-0.559239	0.907387	0.538402
H189	H	-1.018574	0.394399	-0.063689
H190	H	-0.518574	0.894399	0.436311
H191	H	-0.647537	-0.231384	-0.000058
H192	H	-0.147537	0.268616	0.499942
H193	H	-0.764429	0.651721	-0.000071
H194	H	-0.264429	1.151721	0.499929
O195	O	-0.792224	-0.203425	-0.792441
O196	O	-0.292224	0.296575	-0.292441
C197	C	-0.745611	-0.162943	-0.840713
C198	C	-0.245611	0.337057	-0.340713
H199	H	-0.775876	-0.103681	-0.853218
H200	H	-0.275876	0.396319	-0.353218
H201	H	-0.733585	-0.194548	-0.899394
H202	H	-0.233585	0.305452	-0.399394
H203	H	-0.689682	-0.157863	-0.808565
H204	H	-0.189682	0.342137	-0.308565
O205	O	-0.995540	-0.000265	-0.207968
O206	O	-0.495540	0.499735	0.292032
C207	C	-1.041064	0.045202	-0.262697
C208	C	-0.541064	0.545202	0.237303
H209	H	-1.010041	0.046014	-0.322187
H210	H	-0.510041	0.546014	0.177813
H211	H	-1.052722	0.105663	-0.238597
H212	H	-0.552722	0.605663	0.261403
H213	H	-1.097240	0.020697	-0.271561
H214	H	-0.597240	0.520697	0.228439
O215	O	-0.532642	0.032027	-0.000068
O216	O	-0.032642	0.532027	0.499932
C217	C	-0.452540	0.018491	-0.000089
C218	C	0.047460	0.518491	0.499911
H219	H	-0.433891	-0.040608	0.025016
H220	H	0.066109	0.459392	0.525016
H221	H	-0.428383	0.063016	0.038396
H222	H	0.071617	0.563016	0.538396
H223	H	-0.430573	0.022121	-0.063694
H224	H	0.069427	0.522121	0.436306
H225	H	-0.987457	-0.008456	-0.785804
H226	H	-0.487457	0.491544	-0.285804
H227	H	-0.250232	-0.225025	-0.000085
H228	H	0.249768	0.274975	0.499915
H229	H	-0.800322	-0.195412	-0.365793
H230	H	-0.300322	0.304588	0.134207
H231	H	-1.016971	0.541714	-0.000113
H232	H	-0.516971	1.041714	0.499887
H233	H	-0.107012	-0.222734	-0.000097
H234	H	0.392988	0.277266	0.499903
O235	O	-0.290971	0.036033	-0.000085
O236	O	0.209029	0.536033	0.499915
C237	C	-0.247278	0.097728	-0.000112
C238	C	0.252722	0.597728	0.499888
H239	H	-0.188324	0.078405	0.024990
H240	H	0.311676	0.578405	0.524990
H241	H	-0.276485	0.145599	0.038372
H242	H	0.223515	0.645599	0.538372
H243	H	-0.241693	0.119068	-0.063718
H244	H	0.258307	0.619068	0.436282
O245	O	-0.995423	-0.000269	-0.372389
O246	O	-0.495423	0.499731	0.127611
C247	C	-0.954994	0.046370	-0.420687
C248	C	-0.454994	0.546370	0.079313
H249	H	-0.895308	0.047579	-0.395551
H250	H	-0.395308	0.547579	0.104449
H251	H	-0.985993	0.106566	-0.421634
H252	H	-0.485993	0.606566	0.078366
H253	H	-0.950990	0.022681	-0.483931
H254	H	-0.450990	0.522681	0.016069
H255	H	-0.987444	-0.008452	-0.634402
H256	H	-0.487444	0.491548	-0.134402
