data_functionalizedCrystal
_audit_creation_method	'MofGen! by Chris Wilmer'
_symmetry_space_group_name_H-M	'P1'
_symmetry_Int_Tables_number	1
_symmetry_cell_setting	triclinic
loop_
_symmetry_equiv_pos_as_xyz
  x,y,z
_cell_length_a	14.044220
_cell_length_b	10.654550
_cell_length_c	9.730223
_cell_angle_alpha	89.993622
_cell_angle_beta	90.001055
_cell_angle_gamma	91.163110
loop_
_atom_site_label
_atom_site_type_symbol
_atom_site_fract_x
_atom_site_fract_y
_atom_site_fract_z
O1	O	0.133225	-1.681227	0.114408
O2	O	0.633225	-1.181227	0.614408
O3	O	0.145919	-1.317024	0.114387
O4	O	0.645919	-0.817024	0.614387
O5	O	0.001551	-1.493659	0.114384
O6	O	0.501551	-0.993659	0.614384
O7	O	0.277593	-1.504592	0.114411
O8	O	0.777593	-1.004592	0.614411
O9	O	0.001559	-1.493647	-0.114196
O10	O	0.501559	-0.993647	0.385804
O11	O	0.145927	-1.317012	-0.114193
O12	O	0.645927	-0.817012	0.385807
O13	O	0.133233	-1.681215	-0.114172
O14	O	0.633233	-1.181215	0.385828
Zn15	Zn	0.139581	-1.499112	-0.150474
Zn16	Zn	0.639581	-0.999112	0.349526
Zn17	Zn	0.139571	-1.499127	0.150689
Zn18	Zn	0.639571	-0.999127	0.650689
O19	O	0.277601	-1.504581	-0.114169
O20	O	0.777601	-1.004581	0.385831
C21	C	0.144991	-1.270127	0.000094
C22	C	0.644991	-0.770127	0.500094
C23	C	0.142202	-1.130403	0.000085
C24	C	0.642202	-0.630403	0.500085
C25	C	-0.033790	-1.488867	0.000093
C26	C	0.466210	-0.988867	0.500093
C27	C	-0.139110	-1.474592	0.000090
C28	C	0.360890	-0.974592	0.500090
N29	N	0.139588	-1.499111	-0.356011
N30	N	0.639588	-0.999111	0.143989
C31	C	-0.331943	-1.448493	0.000108
C32	C	0.168057	-0.948493	0.500108
C33	C	-0.388911	-1.549741	0.000119
C34	C	0.111089	-1.049741	0.500119
C35	C	-0.496210	-1.535219	0.000129
C36	C	0.003790	-1.035219	0.500129
C37	C	-0.224634	-1.463013	0.000098
C38	C	0.275366	-0.963013	0.500098
C39	C	0.312942	-1.509372	0.000125
C40	C	0.812942	-1.009372	0.500125
C41	C	0.418262	-1.523648	0.000137
C42	C	0.918262	-1.023648	0.500137
C43	C	0.134161	-1.728113	0.000124
C44	C	0.634161	-1.228113	0.500124
C45	C	0.136950	-1.867836	0.000142
C46	C	0.636950	-1.367836	0.500142
C47	C	0.227203	-1.059459	0.000114
C48	C	0.727203	-0.559459	0.500114
C49	C	0.224578	-0.928175	0.000137
C50	C	0.724578	-0.428175	0.500137
C51	C	0.051942	-0.938790	0.000109
C52	C	0.551942	-0.438790	0.500109
C53	C	0.054569	-1.070072	0.000076
C54	C	0.554569	-0.570072	0.500076
C55	C	0.326873	-1.053330	0.000136
C56	C	0.826873	-0.553330	0.500136
C57	C	0.324247	-0.922045	0.000159
C58	C	0.824247	-0.422045	0.500159
C59	C	0.197650	-1.581775	-0.427939
C60	C	0.697650	-1.081775	0.072061
C61	C	0.197632	-1.581792	-0.571822
C62	C	0.697632	-1.081792	-0.071822
C63	C	0.081488	-1.416470	-0.571836
C64	C	0.581488	-0.916470	-0.071836
C65	C	0.081501	-1.416460	-0.427955
C66	C	0.581501	-0.916460	0.072045
C67	C	0.264709	-1.677219	-0.427933
C68	C	0.764709	-1.177219	0.072067
C69	C	0.264691	-1.677236	-0.571815
C70	C	0.764691	-1.177236	-0.071815
N71	N	0.139557	-1.499138	0.356226
N72	N	0.639557	-0.999138	0.856226
H73	H	-0.357098	-1.647328	0.000217
H74	H	0.142902	-1.147328	0.500217
H75	H	-0.363754	-1.350913	0.000106
H76	H	0.136246	-0.850913	0.500106
F77	F	0.368349	-1.104115	0.129130
F78	F	0.868349	-0.604115	0.629130
H79	H	0.034195	-1.349178	-0.630431
H80	H	0.534195	-0.849178	-0.130431
F81	F	0.373327	-0.872430	0.125206
F82	F	0.873327	-0.372430	0.625206
H83	H	0.354372	-0.879395	-0.098522
H84	H	0.854372	-0.379395	0.401478
H85	H	-0.014647	-1.127830	0.000033
H86	H	0.485353	-0.627830	0.500033
H87	H	-0.019406	-0.889652	0.000123
H88	H	0.480594	-0.389652	0.500123
H89	H	0.339490	-1.653821	-0.610883
H90	H	0.839490	-1.153821	-0.110883
H91	H	0.034211	-1.349159	-0.369397
H92	H	0.534211	-0.849159	0.130603
H93	H	0.241403	-1.773929	-0.388864
H94	H	0.741403	-1.273929	0.111136
F95	F	0.377832	-1.096787	-0.124894
F96	F	0.877832	-0.596787	0.375106
H97	H	0.336136	-1.644866	-0.383324
H98	H	0.836136	-1.144866	0.116676
H99	H	0.234874	-1.768831	-0.616415
H100	H	0.734874	-1.268831	-0.116415
