data_functionalizedCrystal
_audit_creation_method	'MofGen! by Chris Wilmer'
_symmetry_space_group_name_H-M	'P1'
_symmetry_Int_Tables_number	1
_symmetry_cell_setting	triclinic
loop_
_symmetry_equiv_pos_as_xyz
  x,y,z
_cell_length_a	6.817900
_cell_length_b	16.255699
_cell_length_c	16.255661
_cell_angle_alpha	95.343798
_cell_angle_beta	103.488922
_cell_angle_gamma	103.489404
loop_
_atom_site_label
_atom_site_type_symbol
_atom_site_fract_x
_atom_site_fract_y
_atom_site_fract_z
V1	V	-4.026708	-0.117774	-0.264153
O2	O	-4.014191	0.004956	-0.258836
O3	O	-3.978255	-0.232849	-0.262625
O4	O	-3.978270	-0.116271	-0.379233
O5	O	-4.014176	-0.112429	-0.141420
V6	V	-4.510347	-0.103057	-0.249440
O7	O	-4.287710	-0.150055	-0.296429
O8	O	-4.699542	-0.070776	-0.217164
O9	O	-4.335593	0.012018	-0.250969
O10	O	-4.640261	-0.225787	-0.254757
O11	O	-4.640276	-0.108402	-0.372173
O12	O	-4.335579	-0.104560	-0.134360
C13	C	-3.823245	-0.260892	-0.258529
C14	C	-3.864916	-0.354970	-0.258046
C15	C	-3.775496	-0.577782	-0.252513
C16	C	-3.859152	-0.625224	-0.184316
C17	C	-3.941316	-0.527222	-0.257203
C18	C	-3.931935	-0.647410	-0.324549
C19	C	-4.015103	-0.693609	-0.256392
C20	C	-4.024394	-0.573415	-0.188954
C21	C	-4.097180	-0.595606	-0.329250
C22	C	-4.180955	-0.643023	-0.261038
C23	C	-3.898803	-0.431370	-0.257670
C24	C	-4.057627	-0.789458	-0.255920
C25	C	-3.823262	-0.112184	-0.407274
C26	C	-3.864942	-0.111717	-0.501354
C27	C	-3.775498	-0.106134	-0.724159
C28	C	-3.931912	-0.178190	-0.793808
C29	C	-3.941326	-0.110841	-0.673600
C30	C	-3.859203	-0.037959	-0.771587
C31	C	-4.015094	-0.109990	-0.839982
C32	C	-4.097222	-0.182961	-0.742019
C33	C	-4.024451	-0.042667	-0.719783
C34	C	-4.181001	-0.114744	-0.789412
C35	C	-3.898825	-0.111331	-0.577752
C36	C	-4.057612	-0.109506	-0.935829
C37	C	-4.153946	0.040057	-0.255062
C38	C	-4.091513	0.134133	-0.255550
C39	C	-4.153929	-0.108650	-0.106315
C40	C	-4.091487	-0.109113	-0.012234
H41	H	-3.603670	-0.549269	-0.248827
H42	H	-3.758971	0.023305	-0.785050
C43	C	-4.413188	-0.119703	-0.827753
N44	N	-4.588070	-0.123448	-0.856646
H45	H	-3.758964	-0.638672	-0.123033
C46	C	-3.879630	-0.690917	-0.401954
N47	N	-3.840218	-0.723681	-0.460252
C48	C	-4.413092	-0.681318	-0.265878
N49	N	-4.587934	-0.710163	-0.269519
C50	C	-3.543473	-0.101345	-0.685663
N51	N	-3.368718	-0.097744	-0.656665
C52	C	-4.232412	-0.577400	-0.412040
N53	N	-4.334254	-0.563684	-0.474405
C54	C	-3.879660	-0.255590	-0.837350
N55	N	-3.840288	-0.313883	-0.870143
C56	C	-4.076577	-0.530031	-0.111453
N57	N	-4.115870	-0.497351	-0.053079
C58	C	-4.232602	-0.265841	-0.724028
N59	N	-4.334559	-0.328266	-0.710475
H60	H	-4.063048	0.014633	-0.687537
