data_functionalizedCrystal
_audit_creation_method	'MofGen! by Chris Wilmer'
_symmetry_space_group_name_H-M	'P1'
_symmetry_Int_Tables_number	1
_symmetry_cell_setting	triclinic
loop_
_symmetry_equiv_pos_as_xyz
  x,y,z
_cell_length_a	12.594516
_cell_length_b	17.639181
_cell_length_c	17.640618
_cell_angle_alpha	87.832007
_cell_angle_beta	78.772060
_cell_angle_gamma	78.822518
loop_
_atom_site_label
_atom_site_type_symbol
_atom_site_fract_x
_atom_site_fract_y
_atom_site_fract_z
Zn1	Zn	-0.710170	1.247592	-0.194280
Zn2	Zn	-0.915731	1.221837	-0.067322
Zn3	Zn	-0.696257	1.094948	-0.093026
Zn4	Zn	-0.846574	1.120606	-0.219972
O5	O	-0.792183	1.171246	-0.143650
O6	O	-0.772203	1.350424	-0.155930
O7	O	-0.909737	1.183489	0.035528
O8	O	-0.549166	1.115237	-0.106463
O9	O	-0.923228	1.331502	-0.062654
O10	O	-0.559388	1.227384	-0.180854
O11	O	-0.748491	1.090263	0.016644
O12	O	-0.681432	0.992103	-0.131375
O13	O	-0.805359	1.158967	-0.322823
O14	O	-0.791869	1.010954	-0.224641
O15	O	-0.705144	1.252264	-0.303948
O16	O	-1.055493	1.208368	-0.087566
O17	O	-1.004684	1.133994	-0.199717
C18	C	-0.727637	0.973980	-0.183586
C19	C	-0.700046	0.889593	-0.200688
C20	C	-1.002025	0.562745	-0.013732
C21	C	-0.976083	0.483451	-0.029810
C22	C	-0.819009	0.503183	-0.127082
C23	C	-0.844934	0.582479	-0.111010
C24	C	-0.936444	0.612254	-0.054335
C25	C	-0.779354	0.631988	-0.151613
C26	C	-0.805281	0.711278	-0.135546
C27	C	-0.896789	0.741059	-0.078875
C28	C	-0.962372	0.691544	-0.038268
C29	C	-0.687849	0.602213	-0.208292
C30	C	-0.622269	0.651722	-0.248895
C31	C	-0.648191	0.731013	-0.232824
C32	C	-0.739699	0.760794	-0.176153
C33	C	-0.582608	0.780528	-0.273431
C34	C	-0.608536	0.859818	-0.257363
C35	C	-0.765626	0.840084	-0.160085
C36	C	-1.068709	1.171195	-0.143653
C37	C	-1.187026	1.171247	-0.143665
C38	C	-1.228688	1.130783	-0.204629
C39	C	-1.308551	1.098272	-0.139084
C40	C	-1.317982	1.203830	-0.209208
C41	C	-1.265326	1.138692	-0.078091
C42	C	-1.274751	1.244292	-0.148255
C43	C	-1.354601	1.211797	-0.082656
C44	C	-0.514580	1.171321	-0.143660
C45	C	-0.396282	1.171354	-0.143664
C46	C	-0.749089	1.211351	-0.341708
C47	C	-0.730725	1.228441	-0.426109
C48	C	-0.856981	1.369282	-0.103559
C49	C	-0.884595	1.453673	-0.086474
C50	C	-0.652669	1.301098	-0.535242
C51	C	-0.669931	1.285034	-0.455936
C52	C	-0.774277	1.187887	-0.475583
C53	C	-0.757019	1.203940	-0.554893
C54	C	-0.696215	1.260547	-0.584716
C55	C	-0.800565	1.163390	-0.604366
C56	C	-0.783313	1.179445	-0.683668
C57	C	-0.722515	1.236051	-0.713497
C58	C	-0.678963	1.276603	-0.664018
C59	C	-0.861375	1.106787	-0.574541
C60	C	-0.904921	1.066236	-0.624014
C61	C	-0.887662	1.082287	-0.703319
C62	C	-0.826864	1.138893	-0.733148
C63	C	-0.931214	1.041735	-0.752798
C64	C	-0.913962	1.057791	-0.832101
C65	C	-0.809612	1.154948	-0.812450
C66	C	-0.835046	1.131341	0.053646
C67	C	-0.853158	1.114398	0.138076
H68	H	-1.036883	0.715786	0.007887
H69	H	-0.917890	0.805621	-0.065787
O70	O	-0.990192	0.986672	-0.723932
C71	C	-0.937957	0.914918	-0.758605
H72	H	-0.883982	0.925001	-0.816500
H73	H	-1.003049	0.881413	-0.768213
H74	H	-0.884603	0.880317	-0.719142
H75	H	-0.634463	1.318058	-0.415656
O76	O	-1.326914	1.024611	-0.134576
C77	C	-1.261802	0.982087	-0.198947
H78	H	-1.239701	1.023426	-0.248160
H79	H	-1.309989	0.940430	-0.218431
H80	H	-1.183065	0.948018	-0.182303
O81	O	-1.419437	1.252665	-0.021154
C82	C	-1.531132	1.252779	-0.022164
H83	H	-1.540523	1.241668	-0.083539
H84	H	-1.583061	1.311298	-0.001540
H85	H	-1.560134	1.205466	0.017771
H86	H	-1.259256	1.306008	-0.152168
H87	H	-0.875425	1.093720	-0.509966
H88	H	-0.508107	0.756274	-0.319581
O89	O	-0.662466	0.525190	-0.223897
C90	C	-0.555979	0.494782	-0.209870
H91	H	-0.506805	0.543127	-0.213660
H92	H	-0.512338	0.448684	-0.254891
H93	H	-0.562684	0.467945	-0.149721
H94	H	-0.629435	1.322689	-0.688303
H95	H	-1.341402	1.231344	-0.264637
H96	H	-0.760084	1.201035	-0.836735
H97	H	-0.555131	0.900130	-0.290424
O98	O	-0.705949	1.251654	-0.790531
C99	C	-0.808566	1.276506	-0.813072
H100	H	-0.875569	1.254261	-0.769998
H101	H	-0.804731	1.252998	-0.873059
H102	H	-0.828377	1.342352	-0.814388
H103	H	-0.823786	1.141799	-0.451289
O104	O	-0.963914	1.011250	-0.594919
C105	C	-0.969831	1.005788	-0.514312
H106	H	-0.898194	1.028491	-0.498450
H107	H	-0.964990	0.942812	-0.495683
H108	H	-1.051091	1.041642	-0.483623
H109	H	-0.547764	0.627469	-0.295042
H110	H	-0.603141	1.347184	-0.559527
O111	O	-1.091041	0.591659	0.041235
C112	C	-1.187238	0.575595	0.020851
H113	H	-1.172423	0.566083	-0.044218
H114	H	-1.258288	0.626399	0.038014
H115	H	-1.208791	0.521315	0.052274
O116	O	-0.956434	1.018421	-0.880075
C117	C	-1.072158	1.031071	-0.857349
H118	H	-1.096447	1.048595	-0.793861
H119	H	-1.102535	0.975710	-0.865732
H120	H	-1.111068	1.079134	-0.894077
O121	O	-1.163956	1.089803	-0.266098
C122	C	-1.230848	1.060601	-0.308820
H123	H	-1.313337	1.056852	-0.269957
H124	H	-1.187948	1.000580	-0.331554
H125	H	-1.245348	1.100756	-0.359496
O126	O	-1.237329	1.105770	-0.012019
C127	C	-1.125257	1.106098	-0.012823
H128	H	-1.079999	1.109842	-0.075046
H129	H	-1.086881	1.050663	0.014798
H130	H	-1.118265	1.158054	0.021128
H131	H	-0.840137	0.864326	-0.113930
H132	H	-1.029495	0.443143	0.003257
H133	H	-0.744504	0.478930	-0.173229
