data_functionalizedCrystal
_audit_creation_method	'MofGen! by Chris Wilmer'
_symmetry_space_group_name_H-M	'P1'
_symmetry_Int_Tables_number	1
_symmetry_cell_setting	triclinic
loop_
_symmetry_equiv_pos_as_xyz
  x,y,z
_cell_length_a	18.215407
_cell_length_b	18.215404
_cell_length_c	18.215399
_cell_angle_alpha	89.972485
_cell_angle_beta	89.981439
_cell_angle_gamma	90.015559
loop_
_atom_site_label
_atom_site_type_symbol
_atom_site_fract_x
_atom_site_fract_y
_atom_site_fract_z
Zn1	Zn	-1.125077	0.293154	0.416093
Zn2	Zn	-0.791744	0.626487	0.749426
Zn3	Zn	-0.458411	0.959821	1.082760
Zn4	Zn	-1.124988	0.416225	0.293028
Zn5	Zn	-0.791655	0.749559	0.626361
Zn6	Zn	-0.458321	1.082892	0.959694
Zn7	Zn	-1.002010	0.293159	0.293043
Zn8	Zn	-0.668677	0.626493	0.626376
Zn9	Zn	-0.335343	0.959826	0.959710
Zn10	Zn	-1.001978	0.416166	0.416055
Zn11	Zn	-0.668645	0.749499	0.749389
Zn12	Zn	-0.335311	1.082832	1.082722
O13	O	-1.063513	0.354676	0.354555
O14	O	-0.730180	0.688009	0.687888
O15	O	-0.396847	1.021343	1.021221
O16	O	-1.228050	0.309503	0.399777
O17	O	-0.894716	0.642836	0.733111
O18	O	-0.561383	0.976169	1.066444
O19	O	-1.108651	0.399928	0.190045
O20	O	-0.775317	0.733261	0.523379
O21	O	-0.441984	1.066594	0.856712
O22	O	-1.018386	0.190174	0.309388
O23	O	-0.685052	0.523508	0.642722
O24	O	-0.351719	0.856841	0.976055
O25	O	-1.227984	0.399922	0.309362
O26	O	-0.894651	0.733256	0.642695
O27	O	-0.561317	1.066589	0.976029
O28	O	-1.108803	0.190171	0.399792
O29	O	-0.775470	0.523504	0.733126
O30	O	-0.442136	0.856837	1.066459
O31	O	-1.018299	0.309512	0.190057
O32	O	-0.684966	0.642845	0.523390
O33	O	-0.351632	0.976178	0.856723
O34	O	-0.899021	0.309454	0.309352
O35	O	-0.565688	0.642787	0.642685
O36	O	-0.232355	0.976120	0.976018
O37	O	-1.018331	0.399821	0.519045
O38	O	-0.684998	0.733154	0.852378
O39	O	-0.351665	1.066487	1.185711
O40	O	-0.898998	0.399826	0.399728
O41	O	-0.565665	0.733159	0.733062
O42	O	-0.232331	1.066493	1.066395
O43	O	-1.108772	0.309445	0.519072
O44	O	-0.775439	0.642778	0.852406
O45	O	-0.442105	0.976111	1.185739
O46	O	-1.108620	0.519202	0.309325
O47	O	-0.775286	0.852535	0.642659
O48	O	-0.441953	1.185868	0.975992
O49	O	-1.018245	0.519158	0.399713
O50	O	-0.684912	0.852491	0.733047
O51	O	-0.351578	1.185825	1.066380
C52	C	-0.872307	0.354634	0.354538
C53	C	-0.538974	0.687968	0.687871
C54	C	-0.205640	1.021301	1.021205
C55	C	-0.790508	0.354634	0.354548
C56	C	-0.457175	0.687968	0.687882
C57	C	-0.123842	1.021301	1.021215
C58	C	-1.063439	0.545882	0.354530
C59	C	-0.730106	0.879216	0.687863
C60	C	-0.396772	1.212549	1.021196
C61	C	-1.063475	0.627681	0.354543
C62	C	-0.730141	0.961015	0.687877
C63	C	-0.396808	1.294348	1.021210
C64	C	-1.063558	0.354625	0.546508
C65	C	-0.730225	0.687959	0.879841
C66	C	-0.396891	1.021292	1.213174
C67	C	-1.063577	0.354604	0.628307
C68	C	-0.730244	0.687937	0.961640
C69	C	-0.396911	1.021270	1.294973
C70	C	-0.525479	0.307659	0.401702
C71	C	-0.192146	0.640992	0.735036
C72	C	0.141188	0.974326	1.068369
C73	C	-0.602338	0.307651	0.401701
C74	C	-0.269005	0.640984	0.735034
C75	C	0.064329	0.974318	1.068368
C76	C	-0.602289	0.401669	0.307410
C77	C	-0.268955	0.735002	0.640744
C78	C	0.064378	1.068335	0.974077
C79	C	-0.525431	0.401680	0.307416
C80	C	-0.192098	0.735013	0.640749
C81	C	0.141235	1.068347	0.974083
C82	C	-0.487029	0.354671	0.354561
C83	C	-0.153695	0.688004	0.687894
C84	C	0.179638	1.021338	1.021227
C85	C	-0.640745	0.354651	0.354554
C86	C	-0.307411	0.687985	0.687887
C87	C	0.025922	1.021318	1.021221
C88	C	-0.724078	0.354643	0.354552
C89	C	-0.390745	0.687976	0.687885
C90	C	-0.057412	1.021310	1.021219
C91	C	-0.403690	0.354680	0.354564
C92	C	-0.070356	0.688014	0.687897
C93	C	0.262977	1.021347	1.021230
C94	C	-0.255466	0.354706	0.354569
C95	C	0.077867	0.688040	0.687902
C96	C	0.411200	1.021373	1.021236
C97	C	-0.337265	0.354688	0.354567
C98	C	-0.003932	0.688021	0.687900
C99	C	0.329402	1.021355	1.021233
C100	C	-1.110647	0.815874	0.307575
C101	C	-0.777314	1.149207	0.640908
C102	C	-0.443980	1.482540	0.974242
C103	C	-1.110681	0.892732	0.307597
C104	C	-0.777348	1.226066	0.640930
C105	C	-0.444015	1.559399	0.974264
C106	C	-1.016492	0.892727	0.401641
C107	C	-0.683159	1.226060	0.734974
C108	C	-0.349826	1.559393	1.068307
C109	C	-1.016462	0.815869	0.401622
C110	C	-0.683129	1.149203	0.734955
C111	C	-0.349796	1.482536	1.068288
C112	C	-1.063538	0.777445	0.354585
C113	C	-0.730205	1.110778	0.687918
C114	C	-0.396872	1.444111	1.021251
C115	C	-1.063603	0.931161	0.354625
C116	C	-0.730270	1.264494	0.687959
C117	C	-0.396936	1.597828	1.021292
C118	C	-1.063640	1.014494	0.354650
C119	C	-0.730306	1.347828	0.687983
C120	C	-0.396973	1.681161	1.021316
C121	C	-1.063503	0.694106	0.354562
C122	C	-0.730169	1.027439	0.687895
C123	C	-0.396836	1.360773	1.021228
C124	C	-1.063612	1.162723	0.354610
C125	C	-0.730279	1.496057	0.687943
C126	C	-0.396946	1.829390	1.021276
C127	C	-1.063667	1.080924	0.354667
C128	C	-0.730333	1.414258	0.688000
C129	C	-0.397000	1.747591	1.021334
C130	C	-1.063511	0.354674	0.163349
C131	C	-0.730178	0.688007	0.496682
C132	C	-0.396844	1.021340	0.830015
C133	C	-1.063635	0.354488	0.081550
C134	C	-0.730301	0.687821	0.414883
C135	C	-0.396968	1.021155	0.748217
C136	C	-1.110687	0.307501	0.816516
C137	C	-0.777353	0.640834	1.149850
C138	C	-0.444020	0.974168	1.483183
C139	C	-1.110695	0.307480	0.893375
C140	C	-0.777362	0.640813	1.226708
C141	C	-0.444029	0.974146	1.560042
C142	C	-1.016520	0.401593	0.893335
C143	C	-0.683187	0.734926	1.226668
C144	C	-0.349853	1.068260	1.560002
C145	C	-1.016508	0.401610	0.816478
C146	C	-0.683175	0.734943	1.149811
C147	C	-0.349841	1.068277	1.483144
C148	C	-1.063596	0.354565	0.778070
C149	C	-0.730262	0.687899	1.111404
C150	C	-0.396929	1.021232	1.444737
C151	C	-1.063616	0.354527	0.931786
C152	C	-0.730283	0.687860	1.265120
C153	C	-0.396950	1.021193	1.598453
C154	C	-1.063625	0.354504	1.015120
C155	C	-0.730292	0.687837	1.348454
C156	C	-0.396959	1.021170	1.681787
C157	C	-1.063586	0.354587	0.694731
C158	C	-0.730252	0.687920	1.028065
C159	C	-0.396919	1.021254	1.361398
H160	H	-0.633641	0.269370	0.440089
H161	H	-0.300308	0.602703	0.773422
H162	H	0.033026	0.936036	1.106756
H163	H	-0.978156	0.439935	0.785174
H164	H	-0.644822	0.773268	1.118507
H165	H	-0.311489	1.106601	1.451841
C166	C	-0.483133	0.453394	0.255556
C167	C	-0.149800	0.786727	0.588890
C168	C	0.183534	1.120061	0.922223
H169	H	-0.517011	0.481382	0.227470
H170	H	-0.183677	0.814715	0.560804
H171	H	0.149656	1.148048	0.894137
H172	H	-0.453157	0.485497	0.283656
H173	H	-0.119824	0.818830	0.616989
H174	H	0.213509	1.152163	0.950323
H175	H	-0.453143	0.425201	0.223540
H176	H	-0.119809	0.758535	0.556873
H177	H	0.213524	1.091868	0.890206
C178	C	-1.162428	0.773605	0.255839
C179	C	-0.829094	1.106939	0.589172
C180	C	-0.495761	1.440272	0.922506
H181	H	-1.155658	0.722328	0.262553
H182	H	-0.822325	1.055661	0.595886
H183	H	-0.488992	1.388994	0.929220
H184	H	-1.211874	0.786158	0.266655
H185	H	-0.878540	1.119492	0.599989
H186	H	-0.545207	1.452825	0.933322
H187	H	-1.151685	0.786248	0.206384
H188	H	-0.818351	1.119581	0.539717
H189	H	-0.485018	1.452914	0.873051
C190	C	-0.483238	0.255961	0.453568
C191	C	-0.149905	0.589294	0.786901
C192	C	0.183428	0.922627	1.120234
H193	H	-0.517149	0.227967	0.481648
H194	H	-0.183815	0.561300	0.814982
H195	H	0.149518	0.894634	1.148315
H196	H	-0.453247	0.223863	0.425478
H197	H	-0.119913	0.557196	0.758812
H198	H	0.213420	0.890530	1.092145
H199	H	-0.453268	0.284164	0.485589
H200	H	-0.119935	0.617498	0.818922
H201	H	0.213398	0.950831	1.152255
C202	C	-0.644534	0.453367	0.255548
C203	C	-0.311201	0.786700	0.588882
C204	C	0.022133	1.120033	0.922215
H205	H	-0.695815	0.446622	0.262290
H206	H	-0.362482	0.779955	0.595623
H207	H	-0.029148	1.113289	0.928957
H208	H	-0.631939	0.502830	0.266232
H209	H	-0.298605	0.836163	0.599565
H210	H	0.034728	1.169496	0.932899
H211	H	-0.631918	0.442530	0.206119
H212	H	-0.298584	0.775864	0.539453
H213	H	0.034749	1.109197	0.872786
H214	H	-1.149043	0.924018	0.269318
H215	H	-0.815709	1.257351	0.602651
H216	H	-0.482376	1.590684	0.935984
H217	H	-0.978164	0.924021	0.439935
H218	H	-0.644830	1.257355	0.773269
H219	H	-0.311497	1.590688	1.106602
H220	H	-1.149026	0.269192	0.785247
H221	H	-0.815693	0.602525	1.118581
H222	H	-0.482360	0.935859	1.451914
H223	H	-1.149040	0.269154	0.924675
H224	H	-0.815707	0.602487	1.258008
H225	H	-0.482374	0.935821	1.591341
C226	C	-0.964639	0.773595	0.453334
C227	C	-0.631306	1.106928	0.786667
C228	C	-0.297973	1.440261	1.120001
H229	H	-0.936600	0.807485	0.481343
H230	H	-0.603266	1.140819	0.814676
H231	H	-0.269933	1.474152	1.148010
H232	H	-0.992760	0.743570	0.485417
H233	H	-0.659427	1.076904	0.818751
H234	H	-0.326094	1.410237	1.152084
H235	H	-0.932578	0.743655	0.425139
H236	H	-0.599245	1.076988	0.758472
H237	H	-0.265911	1.410322	1.091806
C238	C	-0.964735	0.453344	0.935585
C239	C	-0.631401	0.786678	1.268919
C240	C	-0.298068	1.120011	1.602252
H241	H	-0.971491	0.446600	0.986866
H242	H	-0.638158	0.779933	1.320199
H243	H	-0.304824	1.113267	1.653532
H244	H	-0.915290	0.442571	0.922986
H245	H	-0.581957	0.775904	1.256319
H246	H	-0.248624	1.109237	1.589653
H247	H	-0.975488	0.502798	0.922977
H248	H	-0.642154	0.836131	1.256310
H249	H	-0.308821	1.169464	1.589643
