data_functionalizedCrystal
_audit_creation_method	'MofGen! by Chris Wilmer'
_symmetry_space_group_name_H-M	'P1'
_symmetry_Int_Tables_number	1
_symmetry_cell_setting	triclinic
loop_
_symmetry_equiv_pos_as_xyz
  x,y,z
_cell_length_a	20.016444
_cell_length_b	14.560438
_cell_length_c	20.016444
_cell_angle_alpha	60.000278
_cell_angle_beta	90.002955
_cell_angle_gamma	60.002114
loop_
_atom_site_label
_atom_site_type_symbol
_atom_site_fract_x
_atom_site_fract_y
_atom_site_fract_z
Zr1	Zr	0.643577	1.005323	-0.087662
O2	O	0.536899	1.196924	-0.194337
O3	O	0.676279	0.813722	-0.054962
O4	O	0.676272	1.005332	-0.194339
O5	O	0.536912	1.005306	0.054986
O6	O	0.786212	1.005339	-0.194340
O7	O	0.536906	1.005314	-0.054960
O8	O	0.786225	0.662584	0.054981
O9	O	0.536900	1.348061	-0.194335
O10	O	0.772273	0.892536	-0.041014
O11	O	0.690231	0.892525	0.041037
O12	O	0.690223	1.118121	-0.123062
O13	O	0.608180	1.118110	-0.041011
Zr14	Zr	0.818928	1.005323	0.087688
Zr15	Zr	0.818918	1.005334	-0.087662
Zr16	Zr	0.643586	1.005311	0.087688
Zr17	Zr	0.643577	1.246370	-0.087659
Zr18	Zr	0.818927	0.764275	0.087684
O19	O	0.786225	1.196924	0.054988
O20	O	0.786212	1.196940	-0.194337
O21	O	0.536913	1.196907	0.054988
O22	O	0.925605	0.813722	0.194362
O23	O	0.925592	0.813739	-0.054963
O24	O	0.676292	0.813706	0.194362
O25	O	0.925592	1.005339	-0.054960
O26	O	0.786233	1.005314	0.194365
O27	O	0.676293	1.005306	0.194365
O28	O	0.925598	1.005332	0.054985
O29	O	0.676273	1.348071	-0.194335
O30	O	0.786232	0.662575	0.194360
O31	O	0.925605	0.662584	0.194360
O32	O	0.925598	0.662593	0.054980
O33	O	0.536907	1.348052	-0.054955
O34	O	0.676280	1.348061	-0.054955
O35	O	0.772282	0.892525	0.123087
O36	O	0.854325	0.892536	0.041036
O37	O	0.772274	1.118121	-0.041011
O38	O	0.690231	1.118110	0.041040
C39	C	0.511927	1.005308	0.000013
C40	C	0.437490	1.005304	0.000013
C41	C	0.731252	0.703809	0.000009
C42	C	0.731252	0.601478	0.000007
C43	C	0.309053	0.887565	0.042843
C44	C	0.239107	0.887571	0.042845
C45	C	0.153454	1.123089	-0.042819
C46	C	0.223398	1.123083	-0.042815
C47	C	0.301197	1.005317	0.000013
C48	C	0.161308	1.005329	0.000012
C49	C	0.085470	1.005336	0.000014
C50	C	0.377040	1.005309	0.000013
C51	C	0.774075	0.553408	-0.042823
C52	C	0.774079	0.457248	-0.042815
C53	C	0.688428	0.457242	0.042853
C54	C	0.688430	0.553393	0.042850
C55	C	0.864457	0.272331	-0.055340
C56	C	0.907272	0.224274	-0.098183
C57	C	0.906145	0.309007	-0.174938
C58	C	0.862189	0.441819	-0.208866
C59	C	0.819368	0.489880	-0.166028
C60	C	0.820512	0.405127	-0.089260
C61	C	0.598049	0.738319	0.055366
C62	C	0.555222	0.786389	0.098200
C63	C	0.556341	0.701663	0.174955
C64	C	0.600283	0.568862	0.208878
C65	C	0.643109	0.520792	0.166044
C66	C	0.641991	0.605523	0.089291
C67	C	0.950578	1.005337	0.000012
C68	C	1.025015	1.005342	0.000012
C69	C	0.731241	1.005337	-0.219323
C70	C	0.731237	1.005342	-0.293764
C71	C	0.731253	1.306837	0.000017
C72	C	0.731253	1.409168	0.000018
C73	C	0.688421	1.123080	-0.507848
C74	C	0.688428	1.123075	-0.577789
C75	C	0.774089	0.887556	-0.492118
C76	C	0.774086	0.887563	-0.422179
C77	C	0.731248	1.005329	-0.430047
C78	C	0.731257	1.005317	-0.569928
C79	C	0.731264	1.005310	-0.645761
C80	C	0.731241	1.005336	-0.354209
C81	C	0.731264	1.005308	0.219349
C82	C	0.731268	1.005304	0.293789
C83	C	0.950577	0.703823	0.000008
C84	C	1.025014	0.601497	0.000007
C85	C	0.731264	0.703795	0.219344
C86	C	0.731267	0.601459	0.293784
C87	C	0.950589	0.703809	0.219344
C88	C	1.025030	0.601478	0.293783
C89	C	0.511916	1.306837	-0.219319
C90	C	0.437475	1.409168	-0.293758
C91	C	0.511927	1.306822	0.000017
C92	C	0.437491	1.409148	0.000019
C93	C	0.731241	1.306851	-0.219319
C94	C	0.731237	1.409187	-0.293758
C95	C	1.017141	0.553444	-0.042831
C96	C	1.087075	0.457311	-0.042849
C97	C	1.164883	0.409227	-0.000023
C98	C	1.172755	0.457290	0.042816
C99	C	1.102821	0.553427	0.042828
C100	C	0.774099	0.553401	0.371578
C101	C	0.774099	0.457259	0.441528
C102	C	0.731273	0.409170	0.433682
C103	C	0.688436	0.457237	0.355880
C104	C	0.688431	0.553384	0.285931
C105	C	1.102821	0.553428	0.285911
C106	C	1.172772	0.457290	0.355848
C107	C	1.164931	0.409198	0.433656
C108	C	1.087132	0.457258	0.441527
C109	C	1.017182	0.553400	0.371591
C110	C	0.359684	1.457229	-0.285885
C111	C	0.289732	1.553397	-0.355822
C112	C	0.297573	1.601494	-0.433630
C113	C	0.375372	1.553428	-0.441501
C114	C	0.445322	1.457269	-0.371565
C115	C	0.445364	1.457212	0.042849
C116	C	0.375429	1.553371	0.042848
C117	C	0.297622	1.601459	0.000020
C118	C	0.289750	1.553392	-0.042816
C119	C	0.359684	1.457240	-0.042819
C120	C	0.774073	1.457245	-0.285886
C121	C	0.774085	1.553388	-0.355823
C122	C	0.731257	1.601477	-0.433631
C123	C	0.688420	1.553409	-0.441502
C124	C	0.688413	1.457262	-0.371566
H125	H	0.372397	0.791673	0.077726
H126	H	0.953844	0.592510	0.378012
F127	F	1.255564	0.406155	0.347454
H128	H	0.353284	1.418074	-0.222536
F129	F	0.642834	1.248417	-0.516224
H130	H	0.090103	1.218970	-0.077689
F131	F	1.239386	0.306873	0.508082
F132	F	0.528166	1.406054	0.088433
H133	H	0.653555	1.218960	-0.641136
F134	F	0.642812	1.406134	-0.379956
H135	H	0.521459	0.740818	0.209824
F136	F	0.819673	0.762229	-0.483753
F137	F	0.819669	0.762229	-0.339370
H138	H	0.808948	1.418106	-0.222537
F139	F	0.731270	1.703810	-0.508057
F140	F	0.819675	1.604534	-0.347429
H141	H	0.226392	1.592516	-0.349398
H142	H	0.808985	0.418133	0.504872
H143	H	1.080650	0.418190	-0.077733
F144	F	1.078800	0.406061	0.524343
H145	H	0.731283	0.330881	0.490646
H146	H	0.953792	0.592593	-0.077714
F147	F	0.223118	1.703835	-0.508056
F148	F	1.255570	0.406098	0.088392
F149	F	0.383705	1.604628	-0.524317
F150	F	0.819687	0.604559	0.379947
H151	H	0.653551	1.592578	-0.504862
F152	F	1.239306	0.306906	-0.000043
H153	H	0.653563	0.418081	0.077734
H154	H	0.508661	1.418138	-0.377985
F155	F	1.111213	0.604553	0.088430
H156	H	0.245511	0.791686	0.077722
H157	H	0.519436	0.894529	0.070569
F158	F	0.383825	1.604507	0.088444
F159	F	0.642860	0.406043	0.347542
H160	H	0.653555	0.592500	0.222590
H161	H	0.678886	0.412655	0.193670
H162	H	0.216996	1.218976	-0.077691
F163	F	0.223199	1.703792	0.000031
F164	F	1.111184	0.604600	0.203108
F165	F	0.351292	1.406091	-0.088402
F166	F	0.819653	0.604576	-0.088417
F167	F	0.860980	0.531999	-0.290566
F168	F	0.772595	0.631216	-0.202129
F169	F	0.951710	0.257856	-0.220534
H170	H	0.226390	1.592559	-0.077685
H171	H	0.865390	0.203322	0.007165
F172	F	0.954052	0.082927	-0.062072
H173	H	0.597133	0.807320	-0.007135
F174	F	0.601470	0.478685	0.290567
