data_functionalizedCrystal
_audit_creation_method	'MofGen! by Chris Wilmer'
_symmetry_space_group_name_H-M	'P1'
_symmetry_Int_Tables_number	1
_symmetry_cell_setting	triclinic
loop_
_symmetry_equiv_pos_as_xyz
  x,y,z
_cell_length_a	29.839134
_cell_length_b	13.033374
_cell_length_c	13.033109
_cell_angle_alpha	105.152083
_cell_angle_beta	97.201568
_cell_angle_gamma	82.835036
loop_
_atom_site_label
_atom_site_type_symbol
_atom_site_fract_x
_atom_site_fract_y
_atom_site_fract_z
Zn1	Zn	-0.695332	-0.499706	-0.654449
Zn2	Zn	-0.678372	-0.654765	-0.499419
Zn3	Zn	-0.611738	-0.477122	-0.476843
Zn4	Zn	-0.611752	-0.677181	-0.676957
O5	O	-0.649299	-0.577193	-0.576917
O6	O	-0.755947	-0.520345	-0.633912
O7	O	-0.662429	-0.612367	-0.347795
O8	O	-0.629919	-0.331499	-0.481535
O9	O	-0.743486	-0.634266	-0.520012
O10	O	-0.691335	-0.348092	-0.612021
O11	O	-0.613473	-0.481854	-0.331209
O12	O	-0.548875	-0.503590	-0.503361
O13	O	-0.629943	-0.672472	-0.822601
O14	O	-0.548886	-0.650573	-0.650384
O15	O	-0.691349	-0.542081	-0.806064
O16	O	-0.662443	-0.806356	-0.541838
O17	O	-0.613498	-0.822826	-0.672274
C18	C	-0.532580	-0.577064	-0.576866
C19	C	-0.482648	-0.577038	-0.576872
C20	C	-0.132539	-0.517981	-0.636343
C21	C	-0.320215	-0.517911	-0.636320
O22	O	-0.349994	-0.467596	-0.686883
N23	N	-0.337201	-0.577096	-0.576897
C24	C	-0.307264	-0.636308	-0.517481
O25	O	-0.326018	-0.686655	-0.466946
C26	C	-0.119590	-0.636383	-0.517511
C27	C	-0.102607	-0.577186	-0.576929
C28	C	-0.115556	-0.458790	-0.695757
C29	C	-0.068640	-0.458803	-0.695758
C30	C	-0.038707	-0.518008	-0.636344
C31	C	-0.055691	-0.577199	-0.576930
C32	C	-0.089654	-0.695600	-0.458102
C33	C	-0.042733	-0.695616	-0.458117
C34	C	-0.025750	-0.636419	-0.517535
C35	C	0.021158	-0.636417	-0.517517
N36	N	0.038144	-0.577233	-0.576940
C37	C	0.008211	-0.518028	-0.636353
C38	C	-0.405797	-0.636262	-0.517468
C39	C	-0.452715	-0.636242	-0.517458
C40	C	-0.465663	-0.517847	-0.636299
C41	C	-0.418743	-0.517862	-0.636301
C42	C	-0.388811	-0.577078	-0.576891
C43	C	0.106739	-0.518060	-0.636349
C44	C	0.153660	-0.518075	-0.636341
C45	C	0.166603	-0.636474	-0.517506
C46	C	0.119687	-0.636455	-0.517509
C47	C	0.089755	-0.577245	-0.576939
O48	O	0.050963	-0.686716	-0.466990
O49	O	0.026974	-0.467707	-0.686899
C50	C	-0.179456	-0.517968	-0.636342
C51	C	-0.196439	-0.577159	-0.576928
C52	C	-0.166506	-0.636364	-0.517514
C53	C	-0.243357	-0.577139	-0.576919
C54	C	-0.273290	-0.517934	-0.636332
C55	C	-0.256304	-0.458749	-0.695755
C56	C	-0.209388	-0.458763	-0.695756
C57	C	-0.183492	-0.695548	-0.458091
C58	C	-0.230409	-0.695529	-0.458094
C59	C	-0.260342	-0.636324	-0.517508
C60	C	-0.636144	-0.853129	-0.611971
C61	C	-0.630560	-0.971180	-0.627003
C62	C	-0.662540	-0.612296	-0.853948
C63	C	-0.668182	-0.627255	-0.972001
C64	C	0.233527	-0.577299	-0.576953
C65	C	0.183593	-0.577280	-0.576928
C66	C	-0.662518	-0.300183	-0.541749
C67	C	-0.668151	-0.182138	-0.526763
C68	C	-0.652265	-0.015658	-0.569145
C69	C	-0.646443	-0.137663	-0.584629
C70	C	-0.646476	-0.569348	-1.016427
C71	C	-0.652307	-0.584807	-1.138442
C72	C	-0.636139	-0.542151	-0.300955
C73	C	-0.630597	-0.526893	-0.182863
H74	H	0.105859	-0.684647	-0.469115
Br75	Br	-0.475757	-0.716558	-0.436790
Br76	Br	-0.706315	-0.095078	-0.425095
Br77	Br	-0.706349	-0.728973	-1.059156
H78	H	-0.607694	-0.465870	-1.130572
Br79	Br	-0.690476	-0.686530	-1.225593
Br80	Br	-0.506294	-0.437496	-0.716929
Br81	Br	-0.112690	-0.775921	-0.377434
Br82	Br	-0.045599	-0.378470	-0.776411
H83	H	-0.159125	-0.743762	-0.409710
H84	H	0.167484	-0.469865	-0.684726
H85	H	0.082374	-0.469845	-0.684742
H86	H	-0.139923	-0.410578	-0.744144
H87	H	-0.404919	-0.469657	-0.684684
H88	H	-0.675160	0.036584	-0.508151
Br89	Br	-0.592405	-0.058249	-0.728683
H90	H	-0.381429	-0.684485	-0.469084
H91	H	-0.623550	-0.189905	-0.645635
Br92	Br	-0.608311	-0.467625	-0.929271
H93	H	0.190983	-0.684673	-0.469128
Br94	Br	-0.002113	-0.775996	-0.377494
Br95	Br	-0.186348	-0.378420	-0.776400
H96	H	-0.280684	-0.410538	-0.744127
Br97	Br	-0.253450	-0.775860	-0.377432
