data_functionalizedCrystal
_audit_creation_method	'MofGen! by Chris Wilmer'
_symmetry_space_group_name_H-M	'P1'
_symmetry_Int_Tables_number	1
_symmetry_cell_setting	triclinic
loop_
_symmetry_equiv_pos_as_xyz
  x,y,z
_cell_length_a	11.026607
_cell_length_b	10.723024
_cell_length_c	9.198806
_cell_angle_alpha	89.997723
_cell_angle_beta	89.996503
_cell_angle_gamma	96.526943
loop_
_atom_site_label
_atom_site_type_symbol
_atom_site_fract_x
_atom_site_fract_y
_atom_site_fract_z
O1	O	-1.614521	-0.523503	0.120890
O2	O	-1.114521	-0.023503	0.620890
O3	O	-1.260718	-0.463892	0.120892
O4	O	-0.760718	0.036108	0.620892
O5	O	-1.445780	-0.313883	0.120886
O6	O	-0.945780	0.186117	0.620886
O7	O	-1.429458	-0.673512	0.120896
O8	O	-0.929458	-0.173512	0.620896
O9	O	-1.445766	-0.313878	-0.120900
O10	O	-0.945766	0.186122	0.379100
O11	O	-1.260704	-0.463887	-0.120893
O12	O	-0.760704	0.036113	0.379107
O13	O	-1.614506	-0.523499	-0.120895
O14	O	-1.114506	-0.023499	0.379105
Cu15	Cu	-1.437603	-0.493693	-0.142971
Cu16	Cu	-0.937603	0.006307	0.357029
Cu17	Cu	-1.437621	-0.493698	0.142968
Cu18	Cu	-0.937621	0.006302	0.642968
O19	O	-1.429444	-0.673508	-0.120889
O20	O	-0.929444	-0.173508	0.379111
C21	C	-1.215408	-0.452892	-0.000000
C22	C	-0.715408	0.047108	0.500000
C23	C	-1.080422	-0.420109	0.000001
C24	C	-0.580422	0.079891	0.500001
C25	C	-1.444585	-0.267125	-0.000005
C26	C	-0.944585	0.232875	0.499995
C27	C	-1.441032	-0.127803	-0.000000
C28	C	-0.941032	0.372197	0.500000
C29	C	-1.659816	-0.534498	0.000000
C30	C	-1.159816	-0.034498	0.500000
C31	C	-1.794803	-0.567282	0.000009
C32	C	-1.294803	-0.067282	0.500009
C33	C	-1.007369	-0.510629	0.000004
C34	C	-0.507369	-0.010629	0.500004
C35	C	-0.867853	-0.476748	0.000005
C36	C	-0.367853	0.023252	0.500005
C37	C	-1.430639	-0.720266	0.000005
C38	C	-0.930639	-0.220266	0.500005
C39	C	-1.434193	-0.859587	0.000010
C40	C	-0.934193	-0.359587	0.500010
N41	N	-1.437600	-0.493690	-0.344085
N42	N	-0.937600	0.006310	0.155915
C43	C	-1.544583	-0.075171	0.000001
C44	C	-1.044583	0.424829	0.500001
C45	C	-1.540912	0.068824	0.000007
C46	C	-1.040912	0.568824	0.500007
C47	C	-1.508491	-0.581352	-0.416281
C48	C	-1.008491	-0.081352	0.083719
C49	C	-1.508510	-0.581355	-0.583693
C50	C	-1.008510	-0.081355	-0.083693
N51	N	-1.437634	-0.493693	0.344082
N52	N	-0.937634	0.006307	0.844082
H53	H	-1.048115	-0.613209	-0.000001
H54	H	-0.548115	-0.113209	0.499999
H55	H	-1.629560	0.114123	0.000001
H56	H	-1.129560	0.614123	0.500001
Cl57	Cl	-1.343914	-0.377815	-0.560078
Cl58	Cl	-0.843914	0.122185	-0.060078
Cl59	Cl	-1.343919	-0.377808	-0.439997
Cl60	Cl	-0.843919	0.122192	0.060003
Cl61	Cl	-1.297314	0.070491	-0.000004
Cl62	Cl	-0.797314	0.570491	0.499996
Cl63	Cl	-1.602213	-0.697240	-0.679543
Cl64	Cl	-1.102213	-0.197240	-0.179543
H65	H	-0.827113	-0.374161	0.000039
H66	H	-0.327113	0.125839	0.500039
H67	H	-1.635954	-0.136715	-0.000008
H68	H	-1.135954	0.363285	0.499992
Cl69	Cl	-0.857690	-0.725671	-0.000007
Cl70	Cl	-0.357690	-0.225671	0.499993
Cl71	Cl	-1.602186	-0.697223	-0.320369
Cl72	Cl	-1.102186	-0.197223	0.179631
H73	H	-1.039676	-0.317529	0.000035
H74	H	-0.539676	0.182471	0.500035
H75	H	-1.349660	-0.066260	0.000010
H76	H	-0.849660	0.433740	0.500010
