data_functionalizedCrystal
_audit_creation_method	'MofGen! by Chris Wilmer'
_symmetry_space_group_name_H-M	'P1'
_symmetry_Int_Tables_number	1
_symmetry_cell_setting	triclinic
loop_
_symmetry_equiv_pos_as_xyz
  x,y,z
_cell_length_a	17.699083
_cell_length_b	14.519709
_cell_length_c	16.176319
_cell_angle_alpha	89.992256
_cell_angle_beta	89.998611
_cell_angle_gamma	83.481580
loop_
_atom_site_label
_atom_site_type_symbol
_atom_site_fract_x
_atom_site_fract_y
_atom_site_fract_z
O1	O	1.004413	0.116624	-0.068632
O2	O	1.504413	0.616624	0.431368
O3	O	0.784078	0.131798	-0.068660
O4	O	1.284078	0.631798	0.431340
O5	O	0.900087	-0.010052	-0.068638
O6	O	1.400087	0.489948	0.431362
O7	O	0.888403	0.258474	-0.068654
O8	O	1.388403	0.758474	0.431346
O9	O	0.900071	-0.010061	0.068855
O10	O	1.400071	0.489939	0.568855
O11	O	0.784062	0.131789	0.068833
O12	O	1.284062	0.631789	0.568833
O13	O	1.004397	0.116615	0.068861
O14	O	1.504397	0.616615	0.568861
Cu15	Cu	0.894228	0.124201	0.081401
Cu16	Cu	1.394228	0.624201	0.581401
Cu17	Cu	0.894247	0.124212	-0.081200
Cu18	Cu	1.394247	0.624212	0.418800
O19	O	0.888387	0.258465	0.068839
O20	O	1.388387	0.758465	0.568839
C21	C	0.755871	0.131249	0.000083
C22	C	1.255871	0.631249	0.500083
C23	C	0.671848	0.129618	0.000073
C24	C	1.171848	0.629618	0.500073
C25	C	0.899534	-0.044414	0.000109
C26	C	1.399534	0.455586	0.500109
C27	C	0.897903	-0.146789	0.000109
C28	C	1.397903	0.353211	0.500109
C29	C	0.623466	0.212881	0.000068
C30	C	1.123466	0.712881	0.500068
C31	C	0.544518	0.211343	0.000079
C32	C	1.044518	0.711343	0.500079
C33	C	0.513954	0.126541	0.000089
C34	C	1.013954	0.626541	0.500089
C35	C	0.562343	0.043272	0.000096
C36	C	1.062343	0.543272	0.500096
C37	C	0.641289	0.044811	0.000091
C38	C	1.141289	0.544811	0.500091
C39	C	0.243962	0.037064	0.000117
C40	C	0.743962	0.537064	0.500117
C41	C	0.165010	0.035531	0.000119
C42	C	0.665010	0.535531	0.500119
C43	C	0.147191	0.203596	0.000105
C44	C	0.647191	0.703596	0.500105
C45	C	0.226137	0.205135	0.000100
C46	C	0.726137	0.705135	0.500100
C47	C	0.274519	0.121866	0.000112
C48	C	0.774519	0.621866	0.500112
C49	C	0.360123	0.123535	0.000102
C50	C	0.860123	0.623535	0.500102
C51	C	0.428352	0.124872	0.000093
C52	C	0.928352	0.624872	0.500093
C53	C	0.891896	-0.521659	0.000087
C54	C	1.391896	-0.021659	0.500087
C55	C	0.893564	-0.417358	0.000093
C56	C	1.393564	0.082642	0.500093
C57	C	0.894899	-0.334227	0.000099
C58	C	1.394899	0.165773	0.500099
C59	C	0.896568	-0.229920	0.000104
C60	C	1.396568	0.270080	0.500104
C61	C	1.032603	0.117164	0.000116
C62	C	1.532603	0.617164	0.500116
C63	C	1.116626	0.118795	0.000121
C64	C	1.616626	0.618795	0.500121
C65	C	0.888940	0.292827	0.000090
C66	C	1.388940	0.792827	0.500090
C67	C	0.890572	0.395202	0.000085
C68	C	1.390572	0.895202	0.500085
N69	N	0.894220	0.124193	0.195767
N70	N	1.394220	0.624193	0.695767
N71	N	0.894260	0.124213	-0.195565
N72	N	1.394260	0.624213	0.304435
C73	C	0.945604	0.061408	0.239040
C74	C	1.445604	0.561408	0.739040
C75	C	0.945608	0.061407	0.325588
C76	C	1.445608	0.561407	0.825588
C77	C	0.894231	0.124196	0.368859
C78	C	1.394231	0.624196	0.868859
C79	C	0.842841	0.186985	0.325579
C80	C	1.342841	0.686985	0.825579
C81	C	0.842834	0.186981	0.239034
C82	C	1.342834	0.686981	0.739034
C83	C	0.842867	0.187002	0.674608
C84	C	1.342867	0.687002	1.174608
C85	C	0.842879	0.187003	0.761159
C86	C	1.342879	0.687003	1.261159
C87	C	0.945641	0.061428	0.761161
C88	C	1.445641	0.561428	1.261161
C89	C	0.945634	0.061424	0.674616
C90	C	1.445634	0.561424	1.174616
C91	C	0.894242	0.124209	0.631343
C92	C	1.394242	0.624209	1.131343
C93	C	0.894237	0.124208	0.537499
C94	C	1.394237	0.624208	1.037499
C95	C	0.894238	0.124202	0.462702
C96	C	1.394238	0.624202	0.962702
H97	H	0.648344	0.281937	0.000060
H98	H	1.148344	0.781937	0.500060
F99	F	0.295444	-0.051559	0.000129
F100	F	0.795444	0.448441	0.500129
F101	F	0.788141	0.253803	0.192980
F102	F	1.288141	0.753803	0.692980
H103	H	0.505128	0.279144	0.000074
H104	H	1.005128	0.779144	0.500074
H105	H	0.251017	0.274189	0.000088
H106	H	0.751017	0.774189	0.500088
H107	H	0.537452	-0.025775	0.000116
H108	H	1.037452	0.474225	0.500116
H109	H	0.140129	-0.033529	0.000128
H110	H	0.640129	0.466471	0.500128
F111	F	0.095693	0.292219	0.000096
F112	F	0.595693	0.792219	0.500096
F113	F	0.692782	-0.043809	0.000099
F114	F	1.192782	0.456191	0.500099
F115	F	1.000336	-0.005397	0.807221
F116	F	1.500336	0.494603	1.307221
H117	H	0.987449	0.010281	0.360821
H118	H	1.487449	0.510281	0.860821
H119	H	0.801004	0.238106	0.360816
H120	H	1.301004	0.738106	0.860816
F121	F	1.000292	-0.005419	0.192996
F122	F	1.500292	0.494581	0.692996
F123	F	1.000319	-0.005401	0.628566
F124	F	1.500319	0.494599	1.128566
H125	H	0.801038	0.238136	0.796389
H126	H	1.301038	0.738136	1.296389
F127	F	0.788174	0.253824	0.628561
F128	F	1.288174	0.753824	1.128561
