data_functionalizedCrystal
_audit_creation_method	'MofGen! by Chris Wilmer'
_symmetry_space_group_name_H-M	'P1'
_symmetry_Int_Tables_number	1
_symmetry_cell_setting	triclinic
loop_
_symmetry_equiv_pos_as_xyz
  x,y,z
_cell_length_a	6.817900
_cell_length_b	15.866433
_cell_length_c	12.200737
_cell_angle_alpha	111.098998
_cell_angle_beta	107.141108
_cell_angle_gamma	102.657169
loop_
_atom_site_label
_atom_site_type_symbol
_atom_site_fract_x
_atom_site_fract_y
_atom_site_fract_z
V1	V	-4.100355	-0.132906	-0.413876
O2	O	-4.053529	0.006156	-0.348249
O3	O	-4.083047	-0.263309	-0.466586
O4	O	-4.069598	-0.130963	-0.569043
O5	O	-4.067071	-0.127106	-0.245083
V6	V	-4.577668	-0.116261	-0.386940
O7	O	-4.375235	-0.169419	-0.472963
O8	O	-4.752984	-0.079747	-0.327854
O9	O	-4.371769	0.014142	-0.334230
O10	O	-4.741890	-0.255323	-0.452567
O11	O	-4.728348	-0.122061	-0.555733
O12	O	-4.385218	-0.118204	-0.231774
C13	C	-3.935040	-0.295095	-0.474388
C14	C	-4.002294	-0.401701	-0.518519
C15	C	-4.152842	-0.565719	-0.691582
C16	C	-4.089642	-0.465544	-0.650101
C17	C	-3.978104	-0.438015	-0.428365
C18	C	-4.041286	-0.538189	-0.469827
C19	C	-4.128654	-0.602034	-0.601436
C20	C	-4.017098	-0.574504	-0.379681
C21	C	-4.080286	-0.674670	-0.421141
C22	C	-4.167660	-0.738520	-0.552745
C23	C	-4.191842	-0.702199	-0.642896
C24	C	-3.929744	-0.510658	-0.248073
C25	C	-3.905556	-0.546973	-0.157927
C26	C	-3.968730	-0.647140	-0.199385
C27	C	-4.056104	-0.710991	-0.330990
C28	C	-3.944548	-0.683461	-0.109235
C29	C	-4.007736	-0.783627	-0.150694
C30	C	-4.119292	-0.811156	-0.372449
C31	C	-3.917884	-0.126273	-0.605080
C32	C	-3.974226	-0.125547	-0.732294
C33	C	-4.019979	-0.124956	-0.835606
C34	C	-4.077393	-0.124211	-0.965212
C35	C	-4.183118	0.045923	-0.326427
C36	C	-4.095104	0.152529	-0.282304
C37	C	-4.200274	-0.122896	-0.195732
C38	C	-4.123169	-0.123618	-0.068514
H39	H	-3.988035	-0.813194	-0.077288
H40	H	-4.262960	-0.754185	-0.750064
H41	H	-3.878305	-0.429098	-0.214321
O42	O	-3.893005	-0.376086	-0.300478
C43	C	-3.603440	-0.317228	-0.090866
C44	C	-3.699600	-0.387420	-0.235664
H45	H	-3.447032	-0.326352	-0.038426
H46	H	-3.729471	-0.333902	-0.050248
H47	H	-3.562555	-0.239407	-0.076745
H48	H	-3.740478	-0.465264	-0.249900
H49	H	-3.573513	-0.370662	-0.276213
H50	H	-3.834423	-0.494978	-0.050770
H51	H	-3.873426	-0.631465	-0.002079
H52	H	-4.223960	-0.617705	-0.798750
O53	O	-4.113507	-0.430388	-0.737806
C54	C	-4.364369	-0.427860	-0.922000
C55	C	-4.337643	-0.467766	-0.822779
H56	H	-4.545578	-0.458049	-0.990710
H57	H	-4.263221	-0.450622	-0.978949
H58	H	-4.304089	-0.345301	-0.869728
H59	H	-4.397946	-0.550326	-0.874948
H60	H	-4.438747	-0.444930	-0.765835
O61	O	-4.204511	-0.873156	-0.500325
C62	C	-4.493951	-0.931952	-0.709959
C63	C	-4.397704	-0.861706	-0.565177
H64	H	-4.650137	-0.922705	-0.762439
H65	H	-4.535132	-1.009802	-0.724177
H66	H	-4.367721	-0.915306	-0.750461
H67	H	-4.523829	-0.878264	-0.524580
H68	H	-4.356470	-0.783877	-0.551047
O69	O	-4.228651	-0.835805	-0.592948
C70	C	-4.113922	-0.967347	-0.584155
C71	C	-4.044545	-0.857159	-0.538550
H72	H	-3.965122	-0.984644	-0.540173
H73	H	-4.180409	-1.006785	-0.693695
H74	H	-4.247660	-0.992179	-0.552287
H75	H	-3.910750	-0.832239	-0.570327
H76	H	-3.978190	-0.817785	-0.429013
