data_functionalizedCrystal
_audit_creation_method	'MofGen! by Chris Wilmer'
_symmetry_space_group_name_H-M	'P1'
_symmetry_Int_Tables_number	1
_symmetry_cell_setting	triclinic
loop_
_symmetry_equiv_pos_as_xyz
  x,y,z
_cell_length_a	21.295420
_cell_length_b	21.295417
_cell_length_c	13.032268
_cell_angle_alpha	97.140648
_cell_angle_beta	97.162377
_cell_angle_gamma	90.028757
loop_
_atom_site_label
_atom_site_type_symbol
_atom_site_fract_x
_atom_site_fract_y
_atom_site_fract_z
Zn1	Zn	0.917099	-0.295812	-0.590815
Zn2	Zn	1.417099	0.204188	-0.090815
Zn3	Zn	0.930388	-0.387723	-0.416060
Zn4	Zn	1.430388	0.112277	0.083940
Zn5	Zn	0.825206	-0.282471	-0.416092
Zn6	Zn	1.325206	0.217529	0.083908
Zn7	Zn	0.811797	-0.401038	-0.590744
Zn8	Zn	1.311797	0.098962	-0.090744
O9	O	0.871122	-0.341761	-0.503428
O10	O	1.371122	0.158239	-0.003428
O11	O	1.006950	-0.308015	-0.567650
O12	O	1.506950	0.191985	-0.067650
O13	O	0.927608	-0.362606	-0.269836
O14	O	1.427608	0.137394	0.230164
O15	O	0.837446	-0.196155	-0.439313
O16	O	1.337446	0.303845	0.060687
O17	O	1.016713	-0.375542	-0.439258
O18	O	1.516713	0.124458	0.060742
O19	O	0.904959	-0.205956	-0.567681
O20	O	1.404959	0.294044	-0.067681
O21	O	0.850331	-0.285277	-0.269860
O22	O	1.350331	0.214723	0.230140
O23	O	0.735339	-0.298189	-0.439243
O24	O	1.235339	0.201811	0.060757
O25	O	0.814592	-0.398236	-0.736981
O26	O	1.314592	0.101764	-0.236981
O27	O	0.725488	-0.385300	-0.567559
O28	O	1.225488	0.114700	-0.067559
O29	O	0.891957	-0.320926	-0.737034
O30	O	1.391957	0.179074	-0.237034
O31	O	0.914606	-0.477576	-0.439188
O32	O	1.414606	0.022424	0.060812
O33	O	0.827478	-0.487358	-0.567528
O34	O	1.327478	0.012642	-0.067528
C35	C	0.707573	-0.341742	-0.503398
C36	C	1.207573	0.158258	-0.003398
C37	C	0.637604	-0.341751	-0.503409
C38	C	1.137604	0.158249	-0.003409
C39	C	0.871044	-0.505308	-0.503370
C40	C	1.371044	-0.005308	-0.003370
C41	C	0.871066	-0.575277	-0.503380
C42	C	1.371066	-0.075277	-0.003380
C43	C	0.133036	-0.387189	-0.570177
C44	C	0.633036	0.112811	-0.070177
C45	C	0.198780	-0.387188	-0.570166
C46	C	0.698780	0.112812	-0.070166
C47	C	0.236761	-0.341778	-0.503460
C48	C	0.736761	0.158222	-0.003460
C49	C	0.208995	-0.296375	-0.436742
C50	C	0.708995	0.203625	0.063258
C51	C	0.143253	-0.296381	-0.436748
C52	C	0.643253	0.203619	0.063252
N53	N	0.340603	-0.286061	-0.495604
N54	N	0.840603	0.213939	0.004396
N55	N	0.403055	-0.286058	-0.495605
N56	N	0.903055	0.213942	0.004395
C57	C	0.434837	-0.341759	-0.503438
C58	C	0.934837	0.158241	-0.003438
N59	N	0.401807	-0.397466	-0.511291
N60	N	0.901807	0.102534	-0.011291
N61	N	0.339350	-0.397469	-0.511295
N62	N	0.839350	0.102531	-0.011295
C63	C	0.308047	-0.341767	-0.503447
C64	C	0.808047	0.158233	-0.003447
C65	C	0.533882	-0.387161	-0.570135
C66	C	1.033882	0.112839	-0.070135
C67	C	0.599628	-0.387161	-0.570117
C68	C	1.099628	0.112839	-0.070117
C69	C	0.609841	-0.296342	-0.436699
C70	C	1.109841	0.203658	0.063301
C71	C	0.544097	-0.296347	-0.436711
C72	C	1.044097	0.203653	0.063289
C73	C	0.506122	-0.341756	-0.503435
C74	C	1.006122	0.158244	-0.003435
C75	C	0.916464	-0.603034	-0.436622
C76	C	1.416464	-0.103034	0.063378
C77	C	0.916491	-0.668779	-0.436646
C78	C	1.416491	-0.168779	0.063354
C79	C	0.871111	-0.706763	-0.503416
C80	C	1.371111	-0.206763	-0.003416
C81	C	0.825709	-0.678998	-0.570187
C82	C	1.325709	-0.178998	-0.070187
C83	C	0.825686	-0.613256	-0.570169
C84	C	1.325686	-0.113256	-0.070169
N85	N	0.815434	-0.810635	-0.511372
N86	N	1.315434	-0.310635	-0.011372
N87	N	0.815458	-0.873087	-0.511383
N88	N	1.315458	-0.373087	-0.011383
C89	C	0.871177	-0.904842	-0.503476
C90	C	1.371177	-0.404842	-0.003476
N91	N	0.926874	-0.871783	-0.495537
N92	N	1.426874	-0.371783	0.004463
N93	N	0.926850	-0.809325	-0.495520
N94	N	1.426850	-0.309325	0.004480
C95	C	0.871130	-0.778050	-0.503443
C96	C	1.371130	-0.278050	-0.003443
C97	C	0.916608	-1.003886	-0.436740
C98	C	1.416608	-0.503886	0.063260
C99	C	0.916637	-1.069632	-0.436771
C100	C	1.416637	-0.569632	0.063229
C101	C	0.825849	-1.079850	-0.570306
C102	C	1.325849	-0.579850	-0.070306
C103	C	0.825826	-1.014106	-0.570281
C104	C	1.325826	-0.514106	-0.070281
C105	C	0.871205	-0.976127	-0.503492
C106	C	1.371205	-0.476127	-0.003492
C107	C	1.035310	-0.341781	-0.503458
C108	C	1.535310	0.158219	-0.003458
C109	C	1.105277	-0.341790	-0.503471
C110	C	1.605277	0.158210	-0.003471
C111	C	0.850297	-0.362554	-0.775983
C112	C	1.350297	0.137446	-0.275983
C113	C	0.841422	-0.371415	-0.892130
C114	C	1.341422	0.128585	-0.392130
C115	C	0.871216	-0.177577	-0.503509
C116	C	1.371216	0.322423	-0.003509
C117	C	0.871256	-0.107612	-0.503543
C118	C	1.371256	0.392388	-0.003543
C119	C	0.875744	-0.337114	-0.943938
C120	C	1.375744	0.162886	-0.443938
C121	C	0.866573	-0.346271	-1.063981
C122	C	1.366573	0.153729	-0.563981
C123	C	0.891903	-0.321004	-0.231933
C124	C	1.391903	0.178996	0.268067
C125	C	0.900900	-0.311966	-0.115787
C126	C	1.400900	0.188034	0.384213
H127	H	0.221386	-0.424158	-0.624489
H128	H	0.721386	0.075842	-0.124489
H129	H	0.640764	-0.259370	-0.382382
H130	H	1.140764	0.240630	0.117618
C131	C	0.560797	-0.206574	-0.304847
C132	C	1.060797	0.293426	0.195153
C133	C	0.513579	-0.246436	-0.363398
C134	C	1.013579	0.253564	0.136602
H135	H	0.541955	-0.175758	-0.259589
H136	H	1.041955	0.324242	0.240411
H137	H	0.589481	-0.230906	-0.264791
H138	H	1.089481	0.269094	0.235209
H139	H	0.582970	-0.186017	-0.350457
H140	H	1.082970	0.313983	0.149543
H141	H	0.491409	-0.266996	-0.317788
H142	H	0.991409	0.233004	0.182212
H143	H	0.484884	-0.222101	-0.403457
H144	H	0.984884	0.277899	0.096543
C145	C	1.006209	-0.599544	-0.304637
C146	C	1.506209	-0.099544	0.195363
C147	C	0.966352	-0.561291	-0.363223
C148	C	1.466352	-0.061291	0.136777
H149	H	1.037011	-0.573771	-0.259332
H150	H	1.537011	-0.073771	0.240668
H151	H	0.981868	-0.622163	-0.264629
H152	H	1.481868	-0.122163	0.235371
H153	H	1.026786	-0.628634	-0.350222
H154	H	1.526786	-0.128634	0.149778
H155	H	0.945771	-0.532204	-0.317639
H156	H	1.445771	-0.032204	0.182361
H157	H	0.990696	-0.538661	-0.403235
H158	H	1.490696	-0.038661	0.096765
C159	C	0.735950	-0.629961	-0.702164
C160	C	1.235950	-0.129961	-0.202164
C161	C	0.775778	-0.582741	-0.643548
C162	C	1.275778	-0.082741	-0.143548
H163	H	0.705136	-0.611120	-0.747460
H164	H	1.205136	-0.111120	-0.247460
H165	H	0.760309	-0.658617	-0.742185
H166	H	1.260309	-0.158617	-0.242185
H167	H	0.715386	-0.652163	-0.656598
H168	H	1.215386	-0.152163	-0.156598
H169	H	0.796345	-0.560541	-0.689114
H170	H	1.296345	-0.060541	-0.189114
H171	H	0.751415	-0.554074	-0.603525
H172	H	1.251415	-0.054074	-0.103525
H173	H	0.937073	-0.275814	-1.071275
H174	H	1.437073	0.224186	-0.571275
C175	C	0.159953	-0.206610	-0.304872
C176	C	0.659953	0.293390	0.195128
C177	C	0.112736	-0.246470	-0.363427
C178	C	0.612736	0.253530	0.136573
H179	H	0.141110	-0.175794	-0.259613
H180	H	0.641110	0.324206	0.240387
H181	H	0.188635	-0.230943	-0.264814
H182	H	0.688635	0.269057	0.235186
H183	H	0.182128	-0.186052	-0.350478
H184	H	0.682128	0.313948	0.149522
H185	H	0.090563	-0.267031	-0.317821
H186	H	0.590563	0.232969	0.182179
H187	H	0.084043	-0.222134	-0.403487
H188	H	0.584043	0.277866	0.096513
H189	H	0.622227	-0.424135	-0.624433
H190	H	1.122227	0.075865	-0.124433
H191	H	0.102121	-0.424167	-0.624505
H192	H	0.602121	0.075833	-0.124505
H193	H	0.502961	-0.424136	-0.624464
H194	H	1.002961	0.075864	-0.124464
C195	C	0.781545	-1.007340	-0.747165
C196	C	1.281545	-0.507340	-0.247165
C197	C	0.775915	-0.983592	-0.643654
C198	C	1.275915	-0.483592	-0.143654
H199	H	0.750727	-0.988505	-0.792464
H200	H	1.250727	-0.488505	-0.292464
H201	H	0.822649	-0.997691	-0.762516
H202	H	1.322649	-0.497691	-0.262516
H203	H	0.775065	-1.051929	-0.756718
H204	H	1.275065	-0.551929	-0.256718
H205	H	0.782399	-0.939003	-0.634099
H206	H	1.282399	-0.439003	-0.134099
H207	H	0.734801	-0.993237	-0.628298
H208	H	1.234801	-0.493237	-0.128298
C209	C	0.808134	-0.480560	-0.925874
C210	C	1.308134	0.019440	-0.425874
C211	C	0.792586	-0.420214	-0.952210
C212	C	1.292586	0.079786	-0.452210
H213	H	0.777981	-0.510686	-0.962959
H214	H	1.277981	-0.010686	-0.462959
H215	H	0.849064	-0.491123	-0.943720
H216	H	1.349064	0.008877	-0.443720
H217	H	0.807891	-0.480799	-0.853082
H218	H	1.307891	0.019201	-0.353082
H219	H	0.792833	-0.419974	-1.025001
H220	H	1.292833	0.080026	-0.525001
H221	H	0.751645	-0.409648	-0.934371
H222	H	1.251645	0.090352	-0.434371
C223	C	1.006351	-1.000387	-0.304751
C224	C	1.506351	-0.500387	0.195249
C225	C	0.966491	-0.962136	-0.363335
C226	C	1.466491	-0.462136	0.136665
H227	H	1.037148	-0.974612	-0.259438
H228	H	1.537148	-0.474612	0.240562
H229	H	0.982011	-1.023014	-0.264750
H230	H	1.482011	-0.523014	0.235250
H231	H	1.026934	-1.029471	-0.350336
H232	H	1.526934	-0.529471	0.149664
H233	H	0.945904	-0.933055	-0.317749
H234	H	1.445904	-0.433055	0.182251
H235	H	0.990835	-0.939499	-0.403338
H236	H	1.490835	-0.439499	0.096662
C237	C	0.893862	-0.243142	-0.821101
C238	C	1.393862	0.256858	-0.321101
C239	C	0.924582	-0.288320	-0.883847
C240	C	1.424582	0.211680	-0.383847
H241	H	0.924016	-0.213022	-0.784001
H242	H	1.424016	0.286978	-0.284001
H243	H	0.863229	-0.222284	-0.863686
H244	H	1.363229	0.277716	-0.363686
H245	H	0.873517	-0.263483	-0.773050
H246	H	1.373517	0.236517	-0.273050
H247	H	0.944923	-0.267980	-0.931904
H248	H	1.444923	0.232020	-0.431904
H249	H	0.955226	-0.309180	-0.841259
H250	H	1.455226	0.190820	-0.341259
H251	H	0.953462	-0.691383	-0.382284
H252	H	1.453462	-0.191383	0.117716
H253	H	0.788760	-0.709929	-0.624554
H254	H	1.288760	-0.209929	-0.124554
C255	C	0.818108	-0.394703	-1.231353
C256	C	1.318108	0.105297	-0.731353
C257	C	0.817738	-0.395075	-1.124063
C258	C	1.317738	0.104925	-0.624063
H259	H	0.787963	-0.424836	-1.268443
H260	H	1.287963	0.075164	-0.768443
H261	H	0.807561	-0.353765	-1.249202
H262	H	1.307561	0.146235	-0.749202
H263	H	0.859048	-0.405267	-1.249178
H264	H	1.359048	0.094733	-0.749178
H265	H	0.776799	-0.384506	-1.106237
H266	H	1.276799	0.115494	-0.606237
H267	H	0.828281	-0.436022	-1.106207
H268	H	1.328281	0.063978	-0.606207
C269	C	0.314307	-0.256036	-0.377507
C270	C	0.814307	0.243964	0.122493
C271	C	0.250741	-0.246457	-0.363421
C272	C	0.750741	0.253543	0.136579
H273	H	0.340077	-0.225215	-0.332242
H274	H	0.840077	0.274785	0.167758
H275	H	0.326238	-0.297134	-0.362085
H276	H	0.826238	0.202866	0.137915
H277	H	0.319716	-0.252243	-0.447748
H278	H	0.819716	0.247757	0.052252
H279	H	0.245330	-0.250254	-0.293182
H280	H	0.745330	0.249746	0.206818
H281	H	0.238806	-0.205348	-0.378836
H282	H	0.738806	0.294652	0.121164
H283	H	0.953609	-1.092231	-0.382410
H284	H	1.453609	-0.592231	0.117590
C285	C	0.785573	-1.185162	-0.629628
C286	C	1.285573	-0.685162	-0.129628
C287	C	0.775966	-1.121595	-0.643706
C288	C	1.275966	-0.621595	-0.143706
H289	H	0.754775	-1.210934	-0.674943
H290	H	1.254775	-0.710934	-0.174943
H291	H	0.826686	-1.197062	-0.644989
H292	H	1.326686	-0.697062	-0.144989
H293	H	0.781761	-1.190602	-0.559405
H294	H	1.281761	-0.690602	-0.059405
H295	H	0.779782	-1.116154	-0.713927
H296	H	1.279782	-0.616154	-0.213927
H297	H	0.734842	-1.109692	-0.628352
H298	H	1.234842	-0.609692	-0.128352
