data_functionalizedCrystal
_audit_creation_method	'MofGen! by Chris Wilmer'
_symmetry_space_group_name_H-M	'P1'
_symmetry_Int_Tables_number	1
_symmetry_cell_setting	triclinic
loop_
_symmetry_equiv_pos_as_xyz
  x,y,z
_cell_length_a	13.596369
_cell_length_b	12.837943
_cell_length_c	12.784890
_cell_angle_alpha	83.967749
_cell_angle_beta	89.999966
_cell_angle_gamma	89.994445
loop_
_atom_site_label
_atom_site_type_symbol
_atom_site_fract_x
_atom_site_fract_y
_atom_site_fract_z
O1	O	-0.081772	1.350775	0.273809
O2	O	0.251561	1.684108	0.607142
O3	O	0.584895	2.017442	0.940475
O4	O	-0.081778	1.050189	0.260282
O5	O	0.251555	1.383522	0.593616
O6	O	0.584889	1.716855	0.926949
O7	O	-0.081770	1.222479	0.114546
O8	O	0.251564	1.555812	0.447879
O9	O	0.584897	1.889146	0.781212
O10	O	-0.081780	1.178485	0.419545
O11	O	0.251553	1.511818	0.752879
O12	O	0.584886	1.845151	1.086212
O13	O	0.081813	1.222457	0.114554
O14	O	0.415147	1.555791	0.447887
O15	O	0.748480	1.889124	0.781220
O16	O	0.081805	1.050167	0.260291
O17	O	0.415138	1.383500	0.593624
O18	O	0.748472	1.716834	0.926957
O19	O	0.081811	1.350753	0.273817
O20	O	0.415144	1.684087	0.607150
O21	O	0.748477	2.017420	0.940483
Zn22	Zn	0.107780	1.200457	0.267055
Zn23	Zn	0.441114	1.533790	0.600388
Zn24	Zn	0.774447	1.867124	0.933722
Zn25	Zn	-0.107747	1.200485	0.267044
Zn26	Zn	0.225586	1.533819	0.600378
Zn27	Zn	0.558919	1.867152	0.933711
O28	O	0.081802	1.178463	0.419554
O29	O	0.415136	1.511796	0.752887
O30	O	0.748469	1.845130	1.086220
C31	C	0.000013	1.011969	0.255717
C32	C	0.333346	1.345303	0.589051
C33	C	0.666679	1.678636	0.922384
C34	C	0.000011	0.898121	0.242089
C35	C	0.333344	1.231454	0.575423
C36	C	0.666677	1.564787	0.908756
C37	C	0.000019	0.642394	0.405921
C38	C	0.333352	0.975727	0.739255
C39	C	0.666686	1.309060	1.072588
C40	C	0.000018	0.535422	0.393122
C41	C	0.333351	0.868755	0.726455
C42	C	0.666684	1.202088	1.059788
C43	C	0.000014	0.577202	0.203691
C44	C	0.333347	0.910536	0.537025
C45	C	0.666681	1.243869	0.870358
C46	C	0.000015	0.684174	0.216491
C47	C	0.333348	1.017508	0.549824
C48	C	0.666682	1.350841	0.883158
C49	C	0.000016	0.716765	0.317609
C50	C	0.333349	1.050099	0.650942
C51	C	0.666683	1.383432	0.984276
C52	C	0.000010	0.823740	0.330408
C53	C	0.333344	1.157073	0.663741
C54	C	0.666677	1.490406	0.997075
C55	C	0.000014	0.865518	0.140979
C56	C	0.333347	1.198852	0.474312
C57	C	0.666680	1.532185	0.807645
C58	C	0.000012	0.758546	0.128179
C59	C	0.333346	1.091880	0.461512
C60	C	0.666679	1.425213	0.794846
N61	N	0.254872	1.200445	0.267062
N62	N	0.588205	1.533778	0.600396
N63	N	0.921539	1.867112	0.933729
C64	C	0.343870	1.200449	0.267066
C65	C	0.677203	1.533783	0.600399
C66	C	1.010537	1.867116	0.933733
C67	C	0.455521	1.200459	0.267061
C68	C	0.788855	1.533792	0.600394
C69	C	1.122188	1.867126	0.933727
C70	C	0.544512	1.200473	0.267051
C71	C	0.877845	1.533806	0.600384
C72	C	1.211178	1.867140	0.933717
C73	C	0.656170	1.200484	0.267046
C74	C	0.989504	1.533818	0.600380
C75	C	1.322837	1.867151	0.933713
N76	N	0.745161	1.200498	0.267036
N77	N	1.078494	1.533831	0.600370
N78	N	1.411828	1.867165	0.933703
C79	C	0.000021	1.225330	0.075240
C80	C	0.333354	1.558663	0.408573
C81	C	0.666688	1.891996	0.741907
C82	C	0.000019	1.233843	-0.041892
C83	C	0.333352	1.567177	0.291442
C84	C	0.666686	1.900510	0.624775
C85	C	0.000018	1.388973	0.278382
C86	C	0.333351	1.722306	0.611715
C87	C	0.666685	2.055640	0.945049
C88	C	0.000014	1.502821	0.292010
C89	C	0.333347	1.836155	0.625343
C90	C	0.666680	2.169488	0.958676
C91	C	0.000020	1.340544	-0.210061
C92	C	0.333353	1.673877	0.123272
C93	C	0.666686	2.007211	0.456606
C94	C	0.000021	1.332551	-0.100006
C95	C	0.333355	1.665885	0.233328
C96	C	0.666688	1.999218	0.566661
C97	C	0.000018	1.143122	-0.093841
C98	C	0.333351	1.476455	0.239493
C99	C	0.666684	1.809788	0.572826
C100	C	0.000016	1.151114	-0.203896
C101	C	0.333349	1.484448	0.129437
C102	C	0.666683	1.817781	0.462771
C103	C	0.000015	1.249829	-0.262003
C104	C	0.333349	1.583162	0.071331
C105	C	0.666682	1.916496	0.404664
C106	C	0.000007	1.257821	-0.372060
C107	C	0.333340	1.591154	-0.038727
C108	C	0.666673	1.924487	0.294607
C109	C	0.000010	1.068392	-0.365893
C110	C	0.333343	1.401725	-0.032560
C111	C	0.666677	1.735058	0.300774
C112	C	0.000012	1.060399	-0.255838
C113	C	0.333345	1.393732	0.077496
C114	C	0.666678	1.727066	0.410829
C115	C	0.000010	1.175612	0.458859
C116	C	0.333343	1.508946	0.792193
C117	C	0.666676	1.842279	1.125526
C118	C	0.000005	1.167099	0.575991
C119	C	0.333339	1.500432	0.909324
C120	C	0.666672	1.833765	1.242658
H121	H	0.000018	0.668929	0.488255
H122	H	0.333352	1.002263	0.821589
H123	H	0.666685	1.335596	1.154922
H124	H	0.000026	1.406421	-0.057719
H125	H	0.333360	1.739754	0.275614
H126	H	0.666693	2.073088	0.608947
H127	H	0.000025	1.062753	-0.046512
H128	H	0.333358	1.396087	0.286822
H129	H	0.666691	1.729420	0.620155
H130	H	0.000016	0.980029	-0.208513
H131	H	0.333349	1.313362	0.124821
H132	H	0.666682	1.646696	0.458154
H133	H	0.000022	0.474870	0.465035
H134	H	0.333356	0.808203	0.798368
H135	H	0.666689	1.141537	1.131701
Br136	Br	0.000006	0.867971	0.467637
Br137	Br	0.333339	1.201304	0.800970
Br138	Br	0.666672	1.534637	1.134304
Br139	Br	-0.000001	0.945270	-0.436390
Br140	Br	0.333333	1.278604	-0.103057
Br141	Br	0.666666	1.611937	0.230276
H142	H	0.000094	0.550647	0.121365
H143	H	0.333427	0.883980	0.454699
H144	H	0.666761	1.217314	0.788032
H145	H	0.000023	0.731995	0.045851
H146	H	0.333356	1.065328	0.379184
H147	H	0.666690	1.398662	0.712518
H148	H	0.000005	0.926085	0.069068
H149	H	0.333338	1.259418	0.402402
H150	H	0.666672	1.592751	0.735735
Br151	Br	-0.000001	1.391788	-0.450919
Br152	Br	0.333332	1.725121	-0.117585
Br153	Br	0.666665	2.058455	0.215748
Br154	Br	-0.000003	1.474509	-0.288925
Br155	Br	0.333331	1.807842	0.044408
Br156	Br	0.666664	2.141175	0.377742
