data_functionalizedCrystal
_audit_creation_method	'MofGen! by Chris Wilmer'
_symmetry_space_group_name_H-M	'P1'
_symmetry_Int_Tables_number	1
_symmetry_cell_setting	triclinic
loop_
_symmetry_equiv_pos_as_xyz
  x,y,z
_cell_length_a	13.897448
_cell_length_b	17.077404
_cell_length_c	17.077396
_cell_angle_alpha	90.014457
_cell_angle_beta	90.027368
_cell_angle_gamma	90.023133
loop_
_atom_site_label
_atom_site_type_symbol
_atom_site_fract_x
_atom_site_fract_y
_atom_site_fract_z
Zn1	Zn	-0.383875	1.200083	0.443743
Zn2	Zn	-0.050542	1.533416	0.777077
Zn3	Zn	0.282792	1.866750	1.110410
Zn4	Zn	-0.545188	1.200002	0.312480
Zn5	Zn	-0.211854	1.533335	0.645813
Zn6	Zn	0.121479	1.866669	0.979146
Zn7	Zn	-0.383923	1.068815	0.312503
Zn8	Zn	-0.050590	1.402148	0.645836
Zn9	Zn	0.282743	1.735481	0.979169
Zn10	Zn	-0.545145	1.068795	0.443715
Zn11	Zn	-0.211812	1.402128	0.777048
Zn12	Zn	0.121522	1.735461	1.110382
O13	O	-0.464533	1.134424	0.378110
O14	O	-0.131199	1.467757	0.711443
O15	O	0.202134	1.801090	1.044777
O16	O	-0.405271	1.309919	0.426333
O17	O	-0.071938	1.643252	0.759666
O18	O	0.261396	1.976586	1.093000
O19	O	-0.523834	1.182574	0.202636
O20	O	-0.190500	1.515908	0.535969
O21	O	0.142833	1.849241	0.869302
O22	O	-0.248935	1.086270	0.329933
O23	O	0.084398	1.419603	0.663267
O24	O	0.417731	1.752937	0.996600
O25	O	-0.523787	1.309860	0.329894
O26	O	-0.190453	1.643193	0.663228
O27	O	0.142880	1.976526	0.996561
O28	O	-0.248900	1.182712	0.426355
O29	O	0.084434	1.516046	0.759689
O30	O	0.417767	1.849379	1.093022
O31	O	-0.405354	1.086192	0.202653
O32	O	-0.072020	1.419525	0.535986
O33	O	0.261313	1.752858	0.869319
O34	O	-0.405312	0.958965	0.329906
O35	O	-0.071979	1.292299	0.663239
O36	O	0.261354	1.625632	0.996573
O37	O	-0.523714	1.086236	0.553566
O38	O	-0.190381	1.419569	0.886899
O39	O	0.142953	1.752902	1.220232
O40	O	-0.523761	0.958950	0.426307
O41	O	-0.190428	1.292284	0.759640
O42	O	0.142906	1.625617	1.092974
O43	O	-0.405230	1.182693	0.553586
O44	O	-0.071896	1.516026	0.886920
O45	O	0.261437	1.849359	1.220253
O46	O	-0.680164	1.182555	0.329867
O47	O	-0.346830	1.515888	0.663200
O48	O	-0.013497	1.849221	0.996534
O49	O	-0.680132	1.086157	0.426285
O50	O	-0.346799	1.419491	0.759618
O51	O	-0.013466	1.752824	1.092951
C52	C	-0.464538	0.930476	0.378106
C53	C	-0.131205	1.263809	0.711440
C54	C	0.202129	1.597142	1.044773
C55	C	-0.464564	0.843226	0.378123
C56	C	-0.131230	1.176559	0.711457
C57	C	0.202103	1.509893	1.044790
C58	C	-0.715147	1.134366	0.378087
C59	C	-0.381814	1.467700	0.711421
C60	C	-0.048480	1.801033	1.044754
C61	C	-0.822361	1.134414	0.378104
C62	C	-0.489028	1.467747	0.711437
C63	C	-0.155694	1.801080	1.044771
C64	C	-0.464462	1.134471	0.582854
C65	C	-0.131128	1.467804	0.916188
C66	C	0.202205	1.801138	1.249521
C67	C	-0.464431	1.134491	0.670104
C68	C	-0.131098	1.467825	1.003438
C69	C	0.202235	1.801158	1.336771
C70	C	-1.018656	1.134496	0.378153
C71	C	-0.685323	1.467829	0.711487
C72	C	-0.351989	1.801163	1.044820
C73	C	-0.909424	1.134448	0.378128
C74	C	-0.576090	1.467781	0.711462
C75	C	-0.242757	1.801115	1.044795
C76	C	-0.212940	1.134502	0.378150
C77	C	0.120394	1.467836	0.711483
C78	C	0.453727	1.801169	1.044817
C79	C	-0.105726	1.134536	0.378167
C80	C	0.227608	1.467869	0.711500
C81	C	0.560941	1.801203	1.044834
C82	C	-0.464528	1.339168	0.378114
C83	C	-0.131195	1.672501	0.711448
C84	C	0.202139	2.005834	1.044781
C85	C	-0.464526	1.426418	0.378116
C86	C	-0.131193	1.759751	0.711449
C87	C	0.202141	2.093084	1.044783
C88	C	-0.402824	1.467440	0.428326
C89	C	-0.069491	1.800773	0.761659
C90	C	0.263843	2.134107	1.094992
C91	C	-0.402835	1.549420	0.428331
C92	C	-0.069501	1.882754	0.761664
C93	C	0.263832	2.216087	1.094998
C94	C	-0.464543	1.590377	0.378122
C95	C	-0.131210	1.923710	0.711456
C96	C	0.202123	2.257044	1.044789
C97	C	-0.526252	1.549349	0.327911
C98	C	-0.192919	1.882682	0.661244
C99	C	0.140414	2.216016	0.994577
C100	C	-0.526246	1.467370	0.327910
C101	C	-0.192912	1.800703	0.661243
C102	C	0.140421	2.134037	0.994577
C103	C	-0.526260	1.720219	0.327914
C104	C	-0.192927	2.053552	0.661248
C105	C	0.140407	2.386886	0.994581
C106	C	-0.526266	1.802204	0.327914
C107	C	-0.192932	2.135537	0.661247
C108	C	0.140401	2.468870	0.994581
C109	C	-0.402849	1.802269	0.428336
C110	C	-0.069516	2.135603	0.761669
C111	C	0.263818	2.468936	1.095002
C112	C	-0.402842	1.720290	0.428335
C113	C	-0.069509	2.053624	0.761668
C114	C	0.263824	2.386957	1.095001
C115	C	-0.464550	1.679268	0.378122
C116	C	-0.131217	2.012601	0.711455
C117	C	0.202116	2.345935	1.044789
C118	C	-0.464534	1.134421	0.174162
C119	C	-0.131201	1.467755	0.507496
C120	C	0.202133	1.801088	0.840829
C121	C	-0.464292	1.134553	0.086913
C122	C	-0.130959	1.467887	0.420246
C123	C	0.202374	1.801220	0.753580
C124	C	-0.402731	1.184718	0.711107
C125	C	-0.069398	1.518052	1.044440
C126	C	0.263935	1.851385	1.377773
C127	C	-0.402699	1.184728	0.793087
C128	C	-0.069366	1.518061	1.126420
C129	C	0.263967	1.851394	1.459754
C130	C	-0.464373	1.134514	0.834064
C131	C	-0.131039	1.467847	1.167397
C132	C	0.202294	1.801180	1.500731
C133	C	-0.526075	1.084281	0.793056
C134	C	-0.192742	1.417614	1.126389
C135	C	0.140591	1.750948	1.459723
C136	C	-0.526102	1.084268	0.711077
C137	C	-0.192769	1.417602	1.044410
C138	C	0.140565	1.750935	1.377744
C139	C	-0.526017	1.084313	0.963926
C140	C	-0.192684	1.417646	1.297259
C141	C	0.140649	1.750979	1.630593
C142	C	-0.525992	1.084326	1.045911
C143	C	-0.192659	1.417660	1.379244
C144	C	0.140674	1.750993	1.712577
C145	C	-0.402615	1.184772	1.045936
C146	C	-0.069281	1.518105	1.379270
C147	C	0.264052	1.851439	1.712603
C148	C	-0.402641	1.184759	0.963957
C149	C	-0.069308	1.518093	1.297291
C150	C	0.264025	1.851426	1.630624
C151	C	-0.464345	1.134528	0.922955
C152	C	-0.131012	1.467861	1.256288
C153	C	0.202321	1.801194	1.589622
H154	H	-0.352567	1.434099	0.469207
H155	H	-0.019234	1.767432	0.802540
H156	H	0.314099	2.100766	1.135873
H157	H	-0.576501	1.582702	0.287033
H158	H	-0.243167	1.916036	0.620366
H159	H	0.090166	2.249369	0.953700
H160	H	-0.576492	1.433971	0.287026
H161	H	-0.243159	1.767304	0.620359
H162	H	0.090175	2.100637	0.953692
F163	F	-0.591769	1.030808	0.667440
F164	F	-0.258436	1.364141	1.000773
F165	F	0.074898	1.697475	1.334106
H166	H	-0.352513	1.225611	0.677749
H167	H	-0.019179	1.558944	1.011083
H168	H	0.314154	1.892278	1.344416
H169	H	-0.576517	1.835548	0.287032
H170	H	-0.243184	2.168882	0.620365
H171	H	0.090149	2.502215	0.953699
F172	F	-0.591947	1.676562	0.274480
F173	F	-0.258614	2.009895	0.607814
F174	F	0.074719	2.343228	0.941147
H175	H	-0.576248	1.043396	0.930544
H176	H	-0.242915	1.376730	1.263878
H177	H	0.090418	1.710063	1.597211
H178	H	-0.352590	1.686946	0.469216
H179	H	-0.019256	2.020279	0.802549
H180	H	0.314077	2.353613	1.135882
F181	F	-0.337167	1.593076	0.481774
F182	F	-0.003834	1.926409	0.815107
F183	F	0.329500	2.259743	1.148441
H184	H	-0.352603	1.835674	0.469220
H185	H	-0.019269	2.169007	0.802553
H186	H	0.314064	2.502341	1.135886
H187	H	-0.576210	1.043436	1.079272
H188	H	-0.242877	1.376769	1.412605
H189	H	0.090456	1.710102	1.745938
H190	H	-0.352371	1.225671	1.079324
H191	H	-0.019038	1.559005	1.412658
H192	H	0.314295	1.892338	1.745991
F193	F	-0.337007	1.238207	0.920348
F194	F	-0.003674	1.571541	1.253682
F195	F	0.329659	1.904874	1.587015
F196	F	-0.591709	1.030836	0.836669
F197	F	-0.258376	1.364169	1.170002
F198	F	0.074957	1.697503	1.503335
F199	F	-0.337063	1.238213	0.836721
F200	F	-0.003729	1.571547	1.170055
F201	F	0.329604	1.904880	1.503388
