data_functionalizedCrystal
_audit_creation_method	'MofGen! by Chris Wilmer'
_symmetry_space_group_name_H-M	'P1'
_symmetry_Int_Tables_number	1
_symmetry_cell_setting	triclinic
loop_
_symmetry_equiv_pos_as_xyz
  x,y,z
_cell_length_a	9.065218
_cell_length_b	14.853559
_cell_length_c	8.140239
_cell_angle_alpha	89.998672
_cell_angle_beta	89.997198
_cell_angle_gamma	84.323670
loop_
_atom_site_label
_atom_site_type_symbol
_atom_site_fract_x
_atom_site_fract_y
_atom_site_fract_z
O1	O	1.957771	0.132191	-0.136609
O2	O	2.457771	0.632191	0.363391
O3	O	1.528271	0.143034	-0.136610
O4	O	2.028271	0.643034	0.363390
O5	O	1.754500	0.006468	-0.136608
O6	O	2.254500	0.506468	0.363392
O7	O	1.731542	0.268758	-0.136611
O8	O	2.231542	0.768758	0.363389
O9	O	1.754488	0.006466	0.136619
O10	O	2.254488	0.506466	0.636619
O11	O	1.528259	0.143033	0.136617
O12	O	2.028259	0.643033	0.636617
O13	O	1.957759	0.132190	0.136618
O14	O	2.457759	0.632190	0.636618
Zn15	Zn	1.743007	0.137611	0.179998
Zn16	Zn	2.243007	0.637611	0.679998
Zn17	Zn	1.743023	0.137613	-0.179990
Zn18	Zn	2.243023	0.637613	0.320010
O19	O	1.731530	0.268757	0.136616
O20	O	2.231530	0.768757	0.636616
C21	C	1.473299	0.141992	0.000003
C22	C	1.973299	0.641992	0.500003
C23	C	1.309518	0.138876	0.000002
C24	C	1.809518	0.638876	0.500002
C25	C	1.753456	-0.027130	0.000003
C26	C	2.253456	0.472870	0.500003
C27	C	1.750346	-0.127237	-0.000006
C28	C	2.250346	0.372763	0.499994
C29	C	1.737156	-0.550509	-0.148943
C30	C	2.237156	-0.050509	0.351057
C31	C	1.737143	-0.550505	0.148940
C32	C	2.237143	-0.050505	0.648940
C33	C	1.740077	-0.456450	0.148941
C34	C	2.240077	0.043550	0.648941
C35	C	1.741550	-0.409420	-0.000002
C36	C	2.241550	0.090580	0.499998
C37	C	1.740087	-0.456445	-0.148946
C38	C	2.240087	0.043555	0.351054
C39	C	1.741525	-0.409417	0.297883
C40	C	2.241525	0.090583	0.797883
C41	C	1.744459	-0.315356	0.297890
C42	C	2.244459	0.184644	0.797890
C43	C	1.745941	-0.268325	0.148946
C44	C	2.245941	0.231675	0.648946
C45	C	1.744480	-0.315356	-0.000005
C46	C	2.244480	0.184644	0.499995
C47	C	1.745952	-0.268326	-0.148948
C48	C	2.245952	0.231674	0.351052
C49	C	1.744502	-0.315355	-0.297900
C50	C	2.244502	0.184645	0.202100
C51	C	1.741570	-0.409413	-0.297891
C52	C	2.241570	0.090587	0.202109
C53	C	1.748873	-0.174267	0.148937
C54	C	2.248873	0.325733	0.648937
C55	C	1.748883	-0.174262	-0.148951
C56	C	2.248883	0.325738	0.351049
C57	C	2.012731	0.133233	0.000002
C58	C	2.512731	0.633233	0.500002
C59	C	2.176512	0.136349	-0.000008
C60	C	2.676512	0.636349	0.499992
C61	C	1.732574	0.302354	0.000002
C62	C	2.232574	0.802354	0.500002
C63	C	1.735684	0.402461	0.000000
C64	C	2.235684	0.902461	0.500000
N65	N	1.743006	0.137609	0.425681
N66	N	2.243006	0.637609	0.925681
N67	N	1.743035	0.137608	-0.425673
N68	N	2.243035	0.637608	0.074327
H69	H	1.750089	-0.135977	-0.270240
H70	H	2.250089	0.364023	0.229760
H71	H	1.740319	-0.447716	0.419144
H72	H	2.240319	0.052284	0.919144
H73	H	1.745645	-0.277073	0.419176
H74	H	2.245645	0.222927	0.919176
Br75	Br	1.750834	-0.110444	0.351068
Br76	Br	2.250834	0.389556	0.851068
H77	H	1.735934	-0.588802	0.270202
H78	H	2.235934	-0.088802	0.770202
H79	H	1.745690	-0.277050	-0.419169
H80	H	2.245690	0.222950	0.080831
H81	H	1.735981	-0.588805	-0.270216
H82	H	2.235981	-0.088805	0.229784
H83	H	1.740387	-0.447713	-0.419159
H84	H	2.240387	0.052287	0.080841
