data_functionalizedCrystal
_audit_creation_method	'MofGen! by Chris Wilmer'
_symmetry_space_group_name_H-M	'P1'
_symmetry_Int_Tables_number	1
_symmetry_cell_setting	triclinic
loop_
_symmetry_equiv_pos_as_xyz
  x,y,z
_cell_length_a	11.792241
_cell_length_b	11.792241
_cell_length_c	10.868271
_cell_angle_alpha	90.005737
_cell_angle_beta	90.004182
_cell_angle_gamma	95.806584
loop_
_atom_site_label
_atom_site_type_symbol
_atom_site_fract_x
_atom_site_fract_y
_atom_site_fract_z
O1	O	-1.506902	0.155570	0.102185
O2	O	-1.173569	0.488903	0.435518
O3	O	-0.840236	0.822237	0.768852
O4	O	-1.176561	0.171603	0.102218
O5	O	-0.843228	0.504936	0.435551
O6	O	-0.509895	0.838269	0.768884
O7	O	-1.349748	-0.001584	0.102192
O8	O	-1.016415	0.331749	0.435525
O9	O	-0.683081	0.665082	0.768858
O10	O	-1.333715	0.328757	0.102211
O11	O	-1.000382	0.662090	0.435544
O12	O	-0.667049	0.995424	0.768877
O13	O	-1.349746	-0.001594	-0.102453
O14	O	-1.016413	0.331740	0.230880
O15	O	-0.683079	0.665073	0.564214
O16	O	-1.176559	0.171593	-0.102427
O17	O	-0.843226	0.504927	0.230906
O18	O	-0.509892	0.838260	0.564240
O19	O	-1.506900	0.155560	-0.102460
O20	O	-1.173567	0.488894	0.230874
O21	O	-0.840234	0.822227	0.564207
Zn22	Zn	-1.341729	0.163575	-0.134935
Zn23	Zn	-1.008396	0.496909	0.198398
Zn24	Zn	-0.675063	0.830242	0.531731
Zn25	Zn	-1.341732	0.163588	0.134693
Zn26	Zn	-1.008399	0.496921	0.468026
Zn27	Zn	-0.675065	0.830255	0.801360
O28	O	-1.333713	0.328747	-0.102434
O29	O	-1.000380	0.662081	0.230899
O30	O	-0.667047	0.995414	0.564233
C31	C	-1.134269	0.170591	-0.000101
C32	C	-0.800936	0.503924	0.333233
C33	C	-0.467603	0.837258	0.666566
C34	C	-1.008255	0.167576	-0.000088
C35	C	-0.674922	0.500910	0.333245
C36	C	-0.341589	0.834243	0.666578
C37	C	-1.348740	-0.043880	-0.000130
C38	C	-1.015407	0.289453	0.333203
C39	C	-0.682073	0.622787	0.666537
C40	C	-1.345726	-0.169894	-0.000129
C41	C	-1.012392	0.163440	0.333205
C42	C	-0.679059	0.496773	0.666538
C43	C	-0.777543	0.162034	-0.000121
C44	C	-0.444210	0.495367	0.333212
C45	C	-0.110877	0.828700	0.666546
C46	C	-0.905928	0.165113	-0.000103
C47	C	-0.572595	0.498447	0.333230
C48	C	-0.239262	0.831780	0.666564
C49	C	-1.340183	-0.400606	-0.000107
C50	C	-1.006849	-0.067272	0.333226
C51	C	-0.673516	0.266061	0.666559
C52	C	-1.343262	-0.272221	-0.000119
C53	C	-1.009929	0.061113	0.333214
C54	C	-0.676596	0.394446	0.666548
C55	C	-0.549192	0.156572	-0.000136
C56	C	-0.215859	0.489905	0.333197
C57	C	0.117475	0.823239	0.666531
C58	C	-0.675206	0.159587	-0.000131
C59	C	-0.341873	0.492920	0.333202
C60	C	-0.008539	0.826253	0.666536
C61	C	-1.334721	0.371043	-0.000109
C62	C	-1.001388	0.704376	0.333224
C63	C	-0.668055	1.037710	0.666557
C64	C	-1.337736	0.497057	-0.000103
C65	C	-1.004402	0.830390	0.333230
C66	C	-0.671069	1.163723	0.666564
N67	N	-1.341735	0.163588	0.318707
N68	N	-1.008401	0.496921	0.652040
N69	N	-0.675068	0.830255	0.985374
N70	N	-1.341736	0.163566	-0.318949
N71	N	-1.008402	0.496899	0.014384
N72	N	-0.675069	0.830233	0.347717
C73	C	-1.341731	0.163581	0.569713
C74	C	-1.008398	0.496914	0.903046
C75	C	-0.675065	0.830248	1.236380
C76	C	-1.341730	0.163589	0.430036
C77	C	-1.008396	0.496922	0.763369
C78	C	-0.675063	0.830255	1.096702
