data_functionalizedCrystal
_audit_creation_method	'MofGen! by Chris Wilmer'
_symmetry_space_group_name_H-M	'P1'
_symmetry_Int_Tables_number	1
_symmetry_cell_setting	triclinic
loop_
_symmetry_equiv_pos_as_xyz
  x,y,z
_cell_length_a	16.120530
_cell_length_b	18.050589
_cell_length_c	16.120297
_cell_angle_alpha	87.124343
_cell_angle_beta	89.871860
_cell_angle_gamma	87.123928
loop_
_atom_site_label
_atom_site_type_symbol
_atom_site_fract_x
_atom_site_fract_y
_atom_site_fract_z
Zn1	Zn	1.247404	-0.376248	0.534587
Zn2	Zn	1.254344	-0.494473	0.395537
Zn3	Zn	1.115396	-0.363698	0.388504
Zn4	Zn	1.108300	-0.493789	0.527506
O5	O	1.181361	-0.432052	0.461533
O6	O	1.364691	-0.397469	0.522048
O7	O	1.241786	-0.472159	0.278238
O8	O	1.132972	-0.261442	0.407903
O9	O	1.369789	-0.484328	0.419888
O10	O	1.229959	-0.270662	0.515230
O11	O	1.139701	-0.376080	0.273071
O12	O	0.998089	-0.375417	0.401037
O13	O	1.120879	-0.483162	0.644811
O14	O	0.992876	-0.470994	0.503160
O15	O	1.223078	-0.396806	0.650014
O16	O	1.234906	-0.598303	0.413022
O17	O	1.127608	-0.597800	0.509979
C18	C	0.965310	-0.421770	0.450568
C19	C	0.872881	-0.417390	0.445896
C20	C	1.181261	-0.624999	0.461515
C21	C	1.181293	-0.707547	0.461538
C22	C	0.703653	-0.409376	0.437374
C23	C	0.659907	-0.454785	0.485754
C24	C	0.565742	-0.450326	0.481012
C25	C	0.797826	-0.413834	0.442115
C26	C	1.123001	-0.906753	0.514247
C27	C	1.106578	-0.951975	0.437341
C28	C	1.181375	-0.858682	0.461553
C29	C	1.197838	-0.960544	0.538470
C30	C	1.181451	-1.004671	0.461574
C31	C	1.164914	-0.902813	0.384605
C32	C	1.256207	-0.911381	0.485787
C33	C	1.239815	-0.956580	0.408830
C34	C	1.181328	-0.774581	0.461542
C35	C	1.181498	-1.088770	0.461577
C36	C	1.398256	-0.442375	0.472543
C37	C	1.490683	-0.446774	0.477234
C38	C	1.170413	-0.441308	0.678428
C39	C	1.165748	-0.445252	0.770856
C40	C	1.181483	-0.238354	0.461572
C41	C	1.181535	-0.155811	0.461588
C42	C	1.192314	-0.422781	0.245485
C43	C	1.197141	-0.418635	0.153066
C44	C	1.157199	-0.452435	0.940081
C45	C	1.205687	-0.411454	0.983846
C46	C	1.200930	-0.415451	1.078009
C47	C	1.161955	-0.448439	0.845910
H48	H	0.693175	-0.497008	0.530735
C49	C	0.611472	-0.389604	0.320710
C50	C	0.658749	-0.352382	0.376649
H51	H	0.583748	-0.354419	0.283219
H52	H	0.571658	-0.417502	0.350448
H53	H	0.646953	-0.422126	0.290517
H54	H	0.623267	-0.319863	0.406847
H55	H	0.698568	-0.324472	0.346909
C56	C	1.073802	-0.822595	0.298729
C57	C	1.146050	-0.868893	0.296774
H58	H	1.062154	-0.801658	0.244506
H59	H	1.081636	-0.783964	0.335399
H60	H	1.028617	-0.850770	0.317596
H61	H	1.191237	-0.840717	0.277913
H62	H	1.138222	-0.907530	0.260091
H63	H	1.250770	-0.373367	0.950596
H64	H	1.073570	-0.884877	0.558738
H65	H	1.043330	-0.969970	0.416862
C66	C	1.394073	-0.949997	0.531327
C67	C	1.341565	-0.887085	0.513481
H68	H	1.446767	-0.934995	0.548437
H69	H	1.400544	-0.977822	0.483059
H70	H	1.370524	-0.979832	0.574600
H71	H	1.365112	-0.857252	0.470204
H72	H	1.335097	-0.859248	0.561755
C73	C	1.217178	-1.072132	0.625194
C74	C	1.216599	-0.994589	0.626268
H75	H	1.228750	-1.093146	0.679400
H76	H	1.258727	-1.089199	0.587844
H77	H	1.164441	-1.086639	0.607623
H78	H	1.269338	-0.980082	0.643833
H79	H	1.175048	-0.977515	0.663631
C80	C	1.289100	-0.956489	0.268163
C81	C	1.306502	-0.985928	0.348618
H82	H	1.330265	-0.974613	0.230990
H83	H	1.289130	-0.903844	0.267500
H84	H	1.236106	-0.971058	0.251432
H85	H	1.359494	-0.971355	0.365351
H86	H	1.306481	-1.038584	0.349283
H87	H	1.112120	-0.490519	0.973329
