data_functionalizedCrystal
_audit_creation_method	'MofGen! by Chris Wilmer'
_symmetry_space_group_name_H-M	'P1'
_symmetry_Int_Tables_number	1
_symmetry_cell_setting	triclinic
loop_
_symmetry_equiv_pos_as_xyz
  x,y,z
_cell_length_a	11.792241
_cell_length_b	14.519709
_cell_length_c	10.868271
_cell_angle_alpha	90.002362
_cell_angle_beta	90.000490
_cell_angle_gamma	96.063220
loop_
_atom_site_label
_atom_site_type_symbol
_atom_site_fract_x
_atom_site_fract_y
_atom_site_fract_z
O1	O	-1.506208	0.126399	0.102187
O2	O	-1.175795	0.139427	0.102220
O3	O	-1.349762	-0.001293	0.102192
O4	O	-1.332241	0.267119	0.102216
O5	O	-1.349746	-0.001289	-0.102453
O6	O	-1.175779	0.139431	-0.102424
O7	O	-1.506193	0.126404	-0.102457
Zn8	Zn	-1.340983	0.132918	-0.134933
Zn9	Zn	-1.341004	0.132912	0.134695
O10	O	-1.332226	0.267124	-0.102429
C11	C	-1.133501	0.138611	-0.000098
C12	C	-1.007501	0.136161	-0.000086
C13	C	-0.776813	0.131657	-0.000119
C14	C	-0.905185	0.134160	-0.000101
C15	C	-1.348938	-0.035654	-0.000131
C16	C	-1.346491	-0.138044	-0.000131
C17	C	-1.337483	-0.512973	-0.000098
C18	C	-1.339984	-0.408656	-0.000108
C19	C	-1.341987	-0.325512	-0.000116
C20	C	-1.344489	-0.221188	-0.000123
C21	C	-0.548487	0.127220	-0.000133
C22	C	-0.674487	0.129669	-0.000128
C23	C	-1.333050	0.301484	-0.000104
C24	C	-1.335497	0.403875	-0.000095
N25	N	-1.340978	0.132922	-0.318947
C26	C	-1.340986	0.132922	-0.430284
C27	C	-1.341001	0.132914	-0.569962
N28	N	-1.341019	0.132902	0.318710
