data_functionalizedCrystal
_audit_creation_method	'MofGen! by Chris Wilmer'
_symmetry_space_group_name_H-M	'P1'
_symmetry_Int_Tables_number	1
_symmetry_cell_setting	triclinic
loop_
_symmetry_equiv_pos_as_xyz
  x,y,z
_cell_length_a	14.519731
_cell_length_b	14.519709
_cell_length_c	18.366186
_cell_angle_alpha	89.992822
_cell_angle_beta	89.990864
_cell_angle_gamma	83.684499
loop_
_atom_site_label
_atom_site_type_symbol
_atom_site_fract_x
_atom_site_fract_y
_atom_site_fract_z
O1	O	1.223861	0.120986	-0.060553
O2	O	0.955387	0.135202	-0.060554
O3	O	1.096742	-0.006144	-0.060547
O4	O	1.082506	0.262332	-0.060560
O5	O	1.096718	-0.006151	0.060553
O6	O	0.955363	0.135195	0.060545
O7	O	1.223837	0.120979	0.060547
Zn8	Zn	1.089596	0.128086	0.079773
Zn9	Zn	1.089628	0.128095	-0.079781
O10	O	1.082482	0.262325	0.060539
C11	C	0.921016	0.134532	-0.000005
C12	C	0.818635	0.132536	-0.000005
C13	C	0.735491	0.130915	-0.000008
C14	C	0.631182	0.128888	-0.000008
C15	C	0.548043	0.127280	-0.000008
C16	C	0.443728	0.125253	-0.000009
C17	C	1.096067	-0.040507	0.000003
C18	C	1.094079	-0.142889	0.000003
C19	C	1.086759	-0.517785	-0.000016
C20	C	1.088792	-0.413477	-0.000010
C21	C	1.090419	-0.330340	-0.000005
C22	C	1.092452	-0.226025	-0.000001
C23	C	1.258209	0.121649	-0.000005
C24	C	1.360589	0.123645	-0.000009
C25	C	1.083157	0.296688	-0.000012
C26	C	1.085146	0.399070	-0.000017
N27	N	1.089581	0.128079	0.188664
N28	N	1.089650	0.128095	-0.188672
C29	C	1.152194	0.065522	0.226768
C30	C	1.152200	0.065518	0.302996
C31	C	1.089602	0.128087	0.341117
C32	C	1.026977	0.190649	0.303004
C33	C	1.026967	0.190645	0.226778
C34	C	1.077658	0.212057	0.461873
C35	C	1.077674	0.212062	0.538098
C36	C	1.089628	0.128098	0.576224
C37	C	1.101585	0.044126	0.538117
C38	C	1.101574	0.044122	0.461890
C39	C	1.089606	0.128098	0.423772
C40	C	1.152251	0.065532	0.696983
C41	C	1.152250	0.065526	0.773212
C42	C	1.027032	0.190665	0.773219
C43	C	1.027028	0.190662	0.696991
C44	C	1.089642	0.128097	0.658878
H45	H	1.203176	0.014575	0.195738
F46	F	1.114291	-0.045245	0.421336
F47	F	0.960405	0.257250	0.813787
F48	F	0.960353	0.257236	0.343576
H49	H	0.976046	0.241606	0.665965
F50	F	0.960324	0.257230	0.186223
H51	H	1.111318	-0.024246	0.569157
F52	F	1.064956	0.301432	0.578648
H53	H	1.203232	0.014584	0.665950
H54	H	1.203234	0.014580	0.804237
F55	F	1.065002	0.301431	0.421303
F56	F	1.218845	-0.001067	0.343555
