data_functionalizedCrystal
_audit_creation_method	'MofGen! by Chris Wilmer'
_symmetry_space_group_name_H-M	'P1'
_symmetry_Int_Tables_number	1
_symmetry_cell_setting	triclinic
loop_
_symmetry_equiv_pos_as_xyz
  x,y,z
_cell_length_a	17.019282
_cell_length_b	19.188924
_cell_length_c	18.266242
_cell_angle_alpha	90.007204
_cell_angle_beta	86.127719
_cell_angle_gamma	83.265903
loop_
_atom_site_label
_atom_site_type_symbol
_atom_site_fract_x
_atom_site_fract_y
_atom_site_fract_z
O1	O	1.046371	0.088902	-0.005108
O2	O	1.379704	0.422236	0.328225
O3	O	1.713038	0.755569	0.661559
O4	O	0.816667	0.100256	0.009381
O5	O	1.150001	0.433589	0.342714
O6	O	1.483334	0.766922	0.676048
O7	O	0.938151	-0.007066	0.001710
O8	O	1.271484	0.326267	0.335043
O9	O	1.604818	0.659601	0.668376
O10	O	0.924888	0.196224	0.002563
O11	O	1.258221	0.529557	0.335897
O12	O	1.591554	0.862891	0.669230
O13	O	0.938130	-0.007069	-0.120051
O14	O	1.271464	0.326264	0.213282
O15	O	1.604797	0.659598	0.546616
O16	O	0.816647	0.100253	-0.112380
O17	O	1.149980	0.433586	0.220954
O18	O	1.483314	0.766919	0.554287
O19	O	1.046351	0.088899	-0.126869
O20	O	1.379684	0.422233	0.206465
O21	O	1.713017	0.755566	0.539798
Zn22	Zn	0.931495	0.094575	-0.138956
Zn23	Zn	1.264829	0.427909	0.194377
Zn24	Zn	1.598162	0.761242	0.527710
Zn25	Zn	0.931523	0.094579	0.021469
Zn26	Zn	1.264856	0.427913	0.354802
Zn27	Zn	1.598189	0.761246	0.688135
O28	O	0.924867	0.196221	-0.119197
O29	O	1.258200	0.529554	0.214136
O30	O	1.591534	0.862888	0.547469
C31	C	0.787270	0.099826	-0.049646
C32	C	1.120603	0.433159	0.283687
C33	C	1.453936	0.766492	0.617021
C34	C	0.699704	0.098540	-0.044123
C35	C	1.033038	0.431873	0.289210
C36	C	1.366371	0.765206	0.622544
C37	C	0.658559	0.097932	-0.107902
C38	C	0.991893	0.431266	0.225432
C39	C	1.325226	0.764599	0.558765
C40	C	0.576284	0.096713	-0.102714
C41	C	0.909617	0.430046	0.230619
C42	C	1.242951	0.763380	0.563952
C43	C	0.535154	0.096106	-0.033748
C44	C	0.868488	0.429439	0.299586
C45	C	1.201821	0.762773	0.632919
C46	C	0.576305	0.096711	0.030036
C47	C	0.909639	0.430045	0.363369
C48	C	1.242972	0.763378	0.696702
C49	C	0.658580	0.097926	0.024848
C50	C	0.991913	0.431259	0.358181
C51	C	1.325247	0.764592	0.691514
C52	C	0.286739	0.092435	-0.014763
C53	C	0.620073	0.425768	0.318570
C54	C	0.953406	0.759102	0.651904
C55	C	0.204459	0.091223	-0.009580
C56	C	0.537792	0.424556	0.323754
C57	C	0.871125	0.757889	0.657087
C58	C	0.204443	0.091223	-0.142331
C59	C	0.537777	0.424556	0.191003
C60	C	0.871110	0.757890	0.524336
C61	C	0.286719	0.092441	-0.147512
C62	C	0.620052	0.425775	0.185821
C63	C	0.953385	0.759108	0.519154
C64	C	0.327863	0.093043	-0.083729
C65	C	0.661196	0.426376	0.249604
C66	C	0.994530	0.759710	0.582938
C67	C	0.451055	0.094862	-0.028444
C68	C	0.784389	0.428195	0.304889
C69	C	1.117722	0.761529	0.638223
C70	C	0.411961	0.094282	-0.089034
C71	C	0.745295	0.427616	0.244300
C72	C	1.078628	0.760949	0.577633
C73	C	0.937712	-0.033079	-0.059144
C74	C	1.271045	0.300254	0.274189
C75	C	1.604379	0.633587	0.607522
C76	C	0.936425	-0.110586	-0.059065
C77	C	1.269759	0.222747	0.274268
C78	C	1.603092	0.556080	0.607601
C79	C	0.935836	-0.146984	0.007345
C80	C	1.269170	0.186349	0.340678
C81	C	1.602503	0.519682	0.674011
C82	C	0.934616	-0.219809	0.007427
C83	C	1.267949	0.113524	0.340760
C84	C	1.601283	0.446857	0.674094
C85	C	0.934001	-0.256235	-0.058905
C86	C	1.267334	0.077099	0.274428
C87	C	1.600668	0.410432	0.607762
C88	C	0.934586	-0.219827	-0.125323
C89	C	1.267919	0.113506	0.208010
C90	C	1.601253	0.446839	0.541343
C91	C	0.935798	-0.147003	-0.125403
C92	C	1.269131	0.186330	0.207930
C93	C	1.602465	0.519664	0.541263
N94	N	0.976980	-0.375828	-0.111014
N95	N	1.310313	-0.042495	0.222319
N96	N	1.643646	0.290839	0.555653
N97	N	0.975830	-0.445008	-0.110934
N98	N	1.309163	-0.111675	0.222400
N99	N	1.642496	0.221659	0.555733
C100	C	0.930347	-0.475650	-0.058667
C101	C	1.263681	-0.142317	0.274666
C102	C	1.597014	0.191017	0.607999
N103	N	0.886068	-0.434499	-0.006474
N104	N	1.219401	-0.101166	0.326859
N105	N	1.552735	0.232167	0.660192
N106	N	0.887221	-0.365313	-0.006553
N107	N	1.220555	-0.031980	0.326780
N108	N	1.553888	0.301354	0.660114
C109	C	0.932686	-0.335200	-0.058825
C110	C	1.266020	-0.001867	0.274508
C111	C	1.599353	0.331466	0.607841
C112	C	0.928434	-0.591013	0.007836
C113	C	1.261767	-0.257680	0.341170
C114	C	1.595101	0.075654	0.674503
C115	C	0.927209	-0.663838	0.007917
C116	C	1.260542	-0.330505	0.341250
C117	C	1.593876	0.002828	0.674583
C118	C	0.927187	-0.663856	-0.124836
C119	C	1.260520	-0.330523	0.208497
C120	C	1.593853	0.002811	0.541830
C121	C	0.928404	-0.591031	-0.124914
C122	C	1.261737	-0.257698	0.208419
C123	C	1.595070	0.075636	0.541753
C124	C	0.929031	-0.554614	-0.058576
C125	C	1.262364	-0.221281	0.274758
C126	C	1.595698	0.112052	0.608091
C127	C	1.075748	0.089329	-0.067840
C128	C	1.409082	0.422663	0.265493
C129	C	1.742415	0.755996	0.598826
C130	C	1.163314	0.090615	-0.073358
C131	C	1.496647	0.423949	0.259975
C132	C	1.829980	0.757282	0.593308
C133	C	0.925306	0.222234	-0.058342
C134	C	1.258639	0.555568	0.274992
C135	C	1.591973	0.888901	0.608325
C136	C	0.926593	0.299741	-0.058416
C137	C	1.259926	0.633075	0.274917
C138	C	1.593259	0.966408	0.608251
N139	N	0.931483	0.094572	-0.248442
N140	N	1.264816	0.427906	0.084891
N141	N	1.598149	0.761239	0.418224
C142	C	0.979170	0.136897	-0.289749
C143	C	1.312503	0.470230	0.043584
C144	C	1.645836	0.803564	0.376917
C145	C	0.979183	0.136895	-0.366395
C146	C	1.312516	0.470228	-0.033062
C147	C	1.645850	0.803562	0.300272
C148	C	0.931494	0.094577	-0.401730
C149	C	1.264827	0.427910	-0.068397
C150	C	1.598161	0.761243	0.264937
C151	C	0.883804	0.052243	-0.360414
C152	C	1.217137	0.385577	-0.027080
C153	C	1.550471	0.718910	0.306253
C154	C	0.883798	0.052241	-0.283770
C155	C	1.217132	0.385575	0.049563
C156	C	1.550465	0.718908	0.382897
N157	N	0.862409	0.092742	-0.517725
N158	N	1.195742	0.426075	-0.184392
N159	N	1.529075	0.759409	0.148941
N160	N	0.862416	0.092748	-0.590534
N161	N	1.195750	0.426081	-0.257201
N162	N	1.529083	0.759415	0.076133
C163	C	0.931510	0.094579	-0.632653
C164	C	1.264843	0.427912	-0.299320
C165	C	1.598176	0.761246	0.034013
N166	N	1.000596	0.096418	-0.599214
N167	N	1.333930	0.429751	-0.265881
N168	N	1.667263	0.763084	0.067453
N169	N	1.000588	0.096415	-0.526399
N170	N	1.333921	0.429749	-0.193065
N171	N	1.667254	0.763082	0.140268
C172	C	0.931495	0.094574	-0.484837
C173	C	1.264829	0.427907	-0.151504
C174	C	1.598162	0.761240	0.181830
C175	C	0.979215	0.136904	-0.757069
C176	C	1.312549	0.470237	-0.423735
C177	C	1.645882	0.803571	-0.090402
C178	C	0.979230	0.136897	-0.833716
C179	C	1.312563	0.470230	-0.500383
C180	C	1.645897	0.803564	-0.167049
C181	C	0.883844	0.052249	-0.827733
C182	C	1.217177	0.385583	-0.494399
C183	C	1.550510	0.718916	-0.161066
C184	C	0.883836	0.052252	-0.751087
C185	C	1.217170	0.385585	-0.417754
C186	C	1.550503	0.718919	-0.084421
C187	C	0.931521	0.094583	-0.715760
C188	C	1.264854	0.427917	-0.382427
C189	C	1.598187	0.761250	-0.049093
N190	N	0.931542	0.094577	0.130954
N191	N	1.264875	0.427910	0.464288
N192	N	1.598208	0.761244	0.797621
H193	H	0.542812	0.096212	0.086190
H194	H	0.876145	0.429546	0.419523
H195	H	1.209478	0.762879	0.752857
H196	H	0.928940	-0.561360	0.061853
H197	H	1.262273	-0.228027	0.395187
H198	H	1.595607	0.105306	0.728520
C199	C	1.031677	0.183461	-0.718206
C200	C	1.365010	0.516795	-0.384873
C201	C	1.698343	0.850128	-0.051540
N202	N	1.071192	0.218528	-0.688937
N203	N	1.404526	0.551861	-0.355604
N204	N	1.737859	0.885194	-0.022271
C205	C	0.159218	0.090554	0.066292
C206	C	0.492551	0.423888	0.399626
C207	C	0.825884	0.757221	0.732959
N208	N	0.125142	0.090052	0.123436
N209	N	0.458475	0.423386	0.456770
N210	N	0.791809	0.756719	0.790103
H211	H	0.936275	-0.117368	-0.179484
H212	H	1.269608	0.215966	0.153850
H213	H	1.602941	0.549299	0.487183
H214	H	0.926680	-0.693512	-0.178845
H215	H	1.260013	-0.360179	0.154489
H216	H	1.593347	-0.026846	0.487822
C217	C	0.926600	-0.703881	0.080974
C218	C	1.259934	-0.370548	0.414307
C219	C	1.593267	-0.037214	0.747641
N220	N	0.926158	-0.734043	0.136001
N221	N	1.259492	-0.400710	0.469335
N222	N	1.592825	-0.067377	0.802668
H223	H	0.320229	0.092923	0.037174
H224	H	0.653563	0.426256	0.370508
H225	H	0.986896	0.759589	0.703841
C226	C	0.703839	0.098596	0.095010
C227	C	1.037172	0.431929	0.428343
C228	C	1.370505	0.765262	0.761676
N229	N	0.737927	0.099098	0.147858
N230	N	1.071260	0.432432	0.481191
N231	N	1.404593	0.765765	0.814525
C232	C	0.331956	0.093105	-0.223381
C233	C	0.665289	0.426438	0.109952
C234	C	0.998623	0.759772	0.443285
N235	N	0.366028	0.093606	-0.280527
N236	N	0.699362	0.426939	0.052807
N237	N	1.032695	0.760273	0.386140
H238	H	0.934083	-0.249489	-0.179331
H239	H	1.267416	0.083844	0.154002
H240	H	1.600750	0.417177	0.487336
C241	C	0.831344	0.005695	-0.399284
C242	C	1.164677	0.339028	-0.065950
C243	C	1.498010	0.672361	0.267383
N244	N	0.791830	-0.029368	-0.428560
N245	N	1.125163	0.303966	-0.095227
N246	N	1.458497	0.637299	0.238106
C247	C	0.457204	0.094969	-0.164895
C248	C	0.790537	0.428302	0.168439
C249	C	1.123870	0.761635	0.501772
N250	N	0.491286	0.095496	-0.222034
N251	N	0.824619	0.428830	0.111300
N252	N	1.157952	0.762163	0.444633
H253	H	0.928890	-0.561396	-0.178992
H254	H	1.262224	-0.228063	0.154341
H255	H	1.595557	0.105271	0.487674
C256	C	0.831386	0.005697	-0.866597
C257	C	1.164720	0.339030	-0.533264
C258	C	1.498053	0.672363	-0.199930
N259	N	0.791876	-0.029369	-0.895873
N260	N	1.125209	0.303965	-0.562540
N261	N	1.458542	0.637298	-0.229206
H262	H	0.936345	-0.117338	0.061362
H263	H	1.269678	0.215995	0.394696
H264	H	1.603011	0.549328	0.728029
H265	H	0.845001	0.017790	-0.717454
H266	H	1.178334	0.351123	-0.384121
H267	H	1.511668	0.684456	-0.050788
C268	C	1.031634	0.183455	-0.250894
C269	C	1.364967	0.516788	0.082439
C270	C	1.698300	0.850121	0.415772
N271	N	1.071153	0.218519	-0.221628
N272	N	1.404486	0.551853	0.111706
N273	N	1.737819	0.885186	0.445039
H274	H	1.018016	0.171363	-0.400034
H275	H	1.351349	0.504696	-0.066700
H276	H	1.684683	0.838029	0.266633
H277	H	1.018068	0.171361	-0.867347
H278	H	1.351401	0.504694	-0.534014
H279	H	1.684735	0.838027	-0.200681
H280	H	0.844964	0.017775	-0.250138
H281	H	1.178297	0.351108	0.083195
H282	H	1.511631	0.684441	0.416529
H283	H	0.934131	-0.249450	0.061508
H284	H	1.267465	0.083883	0.394841
H285	H	1.600798	0.417217	0.728175
C286	C	0.703795	0.098599	-0.183771
C287	C	1.037128	0.431933	0.149562
C288	C	1.370461	0.765266	0.482895
N289	N	0.737864	0.099098	-0.240918
N290	N	1.071197	0.432432	0.092415
N291	N	1.404531	0.765765	0.425748
C292	C	0.405804	0.094198	0.047418
C293	C	0.739137	0.427531	0.380752
C294	C	1.072471	0.760865	0.714085
N295	N	0.371718	0.093697	0.104557
N296	N	0.705051	0.427030	0.437891
N297	N	1.038385	0.760364	0.771224
H298	H	0.542789	0.096207	-0.154650
H299	H	0.876123	0.429540	0.178683
H300	H	1.209456	0.762873	0.512017
C301	C	0.159179	0.090554	-0.212488
C302	C	0.492512	0.423887	0.120846
C303	C	0.825846	0.757220	0.454179
N304	N	0.125086	0.090046	-0.265333
N305	N	0.458420	0.423380	0.068001
N306	N	0.791753	0.756713	0.401334
