data_functionalizedCrystal
_audit_creation_method	'MofGen! by Chris Wilmer'
_symmetry_space_group_name_H-M	'P1'
_symmetry_Int_Tables_number	1
_symmetry_cell_setting	triclinic
loop_
_symmetry_equiv_pos_as_xyz
  x,y,z
_cell_length_a	8.497374
_cell_length_b	17.077404
_cell_length_c	17.077396
_cell_angle_alpha	90.018362
_cell_angle_beta	89.987669
_cell_angle_gamma	90.000937
loop_
_atom_site_label
_atom_site_type_symbol
_atom_site_fract_x
_atom_site_fract_y
_atom_site_fract_z
Zn1	Zn	0.628141	1.200174	0.443907
Zn2	Zn	0.891968	1.200131	0.312678
Zn3	Zn	0.628186	1.068905	0.312658
Zn4	Zn	0.891864	1.068923	0.443904
O5	O	0.760040	1.134533	0.378287
O6	O	0.663163	1.310015	0.426509
O7	O	0.857039	1.182698	0.202828
O8	O	0.407418	1.086329	0.330061
O9	O	0.856996	1.309983	0.330096
O10	O	0.407385	1.182771	0.426489
O11	O	0.663240	1.086287	0.202813
O12	O	0.663139	0.959061	0.330058
O13	O	0.856818	1.086359	0.553752
O14	O	0.856862	0.959074	0.426484
O15	O	0.663062	1.182788	0.553754
O16	O	1.112717	1.182715	0.330093
O17	O	1.112640	1.086318	0.426504
C18	C	0.759995	0.930585	0.378269
C19	C	0.760014	0.843335	0.378280
C20	C	0.659265	0.802363	0.428559
C21	C	0.659275	0.720382	0.428563
C22	C	0.760044	0.679376	0.378291
C23	C	0.860797	0.720355	0.328006
C24	C	0.860778	0.802334	0.327999
C25	C	0.860833	0.549485	0.328026
C26	C	0.860855	0.467500	0.328033
C27	C	0.659330	0.467533	0.428589
C28	C	0.659311	0.549512	0.428582
C29	C	0.760067	0.590485	0.378299
C30	C	1.169920	1.134523	0.378298
C31	C	1.348564	1.134544	0.378285
C32	C	0.759924	1.134581	0.583031
C33	C	0.759874	1.134601	0.670281
C34	C	0.760086	1.339277	0.378305
C35	C	0.760106	1.426527	0.378313
C36	C	0.760042	1.134531	0.174339
C37	C	0.759647	1.134663	0.087089
C38	C	0.658977	1.184813	0.711273
C39	C	0.658925	1.184823	0.793254
C40	C	0.759778	1.134623	0.834240
C41	C	0.860680	1.084405	0.793242
C42	C	0.860723	1.084392	0.711263
C43	C	0.860585	1.084437	0.964112
C44	C	0.860544	1.084450	1.046097
C45	C	0.658786	1.184867	1.046103
C46	C	0.658830	1.184854	0.964124
C47	C	0.759734	1.134637	0.923131
H48	H	0.577266	0.582897	0.469523
H49	H	0.942875	0.582842	0.287077
H50	H	0.576768	1.225713	0.826626
N51	N	0.550641	0.423334	0.482808
H52	H	0.437893	0.437593	0.470696
H53	H	0.575406	0.437631	0.538857
H54	H	0.577212	0.835744	0.469499
H55	H	0.576624	1.225754	1.079483
N56	N	0.969467	0.676124	0.273780
H57	H	1.042667	0.642129	0.305629
H58	H	1.033183	0.714567	0.241933
H59	H	0.942817	0.835693	0.287056
H60	H	0.942665	1.043572	1.079466
H61	H	0.942910	0.434115	0.287098
H62	H	0.942727	1.043532	0.930739
N63	N	0.550208	1.238963	0.667069
H64	H	0.486282	1.270772	0.705481
H65	H	0.477212	1.207010	0.633048
H66	H	0.576715	1.225736	0.930755
H67	H	0.942791	1.043529	0.826620
N68	N	0.969559	1.030233	0.667055
H69	H	1.042694	1.062121	0.633047
H70	H	0.905344	0.993862	0.633082
N71	N	0.550580	0.676189	0.482777
H72	H	0.486739	0.714606	0.514622
H73	H	0.614870	0.642184	0.519062
