data_functionalizedCrystal
_audit_creation_method	'MofGen! by Chris Wilmer'
_symmetry_space_group_name_H-M	'P1'
_symmetry_Int_Tables_number	1
_symmetry_cell_setting	triclinic
loop_
_symmetry_equiv_pos_as_xyz
  x,y,z
_cell_length_a	12.811445
_cell_length_b	12.811415
_cell_length_c	15.186229
_cell_angle_alpha	84.565396
_cell_angle_beta	84.565222
_cell_angle_gamma	83.528277
loop_
_atom_site_label
_atom_site_type_symbol
_atom_site_fract_x
_atom_site_fract_y
_atom_site_fract_z
O1	O	1.393288	0.141406	-0.195777
O2	O	1.087772	0.156771	-0.172609
O3	O	1.248216	-0.003670	-0.172604
O4	O	1.232844	0.301847	-0.195782
O5	O	1.248205	-0.003673	-0.026146
O6	O	1.087761	0.156769	-0.026151
O7	O	1.393277	0.141403	-0.049318
Zn8	Zn	1.240517	0.149086	-0.014481
Zn9	Zn	1.240531	0.149089	-0.207446
O10	O	1.232833	0.301845	-0.049324
C11	C	1.048658	0.155908	-0.096188
C12	C	0.932129	0.153326	-0.086678
C13	C	0.713166	0.148496	-0.228493
C14	C	0.603677	0.146070	-0.219560
C15	C	0.603658	0.146056	-0.059882
C16	C	0.713148	0.148482	-0.068814
C17	C	0.767898	0.149700	-0.153122
C18	C	0.877390	0.152118	-0.162053
C19	C	0.877369	0.152112	-0.002376
C20	C	0.767880	0.149686	0.006556
C21	C	1.247349	-0.042779	-0.096184
C22	C	1.244769	-0.159309	-0.086675
C23	C	1.239914	-0.378266	-0.228492
C24	C	1.237490	-0.487756	-0.219562
C25	C	1.237490	-0.487779	-0.059884
C26	C	1.239914	-0.378290	-0.068814
C27	C	1.241127	-0.323537	-0.153121
C28	C	1.243559	-0.214046	-0.162051
C29	C	1.243551	-0.214071	-0.002374
C30	C	1.241127	-0.323560	0.006557
C31	C	1.432390	0.142267	-0.125741
C32	C	1.548919	0.144849	-0.135258
C33	C	1.233700	0.340954	-0.125746
C34	C	1.236280	0.457483	-0.135260
N35	N	1.240515	0.149083	0.117212
N36	N	1.240542	0.149083	-0.339139
C37	C	1.311584	0.078064	0.342933
C38	C	1.311588	0.078061	0.435123
C39	C	1.169465	0.220106	0.435133
C40	C	1.169458	0.220103	0.342946
C41	C	1.240523	0.149083	0.296848
C42	C	1.240534	0.149084	0.481225
C43	C	1.240537	0.149081	0.581181
C44	C	1.240519	0.149083	0.196886
H45	H	0.559118	0.145093	-0.280935
N46	N	1.388215	0.001464	0.293201
H47	H	1.462763	0.013913	0.302285
H48	H	1.375708	-0.073058	0.316217
H49	H	1.236499	-0.532312	-0.280936
H50	H	1.236493	-0.532377	0.008755
N51	N	1.239832	-0.382619	0.097482
H52	H	1.238117	-0.460286	0.091704
H53	H	1.305254	-0.371704	0.126234
H54	H	1.111586	0.277935	0.305421
H55	H	0.921966	0.153110	-0.230701
N56	N	0.772229	0.149794	-0.319417
H57	H	0.720942	0.148657	-0.365810
H58	H	0.809435	0.215789	-0.331138
N59	N	1.092819	0.296703	0.484854
H60	H	1.103607	0.285932	0.550247
H61	H	1.105265	0.371225	0.461787
N62	N	0.544600	0.144758	0.031044
H63	H	0.466761	0.144502	0.025168
H64	H	0.570950	0.079449	0.068492
N65	N	1.244868	-0.155044	0.078926
H66	H	1.246592	-0.077374	0.060478
H67	H	1.179456	-0.165960	0.119889
N68	N	0.936392	0.153407	0.078929
H69	H	0.990039	0.089423	0.083314
H70	H	0.973533	0.219440	0.074207
N71	N	1.388246	0.001477	0.484828
H72	H	1.433267	-0.043506	0.441632
H73	H	1.434814	0.041910	0.516116
H74	H	1.244550	-0.169469	-0.230698
N75	N	1.241240	-0.319205	-0.319417
H76	H	1.240109	-0.370492	-0.365811
H77	H	1.177257	-0.265552	-0.322070
N78	N	0.708825	0.148378	0.097484
H79	H	0.630988	0.148095	0.091612
H80	H	0.735197	0.083077	0.134931
