data_functionalizedCrystal
_audit_creation_method	'MofGen! by Chris Wilmer'
_symmetry_space_group_name_H-M	'P1'
_symmetry_Int_Tables_number	1
_symmetry_cell_setting	triclinic
loop_
_symmetry_equiv_pos_as_xyz
  x,y,z
_cell_length_a	18.050591
_cell_length_b	18.101395
_cell_length_c	18.101389
_cell_angle_alpha	90.016841
_cell_angle_beta	89.974987
_cell_angle_gamma	89.972890
loop_
_atom_site_label
_atom_site_type_symbol
_atom_site_fract_x
_atom_site_fract_y
_atom_site_fract_z
Zn1	Zn	1.135308	0.294986	-0.418860
Zn2	Zn	1.385308	0.544986	-0.168860
Zn3	Zn	1.635308	0.794986	0.081140
Zn4	Zn	1.885308	1.044986	0.331140
Zn5	Zn	1.135203	0.418812	-0.295022
Zn6	Zn	1.385203	0.668812	-0.045022
Zn7	Zn	1.635203	0.918812	0.204978
Zn8	Zn	1.885203	1.168812	0.454978
Zn9	Zn	1.011118	0.294980	-0.295020
Zn10	Zn	1.261118	0.544980	-0.045020
Zn11	Zn	1.511118	0.794980	0.204980
Zn12	Zn	1.761118	1.044980	0.454980
Zn13	Zn	1.011069	0.418782	-0.418809
Zn14	Zn	1.261069	0.668782	-0.168809
Zn15	Zn	1.511069	0.918782	0.081191
Zn16	Zn	1.761069	1.168782	0.331191
O17	O	1.073174	0.356890	-0.356928
O18	O	1.323174	0.606890	-0.106928
O19	O	1.573174	0.856890	0.143072
O20	O	1.823174	1.106890	0.393072
O21	O	1.239218	0.311427	-0.402455
O22	O	1.489218	0.561427	-0.152455
O23	O	1.739218	0.811427	0.097545
O24	O	1.989218	1.061427	0.347545
O25	O	1.118720	0.402395	-0.191389
O26	O	1.368720	0.652395	0.058611
O27	O	1.618720	0.902395	0.308611
O28	O	1.868720	1.152395	0.558611
O29	O	1.027656	0.191348	-0.311468
O30	O	1.277656	0.441348	-0.061468
O31	O	1.527656	0.691348	0.188532
O32	O	1.777656	0.941348	0.438532
O33	O	1.239142	0.402401	-0.311472
O34	O	1.489142	0.652401	-0.061472
O35	O	1.739142	0.902401	0.188528
O36	O	1.989142	1.152401	0.438528
O37	O	1.118898	0.191352	-0.402453
O38	O	1.368898	0.441352	-0.152453
O39	O	1.618898	0.691352	0.097547
O40	O	1.868898	0.941352	0.347547
O41	O	1.027555	0.311417	-0.191387
O42	O	1.277555	0.561417	0.058613
O43	O	1.527555	0.811417	0.308613
O44	O	1.777555	1.061417	0.558613
O45	O	0.907187	0.311387	-0.311419
O46	O	1.157187	0.561387	-0.061419
O47	O	1.407187	0.811387	0.188581
O48	O	1.657187	1.061387	0.438581
O49	O	1.027572	0.402350	-0.522449
O50	O	1.277572	0.652350	-0.272449
O51	O	1.527572	0.902350	-0.022449
O52	O	1.777572	1.152350	0.227551
O53	O	0.907151	0.402344	-0.402366
O54	O	1.157151	0.652344	-0.152366
O55	O	1.407151	0.902344	0.097634
O56	O	1.657151	1.152344	0.347634
O57	O	1.118850	0.311398	-0.522487
O58	O	1.368850	0.561398	-0.272487
O59	O	1.618850	0.811398	-0.022487
O60	O	1.868850	1.061398	0.227513
O61	O	1.118672	0.522441	-0.311422
O62	O	1.368672	0.772441	-0.061422
O63	O	1.618672	1.022441	0.188578
O64	O	1.868672	1.272441	0.438578
O65	O	1.027471	0.522419	-0.402368
O66	O	1.277471	0.772419	-0.152368
O67	O	1.527471	1.022419	0.097632
O68	O	1.777471	1.272419	0.347632
C69	C	0.880222	0.356862	-0.356887
C70	C	1.130222	0.606862	-0.106887
C71	C	1.380222	0.856862	0.143113
C72	C	1.630222	1.106862	0.393113
C73	C	0.797676	0.356868	-0.356887
C74	C	1.047676	0.606868	-0.106887
C75	C	1.297676	0.856868	0.143113
C76	C	1.547676	1.106868	0.393113
C77	C	0.598224	0.307349	-0.307544
C78	C	0.848224	0.557349	-0.057544
C79	C	1.098224	0.807349	0.192456
C80	C	1.348224	1.057349	0.442456
C81	C	0.548800	0.374893	-0.289321
C82	C	0.798800	0.624893	-0.039321
C83	C	1.048800	0.874893	0.210679
C84	C	1.298800	1.124893	0.460679
C85	C	0.646546	0.356891	-0.356921
C86	C	0.896546	0.606891	-0.106921
C87	C	1.146546	0.856891	0.143079
C88	C	1.396546	1.106891	0.393079
C89	C	0.548889	0.289370	-0.375142
C90	C	0.798889	0.539370	-0.125142
C91	C	1.048889	0.789370	0.124858
C92	C	1.298889	1.039370	0.374858
C93	C	0.500561	0.356907	-0.356952
C94	C	0.750561	0.606907	-0.106952
C95	C	1.000561	0.856907	0.143048
C96	C	1.250561	1.106907	0.393048
C97	C	0.598209	0.424471	-0.338662
C98	C	0.848209	0.674471	-0.088662
C99	C	1.098209	0.924471	0.161338
C100	C	1.348209	1.174471	0.411338
C101	C	0.598302	0.338902	-0.424515
C102	C	0.848302	0.588902	-0.174515
C103	C	1.098302	0.838902	0.075485
C104	C	1.348302	1.088902	0.325485
C105	C	0.548900	0.406493	-0.406317
C106	C	0.798900	0.656493	-0.156317
C107	C	1.048900	0.906493	0.093683
C108	C	1.298900	1.156493	0.343683
C109	C	0.730644	0.356881	-0.356901
C110	C	0.980644	0.606881	-0.106901
C111	C	1.230644	0.856881	0.143099
C112	C	1.480644	1.106881	0.393099
C113	C	0.416464	0.356924	-0.356971
C114	C	0.666464	0.606924	-0.106971
C115	C	0.916464	0.856924	0.143029
C116	C	1.166464	1.106924	0.393029
C117	C	1.073075	0.549301	-0.356906
C118	C	1.323075	0.799301	-0.106906
C119	C	1.573075	1.049301	0.143094
C120	C	1.823075	1.299301	0.393094
C121	C	1.073100	0.631615	-0.356922
C122	C	1.323100	0.881615	-0.106922
C123	C	1.573100	1.131615	0.143078
C124	C	1.823100	1.381615	0.393078
C125	C	1.073217	0.356871	-0.550090
C126	C	1.323217	0.606871	-0.300090
C127	C	1.573217	0.856871	-0.050090
C128	C	1.823217	1.106871	0.199910
C129	C	1.073236	0.356863	-0.632404
C130	C	1.323236	0.606863	-0.382404
C131	C	1.573236	0.856863	-0.132404
C132	C	1.823236	1.106863	0.117596
C133	C	1.266880	0.356918	-0.356970
C134	C	1.516880	0.606918	-0.106970
C135	C	1.766880	0.856918	0.143030
C136	C	2.016880	1.106918	0.393030
C137	C	1.349426	0.356930	-0.356987
C138	C	1.599426	0.606930	-0.106987
C139	C	1.849426	0.856930	0.143013
C140	C	2.099426	1.106930	0.393013
C141	C	1.073294	0.163728	-0.356966
C142	C	1.323294	0.413728	-0.106966
C143	C	1.573294	0.663728	0.143034
C144	C	1.823294	0.913728	0.393034
C145	C	1.073345	0.081414	-0.356982
C146	C	1.323345	0.331414	-0.106982
C147	C	1.573345	0.581414	0.143018
C148	C	1.823345	0.831414	0.393018
C149	C	1.073263	0.930706	-0.356962
C150	C	1.323263	1.180706	-0.106962
C151	C	1.573263	1.430706	0.143038
C152	C	1.823263	1.680706	0.393038
C153	C	1.016015	0.899397	-0.414324
C154	C	1.266015	1.149397	-0.164324
C155	C	1.516015	1.399397	0.085676
C156	C	1.766015	1.649397	0.335676
C157	C	1.015743	0.813779	-0.414145
C158	C	1.265743	1.063779	-0.164145
C159	C	1.515743	1.313779	0.085855
C160	C	1.765743	1.563779	0.335855
C161	C	1.073182	0.782323	-0.356942
C162	C	1.323182	1.032323	-0.106942
C163	C	1.573182	1.282323	0.143058
C164	C	1.823182	1.532323	0.393058
C165	C	1.051994	0.813459	-0.278891
C166	C	1.301994	1.063459	-0.028891
C167	C	1.551994	1.313459	0.221109
C168	C	1.801994	1.563459	0.471109
C169	C	1.051625	0.899104	-0.279234
C170	C	1.301625	1.149104	-0.029234
C171	C	1.551625	1.399104	0.220766
C172	C	1.801625	1.649104	0.470766
C173	C	1.151826	0.899058	-0.376964
C174	C	1.401826	1.149058	-0.126964
C175	C	1.651826	1.399058	0.123036
C176	C	1.901826	1.649058	0.373036
C177	C	1.151364	0.813408	-0.378675
C178	C	1.401364	1.063408	-0.128675
C179	C	1.651364	1.313408	0.121325
C180	C	1.901364	1.563408	0.371325
C181	C	1.073138	0.698464	-0.356927
C182	C	1.323138	0.948464	-0.106927
C183	C	1.573138	1.198464	0.143073
C184	C	1.823138	1.448464	0.393073
C185	C	1.073306	1.014565	-0.356972
C186	C	1.323306	1.264565	-0.106972
C187	C	1.573306	1.514565	0.143028
C188	C	1.823306	1.764565	0.393028
C189	C	1.073279	0.356724	-0.931495
C190	C	1.323279	0.606724	-0.681495
C191	C	1.573279	0.856724	-0.431495
C192	C	1.823279	1.106724	-0.181495
C193	C	1.015652	0.413767	-0.900146
C194	C	1.265652	0.663767	-0.650146
C195	C	1.515652	0.913767	-0.400146
C196	C	1.765652	1.163767	-0.150146
C197	C	1.015807	0.414032	-0.814528
C198	C	1.265807	0.664032	-0.564528
C199	C	1.515807	0.914032	-0.314528
C200	C	1.765807	1.164032	-0.064528
C201	C	1.073257	0.356793	-0.783113
C202	C	1.323257	0.606793	-0.533113
C203	C	1.573257	0.856793	-0.283113
C204	C	1.823257	1.106793	-0.033113
C205	C	1.151502	0.377983	-0.814220
C206	C	1.401502	0.627983	-0.564220
C207	C	1.651502	0.877983	-0.314220
C208	C	1.901502	1.127983	-0.064220
C209	C	1.151181	0.378357	-0.899865
C210	C	1.401181	0.628357	-0.649865
C211	C	1.651181	0.878357	-0.399865
C212	C	1.901181	1.128357	-0.149865
C213	C	1.053341	0.278365	-0.899917
C214	C	1.303341	0.528365	-0.649917
C215	C	1.553341	0.778365	-0.399917
C216	C	1.803341	1.028365	-0.149917
C217	C	1.051600	0.278818	-0.814266
C218	C	1.301600	0.528818	-0.564266
C219	C	1.551600	0.778818	-0.314266
C220	C	1.801600	1.028818	-0.064266
C221	C	1.073249	0.356831	-0.699253
C222	C	1.323249	0.606831	-0.449253
C223	C	1.573249	0.856831	-0.199253
C224	C	1.823249	1.106831	0.050747
C225	C	1.073292	0.356689	-1.015355
C226	C	1.323292	0.606689	-0.765355
C227	C	1.573292	0.856689	-0.515355
C228	C	1.823292	1.106689	-0.265355
C229	C	1.073174	0.356855	-0.164518
C230	C	1.323174	0.606855	0.085482
C231	C	1.573174	0.856855	0.335482
C232	C	1.823174	1.106855	0.585482
C233	C	1.073300	0.356655	-0.082204
C234	C	1.323300	0.606655	0.167796
C235	C	1.573300	0.856655	0.417796
C236	C	1.823300	1.106655	0.667796
H237	H	1.029000	0.792727	-0.472019
H238	H	1.279000	1.042727	-0.222019
H239	H	1.529000	1.292727	0.027981
H240	H	1.779000	1.542727	0.277981
Cl241	Cl	1.178051	0.465482	-0.781121
Cl242	Cl	1.428051	0.715482	-0.531121
Cl243	Cl	1.678051	0.965482	-0.281121
Cl244	Cl	1.928051	1.215482	-0.031121
H245	H	1.029140	0.919956	-0.472386
H246	H	1.279140	1.169956	-0.222386
H247	H	1.529140	1.419956	0.027614
H248	H	1.779140	1.669956	0.277614
Cl249	Cl	1.113199	0.931085	-0.210991
Cl250	Cl	1.363199	1.181085	0.039009
Cl251	Cl	1.613199	1.431085	0.289009
Cl252	Cl	1.863199	1.681085	0.539009
H253	H	1.167342	0.793056	-0.436117
H254	H	1.417342	1.043056	-0.186117
H255	H	1.667342	1.293056	0.063883
H256	H	1.917342	1.543056	0.313883
H257	H	0.997277	0.259061	-0.921502
H258	H	1.247277	0.509061	-0.671502
H259	H	1.497277	0.759061	-0.421502
H260	H	1.747277	1.009061	-0.171502
H261	H	1.196273	0.791991	-0.339941
H262	H	1.446273	1.041991	-0.089941
H263	H	1.696273	1.291991	0.160059
H264	H	1.946273	1.541991	0.410059
Cl265	Cl	0.925796	0.393502	-0.931920
Cl266	Cl	1.175796	0.643502	-0.681920
Cl267	Cl	1.425796	0.893502	-0.431920
Cl268	Cl	1.675796	1.143502	-0.181920
Cl269	Cl	0.515670	0.471259	-0.470807
Cl270	Cl	0.765670	0.721259	-0.220807
Cl271	Cl	1.015670	0.971259	0.029193
Cl272	Cl	1.265670	1.221259	0.279193
H273	H	0.620063	0.323654	-0.481647
H274	H	0.870063	0.573654	-0.231647
H275	H	1.120063	0.823654	0.018353
H276	H	1.370063	1.073654	0.268353
H277	H	1.028970	0.472114	-0.794048
H278	H	1.278970	0.722114	-0.544048
H279	H	1.528970	0.972114	-0.294048
H280	H	1.778970	1.222114	-0.044048
Cl281	Cl	1.111683	0.209716	-0.781262
Cl282	Cl	1.361683	0.459716	-0.531262
Cl283	Cl	1.611683	0.709716	-0.281262
Cl284	Cl	1.861683	0.959716	-0.031262
H285	H	1.194478	0.919304	-0.335184
H286	H	1.444478	1.169304	-0.085184
H287	H	1.694478	1.419304	0.164816
H288	H	1.944478	1.669304	0.414816
H289	H	1.168082	0.435639	-0.919850
H290	H	1.418082	0.685639	-0.669850
H291	H	1.668082	0.935639	-0.419850
H292	H	1.918082	1.185639	-0.169850
H293	H	0.994019	0.262839	-0.793933
H294	H	1.244019	0.512839	-0.543933
H295	H	1.494019	0.762839	-0.293933
H296	H	1.744019	1.012839	-0.043933
Cl297	Cl	1.118144	0.212749	-0.931219
Cl298	Cl	1.368144	0.462749	-0.681219
Cl299	Cl	1.618144	0.712749	-0.431219
Cl300	Cl	1.868144	0.962749	-0.181219
H301	H	1.028684	0.471495	-0.921674
H302	H	1.278684	0.721495	-0.671674
H303	H	1.528684	0.971495	-0.421674
H304	H	1.778684	1.221495	-0.171674
Cl305	Cl	0.515228	0.398404	-0.201088
Cl306	Cl	0.765228	0.648404	0.048912
Cl307	Cl	1.015228	0.898404	0.298912
Cl308	Cl	1.265228	1.148404	0.548912
Cl309	Cl	0.631664	0.242734	-0.243009
Cl310	Cl	0.881664	0.492734	0.006991
Cl311	Cl	1.131664	0.742734	0.256991
Cl312	Cl	1.381664	0.992734	0.506991
Cl313	Cl	1.219678	0.316956	-0.931889
Cl314	Cl	1.469678	0.566956	-0.681889
Cl315	Cl	1.719678	0.816956	-0.431889
Cl316	Cl	1.969678	1.066956	-0.181889
Cl317	Cl	0.631513	0.512667	-0.314785
Cl318	Cl	0.881513	0.762667	-0.064785
Cl319	Cl	1.131513	1.012667	0.185215
Cl320	Cl	1.381513	1.262667	0.435215
H321	H	0.527185	0.232269	-0.390515
H322	H	0.777185	0.482269	-0.140515
H323	H	1.027185	0.732269	0.109485
H324	H	1.277185	0.982269	0.359485
H325	H	0.958137	0.920977	-0.401241
H326	H	1.208137	1.170977	-0.151241
H327	H	1.458137	1.420977	0.098759
H328	H	1.708137	1.670977	0.348759
H329	H	0.957511	0.793350	-0.400895
H330	H	1.207511	1.043350	-0.150895
H331	H	1.457511	1.293350	0.099105
H332	H	1.707511	1.543350	0.349105
Cl333	Cl	0.962960	0.930041	-0.253077
Cl334	Cl	1.212960	1.180041	-0.003077
Cl335	Cl	1.462960	1.430041	0.246923
Cl336	Cl	1.712960	1.680041	0.496923
H337	H	1.092379	0.793083	-0.234985
H338	H	1.342379	1.043083	0.015015
H339	H	1.592379	1.293083	0.265015
H340	H	1.842379	1.543083	0.515015
Cl341	Cl	0.964265	0.780438	-0.252263
Cl342	Cl	1.214265	1.030438	-0.002263
Cl343	Cl	1.464265	1.280438	0.247737
Cl344	Cl	1.714265	1.530438	0.497737
Cl345	Cl	0.926227	0.393556	-0.782050
Cl346	Cl	1.176227	0.643556	-0.532050
Cl347	Cl	1.426227	0.893556	-0.282050
Cl348	Cl	1.676227	1.143556	-0.032050
H349	H	1.195591	0.337741	-0.793873
H350	H	1.445591	0.587741	-0.543873
H351	H	1.695591	0.837741	-0.293873
H352	H	1.945591	1.087741	-0.043873
H353	H	1.171144	0.920618	-0.432909
H354	H	1.421144	1.170618	-0.182909
H355	H	1.671144	1.420618	0.067091
H356	H	1.921144	1.670618	0.317091
