data_functionalizedCrystal
_audit_creation_method	'MofGen! by Chris Wilmer'
_symmetry_space_group_name_H-M	'P1'
_symmetry_Int_Tables_number	1
_symmetry_cell_setting	triclinic
loop_
_symmetry_equiv_pos_as_xyz
  x,y,z
_cell_length_a	19.188930
_cell_length_b	19.188930
_cell_length_c	15.455313
_cell_angle_alpha	92.650876
_cell_angle_beta	87.313934
_cell_angle_gamma	83.144779
loop_
_atom_site_label
_atom_site_type_symbol
_atom_site_fract_x
_atom_site_fract_y
_atom_site_fract_z
O1	O	0.929227	0.084092	-0.072420
O2	O	1.429227	0.584092	0.427580
O3	O	0.725913	0.095829	-0.072362
O4	O	1.225913	0.595829	0.427638
O5	O	0.833436	-0.011695	-0.072376
O6	O	1.333436	0.488305	0.427624
O7	O	0.821703	0.191615	-0.072406
O8	O	1.321703	0.691615	0.427594
O9	O	0.827288	-0.005571	0.071887
O10	O	1.327288	0.494429	0.571887
O11	O	0.719764	0.101952	0.071901
O12	O	1.219764	0.601952	0.571901
O13	O	0.923078	0.090215	0.071843
O14	O	1.423078	0.590215	0.571843
Cu15	Cu	0.820860	0.096643	0.085044
Cu16	Cu	1.320860	0.596643	0.585044
Cu17	Cu	0.828131	0.089401	-0.085563
Cu18	Cu	1.328131	0.589401	0.414437
O19	O	0.815555	0.197739	0.071857
O20	O	1.315555	0.697739	0.571857
C21	C	0.696827	0.098511	-0.000223
C22	C	1.196827	0.598511	0.499777
C23	C	0.619322	0.097371	-0.000200
C24	C	1.119322	0.597371	0.499800
C25	C	0.574399	0.160461	-0.000223
C26	C	1.074399	0.660461	0.499777
C27	C	0.501576	0.159389	-0.000232
C28	C	1.001576	0.659389	0.499768
C29	C	0.473679	0.095223	-0.000236
C30	C	0.973679	0.595223	0.499764
C31	C	0.518612	0.032125	-0.000208
C32	C	1.018612	0.532125	0.499792
C33	C	0.591433	0.033199	-0.000190
C34	C	1.091433	0.533199	0.499810
N35	N	0.367793	0.044090	-0.049362
N36	N	0.867793	0.544090	0.450638
N37	N	0.298615	0.043074	-0.049381
N38	N	0.798615	0.543074	0.450619
C39	C	0.254273	0.091982	-0.000288
C40	C	0.754273	0.591982	0.499712
N41	N	0.281721	0.141955	0.048813
N42	N	0.781721	0.641955	0.548813
N43	N	0.350905	0.142973	0.048829
N44	N	0.850905	0.642973	0.548829
C45	C	0.394717	0.094051	-0.000255
C46	C	0.894717	0.594051	0.499745
C47	C	0.130386	0.153914	-0.000320
C48	C	0.630386	0.653914	0.499680
C49	C	0.057561	0.152840	-0.000324
C50	C	0.557561	0.652840	0.499676
C51	C	0.074599	0.025573	-0.000309
C52	C	0.574599	0.525573	0.499691
C53	C	0.147422	0.026650	-0.000296
C54	C	0.647422	0.526650	0.499704
C55	C	0.175311	0.090822	-0.000306
C56	C	0.675311	0.590822	0.499694
C57	C	0.829982	-0.034644	-0.000242
C58	C	1.329982	0.465356	0.499758
C59	C	0.828841	-0.112148	-0.000234
C60	C	1.328841	0.387852	0.499766
C61	C	0.891932	-0.157072	-0.000248
C62	C	1.391932	0.342928	0.499752
C63	C	0.890861	-0.229897	-0.000261
C64	C	1.390861	0.270103	0.499739
C65	C	0.826694	-0.257793	-0.000243
C66	C	1.326694	0.242207	0.499757
C67	C	0.763595	-0.212859	-0.000234
C68	C	1.263595	0.287141	0.499766
C69	C	0.764668	-0.140036	-0.000230
C70	C	1.264668	0.359964	0.499770
N71	N	0.775554	-0.363713	0.048866
N72	N	1.275554	0.136287	0.548866
N73	N	0.774539	-0.432892	0.048863
N74	N	1.274539	0.067108	0.548863
C75	C	0.823457	-0.477202	-0.000260
C76	C	1.323457	0.022798	0.499740
N77	N	0.873439	-0.449721	-0.049370
N78	N	1.373439	0.050279	0.450630
N79	N	0.874456	-0.380536	-0.049363
N80	N	1.374456	0.119464	0.450637
C81	C	0.825524	-0.336755	-0.000249
C82	C	1.325524	0.163245	0.499751
C83	C	0.885391	-0.601092	-0.000290
C84	C	1.385391	-0.101092	0.499710
C85	C	0.884318	-0.673917	-0.000309
C86	C	1.384318	-0.173917	0.499691
C87	C	0.757049	-0.656877	-0.000273
C88	C	1.257049	-0.156877	0.499727
C89	C	0.758125	-0.584053	-0.000263
C90	C	1.258125	-0.084053	0.499737
C91	C	0.822298	-0.556165	-0.000267
C92	C	1.322298	-0.056165	0.499733
C93	C	0.952164	0.087533	-0.000298
C94	C	1.452164	0.587533	0.499702
C95	C	1.029670	0.088673	-0.000327
C96	C	1.529670	0.588673	0.499673
C97	C	0.819009	0.220688	-0.000279
C98	C	1.319009	0.720688	0.499721
C99	C	0.820151	0.298192	-0.000293
C100	C	1.320151	0.798192	0.499707
N101	N	0.815751	0.101736	0.205041
N102	N	1.315751	0.601736	0.705041
N103	N	0.833246	0.084303	-0.205559
N104	N	1.333246	0.584303	0.294441
C105	C	0.861446	0.056073	0.250429
C106	C	1.361446	0.556073	0.750429
C107	C	0.857589	0.059931	0.341237
C108	C	1.357589	0.559931	0.841237
C109	C	0.808039	0.109456	0.386656
C110	C	1.308039	0.609456	0.886656
C111	C	0.762338	0.155121	0.341261
C112	C	1.262338	0.655121	0.841261
C113	C	0.766193	0.151259	0.250454
C114	C	1.266193	0.651259	0.750454
C115	C	0.791400	0.126106	0.658239
C116	C	1.291400	0.626106	1.158239
C117	C	0.787551	0.129966	0.749052
C118	C	1.287551	0.629966	1.249052
C119	C	0.882801	0.034775	0.749022
C120	C	1.382801	0.534775	1.249022
C121	C	0.886654	0.030920	0.658214
C122	C	1.386654	0.530920	1.158214
C123	C	0.840951	0.076582	0.612827
C124	C	1.340951	0.576582	1.112827
N125	N	0.804096	0.113402	0.479476
N126	N	1.304096	0.613402	0.979476
N127	N	0.844891	0.072633	0.520008
N128	N	1.344891	0.572633	1.020008
H129	H	0.153093	0.206167	-0.000316
H130	H	0.653093	0.706167	0.499684
H131	H	0.754189	0.163288	0.621293
H132	H	1.254189	0.663288	1.121293
Br133	Br	0.440596	0.245017	-0.000258
Br134	Br	0.940596	0.745017	0.499742
H135	H	0.927001	-0.009407	0.621236
H136	H	1.427001	0.490593	1.121236
Br137	Br	0.036747	-0.061511	-0.000299
Br138	Br	0.536747	0.438489	0.499701
H139	H	0.721990	0.195443	0.378246
H140	H	1.221990	0.695443	0.878246
H141	H	0.728982	0.188442	0.213500
H142	H	1.228982	0.688442	0.713500
H143	H	0.935697	-0.710495	-0.000325
H144	H	1.435697	-0.210495	0.499675
H145	H	0.706749	-0.547474	-0.000247
H146	H	1.206749	-0.047474	0.499753
H147	H	0.184000	-0.024725	-0.000282
H148	H	0.684000	0.475275	0.499718
Br149	Br	0.480754	-0.054959	-0.000204
Br150	Br	0.980754	0.445041	0.499796
H151	H	0.628010	-0.018178	-0.000171
H152	H	1.128010	0.481822	0.499829
Br153	Br	0.612245	0.247551	-0.000235
Br154	Br	1.112245	0.747551	0.499765
Br155	Br	0.928701	-0.011138	0.188799
Br156	Br	1.428701	0.488862	0.688799
H157	H	0.020984	0.204217	-0.000338
H158	H	0.520984	0.704217	0.499662
H159	H	0.894797	0.022748	0.378192
H160	H	1.394797	0.522748	0.878192
Br161	Br	0.979024	-0.119228	-0.000277
Br162	Br	1.479024	0.380772	0.499723
Br163	Br	0.944821	-0.027194	0.810621
Br164	Br	1.444821	0.472806	1.310621
Br165	Br	0.669964	-0.694728	-0.000258
Br166	Br	1.169964	-0.194728	0.499742
H167	H	0.747199	0.170298	0.786028
H168	H	1.247199	0.670298	1.286028
H169	H	0.711350	-0.235576	-0.000222
H170	H	1.211350	0.264424	0.499778
Br171	Br	0.679037	-0.079063	-0.000213
Br172	Br	1.179037	0.420937	0.499787
Br173	Br	0.976491	-0.290878	-0.000284
Br174	Br	1.476491	0.209122	0.499716
H175	H	0.937645	-0.578384	-0.000297
H176	H	1.437645	-0.078384	0.499703
