data_functionalizedCrystal
_audit_creation_method	'MofGen! by Chris Wilmer'
_symmetry_space_group_name_H-M	'P1'
_symmetry_Int_Tables_number	1
_symmetry_cell_setting	triclinic
loop_
_symmetry_equiv_pos_as_xyz
  x,y,z
_cell_length_a	16.120530
_cell_length_b	19.077068
_cell_length_c	19.076919
_cell_angle_alpha	94.470751
_cell_angle_beta	89.499843
_cell_angle_gamma	89.537851
loop_
_atom_site_label
_atom_site_type_symbol
_atom_site_fract_x
_atom_site_fract_y
_atom_site_fract_z
Zn1	Zn	1.235622	-0.351862	-0.464893
Zn2	Zn	1.735622	0.148138	0.035107
Zn3	Zn	1.235519	-0.465010	-0.351733
Zn4	Zn	1.735519	0.034990	0.148267
Zn5	Zn	1.102611	-0.341206	-0.341097
Zn6	Zn	1.602611	0.158794	0.158903
Zn7	Zn	1.090943	-0.463251	-0.463136
Zn8	Zn	1.590943	0.036749	0.036864
O9	O	1.166174	-0.405332	-0.405215
O10	O	1.666174	0.094668	0.094785
O11	O	1.351779	-0.372067	-0.455068
O12	O	1.851779	0.127933	0.044932
O13	O	1.222729	-0.444865	-0.251890
O14	O	1.722729	0.055135	0.248110
O15	O	1.125182	-0.244190	-0.353803
O16	O	1.625182	0.255810	0.146197
O17	O	1.351704	-0.455197	-0.371930
O18	O	1.851704	0.044803	0.128070
O19	O	1.222904	-0.252019	-0.444755
O20	O	1.722904	0.247981	0.055245
O21	O	1.125082	-0.353906	-0.244077
O22	O	1.625082	0.146094	0.255923
O23	O	0.984893	-0.352200	-0.352100
O24	O	1.484893	0.147800	0.147900
O25	O	1.105295	-0.452198	-0.561800
O26	O	1.605295	0.047802	-0.061800
O27	O	0.976320	-0.441866	-0.441761
O28	O	1.476320	0.058134	0.058239
O29	O	1.211590	-0.370361	-0.563091
O30	O	1.711590	0.129639	-0.063091
O31	O	1.211415	-0.563206	-0.370226
O32	O	1.711415	-0.063206	0.129774
O33	O	1.105196	-0.561914	-0.452074
O34	O	1.605196	-0.061914	0.047926
C35	C	1.157050	-0.588083	-0.412130
C36	C	1.657050	-0.088083	0.087870
C37	C	1.153221	-0.666269	-0.415115
C38	C	1.653221	-0.166269	0.084885
C39	C	0.950485	-0.395686	-0.395586
C40	C	1.450485	0.104314	0.104414
C41	C	0.858210	-0.391577	-0.391484
C42	C	1.358210	0.108423	0.108516
C43	C	1.206765	-0.703654	-0.373943
C44	C	1.706765	-0.203654	0.126057
C45	C	1.203168	-0.777118	-0.376755
C46	C	1.703168	-0.277118	0.123245
C47	C	1.146024	-0.813196	-0.420736
C48	C	1.646024	-0.313196	0.079264
C49	C	1.092478	-0.775806	-0.461912
C50	C	1.592478	-0.275806	0.038088
C51	C	1.096079	-0.702343	-0.459104
C52	C	1.596079	-0.202343	0.040896
C53	C	1.129324	-1.032836	-0.433705
C54	C	1.629324	-0.532836	0.066295
C55	C	1.125725	-1.106304	-0.436509
C56	C	1.625725	-0.606304	0.063491
C57	C	1.236417	-1.107611	-0.351353
C58	C	1.736417	-0.607611	0.148647
C59	C	1.240009	-1.034146	-0.348545
C60	C	1.740009	-0.534146	0.151455
C61	C	1.186467	-0.996763	-0.389724
C62	C	1.686467	-0.496763	0.110276
N63	N	1.142345	-0.888288	-0.423610
N64	N	1.642345	-0.388288	0.076390
N65	N	1.190150	-0.921673	-0.386853
N66	N	1.690150	-0.421673	0.113147
C67	C	0.689263	-0.384058	-0.384001
C68	C	1.189263	0.115942	0.115999
C69	C	0.643920	-0.426660	-0.426481
C70	C	1.143920	0.073340	0.073519
C71	C	0.549913	-0.422477	-0.422318
C72	C	1.049913	0.077523	0.077682
C73	C	0.783280	-0.388241	-0.388164
C74	C	1.283280	0.111759	0.111836
C75	C	1.382706	-0.415017	-0.414881
C76	C	1.882706	0.084983	0.085119
C77	C	1.474979	-0.419144	-0.419000
C78	C	1.974979	0.080856	0.081000
C79	C	1.157153	-0.412272	-0.588681
C80	C	1.657153	0.087728	-0.088681
C81	C	1.153308	-0.415229	-0.666864
C82	C	1.653308	0.084771	-0.166864
C83	C	1.175356	-0.221869	-0.398289
C84	C	1.675356	0.278131	0.101711
C85	C	1.179269	-0.143688	-0.395338
C86	C	1.679269	0.356312	0.104662
C87	C	1.206841	-0.374012	-0.704267
C88	C	1.706841	0.125988	-0.204267
C89	C	1.203219	-0.376787	-0.777728
C90	C	1.703219	0.123213	-0.277728
C91	C	1.146067	-0.420784	-0.813784
C92	C	1.646067	0.079216	-0.313784
C93	C	1.092528	-0.462002	-0.776375
C94	C	1.592528	0.037998	-0.276375
C95	C	1.096147	-0.459223	-0.702916
C96	C	1.596147	0.040777	-0.202916
C97	C	1.129306	-0.433662	-1.033411
C98	C	1.629306	0.066338	-0.533411
C99	C	1.125693	-0.436440	-1.106876
C100	C	1.625693	0.063560	-0.606876
C101	C	1.236383	-0.351224	-1.108223
C102	C	1.736383	0.148776	-0.608223
C103	C	1.240000	-0.348451	-1.034763
C104	C	1.740000	0.151549	-0.534763
C105	C	1.186458	-0.389667	-0.997360
C106	C	1.686458	0.110333	-0.497360
N107	N	1.142365	-0.423623	-0.888872
N108	N	1.642365	0.076377	-0.388872
N109	N	1.190157	-0.386823	-0.922273
N110	N	1.690157	0.113177	-0.422273
C111	C	1.175211	-0.398371	-0.222462
C112	C	1.675211	0.101629	0.277538
C113	C	1.179226	-0.395223	-0.144279
C114	C	1.679226	0.104777	0.355721
H115	H	1.253294	-0.674284	-0.338126
H116	H	1.753294	-0.174284	0.161874
C117	C	1.070428	-0.991720	-0.478996
C118	C	1.570428	-0.491720	0.021004
H119	H	1.080759	-0.942801	-0.471034
H120	H	1.580759	-0.442801	0.028966
H121	H	1.014575	-1.000921	-0.466637
H122	H	1.514575	-0.500921	0.033363
H123	H	1.079626	-1.006063	-0.527267
H124	H	1.579626	-0.506063	-0.027267
C125	C	0.686850	-0.480194	-0.479818
C126	C	1.186850	0.019806	0.020182
H127	H	0.745318	-0.476030	-0.475644
H128	H	1.245318	0.023970	0.024356
H129	H	0.670900	-0.471166	-0.526102
H130	H	1.170900	0.028834	-0.026102
H131	H	0.670828	-0.526423	-0.470594
H132	H	1.170828	-0.026423	0.029406
H133	H	0.657483	-0.344448	-0.344508
H134	H	1.157483	0.155552	0.155492
C135	C	1.269705	-0.325611	-0.664612
C136	C	1.769705	0.174389	-0.164612
H137	H	1.301062	-0.301456	-0.697412
H138	H	1.801062	0.198544	-0.197412
H139	H	1.305944	-0.353046	-0.638585
H140	H	1.805944	0.146954	-0.138585
H141	H	1.240885	-0.292457	-0.633382
H142	H	1.740885	0.207543	-0.133382
C143	C	1.262109	-0.331452	-0.818869
C144	C	1.762109	0.168548	-0.318869
H145	H	1.296672	-0.304859	-0.786875
H146	H	1.796672	0.195141	-0.286875
H147	H	1.230480	-0.300466	-0.844949
H148	H	1.730480	0.199534	-0.344949
H149	H	1.295522	-0.361067	-0.850158
H150	H	1.795522	0.138933	-0.350158
C151	C	1.029619	-0.815489	-0.510289
C152	C	1.529619	-0.315489	-0.010289
H153	H	1.035136	-0.864595	-0.506060
H154	H	1.535136	-0.364595	-0.006060
H155	H	1.039987	-0.805751	-0.557637
H156	H	1.539987	-0.305751	-0.057637
H157	H	0.974945	-0.800609	-0.497001
H158	H	1.474945	-0.300609	0.002999
C159	C	1.037281	-0.504580	-0.661773
C160	C	1.537281	-0.004580	-0.161773
H161	H	1.002735	-0.531190	-0.693767
H162	H	1.502735	-0.031190	-0.193767
H163	H	1.003862	-0.474985	-0.630477
H164	H	1.503862	0.025015	-0.130477
H165	H	1.068936	-0.535562	-0.635703
H166	H	1.568936	-0.035562	-0.135703
H167	H	1.045991	-0.497823	-0.805737
H168	H	1.545991	0.002177	-0.305737
H169	H	1.286541	-0.312627	-1.005411
H170	H	1.786541	0.187373	-0.505411
C171	C	1.037183	-0.661220	-0.504394
C172	C	1.537183	-0.161220	-0.004394
H173	H	1.002630	-0.693227	-0.530986
H174	H	1.502630	-0.193227	-0.030986
H175	H	1.068812	-0.635106	-0.535381
H176	H	1.568812	-0.135106	-0.035381
H177	H	1.003760	-0.629965	-0.474753
H178	H	1.503760	-0.129965	0.025247
C179	C	1.295267	-0.305885	-1.149367
C180	C	1.795267	0.194115	-0.649367
H181	H	1.284924	-0.313836	-1.198280
H182	H	1.784924	0.186164	-0.698280
H183	H	1.351123	-0.318216	-1.140209
H184	H	1.851123	0.181784	-0.640209
H185	H	1.286068	-0.257624	-1.135000
H186	H	1.786068	0.242376	-0.635000
H187	H	1.079150	-0.472269	-1.136230
H188	H	1.579150	0.027731	-0.636230
H189	H	1.085720	-0.467234	-1.002968
H190	H	1.585720	0.032766	-0.502968
H191	H	1.246769	-0.807554	-0.343228
H192	H	1.746769	-0.307554	0.156772
C193	C	1.302873	-0.994466	-0.300170
C194	C	1.802873	-0.494466	0.199830
H195	H	1.334253	-1.027254	-0.276057
H196	H	1.834253	-0.527254	0.223943
H197	H	1.274059	-0.963265	-0.266990
H198	H	1.774059	-0.463265	0.233010
H199	H	1.339102	-0.968407	-0.327626
H200	H	1.839102	-0.468407	0.172374
H201	H	1.280009	-1.138056	-0.317828
H202	H	1.780009	-0.638056	0.182172
H203	H	1.079201	-1.135677	-0.472337
H204	H	1.579201	-0.635677	0.027663
