data_functionalizedCrystal
_audit_creation_method	'MofGen! by Chris Wilmer'
_symmetry_space_group_name_H-M	'P1'
_symmetry_Int_Tables_number	1
_symmetry_cell_setting	triclinic
loop_
_symmetry_equiv_pos_as_xyz
  x,y,z
_cell_length_a	19.805407
_cell_length_b	19.120786
_cell_length_c	19.805399
_cell_angle_alpha	87.531070
_cell_angle_beta	89.982197
_cell_angle_gamma	92.462474
loop_
_atom_site_label
_atom_site_type_symbol
_atom_site_fract_x
_atom_site_fract_y
_atom_site_fract_z
Zn1	Zn	1.023242	-0.279696	-0.371182
Zn2	Zn	1.273242	-0.029696	-0.121182
Zn3	Zn	1.523242	0.220304	0.128818
Zn4	Zn	1.773242	0.470304	0.378818
Zn5	Zn	1.018330	-0.397155	-0.253161
Zn6	Zn	1.268330	-0.147155	-0.003161
Zn7	Zn	1.518330	0.102845	0.246839
Zn8	Zn	1.768330	0.352845	0.496839
Zn9	Zn	0.910056	-0.279710	-0.258009
Zn10	Zn	1.160056	-0.029710	-0.008009
Zn11	Zn	1.410056	0.220290	0.241991
Zn12	Zn	1.660056	0.470290	0.491991
Zn13	Zn	0.905195	-0.397112	-0.366313
Zn14	Zn	1.155195	-0.147112	-0.116313
Zn15	Zn	1.405195	0.102888	0.133687
Zn16	Zn	1.655195	0.352888	0.383687
O17	O	0.964206	-0.338418	-0.312166
O18	O	1.214206	-0.088418	-0.062166
O19	O	1.464206	0.161582	0.187834
O20	O	1.714206	0.411582	0.437834
O21	O	1.117306	-0.295289	-0.355535
O22	O	1.367306	-0.045289	-0.105535
O23	O	1.617306	0.204711	0.144465
O24	O	1.867306	0.454711	0.394465
O25	O	1.003946	-0.381599	-0.159087
O26	O	1.253946	-0.131599	0.090913
O27	O	1.503946	0.118401	0.340913
O28	O	1.753946	0.368401	0.590913
O29	O	0.929160	-0.181418	-0.277088
O30	O	1.179160	0.068582	-0.027088
O31	O	1.429160	0.318582	0.222912
O32	O	1.679160	0.568582	0.472912
O33	O	1.113698	-0.381586	-0.268826
O34	O	1.363698	-0.131586	-0.018826
O35	O	1.613698	0.118414	0.231174
O36	O	1.863698	0.368414	0.481174
O37	O	1.012318	-0.181408	-0.360235
O38	O	1.262318	0.068592	-0.110235
O39	O	1.512318	0.318592	0.139765
O40	O	1.762318	0.568592	0.389765
O41	O	0.924397	-0.295313	-0.162649
O42	O	1.174397	-0.045313	0.087351
O43	O	1.424397	0.204687	0.337351
O44	O	1.674397	0.454687	0.587351
O45	O	0.814695	-0.295271	-0.272367
O46	O	1.064695	-0.045271	-0.022367
O47	O	1.314695	0.204729	0.227633
O48	O	1.564695	0.454729	0.477633
O49	O	0.920876	-0.381513	-0.461677
O50	O	1.170876	-0.131513	-0.211677
O51	O	1.420876	0.118487	0.038323
O52	O	1.670876	0.368487	0.288323
O53	O	0.811124	-0.381526	-0.351938
O54	O	1.061124	-0.131526	-0.101938
O55	O	1.311124	0.118474	0.148062
O56	O	1.561124	0.368474	0.398062
O57	O	1.007604	-0.295248	-0.465253
O58	O	1.257604	-0.045248	-0.215253
O59	O	1.507604	0.204752	0.034747
O60	O	1.757604	0.454752	0.284747
O61	O	0.999232	-0.495439	-0.264105
O62	O	1.249232	-0.245439	-0.014105
O63	O	1.499232	0.004561	0.235895
O64	O	1.749232	0.254561	0.485895
O65	O	0.916113	-0.495408	-0.347237
O66	O	1.166113	-0.245408	-0.097237
O67	O	1.416113	0.004592	0.152763
O68	O	1.666113	0.254592	0.402763
C69	C	0.788351	-0.338396	-0.312151
C70	C	1.038351	-0.088396	-0.062151
C71	C	1.288351	0.161604	0.187849
C72	C	1.538351	0.411604	0.437849
C73	C	0.713118	-0.338404	-0.312160
C74	C	0.963118	-0.088404	-0.062160
C75	C	1.213118	0.161596	0.187840
C76	C	1.463118	0.411596	0.437840
C77	C	0.679651	-0.293549	-0.357372
C78	C	0.929651	-0.043549	-0.107372
C79	C	1.179651	0.206451	0.142628
C80	C	1.429651	0.456451	0.392628
C81	C	0.608962	-0.293552	-0.357374
C82	C	0.858962	-0.043552	-0.107374
C83	C	1.108962	0.206448	0.142626
C84	C	1.358962	0.456448	0.392626
C85	C	0.571742	-0.338415	-0.312167
C86	C	0.821742	-0.088415	-0.062167
C87	C	1.071742	0.161585	0.187833
C88	C	1.321742	0.411585	0.437833
C89	C	0.605215	-0.383272	-0.266951
C90	C	0.855215	-0.133272	-0.016951
C91	C	1.105215	0.116728	0.233049
C92	C	1.355215	0.366728	0.483049
C93	C	0.675902	-0.383264	-0.266945
C94	C	0.925902	-0.133264	-0.016945
C95	C	1.175902	0.116736	0.233055
C96	C	1.425902	0.366736	0.483055
C97	C	0.320140	-0.383304	-0.266970
C98	C	0.570140	-0.133304	-0.016970
C99	C	0.820140	0.116696	0.233030
C100	C	1.070140	0.366696	0.483030
C101	C	0.249448	-0.383309	-0.266980
C102	C	0.499448	-0.133309	-0.016980
C103	C	0.749448	0.116691	0.233020
C104	C	0.999448	0.366691	0.483020
C105	C	0.253200	-0.293592	-0.357399
C106	C	0.503200	-0.043592	-0.107399
C107	C	0.753200	0.206408	0.142601
C108	C	1.003200	0.456408	0.392601
C109	C	0.323887	-0.293584	-0.357393
C110	C	0.573887	-0.043584	-0.107393
C111	C	0.823887	0.206416	0.142607
C112	C	1.073887	0.456416	0.392607
C113	C	0.357354	-0.338438	-0.312175
C114	C	0.607354	-0.088438	-0.062175
C115	C	0.857354	0.161562	0.187825
C116	C	1.107354	0.411562	0.437825
C117	C	0.434003	-0.338432	-0.312172
C118	C	0.684003	-0.088432	-0.062172
C119	C	0.934003	0.161568	0.187828
C120	C	1.184003	0.411568	0.437828
C121	C	0.495095	-0.338425	-0.312173
C122	C	0.745095	-0.088425	-0.062173
C123	C	0.995095	0.161575	0.187827
C124	C	1.245095	0.411575	0.437827
C125	C	0.956630	-0.520909	-0.304632
C126	C	1.206630	-0.270909	-0.054632
C127	C	1.456630	-0.020909	0.195368
C128	C	1.706630	0.229091	0.445368
C129	C	0.953452	-0.598979	-0.301431
C130	C	1.203452	-0.348979	-0.051431
C131	C	1.453452	-0.098979	0.198569
C132	C	1.703452	0.151021	0.448569
C133	C	0.995221	-0.635591	-0.343253
C134	C	1.245221	-0.385591	-0.093253
C135	C	1.495221	-0.135591	0.156747
C136	C	1.745221	0.114409	0.406747
C137	C	0.992232	-0.708946	-0.340247
C138	C	1.242232	-0.458946	-0.090247
C139	C	1.492232	-0.208946	0.159753
C140	C	1.742232	0.041054	0.409753
C141	C	0.947475	-0.745688	-0.295415
C142	C	1.197475	-0.495688	-0.045415
C143	C	1.447475	-0.245688	0.204585
C144	C	1.697475	0.004312	0.454585
C145	C	0.905701	-0.709071	-0.253591
C146	C	1.155701	-0.459071	-0.003591
C147	C	1.405701	-0.209071	0.246409
C148	C	1.655701	0.040929	0.496409
C149	C	0.908688	-0.635717	-0.256601
C150	C	1.158688	-0.385717	-0.006601
C151	C	1.408688	-0.135717	0.243399
C152	C	1.658688	0.114283	0.493399
C153	C	0.936290	-0.967173	-0.284162
C154	C	1.186290	-0.717173	-0.034162
C155	C	1.436290	-0.467173	0.215838
C156	C	1.686290	-0.217173	0.465838
C157	C	0.933308	-1.040533	-0.281153
C158	C	1.183308	-0.790533	-0.031153
C159	C	1.433308	-0.540533	0.218847
C160	C	1.683308	-0.290533	0.468847
C161	C	1.019838	-1.040402	-0.367810
C162	C	1.269838	-0.790402	-0.117810
C163	C	1.519838	-0.540402	0.132190
C164	C	1.769838	-0.290402	0.382190
C165	C	1.022824	-0.967047	-0.370813
C166	C	1.272824	-0.717047	-0.120813
C167	C	1.522824	-0.467047	0.129187
C168	C	1.772824	-0.217047	0.379187
C169	C	0.981047	-0.930436	-0.328992
C170	C	1.231047	-0.680436	-0.078992
C171	C	1.481047	-0.430436	0.171008
C172	C	1.731047	-0.180436	0.421008
C173	C	0.944420	-0.820669	-0.292339
C174	C	1.194420	-0.570669	-0.042339
C175	C	1.444420	-0.320669	0.207661
C176	C	1.694420	-0.070669	0.457661
C177	C	0.984099	-0.855457	-0.332072
C178	C	1.234099	-0.605457	-0.082072
C179	C	1.484099	-0.355457	0.167928
C180	C	1.734099	-0.105457	0.417928
C181	C	1.140748	-0.338441	-0.312182
C182	C	1.390748	-0.088441	-0.062182
C183	C	1.640748	0.161559	0.187818
C184	C	1.890748	0.411559	0.437818
C185	C	1.215979	-0.338450	-0.312189
C186	C	1.465979	-0.088450	-0.062189
C187	C	1.715979	0.161550	0.187811
C188	C	1.965979	0.411550	0.437811
C189	C	0.964246	-0.338374	-0.488711
C190	C	1.214246	-0.088374	-0.238711
C191	C	1.464246	0.161626	0.011289
C192	C	1.714246	0.411626	0.261289
C193	C	0.964262	-0.338355	-0.563944
C194	C	1.214262	-0.088355	-0.313944
C195	C	1.464262	0.161645	-0.063944
C196	C	1.714262	0.411645	0.186056
C197	C	0.971829	-0.155215	-0.319745
C198	C	1.221829	0.094785	-0.069745
C199	C	1.471829	0.344785	0.180255
C200	C	1.721829	0.594785	0.430255
C201	C	0.975078	-0.077144	-0.322975
C202	C	1.225078	0.172856	-0.072975
C203	C	1.475078	0.422856	0.177025
C204	C	1.725078	0.672856	0.427025
C205	C	1.009423	-0.293435	-0.601152
C206	C	1.259423	-0.043435	-0.351152
C207	C	1.509423	0.206565	-0.101152
C208	C	1.759423	0.456565	0.148848
C209	C	1.009431	-0.293414	-0.671841
C210	C	1.259431	-0.043414	-0.421841
C211	C	1.509431	0.206586	-0.171841
C212	C	1.759431	0.456586	0.078159
C213	C	0.964281	-0.338318	-0.705321
C214	C	1.214281	-0.088318	-0.455321
C215	C	1.464281	0.161682	-0.205321
C216	C	1.714281	0.411682	0.044679
C217	C	0.919115	-0.383241	-0.668108
C218	C	1.169115	-0.133241	-0.418108
C219	C	1.419115	0.116759	-0.168108
C220	C	1.669115	0.366759	0.081892
C221	C	0.919105	-0.383257	-0.597420
C222	C	1.169105	-0.133257	-0.347420
C223	C	1.419105	0.116743	-0.097420
C224	C	1.669105	0.366743	0.152580
C225	C	0.919156	-0.383175	-0.953184
C226	C	1.169156	-0.133175	-0.703184
C227	C	1.419156	0.116825	-0.453184
C228	C	1.669156	0.366825	-0.203184
C229	C	0.919172	-0.383157	-1.023877
C230	C	1.169172	-0.133157	-0.773877
C231	C	1.419172	0.116843	-0.523877
C232	C	1.669172	0.366843	-0.273877
C233	C	1.009482	-0.293332	-1.027605
C234	C	1.259482	-0.043332	-0.777605
C235	C	1.509482	0.206668	-0.527605
C236	C	1.759482	0.456668	-0.277605
C237	C	1.009472	-0.293349	-0.956917
C238	C	1.259472	-0.043349	-0.706917
C239	C	1.509472	0.206651	-0.456917
C240	C	1.759472	0.456651	-0.206917
C241	C	0.964304	-0.338268	-0.919711
C242	C	1.214304	-0.088268	-0.669711
C243	C	1.464304	0.161732	-0.419711
C244	C	1.714304	0.411732	-0.169711
C245	C	0.964295	-0.338289	-0.843061
C246	C	1.214295	-0.088289	-0.593061
C247	C	1.464295	0.161711	-0.343061
C248	C	1.714295	0.411711	-0.093061
C249	C	0.964292	-0.338302	-0.781969
C250	C	1.214292	-0.088302	-0.531969
C251	C	1.464292	0.161698	-0.281969
C252	C	1.714292	0.411698	-0.031969
C253	C	0.964207	-0.338412	-0.136311
C254	C	1.214207	-0.088412	0.113689
C255	C	1.464207	0.161588	0.363689
C256	C	1.714207	0.411588	0.613689
C257	C	0.964329	-0.338232	-0.061087
C258	C	1.214329	-0.088232	0.188913
C259	C	1.464329	0.161768	0.438913
C260	C	1.714329	0.411768	0.688913
H261	H	0.574905	-0.419797	-0.230139
H262	H	0.824905	-0.169797	0.019861
H263	H	1.074905	0.080203	0.269861
H264	H	1.324905	0.330203	0.519861
F265	F	0.217577	-0.245851	-0.405523
F266	F	0.467577	0.004149	-0.155523
F267	F	0.717577	0.254149	0.094477
F268	F	0.967577	0.504149	0.344477
F269	F	0.858061	-0.748177	-0.205883
F270	F	1.108061	-0.498177	0.044117
F271	F	1.358061	-0.248177	0.294117
F272	F	1.608061	0.001823	0.544117
H273	H	0.581716	-0.257028	-0.394191
H274	H	0.831716	-0.007028	-0.144191
H275	H	1.081716	0.242972	0.105809
H276	H	1.331716	0.492972	0.355809
H277	H	0.219145	-0.419844	-0.230165
H278	H	0.469145	-0.169844	0.019835
H279	H	0.719145	0.080156	0.269835
H280	H	0.969145	0.330156	0.519835
F281	F	1.070459	-0.927949	-0.418530
F282	F	1.320459	-0.677949	-0.168530
F283	F	1.570459	-0.427949	0.081470
F284	F	1.820459	-0.177949	0.331470
F285	F	1.057519	-0.245628	-0.711436
F286	F	1.307519	0.004372	-0.461436
F287	F	1.557519	0.254372	-0.211436
F288	F	1.807519	0.504372	0.038564
F289	F	1.057529	-0.245558	-0.921289
F290	F	1.307529	0.004442	-0.671289
F291	F	1.557529	0.254442	-0.421289
F292	F	1.807529	0.504442	-0.171289
H293	H	1.046258	-0.256754	-1.057907
H294	H	1.296258	-0.006754	-0.807907
H295	H	1.546258	0.243246	-0.557907
H296	H	1.796258	0.493246	-0.307907
H297	H	0.354188	-0.257054	-0.394208
H298	H	0.604188	-0.007054	-0.144208
H299	H	0.854188	0.242946	0.105792
H300	H	1.104188	0.492946	0.355792
H301	H	0.347380	-0.419827	-0.230151
H302	H	0.597380	-0.169827	0.019849
H303	H	0.847380	0.080173	0.269849
H304	H	1.097380	0.330173	0.519849
F305	F	0.711521	-0.431006	-0.218825
F306	F	0.961521	-0.181006	0.031175
F307	F	1.211521	0.068994	0.281175
F308	F	1.461521	0.318994	0.531175
F309	F	0.871060	-0.431028	-0.703742
F310	F	1.121060	-0.181028	-0.453742
F311	F	1.371060	0.068972	-0.203742
F312	F	1.621060	0.318972	0.046258
F313	F	1.042861	-0.596494	-0.390966
F314	F	1.292861	-0.346494	-0.140966
F315	F	1.542861	-0.096494	0.109034
F316	F	1.792861	0.153506	0.359034
F317	F	1.057482	-0.245644	-0.565526
F318	F	1.307482	0.004356	-0.315526
F319	F	1.557482	0.254356	-0.065526
F320	F	1.807482	0.504356	0.184474
F321	F	0.871114	-0.430952	-1.059508
F322	F	1.121114	-0.180952	-0.809508
F323	F	1.371114	0.069048	-0.559508
F324	F	1.621114	0.319048	-0.309508
F325	F	0.871085	-0.430983	-0.913596
F326	F	1.121085	-0.180983	-0.663596
F327	F	1.371085	0.069017	-0.413596
F328	F	1.621085	0.319017	-0.163596
H329	H	1.026250	-0.738753	-0.374297
H330	H	1.276250	-0.488753	-0.124297
H331	H	1.526250	-0.238753	0.125703
H332	H	1.776250	0.011247	0.375703
H333	H	0.882324	-0.419829	-0.567127
H334	H	1.132324	-0.169829	-0.317127
H335	H	1.382324	0.080171	-0.067127
H336	H	1.632324	0.330171	0.182873
H337	H	0.896859	-1.070446	-0.244645
H338	H	1.146859	-0.820446	0.005355
H339	H	1.396859	-0.570446	0.255355
H340	H	1.646859	-0.320446	0.505355
F341	F	0.719257	-0.245802	-0.405491
F342	F	0.969257	0.004198	-0.155491
F343	F	1.219257	0.254198	0.094509
F344	F	1.469257	0.504198	0.344509
H345	H	0.902275	-0.937371	-0.250108
H346	H	1.152275	-0.687371	-0.000108
H347	H	1.402275	-0.437371	0.249892
H348	H	1.652275	-0.187371	0.499892
F349	F	1.064295	-1.079371	-0.412317
F350	F	1.314295	-0.829371	-0.162317
F351	F	1.564295	-0.579371	0.087683
F352	F	1.814295	-0.329371	0.337683
H353	H	0.907981	-0.850593	-0.255835
H354	H	1.157981	-0.600593	-0.005835
H355	H	1.407981	-0.350593	0.244165
H356	H	1.657981	-0.100593	0.494165
H357	H	0.874673	-0.605909	-0.222546
H358	H	1.124673	-0.355909	0.027454
H359	H	1.374673	-0.105909	0.277454
H360	H	1.624673	0.144091	0.527454
F361	F	1.031727	-0.816352	-0.379787
F362	F	1.281727	-0.566352	-0.129787
F363	F	1.531727	-0.316352	0.120213
F364	F	1.781727	-0.066352	0.370213
