data_functionalizedCrystal
_audit_creation_method	'MofGen! by Chris Wilmer'
_symmetry_space_group_name_H-M	'P1'
_symmetry_Int_Tables_number	1
_symmetry_cell_setting	triclinic
loop_
_symmetry_equiv_pos_as_xyz
  x,y,z
_cell_length_a	25.639242
_cell_length_b	12.645330
_cell_length_c	12.645323
_cell_angle_alpha	89.975130
_cell_angle_beta	89.968748
_cell_angle_gamma	90.013220
loop_
_atom_site_label
_atom_site_type_symbol
_atom_site_fract_x
_atom_site_fract_y
_atom_site_fract_z
Zn1	Zn	0.799348	-0.422157	-0.599689
Zn2	Zn	0.799290	-0.599445	-0.422429
Zn3	Zn	0.711911	-0.422183	-0.422407
Zn4	Zn	0.711902	-0.599365	-0.599618
O5	O	0.755613	-0.510788	-0.511036
O6	O	0.872506	-0.445698	-0.576214
O7	O	0.787678	-0.575975	-0.274079
O8	O	0.723538	-0.273832	-0.445944
O9	O	0.872463	-0.575951	-0.445982
O10	O	0.787778	-0.273813	-0.576192
O11	O	0.723481	-0.445741	-0.274062
O12	O	0.638744	-0.445663	-0.445875
O13	O	0.723522	-0.575814	-0.747975
O14	O	0.638738	-0.575839	-0.576071
O15	O	0.787769	-0.445620	-0.748027
O16	O	0.787670	-0.747782	-0.445913
O17	O	0.723466	-0.747723	-0.576093
C18	C	0.755575	-0.786217	-0.511021
C19	C	0.755606	-0.904047	-0.511050
C20	C	0.619770	-0.510746	-0.510964
C21	C	0.561656	-0.510754	-0.510958
C22	C	0.715382	-1.071619	-0.593199
C23	C	0.715176	-0.949059	-0.592934
C24	C	0.740689	-0.948639	-0.399323
C25	C	0.740443	-1.071238	-0.399822
C26	C	0.810993	-1.071145	-0.539722
C27	C	0.810654	-0.948539	-0.542164
C28	C	0.201298	-0.578683	-0.578764
C29	C	0.146694	-0.578690	-0.578781
O30	O	0.118462	-0.636394	-0.636372
N31	N	0.119374	-0.510817	-0.511105
C32	C	0.146660	-0.442925	-0.443415
O33	O	0.118408	-0.385194	-0.385853
C34	C	0.201264	-0.442914	-0.443404
C35	C	0.228581	-0.510799	-0.511077
C36	C	0.228616	-0.646562	-0.646433
C37	C	0.283217	-0.646557	-0.646415
C38	C	0.310500	-0.578673	-0.578728
C39	C	0.283182	-0.510794	-0.511059
C40	C	0.228549	-0.375018	-0.375720
C41	C	0.283156	-0.375012	-0.375716
C42	C	0.310474	-0.442898	-0.443389
C43	C	0.365065	-0.442905	-0.443354
N44	N	0.392386	-0.510778	-0.511030
C45	C	0.365103	-0.578662	-0.578717
C46	C	0.031990	-0.442952	-0.443443
C47	C	-0.022613	-0.442968	-0.443448
C48	C	-0.022575	-0.578731	-0.578816
C49	C	0.032028	-0.578720	-0.578805
C50	C	0.059310	-0.510825	-0.511120
C51	C	0.479768	-0.578646	-0.578673
C52	C	0.534373	-0.578638	-0.578645
C53	C	0.534331	-0.442871	-0.443281
C54	C	0.479730	-0.442882	-0.443304
C55	C	0.452450	-0.510774	-0.511009
O56	O	0.393332	-0.385227	-0.385795
O57	O	0.393362	-0.636373	-0.636279
C58	C	0.891986	-0.510830	-0.511108
C59	C	0.950100	-0.510849	-0.511139
C60	C	0.755651	-0.510706	-0.787541
C61	C	0.755668	-0.510671	-0.905371
C62	C	0.755665	-0.234282	-0.511074
C63	C	0.755688	-0.116452	-0.511090
C64	C	0.715125	-0.592190	-1.072902
C65	C	0.715231	-0.592593	-0.950342
C66	C	0.810758	-0.540998	-0.949908
C67	C	0.810536	-0.541509	-1.072506
C68	C	0.741640	-0.398369	-1.072565
C69	C	0.740411	-0.399041	-0.949958
C70	C	0.755604	-0.510793	-0.235606
C71	C	0.755689	-0.510529	-0.117776
H72	H	0.724509	-0.918907	-0.675778
H73	H	0.724309	-0.674819	-1.103724
H74	H	0.054267	-0.633997	-0.633913
C75	C	-0.052593	-0.653401	-0.653280
C76	C	-0.112654	-0.653399	-0.653291
C77	C	-0.142674	-0.728065	-0.727749
C78	C	-0.112631	-0.802733	-0.802197
C79	C	-0.052566	-0.802738	-0.802189
C80	C	-0.022547	-0.728072	-0.727731
H81	H	-0.134896	-0.598123	-0.598178
H82	H	-0.187138	-0.728062	-0.727755
H83	H	-0.134853	-0.858006	-0.857315
H84	H	-0.030324	-0.858014	-0.857301
H85	H	0.021917	-0.728076	-0.727725
C86	C	0.198612	-0.721247	-0.720893
C87	C	0.206120	-0.841744	-0.712022
C88	C	0.176120	-0.916442	-0.786481
C89	C	0.138613	-0.870643	-0.869811
C90	C	0.131103	-0.750140	-0.878686
C91	C	0.161103	-0.675442	-0.804227
H92	H	0.233887	-0.875653	-0.650333
H93	H	0.181680	-1.005647	-0.779911
H94	H	0.116406	-0.925939	-0.924930
H95	H	0.103337	-0.716231	-0.940375
H96	H	0.155543	-0.586237	-0.810797
C97	C	0.779086	-0.909253	-0.314409
C98	C	0.759025	-0.843449	-0.220371
C99	C	0.797423	-0.804059	-0.135459
C100	C	0.855880	-0.830474	-0.144585
C101	C	0.875944	-0.896281	-0.238627
C102	C	0.837546	-0.935670	-0.323539
H103	H	0.715749	-0.823892	-0.213612
H104	H	0.782570	-0.755344	-0.065843
H105	H	0.884304	-0.801315	-0.081728
H106	H	0.919220	-0.915838	-0.245386
H107	H	0.852399	-0.984385	-0.393155
C108	C	0.564346	-0.368187	-0.368837
C109	C	0.556805	-0.376661	-0.248307
C110	C	0.586820	-0.301966	-0.173871
C111	C	0.624376	-0.218797	-0.219966
C112	C	0.631918	-0.210320	-0.340502
C113	C	0.601903	-0.285015	-0.414937
H114	H	0.529002	-0.438231	-0.214180
H115	H	0.581237	-0.308241	-0.084642
H116	H	0.646595	-0.163503	-0.164864
H117	H	0.659721	-0.148750	-0.374629
H118	H	0.607487	-0.278739	-0.504166
C119	C	0.685643	-0.368134	-0.910633
C120	C	0.654901	-0.443868	-0.838375
C121	C	0.600132	-0.412965	-0.799044
C122	C	0.576105	-0.306328	-0.831971
C123	C	0.606846	-0.230588	-0.904233
C124	C	0.661615	-0.261491	-0.943564
H125	H	0.672687	-0.522813	-0.813996
H126	H	0.577375	-0.469034	-0.745551
H127	H	0.535561	-0.283452	-0.802857
H128	H	0.589060	-0.151643	-0.928612
H129	H	0.684372	-0.205422	-0.997057
C130	C	0.777411	-0.312499	-0.908612
C131	C	0.781996	-0.292161	-0.788917
C132	C	0.819002	-0.205624	-0.747573
C133	C	0.851423	-0.139426	-0.825922
C134	C	0.846839	-0.159762	-0.945624
C135	C	0.809833	-0.246299	-0.986969
H136	H	0.757995	-0.341167	-0.730912
H137	H	0.822395	-0.190570	-0.658961
H138	H	0.878817	-0.075366	-0.795317
H139	H	0.870841	-0.110757	-1.003630
H140	H	0.806440	-0.261353	-1.075581
C141	C	0.852757	-0.464666	-1.112614
C142	C	0.837430	-0.369901	-1.182513
C143	C	0.879654	-0.293067	-1.222612
C144	C	0.937205	-0.310999	-1.192813
C145	C	0.952535	-0.405768	-1.122911
C146	C	0.910311	-0.482602	-1.082812
H147	H	0.794824	-0.356623	-1.204576
H148	H	0.868305	-0.222912	-1.274359
H149	H	0.968461	-0.254121	-1.222497
H150	H	0.995140	-0.419046	-1.100848
H151	H	0.921659	-0.552757	-1.031065
H152	H	0.824601	-1.101991	-0.619809
C153	C	0.853362	-0.907148	-0.467259
C154	C	0.910496	-0.941017	-0.483484
C155	C	0.953202	-0.899628	-0.408568
C156	C	0.938775	-0.824371	-0.317427
C157	C	0.881638	-0.790499	-0.301198
C158	C	0.838932	-0.831887	-0.376114
H159	H	0.921178	-0.996730	-0.550956
H160	H	0.995498	-0.924703	-0.420583
H161	H	0.970388	-0.793733	-0.261970
H162	H	0.870956	-0.734785	-0.233727
H163	H	0.796635	-0.806812	-0.364100
H164	H	0.768526	-1.100899	-0.336557
C165	C	0.564422	-0.653313	-0.653093
C166	C	0.601935	-0.736487	-0.607010
C167	C	0.631981	-0.811158	-0.681457
C168	C	0.624514	-0.802655	-0.801987
C169	C	0.586999	-0.719478	-0.848076
C170	C	0.556953	-0.644807	-0.773629
H171	H	0.607464	-0.742784	-0.517782
H172	H	0.659751	-0.872731	-0.647338
H173	H	0.646755	-0.857932	-0.857097
H174	H	0.581470	-0.713181	-0.937305
H175	H	0.529182	-0.583233	-0.807748
H176	H	0.822870	-0.622130	-0.919223
C177	C	0.852684	-0.463192	-0.910564
C178	C	0.862725	-0.450618	-0.791175
C179	C	0.904649	-0.372807	-0.751831
C180	C	0.936533	-0.307571	-0.831876
C181	C	0.926493	-0.320143	-0.951272
C182	C	0.884569	-0.397954	-0.990616
H183	H	0.839121	-0.498911	-0.731914
H184	H	0.912080	-0.363501	-0.663446
H185	H	0.967568	-0.249971	-0.802751
H186	H	0.950097	-0.271850	-1.010533
H187	H	0.877138	-0.407261	-1.079002
H188	H	0.822444	-0.623501	-1.101120
C189	C	0.449765	-0.653331	-0.653140
C190	C	0.457266	-0.773830	-0.644270
C191	C	0.427263	-0.848520	-0.718731
C192	C	0.389759	-0.802712	-0.802062
C193	C	0.382256	-0.682207	-0.810935
C194	C	0.412259	-0.607517	-0.736475
H195	H	0.485030	-0.807746	-0.582581
H196	H	0.432818	-0.937727	-0.712162
H197	H	0.367549	-0.858002	-0.857182
H198	H	0.354492	-0.648291	-0.872625
H199	H	0.406705	-0.518310	-0.743044
H200	H	0.305454	-0.701834	-0.701524
H201	H	0.702168	-0.370726	-1.103457
C202	C	0.686639	-0.907293	-0.365964
C203	C	0.655993	-0.833129	-0.439898
C204	C	0.601942	-0.791785	-0.406547
C205	C	0.578537	-0.824607	-0.299261
C206	C	0.609183	-0.898775	-0.225320
C207	C	0.663235	-0.940119	-0.258672
H208	H	0.673318	-0.808829	-0.519324
H209	H	0.579255	-0.736881	-0.461283
H210	H	0.538525	-0.794002	-0.274572
H211	H	0.591858	-0.923075	-0.145895
H212	H	0.685921	-0.995023	-0.203936
C213	C	0.061997	-0.368276	-0.368968
C214	C	0.054494	-0.247776	-0.377812
C215	C	0.084498	-0.173100	-0.303337
C216	C	0.122003	-0.218925	-0.220017
C217	C	0.129507	-0.339432	-0.211170
C218	C	0.099504	-0.414107	-0.285645
H219	H	0.026729	-0.213848	-0.439493
H220	H	0.078943	-0.083893	-0.309887
H221	H	0.144213	-0.163646	-0.164886
H222	H	0.157272	-0.373360	-0.149488
H223	H	0.105059	-0.503315	-0.279094
H224	H	0.771185	-0.337528	-1.101587
C225	C	0.313166	-0.300328	-0.301257
C226	C	0.350726	-0.217151	-0.347324
C227	C	0.380736	-0.142470	-0.272864
C228	C	0.373185	-0.150965	-0.152338
C229	C	0.335623	-0.234146	-0.106266
C230	C	0.305614	-0.308827	-0.180725
H231	H	0.356317	-0.210859	-0.436550
H232	H	0.408541	-0.080895	-0.306971
H233	H	0.395400	-0.095682	-0.097219
H234	H	0.330032	-0.240438	-0.017040
H235	H	0.277808	-0.370402	-0.146618
H236	H	0.674637	-1.102513	-0.574471
H237	H	-0.044850	-0.387700	-0.388331
C238	C	0.727875	-1.111351	-0.705486
C239	C	0.728040	-1.230804	-0.729119
C240	C	0.740536	-1.270542	-0.841408
C241	C	0.752868	-1.190828	-0.930065
C242	C	0.752703	-1.071368	-0.906435
C243	C	0.740207	-1.031629	-0.794145
H244	H	0.718911	-1.289819	-0.663487
H245	H	0.740658	-1.358975	-0.858901
H246	H	0.762118	-1.220245	-1.013189
H247	H	0.761832	-1.012352	-0.972066
H248	H	0.740085	-0.943197	-0.776653
H249	H	0.674175	-0.919818	-0.573964
H250	H	0.700015	-1.099922	-0.375569
H251	H	0.821903	-0.919390	-0.624389
H252	H	0.841022	-1.100138	-0.479919
H253	H	0.206316	-0.319742	-0.320610
H254	H	0.674380	-0.573615	-0.920228
H255	H	0.457487	-0.387607	-0.388197
H256	H	0.674153	-0.573393	-1.102363
H257	H	0.724506	-0.675743	-0.921031
