data_functionalizedCrystal
_audit_creation_method	'MofGen! by Chris Wilmer'
_symmetry_space_group_name_H-M	'P1'
_symmetry_Int_Tables_number	1
_symmetry_cell_setting	triclinic
loop_
_symmetry_equiv_pos_as_xyz
  x,y,z
_cell_length_a	17.077404
_cell_length_b	12.645330
_cell_length_c	17.077396
_cell_angle_alpha	90.026204
_cell_angle_beta	90.019501
_cell_angle_gamma	90.012871
loop_
_atom_site_label
_atom_site_type_symbol
_atom_site_fract_x
_atom_site_fract_y
_atom_site_fract_z
Zn1	Zn	1.200110	-0.422033	0.443855
Zn2	Zn	1.533444	-0.088700	0.777188
Zn3	Zn	1.866777	0.244634	1.110522
Zn4	Zn	1.200041	-0.599318	0.312594
Zn5	Zn	1.533374	-0.265985	0.645928
Zn6	Zn	1.866708	0.067348	0.979261
Zn7	Zn	1.068842	-0.422070	0.312603
Zn8	Zn	1.402176	-0.088737	0.645936
Zn9	Zn	1.735509	0.244596	0.979270
Zn10	Zn	1.068834	-0.599256	0.443818
Zn11	Zn	1.402167	-0.265922	0.777151
Zn12	Zn	1.735500	0.067411	1.110485
O13	O	1.134457	-0.510669	0.378218
O14	O	1.467790	-0.177336	0.711551
O15	O	1.801124	0.155997	1.044884
O16	O	1.309948	-0.445561	0.426455
O17	O	1.643282	-0.112228	0.759788
O18	O	1.976615	0.221106	1.093122
O19	O	1.182612	-0.575848	0.202749
O20	O	1.515945	-0.242515	0.536082
O21	O	1.849278	0.090819	0.869415
O22	O	1.086288	-0.273718	0.330033
O23	O	1.419621	0.059615	0.663367
O24	O	1.752955	0.392949	0.996700
O25	O	1.309897	-0.575812	0.330018
O26	O	1.643230	-0.242479	0.663352
O27	O	1.976564	0.090855	0.996685
O28	O	1.182730	-0.273691	0.426464
O29	O	1.516063	0.059643	0.759797
O30	O	1.849397	0.392976	1.093130
O31	O	1.086221	-0.445624	0.202755
O32	O	1.419554	-0.112291	0.536088
O33	O	1.752887	0.221042	0.869422
O34	O	0.958994	-0.445563	0.329997
O35	O	1.292328	-0.112230	0.663330
O36	O	1.625661	0.221103	0.996664
O37	O	1.086273	-0.575705	0.553670
O38	O	1.419607	-0.242371	0.887003
O39	O	1.752940	0.090962	1.220337
O40	O	0.958988	-0.575741	0.426400
O41	O	1.292321	-0.242407	0.759733
O42	O	1.625655	0.090926	1.093067
O43	O	1.182722	-0.445500	0.553697
O44	O	1.516055	-0.112167	0.887031
O45	O	1.849388	0.221167	1.220364
O46	O	1.182603	-0.747657	0.329982
O47	O	1.515937	-0.414324	0.663316
O48	O	1.849270	-0.080991	0.996649
O49	O	1.086206	-0.747611	0.426392
O50	O	1.419539	-0.414278	0.759725
O51	O	1.752873	-0.080944	1.093058
C52	C	0.930509	-0.510650	0.378196
C53	C	1.263842	-0.177317	0.711529
C54	C	1.597176	0.156017	1.044863
C55	C	0.843259	-0.510667	0.378205
C56	C	1.176593	-0.177334	0.711539
C57	C	1.509926	0.155999	1.044872
C58	C	1.134418	-0.786099	0.378199
C59	C	1.467751	-0.452766	0.711532
C60	C	1.801084	-0.119432	1.044866
C61	C	1.134473	-0.903929	0.378217
C62	C	1.467806	-0.570596	0.711551
C63	C	1.801139	-0.237262	1.044884
C64	C	0.802286	-0.578553	0.428322
C65	C	1.135620	-0.245220	0.761655
C66	C	1.468953	0.088114	1.094989
C67	C	0.720306	-0.578555	0.428334
C68	C	1.053639	-0.245222	0.761668
C69	C	1.386973	0.088111	1.095001
C70	C	0.679300	-0.510677	0.378226
C71	C	1.012633	-0.177343	0.711559
C72	C	1.345966	0.155990	1.044893
C73	C	0.720278	-0.442783	0.328107
C74	C	1.053612	-0.109450	0.661440
C75	C	1.386945	0.223883	0.994774
C76	C	0.802257	-0.442777	0.328099
C77	C	1.135591	-0.109443	0.661432
C78	C	1.468924	0.223890	0.994766
C79	C	0.549408	-0.442804	0.328126
C80	C	0.882742	-0.109471	0.661459
C81	C	1.216075	0.223862	0.994793
C82	C	0.467424	-0.442812	0.328133
C83	C	0.800757	-0.109479	0.661466
C84	C	1.134090	0.223854	0.994799
C85	C	0.467457	-0.578583	0.428361
C86	C	0.800790	-0.245250	0.761695
C87	C	1.134124	0.088084	1.095028
C88	C	0.549436	-0.578576	0.428353
C89	C	0.882769	-0.245243	0.761687
C90	C	1.216103	0.088091	1.095020
C91	C	0.590409	-0.510684	0.378233
C92	C	0.923742	-0.177351	0.711567
C93	C	1.257075	0.155982	1.044900
C94	C	1.195019	-1.071478	0.317443
C95	C	1.528352	-0.738145	0.650776
C96	C	1.861686	-0.404811	0.984110
C97	C	1.195216	-0.948918	0.317592
C98	C	1.528549	-0.615584	0.650925
C99	C	1.861883	-0.282251	0.984259
C100	C	1.156905	-0.948313	0.460961
C101	C	1.490238	-0.614979	0.794295
C102	C	1.823571	-0.281646	1.127628
C103	C	1.157385	-1.070911	0.460639
C104	C	1.490719	-0.737577	0.793972
C105	C	1.824052	-0.404244	1.127305
C106	C	1.051470	-1.071256	0.357063
C107	C	1.384804	-0.737923	0.690397
C108	C	1.718137	-0.404590	1.023730
C109	C	1.051868	-0.948652	0.355208
C110	C	1.385201	-0.615319	0.688541
C111	C	1.718535	-0.281985	1.021874
C112	C	1.339201	-0.510689	0.378240
C113	C	1.672534	-0.177356	0.711573
C114	C	2.005868	0.155977	1.044907
C115	C	1.426451	-0.510698	0.378249
C116	C	1.759784	-0.177365	0.711583
C117	C	2.093118	0.155969	1.044916
C118	C	1.134504	-0.510591	0.582962
C119	C	1.467838	-0.177258	0.916295
C120	C	1.801171	0.156075	1.249629
C121	C	1.134525	-0.510558	0.670212
C122	C	1.467858	-0.177225	1.003545
C123	C	1.801191	0.156109	1.336879
C124	C	1.134518	-0.234164	0.378253
C125	C	1.467851	0.099169	0.711587
C126	C	1.801184	0.432503	1.044920
C127	C	1.134544	-0.116334	0.378269
C128	C	1.467877	0.216999	0.711602
C129	C	1.801210	0.550333	1.044935
C130	C	1.134455	-0.510671	0.174270
C131	C	1.467788	-0.177337	0.507603
C132	C	1.801121	0.155996	0.840936
C133	C	1.134587	-0.510405	0.087020
C134	C	1.467920	-0.177072	0.420354
C135	C	1.801253	0.156261	0.753687
C136	C	1.184747	-0.442755	0.711218
C137	C	1.518080	-0.109421	1.044551
C138	C	1.851414	0.223912	1.377884
C139	C	1.184757	-0.442719	0.793198
C140	C	1.518090	-0.109386	1.126531
C141	C	1.851423	0.223947	1.459865
C142	C	1.134547	-0.510493	0.834171
C143	C	1.467880	-0.177160	1.167505
C144	C	1.801214	0.156173	1.500838
C145	C	1.084319	-0.578300	0.793160
C146	C	1.417652	-0.244966	1.126493
C147	C	1.750985	0.088367	1.459827
C148	C	1.084306	-0.578329	0.711181
C149	C	1.417639	-0.244995	1.044514
C150	C	1.750973	0.088338	1.377848
C151	C	1.084350	-0.578236	0.964030
C152	C	1.417684	-0.244903	1.297363
C153	C	1.751017	0.088431	1.630697
C154	C	1.084364	-0.578208	1.046015
C155	C	1.417697	-0.244875	1.379348
C156	C	1.751031	0.088458	1.712681
C157	C	1.184801	-0.442626	1.046047
C158	C	1.518134	-0.109293	1.379380
C159	C	1.851468	0.224040	1.712714
C160	C	1.184788	-0.442656	0.964068
C161	C	1.518122	-0.109322	1.297401
C162	C	1.851455	0.224011	1.630735
C163	C	1.134561	-0.510464	0.923062
C164	C	1.467894	-0.177130	1.256396
C165	C	1.801228	0.156203	1.589729
H166	H	0.835668	-0.633831	0.469124
H167	H	1.169001	-0.300498	0.802457
H168	H	1.502334	0.032835	1.135790
Cl169	Cl	0.668801	-0.663901	0.491341
Cl170	Cl	1.002134	-0.330568	0.824674
Cl171	Cl	1.335467	0.002765	1.158008
Cl172	Cl	1.290212	-0.903506	0.339252
Cl173	Cl	1.623546	-0.570173	0.672586
Cl174	Cl	1.956879	-0.236839	1.005919
H175	H	1.006411	-1.100265	0.401365
H176	H	1.339745	-0.766932	0.734698
H177	H	1.673078	-0.433599	1.068032
H178	H	1.114198	-0.919168	0.507495
H179	H	1.447532	-0.585835	0.840828
H180	H	1.780865	-0.252501	1.174162
H181	H	1.256218	-1.102208	0.331312
H182	H	1.589552	-0.768875	0.664645
H183	H	1.922885	-0.435541	0.997979
H184	H	1.225697	-0.387413	1.079438
H185	H	1.559030	-0.054080	1.412771
H186	H	1.892363	0.279254	1.746105
H187	H	0.582821	-0.633855	0.469152
H188	H	0.916154	-0.300522	0.802485
H189	H	1.249487	0.032812	1.135818
H190	H	1.043438	-0.633436	0.930646
H191	H	1.376771	-0.300102	1.263979
H192	H	1.710104	0.033231	1.597312
Cl193	Cl	1.249598	-0.900784	0.489158
Cl194	Cl	1.582931	-0.567451	0.822492
Cl195	Cl	1.916264	-0.234117	1.155825
Cl196	Cl	1.019974	-1.119130	0.265530
Cl197	Cl	1.353307	-0.785796	0.598864
Cl198	Cl	1.686641	-0.452463	0.932197
H199	H	0.434093	-0.633860	0.469173
H200	H	0.767426	-0.300527	0.802506
H201	H	1.100759	0.032807	1.135840
Cl202	Cl	1.025747	-0.903875	0.261197
Cl203	Cl	1.359080	-0.570542	0.594530
Cl204	Cl	1.692414	-0.237208	0.927864
H205	H	0.434039	-0.387527	0.287339
H206	H	0.767372	-0.054193	0.620673
H207	H	1.100705	0.279140	0.954006
H208	H	1.225636	-0.387568	0.677863
H209	H	1.558970	-0.054235	1.011196
H210	H	1.892303	0.279098	1.344530
Cl211	Cl	0.978545	-0.901391	0.418592
Cl212	Cl	1.311878	-0.568058	0.751925
Cl213	Cl	1.645212	-0.234725	1.085259
Cl214	Cl	0.600916	-0.357453	0.265117
Cl215	Cl	0.934249	-0.024120	0.598450
Cl216	Cl	1.267583	0.309214	0.931784
Cl217	Cl	1.021234	-0.663400	1.097523
Cl218	Cl	1.354567	-0.330066	1.430857
Cl219	Cl	1.687900	0.003267	1.764190
Cl220	Cl	1.247915	-0.357459	0.912560
Cl221	Cl	1.581248	-0.024126	1.245893
Cl222	Cl	1.914581	0.309208	1.579226
Cl223	Cl	1.021195	-0.663498	0.844670
Cl224	Cl	1.354528	-0.330165	1.178003
Cl225	Cl	1.687861	0.003168	1.511336
H226	H	0.686885	-0.387511	0.287311
H227	H	1.020218	-0.054178	0.620645
H228	H	1.353551	0.279156	0.953978
Cl229	Cl	1.021164	-0.663568	0.659631
Cl230	Cl	1.354497	-0.330234	0.992964
Cl231	Cl	1.687831	0.003099	1.326297
Cl232	Cl	0.853766	-0.357428	0.265095
Cl233	Cl	1.187100	-0.024095	0.598428
Cl234	Cl	1.520433	0.309238	0.931761
Cl235	Cl	1.173497	-0.902589	0.222879
Cl236	Cl	1.506830	-0.569255	0.556212
Cl237	Cl	1.840164	-0.235922	0.889546
Cl238	Cl	1.173629	-1.117109	0.222438
Cl239	Cl	1.506962	-0.783776	0.555772
Cl240	Cl	1.840295	-0.450443	0.889105
H241	H	1.115267	-1.100579	0.507520
H242	H	1.448600	-0.767246	0.840853
H243	H	1.781934	-0.433913	1.174186
Cl244	Cl	1.251136	-1.114937	0.488368
Cl245	Cl	1.584469	-0.781603	0.821701
Cl246	Cl	1.917803	-0.448270	1.155035
H247	H	1.225655	-0.387510	0.826581
H248	H	1.558988	-0.054176	1.159915
H249	H	1.892321	0.279157	1.493248
