data_functionalizedCrystal
_audit_creation_method	'MofGen! by Chris Wilmer'
_symmetry_space_group_name_H-M	'P1'
_symmetry_Int_Tables_number	1
_symmetry_cell_setting	triclinic
loop_
_symmetry_equiv_pos_as_xyz
  x,y,z
_cell_length_a	6.817900
_cell_length_b	7.190339
_cell_length_c	14.858340
_cell_angle_alpha	89.888744
_cell_angle_beta	75.480246
_cell_angle_gamma	119.388276
loop_
_atom_site_label
_atom_site_type_symbol
_atom_site_fract_x
_atom_site_fract_y
_atom_site_fract_z
V1	V	4.125790	0.296452	-0.289300
O2	O	4.021777	-0.012846	-0.284469
O3	O	4.162843	0.586468	-0.286671
O4	O	4.081246	0.292506	-0.415770
O5	O	4.103939	0.283151	-0.154476
V6	V	4.597845	0.259384	-0.273253
O7	O	4.412203	0.377764	-0.324500
O8	O	4.761629	0.178072	-0.238053
O9	O	4.337586	-0.030633	-0.275882
O10	O	4.819255	0.568682	-0.278084
O11	O	4.737093	0.272684	-0.408077
O12	O	4.419183	0.263330	-0.146782
C13	C	3.924420	0.282168	-0.446617
C14	C	3.969850	0.280861	-0.550003
C15	C	4.028524	0.657151	-0.281943
C16	C	4.142230	0.898704	-0.280614
C17	C	4.006740	0.279797	-0.633964
C18	C	4.053034	0.278453	-0.739296
C19	C	4.089946	0.277382	-0.823250
C20	C	4.136246	0.276042	-0.928590
C21	C	4.239352	0.273674	-0.115931
C22	C	4.173158	0.274971	-0.012544
