data_functionalizedCrystal
_audit_creation_method	'MofGen! by Chris Wilmer'
_symmetry_space_group_name_H-M	'P1'
_symmetry_Int_Tables_number	1
_symmetry_cell_setting	triclinic
loop_
_symmetry_equiv_pos_as_xyz
  x,y,z
_cell_length_a	21.395362
_cell_length_b	21.395361
_cell_length_c	21.395355
_cell_angle_alpha	90.019049
_cell_angle_beta	89.956060
_cell_angle_gamma	89.953589
loop_
_atom_site_label
_atom_site_type_symbol
_atom_site_fract_x
_atom_site_fract_y
_atom_site_fract_z
Zn1	Zn	0.957860	0.249246	-0.354583
Zn2	Zn	0.957763	0.354005	-0.249805
Zn3	Zn	0.853075	0.249275	-0.249785
Zn4	Zn	0.853045	0.354018	-0.354510
O5	O	0.905436	0.301636	-0.302171
O6	O	1.045525	0.263125	-0.340724
O7	O	0.943848	0.340119	-0.162124
O8	O	0.867029	0.161593	-0.263709
O9	O	1.045454	0.340091	-0.263743
O10	O	0.944014	0.161572	-0.340704
O11	O	0.866934	0.263174	-0.162109
O12	O	0.765393	0.263187	-0.263637
O13	O	0.866977	0.340113	-0.442197
O14	O	0.765371	0.340141	-0.340578
O15	O	0.943984	0.263137	-0.442251
O16	O	0.943819	0.441685	-0.263672
O17	O	0.866882	0.441695	-0.340598
C18	C	0.742648	0.301669	-0.302098
C19	C	0.673007	0.301698	-0.302082
C20	C	0.905354	0.464424	-0.302143
C21	C	0.905376	0.534065	-0.302152
C22	C	0.640298	0.341822	-0.342085
C23	C	0.574863	0.341806	-0.342113
C24	C	0.542139	0.301674	-0.302126
C25	C	0.574855	0.261543	-0.262120
C26	C	0.640289	0.261555	-0.262098
C27	C	0.438414	0.296627	-0.245721
C28	C	0.372981	0.296619	-0.245742
C29	C	0.340318	0.301633	-0.302195
C30	C	0.373096	0.306668	-0.358629
C31	C	0.438530	0.306681	-0.358607
C32	C	0.471186	0.301656	-0.302146
C33	C	0.236657	0.341742	-0.342232
C34	C	0.171220	0.341723	-0.342261
C35	C	0.171213	0.261462	-0.262263
C36	C	0.236649	0.261479	-0.262240
C37	C	0.269367	0.301622	-0.302223
C38	C	0.945472	0.566752	-0.262139
C39	C	0.945501	0.632188	-0.262156
C40	C	0.905423	0.664933	-0.302179
C41	C	0.865324	0.632238	-0.342200
C42	C	0.865300	0.566804	-0.342186
C43	C	0.849009	0.768664	-0.307074
C44	C	0.849032	0.834097	-0.307083
C45	C	0.905497	0.866754	-0.302224
C46	C	0.961941	0.833970	-0.297343
C47	C	0.961917	0.768536	-0.297329
C48	C	0.905445	0.735886	-0.302198
C49	C	0.945628	0.970394	-0.262227
C50	C	0.945659	1.035830	-0.262249
C51	C	0.865476	1.035879	-0.342289
C52	C	0.865451	0.970444	-0.342271
C53	C	0.905526	0.937705	-0.302237
C54	C	1.068859	0.301603	-0.302244
C55	C	1.138500	0.301589	-0.302275
C56	C	0.905488	0.301623	-0.465594
C57	C	0.905510	0.301618	-0.535235
C58	C	0.905536	1.138213	-0.302223
C59	C	0.905581	1.068571	-0.302273
C60	C	0.945606	0.261535	-0.567978
C61	C	0.945605	0.261508	-0.633413
C62	C	0.905515	0.301575	-0.666104
C63	C	0.865411	0.341661	-0.633353
C64	C	0.865409	0.341682	-0.567919
C65	C	0.900539	0.357992	-0.769767
C66	C	0.900546	0.357972	-0.835200
C67	C	0.905519	0.301509	-0.867924
C68	C	0.910498	0.245065	-0.835208
C69	C	0.910495	0.245086	-0.769774
C70	C	0.905513	0.301556	-0.737056
C71	C	0.945616	0.261393	-0.971619
C72	C	0.945611	0.261365	-1.037056
C73	C	0.865420	0.341524	-1.036995
C74	C	0.865422	0.341547	-0.971560
C75	C	0.905523	0.301482	-0.938876
C76	C	0.905420	0.301603	-0.139383
C77	C	0.905519	0.301432	-0.069742
H78	H	0.666933	0.374509	-0.374644
H79	H	0.832775	0.374190	-0.944901
H80	H	0.914548	0.199088	-0.861851
H81	H	0.978266	0.228767	-0.945007
H82	H	0.978259	0.228910	-0.541370
H83	H	0.803024	0.742081	-0.311033
Cl84	Cl	0.996003	0.211101	-0.674584
Cl85	Cl	0.996075	1.076924	-0.211946
H86	H	0.263297	0.374426	-0.374793
Cl87	Cl	0.277770	0.211037	-0.211945
Cl88	Cl	0.894292	0.428929	-0.876322
H89	H	0.144590	0.374395	-0.374841
Cl90	Cl	0.331781	0.290289	-0.174799
H91	H	0.832846	1.062540	-0.374880
H92	H	0.144570	0.228783	-0.229708
Cl93	Cl	0.996032	0.210980	-1.078219
H94	H	0.465215	0.310779	-0.404557
Cl95	Cl	0.479469	0.290325	-0.174744
H96	H	0.803071	0.860785	-0.311052
Cl97	Cl	0.533717	0.211088	-0.211855
Cl98	Cl	0.814998	0.392078	-0.526755
H99	H	0.978155	0.658807	-0.229572
H100	H	1.007876	0.741844	-0.293357
H101	H	0.666920	0.228880	-0.229522
Cl102	Cl	0.815009	0.392029	-0.674449
Cl103	Cl	0.814943	0.673403	-0.392517
Cl104	Cl	0.995861	0.525598	-0.211819
Cl105	Cl	0.815038	0.929349	-0.392574
H106	H	0.978262	0.943737	-0.229631
Cl107	Cl	0.814889	0.525709	-0.392492
H108	H	0.896322	0.403959	-0.743128
H109	H	0.914548	0.199128	-0.743139
Cl110	Cl	0.332041	0.312969	-0.429604
Cl111	Cl	0.533735	0.392251	-0.392406
H112	H	0.832771	0.374141	-1.063611
Cl113	Cl	1.032931	0.875017	-0.291227
