data_functionalizedCrystal
_audit_creation_method	'MofGen! by Chris Wilmer'
_symmetry_space_group_name_H-M	'P1'
_symmetry_Int_Tables_number	1
_symmetry_cell_setting	triclinic
loop_
_symmetry_equiv_pos_as_xyz
  x,y,z
_cell_length_a	17.699083
_cell_length_b	26.210047
_cell_length_c	17.699083
_cell_angle_alpha	89.994492
_cell_angle_beta	96.716985
_cell_angle_gamma	90.010404
loop_
_atom_site_label
_atom_site_type_symbol
_atom_site_fract_x
_atom_site_fract_y
_atom_site_fract_z
O1	O	1.004089	0.042358	-0.095710
O2	O	1.504089	0.542358	0.404290
O3	O	0.783711	0.042375	-0.108162
O4	O	1.283711	0.542375	0.391838
O5	O	0.900126	0.042362	0.008253
O6	O	1.400126	0.542362	0.508253
O7	O	0.887674	0.042372	-0.212125
O8	O	1.387674	0.542372	0.287875
O9	O	0.900090	-0.042496	0.008254
O10	O	1.400090	0.457504	0.508254
O11	O	0.783674	-0.042483	-0.108162
O12	O	1.283674	0.457517	0.391838
O13	O	1.004052	-0.042500	-0.095709
O14	O	1.504052	0.457500	0.404291
Cu15	Cu	0.893860	-0.050239	-0.101936
Cu16	Cu	1.393860	0.449761	0.398064
Cu17	Cu	0.893903	0.050115	-0.101936
Cu18	Cu	1.393903	0.550115	0.398064
O19	O	0.887637	-0.042486	-0.212125
O20	O	1.387637	0.457514	0.287875
C21	C	0.755495	-0.000052	-0.107716
C22	C	1.255495	0.499948	0.392284
C23	C	0.671477	-0.000045	-0.106377
C24	C	1.171477	0.499955	0.393623
N25	N	0.893835	-0.120823	-0.101935
N26	N	1.393835	0.379177	0.398065
C27	C	0.622856	-0.000042	-0.174710
C28	C	1.122856	0.499958	0.325290
C29	C	0.543913	-0.000049	-0.173448
C30	C	1.043913	0.499951	0.326552
C31	C	0.513592	-0.000055	-0.103852
C32	C	1.013592	0.499945	0.396148
C33	C	0.562219	-0.000059	-0.035513
C34	C	1.062219	0.499941	0.464487
C35	C	0.641161	-0.000056	-0.036776
C36	C	1.141161	0.499944	0.463224
C37	C	0.243856	-0.000072	-0.030418
C38	C	0.743856	0.499928	0.469582
C39	C	0.164908	-0.000074	-0.029160
C40	C	0.664908	0.499926	0.470840
C41	C	0.146608	-0.000065	-0.167090
C42	C	0.646608	0.499935	0.332910
C43	C	0.225550	-0.000062	-0.168353
C44	C	0.725550	0.499938	0.331647
C45	C	0.274170	-0.000069	-0.100015
C46	C	0.774170	0.499931	0.399985
C47	C	0.359769	-0.000063	-0.101384
C48	C	0.859769	0.499937	0.398616
C49	C	0.427995	-0.000058	-0.102481
C50	C	0.927995	0.499942	0.397519
C51	C	0.939712	-0.473339	-0.147774
C52	C	1.439712	0.026661	0.352226
C53	C	0.939735	-0.686998	-0.147774
C54	C	1.439735	-0.186998	0.352226
O55	O	0.978724	-0.714621	-0.186739
O56	O	1.478724	-0.214621	0.313261
N57	N	0.893921	-0.713717	-0.101928
N58	N	1.393921	-0.213717	0.398072
C59	C	0.848103	-0.687019	-0.056076
C60	C	1.348103	-0.187019	0.443924
O61	O	0.809142	-0.714648	-0.017076
O62	O	1.309142	-0.214648	0.482924
C63	C	0.848085	-0.473361	-0.056073
C64	C	1.348085	0.026639	0.443927
C65	C	0.893895	-0.446644	-0.101927
C66	C	1.393895	0.053356	0.398073
C67	C	0.985520	-0.446622	-0.193624
C68	C	1.485520	0.053378	0.306376
C69	C	0.985511	-0.393211	-0.193627
C70	C	1.485511	0.106789	0.306373
C71	C	0.939694	-0.366516	-0.147780
C72	C	1.439694	0.133484	0.352220
C73	C	0.893886	-0.393233	-0.101930
C74	C	1.393886	0.106767	0.398070
C75	C	0.802271	-0.446664	-0.010217
C76	C	1.302271	0.053336	0.489783
C77	C	0.802272	-0.393246	-0.010219
C78	C	1.302272	0.106754	0.489781
C79	C	0.848082	-0.366529	-0.056073
C80	C	1.348082	0.133471	0.443927
C81	C	0.848060	-0.313127	-0.056086
C82	C	1.348060	0.186873	0.443914
N83	N	0.893874	-0.286407	-0.101931
N84	N	1.393874	0.213593	0.398069
C85	C	0.939691	-0.313102	-0.147778
C86	C	1.439691	0.186898	0.352222
C87	C	0.848114	-0.799192	-0.056082
C88	C	1.348114	-0.299192	0.443918
C89	C	0.848117	-0.852606	-0.056083
C90	C	1.348117	-0.352606	0.443917
C91	C	0.939751	-0.852581	-0.147780
C92	C	1.439751	-0.352581	0.352220
C93	C	0.939743	-0.799166	-0.147782
C94	C	1.439743	-0.299166	0.352218
C95	C	0.893928	-0.772473	-0.101927
C96	C	1.393928	-0.272473	0.398073
C97	C	0.939667	-0.200934	-0.147781
C98	C	1.439667	0.299066	0.352219
C99	C	0.939652	-0.147518	-0.147782
C100	C	1.439652	0.352482	0.352218
C101	C	0.848022	-0.147548	-0.056082
C102	C	1.348022	0.352452	0.443918
C103	C	0.848034	-0.200959	-0.056084
C104	C	1.348034	0.299041	0.443916
C105	C	0.893863	-0.227651	-0.101935
C106	C	1.393863	0.272349	0.398065
O107	O	0.809098	-0.285471	-0.017134
O108	O	1.309098	0.214529	0.482866
O109	O	0.978658	-0.285463	-0.186760
O110	O	1.478658	0.214537	0.313240
C111	C	0.939721	-0.526750	-0.147771
C112	C	1.439721	-0.026750	0.352229
C113	C	0.893914	-0.553467	-0.101921
C114	C	1.393914	-0.053467	0.398079
C115	C	0.848097	-0.526773	-0.056074
C116	C	1.348097	-0.026773	0.443926
C117	C	0.893917	-0.606881	-0.101923
C118	C	1.393917	-0.106881	0.398077
C119	C	0.939734	-0.633576	-0.147770
C120	C	1.439734	-0.133576	0.352230
C121	C	0.985547	-0.606856	-0.193616
C122	C	1.485547	-0.106856	0.306384
C123	C	0.985538	-0.553445	-0.193618
C124	C	1.485538	-0.053445	0.306382
C125	C	0.802284	-0.553493	-0.010229
C126	C	1.302284	-0.053493	0.489771
C127	C	0.802296	-0.606904	-0.010231
C128	C	1.302296	-0.106904	0.489769
C129	C	0.848113	-0.633599	-0.056078
C130	C	1.348113	-0.133599	0.443922
C131	C	1.032268	-0.000072	-0.096156
C132	C	1.532268	0.499928	0.403844
C133	C	1.116286	-0.000074	-0.097494
C134	C	1.616286	0.499926	0.402506
C135	C	0.899662	-0.000067	0.036451
C136	C	1.399662	0.499933	0.536451
C137	C	0.898323	-0.000067	0.120469
C138	C	1.398323	0.499933	0.620469
N139	N	0.893934	0.120699	-0.101930
N140	N	1.393934	0.620699	0.398070
C141	C	0.888102	-0.000056	-0.240322
C142	C	1.388102	0.499944	0.259678
C143	C	0.889440	-0.000053	-0.324340
C144	C	1.389440	0.499947	0.175660
C145	C	0.966656	-0.000073	0.169090
C146	C	1.466656	0.499927	0.669090
C147	C	0.965394	-0.000069	0.248033
C148	C	1.465394	0.499931	0.748033
C149	C	0.895798	-0.000062	0.278354
C150	C	1.395798	0.499938	0.778354
C151	C	0.827459	-0.000054	0.229727
C152	C	1.327459	0.499946	0.729727
C153	C	0.828722	-0.000055	0.150785
C154	C	1.328722	0.499945	0.650785
C155	C	0.822364	-0.000050	0.548090
C156	C	1.322364	0.499950	1.048090
C157	C	0.821106	-0.000050	0.627038
C158	C	1.321106	0.499950	1.127038
C159	C	0.959036	-0.000063	0.645338
C160	C	1.459036	0.499937	1.145338
C161	C	0.960299	-0.000064	0.566396
C162	C	1.460299	0.499936	1.066396
C163	C	0.891961	-0.000054	0.517776
C164	C	1.391961	0.499946	1.017776
C165	C	0.893330	-0.000058	0.432177
C166	C	1.393330	0.499942	0.932177
C167	C	0.894427	-0.000061	0.363951
C168	C	1.394427	0.499939	0.863951
H169	H	0.647537	-0.000037	-0.231384
H170	H	1.147537	0.499963	0.268616
H171	H	0.250232	-0.000055	-0.225025
H172	H	0.750232	0.499945	0.274975
O173	O	0.496575	-0.000062	-0.239757
O174	O	0.996575	0.499938	0.260243
C175	C	0.420397	-0.000054	-0.223723
C176	C	0.920397	0.499946	0.276277
H177	H	0.417475	-0.016130	-0.164284
H178	H	0.917475	0.483870	0.335716
H179	H	0.384544	-0.024683	-0.267296
H180	H	0.884544	0.475317	0.232704
H181	H	0.397572	0.040657	-0.226622
H182	H	0.897572	0.540657	0.273378
H183	H	1.022842	-0.531697	-0.230958
H184	H	1.522842	-0.031697	0.269042
H185	H	1.016971	-0.000072	0.541714
H186	H	1.516971	0.499928	1.041714
O187	O	0.762392	-0.000118	0.103476
O188	O	1.262392	0.499882	0.603476
C189	C	0.758965	-0.044073	0.057280
C190	C	1.258965	0.455927	0.557280
H191	H	0.819025	-0.058731	0.053401
H192	H	1.319025	0.441269	0.553401
H193	H	0.730668	-0.034184	-0.002106
H194	H	1.230668	0.465816	0.497894
H195	H	0.724429	-0.074844	0.083189
H196	H	1.224429	0.425156	0.583189
O197	O	0.099269	-0.000085	-0.233406
O198	O	0.599269	0.499915	0.266594
C199	C	0.023090	-0.000079	-0.217374
C200	C	0.523090	0.499921	0.282626
H201	H	0.020168	-0.016150	-0.157933
H202	H	0.520168	0.483850	0.342067
H203	H	-0.012759	-0.024712	-0.260943
H204	H	0.487241	0.475288	0.239057
H205	H	0.000261	0.040631	-0.220282
H206	H	0.500261	0.540631	0.279718
H207	H	0.140225	-0.000079	0.027517
H208	H	0.640225	0.499921	0.527517
O209	O	0.290971	-0.000054	0.036033
O210	O	0.790971	0.499946	0.536033
C211	C	0.247278	-0.000072	0.097728
C212	C	0.747278	0.499928	0.597728
H213	H	0.188328	0.015996	0.078406
H214	H	0.688328	0.515996	0.578406
H215	H	0.276492	0.024561	0.145601
H216	H	0.776492	0.524561	0.645601
H217	H	0.241683	-0.040784	0.119065
H218	H	0.741683	0.459216	0.619065
O219	O	0.759918	-0.000070	0.259304
O220	O	1.259918	0.499930	0.759304
C221	C	0.773455	-0.000059	0.339406
C222	C	1.273455	0.499941	0.839406
H223	H	0.832546	-0.016130	0.358055
H224	H	1.332546	0.483870	0.858055
H225	H	0.728918	-0.024693	0.363564
H226	H	1.228918	0.475307	0.863564
H227	H	0.769845	0.040651	0.361371
H228	H	1.269845	0.540651	0.861371
O229	O	1.025472	0.000001	0.692492
O230	O	1.525472	0.500001	1.192492
C231	C	1.067748	0.043951	0.678774
C232	C	1.567748	0.543951	1.178774
H233	H	1.049060	0.058603	0.618852
H234	H	1.549060	0.558603	1.118852
H235	H	1.130879	0.034060	0.684445
H236	H	1.630879	0.534060	1.184445
H237	H	1.057494	0.074729	0.721930
H238	H	1.557494	0.574729	1.221930
H239	H	0.537526	-0.000072	0.021154
H240	H	1.037526	0.499928	0.521154
O241	O	1.034330	-0.000056	0.139765
O242	O	1.534330	0.499944	0.639765
C243	C	1.094371	-0.000071	0.199612
C244	C	1.594371	0.499929	0.699612
H245	H	1.073257	0.015995	0.253199
H246	H	1.573257	0.515995	0.753199
H247	H	1.142980	0.024563	0.183203
H248	H	1.642980	0.524563	0.683203
H249	H	1.115428	-0.040783	0.210826
H250	H	1.615428	0.459217	0.710826
O251	O	1.031755	0.000016	0.295291
O252	O	1.531755	0.500016	0.795291
C253	C	1.035168	0.043961	0.341505
C254	C	1.535168	0.543961	0.841505
H255	H	0.996424	0.074681	0.312518
H256	H	1.496424	0.574681	0.812518
H257	H	1.096158	0.058708	0.350487
H258	H	1.596158	0.558708	0.850487
H259	H	1.015684	0.034030	0.398880
H260	H	1.515684	0.534030	0.898880
H261	H	0.764429	-0.000046	0.651721
H262	H	1.264429	0.499954	1.151721
H263	H	0.680748	-0.000059	0.018868
H264	H	1.180748	0.499941	0.518868
O265	O	0.984227	-0.121645	-0.192346
O266	O	1.484227	0.378355	0.307654
C267	C	1.024653	-0.156664	-0.232821
C268	C	1.524653	0.343336	0.267179
H269	H	1.029133	-0.194740	-0.201479
H270	H	1.529133	0.305260	0.298521
H271	H	1.084156	-0.141222	-0.237443
H272	H	1.584156	0.358778	0.262557
H273	H	0.993364	-0.162349	-0.292270
H274	H	1.493364	0.337651	0.207730
O275	O	0.984074	-0.226914	-0.192367
O276	O	1.484074	0.273086	0.307633
C277	C	0.937834	-0.257805	-0.244085
C278	C	1.437834	0.242195	0.255915
H279	H	0.881728	-0.265826	-0.220597
H280	H	1.381728	0.234174	0.279403
H281	H	0.968252	-0.295357	-0.252486
H282	H	1.468252	0.204643	0.247514
H283	H	0.926130	-0.237214	-0.300989
H284	H	1.426130	0.262786	0.199011
O285	O	1.030048	-0.472469	-0.238236
O286	O	1.530048	0.027531	0.261764
C287	C	1.070487	-0.437423	-0.278682
C288	C	1.570487	0.062577	0.221318
H289	H	1.039140	-0.399355	-0.283123
H290	H	1.539140	0.100645	0.216877
H291	H	1.075066	-0.452842	-0.338199
H292	H	1.575066	0.047158	0.161801
H293	H	1.129953	-0.431735	-0.247431
H294	H	1.629953	0.068265	0.252569
O295	O	1.030057	-0.367203	-0.238058
O296	O	1.530057	0.132797	0.261942
C297	C	1.081798	-0.336310	-0.191845
C298	C	1.581798	0.163690	0.308155
H299	H	1.058352	-0.328312	-0.135716
H300	H	1.558352	0.171688	0.364284
H301	H	1.090170	-0.298748	-0.222265
H302	H	1.590170	0.201252	0.277735
H303	H	1.138711	-0.356889	-0.180185
H304	H	1.638711	0.143111	0.319815
H305	H	0.977046	-0.777417	-0.185121
H306	H	1.477046	-0.277417	0.314879
O307	O	0.755931	0.000022	0.500946
O308	O	1.255931	0.500022	1.000946
C309	C	0.713693	0.043979	0.514656
C310	C	1.213693	0.543979	1.014656
H311	H	0.732400	0.058631	0.574572
H312	H	1.232400	0.558631	1.074572
H313	H	0.650555	0.034097	0.508995
H314	H	1.150555	0.534097	1.008995
H315	H	0.723968	0.074753	0.471490
H316	H	1.223968	0.574753	0.971490
O317	O	0.984370	-0.878460	-0.192270
O318	O	1.484370	-0.378460	0.307730
C319	C	1.061229	-0.865409	-0.171180
C320	C	1.561229	-0.365409	0.328820
H321	H	1.064529	-0.826626	-0.141827
H322	H	1.564529	-0.326626	0.358173
H323	H	1.092134	-0.863579	-0.224128
H324	H	1.592134	-0.363579	0.275872
H325	H	1.089174	-0.895468	-0.130532
H326	H	1.589174	-0.395468	0.369468
O327	O	0.803591	-0.878478	-0.011477
O328	O	1.303591	-0.378478	0.488523
C329	C	0.763140	-0.843458	0.028973
C330	C	1.263140	-0.343458	0.528973
H331	H	0.794478	-0.805378	0.033426
H332	H	1.294478	-0.305378	0.533426
H333	H	0.758560	-0.858893	0.088486
H334	H	1.258560	-0.358893	0.588486
H335	H	0.703674	-0.837783	-0.002281
H336	H	1.203674	-0.337783	0.497719
H337	H	0.810804	-0.777463	-0.018739
H338	H	1.310804	-0.277463	0.481261
O339	O	0.757755	-0.472532	0.034400
O340	O	1.257755	0.027468	0.534400
C341	C	0.717309	-0.437509	0.074852
C342	C	1.217309	0.062491	0.574852
H343	H	0.748647	-0.399429	0.079296
H344	H	1.248647	0.100571	0.579296
H345	H	0.712738	-0.452941	0.134369
H346	H	1.212738	0.047059	0.634369
H347	H	0.657840	-0.431837	0.043605
H348	H	1.157840	0.068163	0.543605
O349	O	0.757876	-0.367294	0.034410
O350	O	1.257876	0.132706	0.534410
C351	C	0.804113	-0.336380	0.086100
C352	C	1.304113	0.163620	0.586100
H353	H	0.864355	-0.352464	0.094302
H354	H	1.364355	0.147536	0.594302
H355	H	0.780035	-0.335784	0.143084
H356	H	1.280035	0.164216	0.643084
H357	H	0.805336	-0.295897	0.062713
H358	H	1.305336	0.204103	0.562713
O359	O	0.803509	-0.226835	-0.011477
O360	O	1.303509	0.273165	0.488523
C361	C	0.763051	-0.191815	0.028968
C362	C	1.263051	0.308185	0.528968
H363	H	0.794382	-0.153733	0.033415
H364	H	1.294382	0.346267	0.533415
H365	H	0.758473	-0.207248	0.088483
H366	H	1.258473	0.292752	0.588483
H367	H	0.703585	-0.186147	-0.002288
H368	H	1.203585	0.313853	0.497712
O369	O	1.030144	-0.632815	-0.238037
O370	O	1.530144	-0.132815	0.261963
C371	C	1.081857	-0.663714	-0.191812
C372	C	1.581857	-0.163714	0.308188
H373	H	1.090093	-0.647614	-0.131579
H374	H	1.590093	-0.147614	0.368421
H375	H	1.138824	-0.664315	-0.215924
H376	H	1.638824	-0.164315	0.284076
H377	H	1.058473	-0.704198	-0.190556
H378	H	1.558473	-0.204198	0.309444
O379	O	0.757878	-0.632832	0.034428
O380	O	1.257878	-0.132832	0.534428
C381	C	0.778986	-0.619764	0.111274
C382	C	1.278986	-0.119764	0.611274
H383	H	0.840031	-0.605070	0.118658
H384	H	1.340031	-0.105070	0.618658
H385	H	0.774656	-0.654891	0.148512
H386	H	1.274656	-0.154891	0.648512
H387	H	0.739342	-0.588766	0.128790
H388	H	1.239342	-0.088766	0.628790
O389	O	0.757717	-0.527514	0.034192
O390	O	1.257717	-0.027514	0.534192
C391	C	0.705967	-0.496642	-0.012037
C392	C	1.205967	0.003358	0.487963
H393	H	0.729426	-0.488623	-0.068157
H394	H	1.229426	0.011377	0.431843
H395	H	0.697560	-0.459089	0.018377
H396	H	1.197560	0.040911	0.518377
H397	H	0.649070	-0.517250	-0.023713
H398	H	1.149070	-0.017250	0.476287
H399	H	0.810717	-0.125803	-0.018757
H400	H	1.310717	0.374197	0.481243
