data_functionalizedCrystal
_audit_creation_method	'MofGen! by Chris Wilmer'
_symmetry_space_group_name_H-M	'P1'
_symmetry_Int_Tables_number	1
_symmetry_cell_setting	triclinic
loop_
_symmetry_equiv_pos_as_xyz
  x,y,z
_cell_length_a	10.654550
_cell_length_b	13.262508
_cell_length_c	9.130313
_cell_angle_alpha	105.917062
_cell_angle_beta	89.996220
_cell_angle_gamma	84.460192
loop_
_atom_site_label
_atom_site_type_symbol
_atom_site_fract_x
_atom_site_fract_y
_atom_site_fract_z
O1	O	1.667069	0.147419	-0.063189
O2	O	1.301517	0.161465	-0.057570
O3	O	1.493489	0.001719	-0.121214
O4	O	1.475097	0.307165	0.000456
O5	O	1.493487	0.001723	0.122386
O6	O	1.301515	0.161469	0.186031
O7	O	1.667066	0.147424	0.180412
Cu8	Cu	1.484290	0.154447	0.205464
Cu9	Cu	1.484293	0.154442	-0.082622
O10	O	1.475094	0.307170	0.244056
C11	C	1.254723	0.160436	0.063823
C12	C	1.115296	0.157350	0.062603
C13	C	1.035322	0.251406	0.100047
C14	C	0.904316	0.248501	0.098864
C15	C	0.933272	0.057475	0.022784
C16	C	1.064275	0.060382	0.023977
C17	C	1.086343	0.348375	0.138673
C18	C	1.006368	0.442438	0.176118
C19	C	0.875362	0.439533	0.174936
C20	C	0.824332	0.342564	0.136307
C21	C	1.492457	-0.037390	-0.014996
C22	C	1.489370	-0.153929	-0.061426
C23	C	1.480657	-0.482436	0.338858
C24	C	1.483548	-0.372941	0.382484
C25	C	1.485004	-0.318183	0.271510
C26	C	1.483569	-0.372930	0.116903
C27	C	1.480668	-0.482435	0.073274
C28	C	1.485015	-0.318181	0.005926
C29	C	1.483579	-0.372929	-0.148681
C30	C	1.480680	-0.482423	-0.192302
C31	C	1.479224	-0.537181	-0.081329
C32	C	1.487915	-0.208677	0.049555
C33	C	1.487926	-0.208675	-0.216029
C34	C	1.485036	-0.318170	-0.259654
C35	C	1.713860	0.148453	0.059016
C36	C	1.853287	0.151538	0.060226
C37	C	1.476126	0.346279	0.137835
C38	C	1.479213	0.462817	0.184255
N39	N	1.484297	0.154450	0.408088
N40	N	1.484296	0.154431	-0.285249
C41	C	1.569324	0.083739	0.456568
C42	C	1.569321	0.083726	0.609899
C43	C	1.399260	0.225145	0.666262
C44	C	1.399258	0.225152	0.512930
C45	C	1.654364	0.013037	0.351725
C46	C	1.739398	-0.057680	0.400203
C47	C	1.739395	-0.057692	0.553535
C48	C	1.654357	0.013011	0.658389
H49	H	0.810249	0.516124	0.205441
H50	H	1.330026	0.282710	0.751643
H51	H	1.484730	-0.328375	0.508363
Cl52	Cl	1.846283	-0.146598	0.614475
Cl53	Cl	1.070519	0.564335	0.224693
Cl54	Cl	1.489731	-0.139842	-0.355547
H55	H	1.654377	0.013042	0.226873
Cl56	Cl	1.488635	-0.180530	0.326357
Cl57	Cl	1.478803	-0.551277	0.478349
Cl58	Cl	1.654348	0.012982	0.851145
Cl59	Cl	1.846287	-0.146568	0.268389
Cl60	Cl	1.475590	-0.674838	-0.136166
Cl61	Cl	1.292360	0.314046	0.451982
H62	H	0.891712	-0.021473	-0.008690
H63	H	1.129392	-0.016207	-0.006517
H64	H	1.193013	0.350751	0.139633
H65	H	0.717657	0.340206	0.135370
Cl66	Cl	1.489722	-0.139865	0.243910
H67	H	1.483866	-0.362761	-0.385537
Cl68	Cl	1.478857	-0.551243	-0.386664
