data_functionalizedCrystal
_audit_creation_method	'MofGen! by Chris Wilmer'
_symmetry_space_group_name_H-M	'P1'
_symmetry_Int_Tables_number	1
_symmetry_cell_setting	triclinic
loop_
_symmetry_equiv_pos_as_xyz
  x,y,z
_cell_length_a	10.540539
_cell_length_b	10.540539
_cell_length_c	9.616153
_cell_angle_alpha	90.003639
_cell_angle_beta	90.000753
_cell_angle_gamma	84.525492
loop_
_atom_site_label
_atom_site_type_symbol
_atom_site_fract_x
_atom_site_fract_y
_atom_site_fract_z
O1	O	1.685884	0.178903	0.115573
O2	O	1.316471	0.195759	0.115589
O3	O	1.509605	0.002624	0.115579
O4	O	1.492750	0.372037	0.115583
O5	O	1.509595	0.002613	-0.115712
O6	O	1.316461	0.195748	-0.115702
O7	O	1.685874	0.178892	-0.115718
Zn8	Zn	1.501166	0.187318	-0.152433
Zn9	Zn	1.501179	0.187332	0.152304
O10	O	1.492739	0.372027	-0.115708
C11	C	1.269163	0.194489	-0.000054
C12	C	1.128215	0.190707	-0.000048
C13	C	0.944788	0.045790	-0.000589
C14	C	1.091406	0.049624	-0.000054
C15	C	1.066548	0.258609	0.132027
C16	C	0.920004	0.253794	0.132123
C17	C	0.919503	0.256652	-0.130899
C18	C	1.066485	0.257951	-0.132630
C19	C	1.508336	-0.044684	-0.000064
C20	C	1.504554	-0.185632	-0.000056
C21	C	1.359637	-0.369059	0.000469
C22	C	1.363471	-0.222441	-0.000052
C23	C	1.572444	-0.247296	-0.132138
C24	C	1.567629	-0.393840	-0.132249
C25	C	1.570510	-0.394347	0.130772
C26	C	1.571810	-0.247365	0.132518
C27	C	1.733182	0.180161	-0.000072
C28	C	1.874130	0.183943	-0.000069
C29	C	1.494008	0.419335	-0.000062
C30	C	1.497790	0.560283	-0.000060
N31	N	1.501166	0.187308	-0.360407
C32	C	1.604537	0.084006	-0.419411
C33	C	1.604923	0.084293	-0.580579
C34	C	1.530767	0.320209	-0.581187
C35	C	1.531497	0.319590	-0.419969
C36	C	1.367915	0.158926	-0.419836
C37	C	1.368794	0.155939	-0.581064
N38	N	1.501189	0.187333	0.360278
H39	H	1.109141	0.211449	0.230318
H40	H	1.310051	-0.179833	0.094630
C41	C	1.121803	0.190940	-0.264629
H42	H	1.182272	0.122272	-0.239062
H43	H	1.054969	0.159154	-0.316503
H44	H	1.162328	0.250058	-0.319745
C45	C	1.508840	-0.436957	0.266016
H46	H	1.554158	-0.408618	0.343695
H47	H	1.422697	-0.401259	0.270080
H48	H	1.511632	-0.527296	0.267713
C49	C	1.148983	-0.022562	-0.127939
H50	H	1.238871	-0.020308	-0.127783
H51	H	1.129262	-0.108587	-0.124668
H52	H	1.114344	0.016691	-0.210270
H53	H	1.628696	0.344340	-0.382360
C54	C	1.708166	-0.458152	0.131981
H55	H	1.721310	-0.512187	0.053187
H56	H	1.766091	-0.394468	0.129082
H57	H	1.722009	-0.507197	0.214411
C58	C	1.096754	0.398568	0.138695
H59	H	1.058564	0.437814	0.219327
H60	H	1.186438	0.401794	0.142664
H61	H	1.063873	0.442448	0.058210
C62	C	0.906160	-0.029514	-0.128540
H63	H	0.846587	0.022618	-0.182789
H64	H	0.979585	-0.054370	-0.182919
H65	H	0.868446	-0.103243	-0.098845
C66	C	0.876885	0.194970	-0.266142
H67	H	0.831019	0.124288	-0.244078
H68	H	0.823659	0.255738	-0.317707
H69	H	0.949694	0.166801	-0.320063
H70	H	1.587214	-0.014424	-0.620157
C71	C	1.338478	0.023887	-0.632758
H72	H	1.406213	-0.011972	-0.689857
H73	H	1.328853	-0.030286	-0.555292
H74	H	1.261672	0.032458	-0.685052
H75	H	1.303910	-0.397655	0.095187
H76	H	1.587121	-0.015038	-0.380627
H77	H	1.522135	-0.206502	0.230229
H78	H	1.702846	0.102053	-0.378874
H79	H	1.339650	0.064006	-0.379189
C80	C	1.147819	-0.023025	0.128075
H81	H	1.237725	-0.020935	0.128836
H82	H	1.112565	0.016030	0.210224
H83	H	1.127987	-0.109002	0.124200
H84	H	1.674670	-0.223143	0.140490
H85	H	0.891798	0.203617	0.230849
H86	H	0.872035	0.355259	0.138119
C87	C	0.903993	-0.029194	0.126642
H88	H	0.947120	-0.112552	0.125526
H89	H	0.925085	0.013378	0.209353
H90	H	0.814599	-0.034682	0.123524
C91	C	1.433697	0.426661	-0.367221
H92	H	1.433471	0.426999	-0.268426
H93	H	1.455995	0.506463	-0.400405
H94	H	1.351278	0.412556	-0.400279
C95	C	1.099205	0.396905	-0.143407
H96	H	1.151164	0.415816	-0.066842
H97	H	1.143800	0.408050	-0.227702
H98	H	1.022828	0.452583	-0.142294
H99	H	0.872276	0.358555	-0.131790
C100	C	1.660587	0.354412	-0.635710
H101	H	1.696928	0.287897	-0.694129
H102	H	1.649013	0.431562	-0.687191
H103	H	1.715923	0.364851	-0.559436
H104	H	1.304128	-0.399271	-0.093714
C105	C	1.499823	-0.431947	-0.265610
H106	H	1.475468	-0.357897	-0.319205
H107	H	1.556010	-0.489004	-0.318422
H108	H	1.426134	-0.472428	-0.241470
C109	C	1.704691	-0.458649	-0.140377
H110	H	1.763064	-0.395381	-0.143608
H111	H	1.721734	-0.510821	-0.060738
H112	H	1.713833	-0.509709	-0.221830
C113	C	1.259937	0.250826	-0.635435
H114	H	1.293961	0.311104	-0.694878
H115	H	1.200816	0.205990	-0.685797
H116	H	1.217892	0.293950	-0.559163
H117	H	1.457510	0.399009	-0.619493
C118	C	1.712404	-0.217094	-0.138795
H119	H	1.730720	-0.166483	-0.060897
H120	H	1.766744	-0.294353	-0.137574
H121	H	1.726087	-0.171786	-0.222016
C122	C	1.508716	-0.189777	-0.264918
H123	H	1.440747	-0.128199	-0.240145
H124	H	1.569692	-0.150206	-0.318363
H125	H	1.476363	-0.255450	-0.318151
H126	H	1.290982	0.234240	-0.381676
H127	H	1.309668	-0.180689	-0.094886
C128	C	1.738485	0.109056	-0.632684
H129	H	1.792715	0.118992	-0.555320
H130	H	1.772610	0.038997	-0.687552
H131	H	1.732529	0.184484	-0.687310
