data_functionalizedCrystal
_audit_creation_method	'MofGen! by Chris Wilmer'
_symmetry_space_group_name_H-M	'P1'
_symmetry_Int_Tables_number	1
_symmetry_cell_setting	triclinic
loop_
_symmetry_equiv_pos_as_xyz
  x,y,z
_cell_length_a	16.120297
_cell_length_b	16.625548
_cell_length_c	16.625546
_cell_angle_alpha	90.023536
_cell_angle_beta	87.129618
_cell_angle_gamma	87.121773
loop_
_atom_site_label
_atom_site_type_symbol
_atom_site_fract_x
_atom_site_fract_y
_atom_site_fract_z
Zn1	Zn	-0.471374	-1.209557	0.344116
Zn2	Zn	0.028626	-0.709557	0.844116
Zn3	Zn	-0.331959	-1.216300	0.472116
Zn4	Zn	0.168041	-0.716300	0.972116
Zn5	Zn	-0.331977	-1.081557	0.337304
Zn6	Zn	0.168023	-0.581557	0.837304
Zn7	Zn	-0.471324	-1.074692	0.478910
Zn8	Zn	0.028676	-0.574692	0.978910
O9	O	-0.401658	-1.145526	0.408112
O10	O	0.098342	-0.645526	0.908112
O11	O	-0.452893	-1.323283	0.361103
O12	O	0.047107	-0.823283	0.861103
O13	O	-0.215298	-1.204120	0.448538
O14	O	0.284702	-0.704120	0.948538
O15	O	-0.350497	-1.098588	0.225377
O16	O	0.149503	-0.598588	0.725377
O17	O	-0.350465	-1.328237	0.455143
O18	O	0.149535	-0.828237	0.955143
O19	O	-0.452911	-1.192629	0.230381
O20	O	0.047089	-0.692629	0.730381
O21	O	-0.215312	-1.105126	0.349493
O22	O	0.284688	-0.605126	0.849493
O23	O	-0.350449	-0.967815	0.356081
O24	O	0.149551	-0.467815	0.856081
O25	O	-0.587993	-1.086887	0.466724
O26	O	-0.087993	-0.586887	0.966724
O27	O	-0.452827	-0.962771	0.460119
O28	O	0.047173	-0.462771	0.960119
O29	O	-0.588030	-1.185972	0.367691
O30	O	-0.088030	-0.685972	0.867691
O31	O	-0.350417	-1.197463	0.585848
O32	O	0.149583	-0.697463	1.085848
O33	O	-0.452808	-1.093425	0.590840
O34	O	0.047192	-0.593425	1.090840
C35	C	-0.401635	-0.936037	0.408099
C36	C	0.098365	-0.436037	0.908099
C37	C	-0.401645	-0.846415	0.408114
C38	C	0.098355	-0.346415	0.908114
C39	C	-0.401624	-1.145452	0.617601
C40	C	0.098376	-0.645452	1.117601
C41	C	-0.401636	-1.145492	0.707222
C42	C	0.098364	-0.645492	1.207222
C43	C	-0.619107	-1.134912	0.418726
C44	C	-0.119107	-0.634912	0.918726
C45	C	-0.711770	-1.130389	0.423249
C46	C	-0.211770	-0.630389	0.923249
C47	C	-0.881427	-1.122101	0.431489
C48	C	-0.381427	-0.622101	0.931489
C49	C	-0.922741	-1.169111	0.384493
C50	C	-0.422741	-0.669111	0.884493
C51	C	-1.017145	-1.164500	0.389078
C52	C	-0.517145	-0.664500	0.889078
C53	C	-0.787016	-1.126711	0.426905
C54	C	-0.287016	-0.626711	0.926905
C55	C	-0.185056	-1.156146	0.397481
C56	C	0.314944	-0.656146	0.897481
C57	C	-0.092393	-1.160826	0.392730
C58	C	0.407607	-0.660826	0.892730
C59	C	-0.401682	-1.355834	0.408125
C60	C	0.098318	-0.855834	0.908125
C61	C	-0.401692	-1.445455	0.408131
C62	C	0.098308	-0.945455	0.908131
C63	C	-0.401681	-0.518238	0.408121
C64	C	0.098319	-0.018238	0.908121
C65	C	-0.401668	-0.609547	0.408117
C66	C	0.098332	-0.109547	0.908117
C67	C	-0.401662	-0.682324	0.408118
C68	C	0.098338	-0.182324	0.908118
C69	C	-0.401651	-0.773638	0.408113
C70	C	0.098349	-0.273638	0.908113
C71	C	-0.401712	-1.145622	0.197805
C72	C	0.098288	-0.645622	0.697805
C73	C	-0.401734	-1.145663	0.108185
C74	C	0.098266	-0.645663	0.608185
C75	C	-0.401723	-1.145629	1.035402
C76	C	0.098277	-0.645629	1.535402
C77	C	-0.401701	-1.145588	0.944093
C78	C	0.098299	-0.645588	1.444093
C79	C	-0.401679	-1.145560	0.871315
C80	C	0.098321	-0.645560	1.371315
C81	C	-0.401658	-1.145521	0.780000
C82	C	0.098342	-0.645521	1.280000
H83	H	-0.887213	-1.212820	0.340814
H84	H	-0.387213	-0.712820	0.840814
H85	H	-0.916954	-1.078395	0.475164
H86	H	-0.416954	-0.578395	0.975164
