data_functionalizedCrystal
_audit_creation_method	'MofGen! by Chris Wilmer'
_symmetry_space_group_name_H-M	'P1'
_symmetry_Int_Tables_number	1
_symmetry_cell_setting	triclinic
loop_
_symmetry_equiv_pos_as_xyz
  x,y,z
_cell_length_a	14.519709
_cell_length_b	11.792241
_cell_length_c	10.868271
_cell_angle_alpha	89.999850
_cell_angle_beta	89.998701
_cell_angle_gamma	96.063220
loop_
_atom_site_label
_atom_site_type_symbol
_atom_site_fract_x
_atom_site_fract_y
_atom_site_fract_z
O1	O	-1.224412	0.148781	-0.102148
O2	O	-0.891078	0.482114	0.231185
O3	O	-0.557745	0.815448	0.564519
O4	O	-0.955999	0.166302	-0.102184
O5	O	-0.622666	0.499635	0.231149
O6	O	-0.289332	0.832968	0.564483
O7	O	-1.096719	-0.007665	-0.102172
O8	O	-0.763386	0.325668	0.231161
O9	O	-0.430052	0.659001	0.564494
O10	O	-1.083692	0.322748	-0.102159
O11	O	-0.750358	0.656081	0.231174
O12	O	-0.417025	0.989415	0.564507
O13	O	-1.096707	-0.007672	0.102472
O14	O	-0.763374	0.325661	0.435806
O15	O	-0.430041	0.658995	0.769139
O16	O	-0.955987	0.166295	0.102461
O17	O	-0.622654	0.499628	0.435794
O18	O	-0.289321	0.832962	0.769127
O19	O	-1.224400	0.148774	0.102497
O20	O	-0.891067	0.482107	0.435830
O21	O	-0.557733	0.815441	0.769163
Zn22	Zn	-1.090192	0.157533	0.134970
Zn23	Zn	-0.756859	0.490867	0.468304
Zn24	Zn	-0.423525	0.824200	0.801637
Zn25	Zn	-1.090207	0.157542	-0.134658
Zn26	Zn	-0.756874	0.490876	0.198676
Zn27	Zn	-0.423541	0.824209	0.532009
O28	O	-1.083680	0.322741	0.102485
O29	O	-0.750347	0.656075	0.435819
O30	O	-0.417013	0.989408	0.769152
C31	C	-0.921630	0.165482	0.000134
C32	C	-0.588297	0.498815	0.333467
C33	C	-0.254964	0.832148	0.666800
C34	C	-0.819240	0.163035	0.000119
C35	C	-0.485907	0.496368	0.333452
C36	C	-0.152573	0.829702	0.666786
N37	N	-1.090188	0.157527	0.318985
N38	N	-0.756855	0.490860	0.652318
N39	N	-0.423521	0.824193	0.985651
C40	C	-1.258769	0.149594	0.000176
C41	C	-0.925435	0.482927	0.333510
C42	C	-0.592102	0.816261	0.666843
C43	C	-1.361159	0.152041	0.000183
C44	C	-1.027826	0.485374	0.333516
C45	C	-0.694492	0.818708	0.666849
C46	C	-0.444311	0.154027	0.000175
C47	C	-0.110978	0.487360	0.333508
C48	C	0.222355	0.820694	0.666841
C49	C	-0.548628	0.156528	0.000159
C50	C	-0.215295	0.489862	0.333492
C51	C	0.118038	0.823195	0.666826
C52	C	-0.631772	0.158531	0.000146
C53	C	-0.298439	0.491864	0.333479
C54	C	0.034894	0.825197	0.666812
C55	C	-0.736096	0.161033	0.000132
C56	C	-0.402763	0.494366	0.333466
C57	C	-0.069429	0.827699	0.666799
C58	C	-1.095895	-0.049955	0.000145
C59	C	-0.762562	0.283378	0.333479
C60	C	-0.429228	0.616712	0.666812
C61	C	-1.093446	-0.175955	0.000131
C62	C	-0.760112	0.157378	0.333465
C63	C	-0.426779	0.490711	0.666798
C64	C	-1.084504	0.365031	0.000165
C65	C	-0.751171	0.698364	0.333498
C66	C	-0.417838	1.031698	0.666831
C67	C	-1.086953	0.491031	0.000170
C68	C	-0.753620	0.824364	0.333504
C69	C	-0.420287	1.157698	0.666837
C70	C	-1.091457	0.721718	0.000140
C71	C	-0.758124	1.055052	0.333473
C72	C	-0.424791	1.388385	0.666807
C73	C	-1.088955	0.593347	0.000157
C74	C	-0.755622	0.926680	0.333490
C75	C	-0.422288	1.260014	0.666823
N76	N	-1.090218	0.157540	-0.318672
N77	N	-0.756885	0.490874	0.014662
N78	N	-0.423552	0.824207	0.347995
C79	C	-1.090202	0.157540	0.569991
C80	C	-0.756869	0.490873	0.903324
C81	C	-0.423536	0.824207	1.236657
C82	C	-1.090191	0.157536	0.430313
C83	C	-0.756858	0.490869	0.763646
C84	C	-0.423525	0.824203	1.096980
