data_functionalizedCrystal
_audit_creation_method	'MofGen! by Chris Wilmer'
_symmetry_space_group_name_H-M	'P1'
_symmetry_Int_Tables_number	1
_symmetry_cell_setting	triclinic
loop_
_symmetry_equiv_pos_as_xyz
  x,y,z
_cell_length_a	17.640112
_cell_length_b	17.639999
_cell_length_c	17.640618
_cell_angle_alpha	65.681636
_cell_angle_beta	87.865353
_cell_angle_gamma	87.810509
loop_
_atom_site_label
_atom_site_type_symbol
_atom_site_fract_x
_atom_site_fract_y
_atom_site_fract_z
Zn1	Zn	1.251371	0.023070	0.189703
Zn2	Zn	1.751371	0.523070	0.689703
Zn3	Zn	1.251282	0.188755	0.024070
Zn4	Zn	1.751282	0.688755	0.524070
Zn5	Zn	1.106795	0.075311	0.076161
Zn6	Zn	1.606795	0.575311	0.576161
Zn7	Zn	1.148396	0.178182	0.179122
Zn8	Zn	1.648396	0.678182	0.679122
O9	O	1.189461	0.116329	0.117264
O10	O	1.689461	0.616329	0.617264
O11	O	1.354923	0.027611	0.150359
O12	O	1.854923	0.527611	0.650359
O13	O	1.214668	0.199995	-0.081427
O14	O	1.714668	0.699995	0.418573
O15	O	1.108601	-0.044011	0.117451
O16	O	1.608601	0.455989	0.617451
O17	O	1.354858	0.149339	0.028670
O18	O	1.854858	0.649339	0.528670
O19	O	1.214820	-0.082392	0.200869
O20	O	1.714820	0.417608	0.700869
O21	O	1.108515	0.116647	-0.043156
O22	O	1.608515	0.616647	0.456844
O23	O	1.008750	0.106394	0.107191
O24	O	1.508750	0.606394	0.607191
O25	O	1.179503	0.131318	0.292932
O26	O	1.679503	0.631318	0.792932
O27	O	1.039314	0.181973	0.182836
O28	O	1.539314	0.681973	0.682836
O29	O	1.255159	0.017358	0.300706
O30	O	1.755159	0.517358	0.800706
O31	O	1.255007	0.299744	0.018410
O32	O	1.755007	0.799744	0.518410
O33	O	1.179416	0.291976	0.132325
O34	O	1.679416	0.791976	0.632325
C35	C	0.997179	0.148705	0.149518
C36	C	1.497179	0.648705	0.649518
C37	C	0.914926	0.162571	0.163331
C38	C	1.414926	0.662571	0.663331
C39	C	0.564743	0.010979	0.012337
C40	C	1.064743	0.510979	0.512337
C41	C	0.487458	0.024022	0.025324
C42	C	0.987458	0.524022	0.525324
C43	C	0.519332	0.102905	0.103883
C44	C	1.019332	0.602905	0.603883
C45	C	0.596622	0.089865	0.090906
C46	C	1.096622	0.589865	0.590906
C47	C	0.619320	0.043903	0.045132
C48	C	1.119320	0.543903	0.545132
C49	C	0.651199	0.122789	0.123701
C50	C	1.151199	0.622789	0.623701
C51	C	0.728482	0.109754	0.110721
C52	C	1.228482	0.609754	0.610721
C53	C	0.751187	0.063796	0.064947
C54	C	1.251187	0.563796	0.564947
C55	C	0.696603	0.030868	0.032153
C56	C	1.196603	0.530868	0.532153
C57	C	0.628499	0.168756	0.169470
C58	C	1.128499	0.668756	0.669470
C59	C	0.683076	0.201680	0.202264
C60	C	1.183076	0.701680	0.702264
C61	C	0.760361	0.188641	0.189290
C62	C	1.260361	0.688641	0.689290
C63	C	0.783066	0.142682	0.143516
C64	C	1.283066	0.642682	0.643516
C65	C	0.814945	0.221568	0.222085
C66	C	1.314945	0.721568	0.722085
C67	C	0.892227	0.208534	0.209105
C68	C	1.392227	0.708534	0.709105
C69	C	0.860348	0.129647	0.130537
C70	C	1.360348	0.629647	0.630537
C71	C	1.221739	0.324995	0.068581
C72	C	1.721739	0.824995	0.568581
C73	C	1.235619	0.414245	0.047770
C74	C	1.735619	0.914245	0.547770
C75	C	1.084244	0.687795	0.275608
C76	C	1.584244	1.187795	0.775608
C77	C	1.097284	0.771665	0.256027
C78	C	1.597284	1.271665	0.756027
C79	C	1.176071	0.779655	0.137500
C80	C	1.676071	1.279655	0.637500
C81	C	1.163040	0.695783	0.157074
C82	C	1.663040	1.195783	0.657074
C83	C	1.117125	0.649860	0.226128
C84	C	1.617125	1.149860	0.726128
C85	C	1.195922	0.657847	0.107594
C86	C	1.695922	1.157847	0.607594
C87	C	1.182889	0.573984	0.127164
C88	C	1.682889	1.073984	0.627164
C89	C	1.136974	0.528056	0.196214
C90	C	1.636974	1.028056	0.696214
C91	C	1.104092	0.565996	0.245698
C92	C	1.604092	1.065996	0.745698
C93	C	1.241832	0.703774	0.038537
C94	C	1.741832	1.203774	0.538537
C95	C	1.274714	0.665838	-0.010943
C96	C	1.774714	1.165838	0.489057
C97	C	1.261685	0.581972	0.008630
C98	C	1.761685	1.081972	0.508630
C99	C	1.215771	0.536044	0.077680
C100	C	1.715771	1.036044	0.577680
C101	C	1.294567	0.544031	-0.040854
C102	C	1.794567	1.044031	0.459146
C103	C	1.281534	0.460168	-0.021285
C104	C	1.781534	0.960168	0.478715
C105	C	1.202738	0.452180	0.097249
C106	C	1.702738	0.952180	0.597249
C107	C	1.382494	0.083827	0.084884
C108	C	1.882494	0.583827	0.584884
C109	C	1.464753	0.069977	0.071086
C110	C	1.964753	0.569977	0.571086
C111	C	1.221981	0.067331	0.326780
C112	C	1.721981	0.567331	0.826780
C113	C	1.235839	0.046451	0.416063
C114	C	1.735839	0.546451	0.916063
C115	C	1.157056	0.906847	0.166152
C116	C	1.657056	1.406847	0.666152
C117	C	1.143187	0.817590	0.186985
C118	C	1.643187	1.317590	0.686985
C119	C	1.157101	0.165072	-0.091431
C120	C	1.657101	0.665072	0.408569
C121	C	1.143352	0.185701	-0.180685
C122	C	1.643352	0.685701	0.319315
C123	C	1.294757	-0.042306	0.545953
C124	C	1.794757	0.457694	1.045953
C125	C	1.281731	-0.022679	0.462057
C126	C	1.781731	0.477321	0.962057
C127	C	1.202952	0.095979	0.453956
C128	C	1.702952	0.595979	0.953956
C129	C	1.215968	0.076360	0.537853
C130	C	1.715968	0.576360	1.037853
C131	C	1.261872	0.007217	0.583845
C132	C	1.761872	0.507217	1.083845
C133	C	1.183084	0.125883	0.575746
C134	C	1.683084	0.625883	1.075746
C135	C	1.196102	0.106267	0.659635
C136	C	1.696102	0.606267	1.159635
C137	C	1.242006	0.037128	0.705632
C138	C	1.742006	0.537128	1.205632
C139	C	1.274891	-0.012399	0.667735
C140	C	1.774891	0.487601	1.167735
C141	C	1.137184	0.195029	0.529751
C142	C	1.637184	0.695029	1.029751
C143	C	1.104300	0.244552	0.567644
C144	C	1.604300	0.744552	1.067644
C145	C	1.117314	0.224933	0.651536
C146	C	1.617314	0.724933	1.151536
C147	C	1.163217	0.155794	0.697533
C148	C	1.663217	0.655794	1.197533
C149	C	1.084429	0.274460	0.689434
C150	C	1.584429	0.774460	1.189434
C151	C	1.097448	0.254845	0.773323
C152	C	1.597448	0.754845	1.273323
C153	C	1.176236	0.136179	0.781422
C154	C	1.676236	0.636179	1.281422
H155	H	0.936667	0.235342	0.235811
H156	H	1.436667	0.735342	0.735811
F157	F	1.225064	0.062566	0.830386
F158	F	1.725064	0.562566	1.330386
H159	H	1.308511	-0.063013	0.431209
H160	H	1.808511	0.436987	0.931209
H161	H	1.252607	0.021160	0.773939
H162	H	1.752607	0.521160	1.273939
H163	H	1.165355	0.414785	0.153485
H164	H	1.665355	0.914785	0.653485
H165	H	0.664584	0.239106	0.239531
H166	H	1.164584	0.739106	0.739531
H167	H	1.213452	0.817058	0.081274
H168	H	1.713452	1.317058	0.581274
F169	F	0.720764	-0.018057	-0.016559
F170	F	1.220764	0.481943	0.483441
H171	H	1.070515	0.802545	0.296332
H172	H	1.570515	1.302545	0.796332
H173	H	1.312260	-0.068710	0.705188
H174	H	1.812260	0.431290	1.205188
H175	H	1.332126	-0.098618	0.583406
H176	H	1.832126	0.401382	1.083406
H177	H	1.165579	0.152278	0.416497
H178	H	1.665579	0.652278	0.916497
F179	F	1.255726	0.793021	0.017729
F180	F	1.755726	1.293021	0.517729
F181	F	1.055447	0.318137	0.518687
F182	F	1.555447	0.818137	1.018687
F183	F	1.123334	0.215908	0.440466
F184	F	1.623334	0.715908	0.940466
H185	H	1.047060	0.330761	0.651972
H186	H	1.547060	0.830761	1.151972
F187	F	1.343426	0.592918	-0.114348
F188	F	1.843426	1.092918	0.385652
F189	F	1.323579	0.714721	-0.084432
F190	F	1.823579	1.214721	0.415568
H191	H	1.070670	0.295171	0.804176
H192	H	1.570670	0.795171	1.304176
F193	F	0.833439	0.049928	0.051129
F194	F	1.333439	0.549928	0.551129
H195	H	0.878830	0.092205	0.093278
H196	H	1.378830	0.592205	0.593278
H197	H	0.583224	-0.026463	-0.024922
H198	H	1.083224	0.473537	0.475078
H199	H	0.443021	-0.002799	-0.001378
H200	H	0.943021	0.497201	0.498622
F201	F	0.495166	0.151830	0.152587
F202	F	0.995166	0.651830	0.652587
F203	F	0.790776	0.270499	0.270783
F204	F	1.290776	0.770499	0.770783
H205	H	1.126358	0.459771	0.212141
H206	H	1.626358	0.959771	0.712141
F207	F	1.055232	0.517114	0.319199
F208	F	1.555232	1.017114	0.819199
F209	F	1.316524	0.419794	-0.073951
F210	F	1.816524	0.919794	0.426049
H211	H	0.565570	0.179368	0.180036
H212	H	1.065570	0.679368	0.680036
F213	F	1.035383	0.638913	0.349109
F214	F	1.535383	1.138913	0.849109
