data_functionalizedCrystal
_audit_creation_method	'MofGen! by Chris Wilmer'
_symmetry_space_group_name_H-M	'P1'
_symmetry_Int_Tables_number	1
_symmetry_cell_setting	triclinic
loop_
_symmetry_equiv_pos_as_xyz
  x,y,z
_cell_length_a	13.185408
_cell_length_b	13.339070
_cell_length_c	12.376897
_cell_angle_alpha	99.011576
_cell_angle_beta	105.310897
_cell_angle_gamma	83.801397
loop_
_atom_site_label
_atom_site_type_symbol
_atom_site_fract_x
_atom_site_fract_y
_atom_site_fract_z
O1	O	1.351234	-0.254791	-0.093963
O2	O	1.062400	-0.160054	-0.093971
O3	O	1.173669	-0.345661	-0.093965
O4	O	1.239965	-0.069184	-0.093969
O5	O	1.217793	-0.323044	0.094034
O6	O	1.106524	-0.137437	0.094028
O7	O	1.395358	-0.232174	0.094036
Zn8	Zn	1.257947	-0.181215	0.123881
Zn9	Zn	1.199811	-0.211013	-0.123816
O10	O	1.284089	-0.046567	0.094030
C11	C	1.046739	-0.139142	0.000027
C12	C	0.934334	-0.110535	0.000024
C13	C	1.184532	-0.368993	0.000033
C14	C	1.151149	-0.472207	0.000027
C15	C	1.410706	-0.907663	0.000036
C16	C	1.442075	-0.810689	0.000048
C17	C	1.369346	-0.726064	0.000042
C18	C	1.265243	-0.738423	0.000026
C19	C	1.233873	-0.835406	0.000023
C20	C	1.192513	-0.653806	0.000029
C21	C	1.088409	-0.666165	0.000013
C22	C	1.057044	-0.763139	0.000010
C23	C	1.129773	-0.847764	0.000015
C24	C	1.223883	-0.556823	0.000032
C25	C	1.047050	-0.484566	0.000019
C26	C	1.015681	-0.581540	0.000008
C27	C	1.411018	-0.253087	0.000036
C28	C	1.523422	-0.281694	0.000032
C29	C	1.562472	-0.383549	0.000028
C30	C	1.668082	-0.410429	0.000030
C31	C	1.734650	-0.335458	0.000028
C32	C	1.695598	-0.233602	0.000024
C33	C	1.589980	-0.206718	0.000030
C34	C	1.762158	-0.158627	0.000031
C35	C	1.723106	-0.056771	0.000027
C36	C	1.617497	-0.029892	0.000032
C37	C	1.550930	-0.104863	0.000034
C38	C	1.867776	-0.185511	0.000025
C39	C	1.895283	-0.008681	0.000027
C40	C	1.789673	0.018200	0.000025
C41	C	1.273226	-0.023235	0.000030
C42	C	1.306607	0.079978	0.000028
N43	N	1.297630	-0.160880	0.292927
N44	N	1.160134	-0.231357	-0.292862
C45	C	1.067976	-0.278557	0.647981
C46	C	1.040185	-0.292787	0.529649
C47	C	1.104544	-0.259811	0.470463
C48	C	1.196699	-0.212604	0.529620
C49	C	1.224497	-0.198380	0.647963
C50	C	1.261065	-0.179634	0.470445
C51	C	1.353220	-0.132426	0.529602
C52	C	1.381013	-0.118204	0.647934
C53	C	1.316654	-0.151180	0.707120
C54	C	1.233266	-0.193858	0.352102
C55	C	1.389787	-0.113681	0.352084
C56	C	1.417578	-0.099451	0.470416
H57	H	1.308644	-0.546772	0.000046
C58	C	1.575283	0.080743	-0.000018
C59	C	1.656173	0.140644	-0.000051
C60	C	1.617323	0.242563	-0.000112
H61	H	1.550061	0.102925	0.065526
H62	H	1.519288	0.087065	-0.065601
H63	H	1.712150	0.134327	0.065525
H64	H	1.681403	0.118494	-0.065590
H65	H	1.561327	0.248885	-0.065694
H66	H	1.592101	0.264735	0.065434
H67	H	1.672197	0.283217	-0.000144
H68	H	1.158233	-0.232293	0.303948
C69	C	1.481084	-0.066890	0.711959
C70	C	1.531485	-0.041029	0.634805
C71	C	1.623664	0.006255	0.693741
H72	H	1.526829	-0.112162	0.758116
H73	H	1.463675	-0.007067	0.758108
H74	H	1.548897	-0.100844	0.588676
H75	H	1.485770	0.004254	0.588646
H76	H	1.606255	0.066078	0.739890
H77	H	1.669400	-0.039023	0.739896
H78	H	1.657867	0.023816	0.641401
H79	H	0.965155	-0.331226	0.481492
C80	C	1.074160	-0.275297	0.341988
C81	C	0.979666	-0.323671	0.302848
C82	C	0.951630	-0.337938	0.184499
H83	H	1.128207	-0.316303	0.315056
H84	H	1.065176	-0.211145	0.315188
H85	H	0.988657	-0.387813	0.329636
H86	H	0.925599	-0.282680	0.329748
H87	H	0.942646	-0.273785	0.157699
H88	H	1.005683	-0.378942	0.157578
H89	H	0.887509	-0.370752	0.157927
C90	C	1.403589	-0.620867	-0.000013
C91	C	1.510315	-0.628159	-0.000029
C92	C	1.541896	-0.531272	-0.000101
H93	H	1.393512	-0.577607	0.065523
H94	H	1.362698	-0.593464	-0.065605
H95	H	1.551194	-0.655548	0.065556
H96	H	1.520420	-0.671400	-0.065559
H97	H	1.501005	-0.503869	-0.065693
H98	H	1.531812	-0.488020	0.065436
H99	H	1.614309	-0.536208	-0.000122
C100	C	1.459517	-0.077701	0.287781
C101	C	1.401617	-0.005951	0.219886
C102	C	1.465815	0.027222	0.160640
H103	H	1.483484	-0.134053	0.241511
H104	H	1.518371	-0.047497	0.339926
H105	H	1.342782	-0.036155	0.167747
H106	H	1.377650	0.050418	0.266129
H107	H	1.524669	0.057425	0.212785
H108	H	1.489779	-0.029136	0.114376
H109	H	1.426542	0.075914	0.114574
H110	H	1.757862	0.101132	0.000022
H111	H	1.526836	-0.800634	0.000062
H112	H	1.015591	-0.305409	0.696181
H113	H	1.469912	-0.976569	0.000050
C114	C	0.943961	-0.776356	-0.000053
C115	C	0.886973	-0.681497	-0.000086
C116	C	0.782795	-0.693632	-0.000158
H117	H	0.943291	-0.804748	0.065488
H118	H	0.912611	-0.820533	-0.065640
H119	H	0.918314	-0.637336	0.065493
H120	H	0.887612	-0.653089	-0.065622
H121	H	0.751445	-0.737809	-0.065745
H122	H	0.782136	-0.722027	0.065384
H123	H	0.744113	-0.629275	-0.000191
H124	H	1.104236	-0.926732	0.000001
H125	H	0.930918	-0.591617	-0.000005
H126	H	0.987829	-0.415661	0.000020
H127	H	1.339274	-0.139591	0.803475
H128	H	1.949484	0.052368	0.000030
C129	C	1.910054	-0.296137	-0.000214
C130	C	1.853371	-0.354560	-0.096951
C131	C	1.892294	-0.456477	-0.097221
H132	H	1.902491	-0.320312	0.065268
H133	H	1.982474	-0.301465	-0.000280
H134	H	1.780968	-0.349237	-0.096875
H135	H	1.860928	-0.330416	-0.162448
H136	H	1.964715	-0.461805	-0.097286
H137	H	1.884730	-0.480642	-0.031735
H138	H	1.853848	-0.496128	-0.162860
H139	H	1.820642	-0.357350	0.000030
H140	H	1.699872	-0.493359	0.000038
H141	H	1.508272	-0.444575	0.000061
H142	H	1.464931	-0.082983	0.000026
H143	H	1.492613	-0.061014	0.518598
