data_functionalizedCrystal
_audit_creation_method	'MofGen! by Chris Wilmer'
_symmetry_space_group_name_H-M	'P1'
_symmetry_Int_Tables_number	1
_symmetry_cell_setting	triclinic
loop_
_symmetry_equiv_pos_as_xyz
  x,y,z
_cell_length_a	27.732048
_cell_length_b	27.732048
_cell_length_c	26.809956
_cell_angle_alpha	89.999364
_cell_angle_beta	89.996742
_cell_angle_gamma	82.642655
loop_
_atom_site_label
_atom_site_type_symbol
_atom_site_fract_x
_atom_site_fract_y
_atom_site_fract_z
O1	O	0.640931	0.057510	-0.041421
O2	O	1.140931	0.557510	0.458579
O3	O	0.500138	0.066256	-0.041436
O4	O	1.000138	0.566256	0.458564
O5	O	0.574907	-0.008514	-0.041419
O6	O	1.074907	0.491486	0.458581
O7	O	0.566162	0.132280	-0.041439
O8	O	1.066162	0.632280	0.458561
O9	O	0.574893	-0.008502	0.041541
O10	O	1.074893	0.491498	0.541541
O11	O	0.500123	0.066267	0.041523
O12	O	1.000123	0.566267	0.541523
O13	O	0.640917	0.057522	0.041539
O14	O	1.140917	0.557522	0.541539
Zn15	Zn	0.570518	0.061896	0.054702
Zn16	Zn	1.070518	0.561896	0.554702
Zn17	Zn	0.570536	0.061881	-0.054600
Zn18	Zn	1.070536	0.561881	0.445400
O19	O	0.566147	0.132291	0.041521
O20	O	1.066147	0.632291	0.541521
C21	C	0.574716	-0.026515	0.000062
C22	C	1.074716	0.473485	0.500062
C23	C	0.574164	-0.080170	0.000066
C24	C	1.074164	0.419830	0.500066
C25	C	0.482124	0.066078	0.000041
C26	C	0.982124	0.566078	0.500041
C27	C	0.428469	0.065525	0.000036
C28	C	0.928469	0.565525	0.500036
C29	C	0.614867	-0.418985	0.000045
C30	C	1.114867	0.081015	0.500045
C31	C	0.612816	-0.620645	0.000038
C32	C	1.112816	-0.120645	0.500038
O33	O	0.650037	-0.651900	0.000021
O34	O	1.150037	-0.151900	0.500021
N35	N	0.568481	-0.639768	0.000034
N36	N	1.068481	-0.139768	0.500034
C37	C	0.524656	-0.608474	0.000028
C38	C	1.024656	-0.108474	0.500028
O39	O	0.486899	-0.629367	0.000019
O40	O	0.986899	-0.129367	0.500019
C41	C	0.526707	-0.406815	0.000031
C42	C	1.026707	0.093185	0.500031
C43	C	0.571045	-0.387694	0.000041
C44	C	1.071045	0.112306	0.500041
C45	C	0.659202	-0.399864	0.000054
C46	C	1.159202	0.100136	0.500054
C47	C	0.659714	-0.349452	0.000059
C48	C	1.159714	0.150548	0.500059
C49	C	0.615892	-0.318161	0.000054
C50	C	1.115892	0.181839	0.500054
C51	C	0.571557	-0.337282	0.000045
C52	C	1.071557	0.162718	0.500045
C53	C	0.482882	-0.375521	0.000022
C54	C	0.982882	0.124479	0.500022
C55	C	0.483399	-0.325104	0.000021
C56	C	0.983399	0.174896	0.500021
C57	C	0.527737	-0.305983	0.000031
C58	C	1.027737	0.194017	0.500031
C59	C	0.528247	-0.255580	0.000045
C60	C	1.028247	0.244420	0.500045
N61	N	0.572583	-0.236456	0.000050
N62	N	1.072583	0.263544	0.500050
C63	C	0.616405	-0.267747	0.000054
C64	C	1.116405	0.232253	0.500054
C65	C	0.523582	-0.714348	0.000027
C66	C	1.023582	-0.214348	0.500027
C67	C	0.523069	-0.764762	0.000027
C68	C	1.023069	-0.264762	0.500027
C69	C	0.611230	-0.776930	0.000036
C70	C	1.111230	-0.276930	0.500036
C71	C	0.611742	-0.726514	0.000040
C72	C	1.111742	-0.226514	0.500040
C73	C	0.567917	-0.695224	0.000031
C74	C	1.067917	-0.195224	0.500031
C75	C	0.617477	-0.161878	0.000064
C76	C	1.117477	0.338122	0.500064
C77	C	0.617986	-0.111461	0.000071
C78	C	1.117986	0.388539	0.500071
C79	C	0.529825	-0.099298	0.000059
C80	C	1.029825	0.400702	0.500059
C81	C	0.529316	-0.149710	0.000055
C82	C	1.029316	0.350290	0.500055
C83	C	0.573147	-0.180999	0.000056
C84	C	1.073147	0.319001	0.500056
O85	O	0.491047	-0.224296	0.000057
O86	O	0.991047	0.275704	0.500057
O87	O	0.654156	-0.246844	0.000053
O88	O	1.154156	0.253156	0.500053
C89	C	0.614355	-0.469397	0.000041
C90	C	1.114355	0.030603	0.500041
C91	C	0.570021	-0.488518	0.000032
C92	C	1.070021	0.011482	0.500032
C93	C	0.526198	-0.457228	0.000027
C94	C	1.026198	0.042772	0.500027
C95	C	0.569508	-0.538933	0.000032
C96	C	1.069508	-0.038933	0.500032
C97	C	0.613330	-0.570223	0.000036
C98	C	1.113330	-0.070223	0.500036
C99	C	0.657665	-0.551100	0.000041
C100	C	1.157665	-0.051100	0.500041
C101	C	0.658177	-0.500688	0.000045
C102	C	1.158177	-0.000688	0.500045
C103	C	0.481863	-0.476351	0.000023
C104	C	0.981863	0.023649	0.500023
C105	C	0.481355	-0.526764	0.000019
C106	C	0.981355	-0.026764	0.500019
C107	C	0.525177	-0.558054	0.000023
C108	C	1.025177	-0.058054	0.500023
C109	C	0.089654	0.106229	0.000051
C110	C	0.589654	0.606229	0.500051
C111	C	-0.112006	0.104178	0.000056
C112	C	0.387994	0.604178	0.500056
O113	O	-0.143262	0.141398	0.000073
O114	O	0.356738	0.641398	0.500073
N115	N	-0.131130	0.059843	0.000062
N116	N	0.368870	0.559843	0.500062
C117	C	-0.099835	0.016017	0.000069
C118	C	0.400165	0.516017	0.500069
O119	O	-0.120728	-0.021740	0.000079
O120	O	0.379272	0.478260	0.500079
C121	C	0.101824	0.018068	0.000068
C122	C	0.601824	0.518068	0.500068
C123	C	0.120944	0.062407	0.000057
C124	C	0.620944	0.562407	0.500057
C125	C	0.108775	0.150563	0.000042
C126	C	0.608775	0.650563	0.500042
C127	C	0.159187	0.151076	0.000038
C128	C	0.659187	0.651076	0.500038
C129	C	0.190477	0.107253	0.000044
C130	C	0.690477	0.607253	0.500044
C131	C	0.171356	0.062919	0.000054
C132	C	0.671356	0.562919	0.500054
C133	C	0.133117	-0.025757	0.000079
C134	C	0.633117	0.474243	0.500079
C135	C	0.183535	-0.025240	0.000080
C136	C	0.683535	0.474760	0.500080
C137	C	0.202655	0.019098	0.000069
C138	C	0.702655	0.519098	0.500069
C139	C	0.253059	0.019609	0.000056
C140	C	0.753059	0.519609	0.500056
N141	N	0.272183	0.063944	0.000050
N142	N	0.772183	0.563944	0.500050
C143	C	0.240892	0.107766	0.000044
C144	C	0.740892	0.607766	0.500044
C145	C	-0.205709	0.014943	0.000069
C146	C	0.294291	0.514943	0.500069
C147	C	-0.256124	0.014430	0.000068
C148	C	0.243876	0.514430	0.500068
C149	C	-0.268291	0.102591	0.000056
C150	C	0.231709	0.602591	0.500056
C151	C	-0.217876	0.103104	0.000053
C152	C	0.282124	0.603104	0.500053
C153	C	-0.186585	0.059278	0.000063
C154	C	0.313415	0.559278	0.500063
C155	C	0.346761	0.108839	0.000036
C156	C	0.846761	0.608839	0.500036
C157	C	0.397178	0.109347	0.000030
C158	C	0.897178	0.609347	0.500030
C159	C	0.409341	0.021186	0.000044
C160	C	0.909341	0.521186	0.500044
C161	C	0.358929	0.020678	0.000048
C162	C	0.858929	0.520678	0.500048
C163	C	0.327639	0.064508	0.000045
C164	C	0.827639	0.564508	0.500045
O165	O	0.284343	-0.017592	0.000045
O166	O	0.784343	0.482408	0.500045
O167	O	0.261794	0.145518	0.000045
O168	O	0.761794	0.645518	0.500045
C169	C	0.039242	0.105716	0.000055
C170	C	0.539242	0.605716	0.500055
C171	C	0.020120	0.061382	0.000065
C172	C	0.520120	0.561382	0.500065
C173	C	0.051411	0.017560	0.000071
C174	C	0.551411	0.517560	0.500071
C175	C	-0.030294	0.060869	0.000065
C176	C	0.469706	0.560869	0.500065
C177	C	-0.061585	0.104691	0.000059
C178	C	0.438415	0.604691	0.500059
C179	C	-0.042461	0.149026	0.000053
C180	C	0.457539	0.649026	0.500053
C181	C	0.007951	0.149539	0.000049
C182	C	0.507951	0.649539	0.500049
C183	C	0.032287	-0.026775	0.000077
C184	C	0.532287	0.473225	0.500077
C185	C	-0.018125	-0.027284	0.000080
C186	C	0.481875	0.472716	0.500080
C187	C	-0.049416	0.016538	0.000074
C188	C	0.450584	0.516538	0.500074
C189	C	0.658931	0.057699	0.000060
C190	C	1.158931	0.557699	0.500060
C191	C	0.712586	0.058252	0.000062
C192	C	1.212586	0.558252	0.500062
C193	C	0.566338	0.150292	0.000039
C194	C	1.066338	0.650292	0.500039
C195	C	0.566891	0.203947	0.000031
C196	C	1.066891	0.703947	0.500031
N197	N	0.570509	0.061906	0.129298
N198	N	1.070509	0.561906	0.629298
N199	N	0.570549	0.061867	-0.129196
N200	N	1.070549	0.561867	0.370804
C201	C	0.603640	0.028781	0.473932
C202	C	1.103640	0.528781	0.973932
C203	C	0.603652	0.028774	0.682810
C204	C	1.103652	0.528774	1.182810
O205	O	0.631801	0.000613	0.709820
O206	O	1.131801	0.500613	1.209820
N207	N	0.570539	0.061870	0.708925
N208	N	1.070539	0.561870	1.208925
C209	C	0.537419	0.094969	0.682818
C210	C	1.037419	0.594969	1.182818
O211	O	0.509252	0.123116	0.709824
O212	O	1.009252	0.623116	1.209824
C213	C	0.537406	0.094974	0.473941
C214	C	1.037406	0.594974	0.973941
C215	C	0.570524	0.061878	0.447829
C216	C	1.070524	0.561878	0.947829
C217	C	0.636755	-0.004312	0.447819
C218	C	1.136755	0.495688	0.947819
C219	C	0.636754	-0.004308	0.395603
C220	C	1.136754	0.495692	0.895603
C221	C	0.603637	0.028789	0.369500
C222	C	1.103637	0.528789	0.869500
C223	C	0.570522	0.061882	0.395612
C224	C	1.070522	0.561882	0.895612
C225	C	0.504284	0.128070	0.447835
C226	C	1.004284	0.628070	0.947835
C227	C	0.504283	0.128067	0.395613
C228	C	1.004283	0.628067	0.895613
C229	C	0.537401	0.094972	0.369500
C230	C	1.037401	0.594972	0.869500
C231	C	0.537405	0.094983	0.317293
C232	C	1.037405	0.594983	0.817293
N233	N	0.570517	0.061887	0.291177
N234	N	1.070517	0.561887	0.791177
C235	C	0.603633	0.028790	0.317281
C236	C	1.103633	0.528790	0.817281
C237	C	0.537429	0.094965	0.792481
C238	C	1.037429	0.594965	1.292481
C239	C	0.537433	0.094964	0.844700
C240	C	1.037433	0.594964	1.344700
C241	C	0.603665	0.028768	0.844689
C242	C	1.103665	0.528768	1.344689
C243	C	0.603663	0.028772	0.792469
C244	C	1.103663	0.528772	1.292469
C245	C	0.570542	0.061868	0.766366
C246	C	1.070542	0.561868	1.266366
C247	C	0.603628	0.028801	0.207623
C248	C	1.103628	0.528801	0.707623
C249	C	0.603625	0.028809	0.155402
C250	C	1.103625	0.528809	0.655402
C251	C	0.537392	0.095003	0.155418
C252	C	1.037392	0.595003	0.655418
C253	C	0.537396	0.094997	0.207635
C254	C	1.037396	0.594997	0.707635
C255	C	0.570516	0.061892	0.233735
C256	C	1.070516	0.561892	0.733735
O257	O	0.509266	0.123126	0.290250
O258	O	1.009266	0.623126	0.790250
O259	O	0.631789	0.000640	0.290266
O260	O	1.131789	0.500640	0.790266
C261	C	0.603642	0.028777	0.526149
C262	C	1.103642	0.528777	1.026149
C263	C	0.570527	0.061870	0.552261
C264	C	1.070527	0.561870	1.052261
C265	C	0.537410	0.094968	0.526158
C266	C	1.037410	0.594968	1.026158
C267	C	0.570531	0.061870	0.604480
C268	C	1.070531	0.561870	1.104480
C269	C	0.603647	0.028773	0.630584
C270	C	1.103647	0.528773	1.130584
C271	C	0.636759	-0.004324	0.604468
C272	C	1.136759	0.495676	1.104468
C273	C	0.636758	-0.004320	0.552252
C274	C	1.136758	0.495680	1.052252
C275	C	0.504298	0.128064	0.552273
C276	C	1.004298	0.628064	1.052273
C277	C	0.504303	0.128058	0.604489
C278	C	1.004303	0.628058	1.104489
C279	C	0.537419	0.094961	0.630593
C280	C	1.037419	0.594961	1.130593
H281	H	0.654093	-0.095896	0.000080
H282	H	1.154093	0.404104	0.500080
O283	O	0.480962	-0.684024	0.000045
O284	O	0.980962	-0.184024	0.500045
C285	C	0.441727	-0.711721	0.000030
C286	C	0.941727	-0.211721	0.500030
H287	H	0.454289	-0.749441	0.015735
H288	H	0.954289	-0.249441	0.515735
H289	H	0.411041	-0.692904	0.024115
H290	H	0.911041	-0.192904	0.524115
H291	H	0.428123	-0.715213	-0.039770
H292	H	0.928123	-0.215213	0.460230
O293	O	0.653755	-0.807399	0.000014
O294	O	1.153755	-0.307399	0.500014
C295	C	0.643789	-0.855994	0.000024
C296	C	1.143789	-0.355994	0.500024
H297	H	0.605835	-0.857643	-0.015679
H298	H	1.105835	-0.357643	0.484321
H299	H	0.671742	-0.879042	-0.024065
H300	H	1.171742	-0.379042	0.475935
H301	H	0.645731	-0.870592	0.039823
H302	H	1.145731	-0.370592	0.539823
O303	O	0.701819	-0.430187	0.000083
O304	O	1.201819	0.069813	0.500083
C305	C	0.741053	-0.402488	0.000077
C306	C	1.241053	0.097512	0.500077
H307	H	0.728484	-0.364768	0.015778
H308	H	1.228484	0.135232	0.515778
H309	H	0.771731	-0.421302	0.024170
H310	H	1.271731	0.078698	0.524170
H311	H	0.754670	-0.398998	-0.039720
H312	H	1.254670	0.101002	0.460280
O313	O	0.480029	-0.783390	-0.000044
O314	O	0.980029	-0.283390	0.499956
C315	C	0.477095	-0.812176	-0.043017
C316	C	0.977095	-0.312176	0.456983
H317	H	0.515291	-0.825017	-0.057335
H318	H	1.015291	-0.325017	0.442665
H319	H	0.458071	-0.845050	-0.033359
H320	H	0.958071	-0.345050	0.466641
H321	H	0.455549	-0.789741	-0.073106
H322	H	0.955549	-0.289741	0.426894
H323	H	0.446777	-0.391080	0.000011
H324	H	0.946777	0.108920	0.500011
O325	O	0.440781	-0.294778	0.000035
O326	O	0.940781	0.205222	0.500035
C327	C	0.401542	-0.322470	0.000013
C328	C	0.901542	0.177530	0.500013
H329	H	0.414098	-0.360191	0.015719
H330	H	0.914098	0.139809	0.515719
H331	H	0.370854	-0.303651	0.024093
H332	H	0.870854	0.196349	0.524093
H333	H	0.387945	-0.325961	-0.039790
H334	H	0.887945	0.174039	0.460210
H335	H	0.510457	0.121917	0.771232
H336	H	1.010457	0.621917	1.271232
O337	O	-0.072813	0.191627	0.000114
O338	O	0.427187	0.691627	0.500114
C339	C	-0.064209	0.218570	0.043082
C340	C	0.435791	0.718570	0.543082
H341	H	-0.025874	0.206416	0.057405
H342	H	0.474126	0.706416	0.557405
H343	H	-0.068058	0.258912	0.033414
H344	H	0.431942	0.758912	0.533414
H345	H	-0.091738	0.212169	0.073170
H346	H	0.408262	0.712169	0.573170
H347	H	0.630630	0.001822	0.771211
H348	H	1.130630	0.501822	1.271211
O349	O	-0.274752	-0.028609	0.000138
O350	O	0.225248	0.471391	0.500138
C351	C	-0.303543	-0.031546	0.043110
C352	C	0.196457	0.468454	0.543110
H353	H	-0.316384	0.006649	0.057429
H354	H	0.183616	0.506649	0.557429
H355	H	-0.336416	-0.050568	0.033449
H356	H	0.163584	0.449432	0.533449
H357	H	-0.281111	-0.053095	0.073199
H358	H	0.218889	0.446905	0.573199
H359	H	0.647846	-0.710950	0.000047
H360	H	1.147846	-0.210950	0.500047
O361	O	-0.036718	-0.070346	0.000000
O362	O	0.463282	0.429654	0.500000
C363	C	-0.065526	-0.073289	-0.042954
C364	C	0.434474	0.426711	0.457046
H365	H	-0.053791	-0.048125	-0.072993
H366	H	0.446209	0.451875	0.427007
H367	H	-0.060711	-0.112284	-0.057367
H368	H	0.439289	0.387716	0.442633
H369	H	-0.105370	-0.061838	-0.033238
H370	H	0.394630	0.438162	0.466762
O371	O	0.505241	0.127104	0.129979
O372	O	1.005241	0.627104	0.629979
C373	C	0.512351	0.120012	0.078291
C374	C	1.012351	0.620012	0.578291
H375	H	0.530712	0.081457	0.071162
H376	H	1.030712	0.581457	0.571162
H377	H	0.475706	0.125635	0.058446
H378	H	0.975706	0.625635	0.558446
H379	H	0.536384	0.147209	0.063468
H380	H	1.036384	0.647209	0.563468
H381	H	0.695819	-0.333889	0.000065
H382	H	1.195819	0.166111	0.500065
O383	O	0.700266	-0.581452	-0.000023
O384	O	1.200266	-0.081452	0.499977
C385	C	0.727208	-0.572844	-0.042992
C386	C	1.227208	-0.072844	0.457008
H387	H	0.715055	-0.534507	-0.057313
H388	H	1.215055	-0.034507	0.442687
H389	H	0.767550	-0.576693	-0.033327
H390	H	1.267550	-0.076693	0.466673
H391	H	0.720807	-0.600370	-0.073081
H392	H	1.220807	-0.100370	0.426919
H393	H	0.493213	-0.165279	0.000061
H394	H	0.993213	0.334721	0.500061
O395	O	0.505200	0.127069	0.870041
O396	O	1.005200	0.627069	1.370041
C397	C	0.457411	0.119546	0.857273
C398	C	0.957411	0.619546	1.357273
H399	H	0.457468	0.080844	0.842921
H400	H	0.957468	0.580844	1.342921
H401	H	0.433110	0.125274	0.891615
H402	H	0.933110	0.625274	1.391615
H403	H	0.443012	0.146435	0.826961
H404	H	0.943012	0.646435	1.326961
H405	H	0.023514	0.185643	0.000042
H406	H	0.523514	0.685643	0.500042
H407	H	0.057760	-0.062462	0.000083
H408	H	0.557760	0.437538	0.500083
H409	H	0.494146	-0.073812	0.000057
H410	H	0.994146	0.426188	0.500057
O411	O	0.505180	0.127163	0.232926
O412	O	1.005180	0.627163	0.732926
C413	C	0.475959	0.156384	0.198686
C414	C	0.975959	0.656384	0.698686
H415	H	0.475569	0.136574	0.161459
H416	H	0.975569	0.636574	0.661459
H417	H	0.437300	0.164017	0.213772
H418	H	0.937300	0.664017	0.713772
H419	H	0.491379	0.192190	0.193139
H420	H	0.991379	0.692190	0.693139
O421	O	0.701217	-0.482060	-0.000016
O422	O	1.201217	0.017940	0.499984
C423	C	0.704168	-0.453273	-0.042987
C424	C	1.204168	0.046727	0.457013
H425	H	0.665977	-0.440430	-0.057314
H426	H	1.165977	0.059570	0.442686
H427	H	0.723190	-0.420402	-0.033321
H428	H	1.223190	0.079598	0.466679
H429	H	0.725724	-0.475709	-0.073071
H430	H	1.225724	0.024291	0.426929
O431	O	0.438238	-0.545254	-0.000012
O432	O	0.938238	-0.045254	0.499988
C433	C	0.399673	-0.506819	-0.000003
C434	C	0.899673	-0.006819	0.499997
H435	H	0.412970	-0.472666	-0.015701
H436	H	0.912970	0.027334	0.484299
H437	H	0.368701	-0.517123	-0.024098
H438	H	0.868701	-0.017123	0.475902
H439	H	0.386164	-0.499589	0.039794
H440	H	0.886164	0.000411	0.539794
H441	H	0.663725	-0.031269	0.530995
H442	H	1.163725	0.468731	1.030995
O443	O	0.415670	0.152462	0.000043
O444	O	0.915670	0.652462	0.500043
C445	C	0.377238	0.191029	0.000028
C446	C	0.877238	0.691029	0.500028
H447	H	0.343086	0.177741	0.015738
H448	H	0.843086	0.677741	0.515738
H449	H	0.387546	0.222010	0.024108
H450	H	0.887546	0.722010	0.524108
H451	H	0.370004	0.204522	-0.039773
H452	H	0.870004	0.704522	0.460227
O453	O	0.472065	0.160237	0.473115
O454	O	0.972065	0.660237	0.973115
C455	C	0.442846	0.189450	0.438868
C456	C	0.942846	0.689450	0.938868
H457	H	0.442456	0.169631	0.401646
H458	H	0.942456	0.669631	0.901646
H459	H	0.404187	0.197089	0.453953
H460	H	0.904187	0.697089	0.953953
H461	H	0.458268	0.225254	0.433311
H462	H	0.958268	0.725254	0.933311
O463	O	0.316322	0.151383	-0.000037
O464	O	0.816322	0.651383	0.499963
C465	C	0.286807	0.153725	-0.043008
C466	C	0.786807	0.653725	0.456992
H467	H	0.284532	0.115375	-0.057323
H468	H	0.784532	0.615375	0.442677
H469	H	0.248782	0.172029	-0.033349
H470	H	0.748782	0.672029	0.466651
H471	H	0.303240	0.175665	-0.073100
H472	H	0.803240	0.675665	0.426900
H473	H	0.663720	-0.031258	0.374345
H474	H	1.163720	0.468742	0.874345
O475	O	0.668861	-0.036523	0.629854
O476	O	1.168861	0.463477	1.129854
C477	C	0.643193	-0.066154	0.660069
C478	C	1.143193	0.433846	1.160069
H479	H	0.605081	-0.066706	0.644330
H480	H	1.105081	0.433294	1.144330
H481	H	0.663200	-0.104714	0.660666
H482	H	1.163200	0.395286	1.160666
H483	H	0.640542	-0.051005	0.699643
H484	H	1.140542	0.448995	1.199643
O485	O	0.635790	-0.003304	0.129983
O486	O	1.135790	0.496696	0.629983
C487	C	0.665415	0.022328	0.099722
C488	C	1.165415	0.522328	0.599722
H489	H	0.666033	0.060433	0.115458
H490	H	1.166033	0.560433	0.615458
H491	H	0.703956	0.002279	0.099069
H492	H	1.203956	0.502279	0.599069
H493	H	0.650213	0.025000	0.060170
H494	H	1.150213	0.525000	0.560170
O495	O	0.660022	-0.192316	0.000134
O496	O	1.160022	0.307684	0.500134
C497	C	0.662364	-0.221835	0.043105
C498	C	1.162364	0.278165	0.543105
H499	H	0.624014	-0.224112	0.057421
H500	H	1.124014	0.275888	0.557421
H501	H	0.680668	-0.259859	0.033443
H502	H	1.180668	0.240141	0.533443
H503	H	0.684303	-0.205405	0.073196
H504	H	1.184303	0.294595	0.573196
H505	H	0.446177	-0.450879	0.000018
H506	H	0.946177	0.049121	0.500018
O507	O	0.177676	0.194189	0.000056
O508	O	0.677676	0.694189	0.500056
C509	C	0.139240	0.232752	0.000040
C510	C	0.639240	0.732752	0.500040
H511	H	0.105088	0.219458	0.015746
H512	H	0.605088	0.719458	0.515746
H513	H	0.149542	0.263732	0.024125
H514	H	0.649542	0.763732	0.524125
H515	H	0.132009	0.246248	-0.039760
H516	H	0.632009	0.746248	0.460240
O517	O	0.078335	0.193105	-0.000034
O518	O	0.578335	0.693105	0.499966
C519	C	0.048825	0.195447	-0.043009
C520	C	0.548825	0.695447	0.456991
H521	H	0.046548	0.157097	-0.057323
H522	H	0.546548	0.657097	0.442677
H523	H	0.010799	0.213754	-0.033354
H524	H	0.510799	0.713754	0.466646
H525	H	0.065262	0.217385	-0.073099
H526	H	0.565262	0.717385	0.426901
O527	O	0.472175	0.160239	0.370202
O528	O	0.972175	0.660239	0.870202
C529	C	0.497833	0.189897	0.340006
C530	C	0.997833	0.689897	0.840006
H531	H	0.535801	0.170386	0.332176
H532	H	1.035801	0.670386	0.832176
H533	H	0.477597	0.197687	0.303289
H534	H	0.977597	0.697687	0.803289
H535	H	0.500848	0.225599	0.360135
H536	H	1.000848	0.725599	0.860135
H537	H	-0.202311	0.139207	0.000047
H538	H	0.297689	0.639207	0.500047
O539	O	-0.298671	0.145174	-0.000035
O540	O	0.201329	0.645174	0.499965
C541	C	-0.290049	0.172123	-0.042995
C542	C	0.209951	0.672123	0.457005
H543	H	-0.272625	0.146475	-0.073026
H544	H	0.227375	0.646475	0.426974
H545	H	-0.325965	0.191776	-0.057415
H546	H	0.174035	0.691776	0.442585
H547	H	-0.264584	0.199909	-0.033282
H548	H	0.235416	0.699909	0.466718
O549	O	0.472083	0.160228	0.629775
O550	O	0.972083	0.660228	1.129775
C551	C	0.442863	0.189446	0.595531
C552	C	0.942863	0.689446	1.095531
H553	H	0.442473	0.169631	0.558307
H554	H	0.942473	0.669631	1.058307
H555	H	0.404204	0.197082	0.610617
H556	H	0.904204	0.697082	1.110617
H557	H	0.458284	0.225250	0.589979
H558	H	0.958284	0.725250	1.089979
O559	O	-0.175338	-0.027645	-0.000014
O560	O	0.324662	0.472355	0.499986
C561	C	-0.183967	-0.054593	-0.042970
C562	C	0.316033	0.445407	0.457030
H563	H	-0.201379	-0.028941	-0.073003
H564	H	0.298621	0.471059	0.426997
H565	H	-0.148054	-0.074258	-0.057391
H566	H	0.351946	0.425742	0.442609
H567	H	-0.209443	-0.082368	-0.033254
H568	H	0.290557	0.417632	0.466746
H569	H	0.117558	-0.061861	0.000088
H570	H	0.617558	0.438139	0.500088
O571	O	0.213861	-0.067857	0.000065
O572	O	0.713861	0.432143	0.500065
C573	C	0.186168	-0.107096	0.000086
C574	C	0.686168	0.392904	0.500086
H575	H	0.148448	-0.094539	-0.015618
H576	H	0.648448	0.405461	0.484382
H577	H	0.204988	-0.137782	-0.023995
H578	H	0.704988	0.362218	0.476005
H579	H	0.182677	-0.120698	0.039889
H580	H	0.682677	0.379302	0.539889
O581	O	0.340432	-0.022434	0.000073
O582	O	0.840432	0.477566	0.500073
C583	C	0.378864	-0.061002	0.000060
C584	C	0.878864	0.438998	0.500060
H585	H	0.413017	-0.047711	0.015760
H586	H	0.913017	0.452289	0.515760
H587	H	0.368556	-0.091977	0.024151
H588	H	0.868556	0.408023	0.524151
H589	H	0.386094	-0.074504	-0.039739
H590	H	0.886094	0.425496	0.460261
H591	H	0.434827	-0.014492	0.000047
H592	H	0.934827	0.485508	0.500047
H593	H	0.477330	0.155015	0.531024
H594	H	0.977330	0.655015	1.031024
O595	O	0.635781	-0.003422	0.232919
O596	O	1.135781	0.496578	0.732919
C597	C	0.628275	-0.051219	0.220162
C598	C	1.128275	0.448781	0.720162
H599	H	0.609638	-0.051025	0.182251
H600	H	1.109638	0.448975	0.682251
H601	H	0.664787	-0.075274	0.218366
H602	H	1.164787	0.424726	0.718366
H603	H	0.604331	-0.066007	0.249554
H604	H	1.104331	0.433993	0.749554
O605	O	0.668975	-0.036482	0.473094
O606	O	1.168975	0.463518	0.973094
C607	C	0.698188	-0.065695	0.438839
C608	C	1.198188	0.434305	0.938839
H609	H	0.698573	-0.045874	0.401617
H610	H	1.198573	0.454126	0.901617
H611	H	0.736850	-0.073333	0.453913
H612	H	1.236850	0.426667	0.953913
H613	H	0.682766	-0.101498	0.433286
H614	H	1.182766	0.398502	0.933286
O615	O	0.635786	-0.003366	0.870128
O616	O	1.135786	0.496634	1.370128
C617	C	0.628691	0.003743	0.921816
C618	C	1.128691	0.503743	1.421816
H619	H	0.590128	0.022081	0.928946
H620	H	1.090128	0.522081	1.428946
H621	H	0.634337	-0.032901	0.941664
H622	H	1.134337	0.467099	1.441664
H623	H	0.655871	0.027795	0.936633
H624	H	1.155871	0.527795	1.436633
