data_functionalizedCrystal
_audit_creation_method	'MofGen! by Chris Wilmer'
_symmetry_space_group_name_H-M	'P1'
_symmetry_Int_Tables_number	1
_symmetry_cell_setting	triclinic
loop_
_symmetry_equiv_pos_as_xyz
  x,y,z
_cell_length_a	15.625950
_cell_length_b	15.625429
_cell_length_c	14.185569
_cell_angle_alpha	59.452262
_cell_angle_beta	120.545593
_cell_angle_gamma	89.777900
loop_
_atom_site_label
_atom_site_type_symbol
_atom_site_fract_x
_atom_site_fract_y
_atom_site_fract_z
O1	O	1.288167	0.025866	0.375600
O2	O	0.995800	0.069797	0.253305
O3	O	1.163971	-0.098366	0.375626
O4	O	1.119996	0.194029	0.253278
O5	O	1.213650	-0.148038	0.578594
O6	O	1.045479	0.020125	0.456272
O7	O	1.337846	-0.023806	0.578567
Cu8	Cu	1.196198	-0.006376	0.535952
Cu9	Cu	1.137447	0.052367	0.295920
O10	O	1.169674	0.144357	0.456246
C11	C	0.983486	0.047891	0.340213
C12	C	0.872784	0.056608	0.296786
C13	C	0.643960	-0.050014	0.706978
C14	C	0.539920	-0.041790	0.666107
C15	C	0.485814	0.012357	0.444860
C16	C	0.589851	0.004142	0.485710
C17	C	0.668917	-0.027045	0.616771
C18	C	0.614807	0.027111	0.395504
C19	C	0.718836	0.018891	0.436354
C20	C	0.797908	-0.012298	0.567410
C21	C	0.772946	-0.035265	0.657621
C22	C	0.535741	0.058290	0.264447
C23	C	0.560697	0.081259	0.174240
C24	C	0.664726	0.073047	0.215086
C25	C	0.743798	0.041858	0.346143
C26	C	0.689688	0.096014	0.124875
C27	C	0.793717	0.087795	0.165725
C28	C	0.847827	0.033639	0.386993
C29	C	1.191745	-0.160358	0.491690
C30	C	1.200478	-0.271071	0.535131
C31	C	1.093781	-0.499820	0.124846
C32	C	1.101991	-0.603860	0.165700
C33	C	1.156148	-0.657995	0.386961
C34	C	1.147947	-0.553959	0.346127
C35	C	1.116762	-0.474878	0.215068
C36	C	1.170928	-0.529017	0.436349
C37	C	1.162722	-0.424989	0.395516
C38	C	1.131536	-0.345902	0.264460
C39	C	1.108556	-0.370850	0.174234
C40	C	1.202106	-0.608098	0.567405
C41	C	1.225087	-0.583156	0.657627
C42	C	1.216889	-0.479128	0.616798
C43	C	1.185702	-0.400041	0.485742
C44	C	1.239868	-0.454180	0.707024
C45	C	1.231663	-0.350152	0.666190
C46	C	1.177497	-0.296013	0.444909
C47	C	1.350158	-0.001899	0.491657
C48	C	1.460859	-0.010613	0.535075
C49	C	1.141900	0.206350	0.340179
C50	C	1.133165	0.317065	0.296731
N51	N	1.237528	-0.047694	0.704781
N52	N	1.096127	0.093676	0.127097
C53	C	0.974704	0.215025	0.881297
C54	C	1.006017	0.183733	1.009087
C55	C	1.154955	0.034873	1.117355
C56	C	1.123652	0.066149	0.989571
C57	C	1.033527	0.156227	0.871550
C58	C	1.182474	0.007350	0.979825
C59	C	1.151176	0.038628	0.852052
C60	C	1.061056	0.128704	0.734026
C61	C	1.002229	0.187504	0.743777
C62	C	1.272604	-0.082722	1.097847
C63	C	1.331426	-0.141521	1.088101
C64	C	1.300124	-0.110248	0.960327
C65	C	1.210004	-0.020172	0.842301
C66	C	1.358951	-0.169048	0.950575
C67	C	1.327653	-0.137771	0.822803
C68	C	1.178706	0.011105	0.714528
H69	H	0.451034	0.064987	0.231189
Br70	Br	0.879900	0.309743	0.583598
Br71	Br	0.506061	-0.072989	0.788556
Br72	Br	1.481273	-0.291281	1.110754
H73	H	1.035577	0.154171	0.629988
H74	H	0.837324	-0.060645	0.764337
H75	H	0.625301	0.121396	0.018170
H76	H	1.228339	-0.038468	1.213460
H77	H	0.421426	0.037744	0.338152
Br78	Br	0.453395	0.123543	-0.003604
Br79	Br	1.120400	-0.204718	0.209038
Br80	Br	0.852376	0.337264	0.721117
Br81	Br	1.070788	-0.637702	0.043236
H82	H	0.958110	0.231623	1.017006
H83	H	0.814034	0.106503	0.092267
Br84	Br	1.066253	-0.263521	-0.003627
Br85	Br	0.751271	-0.092322	0.884841
H86	H	1.152112	-0.231621	0.338191
H87	H	1.068396	-0.435428	0.018128
H88	H	1.250474	-0.647556	0.764335
Br89	Br	1.315083	-0.125161	1.271253
H90	H	1.375554	-0.185651	0.814871
Br91	Br	0.955137	-0.008670	0.564856
Br92	Br	1.198456	-0.765322	0.564817
H93	H	1.208774	-0.692800	0.600643
H94	H	1.265249	-0.518580	0.813728
H95	H	1.404810	-0.214861	1.184207
H96	H	0.882614	-0.018990	0.600668
H97	H	1.105310	0.084449	0.618427
Br98	Br	1.262854	-0.316297	0.788635
