data_functionalizedCrystal
_audit_creation_method	'MofGen! by Chris Wilmer'
_symmetry_space_group_name_H-M	'P1'
_symmetry_Int_Tables_number	1
_symmetry_cell_setting	triclinic
loop_
_symmetry_equiv_pos_as_xyz
  x,y,z
_cell_length_a	12.645331
_cell_length_b	12.759400
_cell_length_c	12.759393
_cell_angle_alpha	90.031564
_cell_angle_beta	89.978122
_cell_angle_gamma	89.986337
loop_
_atom_site_label
_atom_site_type_symbol
_atom_site_fract_x
_atom_site_fract_y
_atom_site_fract_z
Zn1	Zn	1.620745	0.418233	-0.594076
Zn2	Zn	1.620639	0.593952	-0.418396
Zn3	Zn	1.443462	0.418284	-0.418405
Zn4	Zn	1.443451	0.593867	-0.594027
O5	O	1.532074	0.506084	-0.506226
O6	O	1.769078	0.441556	-0.570789
O7	O	1.597096	0.570706	-0.271376
O8	O	1.467028	0.271256	-0.441732
O9	O	1.769000	0.570656	-0.441717
O10	O	1.597277	0.271219	-0.570797
O11	O	1.466925	0.441644	-0.271383
O12	O	1.295113	0.441562	-0.441685
O13	O	1.467009	0.570512	-0.741055
O14	O	1.295105	0.570562	-0.570714
O15	O	1.597266	0.441474	-0.741091
O16	O	1.597085	0.740962	-0.441670
O17	O	1.466906	0.740900	-0.570705
C18	C	1.256644	0.506059	-0.506196
C19	C	1.138814	0.506074	-0.506208
C20	C	1.532011	0.779051	-0.506204
C21	C	1.532081	0.895828	-0.506230
C22	C	1.532148	0.505978	-0.780260
C23	C	1.532180	0.505933	-0.897036
C24	C	0.971220	0.424546	-0.425484
C25	C	1.093780	0.424757	-0.425128
C26	C	1.094300	0.616752	-0.475963
C27	C	0.971702	0.616307	-0.475412
C28	C	0.971662	0.477976	-0.617489
C29	C	1.094268	0.475504	-0.616871
C30	C	1.808579	0.506110	-0.506257
C31	C	1.926409	0.506121	-0.506271
C32	C	1.532166	0.232051	-0.506271
C33	C	1.532205	0.115274	-0.506290
C34	C	1.599941	0.950687	-0.439116
C35	C	1.600006	1.060412	-0.439148
C36	C	1.464343	1.060407	-0.573412
C37	C	1.464284	0.950685	-0.573384
C38	C	1.667738	0.895831	-0.371961
C39	C	1.735602	0.950690	-0.304841
C40	C	1.735667	1.060414	-0.304873
C41	C	1.667868	1.115279	-0.372026
C42	C	1.600014	0.438737	-0.951919
C43	C	1.600040	0.438699	-1.061643
C44	C	1.464393	0.573062	-1.061593
C45	C	1.464363	0.573094	-0.951871
C46	C	1.667831	0.371575	-0.897085
C47	C	1.735672	0.304374	-0.951967
C48	C	1.735697	0.304336	-1.061691
C49	C	1.667881	0.371499	-1.116533
C50	C	1.532061	0.506114	-0.233259
C51	C	1.532235	0.505863	-0.116483
H52	H	1.123876	0.342685	-0.444085
H53	H	1.790878	0.249686	-0.907308
O54	O	1.667810	0.371628	-0.778740
H55	H	1.587853	0.350402	-0.749795
H56	H	1.667935	1.204623	-0.372055
H57	H	1.123060	0.443360	-0.342711
H58	H	1.790928	0.249610	-1.106374
O59	O	1.391255	0.645503	-1.120736
H60	H	1.402678	0.634197	-1.206253
H61	H	1.667895	0.371451	-1.205878
H62	H	1.409110	0.627795	-0.907184
H63	H	0.940374	0.442943	-0.343551
O64	O	1.667655	0.777486	-0.371933
H65	H	1.747580	0.748461	-0.393233
H66	H	1.124927	0.530584	-0.680282
H67	H	0.941751	0.342228	-0.444238
H68	H	0.943059	0.640173	-0.394106
H69	H	0.942060	0.679144	-0.531688
H70	H	1.409143	1.105086	-0.628084
H71	H	1.123472	0.679156	-0.532957
H72	H	1.790933	1.105078	-0.250228
O73	O	1.391082	0.891509	-0.645762
H74	H	1.409222	0.912492	-0.728242
O75	O	1.134891	0.648916	-0.369415
H76	H	1.186754	0.586259	-0.337830
H77	H	0.940761	0.398678	-0.644994
H78	H	1.123367	0.394057	-0.639677
H79	H	0.942685	0.537391	-0.677682
O80	O	1.808746	0.891525	-0.232432
H81	H	1.797302	0.806011	-0.243682
