data_functionalizedCrystal
_audit_creation_method	'MofGen! by Chris Wilmer'
_symmetry_space_group_name_H-M	'P1'
_symmetry_Int_Tables_number	1
_symmetry_cell_setting	triclinic
loop_
_symmetry_equiv_pos_as_xyz
  x,y,z
_cell_length_a	19.805407
_cell_length_b	14.908520
_cell_length_c	19.805399
_cell_angle_alpha	86.729391
_cell_angle_beta	90.019573
_cell_angle_gamma	93.320773
loop_
_atom_site_label
_atom_site_type_symbol
_atom_site_fract_x
_atom_site_fract_y
_atom_site_fract_z
Zn1	Zn	1.019204	-0.359181	0.398269
Zn2	Zn	1.012594	-0.510047	0.291612
Zn3	Zn	0.906017	-0.359206	0.285095
Zn4	Zn	0.899460	-0.509999	0.404757
O5	O	0.959319	-0.434608	0.344934
O6	O	1.113043	-0.379203	0.384134
O7	O	0.998435	-0.490068	0.196033
O8	O	0.926542	-0.232958	0.294665
O9	O	1.108187	-0.490044	0.305773
O10	O	1.009699	-0.232939	0.377814
O11	O	0.920133	-0.379246	0.191244
O12	O	0.810431	-0.379199	0.300956
O13	O	0.915366	-0.489962	0.498612
O14	O	0.805614	-0.489986	0.388871
O15	O	1.003341	-0.379157	0.493845
O16	O	0.992077	-0.636286	0.312064
O17	O	0.908957	-0.636250	0.395191
C18	C	0.783463	-0.434591	0.344911
C19	C	0.708231	-0.434605	0.344918
C20	C	0.670392	-0.492379	0.390629
C21	C	0.599704	-0.492380	0.390639
C22	C	0.566855	-0.434612	0.344934
C23	C	0.604699	-0.376832	0.299220
C24	C	0.675386	-0.376827	0.299214
C25	C	0.319625	-0.376852	0.299244
C26	C	0.248932	-0.376864	0.299252
C27	C	0.243942	-0.492406	0.390668
C28	C	0.314629	-0.492400	0.390662
C29	C	0.352467	-0.434618	0.344952
C30	C	0.429116	-0.434615	0.344943
C31	C	0.490208	-0.434618	0.344939
C32	C	0.949107	-0.669002	0.355053
C33	C	0.944800	-0.769277	0.359405
C34	C	1.023348	-0.957679	0.281093
C35	C	1.019304	-1.051896	0.285180
C36	C	0.932671	-1.051929	0.371669
C37	C	0.936715	-0.957712	0.367582
C38	C	0.982055	-0.910590	0.322292
C39	C	0.986095	-0.816372	0.318202
C40	C	0.899466	-0.816407	0.404694
C41	C	0.895421	-0.910624	0.408781
C42	C	1.135861	-0.434626	0.344957
C43	C	1.211092	-0.434634	0.344967
C44	C	0.959359	-0.434551	0.521474
C45	C	0.959376	-0.434527	0.596705
C46	C	0.969589	-0.199299	0.334789
C47	C	0.973966	-0.099024	0.330466
C48	C	0.959320	-0.434600	0.169077
C49	C	0.959445	-0.434370	0.093836
C50	C	1.005186	-0.376828	0.629568
C51	C	1.005194	-0.376802	0.700255
C52	C	0.959395	-0.434480	0.738078
C53	C	0.913581	-0.492182	0.705210
C54	C	0.913570	-0.492203	0.634524
C55	C	0.913622	-0.492098	0.990280
C56	C	0.913638	-0.492074	1.060971
C57	C	1.005247	-0.376697	1.056011
C58	C	1.005236	-0.376718	0.985325
C59	C	0.959419	-0.434416	0.952463
C60	C	0.959410	-0.434442	0.875816
C61	C	0.959407	-0.434459	0.814725
H62	H	0.213126	-0.539452	0.427890
H63	H	1.042533	-0.329753	0.954533
H64	H	1.042551	-0.329713	1.082776
O65	O	0.869145	-0.548388	0.602631
C66	C	0.880010	-0.638297	0.623794
H67	H	0.933885	-0.642844	0.643439
H68	H	0.872237	-0.682879	0.579225
H69	H	0.842696	-0.661870	0.665828
H70	H	0.858509	-0.949003	0.445657
O71	O	0.563027	-0.548468	0.435130
C72	C	0.581171	-0.528870	0.501769
H73	H	0.634003	-0.494181	0.501715
H74	H	0.580772	-0.594040	0.534842
H75	H	0.543412	-0.482543	0.522636
H76	H	0.706194	-0.329777	0.261995
H77	H	1.060261	-0.919312	0.244211
H78	H	0.341371	-0.539444	0.427878
H79	H	0.222189	-0.329817	0.262033
O80	O	0.356271	-0.320695	0.254778
C81	C	0.312118	-0.269696	0.214452
H82	H	0.260123	-0.306656	0.213659
H83	H	0.332943	-0.259967	0.160714
H84	H	0.307585	-0.201228	0.236372
H85	H	1.023011	-0.778006	0.281323
H86	H	0.577948	-0.329793	0.262009
O87	O	1.059524	-1.097523	0.245187
C88	C	1.127959	-1.074404	0.259068
H89	H	1.132264	-1.005980	0.282130
H90	H	1.158488	-1.071161	0.210114
H91	H	1.148466	-1.127376	0.296184
O92	O	0.702378	-0.548370	0.435057
C93	C	0.745506	-0.497078	0.476629
H94	H	0.759065	-0.428669	0.449885
H95	H	0.793615	-0.533838	0.487240
H96	H	0.718711	-0.487253	0.526377
O97	O	0.888648	-1.097851	0.415603
C98	C	0.893951	-1.191106	0.410388
H99	H	0.915602	-1.203985	0.358734
H100	H	0.841712	-1.226977	0.416483
H101	H	0.928826	-1.217764	0.451728
O102	O	0.859278	-0.770804	0.444744
C103	C	0.818407	-0.832603	0.485603
H104	H	0.813204	-0.899791	0.460795
H105	H	0.766237	-0.805442	0.491586
H106	H	0.842728	-0.842546	0.537467
O107	O	1.049702	-0.320714	0.592931
C108	C	1.090146	-0.269797	0.637099
H109	H	1.062566	-0.266657	0.687346
H110	H	1.100465	-0.198723	0.613614
H111	H	1.140111	-0.302836	0.646051
O112	O	0.868998	-0.548115	0.741914
C113	C	0.802397	-0.528412	0.723767
H114	H	0.802121	-0.456345	0.701231
H115	H	0.768626	-0.536169	0.770581
H116	H	0.782587	-0.576787	0.684816
O117	O	0.869078	-0.548131	1.097610
C118	C	0.828646	-0.599076	1.053450
H119	H	0.827906	-0.562141	1.001468
H120	H	0.774902	-0.608680	1.074282
H121	H	0.850434	-0.667601	1.048890
H122	H	1.042499	-0.329820	0.727009
H123	H	0.876325	-0.539092	0.963533
