data_functionalizedCrystal
_audit_creation_method	'MofGen! by Chris Wilmer'
_symmetry_space_group_name_H-M	'P1'
_symmetry_Int_Tables_number	1
_symmetry_cell_setting	triclinic
loop_
_symmetry_equiv_pos_as_xyz
  x,y,z
_cell_length_a	10.654562
_cell_length_b	10.489716
_cell_length_c	9.130313
_cell_angle_alpha	90.002761
_cell_angle_beta	89.996930
_cell_angle_gamma	84.509620
loop_
_atom_site_label
_atom_site_type_symbol
_atom_site_fract_x
_atom_site_fract_y
_atom_site_fract_z
O1	O	1.667893	0.179235	-0.121881
O2	O	1.302423	0.196288	-0.121862
O3	O	1.493490	0.002158	-0.121877
O4	O	1.476826	0.373365	-0.121866
O5	O	1.493488	0.002163	0.121722
O6	O	1.302421	0.196293	0.121737
O7	O	1.667891	0.179241	0.121717
Cu8	Cu	1.485156	0.187767	0.143970
Cu9	Cu	1.485158	0.187761	-0.144114
O10	O	1.476824	0.373370	0.121733
C11	C	1.255624	0.195035	-0.000060
C12	C	1.116180	0.191279	-0.000053
C13	C	1.050647	0.189530	0.132721
C14	C	0.919624	0.186011	0.132696
C15	C	0.919676	0.185995	-0.132888
C16	C	1.050699	0.189505	-0.132862
C17	C	1.050615	0.189544	0.286054
C18	C	0.919592	0.186025	0.286030
C19	C	1.492237	-0.045371	-0.000082
C20	C	1.488491	-0.187000	-0.000095
C21	C	1.605659	-0.284725	-0.000088
C22	C	1.543746	-0.362061	-0.120188
C23	C	1.543717	-0.362020	0.119981
C24	C	1.426627	-0.262471	-0.120294
C25	C	1.426615	-0.262424	0.119983
C26	C	1.364615	-0.339711	-0.000146
C27	C	1.714690	0.180493	-0.000088
C28	C	1.854134	0.184250	-0.000104
C29	C	1.478077	0.420899	-0.000065
C30	C	1.481823	0.562529	-0.000062
N31	N	1.485163	0.187771	0.346592
N32	N	1.485161	0.187748	-0.346737
C33	C	1.569789	0.101840	0.423237
C34	C	1.569786	0.101825	0.576574
C35	C	1.400526	0.273683	0.576607
C36	C	1.400524	0.273691	0.423273
C37	C	1.667514	0.002622	0.423220
C38	C	1.667511	0.002607	0.576556
H39	H	1.096841	0.101391	0.344935
O40	O	1.318435	0.357336	0.348890
C41	C	1.339940	0.483807	0.386406
H42	H	1.440494	0.485394	0.428545
H43	H	1.326050	0.547698	0.285581
H44	H	1.270666	0.520596	0.475426
H45	H	1.080225	0.282577	0.333634
H46	H	1.593208	-0.405580	-0.221732
H47	H	1.764030	0.024467	0.618169
H48	H	1.377195	-0.218882	0.221530
H49	H	1.636963	-0.090047	0.624102
H50	H	1.331614	0.343636	0.639058
O51	O	1.114159	0.191239	-0.261970
C52	C	1.028268	0.188887	-0.379188
H53	H	0.930032	0.226709	-0.340285
H54	H	1.058736	0.251702	-0.472066
H55	H	1.026582	0.086351	-0.420001
O56	O	1.242893	-0.368658	-0.000015
C57	C	1.180912	-0.315714	0.125521
H58	H	1.231901	-0.232060	0.166966
H59	H	1.079452	-0.280330	0.096547
H60	H	1.181264	-0.391939	0.214558
O61	O	0.884191	0.074974	0.342539
C62	C	0.817288	0.011921	0.235669
H63	H	0.844021	0.045326	0.122029
H64	H	0.842061	-0.095916	0.245162
H65	H	0.711684	0.035363	0.253397
H66	H	0.873339	0.274183	0.344898
H67	H	0.866345	0.184551	-0.241017
H68	H	1.707576	-0.260093	-0.000216
H69	H	1.377193	-0.219148	-0.221942
H70	H	1.593202	-0.405512	0.221514
O71	O	1.641655	-0.114292	0.373631
C72	C	1.522277	-0.141149	0.425267
H73	H	1.463444	-0.047627	0.452523
H74	H	1.472473	-0.194536	0.337131
H75	H	1.534382	-0.203003	0.527895
O76	O	1.776299	0.039881	0.366663
C77	C	1.792433	0.165068	0.414502
H78	H	1.736819	0.186000	0.519852
H79	H	1.896709	0.173694	0.435799
H80	H	1.756821	0.236740	0.326540
