data_functionalizedCrystal
_audit_creation_method	'MofGen! by Chris Wilmer'
_symmetry_space_group_name_H-M	'P1'
_symmetry_Int_Tables_number	1
_symmetry_cell_setting	triclinic
loop_
_symmetry_equiv_pos_as_xyz
  x,y,z
_cell_length_a	15.944551
_cell_length_b	13.262390
_cell_length_c	12.376457
_cell_angle_alpha	63.168449
_cell_angle_beta	101.276265
_cell_angle_gamma	83.983782
loop_
_atom_site_label
_atom_site_type_symbol
_atom_site_fract_x
_atom_site_fract_y
_atom_site_fract_z
O1	O	0.017820	1.512403	-0.559008
O2	O	0.047271	1.185279	-0.458433
O3	O	-0.090167	1.357772	-0.511456
O4	O	0.155258	1.339910	-0.505985
O5	O	-0.055852	1.314664	-0.310193
O6	O	0.081586	1.142171	-0.257170
O7	O	0.052135	1.469295	-0.357745
Zn8	Zn	0.072309	1.298889	-0.275503
Zn9	Zn	0.027097	1.355685	-0.540676
O10	O	0.189573	1.296802	-0.304722
C11	C	0.065933	1.121864	-0.344932
C12	C	0.070408	0.997133	-0.306583
C13	C	0.008186	0.739540	-0.637336
C14	C	0.003978	0.856733	-0.673369
C15	C	0.020585	0.891839	-0.581675
C16	C	0.041402	0.809740	-0.453943
C17	C	0.045604	0.692537	-0.417907
C18	C	0.058003	0.844836	-0.362246
C19	C	0.078819	0.762737	-0.234513
C20	C	0.083021	0.645547	-0.198483
C21	C	0.066413	0.610441	-0.290177
C22	C	0.053800	0.962039	-0.398282
C23	C	0.091218	0.915036	-0.178853
C24	C	0.095426	0.797843	-0.142820
C25	C	-0.104267	1.335476	-0.410596
C26	C	-0.197403	1.333252	-0.409912
C27	C	-0.406741	1.221020	-0.375422
C28	C	-0.453403	1.251884	-0.292211
C29	C	-0.367933	1.329232	-0.408685
C30	C	-0.487220	1.294411	-0.490648
C31	C	-0.532657	1.325341	-0.407502
C32	C	-0.413355	1.360107	-0.325401
C33	C	-0.447179	1.402638	-0.523923
C34	C	-0.493823	1.433575	-0.440712
C35	C	-0.273039	1.331470	-0.409364
C36	C	-0.627548	1.323110	-0.406816
C37	C	0.203672	1.319099	-0.405584
C38	C	0.296808	1.321324	-0.406277
C39	C	0.033472	1.532710	-0.471249
C40	C	0.028996	1.657443	-0.509606
N41	N	0.103163	1.260135	-0.094532
N42	N	-0.003764	1.394448	-0.721649
C43	C	-0.075404	1.484408	0.191514
C44	C	-0.096999	1.511526	0.064838
C45	C	-0.046960	1.448680	0.024989
C46	C	0.024677	1.358713	0.111829
C47	C	0.046278	1.331598	0.238515
C48	C	0.074722	1.295870	0.071990
C49	C	0.146359	1.205903	0.158830
C50	C	0.167957	1.178793	0.285503
C51	C	0.117918	1.241638	0.325352
C52	C	0.053121	1.322985	-0.054696
C53	C	0.174803	1.170175	-0.007695
C54	C	0.196398	1.143057	0.118981
H55	H	0.017158	0.987264	-0.611021
H56	H	0.112374	0.730983	-0.038818
C57	C	-0.530639	1.256840	-0.584967
H58	H	-0.578744	1.316917	-0.647094
H59	H	-0.489042	1.241841	-0.624293
H60	H	-0.550930	1.188582	-0.541691
C61	C	-0.010080	0.700920	-0.738181
H62	H	-0.004592	0.619364	-0.698423
H63	H	-0.067827	0.738346	-0.791794
H64	H	0.030923	0.721211	-0.786536
C65	C	-0.458210	1.165784	-0.159872
H66	H	-0.428014	1.090298	-0.136774
H67	H	-0.431768	1.188405	-0.101000
H68	H	-0.517817	1.165514	-0.160208
C69	C	-0.175767	1.610515	-0.030690
H70	H	-0.181452	1.617682	-0.111848
H71	H	-0.227711	1.593919	-0.006208
H72	H	-0.166717	1.681039	-0.032970
H73	H	-0.381294	1.387850	-0.255474
H74	H	-0.531396	1.523463	-0.468296
C75	C	-0.355759	1.099657	-0.338002
H76	H	-0.333288	1.103138	-0.404973
H77	H	-0.308620	1.073604	-0.264760
H78	H	-0.393928	1.047357	-0.321210
H79	H	-0.005207	1.396236	-0.125390
C80	C	-0.442337	1.488687	-0.656252
H81	H	-0.467793	1.465217	-0.714841
H82	H	-0.473449	1.563930	-0.680053
H83	H	-0.382773	1.489978	-0.655508
H84	H	-0.116135	1.535575	0.223967
H85	H	0.135498	1.219557	0.428502
C86	C	-0.070720	1.478500	-0.114348
H87	H	-0.120555	1.541074	-0.160357
H88	H	-0.022671	1.500004	-0.147748
H89	H	-0.083612	1.412816	-0.120903
H90	H	0.226294	1.105545	0.356207
C91	C	0.109490	0.953639	-0.077984
H92	H	0.104015	1.035193	-0.117738
H93	H	0.068495	0.933344	-0.029625
H94	H	0.167243	0.916212	-0.024375
H95	H	0.069842	0.515014	-0.260845
C96	C	0.275181	1.044078	0.214512
H97	H	0.301884	1.010515	0.172650
H98	H	0.316613	1.073888	0.251518
H99	H	0.255639	0.986743	0.278300
C100	C	0.030912	1.052336	-0.538774
H101	H	0.030781	1.127164	-0.547110
H102	H	0.073285	1.034216	-0.575319
H103	H	-0.025464	1.051348	-0.580572
C104	C	-0.018912	0.947030	-0.813861
H105	H	-0.028193	0.909339	-0.863309
H106	H	-0.070700	1.002290	-0.835108
H107	H	0.028049	0.985158	-0.829848
C108	C	0.229852	1.101045	-0.051516
H109	H	0.206724	1.130072	-0.139396
H110	H	0.288855	1.108808	-0.034517
H111	H	0.227924	1.021609	-0.007687
H112	H	0.099955	0.578706	-0.094476
