data_functionalizedCrystal
_audit_creation_method	'MofGen! by Chris Wilmer'
_symmetry_space_group_name_H-M	'P1'
_symmetry_Int_Tables_number	1
_symmetry_cell_setting	triclinic
loop_
_symmetry_equiv_pos_as_xyz
  x,y,z
_cell_length_a	15.995292
_cell_length_b	15.995292
_cell_length_c	14.472310
_cell_angle_alpha	90.014199
_cell_angle_beta	89.997879
_cell_angle_gamma	83.468616
loop_
_atom_site_label
_atom_site_type_symbol
_atom_site_fract_x
_atom_site_fract_y
_atom_site_fract_z
O1	O	0.107692	1.111004	0.076859
O2	O	0.607692	1.611004	0.576859
O3	O	0.121071	0.867220	0.076855
O4	O	0.621071	1.367220	0.576855
O5	O	-0.007511	0.995801	0.076859
O6	O	0.492489	1.495801	0.576859
O7	O	0.236274	0.982423	0.076856
O8	O	0.736274	1.482423	0.576856
O9	O	-0.007504	0.995768	-0.076823
O10	O	0.492496	1.495768	0.423177
O11	O	0.121078	0.867187	-0.076827
O12	O	0.621078	1.367187	0.423173
O13	O	0.107699	1.110971	-0.076823
O14	O	0.607699	1.610971	0.423177
Cu15	Cu	0.114389	0.989076	-0.090857
Cu16	Cu	0.614389	1.489076	0.409143
Cu17	Cu	0.114381	0.989115	0.090889
Cu18	Cu	0.614381	1.489115	0.590889
O19	O	0.236281	0.982390	-0.076826
O20	O	0.736281	1.482390	0.423174
C21	C	0.120530	0.836008	0.000013
C22	C	0.620530	1.336008	0.500013
C23	C	0.118898	0.743055	0.000012
C24	C	0.618898	1.243055	0.500012
C25	C	0.112896	0.405318	0.000022
C26	C	0.612896	0.905318	0.500022
C27	C	0.205703	0.428611	0.000364
C28	C	0.705703	0.928611	0.500364
C29	C	0.207467	0.525286	0.000014
C30	C	0.707467	1.025286	0.500014
C31	C	0.115874	0.572873	0.000018
C32	C	0.615874	1.072873	0.500018
C33	C	0.069479	0.543762	-0.087738
C34	C	0.569479	1.043762	0.412262
C35	C	0.068362	0.446972	-0.087808
C36	C	0.568362	0.946972	0.412192
C37	C	0.066458	0.447154	0.086957
C38	C	0.566458	0.947154	0.586957
C39	C	0.069898	0.543646	0.088113
C40	C	0.569898	1.043646	0.588113
C41	C	0.117552	0.667569	0.000012
C42	C	0.617552	1.167569	0.500012
C43	C	0.111215	0.310622	0.000022
C44	C	0.611215	0.810622	0.500022
C45	C	-0.038703	0.995240	0.000020
C46	C	0.461297	1.495240	0.500020
C47	C	-0.131655	0.993608	0.000027
C48	C	0.368345	1.493608	0.500027
C49	C	-0.469393	0.987607	0.000018
C50	C	0.030607	1.487607	0.500018
C51	C	-0.446100	1.080413	-0.000323
C52	C	0.053900	1.580413	0.499677
C53	C	-0.349424	1.082177	0.000026
C54	C	0.150576	1.582177	0.500026
C55	C	-0.301837	0.990584	0.000022
C56	C	0.198163	1.490584	0.500022
C57	C	-0.330933	0.944204	0.087778
C58	C	0.169067	1.444204	0.587778
C59	C	-0.427723	0.943087	0.087848
C60	C	0.072277	1.443087	0.587848
C61	C	-0.427571	0.941154	-0.086917
C62	C	0.072429	1.441154	0.413083
C63	C	-0.331080	0.944593	-0.088073
C64	C	0.168920	1.444593	0.411927
C65	C	-0.207141	0.992263	0.000027
C66	C	0.292859	1.492263	0.500027
C67	C	-0.564088	0.985926	0.000019
C68	C	-0.064088	1.485926	0.500019
C69	C	0.267473	0.982951	0.000014
C70	C	0.767473	1.482951	0.500014
C71	C	0.360426	0.984583	0.000013
C72	C	0.860426	1.484583	0.500013
C73	C	0.108240	1.142183	0.000021
C74	C	0.608240	1.642183	0.500021
C75	C	0.109873	1.235136	0.000028
C76	C	0.609873	1.735136	0.500028
N77	N	0.114395	0.989055	-0.218688
N78	N	0.614395	1.489055	0.281312
C79	C	0.114377	0.989114	-0.592779
C80	C	0.614377	1.489114	-0.092779
C81	C	0.182948	0.920082	-0.553616
C82	C	0.682948	1.420082	-0.053616
C83	C	0.183198	0.920241	-0.446527
C84	C	0.683198	1.420241	0.053473
C85	C	0.114386	0.989084	-0.407188
C86	C	0.614386	1.489084	0.092812
C87	C	0.133450	1.076447	-0.446024
C88	C	0.633450	1.576447	0.053976
C89	C	0.133938	1.076059	-0.553146
C90	C	0.633938	1.576059	-0.053146
C91	C	0.026539	0.971563	-0.553308
C92	C	0.526539	1.471563	-0.053308
C93	C	0.027125	0.969559	-0.446181
C94	C	0.527125	1.469559	0.053819
C95	C	0.114390	0.989072	-0.302300
C96	C	0.614390	1.489072	0.197700
C97	C	0.114376	0.989131	-0.697668
C98	C	0.614376	1.489131	-0.197668
N99	N	0.114368	0.989143	0.218720
N100	N	0.614368	1.489143	0.718720
H101	H	0.002079	0.575644	-0.090999
H102	H	0.502079	1.075644	0.409001
H103	H	-0.310882	0.976439	0.153089
H104	H	0.189118	1.476439	0.653089
H105	H	-0.299051	0.876805	0.091038
H106	H	0.200949	1.376805	0.591038
C107	C	0.111784	0.410710	-0.176423
C108	C	0.611784	0.910710	0.323577
H109	H	0.129943	0.455155	-0.212038
H110	H	0.629943	0.955155	0.287962
H111	H	0.073211	0.382680	-0.211509
H112	H	0.573211	0.882680	0.288491
H113	H	0.159003	0.371936	-0.160386
H114	H	0.659003	0.871936	0.339614
H115	H	0.000316	0.432435	-0.091792
H116	H	0.500316	0.932435	0.408208
H117	H	0.008203	0.909242	-0.580377
H118	H	0.508203	1.409242	-0.080377
H119	H	0.095463	0.418836	0.153472
H120	H	0.595463	0.918836	0.653472
H121	H	0.247765	0.931133	-0.580526
H122	H	0.747765	1.431133	-0.080526
C123	C	-0.042402	1.039558	-0.587526
C124	C	0.457598	1.539558	-0.087526
H125	H	-0.095331	1.028618	-0.563444
H126	H	0.404669	1.528618	-0.063444
H127	H	-0.044308	1.038737	-0.653120
H128	H	0.455692	1.538737	-0.153120
H129	H	-0.030097	1.093270	-0.567110
H130	H	0.469903	1.593270	-0.067110
H131	H	-0.475128	1.116000	0.062259
H132	H	0.024872	1.616000	0.562259
C133	C	-0.045043	1.033066	-0.410014
C134	C	0.454957	1.533066	0.089986
H135	H	-0.096963	1.019751	-0.434665
H136	H	0.403037	1.519751	0.065335
H137	H	-0.035868	1.088248	-0.428577
H138	H	0.464132	1.588248	0.071423
H139	H	-0.046826	1.030371	-0.344479
H140	H	0.453174	1.530371	0.155521
H141	H	0.103678	0.562223	0.153035
H142	H	0.603678	1.062223	0.653035
C143	C	-0.020420	0.588196	0.095276
C144	C	0.479580	1.088196	0.595276
H145	H	-0.031321	0.625364	0.044403
H146	H	0.468679	1.125364	0.544403
H147	H	-0.026449	0.619272	0.151287
H148	H	0.473551	1.119272	0.651287
H149	H	-0.059216	0.547427	0.094534
H150	H	0.440784	1.047427	0.594534
H151	H	0.085962	1.129031	-0.579050
H152	H	0.585962	1.629031	-0.079050
C153	C	-0.323726	1.131258	-0.084944
C154	C	0.176274	1.631258	0.415056
H155	H	-0.372413	1.150299	-0.119986
H156	H	0.127587	1.650299	0.380014
H157	H	-0.285922	1.095524	-0.122079
H158	H	0.214078	1.595524	0.377921
H159	H	-0.297003	1.178252	-0.065182
H160	H	0.202997	1.678252	0.434818
C161	C	-0.286532	0.854275	-0.095243
C162	C	0.213468	1.354275	0.404757
H163	H	-0.305391	0.828024	-0.149059
H164	H	0.194609	1.328024	0.350941
H165	H	-0.299274	0.823157	-0.042176
H166	H	0.200726	1.323157	0.457824
H167	H	-0.227443	0.855925	-0.098929
H168	H	0.272557	1.355925	0.401071
H169	H	0.243797	0.544318	0.062923
H170	H	0.743797	1.044318	0.562923
C171	C	0.113013	0.570820	-0.175970
C172	C	0.613013	1.070820	0.324030
H173	H	0.159455	0.599848	-0.159515
H174	H	0.659455	1.099848	0.340485
H175	H	0.074115	0.606879	-0.211476
H176	H	0.574115	1.106879	0.288524
H177	H	0.132345	0.522415	-0.211343
H178	H	0.632345	1.022415	0.288657
C179	C	-0.465741	0.980405	-0.176778
C180	C	0.034259	1.480405	0.323222
H181	H	-0.439636	0.951459	-0.228394
H182	H	0.060364	1.451459	0.271606
H183	H	-0.456692	1.038028	-0.179470
H184	H	0.043308	1.538028	0.320530
H185	H	-0.524450	0.975933	-0.177908
H186	H	-0.024450	1.475933	0.322092
C187	C	0.254033	0.390790	0.085373
C188	C	0.754033	0.890790	0.585373
H189	H	0.218049	0.360449	0.121418
H190	H	0.718049	0.860449	0.621418
H191	H	0.272504	0.434752	0.121510
H192	H	0.772504	0.934752	0.621510
H193	H	0.301359	0.353814	0.065633
H194	H	0.801359	0.853814	0.565633
H195	H	-0.001854	0.433176	0.087553
H196	H	0.498146	0.933176	0.587553
C197	C	-0.483918	1.128723	-0.085344
C198	C	0.016082	1.628723	0.414656
H199	H	-0.514259	1.092731	-0.121392
H200	H	-0.014259	1.592731	0.378608
H201	H	-0.439951	1.147178	-0.121471
H202	H	0.060049	1.647178	0.378529
H203	H	-0.520891	1.176058	-0.065621
H204	H	-0.020891	1.676058	0.434379
C205	C	-0.305998	0.990205	-0.175779
C206	C	0.194002	1.490205	0.324221
H207	H	-0.277818	1.037079	-0.158790
H208	H	0.222182	1.537079	0.341210
H209	H	-0.355066	1.009123	-0.210240
H210	H	0.144934	1.509123	0.289760
H211	H	-0.269615	0.952552	-0.212409
H212	H	0.230385	1.452552	0.287591
H213	H	0.012657	0.905294	-0.420799
H214	H	0.512657	1.405294	0.079201
C215	C	-0.446450	0.848871	-0.087724
C216	C	0.053550	1.348871	0.412276
H217	H	-0.479654	0.838667	-0.035370
H218	H	0.020346	1.338667	0.464630
H219	H	-0.395092	0.812692	-0.085797
H220	H	0.104908	1.312692	0.414203
H221	H	-0.476269	0.838330	-0.142495
H222	H	0.023731	1.338330	0.357505
H223	H	0.171842	0.855302	-0.420272
H224	H	0.671842	1.355302	0.079728
C225	C	0.253771	0.389388	-0.084174
C226	C	0.753771	0.889388	0.415826
H227	H	0.309784	0.403764	-0.083434
H228	H	0.809784	0.903764	0.416566
H229	H	0.226432	0.410272	-0.139133
H230	H	0.726432	0.910272	0.360867
H231	H	0.254763	0.329921	-0.082099
H232	H	0.754763	0.829921	0.417901
H233	H	-0.442259	0.875041	0.091821
H234	H	0.057741	1.375041	0.591821
C235	C	0.167873	0.832069	-0.588463
C236	C	0.667873	1.332069	-0.088463
H237	H	0.119629	0.836632	-0.627214
H238	H	0.619629	1.336632	-0.127214
H239	H	0.159130	0.796984	-0.537228
H240	H	0.659130	1.296984	-0.037228
H241	H	0.215561	0.808299	-0.622468
H242	H	0.715561	1.308299	-0.122468
H243	H	-0.331030	1.118744	0.063045
H244	H	0.168970	1.618744	0.563045
C245	C	0.271252	0.935383	-0.411892
C246	C	0.771252	1.435383	0.088108
H247	H	0.307008	0.941470	-0.463290
H248	H	0.807008	1.441470	0.036710
H249	H	0.294011	0.888879	-0.375464
H250	H	0.794011	1.388879	0.124536
H251	H	0.267062	0.985161	-0.375563
H252	H	0.767062	1.485161	0.124437
C253	C	-0.463963	0.986475	0.176493
C254	C	0.036037	1.486475	0.676493
H255	H	-0.419510	1.004625	0.212117
H256	H	0.080490	1.504625	0.712117
H257	H	-0.491969	0.947874	0.211550
H258	H	0.008031	1.447874	0.711550
H259	H	-0.502754	1.033695	0.160504
H260	H	-0.002754	1.533695	0.660504
C261	C	0.220477	1.096945	-0.586892
C262	C	0.720477	1.596945	-0.086892
H263	H	0.255006	1.105583	-0.535133
H264	H	0.755006	1.605583	-0.035133
H265	H	0.213411	1.146575	-0.623429
H266	H	0.713411	1.646575	-0.123429
H267	H	0.246413	1.051548	-0.622918
H268	H	0.746413	1.551548	-0.122918
H269	H	0.084835	1.129043	-0.420539
H270	H	0.584835	1.629043	0.079461
C271	C	0.219003	1.097846	-0.409780
C272	C	0.719003	1.597846	0.090220
H273	H	0.243213	1.053659	-0.370992
H274	H	0.743213	1.553659	0.129008
H275	H	0.211101	1.148809	-0.375540
H276	H	0.711101	1.648809	0.124460
H277	H	0.255485	1.104254	-0.460456
H278	H	0.755485	1.604254	0.039544
H279	H	0.244027	0.543668	-0.063001
H280	H	0.744027	1.043668	0.436999
