data_functionalizedCrystal
_audit_creation_method	'MofGen! by Chris Wilmer'
_symmetry_space_group_name_H-M	'P1'
_symmetry_Int_Tables_number	1
_symmetry_cell_setting	triclinic
loop_
_symmetry_equiv_pos_as_xyz
  x,y,z
_cell_length_a	13.897449
_cell_length_b	12.594516
_cell_length_c	13.897441
_cell_angle_alpha	90.026377
_cell_angle_beta	90.020733
_cell_angle_gamma	90.017332
loop_
_atom_site_label
_atom_site_type_symbol
_atom_site_fract_x
_atom_site_fract_y
_atom_site_fract_z
Zn1	Zn	1.474714	-0.423672	0.545409
Zn2	Zn	1.474612	-0.601683	0.384123
Zn3	Zn	1.313403	-0.423722	0.384128
Zn4	Zn	1.313389	-0.601613	0.545375
O5	O	1.394029	-0.512672	0.464759
O6	O	1.609682	-0.447293	0.524027
O7	O	1.453191	-0.578126	0.249142
O8	O	1.334849	-0.274770	0.405539
O9	O	1.609607	-0.578077	0.405530
O10	O	1.453364	-0.274733	0.524032
O11	O	1.334751	-0.447380	0.249145
O12	O	1.178419	-0.447312	0.405506
O13	O	1.334826	-0.577958	0.680362
O14	O	1.178409	-0.578007	0.523973
O15	O	1.453350	-0.447226	0.680387
O16	O	1.453177	-0.750619	0.405497
O17	O	1.334728	-0.750568	0.523968
C18	C	1.143415	-0.512658	0.464737
C19	C	1.036201	-0.512678	0.464750
C20	C	1.393966	-0.789213	0.464749
C21	C	1.394027	-0.907519	0.464778
C22	C	0.839906	-0.512682	0.464776
C23	C	0.949139	-0.512676	0.464759
C24	C	1.329596	-0.976783	0.529169
C25	C	1.306093	-1.047649	0.441152
C26	C	1.417619	-1.047452	0.552810
C27	C	1.370477	-0.976827	0.376714
C28	C	1.482044	-0.976623	0.488431
C29	C	1.458574	-1.047457	0.400353
C30	C	1.645622	-0.512687	0.464781
C31	C	1.752836	-0.512694	0.464791
C32	C	1.394098	-0.512578	0.716352
C33	C	1.394127	-0.512538	0.823566
C34	C	1.394119	-0.235052	0.464789
C35	C	1.394157	-0.116746	0.464802
C36	C	1.394017	-0.512689	0.214145
C37	C	1.394174	-0.512430	0.106931
C38	C	1.394153	-0.512466	1.019861
C39	C	1.394136	-0.512509	0.910629
H40	H	1.231719	-1.078870	0.421166
H41	H	1.437520	-1.078475	0.627247
H42	H	1.556401	-0.945405	0.508459
C43	C	1.343471	-0.935101	0.276125
C44	C	1.321563	-1.013767	0.194128
C45	C	1.294553	-0.972039	0.093543
C46	C	1.289451	-0.851645	0.074953
C47	C	1.311360	-0.772971	0.156951
C48	C	1.338370	-0.814699	0.257537
H49	H	1.325339	-1.102898	0.207888
H50	H	1.278335	-1.030280	0.032842
H51	H	1.269457	-0.820755	0.000493
H52	H	1.307584	-0.683841	0.143192
H53	H	1.354588	-0.756458	0.318238
C54	C	1.532249	-1.089143	0.326724
C55	C	1.521416	-1.061027	0.219440
C56	C	1.595082	-1.102722	0.145808
C57	C	1.679580	-1.172533	0.179458
C58	C	1.690417	-1.200653	0.286747
C59	C	1.616752	-1.158958	0.360380
H60	H	1.458862	-1.009345	0.194525
H61	H	1.587059	-1.081906	0.066385
H62	H	1.734112	-1.203399	0.124951
H63	H	1.752972	-1.252335	0.311662
H64	H	1.624774	-1.179774	0.439802
H65	H	1.275011	-0.945749	0.583543
