data_functionalizedCrystal
_audit_creation_method	'MofGen! by Chris Wilmer'
_symmetry_space_group_name_H-M	'P1'
_symmetry_Int_Tables_number	1
_symmetry_cell_setting	triclinic
loop_
_symmetry_equiv_pos_as_xyz
  x,y,z
_cell_length_a	6.817900
_cell_length_b	7.190334
_cell_length_c	10.992421
_cell_angle_alpha	92.141001
_cell_angle_beta	108.764763
_cell_angle_gamma	60.611776
loop_
_atom_site_label
_atom_site_type_symbol
_atom_site_fract_x
_atom_site_fract_y
_atom_site_fract_z
V1	V	-4.249573	0.664971	-0.175712
O2	O	-4.205131	0.652344	0.010552
O3	O	-4.226220	0.660394	-0.350435
O4	O	-4.286188	0.955002	-0.172084
O5	O	-4.144749	0.355696	-0.169033
V6	V	-4.718940	0.627983	-0.153542
O7	O	-4.541885	0.746108	-0.224343
O8	O	-4.876825	0.546847	-0.104910
O9	O	-4.519086	0.632560	0.021181
O10	O	-4.880778	0.640611	-0.339806
O11	O	-4.941161	0.937258	-0.160220
O12	O	-4.459118	0.337953	-0.157170
C13	C	-4.074564	0.649896	-0.393057
C14	C	-4.137324	0.648087	-0.535890
C15	C	-4.151068	1.025695	-0.165547
C16	C	-4.264546	1.267252	-0.163700
C17	C	-4.002019	0.633502	-0.731222
C18	C	-3.936149	0.634538	-0.582574
C19	C	-4.167456	0.449188	-0.575138
C20	C	-4.231263	0.447081	-0.723688
C21	C	-4.445744	0.854814	-0.761013
C22	C	-4.377568	0.859129	-0.612486
C23	C	-4.334084	0.643052	0.063797
C24	C	-4.250566	0.644875	0.206628
H25	H	-4.004940	0.774741	-0.777207
H26	H	-3.995071	0.292947	-0.521382
H27	H	-3.907947	0.776659	-0.556372
H28	H	-4.088324	0.289160	-0.741689
H29	H	-4.407410	0.446768	-0.764572
H30	H	-3.855416	0.482100	-0.752248
O31	O	-4.341484	0.451514	-0.538982
C32	C	-4.438889	0.265706	-0.411298
C33	C	-4.241576	0.262767	-0.452153
H34	H	-4.358178	0.113143	-0.341070
H35	H	-4.586469	0.272993	-0.500894
H36	H	-4.518080	0.413262	-0.361615
H37	H	-4.162194	0.115230	-0.501808
H38	H	-4.094144	0.255593	-0.362512
O39	O	-4.475122	1.034438	-0.819688
C40	C	-4.747730	1.363935	-0.970554
C41	C	-4.714816	1.160601	-0.904222
H42	H	-4.941525	1.466016	-1.038893
H43	H	-4.621862	1.314570	-1.028283
H44	H	-4.704187	1.461827	-0.893507
H45	H	-4.758394	1.062617	-0.981183
H46	H	-4.840653	1.210113	-0.846466
O47	O	-4.355232	1.034921	-0.583625
C48	C	-4.546320	1.422445	-0.619944
C49	C	-4.571930	1.223552	-0.652782
H50	H	-4.721509	1.575005	-0.675819
H51	H	-4.394485	1.411147	-0.648380
H52	H	-4.504039	1.428422	-0.511233
H53	H	-4.614297	1.217452	-0.761481
H54	H	-4.723710	1.234930	-0.624254
H55	H	-3.756631	0.483012	-0.530599
H56	H	-4.531870	0.881343	-0.582210
H57	H	-4.627714	0.865239	-0.802098
