data_functionalizedCrystal
_audit_creation_method	'MofGen! by Chris Wilmer'
_symmetry_space_group_name_H-M	'P1'
_symmetry_Int_Tables_number	1
_symmetry_cell_setting	triclinic
loop_
_symmetry_equiv_pos_as_xyz
  x,y,z
_cell_length_a	12.645330
_cell_length_b	12.645331
_cell_length_c	12.645323
_cell_angle_alpha	89.973618
_cell_angle_beta	90.024870
_cell_angle_gamma	89.988054
loop_
_atom_site_label
_atom_site_type_symbol
_atom_site_fract_x
_atom_site_fract_y
_atom_site_fract_z
Zn1	Zn	-0.422193	-1.620731	0.599551
Zn2	Zn	-0.599481	-1.620613	0.422291
Zn3	Zn	-0.422215	-1.443446	0.422284
Zn4	Zn	-0.599398	-1.443428	0.599495
O5	O	-0.510822	-1.532054	0.510905
O6	O	-0.445737	-1.769063	0.576064
O7	O	-0.576011	-1.597069	0.273943
O8	O	-0.273865	-1.467020	0.445819
O9	O	-0.575990	-1.768976	0.445831
O10	O	-0.273849	-1.597271	0.576057
O11	O	-0.445773	-1.466906	0.273938
O12	O	-0.445692	-1.295096	0.445765
O13	O	-0.575847	-1.466989	0.747850
O14	O	-0.575868	-1.295083	0.575961
O15	O	-0.445656	-1.597253	0.747891
O16	O	-0.747818	-1.597052	0.445777
O17	O	-0.747756	-1.466874	0.575968
C18	C	-0.510774	-1.256625	0.510857
C19	C	-0.510779	-1.138795	0.510861
C20	C	-0.786252	-1.531977	0.510890
C21	C	-0.904082	-1.532041	0.510920
C22	C	-0.428495	-0.971204	0.429396
C23	C	-0.428718	-1.093763	0.429045
C24	C	-0.622449	-1.094274	0.480344
C25	C	-0.621990	-0.971676	0.479780
C26	C	-0.482424	-0.971645	0.623134
C27	C	-0.479939	-1.094251	0.622519
C28	C	-1.071651	-1.450484	0.593075
C29	C	-0.949091	-1.450067	0.592811
C30	C	-0.948673	-1.501796	0.399196
C31	C	-1.071271	-1.501298	0.399694
C32	C	-1.071182	-1.644342	0.539582
C33	C	-0.948575	-1.643654	0.542025
C34	C	-0.234316	-1.532161	0.510943
C35	C	-0.116486	-1.532206	0.510960
C36	C	-0.510740	-1.532133	0.787411
C37	C	-0.510705	-1.532166	0.905241
C38	C	-0.510850	-0.808560	0.510938
C39	C	-0.510809	-0.926390	0.510911
C40	C	-0.510827	-1.532038	0.235476
C41	C	-0.510563	-1.532210	0.117646
C42	C	-0.592222	-1.449964	1.072779
C43	C	-0.592626	-1.450179	0.950219
C44	C	-0.541035	-1.643865	0.949768
C45	C	-0.541546	-1.643414	1.072366
C46	C	-0.398402	-1.503724	1.072437
C47	C	-0.399075	-1.501232	0.949830
H48	H	-0.345910	-1.123864	0.448173
C49	C	-0.463241	-1.728875	0.910411
H50	H	-0.411453	-1.696923	0.866363
H51	H	-0.429556	-1.761235	0.969277
H52	H	-0.500725	-1.780903	0.871288
C53	C	-0.316281	-0.931402	0.454940
H54	H	-0.267792	-0.959344	0.404843
H55	H	-0.315039	-0.856355	0.451827
H56	H	-0.296774	-0.953970	0.523911
H57	H	-0.919427	-1.666463	0.624248
H58	H	-0.646940	-1.124930	0.399187
C59	C	-0.361053	-1.395605	1.114165
H60	H	-0.293229	-1.379924	1.085938
H61	H	-0.409827	-1.342448	1.093153
H62	H	-0.357049	-1.397748	1.189157
H63	H	-1.102029	-1.671932	0.619666
H64	H	-0.919520	-1.559431	0.336341
C65	C	-1.113369	-1.338878	0.567785
H66	H	-1.157989	-1.341869	0.507397
H67	H	-1.152364	-1.312847	0.626453
H68	H	-1.055483	-1.293068	0.553877
C69	C	-0.707651	-0.931617	0.556472
H70	H	-0.707947	-0.856489	0.556652
H71	H	-0.774860	-0.956850	0.534347
H72	H	-0.692981	-0.956790	0.625738
H73	H	-0.685424	-1.123444	0.537856
C74	C	-0.453554	-0.929539	0.317710
H75	H	-0.513964	-0.884954	0.320542
H76	H	-0.394843	-0.890519	0.291781
H77	H	-0.467339	-0.987451	0.271906
H78	H	-0.919848	-1.366935	0.573848
H79	H	-0.447484	-1.123041	0.345887
C80	C	-0.374333	-0.929914	0.660623
H81	H	-0.345501	-0.884496	0.608176
H82	H	-0.383064	-0.891766	0.724726
H83	H	-0.327736	-0.987740	0.672069
H84	H	-1.099954	-1.419326	0.375448
H85	H	-0.337563	-1.563628	1.101454
C86	C	-0.654497	-0.932972	0.368950
H87	H	-0.667854	-0.992176	0.324693
H88	H	-0.716668	-0.891129	0.374221
H89	H	-0.599007	-0.891749	0.339552
H90	H	-0.918939	-1.468990	0.675653
C91	C	-0.907201	-1.730240	0.467102
H92	H	-0.862052	-1.699315	0.415638
H93	H	-0.868840	-1.781358	0.506631
H94	H	-0.965197	-1.763450	0.432789
H95	H	-1.100176	-1.705227	0.479774
H96	H	-0.376202	-1.419031	0.920726
H97	H	-0.397762	-1.123355	0.645530
C98	C	-0.555041	-1.135644	0.708961
H99	H	-0.606420	-1.180830	0.677947
H100	H	-0.515613	-1.173968	0.760187
H101	H	-0.589449	-1.077658	0.742064
H102	H	-0.335017	-1.556760	0.919213
C103	C	-0.563409	-0.932495	0.705187
H104	H	-0.614274	-0.888781	0.671276
H105	H	-0.597892	-0.991458	0.736450
H106	H	-0.528019	-0.893069	0.758443
H107	H	-0.484652	-1.706772	1.102049
C108	C	-0.703847	-1.475104	1.114422
H109	H	-0.700903	-1.535508	1.159028
H110	H	-0.729824	-1.416407	1.153419
H111	H	-0.749675	-1.488924	1.056507
H112	H	-0.622168	-1.668424	0.919081
C113	C	-0.907329	-1.392207	0.365852
H114	H	-0.862905	-1.364739	0.419859
H115	H	-0.868203	-1.398534	0.302056
H116	H	-0.965381	-1.345728	0.355094
C117	C	-1.111384	-1.475800	0.705359
H118	H	-1.083430	-1.425580	0.753726
H119	H	-1.186431	-1.472725	0.706618
H120	H	-1.088786	-1.544715	0.725015
C121	C	-1.111349	-1.578197	0.314211
H122	H	-1.052701	-1.609596	0.279328
H123	H	-1.153026	-1.631820	0.346309
H124	H	-1.153031	-1.540597	0.264240
H125	H	-0.573645	-1.367350	0.920112
C126	C	-0.566827	-1.337733	1.112575
H127	H	-0.506201	-1.340025	1.156917
H128	H	-0.553298	-1.292798	1.053903
H129	H	-0.625314	-1.311141	1.151484
C130	C	-0.704953	-1.475572	0.910612
H131	H	-0.750512	-1.485813	0.969450
H132	H	-0.730336	-1.418451	0.868902
H133	H	-0.703316	-1.538122	0.869061
C134	C	-0.652309	-1.676021	1.111025
H135	H	-0.696572	-1.689412	1.051803
H136	H	-0.646926	-1.738190	1.152882
H137	H	-0.681774	-1.620559	1.152224
