data_functionalizedCrystal
_audit_creation_method	'MofGen! by Chris Wilmer'
_symmetry_space_group_name_H-M	'P1'
_symmetry_Int_Tables_number	1
_symmetry_cell_setting	triclinic
loop_
_symmetry_equiv_pos_as_xyz
  x,y,z
_cell_length_a	14.853567
_cell_length_b	14.853567
_cell_length_c	7.681481
_cell_angle_alpha	84.253558
_cell_angle_beta	95.734544
_cell_angle_gamma	83.634930
loop_
_atom_site_label
_atom_site_type_symbol
_atom_site_fract_x
_atom_site_fract_y
_atom_site_fract_z
O1	O	1.187859	0.126221	-0.146293
O2	O	1.687859	0.626221	0.353707
O3	O	0.925398	0.140244	-0.146321
O4	O	1.425398	0.640244	0.353679
O5	O	1.063639	0.002003	-0.146311
O6	O	1.563639	0.502003	0.353689
O7	O	1.049618	0.264462	-0.146302
O8	O	1.549618	0.764462	0.353698
O9	O	1.080654	-0.015051	0.146547
O10	O	1.580654	0.484949	0.646547
O11	O	0.942413	0.123190	0.146538
O12	O	1.442413	0.623190	0.646538
O13	O	1.204874	0.109167	0.146566
O14	O	1.704874	0.609167	0.646566
Zn15	Zn	1.076345	0.113471	0.193050
Zn16	Zn	1.576345	0.613471	0.693050
Zn17	Zn	1.053927	0.135940	-0.192805
Zn18	Zn	1.553927	0.635940	0.307195
O19	O	1.066633	0.247408	0.146557
O20	O	1.566633	0.747408	0.646557
C21	C	0.900317	0.131082	0.000105
C22	C	1.400317	0.631082	0.500105
C23	C	0.800232	0.129179	0.000093
C24	C	1.300232	0.629179	0.500093
C25	C	0.387701	0.039011	0.000129
C26	C	0.887701	0.539011	0.500129
C27	C	0.366420	0.203244	0.000133
C28	C	0.866420	0.703244	0.500133
C29	C	0.460453	0.205034	0.000128
C30	C	0.960453	0.705034	0.500128
C31	C	0.518115	0.123812	0.000120
C32	C	1.018115	0.623812	0.500120
C33	C	0.481743	0.040799	0.000118
C34	C	0.981743	0.540799	0.500118
C35	C	0.496831	0.288046	0.000112
C36	C	0.996831	0.788046	0.500112
C37	C	0.590870	0.289840	0.000104
C38	C	1.090870	0.789840	0.500104
C39	C	0.648534	0.208616	0.000109
C40	C	1.148534	0.708616	0.500109
C41	C	0.612157	0.125600	0.000109
C42	C	1.112157	0.625600	0.500109
C43	C	0.669818	0.044378	0.000102
C44	C	1.169818	0.544378	0.500102
C45	C	0.633444	-0.038640	0.000115
C46	C	1.133444	0.461360	0.500115
C47	C	0.539407	-0.040425	0.000124
C48	C	1.039407	0.459575	0.500124
C49	C	0.742571	0.210401	0.000100
C50	C	1.242571	0.710401	0.500100
C51	C	0.763860	0.046166	0.000091
C52	C	1.263860	0.546166	0.500091
C53	C	1.071511	-0.040112	0.000113
C54	C	1.571511	0.459888	0.500113
C55	C	1.069606	-0.140195	0.000097
C56	C	1.569606	0.359805	0.500097
C57	C	0.979442	-0.552730	0.000121
C58	C	1.479442	-0.052730	0.500121
C59	C	1.143676	-0.574012	0.000139
C60	C	1.643676	-0.074012	0.500139
C61	C	1.145465	-0.479978	0.000129
C62	C	1.645465	0.020022	0.500129
C63	C	1.064242	-0.422315	0.000117
C64	C	1.564242	0.077685	0.500117
C65	C	0.981229	-0.458687	0.000116
C66	C	1.481229	0.041313	0.500116
C67	C	1.228478	-0.443600	0.000147
C68	C	1.728478	0.056400	0.500147
C69	C	1.230271	-0.349560	0.000139
C70	C	1.730271	0.150440	0.500139
C71	C	1.149046	-0.291895	0.000115
C72	C	1.649046	0.208105	0.500115
C73	C	1.066029	-0.328272	0.000112
C74	C	1.566029	0.171728	0.500112
C75	C	0.984806	-0.270610	0.000101
C76	C	1.484806	0.229390	0.500101
C77	C	0.901788	-0.306984	0.000086
C78	C	1.401788	0.193016	0.500086
C79	C	0.900004	-0.401022	0.000092
C80	C	1.400004	0.098978	0.500092
C81	C	1.150829	-0.197858	0.000109
C82	C	1.650829	0.302142	0.500109
C83	C	0.986594	-0.176567	0.000096
C84	C	1.486594	0.323433	0.500096
C85	C	1.229955	0.118329	0.000137
C86	C	1.729955	0.618329	0.500137
C87	C	1.330039	0.120233	0.000137
C88	C	1.830039	0.620233	0.500137
C89	C	1.058761	0.289524	0.000128
C90	C	1.558761	0.789524	0.500128
C91	C	1.060665	0.389607	0.000132
C92	C	1.560665	0.889607	0.500132
N93	N	1.091652	0.098136	0.456385
N94	N	1.591652	0.598136	0.956385
N95	N	1.038628	0.151268	-0.456140
N96	N	1.538628	0.651268	0.043860
H97	H	0.772183	0.277993	0.000093
H98	H	1.272183	0.777993	0.500093
Cl99	Cl	1.255188	-0.152135	0.000161
Cl100	Cl	1.755188	0.347865	0.500161
Cl101	Cl	0.955058	0.235000	0.427759
Cl102	Cl	1.455058	0.735000	0.927759
H103	H	1.145788	0.043907	0.531595
H104	H	1.645788	0.543907	1.031595
H105	H	0.920450	-0.129623	0.000079
H106	H	1.420450	0.370377	0.500079
Cl107	Cl	0.836343	-0.055949	0.000095
Cl108	Cl	1.336343	0.444051	0.500095
H109	H	0.680403	-0.104770	0.000097
H110	H	1.180403	0.395230	0.500097
Cl111	Cl	0.799684	-0.234485	0.000086
Cl112	Cl	1.299684	0.265515	0.500086
H113	H	0.509784	-0.108016	0.000176
H114	H	1.009784	0.391984	0.500176
Cl115	Cl	0.795649	-0.446756	0.000068
Cl116	Cl	1.295649	0.053244	0.500068
H117	H	1.294606	-0.490556	0.000173
H118	H	1.794606	0.009444	0.500173
H119	H	0.358080	-0.028580	0.000146
H120	H	0.858080	0.471420	0.500146
Cl121	Cl	0.293930	0.305347	0.000119
Cl122	Cl	0.793930	0.805347	0.500119
Cl123	Cl	0.636590	0.394202	0.000094
Cl124	Cl	1.136590	0.894202	0.500094
H125	H	0.911850	-0.582350	0.000101
H126	H	1.411850	-0.082350	0.500101
Cl127	Cl	0.424339	0.390148	0.000092
Cl128	Cl	0.924339	0.890148	0.500092
H129	H	1.209805	-0.620967	0.000162
H130	H	1.709805	-0.120967	0.500162
H131	H	1.297868	-0.319953	0.000150
H132	H	1.797868	0.180047	0.500150
