data_functionalizedCrystal
_audit_creation_method	'MofGen! by Chris Wilmer'
_symmetry_space_group_name_H-M	'P1'
_symmetry_Int_Tables_number	1
_symmetry_cell_setting	triclinic
loop_
_symmetry_equiv_pos_as_xyz
  x,y,z
_cell_length_a	16.120297
_cell_length_b	16.625548
_cell_length_c	16.625546
_cell_angle_alpha	90.023536
_cell_angle_beta	87.129618
_cell_angle_gamma	87.121773
loop_
_atom_site_label
_atom_site_type_symbol
_atom_site_fract_x
_atom_site_fract_y
_atom_site_fract_z
Zn1	Zn	-0.471374	-1.209557	0.344116
Zn2	Zn	-0.331959	-1.216300	0.472116
Zn3	Zn	-0.331977	-1.081557	0.337304
Zn4	Zn	-0.471324	-1.074692	0.478910
O5	O	-0.401658	-1.145526	0.408112
O6	O	-0.452893	-1.323283	0.361103
O7	O	-0.215298	-1.204120	0.448538
O8	O	-0.350497	-1.098588	0.225377
O9	O	-0.350465	-1.328237	0.455143
O10	O	-0.452911	-1.192629	0.230381
O11	O	-0.215312	-1.105126	0.349493
O12	O	-0.350449	-0.967815	0.356081
O13	O	-0.587993	-1.086887	0.466724
O14	O	-0.452827	-0.962771	0.460119
O15	O	-0.588030	-1.185972	0.367691
O16	O	-0.350417	-1.197463	0.585848
O17	O	-0.452808	-1.093425	0.590840
C18	C	-0.401635	-0.936037	0.408099
C19	C	-0.401645	-0.846415	0.408114
C20	C	-0.401624	-1.145452	0.617601
C21	C	-0.401636	-1.145492	0.707222
C22	C	-0.619107	-1.134912	0.418726
C23	C	-0.711770	-1.130389	0.423249
C24	C	-0.881427	-1.122101	0.431489
C25	C	-0.922741	-1.169111	0.384493
C26	C	-1.017145	-1.164500	0.389078
C27	C	-0.787016	-1.126711	0.426905
C28	C	-0.185056	-1.156146	0.397481
C29	C	-0.092393	-1.160826	0.392730
C30	C	-0.401682	-1.355834	0.408125
C31	C	-0.401692	-1.445455	0.408131
C32	C	-0.401681	-0.518238	0.408121
C33	C	-0.401668	-0.609547	0.408117
C34	C	-0.401662	-0.682324	0.408118
C35	C	-0.401651	-0.773638	0.408113
C36	C	-0.401712	-1.145622	0.197805
C37	C	-0.401734	-1.145663	0.108185
C38	C	-0.401723	-1.145629	1.035402
C39	C	-0.401701	-1.145588	0.944093
C40	C	-0.401679	-1.145560	0.871315
C41	C	-0.401658	-1.145521	0.780000
H42	H	-0.887213	-1.212820	0.340814
H43	H	-0.916954	-1.078395	0.475164
