data_functionalizedCrystal
_audit_creation_method	'MofGen! by Chris Wilmer'
_symmetry_space_group_name_H-M	'P1'
_symmetry_Int_Tables_number	1
_symmetry_cell_setting	triclinic
loop_
_symmetry_equiv_pos_as_xyz
  x,y,z
_cell_length_a	17.640112
_cell_length_b	14.908520
_cell_length_c	14.908294
_cell_angle_alpha	83.639163
_cell_angle_beta	103.728131
_cell_angle_gamma	76.198570
loop_
_atom_site_label
_atom_site_type_symbol
_atom_site_fract_x
_atom_site_fract_y
_atom_site_fract_z
Zn1	Zn	1.191173	0.097933	-0.241325
Zn2	Zn	1.691173	0.597933	0.258675
Zn3	Zn	1.191082	0.240600	-0.098717
Zn4	Zn	1.691082	0.740600	0.401283
Zn5	Zn	1.063945	0.120417	-0.121090
Zn6	Zn	1.563945	0.620417	0.378910
Zn7	Zn	1.047317	0.284508	-0.285177
Zn8	Zn	1.547317	0.784508	0.214823
O9	O	1.123379	0.185865	-0.186577
O10	O	1.623379	0.685865	0.313423
O11	O	1.304572	0.089073	-0.194692
O12	O	1.804572	0.589073	0.305308
O13	O	1.181137	0.215692	0.026668
O14	O	1.681137	0.715692	0.526668
O15	O	1.087819	-0.010945	-0.128050
O16	O	1.587819	0.489055	0.371950
O17	O	1.304505	0.193890	-0.089919
O18	O	1.804505	0.693890	0.410081
O19	O	1.181293	-0.027464	-0.216386
O20	O	1.681293	0.472536	0.283614
O21	O	1.087731	0.127394	0.010231
O22	O	1.587731	0.627394	0.510231
O23	O	0.948328	0.169970	-0.170572
O24	O	1.448328	0.669970	0.329428
O25	O	1.059479	0.268725	-0.407713
O26	O	1.559479	0.768725	0.092287
O27	O	0.936112	0.290527	-0.291126
O28	O	1.436112	0.790527	0.208874
O29	O	1.165170	0.131649	-0.375495
O30	O	1.665170	0.631649	0.124505
O31	O	1.165014	0.374804	-0.132441
O32	O	1.665014	0.874804	0.367559
O33	O	1.059391	0.407064	-0.269432
O34	O	1.559391	0.907064	0.230568
C35	C	1.110409	0.424217	-0.203282
C36	C	1.610409	0.924217	0.296718
C37	C	1.104933	0.526170	-0.210441
C38	C	1.604933	1.026170	0.289559
C39	C	0.912814	0.237453	-0.238036
C40	C	1.412814	0.737453	0.261964
C41	C	0.822731	0.259547	-0.260073
C42	C	1.322731	0.759547	0.239927
C43	C	1.110480	0.202577	-0.425815
C44	C	1.610480	0.702577	0.074185
C45	C	1.104983	0.209698	-0.527764
C46	C	1.604983	0.709698	-0.027764
C47	C	0.558147	0.018008	-0.019168
C48	C	1.058147	0.518008	0.480832
C49	C	0.473498	0.038787	-0.039889
C50	C	0.973498	0.538787	0.460111
C51	C	0.460834	0.164471	-0.165231
C52	C	0.960834	0.664471	0.334769
C53	C	0.545483	0.143699	-0.144524
C54	C	1.045483	0.643699	0.355476
C55	C	0.594133	0.070467	-0.071490
C56	C	1.094133	0.570467	0.428510
C57	C	0.581469	0.196158	-0.196846
C58	C	1.081469	0.696158	0.303154
C59	C	0.666111	0.175391	-0.176136
C60	C	1.166111	0.675391	0.323864
C61	C	0.714766	0.102164	-0.103105
C62	C	1.214766	0.602164	0.396895
C63	C	0.678775	0.049700	-0.050781
C64	C	1.178775	0.549700	0.449219
C65	C	0.532817	0.269394	-0.269875
C66	C	1.032817	0.769394	0.230125
C67	C	0.568804	0.321853	-0.322197
C68	C	1.068804	0.821853	0.177803
C69	C	0.653447	0.301082	-0.301492
C70	C	1.153447	0.801082	0.198508
C71	C	0.702103	0.227855	-0.228460
C72	C	1.202103	0.727855	0.271540
C73	C	0.689439	0.353546	-0.353816
C74	C	1.189439	0.853546	0.146184
C75	C	0.774081	0.332779	-0.333106
C76	C	1.274081	0.832779	0.166894
C77	C	0.786744	0.207088	-0.207751
C78	C	1.286744	0.707088	0.292249
C79	C	1.334767	0.134075	-0.134919
C80	C	1.834767	0.634075	0.365081
C81	C	1.424848	0.112006	-0.112905
C82	C	1.924848	0.612006	0.387095
C83	C	1.136421	-0.053423	-0.169822
C84	C	1.636421	0.446577	0.330178
C85	C	1.141979	-0.155393	-0.162682
C86	C	1.641979	0.344607	0.337318
C87	C	1.204730	0.684077	-0.081313
C88	C	1.704730	1.184077	0.418687
C89	C	1.199587	0.779869	-0.088036
C90	C	1.699587	1.279869	0.411964
C91	C	1.089510	0.813548	-0.230612
C92	C	1.589510	1.313548	0.269388
C93	C	1.094653	0.717755	-0.223889
C94	C	1.594653	1.217755	0.276111
C95	C	1.152263	0.653023	-0.149236
C96	C	1.652263	1.153023	0.350764
C97	C	1.157401	0.557229	-0.142511
C98	C	1.657401	1.057229	0.357489
C99	C	1.047329	0.590909	-0.285090
C100	C	1.547329	1.090909	0.214910
C101	C	1.042187	0.686701	-0.291813
C102	C	1.542187	1.186701	0.208187
C103	C	1.042211	0.291092	-0.688230
C104	C	1.542211	0.791092	-0.188230
C105	C	1.047374	0.284408	-0.592441
C106	C	1.547374	0.784408	-0.092441
C107	C	1.157431	0.141666	-0.558881
C108	C	1.657431	0.641666	-0.058881
C109	C	1.152268	0.148350	-0.654670
C110	C	1.652268	0.648350	-0.154670
C111	C	1.094657	0.223067	-0.719342
C112	C	1.594657	0.723067	-0.219342
C113	C	1.089498	0.229754	-0.815132
C114	C	1.589498	0.729754	-0.315132
C115	C	1.199552	0.087009	-0.781572
C116	C	1.699552	0.587009	-0.281572
C117	C	1.204715	0.080325	-0.685782
C118	C	1.704715	0.580325	-0.185782
C119	C	1.136279	0.169140	0.051746
C120	C	1.636279	0.669140	0.551746
C121	C	1.141947	0.161722	0.153750
C122	C	1.641947	0.661722	0.653750
H123	H	0.826358	0.147442	-0.148292
H124	H	1.326358	0.647442	0.351708
Cl125	Cl	0.969793	0.385024	-0.769533
Cl126	Cl	1.469793	0.885024	-0.269533
Cl127	Cl	1.265549	0.818905	-0.002644
Cl128	Cl	1.765549	1.318905	0.497356
Cl129	Cl	0.819324	0.398730	-0.398881
Cl130	Cl	1.319324	0.898730	0.101119
H131	H	1.251633	0.631371	-0.020522
H132	H	1.751633	1.131371	0.479478
H133	H	0.463897	0.286300	-0.286734
H134	H	0.963897	0.786300	0.213266
Cl135	Cl	0.739941	-0.042371	0.041029
Cl136	Cl	1.239941	0.457629	0.541029
H137	H	1.042611	0.866267	-0.291395
H138	H	1.542611	1.366267	0.208605
Cl139	Cl	0.969768	0.768086	-0.385659
Cl140	Cl	1.469768	1.268086	0.114341
Cl141	Cl	0.981357	0.551867	-0.370475
Cl142	Cl	1.481357	1.051867	0.129525
Cl143	Cl	0.821175	0.076058	-0.077063
Cl144	Cl	1.321175	0.576058	0.422937
H145	H	1.204309	0.504525	-0.081723
H146	H	1.704309	1.004525	0.418277
H147	H	1.042590	0.290593	-0.867787
H148	H	1.542590	0.790593	-0.367787
Cl149	Cl	0.981436	0.369928	-0.553332
Cl150	Cl	1.481436	0.869928	-0.053332
Cl151	Cl	1.229805	0.047702	-0.477575
Cl152	Cl	1.729805	0.547702	0.022425
H153	H	0.649815	0.413177	-0.413273
H154	H	1.149815	0.913177	0.086727
H155	H	1.251618	0.019491	-0.633115
H156	H	1.751618	0.519491	-0.133115
H157	H	1.242259	0.031619	-0.806911
H158	H	1.742259	0.531619	-0.306911
H159	H	0.529182	0.381481	-0.381658
H160	H	1.029182	0.881481	0.118342
Cl161	Cl	0.428261	-0.027164	0.025902
Cl162	Cl	0.928261	0.472836	0.525902
H163	H	0.421211	0.224099	-0.224693
H164	H	0.921211	0.724099	0.275307
Cl165	Cl	0.619313	-0.074063	0.072641
Cl166	Cl	1.119313	0.425937	0.572641
