data_functionalizedCrystal
_audit_creation_method	'MofGen! by Chris Wilmer'
_symmetry_space_group_name_H-M	'P1'
_symmetry_Int_Tables_number	1
_symmetry_cell_setting	triclinic
loop_
_symmetry_equiv_pos_as_xyz
  x,y,z
_cell_length_a	10.723023
_cell_length_b	14.519731
_cell_length_c	9.798715
_cell_angle_alpha	89.995867
_cell_angle_beta	89.996770
_cell_angle_gamma	84.078200
loop_
_atom_site_label
_atom_site_type_symbol
_atom_site_fract_x
_atom_site_fract_y
_atom_site_fract_z
O1	O	1.655992	0.129343	-0.113480
O2	O	1.292725	0.141724	-0.113487
O3	O	1.483976	0.001346	-0.113471
O4	O	1.464741	0.269722	-0.113496
O5	O	1.483962	0.001345	0.113511
O6	O	1.292710	0.141724	0.113496
O7	O	1.655977	0.129342	0.113502
Zn8	Zn	1.474342	0.135533	0.149537
Zn9	Zn	1.474360	0.135534	-0.149522
O10	O	1.464726	0.269721	0.113486
C11	C	1.246226	0.140823	0.000004
C12	C	1.107697	0.138128	0.000002
C13	C	0.902774	0.134141	-0.117581
C14	C	1.045951	0.136927	-0.117582
C15	C	1.483067	-0.033019	0.000020
C16	C	1.480367	-0.135413	0.000021
C17	C	1.478172	-0.218568	0.000018
C18	C	1.475430	-0.322891	0.000008
C19	C	1.473254	-0.406041	-0.000001
C20	C	1.470512	-0.510370	-0.000009
C21	C	1.702476	0.130243	0.000008
C22	C	1.841005	0.132939	0.000001
C23	C	1.465635	0.304085	-0.000008
C24	C	1.468336	0.406479	-0.000018
N25	N	1.474338	0.135532	0.353637
N26	N	1.474374	0.135527	-0.353622
C27	C	1.554642	0.076331	0.421420
C28	C	1.554662	0.076328	0.578583
H29	H	1.099069	0.137966	-0.218249
F30	F	0.833359	0.132761	-0.249164
H31	H	1.054585	0.137100	0.100674
H32	H	0.894122	0.133968	0.100667
H33	H	1.405597	0.186211	0.411955
F34	F	1.644265	0.009920	0.345199
F35	F	1.644533	0.010082	0.654770
H36	H	1.405624	0.186218	0.588096
