data_functionalizedCrystal
_audit_creation_method	'MofGen! by Chris Wilmer'
_symmetry_space_group_name_H-M	'P1'
_symmetry_Int_Tables_number	1
_symmetry_cell_setting	triclinic
loop_
_symmetry_equiv_pos_as_xyz
  x,y,z
_cell_length_a	23.532407
_cell_length_b	23.532407
_cell_length_c	9.730217
_cell_angle_alpha	89.988287
_cell_angle_beta	90.003937
_cell_angle_gamma	82.848713
loop_
_atom_site_label
_atom_site_type_symbol
_atom_site_fract_x
_atom_site_fract_y
_atom_site_fract_z
O1	O	0.755257	0.069134	-0.114143
O2	O	1.255257	0.569134	0.385857
O3	O	0.589394	0.079137	-0.114187
O4	O	1.089394	0.579137	0.385813
O5	O	0.677327	-0.008796	-0.114126
O6	O	1.177327	0.491204	0.385874
O7	O	0.667324	0.157067	-0.114205
O8	O	1.167324	0.657067	0.385795
O9	O	0.677324	-0.008797	0.114455
O10	O	1.177324	0.491203	0.614455
O11	O	0.589391	0.079136	0.114393
O12	O	1.089391	0.579136	0.614393
O13	O	0.755254	0.069133	0.114437
O14	O	1.255254	0.569133	0.614437
Zn15	Zn	0.672322	0.074135	0.150707
Zn16	Zn	1.172322	0.574135	0.650707
Zn17	Zn	0.672326	0.074136	-0.150457
Zn18	Zn	1.172326	0.574136	0.349543
O19	O	0.667321	0.157066	0.114375
O20	O	1.167321	0.657066	0.614375
C21	C	0.568176	0.078882	0.000098
C22	C	1.068176	0.578882	0.500098
C23	C	0.504959	0.078116	0.000083
C24	C	1.004959	0.578116	0.500083
C25	C	0.677071	-0.030013	0.000171
C26	C	1.177071	0.469987	0.500171
C27	C	0.676305	-0.093230	0.000192
C28	C	1.176305	0.406770	0.500192
C29	C	0.621110	-0.359397	0.000092
C30	C	1.121110	0.140603	0.500092
C31	C	0.621821	-0.299997	0.000102
C32	C	1.121821	0.200003	0.500102
O33	O	0.578035	-0.263252	0.000047
O34	O	1.078035	0.236748	0.500047
N35	N	0.674097	-0.277371	0.000132
N36	N	1.174097	0.222629	0.500132
C37	C	0.725666	-0.314148	0.000137
C38	C	1.225666	0.185852	0.500137
O39	O	0.770196	-0.289449	0.000162
O40	O	1.270196	0.210551	0.500162
C41	C	0.724954	-0.373547	0.000116
C42	C	1.224954	0.126453	0.500116
C43	C	0.672674	-0.396170	0.000101
C44	C	1.172674	0.103830	0.500101
C45	C	0.568834	-0.382020	0.000074
C46	C	1.068834	0.117980	0.500074
C47	C	0.568123	-0.441417	0.000066
C48	C	1.068123	0.058583	0.500066
C49	C	0.619687	-0.478189	0.000075
C50	C	1.119687	0.021811	0.500075
C51	C	0.671963	-0.455566	0.000093
C52	C	1.171963	0.044434	0.500093
C53	C	0.776521	-0.410324	0.000111
C54	C	1.276521	0.089676	0.500111
C55	C	0.775805	-0.469726	0.000090
C56	C	1.275805	0.030274	0.500090
C57	C	0.723525	-0.492349	0.000074
C58	C	1.223525	0.007651	0.500074
C59	C	0.722816	-0.551735	0.000093
C60	C	1.222816	-0.051735	0.500093
N61	N	0.670539	-0.574361	0.000064
N62	N	1.170539	-0.074361	0.500064
C63	C	0.618975	-0.537589	0.000055
C64	C	1.118975	-0.037589	0.500055
C65	C	0.727157	-0.189406	0.000178
C66	C	1.227157	0.310594	0.500178
C67	C	0.727870	-0.130008	0.000208
C68	C	1.227870	0.369992	0.500208
C69	C	0.624025	-0.115861	0.000171
C70	C	1.124025	0.384139	0.500171
C71	C	0.623313	-0.175260	0.000151
C72	C	1.123313	0.324740	0.500151
C73	C	0.674881	-0.212032	0.000148
C74	C	1.174881	0.287968	0.500148
C75	C	0.617486	-0.662325	0.000039
C76	C	1.117486	-0.162325	0.500039
C77	C	0.616779	-0.721727	0.000036
C78	C	1.116779	-0.221727	0.500036
C79	C	0.720623	-0.735869	0.000066
C80	C	1.220623	-0.235869	0.500066
C81	C	0.721330	-0.676473	0.000076
C82	C	1.221330	-0.176473	0.500076
C83	C	0.669757	-0.639701	0.000057
C84	C	1.169757	-0.139701	0.500057
O85	O	0.766579	-0.588514	0.000143
O86	O	1.266579	-0.088514	0.500143
O87	O	0.574452	-0.562296	0.000012
O88	O	1.074452	-0.062296	0.500012
C89	C	0.105856	0.125350	0.000122
C90	C	0.605856	0.625350	0.500122
C91	C	0.046456	0.124638	0.000131
C92	C	0.546456	0.624638	0.500131
O93	O	0.009711	0.168424	0.000160
O94	O	0.509711	0.668424	0.500160
N95	N	0.023830	0.072362	0.000154
N96	N	0.523830	0.572362	0.500154
C97	C	0.060607	0.020794	0.000182
C98	C	0.560607	0.520794	0.500182
O99	O	0.035908	-0.023737	0.000203
O100	O	0.535908	0.476263	0.500203
C101	C	0.120006	0.021506	0.000183
C102	C	0.620006	0.521506	0.500183
C103	C	0.142629	0.073785	0.000146
C104	C	0.642629	0.573785	0.500146
C105	C	0.128480	0.177625	0.000087
C106	C	0.628480	0.677625	0.500087
C107	C	0.187876	0.178336	0.000076
C108	C	0.687876	0.678336	0.500076
C109	C	0.224649	0.126772	0.000100
C110	C	0.724649	0.626772	0.500100
C111	C	0.202025	0.074496	0.000135
C112	C	0.702025	0.574496	0.500135
C113	C	0.156783	-0.030062	0.000221
C114	C	0.656783	0.469938	0.500221
C115	C	0.216185	-0.029345	0.000223
C116	C	0.716185	0.470655	0.500223
C117	C	0.238808	0.022934	0.000186
C118	C	0.738808	0.522934	0.500186
C119	C	0.298194	0.023643	0.000148
C120	C	0.798194	0.523643	0.500148
N121	N	0.320821	0.075920	0.000125
N122	N	0.820821	0.575920	0.500125
C123	C	0.284048	0.127484	0.000101
C124	C	0.784048	0.627484	0.500101
C125	C	-0.064135	0.019302	0.000182
C126	C	0.435865	0.519302	0.500182
C127	C	-0.123533	0.018589	0.000171
C128	C	0.376467	0.518589	0.500171
C129	C	-0.137680	0.122434	0.000123
C130	C	0.362320	0.622434	0.500123
C131	C	-0.078281	0.123146	0.000124
C132	C	0.421719	0.623146	0.500124
C133	C	-0.041509	0.071578	0.000159
C134	C	0.458491	0.571578	0.500159
C135	C	0.408784	0.128974	0.000076
C136	C	0.908784	0.628974	0.500076
C137	C	0.468186	0.129680	0.000059
C138	C	0.968186	0.629680	0.500059
C139	C	0.482329	0.025836	0.000114
C140	C	0.982329	0.525836	0.500114
C141	C	0.422932	0.025129	0.000124
C142	C	0.922932	0.525129	0.500124
C143	C	0.386160	0.076702	0.000110
C144	C	0.886160	0.576702	0.500110
O145	O	0.334974	-0.020119	0.000124
O146	O	0.834974	0.479881	0.500124
O147	O	0.308756	0.172007	0.000097
O148	O	0.808756	0.672007	0.500097
C149	C	0.776472	0.069388	0.000149
C150	C	1.276472	0.569388	0.500149
C151	C	0.839689	0.070154	0.000154
C152	C	1.339689	0.570154	0.500154
C153	C	0.667577	0.178283	0.000075
C154	C	1.167577	0.678283	0.500075
C155	C	0.668343	0.241500	0.000045
C156	C	1.168343	0.741500	0.500045
N157	N	0.672324	0.074133	0.356243
N158	N	1.172324	0.574133	0.856243
N159	N	0.672329	0.074132	-0.355994
N160	N	1.172329	0.574132	0.144006
C161	C	0.750220	-0.003709	0.356289
C162	C	1.250220	0.496291	0.856289
C163	C	0.789172	-0.042629	0.428251
C164	C	1.289172	0.457371	0.928251
C165	C	0.789178	-0.042630	0.572131
C166	C	1.289178	0.457370	1.072131
C167	C	0.750227	-0.003707	0.644051
C168	C	1.250227	0.496293	1.144051
C169	C	0.711275	0.035213	0.572089
C170	C	1.211275	0.535213	1.072089
C171	C	0.711274	0.035210	0.428206
C172	C	1.211274	0.535210	0.928206
C173	C	0.633377	0.113052	0.572043
C174	C	1.133377	0.613052	1.072043
C175	C	0.633373	0.113056	0.428164
C176	C	1.133373	0.613056	0.928164
C177	C	0.594425	0.151974	0.643964
C178	C	1.094425	0.651974	1.143964
C179	C	0.555475	0.190898	0.572001
C180	C	1.055475	0.690898	1.072001
C181	C	0.555471	0.190897	0.428113
C182	C	1.055471	0.690897	0.928113
C183	C	0.594421	0.151976	0.356201
C184	C	1.094421	0.651976	0.856201
H185	H	0.575489	-0.632392	0.000023
H186	H	1.075489	-0.132392	0.500023
C187	C	0.465552	-0.421448	0.000014
C188	C	0.965552	0.078552	0.500014
C189	C	0.510655	-0.466278	0.000029
C190	C	1.010655	0.033722	0.500029
H191	H	0.430073	-0.436795	-0.000021
H192	H	0.930073	0.063205	0.499979
H193	H	0.467989	-0.398588	0.079730
H194	H	0.967989	0.101412	0.579730
H195	H	0.468002	-0.398564	-0.079693
H196	H	0.968002	0.101436	0.420307
H197	H	0.508207	-0.489160	0.079741
H198	H	1.008207	0.010840	0.579741
H199	H	0.508217	-0.489147	-0.079695
H200	H	1.008217	0.010853	0.420305
H201	H	0.582038	-0.085909	0.000165
H202	H	1.082038	0.414091	0.500165
C203	C	0.823806	-0.077148	0.207709
C204	C	1.323806	0.422852	0.707709
C205	C	0.832018	-0.085380	0.349194
C206	C	1.332018	0.414620	0.849194
H207	H	0.850268	-0.103531	0.158909
H208	H	1.350268	0.396469	0.658909
H209	H	0.785852	-0.083179	0.184098
H210	H	1.285852	0.416821	0.684098
H211	H	0.829738	-0.039153	0.184164
H212	H	1.329738	0.460847	0.684164
H213	H	0.826082	-0.123374	0.372740
H214	H	1.326082	0.376626	0.872740
H215	H	0.869981	-0.079354	0.372814
H216	H	1.369981	0.420646	0.872814
H217	H	0.512280	-0.016146	0.000129
H218	H	1.012280	0.483854	0.500129
C219	C	0.808918	-0.766247	0.117580
C220	C	1.308918	-0.266247	0.617580
C221	C	0.777301	-0.776297	0.000070
C222	C	1.277301	-0.276297	0.500070
H223	H	0.843907	-0.791209	0.117575
H224	H	1.343907	-0.291209	0.617575
H225	H	0.816827	-0.727640	0.117583
H226	H	1.316827	-0.227640	0.617583
H227	H	0.787463	-0.773086	0.197278
H228	H	1.287463	-0.273086	0.697278
H229	H	0.798754	-0.769454	-0.079629
H230	H	1.298754	-0.269454	0.420371
H231	H	0.769394	-0.814914	0.000054
H232	H	1.269394	-0.314914	0.500054
H233	H	0.820894	-0.074323	0.630723
H234	H	1.320894	0.425677	1.130723
C235	C	0.786619	-0.264392	-0.117322
C236	C	1.286619	0.235608	0.382678
C237	C	0.783847	-0.229823	0.000193
C238	C	1.283847	0.270177	0.500193
H239	H	0.821618	-0.289338	-0.117316
H240	H	1.321618	0.210662	0.382684
H241	H	0.755392	-0.286371	-0.117332
H242	H	1.255392	0.213629	0.382668
H243	H	0.784736	-0.240908	-0.197017
H244	H	1.284736	0.259092	0.302983
H245	H	0.785725	-0.253306	0.079888
H246	H	1.285725	0.246694	0.579888
H247	H	0.815082	-0.207842	0.000216
H248	H	1.315082	0.292158	0.500216
C249	C	0.010872	-0.040159	0.117701
C250	C	0.510872	0.459841	0.617701
C251	C	-0.023717	-0.037387	0.000197
C252	C	0.476283	0.462613	0.500197
H253	H	0.035819	-0.075159	0.117712
H254	H	0.535819	0.424841	0.617712
H255	H	0.032851	-0.008932	0.117679
H256	H	0.532851	0.491068	0.617679
H257	H	-0.012597	-0.038278	0.197404
H258	H	0.487403	0.461722	0.697404
H259	H	-0.000248	-0.039265	-0.079506
H260	H	0.499752	0.460735	0.420494
H261	H	-0.045698	-0.068623	0.000207
H262	H	0.454302	0.431377	0.500207
H263	H	0.138374	-0.072634	0.000252
H264	H	0.638374	0.427366	0.500252
H265	H	0.486602	0.172255	0.000028
H266	H	0.986602	0.672255	0.500028
H267	H	0.206289	0.220908	0.000045
H268	H	0.706289	0.720908	0.500045
H269	H	0.574205	-0.740143	0.000030
H270	H	1.074205	-0.240143	0.500030
H271	H	0.750224	-0.003708	0.239134
H272	H	1.250224	0.496292	0.739134
C273	C	0.605595	0.205576	0.150058
C274	C	1.105595	0.705576	0.650058
C275	C	0.594419	0.151974	0.198046
C276	C	1.094419	0.651974	0.698046
H277	H	0.605598	0.205571	0.052419
H278	H	1.105598	0.705571	0.552419
H279	H	0.576823	0.234320	0.182579
H280	H	1.076823	0.734320	0.682579
H281	H	0.641948	0.213186	0.182615
H282	H	1.141948	0.713186	0.682615
H283	H	0.558064	0.144366	0.165498
H284	H	1.058064	0.644366	0.665498
H285	H	0.623193	0.123222	0.165511
H286	H	1.123193	0.623222	0.665511
H287	H	0.246123	-0.071339	0.000253
H288	H	0.746123	0.428661	0.500253
H289	H	0.580742	-0.193674	0.000143
H290	H	1.080742	0.306326	0.500143
H291	H	0.750229	-0.003715	0.761206
H292	H	1.250229	0.496285	1.261206
C293	C	0.120478	0.280338	0.000014
C294	C	0.620478	0.780338	0.500014
C295	C	0.088065	0.234311	0.000049
C296	C	0.588065	0.734311	0.500049
H297	H	0.095529	0.315336	-0.000026
H298	H	0.595529	0.815336	0.499974
H299	H	0.143938	0.278455	0.079726
H300	H	0.643938	0.778455	0.579726
H301	H	0.143943	0.278442	-0.079696
H302	H	0.643943	0.778442	0.420304
H303	H	0.064603	0.236205	0.079765
H304	H	0.564603	0.736205	0.579765
H305	H	0.064595	0.236196	-0.079671
H306	H	0.564595	0.736196	0.420329
H307	H	0.594429	0.151970	0.761118
H308	H	1.094429	0.651970	1.261118
C309	C	0.782382	-0.617895	0.117610
C310	C	1.282382	-0.117895	0.617610
C311	C	0.778798	-0.651606	0.000106
C312	C	1.278798	-0.151606	0.500106
H313	H	0.817863	-0.602551	0.117619
H314	H	1.317863	-0.102551	0.617619
H315	H	0.751781	-0.587492	0.117589
H316	H	1.251781	-0.087492	0.617589
H317	H	0.779942	-0.640784	0.197312
H318	H	1.279942	-0.140784	0.697312
H319	H	0.781233	-0.628715	-0.079597
H320	H	1.281233	-0.128715	0.420403
H321	H	0.809407	-0.682012	0.000114
H322	H	1.309407	-0.182012	0.500114
C323	C	0.520893	0.225456	0.792540
C324	C	1.020893	0.725456	1.292540
C325	C	0.512664	0.233678	0.651057
C326	C	1.012664	0.733678	1.151057
H327	H	0.494465	0.251870	0.841346
H328	H	0.994465	0.751870	1.341346
H329	H	0.514926	0.187480	0.816122
H330	H	1.014926	0.687480	1.316122
H331	H	0.558866	0.231451	0.816106
H332	H	1.058866	0.731451	1.316106
H333	H	0.474692	0.227679	0.627489
H334	H	0.974692	0.727679	1.127489
H335	H	0.518626	0.271663	0.627465
H336	H	1.018626	0.771663	1.127465
H337	H	0.378852	0.170970	0.000068
H338	H	0.878852	0.670970	0.500068
C339	C	0.521455	0.289660	0.383766
C340	C	1.021455	0.789660	0.883766
C341	C	0.512655	0.233681	0.349014
C342	C	1.012655	0.733681	0.849014
H343	H	0.495023	0.316072	0.334930
H344	H	0.995023	0.816072	0.834930
H345	H	0.515881	0.295224	0.479738
H346	H	1.015881	0.795224	0.979738
H347	H	0.559426	0.295650	0.360177
H348	H	1.059426	0.795650	0.860177
H349	H	0.474684	0.227689	0.372613
H350	H	0.974684	0.727689	0.872613
H351	H	0.518224	0.228115	0.253021
H352	H	1.018224	0.728115	0.753021
C353	C	0.509374	-0.307004	-0.117425
C354	C	1.009374	0.192996	0.382575
C355	C	0.512147	-0.341607	0.000067
C356	C	1.012147	0.158393	0.500067
H357	H	0.474373	-0.282060	-0.117424
H358	H	0.974373	0.217940	0.382576
H359	H	0.540599	-0.285022	-0.117399
H360	H	1.040599	0.214978	0.382601
H361	H	0.511260	-0.330464	-0.197136
H362	H	1.011260	0.169536	0.302864
H363	H	0.510265	-0.318146	0.079778
H364	H	1.010265	0.181854	0.579778
H365	H	0.480913	-0.363590	0.000053
H366	H	0.980913	0.136410	0.500053
H367	H	0.819093	-0.391915	0.000123
H368	H	1.319093	0.108085	0.500123
C369	C	0.830442	-0.149973	0.000239
C370	C	1.330442	0.350027	0.500239
C371	C	0.785337	-0.105145	0.000236
C372	C	1.285337	0.394855	0.500236
H373	H	0.865921	-0.134624	0.000242
H374	H	1.365921	0.365376	0.500242
H375	H	0.828002	-0.172852	0.079942
H376	H	1.328002	0.327148	0.579942
H377	H	0.827998	-0.172838	-0.079480
H378	H	1.327998	0.327162	0.420520
H379	H	0.787779	-0.082282	0.079961
H380	H	1.287779	0.417718	0.579961
H381	H	0.787779	-0.082256	-0.079475
H382	H	1.287779	0.417744	0.420525
H383	H	-0.059866	0.165717	0.000102
H384	H	0.440134	0.665717	0.500102
C385	C	0.864101	-0.500054	-0.117401
C386	C	1.364101	-0.000054	0.382599
C387	C	0.832492	-0.510145	0.000092
C388	C	1.332492	-0.010145	0.500092
H389	H	0.899098	-0.525004	-0.117391
H390	H	1.399098	-0.025004	0.382609
H391	H	0.842652	-0.506878	-0.197103
H392	H	1.342652	-0.006878	0.302897
H393	H	0.871999	-0.461438	-0.117377
H394	H	1.371999	0.038562	0.382623
H395	H	0.824591	-0.548761	0.000063
H396	H	1.324591	-0.048761	0.500063
H397	H	0.853946	-0.503326	0.079814
H398	H	1.353946	-0.003326	0.579814
C399	C	-0.212702	0.181875	-0.117392
C400	C	0.287298	0.681875	0.382608
C401	C	-0.178110	0.179116	0.000107
C402	C	0.321890	0.679116	0.500107
H403	H	-0.237663	0.216864	-0.117396
H404	H	0.262337	0.716864	0.382604
H405	H	-0.189240	0.180002	-0.197090
H406	H	0.310760	0.680002	0.302910
H407	H	-0.234670	0.150633	-0.117362
H408	H	0.265330	0.650633	0.382638
H409	H	-0.156138	0.210356	0.000071
H410	H	0.343862	0.710356	0.500071
H411	H	-0.201575	0.180995	0.079825
H412	H	0.298425	0.680995	0.579825
C413	C	-0.129753	-0.070143	-0.117294
C414	C	0.370247	0.429857	0.382706
C415	C	-0.148394	-0.038879	0.000195
C416	C	0.351606	0.461121	0.500195
H417	H	-0.145097	-0.105624	-0.117266
H418	H	0.354903	0.394376	0.382734
H419	H	-0.142405	-0.048928	-0.196998
H420	H	0.357595	0.451072	0.303002
H421	H	-0.089113	-0.077089	-0.117282
H422	H	0.410887	0.422911	0.382718
H423	H	-0.189034	-0.031930	0.000178
H424	H	0.310966	0.468070	0.500178
H425	H	-0.135745	-0.060099	0.079920
H426	H	0.364255	0.439901	0.579920
H427	H	0.404512	-0.017441	0.000134
H428	H	0.904512	0.482559	0.500134
