data_functionalizedCrystal
_audit_creation_method	'MofGen! by Chris Wilmer'
_symmetry_space_group_name_H-M	'P1'
_symmetry_Int_Tables_number	1
_symmetry_cell_setting	triclinic
loop_
_symmetry_equiv_pos_as_xyz
  x,y,z
_cell_length_a	6.817900
_cell_length_b	15.185311
_cell_length_c	15.185463
_cell_angle_alpha	94.886157
_cell_angle_beta	104.264314
_cell_angle_gamma	104.261569
loop_
_atom_site_label
_atom_site_type_symbol
_atom_site_fract_x
_atom_site_fract_y
_atom_site_fract_z
V1	V	-4.039299	-0.126357	-0.283661
O2	O	-4.022561	0.005454	-0.277987
O3	O	-3.994590	-0.249950	-0.281985
O4	O	-3.994606	-0.124684	-0.407255
O5	O	-4.022545	-0.120679	-0.151849
V6	V	-4.521969	-0.110559	-0.267863
O7	O	-4.302430	-0.161011	-0.318314
O8	O	-4.709035	-0.075904	-0.233209
O9	O	-4.343472	0.013034	-0.269539
O10	O	-4.656104	-0.242369	-0.273537
O11	O	-4.656120	-0.116237	-0.399674
O12	O	-4.343456	-0.112231	-0.144269
C13	C	-3.840369	-0.280071	-0.277578
C14	C	-3.885125	-0.381111	-0.277031
C15	C	-4.031294	-0.795190	-0.191482
C16	C	-4.117662	-0.821487	-0.358016
C17	C	-4.075583	-0.726553	-0.358525
C18	C	-4.011360	-0.665932	-0.275511
C19	C	-3.989216	-0.700246	-0.191988
C20	C	-4.097744	-0.692232	-0.442046
C21	C	-4.055666	-0.597292	-0.442558
C22	C	-3.991428	-0.536670	-0.359543
C23	C	-3.969282	-0.570989	-0.276017
C24	C	-3.905059	-0.510369	-0.193002
C25	C	-3.882898	-0.544686	-0.109475
C26	C	-3.924977	-0.639624	-0.108972
C27	C	-3.949348	-0.441732	-0.360045
C28	C	-3.862981	-0.415425	-0.193509
C29	C	-3.840388	-0.120281	-0.437371
C30	C	-3.885155	-0.119731	-0.538411
C31	C	-3.892053	-0.112892	-0.961000
C32	C	-4.256852	-0.121984	-0.970271
C33	C	-4.214791	-0.122492	-0.875337
C34	C	-4.011356	-0.118201	-0.823230
C35	C	-3.849983	-0.113403	-0.866058
C36	C	-4.376162	-0.127300	-0.832504
C37	C	-4.334105	-0.127810	-0.737564
C38	C	-4.130664	-0.123513	-0.685455
C39	C	-3.969286	-0.118712	-0.728288
C40	C	-3.765852	-0.114422	-0.676181
C41	C	-3.604467	-0.109615	-0.719012
C42	C	-3.646542	-0.109105	-0.813949
C43	C	-4.088589	-0.124022	-0.590518
C44	C	-3.723782	-0.114933	-0.581239
C45	C	-4.161035	0.043150	-0.273944
C46	C	-4.095517	0.144190	-0.274496
C47	C	-4.161015	-0.116637	-0.114148
C48	C	-4.095488	-0.117182	-0.013107
H49	H	-3.906945	-0.667574	-0.040969
Br50	Br	-4.532938	-0.127822	-1.040989
H51	H	-4.013245	-0.823135	-0.123476
Br52	Br	-4.307596	-0.130556	-0.532396
H53	H	-3.810673	-0.366073	-0.125907
Br54	Br	-4.184928	-0.774505	-0.554702
Br55	Br	-3.328389	-0.103806	-0.648287
Br56	Br	-4.204846	-0.903757	-0.470674
H57	H	-3.967428	-0.413796	-0.428053
Br58	Br	-3.795794	-0.462406	0.003181
Br59	Br	-4.085735	-0.550727	-0.555913
H60	H	-3.515158	-0.105194	-0.848830
H61	H	-3.558115	-0.111421	-0.538817
H62	H	-3.760658	-0.108974	-0.995876
Br63	Br	-4.652246	-0.133139	-0.903225
H64	H	-4.465519	-0.131722	-0.702700
