data_functionalizedCrystal
_audit_creation_method	'MofGen! by Chris Wilmer'
_symmetry_space_group_name_H-M	'P1'
_symmetry_Int_Tables_number	1
_symmetry_cell_setting	triclinic
loop_
_symmetry_equiv_pos_as_xyz
  x,y,z
_cell_length_a	19.288859
_cell_length_b	9.130307
_cell_length_c	19.288865
_cell_angle_alpha	90.008051
_cell_angle_beta	96.865014
_cell_angle_gamma	89.997472
loop_
_atom_site_label
_atom_site_type_symbol
_atom_site_fract_x
_atom_site_fract_y
_atom_site_fract_z
O1	O	0.921348	-0.121845	-0.086626
O2	O	0.719087	-0.121844	-0.098319
O3	O	0.826062	-0.121815	0.008658
O4	O	0.814373	-0.121873	-0.193603
O5	O	0.826058	0.121784	0.008658
O6	O	0.719083	0.121755	-0.098319
O7	O	0.921344	0.121754	-0.086626
Cu8	Cu	0.820213	0.143997	-0.092472
Cu9	Cu	0.820218	-0.144087	-0.092472
O10	O	0.814369	0.121726	-0.193603
C11	C	0.693209	-0.000044	-0.097943
C12	C	0.616105	-0.000042	-0.096816
N13	N	0.820215	0.346620	-0.092472
C14	C	0.052064	-0.000060	-0.151959
C15	C	0.124511	-0.000068	-0.153025
C16	C	0.169217	-0.000047	-0.090255
C17	C	0.141472	-0.000056	-0.026416
C18	C	0.069027	-0.000063	-0.025353
C19	C	0.290486	0.085315	-0.043442
C20	C	0.362930	0.085331	-0.044508
C21	C	0.392663	-0.000033	-0.093533
C22	C	0.349942	-0.085394	-0.141503
C23	C	0.277497	-0.085401	-0.140439
C24	C	0.247773	-0.000041	-0.091401
C25	C	0.498955	-0.000043	-0.158523
C26	C	0.571403	-0.000060	-0.159586
C27	C	0.588364	-0.000034	-0.032976
C28	C	0.515917	-0.000031	-0.031915
C29	C	0.471216	-0.000029	-0.094691
C30	C	0.914980	0.346635	0.002229
C31	C	0.962367	0.423309	0.049578
C32	C	0.962373	0.576643	0.049578
C33	C	0.914987	0.653306	0.002225
C34	C	0.867600	0.576631	-0.045123
C35	C	0.867600	0.423294	-0.045119
C36	C	0.772833	0.576616	-0.139819
C37	C	0.772829	0.423283	-0.139824
C38	C	0.725447	0.653279	-0.187172
C39	C	0.678062	0.576604	-0.234524
C40	C	0.678058	0.423262	-0.234523
C41	C	0.725442	0.346608	-0.187172
C42	C	0.947223	-0.000049	-0.087001
C43	C	1.024327	-0.000061	-0.088128
C44	C	0.825684	-0.000012	0.034535
C45	C	0.824555	0.000001	0.111638
N46	N	0.820220	0.653290	-0.092471
C47	C	0.814747	-0.000081	-0.219479
C48	C	0.815876	-0.000104	-0.296583
C49	C	0.887323	0.000008	0.156336
C50	C	0.886262	-0.000015	0.228783
C51	C	0.822430	-0.000016	0.256529
C52	C	0.759654	-0.000031	0.211822
C53	C	0.760716	-0.000022	0.139376
C54	C	0.772249	0.085312	0.364815
C55	C	0.771189	0.085313	0.437260
C56	C	0.819150	-0.000048	0.479975
C57	C	0.868183	-0.085391	0.450238
C58	C	0.869246	-0.085383	0.377792
C59	C	0.821271	-0.000026	0.335083
C60	C	0.880773	-0.000069	0.603228
C61	C	0.879709	-0.000101	0.675676
C62	C	0.753099	-0.000102	0.658713
C63	C	0.754164	-0.000084	0.586267
C64	C	0.818003	-0.000061	0.558529
H65	H	0.015673	-0.000065	-0.203077
Br66	Br	1.026671	0.319268	0.113843
H67	H	0.930825	-0.000103	0.712069
H68	H	0.639480	0.639033	-0.273072
Br69	Br	1.026679	0.680705	0.113842
H70	H	0.939306	0.000022	0.133757
Br71	Br	0.725448	0.861376	-0.187169
H72	H	0.462558	-0.000044	-0.209639
Br73	Br	0.031381	-0.000073	0.061282
H74	H	0.725445	0.221756	-0.187169
H75	H	0.639467	0.360841	-0.273077
Br76	Br	0.609047	-0.000082	-0.246222
Br77	Br	0.420900	0.201194	0.020585
H78	H	0.733191	0.154831	0.330042
H79	H	0.147099	-0.000054	-0.205005
Br80	Br	0.478270	-0.000044	0.054718
Br81	Br	0.666467	-0.000117	0.696361
H82	H	0.914990	0.778158	0.002234
Br83	Br	0.971454	-0.000012	0.289456
Br84	Br	0.935783	-0.201205	0.337435
H85	H	0.266285	0.154832	-0.003517
H86	H	0.707681	-0.000034	0.234417
H87	H	0.709601	-0.000027	0.102982
Br88	Br	0.933279	-0.201246	0.508199
Br89	Br	0.668974	-0.000092	0.525601
Br90	Br	0.219521	-0.201248	-0.205535
H91	H	0.932754	-0.000056	0.580643
H92	H	0.914985	0.221783	0.002229
H93	H	0.731261	0.154795	0.461465
H94	H	0.177877	-0.000043	0.024691
Br95	Br	0.390283	-0.201231	-0.208050
H96	H	0.624763	-0.000028	0.018132
