data_functionalizedCrystal
_audit_creation_method	'MofGen! by Chris Wilmer'
_symmetry_space_group_name_H-M	'P1'
_symmetry_Int_Tables_number	1
_symmetry_cell_setting	triclinic
loop_
_symmetry_equiv_pos_as_xyz
  x,y,z
_cell_length_a	15.297979
_cell_length_b	15.297510
_cell_length_c	12.759393
_cell_angle_alpha	99.643819
_cell_angle_beta	99.711079
_cell_angle_gamma	69.201025
loop_
_atom_site_label
_atom_site_type_symbol
_atom_site_fract_x
_atom_site_fract_y
_atom_site_fract_z
Zn1	Zn	1.357854	0.124374	0.893286
Zn2	Zn	1.857854	0.624374	1.393286
Zn3	Zn	1.330802	0.279938	0.743477
Zn4	Zn	1.830802	0.779938	1.243477
Zn5	Zn	1.202300	0.151312	0.691633
Zn6	Zn	1.702300	0.651312	1.191633
Zn7	Zn	1.175353	0.306741	0.893120
Zn8	Zn	1.675353	0.806741	1.393120
O9	O	1.266577	0.215591	0.805379
O10	O	1.766577	0.715591	1.305379
O11	O	1.484421	0.122520	0.895180
O12	O	1.984421	0.622520	1.395180
O13	O	1.313713	0.262932	0.589581
O14	O	1.813713	0.762932	1.089581
O15	O	1.245533	0.017587	0.696756
O16	O	1.745533	0.517587	1.196756
O17	O	1.464546	0.236812	0.785115
O18	O	1.964546	0.736812	1.285115
O19	O	1.359818	-0.002204	0.844909
O20	O	1.859818	0.497796	1.344909
O21	O	1.219303	0.168431	0.551492
O22	O	1.719303	0.668431	1.051492
O23	O	1.068570	0.194420	0.696595
O24	O	1.568570	0.694420	1.196595
O25	O	1.199606	0.282493	1.040160
O26	O	1.699606	0.782493	1.540160
O27	O	1.048772	0.308613	0.844626
O28	O	1.548772	0.808613	1.344626
O29	O	1.333688	0.148509	1.040283
O30	O	1.833688	0.648509	1.540283
O31	O	1.287583	0.413645	0.784954
O32	O	1.787583	0.913645	1.284954
O33	O	1.173375	0.433337	0.894896
O34	O	1.673375	0.933337	1.394896
C35	C	1.024923	0.257349	0.764967
C36	C	1.524923	0.757349	1.264967
C37	C	0.921539	0.275235	0.747708
C38	C	1.421539	0.775235	1.247708
C39	C	0.862636	0.343050	0.682172
C40	C	1.362636	0.843050	1.182172
C41	C	0.765501	0.359857	0.665961
C42	C	1.265501	0.859857	1.165961
C43	C	0.727260	0.308846	0.715278
C44	C	1.227260	0.808846	1.215278
C45	C	0.786164	0.241025	0.780810
C46	C	1.286164	0.741025	1.280810
C47	C	0.883307	0.224221	0.797029
C48	C	1.383307	0.724221	1.297029
C49	C	0.747931	0.190018	0.830135
C50	C	1.247931	0.690018	1.330135
C51	C	0.806835	0.122197	0.895667
C52	C	1.306835	0.622197	1.395667
C53	C	0.903969	0.105396	0.911882
C54	C	1.403969	0.605396	1.411882
C55	C	0.942210	0.156407	0.862565
C56	C	1.442210	0.656407	1.362565
C57	C	0.650787	0.206821	0.813916
C58	C	1.150787	0.706821	1.313916
C59	C	0.671458	0.087993	0.928774
C60	C	1.171458	0.587993	1.428774
C61	C	0.768593	0.071186	0.944984
C62	C	1.268593	0.571186	1.444984
C63	C	1.224645	0.457233	0.845560
C64	C	1.724645	0.957233	1.345560
C65	C	1.206791	0.560594	0.862799
C66	C	1.706791	1.060594	1.362799
C67	C	1.394518	0.810780	0.682645
C68	C	1.894518	1.310780	1.182645
C69	C	1.411292	0.713668	0.666442
C70	C	1.911292	1.213668	1.166442
C71	C	1.360169	0.675394	0.715530
C72	C	1.860169	1.175394	1.215530
C73	C	1.292268	0.734243	0.780823
C74	C	1.792268	1.234243	1.280823
C75	C	1.275487	0.831366	0.797020
C76	C	1.775487	1.331366	1.297020
C77	C	1.241137	0.695980	0.829906
C78	C	1.741137	1.195980	1.329906
C79	C	1.173236	0.754830	0.895198
C80	C	1.673236	1.254830	1.395198
C81	C	1.156459	0.851943	0.911393
C82	C	1.656459	1.351943	1.411393
C83	C	1.207582	0.890216	0.862305
C84	C	1.707582	1.390216	1.362305
C85	C	1.257918	0.598858	0.813709
C86	C	1.757918	1.098858	1.313709
C87	C	1.138887	0.619444	0.928084
C88	C	1.638887	1.119444	1.428084
C89	C	1.122113	0.716556	0.944286
C90	C	1.622113	1.216556	1.444286
C91	C	1.509175	0.173671	0.845949
C92	C	2.009175	0.673671	1.345949
C93	C	1.612555	0.155808	0.863237
C94	C	2.112555	0.655808	1.363237
C95	C	1.266659	0.215486	1.079408
C96	C	1.766659	0.715486	1.579408
C97	C	1.266693	0.215441	1.196182
C98	C	1.766693	0.715441	1.696182
C99	C	1.308690	0.973003	0.765078
C100	C	1.808690	1.473003	1.265078
C101	C	1.326614	0.869630	0.747930
C102	C	1.826614	1.369630	1.247930
C103	C	1.266561	0.215620	0.532414
C104	C	1.766561	0.715620	1.032414
C105	C	1.266752	0.215371	0.415626
C106	C	1.766752	0.715371	0.915626
C107	C	1.336519	0.145669	1.251110
C108	C	1.836519	0.645669	1.751110
C109	C	1.336547	0.145632	1.360832
C110	C	1.836547	0.645632	1.860832
C111	C	1.196920	0.285147	1.360690
C112	C	1.696920	0.785147	1.860690
C113	C	1.196889	0.285180	1.250969
C114	C	1.696889	0.785180	1.750969
C115	C	1.406324	0.075930	1.196324
C116	C	1.906324	0.575930	1.696324
C117	C	1.476156	0.006153	1.251252
C118	C	1.976156	0.506153	1.751252
C119	C	1.476184	0.006115	1.360974
C120	C	1.976184	0.506115	1.860974
C121	C	1.406380	0.075855	1.415768
C122	C	1.906380	0.575855	1.915768
H123	H	0.602837	0.262042	0.760561
H124	H	1.102837	0.762042	1.260561
O125	O	1.449663	0.852072	0.629737
O126	O	1.949663	1.352072	1.129737
H127	H	1.400406	0.903595	0.576693
H128	H	1.900406	1.403595	1.076693
H129	H	0.640323	0.046457	0.968933
H130	H	1.140323	0.546457	1.468933
H131	H	1.140018	0.341983	1.206241
H132	H	1.640018	0.841983	1.706241
H133	H	0.893782	0.384579	0.642030
H134	H	1.393782	0.884579	1.142030
O135	O	1.083214	0.915415	0.981804
O136	O	1.583214	1.415415	1.481804
H137	H	1.080128	0.989377	0.984810
H138	H	1.580128	1.489377	1.484810
O139	O	1.189484	0.994964	0.879766
O140	O	1.689484	1.494964	1.379766
H141	H	1.255218	1.008373	0.917042
H142	H	1.755218	1.508373	1.417042
H143	H	1.140088	0.341926	1.405312
H144	H	1.640088	0.841926	1.905312
O145	O	0.622495	0.326956	0.697783
O146	O	1.122495	0.826956	1.197783
H147	H	0.587961	0.382677	0.643920
H148	H	1.087961	0.882677	1.143920
H149	H	1.021305	0.142723	0.875757
H150	H	1.521305	0.642723	1.375757
H151	H	1.466575	0.665757	0.613280
H152	H	1.966575	1.165757	1.113280
H153	H	1.313203	0.550951	0.760546
H154	H	1.813203	1.050951	1.260546
O155	O	1.378264	0.570651	0.698071
O156	O	1.878264	1.070651	1.198071
H157	H	1.434075	0.536158	0.644433
H158	H	1.934075	1.036158	1.144433
O159	O	1.551444	-0.069059	1.192159
O160	O	2.051444	0.430941	1.692159
H161	H	1.518024	-0.109167	1.127338
H162	H	2.018024	0.390833	1.627338
O163	O	0.967504	0.032256	0.982571
O164	O	1.467504	0.532256	1.482571
H165	H	1.019961	-0.022756	0.935145
H166	H	1.519961	0.477244	1.435145
O167	O	1.048863	0.780033	1.014689
O168	O	1.548863	1.280033	1.514689
H169	H	1.045780	0.853994	1.017692
H170	H	1.545780	1.353994	1.517692
O171	O	0.701971	0.432989	0.595272
O172	O	1.201971	0.932989	1.095272
H173	H	0.744881	0.465628	0.563691
H174	H	1.244881	0.965628	1.063691
O175	O	1.083743	0.578178	0.981042
O176	O	1.583743	1.078178	1.481042
H177	H	1.106826	0.500759	0.958821
H178	H	1.606826	1.000759	1.458821
O179	O	1.406288	0.075970	1.077980
O180	O	1.906288	0.575970	1.577980
H181	H	1.466552	0.015753	1.049108
H182	H	1.966552	0.515753	1.549108
H183	H	1.533039	-0.050706	1.405692
H184	H	2.033039	0.449294	1.905692
H185	H	1.406399	0.075810	1.505108
H186	H	1.906399	0.575810	2.005108
H187	H	0.816566	0.015966	0.998341
H188	H	1.316566	0.515966	1.498341
