data_functionalizedCrystal
_audit_creation_method	'MofGen! by Chris Wilmer'
_symmetry_space_group_name_H-M	'P1'
_symmetry_Int_Tables_number	1
_symmetry_cell_setting	triclinic
loop_
_symmetry_equiv_pos_as_xyz
  x,y,z
_cell_length_a	23.532357
_cell_length_b	14.519731
_cell_length_c	13.596369
_cell_angle_alpha	90.005416
_cell_angle_beta	90.011519
_cell_angle_gamma	83.258572
loop_
_atom_site_label
_atom_site_type_symbol
_atom_site_fract_x
_atom_site_fract_y
_atom_site_fract_z
O1	O	0.074713	1.222951	0.081806
O2	O	0.408047	1.556284	0.415139
O3	O	0.741380	1.889617	0.748473
O4	O	0.083492	0.954370	0.081809
O5	O	0.416826	1.287703	0.415142
O6	O	0.750159	1.621037	0.748476
O7	O	-0.003794	1.096783	0.081787
O8	O	0.329539	1.430117	0.415120
O9	O	0.662873	1.763450	0.748454
O10	O	0.161999	1.080537	0.081828
O11	O	0.495333	1.413871	0.415161
O12	O	0.828666	1.747204	0.748494
O13	O	-0.003799	1.096769	-0.081796
O14	O	0.329535	1.430103	0.251538
O15	O	0.662868	1.763436	0.584871
O16	O	0.083488	0.954356	-0.081774
O17	O	0.416821	1.287689	0.251559
O18	O	0.750154	1.621023	0.584893
O19	O	0.074709	1.222937	-0.081777
O20	O	0.408042	1.556270	0.251556
O21	O	0.741375	1.889603	0.584890
Zn22	Zn	0.079097	1.088644	-0.107748
Zn23	Zn	0.412431	1.421977	0.225586
Zn24	Zn	0.745764	1.755311	0.558919
Zn25	Zn	0.079104	1.088663	0.107780
Zn26	Zn	0.412437	1.421996	0.441113
Zn27	Zn	0.745770	1.755329	0.774446
O28	O	0.161995	1.080523	-0.081755
O29	O	0.495328	1.413857	0.251578
O30	O	0.828662	1.747190	0.584911
C31	C	0.083079	0.920009	0.000018
C32	C	0.416412	1.253342	0.333351
C33	C	0.749745	1.586675	0.666684
C34	C	0.081846	0.817643	0.000018
C35	C	0.415179	1.150977	0.333351
C36	C	0.748513	1.484310	0.666684
C37	C	0.080844	0.734511	0.000021
C38	C	0.414178	1.067845	0.333355
C39	C	0.747511	1.401178	0.666688
C40	C	0.079593	0.630218	0.000022
C41	C	0.412926	0.963551	0.333355
C42	C	0.746260	1.296884	0.666688
C43	C	0.078600	0.547091	0.000021
C44	C	0.411933	0.880424	0.333355
C45	C	0.745266	1.213757	0.666688
C46	C	0.077348	0.442790	0.000023
C47	C	0.410682	0.776124	0.333356
C48	C	0.744015	1.109457	0.666690
C49	C	-0.025015	1.096370	-0.000007
C50	C	0.308319	1.429703	0.333326
C51	C	0.641652	1.763037	0.666659
C52	C	-0.088239	1.095148	-0.000017
C53	C	0.245095	1.428482	0.333317
C54	C	0.578428	1.761815	0.666650
C55	C	-0.480282	1.087486	0.089206
C56	C	-0.146949	1.420819	0.422539
C57	C	0.186384	1.754153	0.755872
C58	C	-0.539687	1.086324	0.089211
C59	C	-0.206354	1.419658	0.422545
C60	C	0.126979	1.752991	0.755878
O61	O	-0.570404	1.085699	0.165046
O62	O	-0.237071	1.419032	0.498379
O63	O	0.096262	1.752366	0.831713
N64	N	-0.569404	1.085741	0.000043
N65	N	-0.236070	1.419074	0.333377
N66	N	0.097263	1.752408	0.666710
C67	C	-0.539711	1.086309	-0.089136
C68	C	-0.206378	1.419643	0.244197
C69	C	0.126955	1.752976	0.577531
O70	O	-0.570442	1.085705	-0.164980
O71	O	-0.237109	1.419039	0.168354
O72	O	0.096225	1.752372	0.501687
C73	C	-0.480307	1.087464	-0.089140
C74	C	-0.146974	1.420797	0.244193
C75	C	0.186359	1.754131	0.577526
C76	C	-0.450595	1.088057	0.000033
C77	C	-0.117261	1.421390	0.333367
C78	C	0.216072	1.754724	0.666700
C79	C	-0.450570	1.088078	0.178372
C80	C	-0.117237	1.421411	0.511705
C81	C	0.216097	1.754744	0.845039
C82	C	-0.391169	1.089241	0.178366
C83	C	-0.057836	1.422574	0.511699
C84	C	0.275497	1.755907	0.845033
C85	C	-0.361481	1.089812	0.089194
C86	C	-0.028148	1.423145	0.422527
C87	C	0.305185	1.756479	0.755860
C88	C	-0.391194	1.089220	0.000027
C89	C	-0.057861	1.422553	0.333361
C90	C	0.275473	1.755887	0.666694
C91	C	-0.450616	1.088026	-0.178319
C92	C	-0.117282	1.421359	0.155015
C93	C	0.216051	1.754693	0.488348
C94	C	-0.391207	1.089180	-0.178316
C95	C	-0.057874	1.422513	0.155018
C96	C	0.275459	1.755847	0.488351
C97	C	-0.361495	1.089773	-0.089142
C98	C	-0.028161	1.423106	0.244191
C99	C	0.305172	1.756440	0.577525
C100	C	-0.302106	1.090954	-0.089151
C101	C	0.031228	1.424288	0.244182
C102	C	0.364561	1.757621	0.577515
N103	N	-0.272389	1.091538	0.000017
N104	N	0.060944	1.424871	0.333350
N105	N	0.394277	1.758205	0.666683
C106	C	-0.302077	1.090967	0.089189
C107	C	0.031256	1.424300	0.422522
C108	C	0.364589	1.757633	0.755856
C109	C	-0.664464	1.083883	-0.089119
C110	C	-0.331131	1.417216	0.244214
C111	C	0.002203	1.750549	0.577547
C112	C	-0.723868	1.082735	-0.089116
C113	C	-0.390534	1.416068	0.244217
C114	C	-0.057201	1.749401	0.577551
C115	C	-0.723839	1.082748	0.089232
C116	C	-0.390506	1.416081	0.422565
C117	C	-0.057173	1.749415	0.755898
C118	C	-0.664435	1.083903	0.089227
C119	C	-0.331102	1.417236	0.422560
C120	C	0.002232	1.750569	0.755894
C121	C	-0.634748	1.084466	0.000048
C122	C	-0.301414	1.417800	0.333382
C123	C	0.031919	1.751133	0.666715
C124	C	-0.177332	1.093410	0.089170
C125	C	0.156001	1.426743	0.422503
C126	C	0.489335	1.760077	0.755836
C127	C	-0.117927	1.094577	0.089156
C128	C	0.215407	1.427910	0.422489
C129	C	0.548740	1.761244	0.755822
C130	C	-0.117960	1.094559	-0.089191
C131	C	0.215374	1.427892	0.244142
C132	C	0.548707	1.761225	0.577476
C133	C	-0.177360	1.093397	-0.089178
C134	C	0.155973	1.426730	0.244156
C135	C	0.489306	1.760063	0.577489
C136	C	-0.207045	1.092819	0.000011
C137	C	0.126288	1.426153	0.333344
C138	C	0.459622	1.759486	0.666677
O139	O	-0.271351	1.091577	-0.164947
O140	O	0.061983	1.424910	0.168386
O141	O	0.395316	1.758243	0.501719
O142	O	-0.271338	1.091559	0.165020
O143	O	0.061995	1.424892	0.498353
O144	O	0.395328	1.758225	0.831687
C145	C	0.183216	1.080937	0.000042
C146	C	0.516549	1.414270	0.333375
C147	C	0.849882	1.747603	0.666708
C148	C	0.246440	1.082158	0.000057
C149	C	0.579773	1.415492	0.333391
C150	C	0.913106	1.748825	0.666724
C151	C	0.075122	1.257298	0.000017
C152	C	0.408456	1.590631	0.333350
C153	C	0.741789	1.923965	0.666683
C154	C	0.076355	1.359663	0.000023
C155	C	0.409688	1.692997	0.333356
C156	C	0.743022	2.026330	0.666689
N157	N	0.079093	1.088638	-0.254840
N158	N	0.412426	1.421972	0.078494
N159	N	0.745760	1.755305	0.411827
C160	C	0.079104	1.088661	-0.656131
C161	C	0.412437	1.421995	-0.322797
C162	C	0.745771	1.755328	0.010536
C163	C	0.079103	1.088652	-0.544479
C164	C	0.412436	1.421985	-0.211146
C165	C	0.745770	1.755319	0.122187
C166	C	0.079099	1.088650	-0.455489
C167	C	0.412432	1.421984	-0.122155
C168	C	0.745766	1.755317	0.211178
C169	C	0.079097	1.088640	-0.343830
C170	C	0.412430	1.421973	-0.010497
C171	C	0.745764	1.755307	0.322836
N172	N	0.079104	1.088676	0.254872
N173	N	0.412437	1.422009	0.588205
N174	N	0.745770	1.755342	0.921538
H175	H	-0.093737	1.095062	0.161775
H176	H	0.239596	1.428395	0.495108
H177	H	0.572929	1.761729	0.828441
N178	N	-0.209346	1.092813	0.185363
N179	N	0.123988	1.426146	0.518696
N180	N	0.457321	1.759480	0.852029
H181	H	-0.181503	1.093375	0.241841
H182	H	0.151831	1.426709	0.575174
H183	H	0.485164	1.760042	0.908508
H184	H	-0.238546	1.149518	0.189232
H185	H	0.094787	1.482852	0.522565
H186	H	0.428121	1.816185	0.855899
N187	N	-0.359130	1.089894	0.274549
N188	N	-0.025796	1.423228	0.607882
N189	N	0.307537	1.756561	0.941215
H190	H	-0.316992	1.090725	0.261029
H191	H	0.016342	1.424058	0.594362
H192	H	0.349675	1.757391	0.927696
H193	H	-0.374079	1.146880	0.313466
H194	H	-0.040745	1.480214	0.646799
H195	H	0.292588	1.813547	0.980133
N196	N	-0.755858	1.082174	0.185425
N197	N	-0.422525	1.415507	0.518758
N198	N	-0.089191	1.748841	0.852092
H199	H	-0.740962	1.025220	0.224441
H200	H	-0.407628	1.358553	0.557774
H201	H	-0.074295	1.691886	0.891107
H202	H	-0.750048	1.139609	0.224290
H203	H	-0.416715	1.472942	0.557623
H204	H	-0.083382	1.806275	0.890956
H205	H	-0.640247	1.084384	0.161840
H206	H	-0.306914	1.417717	0.495173
H207	H	0.026420	1.751051	0.828507
N208	N	-0.482577	1.087515	0.274571
N209	N	-0.149244	1.420848	0.607904
N210	N	0.184090	1.754181	0.941237
H211	H	-0.467677	1.030564	0.313588
H212	H	-0.134344	1.363897	0.646922
H213	H	0.198990	1.697230	0.980255
H214	H	-0.476756	1.144952	0.313421
H215	H	-0.143423	1.478286	0.646754
H216	H	0.189910	1.811619	0.980088
N217	N	-0.359184	1.089791	-0.274500
N218	N	-0.025851	1.423124	0.058834
N219	N	0.307483	1.756458	0.392167
H220	H	-0.364968	1.032409	-0.313480
H221	H	-0.031635	1.365743	0.019854
H222	H	0.301699	1.699076	0.353187
H223	H	-0.374104	1.146797	-0.313408
H224	H	-0.040771	1.480131	0.019926
H225	H	0.292563	1.813464	0.353259
H226	H	-0.201554	1.092922	-0.161790
H227	H	0.131779	1.426256	0.171543
H228	H	0.465112	1.759589	0.504876
N229	N	-0.085934	1.095183	-0.185367
N230	N	0.247399	1.428517	0.147967
N231	N	0.580732	1.761850	0.481300
H232	H	-0.043794	1.096007	-0.171831
H233	H	0.289539	1.429340	0.161502
H234	H	0.622872	1.762674	0.494836
H235	H	-0.091760	1.037799	-0.224304
H236	H	0.241573	1.371132	0.109029
H237	H	0.574907	1.704465	0.442362
H238	H	-0.748056	1.082266	-0.161730
H239	H	-0.414722	1.415599	0.171603
H240	H	-0.081389	1.748932	0.504937
N241	N	-0.632447	1.084501	-0.185311
N242	N	-0.299113	1.417835	0.148023
N243	N	0.034220	1.751168	0.481356
H244	H	-0.660290	1.083959	-0.241791
H245	H	-0.326957	1.417292	0.091543
H246	H	0.006377	1.750625	0.424876
H247	H	-0.612360	1.142159	-0.189200
H248	H	-0.279027	1.475492	0.144133
H249	H	0.054307	1.808826	0.477467
H250	H	-0.474797	1.087545	-0.250934
H251	H	-0.141464	1.420878	0.082400
H252	H	0.191869	1.754211	0.415733
