data_functionalizedCrystal
_audit_creation_method	'MofGen! by Chris Wilmer'
_symmetry_space_group_name_H-M	'P1'
_symmetry_Int_Tables_number	1
_symmetry_cell_setting	triclinic
loop_
_symmetry_equiv_pos_as_xyz
  x,y,z
_cell_length_a	17.699104
_cell_length_b	10.654559
_cell_length_c	9.130313
_cell_angle_alpha	89.999532
_cell_angle_beta	89.995699
_cell_angle_gamma	96.109899
loop_
_atom_site_label
_atom_site_type_symbol
_atom_site_fract_x
_atom_site_fract_y
_atom_site_fract_z
O1	O	-0.106331	1.665979	-0.121787
O2	O	-0.116452	1.300326	-0.121787
O3	O	-0.001269	1.493470	-0.121798
O4	O	-0.221514	1.472836	-0.121776
O5	O	-0.001272	1.493467	0.121801
O6	O	-0.116455	1.300324	0.121812
O7	O	-0.106335	1.665977	0.121811
Cu8	Cu	-0.111395	1.483150	0.144054
Cu9	Cu	-0.111391	1.483153	-0.144030
O10	O	-0.221517	1.472833	0.121823
C11	C	-0.115709	1.253540	0.000012
C12	C	-0.113481	1.114136	0.000012
C13	C	-0.043570	1.063812	0.000009
C14	C	-0.041481	0.932826	-0.000003
C15	C	-0.179222	0.902500	-0.000001
C16	C	-0.181310	1.033483	-0.000001
C17	C	0.035954	1.081319	0.000014
C18	C	0.038042	0.950333	0.000003
C19	C	-0.249717	1.473578	0.000026
C20	C	-0.333748	1.475810	0.000034
C21	C	-0.857977	1.375023	-0.000022
C22	C	-0.779020	1.372934	-0.000007
C23	C	-0.731125	1.486316	-0.000002
C24	C	-0.762191	1.601796	0.000002
C25	C	-0.841147	1.603883	-0.000003
C26	C	-0.443772	1.593378	0.000023
C27	C	-0.364811	1.591282	0.000023
C28	C	-0.381644	1.362429	0.000019
C29	C	-0.460600	1.364516	0.000015
C30	C	-0.491659	1.479995	0.000026
C31	C	-0.577274	1.482259	0.000012
C32	C	-0.645512	1.484054	0.000001
C33	C	0.026931	1.492725	-0.000005
C34	C	0.110962	1.490493	-0.000022
C35	C	-0.107078	1.712763	0.000009
C36	C	-0.109305	1.852167	-0.000000
N37	N	-0.111397	1.483157	0.346677
N38	N	-0.111383	1.483156	-0.346652
C39	C	-0.060412	1.568703	0.423324
C40	C	-0.060403	1.568700	0.576661
C41	C	-0.162371	1.397601	0.576690
C42	C	-0.162376	1.397599	0.423356
C43	C	-0.001543	1.667489	0.423308
C44	C	-0.001534	1.667486	0.576645
H45	H	0.065923	1.123589	-0.101928
H46	H	-0.203876	1.327941	0.639139
H47	H	-0.356347	1.268400	0.000017
H48	H	0.053439	1.637928	0.624186
N49	N	0.075509	1.640422	0.368157
H50	H	0.075537	1.640419	0.257537
H51	H	0.115528	1.707611	0.405096
H52	H	-0.203885	1.327931	0.360951
N53	N	-0.018712	1.795019	0.631791
H54	H	-0.026389	1.851930	0.545801
H55	H	-0.066398	1.784637	0.693302
H56	H	0.059977	1.127377	0.105194
N57	N	-0.025957	1.787841	0.360290
H58	H	-0.079156	1.798662	0.394433
H59	H	0.010045	1.861980	0.394426
H60	H	-0.238238	1.074451	-0.000023
H61	H	-0.325816	1.683617	0.000027
N62	N	-0.252377	0.815510	-0.000018
H63	H	-0.240447	0.724895	-0.000024
H64	H	-0.282820	0.831778	0.090288
N65	N	0.071595	0.903707	-0.139313
H66	H	0.086273	0.977519	-0.206620
H67	H	0.118138	0.860553	-0.114978
N68	N	0.079231	0.912129	0.135026
H69	H	0.096100	0.989557	0.195294
H70	H	0.043997	0.851651	0.195166
H71	H	-0.896968	1.282693	-0.000032
N72	N	-0.745517	1.248392	0.000022
H73	H	-0.787838	1.176882	0.000018
H74	H	-0.713113	1.242530	-0.090270
H75	H	-0.469050	1.687408	0.000029
N76	N	-0.512257	1.242227	0.000001
H77	H	-0.480599	1.168757	0.000007
H78	H	-0.545388	1.238111	0.090305
H79	H	-0.866435	1.697911	-0.000001
N80	N	-0.710538	1.724090	0.000026
H81	H	-0.655806	1.705248	0.000027
H82	H	-0.720659	1.774431	-0.090276
