data_functionalizedCrystal
_audit_creation_method	'MofGen! by Chris Wilmer'
_symmetry_space_group_name_H-M	'P1'
_symmetry_Int_Tables_number	1
_symmetry_cell_setting	triclinic
loop_
_symmetry_equiv_pos_as_xyz
  x,y,z
_cell_length_a	17.077404
_cell_length_b	10.686285
_cell_length_c	17.077396
_cell_angle_alpha	85.608118
_cell_angle_beta	89.980223
_cell_angle_gamma	85.626964
loop_
_atom_site_label
_atom_site_type_symbol
_atom_site_fract_x
_atom_site_fract_y
_atom_site_fract_z
Zn1	Zn	1.224122	-0.502505	-0.419933
Zn2	Zn	1.234137	-0.713526	-0.278623
Zn3	Zn	1.092856	-0.502532	-0.288679
Zn4	Zn	1.102925	-0.713434	-0.409851
O5	O	1.163510	-0.607999	-0.349271
O6	O	1.335299	-0.530525	-0.401199
O7	O	1.215372	-0.685587	-0.170108
O8	O	1.101863	-0.325952	-0.314517
O9	O	1.342656	-0.685562	-0.297379
O10	O	1.198305	-0.325932	-0.410949
O11	O	1.111574	-0.530570	-0.177495
O12	O	0.984343	-0.530481	-0.304741
O13	O	1.119025	-0.685404	-0.521038
O14	O	0.991741	-0.685429	-0.393766
O15	O	1.208068	-0.530435	-0.528445
O16	O	1.225136	-0.890091	-0.287604
O17	O	1.128735	-0.890023	-0.384016
C18	C	0.959560	-0.607949	-0.349251
C19	C	0.872310	-0.607957	-0.349260
C20	C	0.500379	-0.688862	-0.395561
C21	C	0.582359	-0.688845	-0.395550
C22	C	0.619465	-0.608033	-0.349282
C23	C	0.574587	-0.527240	-0.303016
C24	C	0.492609	-0.527264	-0.303024
C25	C	0.745455	-0.527194	-0.303006
C26	C	0.827439	-0.527169	-0.302999
C27	C	0.835204	-0.688776	-0.395532
C28	C	0.753227	-0.688799	-0.395540
C29	C	0.708355	-0.608005	-0.349275
C30	C	1.179136	-0.935841	-0.333642
C31	C	1.185893	-1.076093	-0.326981
C32	C	1.368257	-0.608051	-0.349292
C33	C	1.455507	-0.608073	-0.349301
C34	C	1.163553	-0.607906	-0.554020
C35	C	1.163571	-0.607867	-0.641272
C36	C	1.147844	-0.278877	-0.364979
C37	C	1.141168	-0.138625	-0.371673
C38	C	1.209938	-0.527168	-0.686120
C39	C	1.209945	-0.527126	-0.768103
C40	C	1.163590	-0.607790	-0.805235
C41	C	1.117218	-0.688492	-0.760381
C42	C	1.117207	-0.688527	-0.678400
C43	C	1.117246	-0.688416	-0.931254
C44	C	1.117258	-0.688384	-1.013241
C45	C	1.209984	-0.527015	-1.020957
C46	C	1.209973	-0.527050	-0.938977
C47	C	1.163602	-0.607754	-0.894128
C48	C	1.163508	-0.608001	-0.145323
C49	C	1.163624	-0.607685	-0.058089
H50	H	0.857647	-0.461352	-0.265332
O51	O	1.067188	-0.775562	-0.630031
H52	H	1.105361	-0.839787	-0.589612
O53	O	0.697052	-0.440048	-0.253111
H54	H	0.736625	-0.383837	-0.220944
H55	H	0.618890	-0.754634	-0.433218
O56	O	1.243464	-1.147290	-0.269535
H57	H	1.303856	-1.121965	-0.284245
H58	H	0.470173	-0.754662	-0.433243
O59	O	1.083592	-1.067430	-0.429106
H60	H	1.098206	-1.092582	-0.489547
O61	O	1.259935	-0.440166	-0.646071
H62	H	1.292172	-0.384036	-0.691035
H63	H	1.247703	-0.461416	-0.804615
O64	O	1.259973	-0.440058	-0.898921
H65	H	1.292215	-0.383926	-0.943879
O66	O	1.259993	-0.439954	-1.069323
H67	H	1.252206	-0.453464	-1.132569
O68	O	0.713208	-0.776129	-0.445326
H69	H	0.758184	-0.832378	-0.477448
H70	H	1.079510	-0.754065	-1.043471
H71	H	1.079472	-0.754166	-0.790620
O72	O	0.883595	-0.775929	-0.445430
H73	H	0.946834	-0.762351	-0.437646
O74	O	0.614604	-0.440085	-0.253104
H75	H	0.594137	-0.341085	-0.271384
O76	O	0.444206	-0.440122	-0.253133
H77	H	0.483778	-0.383914	-0.220965
O78	O	1.067228	-0.775451	-0.882877
H79	H	1.034999	-0.831543	-0.922468
