data_functionalizedCrystal
_audit_creation_method	'MofGen! by Chris Wilmer'
_symmetry_space_group_name_H-M	'P1'
_symmetry_Int_Tables_number	1
_symmetry_cell_setting	triclinic
loop_
_symmetry_equiv_pos_as_xyz
  x,y,z
_cell_length_a	19.377372
_cell_length_b	21.606444
_cell_length_c	21.606444
_cell_angle_alpha	60.001331
_cell_angle_beta	90.001711
_cell_angle_gamma	72.112173
loop_
_atom_site_label
_atom_site_type_symbol
_atom_site_fract_x
_atom_site_fract_y
_atom_site_fract_z
Zr1	Zr	0.580545	0.861715	-0.173331
O2	O	0.484312	0.960293	-0.256882
O3	O	0.610046	0.741959	-0.147721
O4	O	0.610038	0.871080	-0.276838
O5	O	0.484325	0.831169	-0.025911
O6	O	0.709212	0.902558	-0.292577
O7	O	0.484320	0.831172	-0.127765
O8	O	0.709226	0.671583	-0.061610
O9	O	0.484311	1.062144	-0.256878
O10	O	0.696639	0.822551	-0.148540
O11	O	0.622631	0.799057	-0.060783
O12	O	0.622621	0.951081	-0.212802
O13	O	0.548613	0.927588	-0.125044
Zr14	Zr	0.738723	0.911913	-0.035987
Zr15	Zr	0.738715	0.911918	-0.198432
Zr16	Zr	0.580553	0.861710	-0.010886
Zr17	Zr	0.580543	1.024154	-0.173325
Zr18	Zr	0.738725	0.749473	-0.035993
O19	O	0.709222	1.031669	-0.061597
O20	O	0.709211	1.031675	-0.292572
O21	O	0.484324	0.960287	-0.025907
O22	O	0.834956	0.813334	0.047563
O23	O	0.834944	0.813341	-0.183411
O24	O	0.610057	0.741952	0.083254
O25	O	0.834943	0.942459	-0.183407
O26	O	0.709230	0.902548	0.067520
O27	O	0.610056	0.871070	0.083258
O28	O	0.834948	0.942456	-0.081554
O29	O	0.610036	1.102048	-0.276830
O30	O	0.709232	0.671579	0.067512
O31	O	0.834957	0.711484	0.047560
O32	O	0.834950	0.711488	-0.081562
O33	O	0.484318	1.062140	-0.127757
O34	O	0.610042	1.102045	-0.147709
O35	O	0.696647	0.822547	0.003484
O36	O	0.770655	0.846040	-0.084274
O37	O	0.696637	0.974570	-0.148535
O38	O	0.622629	0.951077	-0.060778
C39	C	0.659636	0.683627	-0.104666
C40	C	0.659637	0.614667	-0.104668
C41	C	0.698267	0.594532	-0.150478
C42	C	0.698269	0.529733	-0.150473
C43	C	0.659637	0.485072	-0.104662
C44	C	0.621006	0.505209	-0.058848
C45	C	0.621008	0.570005	-0.058849
C46	C	0.620997	0.243897	-0.058840
C47	C	0.620996	0.179100	-0.058844
C48	C	0.698259	0.203626	-0.150464
C49	C	0.698261	0.268421	-0.150465
C50	C	0.659633	0.288550	-0.104649
C51	C	0.659632	0.358812	-0.104653
C52	C	0.659634	0.414815	-0.104661
C53	C	0.461787	0.824018	-0.073262
C54	C	0.394639	0.802705	-0.062606
C55	C	-0.019378	1.068061	-0.195279
C56	C	-0.082463	1.048017	-0.185257
C57	C	-0.005185	0.913841	-0.118173
C58	C	0.057908	0.933874	-0.128187
C59	C	0.050805	1.010985	-0.166741
C60	C	0.128091	0.876798	-0.099649
C61	C	0.191178	0.896829	-0.109665
C62	C	0.184083	0.973937	-0.148220
C63	C	0.113892	1.031017	-0.176758
C64	C	0.135193	0.799687	-0.061099
C65	C	0.205376	0.742611	-0.032561
C66	C	0.268465	0.762642	-0.042572
C67	C	0.261369	0.839750	-0.081127
C68	C	0.338655	0.705562	-0.014034
C69	C	0.401742	0.725594	-0.024051
C70	C	0.324456	0.859781	-0.091144
C71	C	0.857481	0.949610	-0.136057
C72	C	0.924629	0.970923	-0.146713
C73	C	0.659624	0.886819	-0.307852
C74	C	0.659621	0.886821	-0.376814
C75	C	0.659632	1.090001	-0.104652
C76	C	0.659631	1.158961	-0.104650
C77	C	0.620984	0.953912	-0.442756
C78	C	0.620990	0.953912	-0.507552
C79	C	0.659629	0.886818	-0.506404
C80	C	0.698271	0.819723	-0.440454
C81	C	0.698268	0.819725	-0.375661
C82	C	0.698283	0.819711	-0.701759
C83	C	0.698280	0.819713	-0.766560
C84	C	0.621004	0.953898	-0.833651
C85	C	0.621002	0.953900	-0.768857
C86	C	0.659646	0.886806	-0.702914
C87	C	0.659640	0.886808	-0.632656
C88	C	0.659632	0.886815	-0.576660
C89	C	0.659644	0.886808	0.098534
C90	C	0.659647	0.886806	0.167496
C91	C	0.857483	0.746423	-0.136064
C92	C	0.924632	0.698775	-0.146722
C93	C	0.659646	0.683621	0.098527
C94	C	0.659650	0.614659	0.167486
C95	C	0.857493	0.746417	0.067129
C96	C	0.924645	0.698768	0.125433
C97	C	0.461775	1.027211	-0.276448
C98	C	0.394623	1.074860	-0.334751
C99	C	0.461785	1.027205	-0.073255
C100	C	0.394636	1.074852	-0.062596
C101	C	0.659622	1.090007	-0.307845
C102	C	0.659618	1.158969	-0.376805
C103	C	0.917530	0.664138	-0.185281
C104	C	0.980616	0.619376	-0.195309
C105	C	1.050805	0.609246	-0.166775
C106	C	1.057905	0.643889	-0.128215
C107	C	0.994819	0.688655	-0.118191
C108	C	0.698288	0.594535	0.233424
C109	C	0.698289	0.529746	0.298225
C110	C	0.659656	0.485080	0.297087
C111	C	0.621014	0.505209	0.231143
C112	C	0.621009	0.569999	0.166344
C113	C	0.994818	0.688657	0.107003
C114	C	1.057921	0.643896	0.161778
C115	C	1.050848	0.609243	0.234983
C116	C	0.980667	0.619358	0.253412
C117	C	0.917566	0.664123	0.198637
C118	C	0.324450	1.084979	-0.316322
C119	C	0.261347	1.129760	-0.371097
C120	C	0.268420	1.164416	-0.444301
C121	C	0.338601	1.154297	-0.462730
C122	C	0.401702	1.109521	-0.407956
C123	C	0.401738	1.109496	-0.024044
C124	C	0.338652	1.154277	-0.014033
C125	C	0.268463	1.164408	-0.042570
C126	C	0.261363	1.129763	-0.081127
C127	C	0.324449	1.084987	-0.091142
C128	C	0.698258	1.203617	-0.375643
C129	C	0.698268	1.268410	-0.440434
C130	C	0.659634	1.288556	-0.506385
C131	C	0.620993	1.243901	-0.507545
C132	C	0.620987	1.179106	-0.442755
H133	H	0.729714	0.187228	-0.187768
C134	C	0.578482	1.027707	-0.580087
H135	H	0.584021	1.018100	-0.618513
H136	H	0.527654	1.044172	-0.577702
H137	H	0.597556	1.066375	-0.588801
C138	C	1.135114	0.632734	-0.096824
H139	H	1.171663	0.601104	-0.108312
H140	H	1.140663	0.680999	-0.117285
H141	H	1.140654	0.609198	-0.045497
H142	H	0.344447	1.182479	0.017365
H143	H	0.204209	1.137989	-0.356077
H144	H	0.589518	1.142758	-0.443710
H145	H	0.860430	0.672346	0.213654
H146	H	0.729736	0.765096	-0.439524
H147	H	0.589540	1.008530	-0.887351
C148	C	0.740776	0.643666	0.234692
H149	H	0.763775	0.622399	0.283249
H150	H	0.777339	0.644656	0.205268
H151	H	0.707414	0.694254	0.216357
H152	H	0.729725	0.513340	-0.187774
C153	C	0.578512	0.592159	-0.008464
H154	H	0.584051	0.637141	-0.015021
H155	H	0.527683	0.601306	-0.019990
H156	H	0.597599	0.551696	0.040711
C157	C	-0.027182	1.152881	-0.237768
H158	H	0.020444	1.156633	-0.239667
H159	H	-0.053395	1.177097	-0.285795
H160	H	-0.053399	1.177237	-0.214067
C161	C	0.972892	0.581238	0.333936
H162	H	0.922063	0.593672	0.337075
H163	H	0.995909	0.527368	0.357205
H164	H	0.995902	0.599169	0.357204
C165	C	0.478888	1.098385	-0.428237
H166	H	0.474056	1.125433	-0.479680
H167	H	0.505123	1.117319	-0.408775
H168	H	0.505100	1.045530	-0.408780
H169	H	0.217034	1.200873	-0.488895
H170	H	0.108107	1.093808	-0.208131
C171	C	0.578516	0.129962	-0.008435
H172	H	0.555520	0.151223	0.018860
H173	H	0.541950	0.128970	-0.036868
H174	H	0.611883	0.079375	0.023814
C175	C	1.120260	0.560006	0.295230
H176	H	1.106003	0.540818	0.341470
H177	H	1.148805	0.518515	0.290698
H178	H	1.148792	0.590318	0.290694
C179	C	0.578501	0.266038	-0.008451
H180	H	0.555486	0.230164	0.018824
H181	H	0.611847	0.266001	0.023806
H182	H	0.541936	0.315611	-0.036901
C183	C	0.478939	1.098361	0.007346
H184	H	0.515501	1.066729	-0.004130
H185	H	0.484470	1.146635	-0.013129
H186	H	0.484475	1.074839	0.058671
C187	C	0.316632	1.046872	-0.133540
H188	H	0.364252	1.018755	-0.135425
H189	H	0.290412	1.013282	-0.109780
H190	H	0.290413	1.085073	-0.181583
C191	C	-0.159665	1.110806	-0.216643
H192	H	-0.154856	1.159597	-0.241033
H193	H	-0.185889	1.105784	-0.250027
H194	H	-0.185875	1.105779	-0.178226
H195	H	0.217101	1.200869	-0.034410
C196	C	1.135110	0.632769	0.141494
H197	H	1.130279	0.659809	0.090052
H198	H	1.161336	0.651716	0.160948
H199	H	1.161329	0.579913	0.160960
C200	C	0.184154	1.140907	-0.112508
H201	H	0.147605	1.172528	-0.101010
H202	H	0.178602	1.164428	-0.163830
H203	H	0.178617	1.092631	-0.092025
H204	H	0.729718	1.187226	-0.321949
C205	C	1.002609	0.726773	0.026484
H206	H	0.954983	0.754879	-0.003507
H207	H	1.028820	0.760373	0.016643
H208	H	1.028828	0.688574	0.016639
H209	H	0.729734	1.304763	-0.439476
C210	C	0.740766	0.643650	-0.200867
H211	H	0.763780	0.622371	-0.228143
H212	H	0.707423	0.694241	-0.233124
H213	H	0.777332	0.644625	-0.172415
C214	C	0.578502	1.027704	-0.770124
H215	H	0.555498	1.067664	-0.818679
H216	H	0.541942	1.019403	-0.740697
H217	H	0.611856	1.041585	-0.751789
C218	C	0.659640	1.359835	-0.577646
H219	H	0.688181	1.383542	-0.567502
H220	H	0.680323	1.345173	-0.610249
H221	H	0.610414	1.394775	-0.599143
C222	C	0.346372	1.192415	-0.543255
H223	H	0.298737	1.220521	-0.573231
H224	H	0.372586	1.226015	-0.553113
H225	H	0.372576	1.154215	-0.553104
C226	C	0.740759	0.317541	-0.200854
H227	H	0.763773	0.296265	-0.228132
H228	H	0.707414	0.368133	-0.233109
H229	H	0.777324	0.318517	-0.172402
H230	H	0.589548	0.586375	0.112657
H231	H	0.589538	1.260314	-0.561251
H232	H	0.318677	1.056761	-0.256719
C233	C	0.740804	0.507611	0.370752
H234	H	0.763821	0.543488	0.362142
H235	H	0.707467	0.507653	0.402976
H236	H	0.777369	0.458039	0.391875
C237	C	0.578510	0.456086	-0.008458
H238	H	0.584034	0.414617	-0.015023
H239	H	0.597590	0.436863	0.040714
H240	H	0.527678	0.486477	-0.019992
H241	H	0.318671	0.922573	-0.122516
H242	H	0.235454	0.990245	-0.156376
H243	H	0.000588	0.851058	-0.086783
H244	H	0.729747	0.765075	-0.765617
H245	H	1.000612	0.716852	-0.086789
C246	C	0.659668	0.413810	0.368367
H247	H	0.631123	0.390088	0.358251
H248	H	0.708894	0.378884	0.389866
H249	H	0.638981	0.428494	0.400958
H250	H	0.211148	0.679827	-0.001171
H251	H	1.102167	0.572792	-0.174941
C252	C	0.346459	0.620747	0.028370
H253	H	0.298834	0.616992	0.030249
H254	H	0.372677	0.596462	0.004616
H255	H	0.372673	0.596463	0.076414
H256	H	0.083820	0.783380	-0.052950
H257	H	0.589514	1.008546	-0.443700
C258	C	0.478945	0.662813	0.007348
H259	H	0.474140	0.614020	0.031752
H260	H	0.505165	0.667835	-0.031058
H261	H	0.505156	0.667845	0.040735
C262	C	0.740781	0.745909	-0.629230
H263	H	0.763785	0.705950	-0.637828
H264	H	0.777343	0.754209	-0.608102
H265	H	0.707428	0.732026	-0.597015
H266	H	0.589560	0.468832	0.230227
H267	H	0.860384	0.672386	-0.208528
C268	C	0.972793	0.581267	-0.237716
H269	H	0.921955	0.593702	-0.253260
H270	H	0.995785	0.599189	-0.278922
H271	H	0.995802	0.527392	-0.207116
C272	C	0.740763	0.745926	-0.303121
H273	H	0.735233	0.755538	-0.264698
H274	H	0.721686	0.707264	-0.294410
H275	H	0.791596	0.729454	-0.305502
