data_functionalizedCrystal
_audit_creation_method	'MofGen! by Chris Wilmer'
_symmetry_space_group_name_H-M	'P1'
_symmetry_Int_Tables_number	1
_symmetry_cell_setting	triclinic
loop_
_symmetry_equiv_pos_as_xyz
  x,y,z
_cell_length_a	17.639762
_cell_length_b	21.295417
_cell_length_c	17.640968
_cell_angle_alpha	101.234808
_cell_angle_beta	87.859627
_cell_angle_gamma	101.260577
loop_
_atom_site_label
_atom_site_type_symbol
_atom_site_fract_x
_atom_site_fract_y
_atom_site_fract_z
Zn1	Zn	1.247818	-0.018010	0.195068
Zn2	Zn	1.581152	0.315324	0.528402
Zn3	Zn	1.914485	0.648657	0.861735
Zn4	Zn	1.222024	-0.147890	0.068077
Zn5	Zn	1.555357	0.185444	0.401410
Zn6	Zn	1.888690	0.518777	0.734743
Zn7	Zn	1.095138	-0.058969	0.093713
Zn8	Zn	1.428471	0.274365	0.427046
Zn9	Zn	1.761804	0.607698	0.760379
Zn10	Zn	1.120763	-0.139610	0.220660
Zn11	Zn	1.454096	0.193724	0.553993
Zn12	Zn	1.787429	0.527057	0.887327
O13	O	1.171436	-0.091119	0.144379
O14	O	1.504769	0.242214	0.477713
O15	O	1.838102	0.575547	0.811046
O16	O	1.350672	-0.021562	0.156783
O17	O	1.684006	0.311771	0.490117
O18	O	2.017339	0.645105	0.823450
O19	O	1.183672	-0.156701	-0.034797
O20	O	1.517006	0.176632	0.298536
O21	O	1.850339	0.509966	0.631869
O22	O	1.115462	0.034568	0.107176
O23	O	1.448795	0.367902	0.440509
O24	O	1.782129	0.701235	0.773843
O25	O	1.331721	-0.116985	0.063483
O26	O	1.665054	0.216349	0.396817
O27	O	1.998388	0.549682	0.730150
O28	O	1.227636	0.064661	0.181642
O29	O	1.560969	0.397994	0.514975
O30	O	1.894303	0.731328	0.848308
O31	O	1.090450	-0.091371	-0.015963
O32	O	1.423783	0.241962	0.317371
O33	O	1.757117	0.575295	0.650704
O34	O	0.992261	-0.083342	0.131991
O35	O	1.325595	0.249991	0.465325
O36	O	1.658928	0.583324	0.798658
O37	O	1.159136	-0.102872	0.323540
O38	O	1.492469	0.230461	0.656873
O39	O	1.825803	0.563794	0.990206
O40	O	1.011088	-0.142589	0.225259
O41	O	1.344421	0.190745	0.558592
O42	O	1.677754	0.524078	0.891926
O43	O	1.252484	-0.013533	0.304737
O44	O	1.585817	0.319800	0.638071
O45	O	1.919150	0.653133	0.971404
O46	O	1.208520	-0.234895	0.088299
O47	O	1.541853	0.098438	0.421632
O48	O	1.875187	0.431771	0.754965
O49	O	1.134124	-0.228812	0.200401
O50	O	1.467457	0.104521	0.533734
O51	O	1.800791	0.437855	0.867068
C52	C	0.974118	-0.116512	0.184185
C53	C	1.307452	0.216821	0.517518
C54	C	1.640785	0.550155	0.850851
C55	C	0.889709	-0.127387	0.201231
C56	C	1.223042	0.205947	0.534565
C57	C	1.556376	0.539280	0.867898
C58	C	0.780543	-0.173631	0.273734
C59	C	1.113877	0.159702	0.607068
C60	C	1.447210	0.493035	0.940401
C61	C	0.859858	-0.163410	0.257710
C62	C	1.193191	0.169924	0.591044
C63	C	1.526524	0.503257	0.924377
C64	C	0.840251	-0.101568	0.160757
C65	C	1.173585	0.231765	0.494090
C66	C	1.506918	0.565098	0.827424
C67	C	0.760934	-0.111782	0.176775
C68	C	1.094268	0.221551	0.510109
C69	C	1.427601	0.554884	0.843442
C70	C	0.731087	-0.147815	0.233264
C71	C	1.064420	0.185518	0.566598
C72	C	1.397754	0.518852	0.899931
C73	C	0.711478	-0.085966	0.136305
C74	C	1.044811	0.247368	0.469639
C75	C	1.378144	0.580701	0.802972
C76	C	0.632167	-0.096182	0.152320
C77	C	0.965500	0.237151	0.485653
C78	C	1.298834	0.570485	0.818987
C79	C	0.602313	-0.132215	0.208805
C80	C	0.935646	0.201119	0.542138
C81	C	1.268980	0.534452	0.875471
C82	C	0.651776	-0.158031	0.249279
C83	C	0.985109	0.175302	0.582612
C84	C	1.318443	0.508636	0.915946
C85	C	0.741326	-0.049937	0.079813
C86	C	1.074659	0.283396	0.413146
C87	C	1.407992	0.616729	0.746480
C88	C	0.691869	-0.024121	0.039343
C89	C	1.025202	0.309213	0.372676
C90	C	1.358536	0.642546	0.706010
C91	C	0.612558	-0.034333	0.055361
C92	C	0.945891	0.299000	0.388694
C93	C	1.279224	0.632334	0.722028
C94	C	0.582704	-0.070366	0.111846
C95	C	0.916037	0.262968	0.445179
C96	C	1.249370	0.596301	0.778512
C97	C	0.563094	-0.008516	0.014887
C98	C	0.896428	0.324817	0.348220
C99	C	1.229761	0.658150	0.681553
C100	C	0.483784	-0.018733	0.030901
C101	C	0.817117	0.314601	0.364235
C102	C	1.150450	0.647934	0.697568
C103	C	0.503393	-0.080582	0.127860
C104	C	0.836726	0.252752	0.461194
C105	C	1.170060	0.586085	0.794527
C106	C	1.171327	-0.254692	0.144357
C107	C	1.504661	0.078641	0.477691
C108	C	1.837994	0.411975	0.811024
C109	C	1.171356	-0.324655	0.144359
C110	C	1.504689	0.008678	0.477693
C111	C	1.838023	0.342011	0.811026
C112	C	1.210147	-0.360653	0.086029
C113	C	1.543480	-0.027320	0.419362
C114	C	1.876814	0.306013	0.752695
C115	C	1.210186	-0.426388	0.086039
C116	C	1.543519	-0.093055	0.419372
C117	C	1.876853	0.240279	0.752705
C118	C	1.171419	-0.456125	0.144374
C119	C	1.504752	-0.122792	0.477707
C120	C	1.838085	0.210541	0.811041
C121	C	1.132626	-0.420118	0.202715
C122	C	1.465959	-0.086784	0.536048
C123	C	1.799293	0.246549	0.869381
C124	C	1.132595	-0.354383	0.202707
C125	C	1.465928	-0.021049	0.536041
C126	C	1.799261	0.312284	0.869374
N127	N	1.106154	-0.566823	0.163566
N128	N	1.439487	-0.233490	0.496899
N129	N	1.772820	0.099843	0.830233
N130	N	1.106185	-0.629270	0.163568
N131	N	1.439518	-0.295936	0.496901
N132	N	1.772851	0.037397	0.830235
C133	C	1.171513	-0.654181	0.144400
C134	C	1.504846	-0.320847	0.477734
C135	C	1.838179	0.012486	0.811067
N136	N	1.236807	-0.614289	0.125215
N137	N	1.570140	-0.280956	0.458548
N138	N	1.903473	0.052378	0.791882
N139	N	1.236774	-0.551838	0.125209
N140	N	1.570107	-0.218505	0.458543
N141	N	1.903441	0.114829	0.791876
C142	C	1.171449	-0.527403	0.144389
C143	C	1.504782	-0.194070	0.477722
C144	C	1.838116	0.139263	0.811055
C145	C	1.210350	-0.761456	0.086077
C146	C	1.543683	-0.428122	0.419410
C147	C	1.877016	-0.094789	0.752744
C148	C	1.210391	-0.827190	0.086092
C149	C	1.543725	-0.493857	0.419425
C150	C	1.877058	-0.160524	0.752759
C151	C	1.132824	-0.820920	0.202765
C152	C	1.466157	-0.487587	0.536099
C153	C	1.799490	-0.154254	0.869432
C154	C	1.132790	-0.755185	0.202753
C155	C	1.466123	-0.421852	0.536086
C156	C	1.799456	-0.088519	0.869420
C157	C	1.171551	-0.725458	0.144405
C158	C	1.504884	-0.392125	0.477738
C159	C	1.838218	-0.058791	0.811072
C160	C	1.369523	-0.065628	0.104419
C161	C	1.702856	0.267705	0.437752
C162	C	2.036190	0.601039	0.771086
C163	C	1.453936	-0.054765	0.087390
C164	C	1.787270	0.278568	0.420724
C165	C	2.120603	0.611901	0.754057
C166	C	1.211546	-0.052710	0.342465
C167	C	1.544879	0.280623	0.675798
C168	C	1.878212	0.613956	1.009131
C169	C	1.228638	-0.036342	0.426877
C170	C	1.561971	0.296991	0.760210
C171	C	1.895305	0.630324	1.093544
C172	C	1.171568	0.073098	0.144414
C173	C	1.504901	0.406431	0.477747
C174	C	1.838235	0.739764	0.811080
C175	C	1.171625	0.143077	0.144428
C176	C	1.504958	0.476411	0.477762
C177	C	1.838291	0.809744	0.811095
C178	C	1.131525	-0.129328	-0.052944
C179	C	1.464859	0.204005	0.280389
C180	C	1.798192	0.537338	0.613722
C181	C	1.114580	-0.145500	-0.137386
C182	C	1.447913	0.187834	0.195948
C183	C	1.781247	0.521167	0.529281
C184	C	1.041877	-0.215083	0.753438
C185	C	1.375210	0.118250	1.086772
C186	C	1.708544	0.451583	1.420105
C187	C	1.057954	-0.199693	0.832753
C188	C	1.391287	0.133640	1.166087
C189	C	1.724621	0.466973	1.499420
C190	C	1.155149	-0.106672	0.813166
C191	C	1.488482	0.226661	1.146499
C192	C	1.821815	0.559994	1.479833
C193	C	1.139077	-0.122053	0.733848
C194	C	1.472410	0.211281	1.067182
C195	C	1.805744	0.544614	1.400515
C196	C	1.082441	-0.176259	0.703991
C197	C	1.415774	0.157074	1.037324
C198	C	1.749108	0.490407	1.370658
C199	C	1.179641	-0.083229	0.684401
C200	C	1.512974	0.250104	1.017734
C201	C	1.846308	0.583438	1.351067
C202	C	1.163573	-0.098610	0.605090
C203	C	1.496907	0.234723	0.938423
C204	C	1.830240	0.568056	1.271756
C205	C	1.106942	-0.152815	0.575226
C206	C	1.440275	0.180518	0.908559
C207	C	1.773608	0.513851	1.241892
C208	C	1.066373	-0.191641	0.624680
C209	C	1.399707	0.141693	0.958013
C210	C	1.733040	0.475026	1.291346
C211	C	1.236281	-0.029025	0.714259
C212	C	1.569614	0.304308	1.047592
C213	C	1.902947	0.637642	1.380925
C214	C	1.276845	0.009799	0.664811
C215	C	1.610178	0.343132	0.998145
C216	C	1.943511	0.676465	1.331478
C217	C	1.260773	-0.005580	0.585499
C218	C	1.594107	0.327754	0.918833
C219	C	1.927440	0.661087	1.252166
C220	C	1.204142	-0.059785	0.555636
C221	C	1.537475	0.273548	0.888969
C222	C	1.870808	0.606882	1.222302
C223	C	1.301342	0.033246	0.536045
C224	C	1.634675	0.366579	0.869379
C225	C	1.968008	0.699912	1.202712
C226	C	1.285274	0.017864	0.456734
C227	C	1.618607	0.351198	0.790067
C228	C	1.951941	0.684531	1.123401
C229	C	1.188074	-0.075166	0.476324
C230	C	1.521407	0.258167	0.809658
C231	C	1.854741	0.591500	1.142991
H232	H	0.627475	-0.187365	0.295285
H233	H	0.960808	0.145968	0.628619
H234	H	1.294141	0.479302	0.961952
F235	F	0.594870	0.029824	-0.045237
F236	F	0.928203	0.363158	0.288097
F237	F	1.261536	0.696491	0.621430
H238	H	1.024918	-0.231313	0.873012
H239	H	1.358251	0.102021	1.206346
H240	H	1.691585	0.435354	1.539679
F241	F	1.091499	-0.716873	0.264835
F242	F	1.424832	-0.383539	0.598168
F243	F	1.758165	-0.050206	0.931502
F244	F	1.089844	-0.169188	0.490814
F245	F	1.423178	0.164145	0.824147
F246	F	1.756511	0.497478	1.157481
H247	H	0.443515	0.002294	-0.002049
H248	H	0.776849	0.335627	0.331284
H249	H	1.110182	0.668961	0.664617
H250	H	1.241711	-0.336451	0.038520
H251	H	1.575044	-0.003117	0.371853
H252	H	1.908378	0.330216	0.705186
H253	H	1.201264	-0.062539	0.837486
H254	H	1.534597	0.270795	1.170820
H255	H	1.867930	0.604128	1.504153
H256	H	0.900124	-0.184434	0.290671
H257	H	1.233458	0.148899	0.624005
H258	H	1.566791	0.482233	0.957338
F259	F	0.723644	0.014225	-0.020776
F260	F	1.056977	0.347559	0.312557
F261	F	1.390310	0.680892	0.645891
F262	F	1.253383	-0.012658	0.798670
F263	F	1.586716	0.320676	1.132003
F264	F	1.920049	0.654009	1.465336
F265	F	0.517901	-0.143093	0.225844
F266	F	0.851235	0.190240	0.559177
F267	F	1.184568	0.523574	0.892511
F268	F	1.337121	0.067486	0.696596
F269	F	1.670454	0.400819	1.029929
F270	F	2.003788	0.734153	1.363263
F271	F	1.251474	-0.464708	0.023952
F272	F	1.584807	-0.131374	0.357285
F273	F	1.918141	0.201959	0.690619
H274	H	0.756242	-0.202965	0.319741
H275	H	1.089575	0.130368	0.653074
H276	H	1.422909	0.463701	0.986407
F277	F	0.872026	-0.063222	0.100638
F278	F	1.205359	0.270111	0.433972
F279	F	1.538692	0.603444	0.767305
H280	H	1.101006	-0.325072	0.250208
H281	H	1.434339	0.008261	0.583542
H282	H	1.767672	0.341595	0.916875
F283	F	0.825736	-0.039069	0.062766
F284	F	1.159069	0.294264	0.396099
F285	F	1.492402	0.627597	0.729432
H286	H	1.101063	-0.444334	0.250213
H287	H	1.434396	-0.111000	0.583546
H288	H	1.767730	0.222333	0.916879
H289	H	1.241915	-0.737250	0.038568
H290	H	1.575248	-0.403917	0.371901
H291	H	1.908581	-0.070583	0.705235
H292	H	1.241985	-0.856498	0.038593
H293	H	1.575318	-0.523165	0.371926
H294	H	1.908651	-0.189832	0.705259
F295	F	1.091569	-0.852563	0.264854
F296	F	1.424903	-0.519230	0.598188
F297	F	1.758236	-0.185896	0.931521
H298	H	1.347460	0.077377	0.560366
H299	H	1.680793	0.410710	0.893700
H300	H	2.014126	0.744043	1.227033
F301	F	1.127789	-0.132855	0.444545
F302	F	1.461123	0.200478	0.777879
F303	F	1.794456	0.533811	1.111212
H304	H	1.020237	-0.235768	0.600373
H305	H	1.353570	0.097565	0.933706
H306	H	1.686903	0.430898	1.267039
F307	F	1.328449	0.059183	0.404105
F308	F	1.661782	0.392517	0.737439
F309	F	1.995115	0.725850	1.070772
F310	F	0.471625	-0.118924	0.187990
F311	F	0.804958	0.214409	0.521324
F312	F	1.138291	0.547743	0.854657
F313	F	0.981592	-0.272772	0.721659
F314	F	1.314926	0.060561	1.054993
F315	F	1.648259	0.393894	1.388326
