data_functionalizedCrystal
_audit_creation_method	'MofGen! by Chris Wilmer'
_symmetry_space_group_name_H-M	'P1'
_symmetry_Int_Tables_number	1
_symmetry_cell_setting	triclinic
loop_
_symmetry_equiv_pos_as_xyz
  x,y,z
_cell_length_a	18.101398
_cell_length_b	18.050589
_cell_length_c	18.101389
_cell_angle_alpha	90.014016
_cell_angle_beta	90.024327
_cell_angle_gamma	90.023488
loop_
_atom_site_label
_atom_site_type_symbol
_atom_site_fract_x
_atom_site_fract_y
_atom_site_fract_z
Zn1	Zn	1.132136	-0.295831	0.418861
Zn2	Zn	1.132038	-0.420005	0.295029
Zn3	Zn	1.008295	-0.295823	0.295023
Zn4	Zn	1.008252	-0.419974	0.418818
O5	O	1.070180	-0.357908	0.356933
O6	O	1.235756	-0.312320	0.402456
O7	O	1.115600	-0.403542	0.191396
O8	O	1.024782	-0.191900	0.311465
O9	O	1.235684	-0.403550	0.311477
O10	O	1.115767	-0.191905	0.402449
O11	O	1.024687	-0.312306	0.191391
O12	O	0.904656	-0.312276	0.311423
O13	O	1.024708	-0.403496	0.522457
O14	O	0.904625	-0.403488	0.402375
O15	O	1.115725	-0.312289	0.522489
O16	O	1.115558	-0.523926	0.311435
O17	O	1.024613	-0.523902	0.402382
C18	C	0.877770	-0.357878	0.356894
C19	C	0.795455	-0.357883	0.356895
C20	C	0.496364	-0.357930	0.356957
C21	C	0.527685	-0.300254	0.300012
C22	C	0.613303	-0.300409	0.299769
C23	C	0.644747	-0.357906	0.356927
C24	C	0.613633	-0.436133	0.335608
C25	C	0.527988	-0.435813	0.335212
C26	C	0.527978	-0.338057	0.435355
C27	C	0.613629	-0.336315	0.434927
C28	C	0.728606	-0.357897	0.356910
C29	C	0.412505	-0.357943	0.356972
C30	C	1.070091	-0.550860	0.356921
C31	C	1.070120	-0.633406	0.356940
C32	C	1.020713	-0.832871	0.406380
C33	C	1.002661	-0.882299	0.338801
C34	C	1.070193	-0.784537	0.356950
C35	C	1.088281	-0.882191	0.424536
C36	C	1.070262	-0.930522	0.356965
C37	C	1.052106	-0.832877	0.289335
C38	C	1.137757	-0.832765	0.375116
C39	C	1.119731	-0.882170	0.307491
C40	C	1.070151	-0.700438	0.356942
C41	C	1.070304	-1.014618	0.356965
C42	C	1.263342	-0.357939	0.356972
C43	C	1.345656	-0.357952	0.356989
C44	C	1.070223	-0.357890	0.550095
C45	C	1.070241	-0.357882	0.632409
C46	C	1.070290	-0.164203	0.356961
C47	C	1.070337	-0.081657	0.356974
C48	C	1.070180	-0.357873	0.164522
C49	C	1.070305	-0.357672	0.082209
C50	C	1.070284	-0.357742	0.931500
C51	C	1.012822	-0.414945	0.900155
C52	C	1.012977	-0.415210	0.814536
C53	C	1.070262	-0.357811	0.783117
C54	C	1.148289	-0.379062	0.814225
C55	C	1.147969	-0.379437	0.899870
C56	C	1.050399	-0.279163	0.899918
C57	C	1.048663	-0.279616	0.814267
C58	C	1.070255	-0.357849	0.699258
C59	C	1.070297	-0.357706	1.015360
H60	H	0.507977	-0.452667	0.277900
H61	H	0.955117	-0.401912	0.793503
O62	O	0.927016	-0.911119	0.318448
H63	H	0.931035	-0.944947	0.267396
O64	O	1.213407	-0.803919	0.395394
H65	H	1.254536	-0.824564	0.354863
O66	O	1.108517	-0.910882	0.500237
H67	H	1.067326	-0.891137	0.541150
H68	H	0.507268	-0.480240	0.374880
H69	H	0.506136	-0.313242	0.242258
H70	H	1.036768	-0.811305	0.232168
O71	O	1.206527	-0.325612	0.787269
H72	H	1.261114	-0.341853	0.810032
O73	O	0.640608	-0.494588	0.388821
H74	H	0.676566	-0.468442	0.431126
O75	O	1.175201	-0.910670	0.252073
H76	H	1.160041	-0.890812	0.196056
H77	H	0.954788	-0.401782	0.920740
H78	H	1.192234	-0.339582	0.920607
H79	H	1.165437	-0.435894	0.792787
O80	O	1.030006	-0.491624	0.928701
H81	H	1.079301	-0.489173	0.965111
H82	H	0.994491	-0.259803	0.921503
O83	O	0.640408	-0.317774	0.222814
H84	H	0.592343	-0.326107	0.185631
O85	O	1.030271	-0.492382	0.787400
H86	H	1.038580	-0.529653	0.835450
H87	H	0.991242	-0.263592	0.793934
H88	H	0.507112	-0.242068	0.313227
O89	O	1.170285	-0.455527	0.926356
H90	H	1.181200	-0.491710	0.877993
O91	O	0.641987	-0.458851	0.260508
H92	H	0.678229	-0.414557	0.238245
H93	H	0.506403	-0.282008	0.454739
O94	O	1.100057	-0.220159	0.785950
H95	H	1.141989	-0.245527	0.749071
O96	O	1.105830	-0.222702	0.926772
H97	H	1.147344	-0.250424	0.962439
O98	O	0.640570	-0.260062	0.456229
H99	H	0.701859	-0.259918	0.458152
O100	O	0.641170	-0.223563	0.317446
H101	H	0.620863	-0.206683	0.372794
O102	O	0.641966	-0.387924	0.494134
H103	H	0.703187	-0.385028	0.496085
H104	H	0.507724	-0.380066	0.477785
H105	H	0.978808	-0.811224	0.448122
