data_functionalizedCrystal
_audit_creation_method	'MofGen! by Chris Wilmer'
_symmetry_space_group_name_H-M	'P1'
_symmetry_Int_Tables_number	1
_symmetry_cell_setting	triclinic
loop_
_symmetry_equiv_pos_as_xyz
  x,y,z
_cell_length_a	13.897448
_cell_length_b	16.959455
_cell_length_c	16.959447
_cell_angle_alpha	90.014322
_cell_angle_beta	90.029368
_cell_angle_gamma	90.014639
loop_
_atom_site_label
_atom_site_type_symbol
_atom_site_fract_x
_atom_site_fract_y
_atom_site_fract_z
Zn1	Zn	-0.384074	1.208397	0.446914
Zn2	Zn	-0.545393	1.208325	0.314738
Zn3	Zn	-0.384105	1.076225	0.314751
Zn4	Zn	-0.545321	1.076195	0.446876
O5	O	-0.464723	1.142286	0.380820
O6	O	-0.405491	1.318998	0.429390
O7	O	-0.524040	1.190784	0.204128
O8	O	-0.249119	1.093801	0.332305
O9	O	-0.524011	1.318945	0.332281
O10	O	-0.249097	1.190907	0.429404
O11	O	-0.405543	1.093731	0.204139
O12	O	-0.405473	0.965610	0.332268
O13	O	-0.523888	1.093750	0.557492
O14	O	-0.523917	0.965589	0.429340
O15	O	-0.405421	1.190878	0.557520
O16	O	-0.680365	1.190755	0.332244
O17	O	-0.680312	1.093680	0.429326
C18	C	-0.464691	0.936919	0.380802
C19	C	-0.464701	0.849063	0.380813
C20	C	-0.402998	0.477574	0.330380
C21	C	-0.526527	0.477600	0.431305
C22	C	-0.526513	0.560146	0.431300
C23	C	-0.464742	0.601410	0.380834
C24	C	-0.402985	0.560128	0.330372
C25	C	-0.588276	0.601434	0.481754
C26	C	-0.588266	0.683985	0.481751
C27	C	-0.526489	0.725251	0.431288
C28	C	-0.464728	0.683963	0.380825
C29	C	-0.402957	0.725227	0.330359
C30	C	-0.341191	0.683941	0.279900
C31	C	-0.341208	0.601393	0.279909
C32	C	-0.526472	0.807799	0.431279
C33	C	-0.402944	0.807781	0.330351
C34	C	-0.715337	1.142228	0.380797
C35	C	-0.822551	1.142276	0.380814
C36	C	-1.018846	1.142359	0.380863
C37	C	-0.909614	1.142310	0.380838
C38	C	-0.213130	1.142365	0.380860
C39	C	-0.105916	1.142399	0.380877
C40	C	-0.464643	1.142319	0.586988
C41	C	-0.464609	1.142333	0.674845
C42	C	-0.464756	1.348454	0.380838
C43	C	-0.464770	1.436310	0.380846
C44	C	-0.464733	1.142298	0.175454
C45	C	-0.464495	1.142437	0.087597
C46	C	-0.526188	1.091857	1.046309
C47	C	-0.402827	1.192997	1.046333
C48	C	-0.402848	1.192976	0.963787
C49	C	-0.464540	1.142395	0.922498
C50	C	-0.526212	1.091836	0.963755
C51	C	-0.341184	1.243540	0.922523
C52	C	-0.341203	1.243522	0.839972
C53	C	-0.402891	1.192937	0.798682
C54	C	-0.464564	1.142375	0.839944
C55	C	-0.526257	1.091794	0.798655
C56	C	-0.587926	1.041227	0.839916
C57	C	-0.587900	1.041251	0.922465
C58	C	-0.402917	1.192913	0.716134
C59	C	-0.526281	1.091773	0.716102
H60	H	-0.352707	0.443956	0.289300
H61	H	-0.576395	1.050685	1.079907
Br62	Br	-0.610380	0.421599	0.499771
H63	H	-0.576764	0.841410	0.472360
H64	H	-0.352709	1.234086	0.682543
H65	H	-0.290901	0.717549	0.238807
Br66	Br	-0.671590	0.972634	0.978465
H67	H	-0.290987	1.284696	0.806385
H68	H	-0.638559	0.717593	0.522839
H69	H	-0.352606	1.234182	1.079955
Br70	Br	-0.257474	1.312189	0.978560
Br71	Br	-0.671657	0.972592	0.783872
H72	H	-0.352635	0.841372	0.289260
Br73	Br	-0.257389	0.545358	0.211436
Br74	Br	-0.672139	0.545431	0.550210
H75	H	-0.576511	1.050577	0.682490
