data_functionalizedCrystal
_audit_creation_method	'MofGen! by Chris Wilmer'
_symmetry_space_group_name_H-M	'P1'
_symmetry_Int_Tables_number	1
_symmetry_cell_setting	triclinic
loop_
_symmetry_equiv_pos_as_xyz
  x,y,z
_cell_length_a	12.827893
_cell_length_b	13.897448
_cell_length_c	12.827885
_cell_angle_alpha	90.032276
_cell_angle_beta	90.019272
_cell_angle_gamma	90.017663
loop_
_atom_site_label
_atom_site_type_symbol
_atom_site_fract_x
_atom_site_fract_y
_atom_site_fract_z
Zn1	Zn	1.597653	-0.383969	0.590831
Zn2	Zn	2.097653	0.116031	1.090831
Zn3	Zn	1.597540	-0.545295	0.416083
Zn4	Zn	2.097540	-0.045295	0.916083
Zn5	Zn	1.422894	-0.384016	0.416104
Zn6	Zn	1.922894	0.115984	0.916104
Zn7	Zn	1.422873	-0.545224	0.590783
Zn8	Zn	1.922873	-0.045224	1.090783
O9	O	1.510240	-0.464626	0.503450
O10	O	2.010240	0.035374	1.003450
O11	O	1.743874	-0.405380	0.567661
O12	O	2.243874	0.094620	1.067661
O13	O	1.574335	-0.523951	0.269850
O14	O	2.074335	-0.023951	0.769850
O15	O	1.446133	-0.249028	0.439311
O16	O	1.946133	0.250972	0.939311
O17	O	1.743791	-0.523905	0.439275
O18	O	2.243791	-0.023905	0.939275
O19	O	1.574527	-0.248994	0.567681
O20	O	2.074527	0.251006	1.067681
O21	O	1.446023	-0.405460	0.269865
O22	O	1.946023	0.094540	0.769865
O23	O	1.276655	-0.405390	0.439265
O24	O	1.776655	0.094610	0.939265
O25	O	1.446096	-0.523783	0.737026
O26	O	1.946096	-0.023783	1.237026
O27	O	1.276639	-0.523829	0.567601
O28	O	1.776639	-0.023829	1.067601
O29	O	1.574506	-0.405310	0.737060
O30	O	2.074506	0.094690	1.237060
O31	O	1.574314	-0.680267	0.439229
O32	O	2.074314	-0.180267	0.939229
O33	O	1.445986	-0.680215	0.567580
O34	O	1.945986	-0.180215	1.067580
C35	C	1.238730	-0.464607	0.503430
C36	C	1.738730	0.035393	1.003430
C37	C	1.122577	-0.464623	0.503447
C38	C	1.622577	0.035377	1.003447
C39	C	1.070812	-0.523321	0.566853
C40	C	1.570812	-0.023321	1.066853
C41	C	0.950762	-0.523338	0.566872
C42	C	1.450762	-0.023338	1.066872
C43	C	1.510164	-0.715240	0.503420
C44	C	2.010164	-0.215240	1.003420
C45	C	1.510227	-0.822454	0.503442
C46	C	2.010227	-0.322454	1.003442
C47	C	1.510336	-1.018749	0.503508
C48	C	2.010336	-0.518749	1.003508
C49	C	1.510272	-0.909517	0.503474
C50	C	2.010272	-0.409517	1.003474
C51	C	1.782810	-0.464645	0.503471
C52	C	2.282810	0.035355	1.003471
C53	C	1.898963	-0.464654	0.503480
C54	C	2.398963	0.035346	1.003480
C55	C	1.510311	-0.464533	0.776021
C56	C	2.010311	0.035467	1.276021
C57	C	1.510341	-0.464494	0.892174
C58	C	2.010341	0.035506	1.392174
C59	C	1.510345	-0.213033	0.503504
C60	C	2.010345	0.286967	1.003504
C61	C	1.510390	-0.105819	0.503526
C62	C	2.010390	0.394181	1.003526
C63	C	1.510229	-0.464649	0.231940
C64	C	2.010229	0.035351	0.731940
C65	C	1.510401	-0.464416	0.115788
C66	C	2.010401	0.035584	0.615788
C67	C	1.573890	-0.405858	0.943976
C68	C	2.073890	0.094142	1.443976
C69	C	1.573923	-0.405816	1.064026
C70	C	2.073923	0.094184	1.564026
H71	H	0.906245	-0.573595	0.621154
H72	H	1.406245	-0.073595	1.121154
C73	C	1.647360	-0.338083	0.883834
C74	C	2.147360	0.161917	1.383834
H75	H	1.637705	-0.347008	0.811036
H76	H	2.137705	0.152992	1.311036
H77	H	1.632119	-0.273250	0.901681
H78	H	2.132119	0.226750	1.401681
H79	H	1.717592	-0.352194	0.901671
H80	H	2.217592	0.147806	1.401671
H81	H	0.943473	-0.414400	0.449188
H82	H	1.443473	0.085600	0.949188
H83	H	1.628332	-0.355619	1.108575
H84	H	2.128332	0.144381	1.608575
H85	H	1.078018	-0.414377	0.449180
H86	H	1.578018	0.085623	0.949180
C87	C	1.436910	-0.532254	1.055627
C88	C	1.936910	-0.032254	1.555627
H89	H	1.397072	-0.569021	1.103675
H90	H	1.897072	-0.069021	1.603675
H91	H	1.391417	-0.495346	1.013042
H92	H	1.891417	0.004654	1.513042
H93	H	1.476916	-0.574264	1.013053
H94	H	1.976916	-0.074264	1.513053
C95	C	1.130997	-0.591195	0.640173
C96	C	1.630997	-0.091195	1.140173
H97	H	1.203789	-0.582283	0.630538
H98	H	1.703789	-0.082283	1.130538
H99	H	1.113196	-0.577174	0.710432
H100	H	1.613196	-0.077174	1.210432
H101	H	1.113144	-0.656010	0.624768
H102	H	1.613144	-0.156010	1.124768
H103	H	1.455953	-0.514656	0.936701
H104	H	1.955953	-0.014656	1.436701
