data_functionalizedCrystal
_audit_creation_method	'MofGen! by Chris Wilmer'
_symmetry_space_group_name_H-M	'P1'
_symmetry_Int_Tables_number	1
_symmetry_cell_setting	triclinic
loop_
_symmetry_equiv_pos_as_xyz
  x,y,z
_cell_length_a	12.811438
_cell_length_b	12.784890
_cell_length_c	11.295498
_cell_angle_alpha	93.662384
_cell_angle_beta	80.460318
_cell_angle_gamma	78.600071
loop_
_atom_site_label
_atom_site_type_symbol
_atom_site_fract_x
_atom_site_fract_y
_atom_site_fract_z
O1	O	1.399117	0.125115	-0.250105
O2	O	1.899117	0.625115	0.249895
O3	O	1.089505	0.143080	-0.216674
O4	O	1.589505	0.643080	0.283326
O5	O	1.266968	-0.020706	-0.235830
O6	O	1.766968	0.479294	0.264170
O7	O	1.221654	0.288902	-0.230949
O8	O	1.721654	0.788902	0.269051
O9	O	1.251381	-0.006341	-0.036096
O10	O	1.751381	0.493659	0.463904
O11	O	1.073918	0.157446	-0.016941
O12	O	1.573918	0.657446	0.483059
O13	O	1.383530	0.139480	-0.050371
O14	O	1.883530	0.639480	0.449629
Cu15	Cu	1.227301	0.149775	-0.015419
Cu16	Cu	1.727301	0.649775	0.484581
Cu17	Cu	1.245734	0.132786	-0.251626
Cu18	Cu	1.745734	0.632786	0.248374
O19	O	1.206067	0.303267	-0.031216
O20	O	1.706067	0.803267	0.468784
C21	C	1.042356	0.149697	-0.112558
C22	C	1.542356	0.649697	0.387442
C23	C	0.925089	0.147996	-0.099896
C24	C	1.425089	0.647996	0.400104
C25	C	1.262122	-0.053133	-0.136282
C26	C	1.762122	0.446867	0.363718
C27	C	1.270892	-0.171157	-0.137232
C28	C	1.770892	0.328843	0.362768
C29	C	0.751310	0.153430	0.026819
C30	C	1.251310	0.653430	0.526819
C31	C	0.861493	0.155029	0.014927
C32	C	1.361493	0.655029	0.514927
C33	C	0.878495	0.139368	-0.202834
C34	C	1.378495	0.639368	0.297166
C35	C	0.768312	0.137769	-0.190942
C36	C	1.268312	0.637769	0.309058
C37	C	0.704724	0.144799	-0.076112
C38	C	1.204724	0.644799	0.423888
C39	C	0.594542	0.143192	-0.064222
C40	C	1.094542	0.643192	0.435778
C41	C	0.611544	0.127539	-0.281981
C42	C	1.111544	0.627539	0.218019
C43	C	0.721726	0.129138	-0.293873
C44	C	1.221726	0.629138	0.206127
C45	C	1.430680	0.132864	-0.154490
C46	C	1.930680	0.632864	0.345510
C47	C	1.547947	0.134564	-0.167160
C48	C	2.047947	0.634564	0.332840
C49	C	1.380796	-0.350505	-0.149101
C50	C	1.880796	0.149495	0.350899
C51	C	1.372564	-0.239612	-0.148210
C52	C	1.872564	0.260388	0.351790
C53	C	1.177446	-0.213602	-0.127141
C54	C	1.677446	0.286398	0.372859
C55	C	1.185679	-0.324495	-0.128033
C56	C	1.685679	0.175505	0.371967
C57	C	1.287358	-0.392943	-0.139015
C58	C	1.787358	0.107057	0.360985
C59	C	1.295590	-0.503839	-0.139914
C60	C	1.795590	-0.003839	0.360086
C61	C	1.100473	-0.477825	-0.118838
C62	C	1.600473	0.022175	0.381162
C63	C	1.092240	-0.366932	-0.117946
C64	C	1.592240	0.133068	0.382054
C65	C	1.210913	0.335694	-0.130766
C66	C	1.710913	0.835694	0.369234
C67	C	1.202144	0.453717	-0.129824
C68	C	1.702144	0.953717	0.370176
N69	N	1.214344	0.161723	0.150716
N70	N	1.714344	0.661723	0.650716
C71	C	1.351960	0.034777	0.385151
C72	C	1.851960	0.534777	0.885151
C73	C	1.342175	0.043814	0.510871
C74	C	1.842175	0.543814	1.010871
C75	C	1.184985	0.188828	0.527879
C76	C	1.684985	0.688828	1.027879
C77	C	1.194770	0.179791	0.402159
C78	C	1.694770	0.679791	0.902159
C79	C	1.278261	0.102764	0.330799
C80	C	1.778261	0.602764	0.830799
C81	C	1.288050	0.093733	0.205076
C82	C	1.788050	0.593733	0.705076
C83	C	1.130856	0.238741	0.222087
C84	C	1.630856	0.738741	0.722087
C85	C	1.121071	0.247778	0.347806
C86	C	1.621071	0.747778	0.847806
N87	N	1.258691	0.120838	0.582239
N88	N	1.758691	0.620838	1.082239
H89	H	0.542768	0.148924	0.029279
H90	H	1.042768	0.648924	0.529279
H91	H	1.117002	0.251534	0.585996
H92	H	1.617002	0.751534	1.085996
H93	H	0.773513	0.123418	-0.387364
H94	H	1.273513	0.623418	0.112636
H95	H	0.899418	0.162060	0.098744
H96	H	1.399418	0.662060	0.598744
H97	H	1.448651	-0.205065	-0.156421
H98	H	1.948651	0.294935	0.343579
H99	H	0.573601	0.120514	-0.365795
H100	H	1.073601	0.620514	0.134205
H101	H	1.402187	-0.011550	0.555121
H102	H	1.902187	0.488450	1.055121
H103	H	1.024388	-0.512389	-0.110629
H104	H	1.524388	-0.012389	0.389371
H105	H	0.699534	0.159160	0.120318
H106	H	1.199534	0.659160	0.620318
H107	H	1.419948	-0.027935	0.327048
H108	H	1.919948	0.472065	0.827048
H109	H	1.356035	0.031016	0.146976
H110	H	1.856035	0.531016	0.646976
H111	H	1.009456	-0.311187	-0.109001
H112	H	1.509456	0.188813	0.390999
H113	H	1.053092	0.310489	0.405922
H114	H	1.553092	0.810489	0.905922
H115	H	0.930285	0.133654	-0.296323
H116	H	1.430285	0.633654	0.203677
H117	H	1.463589	-0.406239	-0.158058
H118	H	1.963589	0.093761	0.341942
H119	H	1.378383	-0.559569	-0.148863
H120	H	1.878383	-0.059569	0.351137
H121	H	1.094664	-0.157852	-0.118193
H122	H	1.594664	0.342148	0.381807
H123	H	1.070848	0.294104	0.177819
H124	H	1.570848	0.794104	0.677819
