data_functionalizedCrystal
_audit_creation_method	'MofGen! by Chris Wilmer'
_symmetry_space_group_name_H-M	'P1'
_symmetry_Int_Tables_number	1
_symmetry_cell_setting	triclinic
loop_
_symmetry_equiv_pos_as_xyz
  x,y,z
_cell_length_a	21.606444
_cell_length_b	27.440280
_cell_length_c	21.606444
_cell_angle_alpha	90.005497
_cell_angle_beta	59.991153
_cell_angle_gamma	60.001374
loop_
_atom_site_label
_atom_site_type_symbol
_atom_site_fract_x
_atom_site_fract_y
_atom_site_fract_z
Zr1	Zr	0.677443	0.469501	-0.081261
O2	O	0.806589	0.391679	-0.180122
O3	O	0.548308	0.493357	-0.050940
O4	O	0.677444	0.493353	-0.180084
O5	O	0.677449	0.391687	0.050876
O6	O	0.677432	0.573556	-0.180072
O7	O	0.677454	0.391683	-0.050978
O8	O	0.446432	0.573564	0.050944
O9	O	0.908450	0.391679	-0.180139
O10	O	0.601410	0.563387	-0.038017
O11	O	0.601416	0.503535	0.037986
O12	O	0.753457	0.503530	-0.114065
O13	O	0.753462	0.443679	-0.038062
Zr14	Zr	0.677417	0.597422	0.081204
Zr15	Zr	0.677424	0.597415	-0.081241
Zr16	Zr	0.677436	0.469508	0.081184
Zr17	Zr	0.839899	0.469502	-0.081289
Zr18	Zr	0.514962	0.597421	0.081232
O19	O	0.806552	0.573565	0.050883
O20	O	0.806562	0.573556	-0.180093
O21	O	0.806580	0.391688	0.050854
O22	O	0.548271	0.675244	0.180065
O23	O	0.548281	0.675235	-0.050911
O24	O	0.548298	0.493367	0.180036
O25	O	0.677411	0.675236	-0.050933
O26	O	0.677417	0.573570	0.180028
O27	O	0.677429	0.493367	0.180015
O28	O	0.677407	0.675240	0.050921
O29	O	0.908434	0.493354	-0.180123
O30	O	0.446426	0.573569	0.180066
O31	O	0.446411	0.675244	0.180082
O32	O	0.446417	0.675239	0.050960
O33	O	0.908444	0.391684	-0.051017
O34	O	0.908429	0.493359	-0.051001
O35	O	0.601404	0.563393	0.114008
O36	O	0.601398	0.623244	0.038005
O37	O	0.753445	0.563388	-0.038043
O38	O	0.753450	0.503536	0.037960
C39	C	0.474224	0.533461	0.000006
C40	C	0.405257	0.533460	0.000017
C41	C	0.429001	0.489272	-0.056118
C42	C	0.364212	0.489274	-0.056134
C43	C	0.275679	0.533461	-0.000011
C44	C	0.251936	0.577654	0.056128
C45	C	0.316724	0.577655	0.056140
C46	C	-0.009351	0.577654	0.056080
C47	C	-0.074140	0.577649	0.056065
C48	C	0.038137	0.489273	-0.056193
C49	C	0.102925	0.489273	-0.056182
C50	C	0.079176	0.533467	-0.000046
C51	C	0.149429	0.533466	-0.000030
C52	C	0.205427	0.533461	-0.000022
C53	C	0.677454	0.373460	-0.000054
C54	C	0.677462	0.319157	-0.000063
C55	C	0.598049	0.013704	0.039688
C56	C	0.598044	-0.037314	0.039695
O57	O	0.530546	-0.037130	0.073478
N58	N	0.677410	-0.094075	-0.000002
C59	C	0.756786	-0.099818	-0.039701
O60	O	0.824292	-0.152782	-0.073465
C61	C	0.756790	-0.048800	-0.039703
C62	C	0.677419	0.007961	-0.000010
C63	C	0.518685	0.070463	0.079379
C64	C	0.518690	0.121477	0.079371
C65	C	0.598060	0.115734	0.039672
C66	C	0.677424	0.058976	-0.000018
C67	C	0.836165	-0.054543	-0.079398
C68	C	0.836162	-0.003519	-0.079396
C69	C	0.756791	0.053242	-0.039703
C70	C	0.756799	0.104247	-0.039725
N71	N	0.677433	0.161008	-0.000028
C72	C	0.598064	0.166752	0.039671
C73	C	0.756772	-0.206956	-0.039693
C74	C	0.756769	-0.257974	-0.039697
C75	C	0.598027	-0.195466	0.039701
C76	C	0.598031	-0.144449	0.039700
C77	C	0.677406	-0.150195	0.000003
C78	C	0.598080	0.273884	0.039650
C79	C	0.598093	0.324901	0.039636
C80	C	0.756834	0.262389	-0.039758
C81	C	0.756822	0.211377	-0.039748
C82	C	0.677438	0.217129	-0.000038
O83	O	0.824263	0.104109	-0.073488
O84	O	0.530569	0.219718	0.073437
C85	C	0.880637	0.533462	-0.000062
C86	C	0.949604	0.533463	-0.000074
C87	C	0.677439	0.533453	-0.203223
C88	C	0.677442	0.533451	-0.272185
C89	C	0.677407	0.693463	-0.000003
C90	C	0.677398	0.747766	0.000006
C91	C	0.756808	0.502206	-0.344280
C92	C	0.756806	0.502211	-0.409075
C93	C	0.677436	0.533458	-0.401774
C94	C	0.598064	0.564707	-0.329671
C95	C	0.598068	0.564705	-0.264878
C96	C	0.598049	0.564716	-0.590974
C97	C	0.598052	0.564714	-0.655775
C98	C	0.756787	0.502222	-0.735171
C99	C	0.756790	0.502220	-0.670378
C100	C	0.677419	0.533471	-0.598282
C101	C	0.677422	0.533466	-0.528024
C102	C	0.677432	0.533460	-0.472029
C103	C	0.677422	0.533470	0.203166
C104	C	0.677419	0.533472	0.272129
C105	C	0.474200	0.693462	0.000031
C106	C	0.405225	0.747764	0.000051
C107	C	0.474215	0.533469	0.203200
C108	C	0.405246	0.533471	0.272174
C109	C	0.474191	0.693470	0.203226
C110	C	0.405214	0.747775	0.272208
C111	C	0.880670	0.373453	-0.203283
C112	C	0.949647	0.319148	-0.272265
C113	C	0.880661	0.373461	-0.000088
C114	C	0.949635	0.319159	-0.000108
C115	C	0.880646	0.533454	-0.203257
C116	C	0.949615	0.533452	-0.272231
C117	C	0.372840	0.742020	-0.039629
C118	C	0.308041	0.793039	-0.039625
C119	C	0.275622	0.849800	0.000064
C120	C	0.308013	0.855543	0.039745
C121	C	0.372817	0.804525	0.039736
C122	C	0.372850	0.564717	0.344255
C123	C	0.308055	0.564717	0.409069
C124	C	0.275652	0.533474	0.401802
C125	C	0.308054	0.502224	0.329713
C126	C	0.372852	0.502221	0.264901
C127	C	0.372818	0.804525	0.264930
C128	C	0.308015	0.855555	0.329741
C129	C	0.275605	0.849835	0.401828
C130	C	0.308007	0.793079	0.409104
C131	C	0.372813	0.742050	0.344295
C132	C	0.982051	0.262398	-0.264987
C133	C	1.046873	0.211368	-0.329797
C134	C	1.079287	0.217088	-0.401885
C135	C	1.046881	0.273843	-0.409161
C136	C	0.982064	0.324873	-0.344352
C137	C	0.982027	0.324903	0.039565
C138	C	1.046845	0.273884	0.039544
C139	C	1.079266	0.217123	-0.000147
C140	C	1.046871	0.211380	-0.039826
C141	C	0.982059	0.262398	-0.039808
C142	C	0.981998	0.564701	-0.264939
C143	C	1.046793	0.564710	-0.329741
C144	C	1.079210	0.533467	-0.401835
C145	C	1.046821	0.502217	-0.409125
C146	C	0.982022	0.502211	-0.344324
H147	H	0.533439	0.278576	0.071986
H148	H	1.132040	0.175586	-0.000156
H149	H	0.222836	0.891391	0.454594
O150	O	0.441522	0.076126	0.118054
C151	C	0.393243	0.107601	0.195519
H152	H	0.415827	0.135750	0.202002
H153	H	0.320638	0.137945	0.219838
H154	H	0.404224	0.074563	0.227357
H155	H	0.281640	0.901764	0.323802
H156	H	0.222889	0.533482	0.454583
H157	H	0.821421	0.476773	-0.676330
O158	O	1.078417	0.279364	0.078033
C159	C	1.142560	0.222168	0.069529
H160	H	1.170932	0.188340	0.015921
H161	H	1.197057	0.222747	0.064993
H162	H	1.111560	0.209167	0.120793
H163	H	-0.028698	0.613640	0.101789
H164	H	0.281609	0.788431	0.467807
O165	O	0.404284	0.686957	0.351467
C166	C	0.441781	0.680414	0.391420
H167	H	0.412515	0.726346	0.427181
H168	H	0.427552	0.653592	0.429950
H169	H	0.515595	0.656013	0.349438
H170	H	0.297386	0.613637	0.101851
O171	O	0.276648	0.910669	0.078209
C172	C	0.345784	0.917222	0.049056
H173	H	0.400885	0.884916	-0.011439
H174	H	0.321041	0.964951	0.049177
H175	H	0.371330	0.907098	0.085855
H176	H	0.399235	0.695807	-0.071958
O177	O	0.833791	-0.313153	-0.078249
C178	C	0.816781	-0.356957	-0.069721
H179	H	0.748571	-0.337076	-0.055093
H180	H	0.867474	-0.396308	-0.124960
H181	H	0.820543	-0.372910	-0.022216
O182	O	0.276433	0.595121	0.479130
C183	C	0.185627	0.638982	0.519007
H184	H	0.158140	0.625844	0.494280
H185	H	0.152057	0.642771	0.581374
H186	H	0.173256	0.683796	0.513615
H187	H	0.955635	0.371116	0.071891
H188	H	0.533400	-0.098235	0.072028
H189	H	0.399220	0.476779	0.206212
H190	H	0.501086	0.453283	-0.101813
O191	O	0.441643	0.176642	0.117993
C192	C	0.436881	0.208022	0.173697
H193	H	0.505793	0.188541	0.156999
H194	H	0.403277	0.257126	0.178519
H195	H	0.397725	0.203774	0.230616
H196	H	1.073281	0.278494	-0.467862
O197	O	1.078326	0.156208	-0.322816
C198	C	1.062489	0.124823	-0.357912
H199	H	1.054442	0.144293	-0.402080
H200	H	1.120052	0.075718	-0.386685
H201	H	1.000170	0.129077	-0.313354
H202	H	0.955615	0.590143	-0.206243
O203	O	0.521003	-0.189998	0.078261
C204	C	0.538028	-0.247201	0.069735
H205	H	0.606243	-0.281021	0.055101
H206	H	0.487345	-0.246635	0.124976
H207	H	0.534263	-0.260204	0.022235
H208	H	0.281675	0.788351	-0.071938
H209	H	0.821413	-0.211644	-0.072023
H210	H	0.222854	0.891337	0.000065
O211	O	0.276435	0.471940	0.322795
C212	C	0.212304	0.478644	0.395463
H213	H	0.183989	0.520836	0.438415
H214	H	0.157765	0.482246	0.394777
H215	H	0.243299	0.438272	0.411957
H216	H	-0.146231	0.613635	0.101770
H217	H	0.533416	0.590161	-0.649822
O218	O	0.404163	0.810196	0.194966
C219	C	0.361615	0.871232	0.202456
H220	H	0.334985	0.898444	0.260253
H221	H	0.410184	0.878344	0.155925
H222	H	0.305274	0.886263	0.197247
O223	O	0.950703	0.256727	-0.195023
C224	C	0.993205	0.195691	-0.202513
H225	H	1.058888	0.168482	-0.260354
H226	H	1.004380	0.188584	-0.156049
H227	H	0.950715	0.180650	-0.197192
H228	H	0.533440	0.590152	-0.323731
H229	H	1.132065	0.175532	-0.454651
O230	O	0.913345	-0.109628	-0.117959
C231	C	0.983388	-0.103742	-0.153000
H232	H	0.960101	-0.058203	-0.121876
H233	H	1.038891	-0.140325	-0.150862
H234	H	1.007811	-0.107940	-0.214597
O235	O	0.404260	0.595071	0.351460
C236	C	0.361753	0.622652	0.428984
H237	H	0.335047	0.598149	0.463537
H238	H	0.410372	0.620959	0.438004
H239	H	0.305471	0.671152	0.448101
O240	O	1.078187	0.595071	-0.322514
C241	C	1.035669	0.622648	-0.244986
H242	H	1.008975	0.598135	-0.210445
H243	H	1.084278	0.620963	-0.235957
H244	H	0.979377	0.671145	-0.225865
O245	O	0.950652	0.379954	-0.351562
C246	C	0.993180	0.374052	-0.429088
H247	H	1.019898	0.328513	-0.463644
H248	H	0.944572	0.410634	-0.438121
H249	H	1.049456	0.378237	-0.448187
O250	O	1.078434	0.156196	-0.078309
C251	C	1.142595	0.112405	-0.069822
H252	H	1.131942	0.132305	-0.016230
H253	H	1.137346	0.073057	-0.065269
H254	H	1.210378	0.096441	-0.121103
H255	H	1.131973	0.533476	-0.454594
H256	H	0.955688	0.257713	-0.072113
O257	O	1.078442	0.471874	-0.479215
C258	C	1.142566	0.478594	-0.534838
H259	H	1.170881	0.490110	-0.509571
H260	H	1.197107	0.435107	-0.584823
H261	H	1.111564	0.515998	-0.555099
O262	O	0.165949	0.620651	0.110588
C263	C	0.147640	0.677220	0.107060
H264	H	0.198298	0.672115	0.047874
H265	H	0.079568	0.707227	0.119868
H266	H	0.150246	0.698060	0.150586
O267	O	0.950477	0.471882	-0.351278
C268	C	0.886362	0.478546	-0.278630
H269	H	0.857965	0.520758	-0.235656
H270	H	0.831877	0.482084	-0.279350
H271	H	0.917399	0.438185	-0.262138
O272	O	0.387415	0.446225	-0.110606
C273	C	0.437412	0.389706	-0.106973
H274	H	0.422262	0.394888	-0.047742
H275	H	0.420377	0.359628	-0.119817
H276	H	0.510026	0.368899	-0.150422
O277	O	0.188884	0.446321	-0.110775
C278	C	0.195949	0.407310	-0.160316
H279	H	0.133312	0.431114	-0.157648
H280	H	0.253936	0.393047	-0.220700
H281	H	0.206313	0.366226	-0.142662
H282	H	0.057468	0.453290	-0.101904
H283	H	0.821453	0.165159	-0.072079
O284	O	0.520909	0.379994	0.078265
C285	C	0.450858	0.374118	0.113291
H286	H	0.474127	0.328591	0.121144
H287	H	0.395346	0.410719	0.170941
H288	H	0.426454	0.378294	0.076113
O289	O	0.833985	0.256742	-0.078262
C290	C	0.882250	0.225289	-0.049077
H291	H	0.859686	0.197129	-0.020020
H292	H	0.954862	0.194958	-0.097378
H293	H	0.871232	0.258343	-0.006236
O294	O	0.913247	-0.009072	-0.117839
C295	C	0.917988	0.018589	-0.066908
H296	H	0.872940	0.020958	-0.007115
H297	H	0.988184	-0.008472	-0.084120
H298	H	0.896674	0.065647	-0.068305
H299	H	0.399176	0.809210	0.072053
H300	H	0.821440	0.476757	-0.350234
O301	O	0.833881	0.471954	-0.479123
C302	C	0.838620	0.512063	-0.518975
H303	H	0.793575	0.559136	-0.476913
H304	H	0.908817	0.498518	-0.554814
H305	H	0.817302	0.510968	-0.557422
O306	O	0.833869	0.471965	-0.805225
C307	C	0.838607	0.512073	-0.845078
H308	H	0.793564	0.559146	-0.803017
H309	H	0.908804	0.498528	-0.880921
H310	H	0.817285	0.510979	-0.883522
O311	O	0.520999	0.594970	-0.520912
C312	C	0.516261	0.554843	-0.481091
H313	H	0.585180	0.513730	-0.505847
H314	H	0.482641	0.577504	-0.418715
H315	H	0.477130	0.540848	-0.486510
O316	O	0.520893	0.595064	-0.194900
C317	C	0.450838	0.622656	-0.202347
H318	H	0.474104	0.598150	-0.260175
H319	H	0.395330	0.620977	-0.155863
H320	H	0.426429	0.671151	-0.197025
