data_functionalizedCrystal
_audit_creation_method	'MofGen! by Chris Wilmer'
_symmetry_space_group_name_H-M	'P1'
_symmetry_Int_Tables_number	1
_symmetry_cell_setting	triclinic
loop_
_symmetry_equiv_pos_as_xyz
  x,y,z
_cell_length_a	19.805407
_cell_length_b	19.805405
_cell_length_c	19.805399
_cell_angle_alpha	89.970699
_cell_angle_beta	89.980427
_cell_angle_gamma	90.026410
loop_
_atom_site_label
_atom_site_type_symbol
_atom_site_fract_x
_atom_site_fract_y
_atom_site_fract_z
Zn1	Zn	1.034736	-0.269479	-0.382712
Zn2	Zn	1.534736	0.230521	0.117288
Zn3	Zn	1.034651	-0.382667	-0.269520
Zn4	Zn	1.534651	0.117333	0.230480
Zn5	Zn	0.921550	-0.269498	-0.269536
Zn6	Zn	1.421550	0.230502	0.230464
Zn7	Zn	0.921514	-0.382631	-0.382667
Zn8	Zn	1.421514	0.117369	0.117333
O9	O	0.978113	-0.326069	-0.326109
O10	O	1.478113	0.173931	0.173891
O11	O	1.129441	-0.284501	-0.367708
O12	O	1.629441	0.215499	0.132292
O13	O	1.019627	-0.367678	-0.174805
O14	O	1.519627	0.132322	0.325195
O15	O	0.936616	-0.174778	-0.284575
O16	O	1.436616	0.325222	0.215425
O17	O	1.129378	-0.367660	-0.284547
O18	O	1.629378	0.132340	0.215453
O19	O	1.019772	-0.174765	-0.367724
O20	O	1.519772	0.325235	0.132276
O21	O	0.936533	-0.284533	-0.174817
O22	O	1.436533	0.215467	0.325183
O23	O	0.826829	-0.284498	-0.284531
O24	O	1.326829	0.215502	0.215469
O25	O	0.936553	-0.367598	-0.477389
O26	O	1.436553	0.132402	0.022611
O27	O	0.826802	-0.367617	-0.367648
O28	O	1.326802	0.132383	0.132352
O29	O	1.019737	-0.284466	-0.477422
O30	O	1.519737	0.215534	0.022578
O31	O	1.019592	-0.477379	-0.284503
O32	O	1.519592	0.022621	0.215497
O33	O	0.936471	-0.477353	-0.367632
O34	O	1.436471	0.022647	0.132368
C35	C	0.802257	-0.326056	-0.326087
C36	C	1.302257	0.173944	0.173913
C37	C	0.727025	-0.326067	-0.326093
C38	C	1.227025	0.173933	0.173907
C39	C	0.978036	-0.501925	-0.326076
C40	C	1.478036	-0.001925	0.173924
C41	C	0.978066	-0.577157	-0.326084
C42	C	1.478066	-0.077157	0.173916
C43	C	0.691684	-0.369412	-0.369302
C44	C	1.191684	0.130588	0.130698
C45	C	0.620996	-0.369413	-0.369312
C46	C	1.120996	0.130587	0.130688
C47	C	0.585649	-0.326072	-0.326109
C48	C	1.085649	0.173928	0.173891
C49	C	0.620994	-0.282722	-0.282898
C50	C	1.120994	0.217278	0.217102
C51	C	0.691681	-0.282718	-0.282892
C52	C	1.191681	0.217282	0.217108
C53	C	0.335921	-0.282737	-0.282920
C54	C	0.835921	0.217263	0.217080
C55	C	0.265229	-0.282746	-0.282928
C56	C	0.765229	0.217254	0.217072
C57	C	0.265235	-0.369432	-0.369340
C58	C	0.765235	0.130568	0.130660
C59	C	0.335922	-0.369428	-0.369334
C60	C	0.835922	0.130572	0.130666
C61	C	0.371262	-0.326076	-0.326126
C62	C	0.871262	0.173924	0.173874
C63	C	0.447910	-0.326074	-0.326117
C64	C	0.947910	0.173926	0.173883
C65	C	0.509002	-0.326076	-0.326114
C66	C	1.009002	0.173924	0.173886
C67	C	1.021389	-0.612492	-0.282845
C68	C	1.521389	-0.112492	0.217155
C69	C	1.021418	-0.683181	-0.282860
C70	C	1.521418	-0.183181	0.217140
C71	C	0.978119	-0.718532	-0.326111
C72	C	1.478119	-0.218532	0.173889
C73	C	0.934794	-0.683192	-0.369356
C74	C	1.434794	-0.183192	0.130644
C75	C	0.934769	-0.612505	-0.369344
C76	C	1.434769	-0.112505	0.130656
C77	C	0.934894	-0.968265	-0.369406
C78	C	1.434894	-0.468265	0.130594
C79	C	0.934921	-1.038957	-0.369413
C80	C	1.434921	-0.538957	0.130587
C81	C	1.021542	-1.038941	-0.282922
C82	C	1.521542	-0.538941	0.217078
C83	C	1.021517	-0.968254	-0.282910
C84	C	1.521517	-0.468254	0.217090
C85	C	0.978195	-0.932920	-0.326157
C86	C	1.478195	-0.432920	0.173843
C87	C	0.978166	-0.856271	-0.326141
C88	C	1.478166	-0.356271	0.173859
C89	C	0.978145	-0.795179	-0.326124
C90	C	1.478145	-0.295179	0.173876
C91	C	1.154655	-0.326082	-0.326131
C92	C	1.654655	0.173918	0.173869
C93	C	1.229887	-0.326088	-0.326140
C94	C	1.729887	0.173912	0.173860
C95	C	0.978151	-0.326026	-0.502651
C96	C	1.478151	0.173974	-0.002651
C97	C	0.978167	-0.326008	-0.577883
C98	C	1.478167	0.173992	-0.077883
C99	C	0.978207	-0.149526	-0.326156
C100	C	1.478207	0.350474	0.173844
C101	C	0.978248	-0.074294	-0.326177
C102	C	1.478248	0.425706	0.173823
C103	C	1.021481	-0.282719	-0.613246
C104	C	1.521481	0.217281	-0.113246
C105	C	1.021488	-0.282699	-0.683934
C106	C	1.521488	0.217301	-0.183934
C107	C	0.978184	-0.325973	-0.719259
C108	C	1.478184	0.174027	-0.219259
C109	C	0.934864	-0.369264	-0.683892
C110	C	1.434864	0.130736	-0.183892
C111	C	0.934854	-0.369279	-0.613204
C112	C	1.434854	0.130721	-0.113204
C113	C	0.934902	-0.369201	-0.968965
C114	C	1.434902	0.130799	-0.468965
C115	C	0.934917	-0.369183	-1.039657
C116	C	1.434917	0.130817	-0.539657
C117	C	1.021536	-0.282620	-1.039695
C118	C	1.521536	0.217380	-0.539695
C119	C	1.021527	-0.282636	-0.969008
C120	C	1.521527	0.217364	-0.469008
C121	C	0.978205	-0.325924	-0.933647
C122	C	1.478205	0.174076	-0.433647
C123	C	0.978197	-0.325944	-0.856998
C124	C	1.478197	0.174056	-0.356998
C125	C	0.978194	-0.325957	-0.795906
C126	C	1.478194	0.174043	-0.295906
C127	C	0.978114	-0.326062	-0.150253
C128	C	1.478114	0.173938	0.349747
C129	C	0.978229	-0.325890	-0.075021
C130	C	1.478229	0.174110	0.424979
H131	H	0.592225	-0.404709	-0.404496
H132	H	1.092225	0.095291	0.095504
C133	C	0.887280	-0.416784	-1.078517
C134	C	1.387280	0.083216	-0.578517
H135	H	0.893498	-0.410579	-1.125680
H136	H	1.393498	0.089421	-0.625680
H137	H	0.841806	-0.406877	-1.066931
H138	H	1.341806	0.093123	-0.566931
H139	H	0.897161	-0.462267	-1.066920
H140	H	1.397161	0.037733	-0.566920
C141	C	0.887257	-0.416819	-0.930073
C142	C	1.387257	0.083181	-0.430073
H143	H	0.893445	-0.410629	-0.882915
H144	H	1.393445	0.089371	-0.382915
H145	H	0.897140	-0.462294	-0.941648
H146	H	1.397140	0.037706	-0.441648
H147	H	0.841785	-0.406903	-0.941655
H148	H	1.341785	0.093097	-0.441655
H149	H	0.899602	-0.404495	-0.712659
H150	H	1.399602	0.095505	-0.212659
C151	C	0.374785	-0.235063	-0.235382
C152	C	0.874785	0.264937	0.264618
H153	H	0.343608	-0.209261	-0.209647
H154	H	0.843608	0.290739	0.290353
H155	H	0.402386	-0.205600	-0.261316
H156	H	0.902386	0.294400	0.238684
H157	H	0.402333	-0.260924	-0.205841
H158	H	0.902333	0.239076	0.294159
C159	C	0.887210	-0.416897	-0.574303
C160	C	1.387210	0.083103	-0.074303
H161	H	0.893401	-0.410704	-0.527145
H162	H	1.393401	0.089296	-0.027145
H163	H	0.897089	-0.462373	-0.585874
H164	H	1.397089	0.037627	-0.085874
H165	H	0.841738	-0.406978	-0.585882
H166	H	1.341738	0.093022	-0.085882
C167	C	0.730560	-0.417087	-0.416827
C168	C	1.230560	0.082913	0.083173
H169	H	0.699385	-0.442896	-0.442566
H170	H	1.199385	0.057104	0.057434
H171	H	0.758113	-0.446543	-0.390883
H172	H	1.258113	0.053457	0.109117
H173	H	0.758156	-0.391227	-0.446366
H174	H	1.258156	0.108773	0.053634
H175	H	1.056792	-0.247400	-0.940250
H176	H	1.556792	0.252600	-0.440250
C177	C	0.374800	-0.417101	-0.416859
C178	C	0.874800	0.082899	0.083141
H179	H	0.343628	-0.442912	-0.442600
H180	H	0.843628	0.057088	0.057400
H181	H	0.402355	-0.446556	-0.390915
H182	H	0.902355	0.053444	0.109085
H183	H	0.402396	-0.391238	-0.446397
H184	H	0.902396	0.108762	0.053603
H185	H	0.236454	-0.404729	-0.404524
H186	H	0.736454	0.095271	0.095476
C187	C	0.226349	-0.235063	-0.235408
C188	C	0.726349	0.264937	0.264592
H189	H	0.257519	-0.209238	-0.209679
H190	H	0.757519	0.290762	0.290321
H191	H	0.198750	-0.260914	-0.205870
H192	H	0.698750	0.239086	0.294130
H193	H	0.198797	-0.205610	-0.261365
H194	H	0.698797	0.294390	0.238635
H195	H	0.720455	-0.247418	-0.247711
H196	H	1.220455	0.252582	0.252289
C197	C	0.582115	-0.235050	-0.235373
C198	C	1.082115	0.264950	0.264627
H199	H	0.534954	-0.241265	-0.241559
H200	H	1.034954	0.258735	0.258441
H201	H	0.593719	-0.189584	-0.245358
H202	H	1.093719	0.310416	0.254642
H203	H	0.593679	-0.244902	-0.189876
H204	H	1.093679	0.255098	0.310124
C205	C	1.069019	-0.573611	-0.235268
C206	C	1.569019	-0.073611	0.264732
H207	H	1.094829	-0.604783	-0.209524
H208	H	1.594829	-0.104783	0.290476
H209	H	1.043138	-0.546076	-0.205747
H210	H	1.543138	-0.046076	0.294253
H211	H	1.098487	-0.545997	-0.261188
H212	H	1.598487	-0.045997	0.238812
H213	H	1.056809	-0.247370	-1.068495
H214	H	1.556809	0.252630	-0.568495
C215	C	1.069070	-0.722047	-0.235293
C216	C	1.569070	-0.222047	0.264707
H217	H	1.094846	-0.690869	-0.209526
H218	H	1.594846	-0.190869	0.290474
H219	H	1.098558	-0.749580	-0.261213
H220	H	1.598558	-0.249580	0.238787
H221	H	1.043199	-0.749663	-0.205782
H222	H	1.543199	-0.249663	0.294218
H223	H	0.899492	-0.583735	-0.404555
H224	H	1.399492	-0.083735	0.095445
H225	H	1.056773	-0.939473	-0.247688
H226	H	1.556773	-0.439473	0.252312
H227	H	1.056820	-1.067719	-0.247711
H228	H	1.556820	-0.567719	0.252289
C229	C	1.069138	-0.235084	-0.722830
C230	C	1.569138	0.264916	-0.222830
H231	H	1.094933	-0.209321	-0.691668
H232	H	1.594933	0.290679	-0.191668
H233	H	1.043270	-0.205582	-0.750408
H234	H	1.543270	0.294418	-0.250408
H235	H	1.098619	-0.260978	-0.750403
H236	H	1.598619	0.239022	-0.250403
C237	C	0.887296	-1.077843	-0.416998
C238	C	1.387296	-0.577843	0.083002
H239	H	0.861496	-1.046676	-0.442758
H240	H	1.361496	-0.546676	0.057242
H241	H	0.857828	-1.105460	-0.391087
H242	H	1.357828	-0.605460	0.108913
H243	H	0.913190	-1.105376	-0.446515
H244	H	1.413190	-0.605376	0.053485
H245	H	1.056747	-0.247482	-0.584489
H246	H	1.556747	0.252518	-0.084489
H247	H	0.899618	-0.939502	-0.404618
H248	H	1.399618	-0.439502	0.095382
C249	C	0.887165	-0.722077	-0.416930
C250	C	1.387165	-0.222077	0.083070
H251	H	0.893379	-0.769237	-0.410740
H252	H	1.393379	-0.269237	0.089260
H253	H	0.897037	-0.710455	-0.462416
H254	H	1.397037	-0.210455	0.037584
H255	H	0.841689	-0.710534	-0.406974
H256	H	1.341689	-0.210534	0.093026
