data_functionalizedCrystal
_audit_creation_method	'MofGen! by Chris Wilmer'
_symmetry_space_group_name_H-M	'P1'
_symmetry_Int_Tables_number	1
_symmetry_cell_setting	triclinic
loop_
_symmetry_equiv_pos_as_xyz
  x,y,z
_cell_length_a	12.837942
_cell_length_b	12.837943
_cell_length_c	11.892095
_cell_angle_alpha	94.310562
_cell_angle_beta	94.302569
_cell_angle_gamma	85.171060
loop_
_atom_site_label
_atom_site_type_symbol
_atom_site_fract_x
_atom_site_fract_y
_atom_site_fract_z
O1	O	0.266110	-1.408367	-0.093982
O2	O	0.252667	-1.105234	-0.093989
O3	O	0.107822	-1.250078	-0.093979
O4	O	0.410955	-1.263522	-0.093992
O5	O	0.119879	-1.237999	0.094028
O6	O	0.264723	-1.093155	0.094018
O7	O	0.278167	-1.396288	0.094025
Zn8	Zn	0.273359	-1.242803	0.123871
Zn9	Zn	0.257474	-1.258718	-0.123836
O10	O	0.423011	-1.251443	0.094014
C11	C	0.254153	-1.060125	0.000014
C12	C	0.240609	-0.943710	0.000011
C13	C	0.074781	-1.239497	0.000024
C14	C	-0.041634	-1.225953	0.000022
C15	C	0.276680	-1.441397	0.000020
C16	C	0.290224	-1.557812	0.000015
C17	C	-0.266509	-1.388784	0.000002
C18	C	-0.375892	-1.376062	-0.000000
C19	C	-0.369784	-1.187791	0.000007
C20	C	-0.260402	-1.200512	0.000009
C21	C	-0.208768	-1.301011	0.000008
C22	C	-0.099383	-1.313731	0.000019
C23	C	-0.093278	-1.125461	0.000018
C24	C	-0.202660	-1.112740	0.000016
C25	C	0.456052	-1.262024	0.000009
C26	C	0.572467	-1.275569	0.000004
N27	N	0.284200	-1.231950	0.292925
C28	C	0.403439	-0.718835	0.000020
C29	C	0.390717	-0.609453	0.000019
C30	C	0.202446	-0.615561	0.000015
C31	C	0.215167	-0.724943	0.000017
C32	C	0.315667	-0.776577	0.000017
C33	C	0.328387	-0.885961	0.000011
C34	C	0.140117	-0.892066	0.000015
C35	C	0.127395	-0.782684	0.000014
N36	N	0.246626	-1.269579	-0.292889
C37	C	0.171130	-1.345098	0.529580
C38	C	0.178716	-1.337519	0.647922
C39	C	0.306952	-1.209210	0.647951
C40	C	0.299366	-1.216788	0.529610
C41	C	0.231454	-1.284736	0.470428
C42	C	0.223874	-1.292319	0.352085
C43	C	0.352104	-1.164005	0.352116
C44	C	0.359690	-1.156426	0.470458
H45	H	-0.224468	-1.470613	0.000012
O46	O	0.029714	-0.732649	-0.000143
C47	C	-0.141306	-0.710608	-0.097597
C48	C	-0.030728	-0.767362	-0.097541
H49	H	-0.190198	-0.738636	-0.176347
H50	H	-0.180265	-0.728592	-0.018975
H51	H	-0.135292	-0.622512	-0.097541
H52	H	-0.036648	-0.855472	-0.097636
H53	H	0.008189	-0.749292	-0.176156
H54	H	0.462191	-0.562444	0.000024
O55	O	0.054780	-0.948036	0.000164
C56	C	-0.095967	-0.980522	0.097589
C57	C	0.000622	-0.917045	0.097554
H58	H	-0.139769	-0.955505	0.176332
H59	H	-0.150000	-0.965551	0.018961
H60	H	-0.069592	-1.067568	0.097531
H61	H	-0.025659	-0.829981	0.097652
H62	H	0.054632	-0.932105	0.176176
H63	H	-0.422901	-1.447536	-0.000009
H64	H	0.362237	-1.153882	0.696151
O65	O	-0.419790	-1.090104	-0.000056
C66	C	-0.402200	-0.904701	-0.000006
C67	C	-0.345438	-1.015273	0.000046
H68	H	-0.342111	-0.844169	0.000100
H69	H	-0.458260	-0.899039	-0.078714
H70	H	-0.448260	-0.889037	0.078647
H71	H	-0.299321	-1.031010	-0.078553
H72	H	-0.289440	-1.020881	0.078806
H73	H	0.115841	-1.400430	0.481394
H74	H	-0.057344	-1.395563	0.000022
O75	O	0.425517	-1.090363	0.528078
C76	C	0.442165	-0.941001	0.661670
C77	C	0.367500	-1.015755	0.596508
H78	H	0.395285	-0.880649	0.716993
H79	H	0.502481	-0.987756	0.717142
H80	H	0.484005	-0.899211	0.599042
H81	H	0.325586	-1.057563	0.659054
H82	H	0.307249	-0.968944	0.541019
O83	O	0.157735	-1.358192	0.294669
C84	C	-0.020536	-1.403867	0.258589
C85	C	0.054263	-1.329180	0.323640
H86	H	-0.104205	-1.380451	0.282005
H87	H	-0.015719	-1.398931	0.163825
H88	H	0.002963	-1.487567	0.281837
H89	H	0.030815	-1.245448	0.300486
H90	H	0.049435	-1.334207	0.418388
O91	O	-0.252788	-1.015112	-0.000183
C92	C	-0.287226	-0.856532	-0.097538
C93	C	-0.230421	-0.967084	-0.097470
H94	H	-0.269145	-0.817660	-0.176174
H95	H	-0.375338	-0.862459	-0.097616
H96	H	-0.259187	-0.807602	-0.018817
H97	H	-0.258373	-1.016074	-0.176178
H98	H	-0.142317	-0.961078	-0.097333
H99	H	-0.046252	-1.053990	0.000033
O100	O	0.410868	-1.105478	0.294710
C101	C	0.584489	-1.064398	0.258582
C102	C	0.518062	-1.130755	0.323642
H103	H	0.671167	-1.084794	0.281968
H104	H	0.567501	-1.081491	0.163820
H105	H	0.563961	-0.977717	0.281854
H106	H	0.538551	-1.217456	0.300465
H107	H	0.535059	-1.113573	0.418389
O108	O	0.104768	-0.565517	-0.000133
C109	C	-0.066258	-0.543447	-0.097569
C110	C	0.044314	-0.600217	-0.097527
H111	H	-0.115160	-0.571464	-0.176315
H112	H	-0.105212	-0.561429	-0.018944
H113	H	-0.060231	-0.455352	-0.097509
H114	H	0.038380	-0.688325	-0.097627
H115	H	0.083227	-0.582149	-0.176146
O116	O	0.119963	-1.396105	0.705260
C117	C	-0.053655	-1.437094	0.741513
C118	C	0.012762	-1.370699	0.676487
H119	H	-0.140340	-1.416562	0.718292
H120	H	-0.033271	-1.523796	0.718205
H121	H	-0.036515	-1.420027	0.836255
H122	H	-0.004342	-1.387676	0.581730
H123	H	-0.007633	-1.284018	0.699888
H124	H	0.410219	-0.928000	0.000013
H125	H	0.485269	-0.760876	0.000019
