data_functionalizedCrystal
_audit_creation_method	'MofGen! by Chris Wilmer'
_symmetry_space_group_name_H-M	'P1'
_symmetry_Int_Tables_number	1
_symmetry_cell_setting	triclinic
loop_
_symmetry_equiv_pos_as_xyz
  x,y,z
_cell_length_a	14.971486
_cell_length_b	14.853567
_cell_length_c	13.448316
_cell_angle_alpha	89.997194
_cell_angle_beta	89.998199
_cell_angle_gamma	83.624529
loop_
_atom_site_label
_atom_site_type_symbol
_atom_site_fract_x
_atom_site_fract_y
_atom_site_fract_z
O1	O	1.186969	0.117488	-0.082569
O2	O	1.686969	0.617488	0.417431
O3	O	0.926571	0.131557	-0.082595
O4	O	1.426571	0.631557	0.417405
O5	O	1.063725	-0.006709	-0.082584
O6	O	1.563725	0.493291	0.417416
O7	O	1.049814	0.255753	-0.082580
O8	O	1.549814	0.755753	0.417420
O9	O	1.063708	-0.006717	0.082800
O10	O	1.563708	0.493283	0.582800
O11	O	0.926554	0.131549	0.082789
O12	O	1.426554	0.631549	0.582789
O13	O	1.186951	0.117479	0.082815
O14	O	1.686951	0.617479	0.582815
Cu15	Cu	1.056751	0.124513	0.097903
Cu16	Cu	1.556751	0.624513	0.597903
Cu17	Cu	1.056771	0.124523	-0.097683
Cu18	Cu	1.556771	0.624523	0.402317
O19	O	1.049797	0.255745	0.082804
O20	O	1.549797	0.755745	0.582804
C21	C	0.893238	0.130924	0.000093
C22	C	1.393238	0.630924	0.500093
C23	C	0.793940	0.129038	0.000083
C24	C	1.293940	0.629038	0.500083
C25	C	0.736730	0.210265	0.000086
C26	C	1.236730	0.710265	0.500086
C27	C	0.643430	0.208488	0.000101
C28	C	1.143430	0.708488	0.500101
C29	C	0.607342	0.125483	0.000106
C30	C	1.107342	0.625483	0.500106
C31	C	0.664560	0.044249	0.000106
C32	C	1.164560	0.544249	0.500106
C33	C	0.757858	0.046027	0.000098
C34	C	1.257858	0.546027	0.500098
C35	C	0.470097	0.040549	0.000119
C36	C	0.970097	0.540549	0.500119
C37	C	0.376793	0.038771	0.000125
C38	C	0.876793	0.538771	0.500125
C39	C	0.355669	0.203010	0.000122
C40	C	0.855669	0.703010	0.500122
C41	C	0.448967	0.204788	0.000114
C42	C	0.948967	0.704788	0.500114
C43	C	0.506178	0.123554	0.000113
C44	C	1.006178	0.623554	0.500113
C45	C	1.063087	-0.040301	0.000105
C46	C	1.563087	0.459699	0.500105
C47	C	1.061198	-0.140385	0.000096
C48	C	1.561198	0.359615	0.500096
C49	C	0.971740	-0.552902	0.000106
C50	C	1.471740	-0.052902	0.500106
C51	C	1.134683	-0.574213	0.000122
C52	C	1.634683	-0.074213	0.500122
C53	C	1.136459	-0.480180	0.000116
C54	C	1.636459	0.019820	0.500116
C55	C	1.055874	-0.422503	0.000107
C56	C	1.555874	0.077497	0.500107
C57	C	0.973514	-0.458860	0.000103
C58	C	1.473514	0.041140	0.500103
C59	C	1.218818	-0.443816	0.000130
C60	C	1.718818	0.056184	0.500130
C61	C	1.220597	-0.349777	0.000126
C62	C	1.720597	0.150223	0.500126
C63	C	1.140012	-0.292099	0.000109
C64	C	1.640012	0.207901	0.500109
C65	C	1.057648	-0.328461	0.000104
C66	C	1.557648	0.171539	0.500104
C67	C	0.977064	-0.270784	0.000095
C68	C	1.477064	0.229216	0.500095
C69	C	0.894699	-0.307144	0.000083
C70	C	1.394699	0.192856	0.500083
C71	C	0.892928	-0.401181	0.000087
C72	C	1.392928	0.098819	0.500087
C73	C	1.141782	-0.198061	0.000105
C74	C	1.641782	0.301939	0.500105
C75	C	0.978837	-0.176741	0.000092
C76	C	1.478837	0.323259	0.500092
C77	C	1.220285	0.118113	0.000124
C78	C	1.720285	0.618113	0.500124
C79	C	1.319582	0.119998	0.000128
C80	C	1.819582	0.619998	0.500128
C81	C	1.050436	0.289338	0.000113
C82	C	1.550436	0.789338	0.500113
C83	C	1.052325	0.389421	0.000115
C84	C	1.552325	0.889421	0.500115
N85	N	1.056743	0.124505	0.235467
N86	N	1.556743	0.624505	0.735467
N87	N	1.056786	0.124524	-0.235247
N88	N	1.556786	0.624524	0.264753
C89	C	1.117494	0.063307	0.287512
C90	C	1.617494	0.563307	0.787512
C91	C	1.117500	0.063306	0.391615
C92	C	1.617500	0.563306	0.891615
C93	C	1.056758	0.124509	0.443672
C94	C	1.556758	0.624509	0.943672
C95	C	0.996001	0.185711	0.391619
C96	C	1.496001	0.685711	0.891619
C97	C	0.995991	0.185707	0.287518
C98	C	1.495991	0.685707	0.787518
C99	C	0.996025	0.185717	0.608599
C100	C	1.496025	0.685717	1.108599
C101	C	0.996036	0.185723	0.712708
C102	C	1.496036	0.685723	1.212708
C103	C	1.117534	0.063316	0.712697
C104	C	1.617534	0.563316	1.212697
C105	C	1.117525	0.063312	0.608595
C106	C	1.617525	0.563312	1.108595
C107	C	1.056768	0.124515	0.556550
C108	C	1.556768	0.624515	1.056550
H109	H	0.766104	0.277858	0.000081
H110	H	1.266104	0.777858	0.500081
H111	H	0.478346	0.272378	0.000101
H112	H	0.978346	0.772378	0.500101
H113	H	1.166967	0.013473	0.433990
H114	H	1.666967	0.513473	0.933990
H115	H	0.825871	-0.430795	0.000078
H116	H	1.325871	0.069205	0.500078
H117	H	0.946539	0.235541	0.434009
H118	H	1.446539	0.735541	0.934009
O119	O	1.183033	-0.002700	0.552442
O120	O	1.683033	0.497300	1.052442
H121	H	1.225276	-0.045265	0.606120
H122	H	1.725276	0.454735	1.106120
O123	O	1.183061	-0.002705	0.768822
O124	O	1.683061	0.497295	1.268822
H125	H	1.172857	0.007569	0.849955
H126	H	1.672857	0.507569	1.349955
O127	O	0.930505	0.251714	0.768861
O128	O	1.430505	0.751714	1.268861
H129	H	0.888242	0.294257	0.715184
H130	H	1.388242	0.794257	1.215184
O131	O	1.183005	-0.002709	0.231366
O132	O	1.683005	0.497291	0.731366
H133	H	1.225243	-0.045271	0.285051
H134	H	1.725243	0.454729	0.785051
H135	H	0.946548	0.235552	0.566228
H136	H	1.446548	0.735552	1.066228
H137	H	1.287664	-0.320181	0.000134
H138	H	1.787664	0.179819	0.500134
O139	O	0.581721	0.296097	0.000104
O140	O	1.081721	0.796097	0.500104
H141	H	0.622489	0.354114	0.000088
H142	H	1.122489	0.854114	0.500088
O143	O	1.230607	-0.158843	0.000121
O144	O	1.730607	0.341157	0.500121
H145	H	1.235319	-0.116506	-0.067285
H146	H	1.735319	0.383494	0.432715
O147	O	1.221593	-0.636420	0.000144
O148	O	1.721593	-0.136420	0.500144
H149	H	1.261014	-0.623484	-0.067256
H150	H	1.761014	-0.123484	0.432744
O151	O	0.891920	-0.114532	0.000091
O152	O	1.391920	0.385468	0.500091
H153	H	0.834355	-0.155617	0.000093
H154	H	1.334355	0.344383	0.500093
O155	O	0.930472	0.251717	0.231375
O156	O	1.430472	0.751717	0.731375
H157	H	0.888242	0.294284	0.285060
H158	H	1.388242	0.794284	0.785060
O159	O	0.882905	-0.592109	0.000105
O160	O	1.382905	-0.092109	0.500105
H161	H	0.895204	-0.667189	0.000116
H162	H	1.395204	-0.167189	0.500116
O163	O	0.819564	-0.041585	0.000101
O164	O	1.319564	0.458415	0.500101
H165	H	0.890503	-0.026405	0.000108
H166	H	1.390503	0.473595	0.500108
O167	O	0.625637	-0.045278	0.000117
O168	O	1.125637	0.454722	0.500117
H169	H	0.681096	-0.101462	0.000125
H170	H	1.181096	0.398538	0.500125
O171	O	0.293970	0.290631	0.000135
O172	O	0.793970	0.790631	0.500135
H173	H	0.223031	0.275454	0.000156
H174	H	0.723031	0.775454	0.500156
O175	O	0.807782	-0.244934	0.000081
O176	O	1.307782	0.255066	0.500081
H177	H	0.804699	-0.201579	-0.067327
H178	H	1.304699	0.298421	0.432673
O179	O	0.337864	-0.050753	0.000149
O180	O	0.837864	0.449247	0.500149
H181	H	0.360835	-0.089803	-0.067248
H182	H	0.860835	0.410197	0.432752
O183	O	0.531809	-0.047065	0.000113
O184	O	1.031809	0.452935	0.500113
H185	H	0.491043	-0.105083	0.000105
H186	H	0.991043	0.394917	0.500105
O187	O	1.305731	-0.506019	0.000155
O188	O	1.805731	-0.006019	0.500155
H189	H	1.290659	-0.577516	0.000146
H190	H	1.790659	-0.077516	0.500146
