data_functionalizedCrystal
_audit_creation_method	'MofGen! by Chris Wilmer'
_symmetry_space_group_name_H-M	'P1'
_symmetry_Int_Tables_number	1
_symmetry_cell_setting	triclinic
loop_
_symmetry_equiv_pos_as_xyz
  x,y,z
_cell_length_a	13.635800
_cell_length_b	7.190410
_cell_length_c	7.076093
_cell_angle_alpha	109.693124
_cell_angle_beta	117.701465
_cell_angle_gamma	60.610675
loop_
_atom_site_label
_atom_site_type_symbol
_atom_site_fract_x
_atom_site_fract_y
_atom_site_fract_z
V1	V	-1.822576	0.291699	0.663495
V2	V	-1.322576	0.791699	1.163495
O3	O	-1.774576	-0.017518	0.652432
O4	O	-1.274576	0.482482	1.152432
O5	O	-1.843293	0.581756	0.657450
O6	O	-1.343293	1.081756	1.157450
O7	O	-1.695243	0.285676	0.953556
O8	O	-1.195243	0.785676	1.453556
O9	O	-1.923650	0.280612	0.354277
O10	O	-1.423650	0.780612	0.854277
V11	V	-2.071933	0.254894	0.626693
V12	V	-1.571933	0.754894	1.126693
O13	O	-1.936543	0.372432	0.744223
O14	O	-1.436543	0.872432	1.244223
O15	O	-2.183065	0.174161	0.545965
O16	O	-1.683065	0.674161	1.045965
O17	O	-1.939613	-0.035163	0.632738
O18	O	-1.439613	0.464837	1.132738
O19	O	-2.178632	0.564111	0.637757
O20	O	-1.678632	1.064111	1.137757
O21	O	-2.029557	0.265981	0.935912
O22	O	-1.529557	0.765981	1.435912
O23	O	-2.087663	0.260917	0.336633
O24	O	-1.587663	0.760917	0.836633
V25	V	-1.322576	0.291699	0.663495
V26	V	-0.822576	0.791699	1.163495
O27	O	-1.274576	-0.017518	0.652432
O28	O	-0.774576	0.482482	1.152432
O29	O	-1.343293	0.581756	0.657450
O30	O	-0.843293	1.081756	1.157450
O31	O	-1.195243	0.285676	0.953556
O32	O	-0.695243	0.785676	1.453556
O33	O	-1.423650	0.280612	0.354277
O34	O	-0.923650	0.780612	0.854277
V35	V	-1.571933	0.254894	0.626693
V36	V	-1.071933	0.754894	1.126693
O37	O	-1.436543	0.372432	0.744223
O38	O	-0.936543	0.872432	1.244223
O39	O	-1.683065	0.174161	0.545965
O40	O	-1.183065	0.674161	1.045965
O41	O	-1.439613	-0.035163	0.632738
O42	O	-0.939613	0.464837	1.132738
O43	O	-1.678632	0.564111	0.637757
O44	O	-1.178632	1.064111	1.137757
O45	O	-1.529557	0.265981	0.935912
O46	O	-1.029557	0.765981	1.435912
O47	O	-1.587663	0.260917	0.336633
O48	O	-1.087663	0.760917	0.836633
C49	C	-1.838017	0.894087	0.643565
C50	C	-1.338017	1.394087	1.143565
C51	C	-1.780054	0.652508	0.646593
C52	C	-1.280054	1.152508	1.146593
C53	C	-1.591210	0.274824	1.024304
C54	C	-1.091210	0.774824	1.524304
C55	C	-1.526852	0.271759	1.265877
C56	C	-1.026852	0.771759	1.765877
C57	C	-2.023369	0.271765	0.265873
C58	C	-1.523369	0.771765	0.765873
C59	C	-2.077151	0.274824	0.024299
C60	C	-1.577151	0.774824	0.524299
C61	C	-1.280062	0.652516	0.646604
C62	C	-0.780062	1.152516	1.146604
C63	C	-1.338024	0.894090	0.643544
C64	C	-0.838024	1.394090	1.143544
