data_functionalizedCrystal
_audit_creation_method	'MofGen! by Chris Wilmer'
_symmetry_space_group_name_H-M	'P1'
_symmetry_Int_Tables_number	1
_symmetry_cell_setting	triclinic
loop_
_symmetry_equiv_pos_as_xyz
  x,y,z
_cell_length_a	15.297979
_cell_length_b	17.077402
_cell_length_c	17.077396
_cell_angle_alpha	89.972568
_cell_angle_beta	99.710038
_cell_angle_gamma	80.315320
loop_
_atom_site_label
_atom_site_type_symbol
_atom_site_fract_x
_atom_site_fract_y
_atom_site_fract_z
Zn1	Zn	1.379361	0.105052	0.651944
Zn2	Zn	1.879361	0.605052	1.151944
Zn3	Zn	1.379251	0.236344	0.520664
Zn4	Zn	1.879251	0.736344	1.020664
Zn5	Zn	1.228479	0.127772	0.497929
Zn6	Zn	1.728479	0.627772	0.997929
Zn7	Zn	1.228438	0.258979	0.629135
Zn8	Zn	1.728438	0.758979	1.129135
O9	O	1.303882	0.182037	0.574918
O10	O	1.803882	0.682037	1.074918
O11	O	1.505607	0.103487	0.653590
O12	O	2.005607	0.603487	1.153590
O13	O	1.359221	0.221977	0.407797
O14	O	1.859221	0.721977	0.907797
O15	O	1.248557	0.014902	0.518391
O16	O	1.748557	0.514902	1.018391
O17	O	1.505526	0.199947	0.557139
O18	O	2.005526	0.699947	1.057139
O19	O	1.359410	-0.001790	0.631545
O20	O	1.859410	0.498210	1.131545
O21	O	1.248449	0.142210	0.391094
O22	O	1.748449	0.642210	0.891094
O23	O	1.102213	0.164158	0.496274
O24	O	1.602213	0.664158	0.996274
O25	O	1.248488	0.238525	0.742012
O26	O	1.748488	0.738525	1.242012
O27	O	1.102183	0.260555	0.592670
O28	O	1.602183	0.760555	1.092670
O29	O	1.359370	0.125436	0.758770
O30	O	1.859370	0.625436	1.258770
O31	O	1.359182	0.349203	0.535022
O32	O	1.859182	0.849203	1.035022
O33	O	1.248380	0.365833	0.614715
O34	O	1.748380	0.865833	1.114715
C35	C	1.069460	0.217279	0.539531
C36	C	1.569460	0.717279	1.039531
C37	C	0.969173	0.232375	0.524410
C38	C	1.469173	0.732375	1.024410
C39	C	0.922015	0.289608	0.467010
C40	C	1.422015	0.789608	0.967010
C41	C	0.827790	0.303793	0.452807
C42	C	1.327790	0.803793	0.952807
C43	C	0.780715	0.260741	0.496000
C44	C	1.280715	0.760741	0.996000
C45	C	0.827873	0.203502	0.553398
C46	C	1.327873	0.703502	1.053398
C47	C	0.922107	0.189320	0.567606
C48	C	1.422107	0.689320	1.067606
C49	C	0.780807	0.160453	0.596596
C50	C	1.280807	0.660453	1.096596
C51	C	0.827965	0.103215	0.653994
C52	C	1.327965	0.603215	1.153994
C53	C	0.922190	0.089035	0.668199
C54	C	1.422190	0.589035	1.168199
C55	C	0.969265	0.132087	0.625007
C56	C	1.469265	0.632087	1.125007
C57	C	0.686573	0.174635	0.582388
C58	C	1.186573	0.674635	1.082388
C59	C	0.686665	0.074348	0.682984
C60	C	1.186665	0.574348	1.182984
C61	C	0.780890	0.060163	0.697187
C62	C	1.280890	0.560163	1.197187
C63	C	1.303789	0.385999	0.574881
C64	C	1.803789	0.885999	1.074881
C65	C	1.303832	0.473242	0.574904
C66	C	1.803832	0.973242	1.074904
C67	C	1.361584	0.505538	0.533472
C68	C	1.861584	1.005538	1.033472
C69	C	1.361626	0.587512	0.533502
C70	C	1.861626	1.087512	1.033502
C71	C	1.303910	0.637190	0.574959
C72	C	1.803910	1.137190	1.074959
C73	C	1.246155	0.604888	0.616397
C74	C	1.746155	1.104888	1.116397
C75	C	1.246119	0.522915	0.616371
C76	C	1.746119	1.022915	1.116371
C77	C	1.246234	0.775746	0.616445
C78	C	1.746234	1.275746	1.116445
C79	C	1.246269	0.857726	0.616470
C80	C	1.746269	1.357726	1.116470
C81	C	1.361741	0.840344	0.533576
C82	C	1.861741	1.340344	1.033576
C83	C	1.361704	0.758371	0.533550
C84	C	1.861704	1.258371	1.033550
C85	C	1.303948	0.726075	0.574987
C86	C	1.803948	1.226075	1.074987
C87	C	1.539220	0.146658	0.610444
C88	C	2.039220	0.646658	1.110444
C89	C	1.639507	0.131581	0.625583
C90	C	2.139507	0.631581	1.125583
C91	C	1.303937	0.181971	0.779671
C92	C	1.803937	0.681971	1.279671
C93	C	1.303960	0.181943	0.866924
C94	C	1.803960	0.681943	1.366924
C95	C	1.303993	0.977276	0.574985
C96	C	1.803993	1.477276	1.074985
C97	C	1.304021	0.890022	0.575038
C98	C	1.804021	1.390022	1.075038
C99	C	1.303880	0.182038	0.370970
C100	C	1.803880	0.682038	0.870970
C101	C	1.304031	0.181819	0.283743
C102	C	1.804031	0.681819	0.783743
C103	C	1.361699	0.123053	0.916642
C104	C	1.861699	0.623053	1.416642
C105	C	1.361710	0.123025	0.998624
C106	C	1.861710	0.623025	1.498624
C107	C	1.303986	0.181891	1.030888
C108	C	1.803986	0.681891	1.530888
C109	C	1.246240	0.240784	0.981163
C110	C	1.746240	0.740784	1.481163
C111	C	1.246226	0.240808	0.899182
C112	C	1.746226	0.740808	1.399182
C113	C	1.246277	0.240732	1.152039
C114	C	1.746277	0.740732	1.652039
C115	C	1.246292	0.240709	1.234026
C116	C	1.746292	0.740709	1.734026
C117	C	1.361761	0.122948	1.251481
C118	C	1.861761	0.622948	1.751481
C119	C	1.361746	0.122972	1.169499
C120	C	1.861746	0.622972	1.669499
C121	C	1.304002	0.181867	1.119781
C122	C	1.804002	0.681867	1.619781
H123	H	1.045990	0.120538	0.636565
H124	H	1.545990	0.620538	1.136565
Cl125	Cl	1.173603	0.667339	0.668520
Cl126	Cl	1.673603	1.167339	1.168520
H127	H	1.199287	0.288642	1.260292
H128	H	1.699287	0.788642	1.760292
H129	H	1.199093	0.496621	0.650110
H130	H	1.699093	0.996621	1.150110
Cl131	Cl	1.173682	0.314771	1.089537
Cl132	Cl	1.673682	0.814771	1.589537
Cl133	Cl	1.434354	0.048911	1.313983
Cl134	Cl	1.934354	0.548911	1.813983
H135	H	1.408755	0.075042	1.143234
H136	H	1.908755	0.575042	1.643234
Cl137	Cl	1.434275	0.049048	0.876091
Cl138	Cl	1.934275	0.549048	1.376091
Cl139	Cl	0.981472	0.017089	0.740368
Cl140	Cl	1.481472	0.517089	1.240368
Cl141	Cl	1.434339	0.049017	1.061129
Cl142	Cl	1.934339	0.549017	1.561129
Cl143	Cl	1.173627	0.735147	0.668539
Cl144	Cl	1.673627	1.235147	1.168539
Cl145	Cl	1.434340	0.880945	0.481476
Cl146	Cl	1.934340	1.380945	0.981476
H147	H	0.819299	0.013558	0.743921
H148	H	1.319299	0.513558	1.243921
Cl149	Cl	1.173669	0.314786	1.021723
Cl150	Cl	1.673669	0.814786	1.521723
Cl151	Cl	0.627491	0.020224	0.737289
Cl152	Cl	1.127491	0.520224	1.237289
H153	H	1.408578	0.465096	0.499708
H154	H	1.908578	0.965096	0.999708
Cl155	Cl	1.173701	0.920178	0.668578
Cl156	Cl	1.673701	1.420178	1.168578
Cl157	Cl	0.627300	0.246590	0.510233
Cl158	Cl	1.127300	0.746590	1.010233
Cl159	Cl	0.662259	0.278574	0.478143
Cl160	Cl	1.162259	0.778574	0.978143
Cl161	Cl	1.173634	0.314843	0.836679
Cl162	Cl	1.673634	0.814843	1.336679
Cl163	Cl	1.434234	0.628109	0.481416
Cl164	Cl	1.934234	1.128109	0.981416
H165	H	0.960352	0.324658	0.431852
H166	H	1.460352	0.824658	0.931852
Cl167	Cl	0.768512	0.375732	0.380638
Cl168	Cl	1.268512	0.875732	0.880638
H169	H	1.408696	0.717924	0.499788
H170	H	1.908696	1.217924	0.999788
