data_functionalizedCrystal
_audit_creation_method	'MofGen! by Chris Wilmer'
_symmetry_space_group_name_H-M	'P1'
_symmetry_Int_Tables_number	1
_symmetry_cell_setting	triclinic
loop_
_symmetry_equiv_pos_as_xyz
  x,y,z
_cell_length_a	15.995350
_cell_length_b	15.995350
_cell_length_c	15.072220
_cell_angle_alpha	89.998899
_cell_angle_beta	89.991149
_cell_angle_gamma	96.507625
loop_
_atom_site_label
_atom_site_type_symbol
_atom_site_fract_x
_atom_site_fract_y
_atom_site_fract_z
O1	O	1.110996	-0.107921	-0.073703
O2	O	0.867221	-0.121249	-0.073721
O3	O	0.995772	0.007303	-0.073710
O4	O	0.982444	-0.236472	-0.073713
O5	O	0.995740	0.007296	0.073855
O6	O	0.867189	-0.121256	0.073844
O7	O	1.110964	-0.107928	0.073862
Zn8	Zn	0.989071	-0.114593	0.097283
Zn9	Zn	0.989113	-0.114584	-0.097141
O10	O	0.982413	-0.236480	0.073852
C11	C	0.836010	-0.120701	0.000060
C12	C	0.743060	-0.119049	0.000053
C13	C	0.995205	0.038494	0.000070
C14	C	0.993553	0.131444	0.000065
C15	C	0.405312	-0.113117	0.000071
C16	C	0.452746	-0.021565	0.000401
C17	C	0.549436	-0.023217	0.000063
C18	C	0.572873	-0.116060	0.000063
C19	C	0.531804	-0.161212	-0.084201
C20	C	0.435168	-0.158912	-0.084266
C21	C	0.434793	-0.160812	0.083543
C22	C	0.531738	-0.160790	0.084651
C23	C	0.667570	-0.117727	0.000055
C24	C	0.310614	-0.111452	0.000073
C25	C	1.142175	-0.108476	0.000080
C26	C	1.235125	-0.110127	0.000081
C27	C	0.982980	-0.267671	0.000069
C28	C	0.984631	-0.360621	0.000069
N29	N	0.989049	-0.114599	0.229971
C30	C	0.987621	0.469192	0.000068
C31	C	0.896069	0.421758	-0.000270
C32	C	0.897721	0.325068	0.000063
C33	C	0.990564	0.301631	0.000066
C34	C	1.035702	0.342705	0.084335
C35	C	1.033402	0.439341	0.084405
C36	C	1.035330	0.439707	-0.083404
C37	C	1.035308	0.342761	-0.084518
C38	C	0.992231	0.206934	0.000068
C39	C	0.985956	0.563890	0.000072
N40	N	0.989142	-0.114571	-0.229830
C41	C	0.989112	-0.114580	0.589173
C42	C	0.920095	-0.183135	0.551560
C43	C	0.920254	-0.183385	0.448735
C44	C	0.989080	-0.114590	0.410969
C45	C	1.076445	-0.133671	0.448266
C46	C	1.076058	-0.134159	0.551124
C47	C	0.971542	-0.026741	0.551272
C48	C	0.969537	-0.027327	0.448409
C49	C	0.989067	-0.114593	0.310255
C50	C	0.989130	-0.114579	0.689886
H51	H	0.577852	0.012275	0.060467
N52	N	0.565958	-0.119443	0.162868
N53	N	0.603614	-0.159271	0.218642
H54	H	0.627776	-0.130067	0.273886
H55	H	0.433165	0.014865	-0.059694
N56	N	1.121265	0.324978	0.088302
N57	N	1.167300	0.352690	0.151157
H58	H	1.227728	0.340166	0.153962
H59	H	1.016540	0.026078	0.422704
N60	N	1.095484	-0.214523	0.581202
N61	N	1.109231	-0.269860	0.526229
H62	H	1.122951	-0.326620	0.547467
N63	N	0.850158	0.444992	-0.076072
N64	N	0.822046	0.390204	-0.130840
H65	H	0.789617	0.406615	-0.184377
H66	H	0.855314	-0.172016	0.423519
H67	H	0.931160	-0.247952	0.577399
H68	H	0.931473	-0.248570	0.424121
N69	N	0.412214	-0.117576	-0.163270
N70	N	0.376580	-0.052124	-0.158031
H71	H	0.360373	-0.022926	-0.213828
N72	N	0.853215	0.289413	-0.075720
N73	N	0.877235	0.311291	-0.152033
H74	H	0.845798	0.286114	-0.205557
H75	H	0.859626	0.441349	0.059819
N76	N	0.584421	0.021602	-0.075844
N77	N	0.662004	0.028172	-0.089285
H78	H	0.686713	0.059828	-0.142898
H79	H	1.100617	0.471588	0.088231
N80	N	0.852876	0.290114	0.075969
N81	N	0.820264	0.337140	0.128868
H82	H	0.788591	0.312455	0.182482
H83	H	1.004325	0.314320	0.147042
N84	N	1.120002	0.479566	-0.084124
N85	N	1.145745	0.525519	-0.147808
H86	H	1.205542	0.553675	-0.148310
H87	H	1.002306	0.315516	-0.146857
H88	H	1.092297	-0.197002	0.422498
N89	N	0.893332	-0.003751	0.583826
N90	N	0.826401	-0.049586	0.568039
H91	H	0.771160	-0.033359	0.591026
H92	H	1.021872	0.024275	0.575595
N93	N	1.142459	-0.073941	0.582322
N94	N	1.199588	-0.097213	0.629774
H95	H	1.246498	-0.054697	0.651797
N96	N	0.888909	-0.009165	0.417844
N97	N	0.824487	-0.057665	0.436617
H98	H	0.767542	-0.044842	0.415026
N99	N	0.997797	0.465490	-0.163523
N100	N	0.935423	0.505915	-0.160073
H101	H	0.908908	0.524126	-0.216653
N102	N	0.551058	-0.245707	0.091059
N103	N	0.589813	-0.268610	0.157151
H104	H	0.603478	-0.328579	0.161674
N105	N	0.567390	-0.121868	-0.162884
N106	N	0.542882	-0.148767	-0.237410
H107	H	0.568013	-0.120976	-0.292980
H108	H	0.854945	-0.171953	0.576317
H109	H	0.414244	-0.130885	0.147414
N110	N	1.120246	0.323501	-0.090928
N111	N	1.143200	0.284777	-0.157026
H112	H	1.203191	0.271176	-0.161552
N113	N	0.549524	-0.246778	-0.088161
N114	N	0.521811	-0.292825	-0.151009
H115	H	0.534327	-0.353256	-0.153807
N116	N	1.142406	-0.072694	0.417575
N117	N	1.125721	-0.014354	0.367751
H118	H	1.172305	0.028713	0.346074
N119	N	0.394934	-0.245484	0.084259
N120	N	0.316488	-0.259425	0.086999
H121	H	0.288333	-0.319222	0.087499
N122	N	0.429542	0.024307	0.076254
N123	N	0.377768	-0.009934	0.130953
H124	H	0.361395	0.022454	0.184542
N125	N	0.394702	-0.243228	-0.089055
N126	N	0.406963	-0.294979	-0.029641
H127	H	0.378386	-0.354526	-0.033027
N128	N	0.992076	0.462289	0.163427
N129	N	0.965129	0.406960	0.218140
H130	H	0.935940	0.423162	0.273951
