data_functionalizedCrystal
_audit_creation_method	'MofGen! by Chris Wilmer'
_symmetry_space_group_name_H-M	'P1'
_symmetry_Int_Tables_number	1
_symmetry_cell_setting	triclinic
loop_
_symmetry_equiv_pos_as_xyz
  x,y,z
_cell_length_a	16.109301
_cell_length_b	15.944551
_cell_length_c	15.186229
_cell_angle_alpha	89.995303
_cell_angle_beta	89.999362
_cell_angle_gamma	83.480109
loop_
_atom_site_label
_atom_site_type_symbol
_atom_site_fract_x
_atom_site_fract_y
_atom_site_fract_z
O1	O	1.103166	0.107966	-0.073175
O2	O	1.603166	0.607966	0.426825
O3	O	0.861108	0.121402	-0.073189
O4	O	1.361108	0.621402	0.426811
O5	O	0.988747	-0.007593	-0.073174
O6	O	1.488747	0.492407	0.426826
O7	O	0.975527	0.236961	-0.073190
O8	O	1.475527	0.736961	0.426810
O9	O	0.988738	-0.007594	0.073284
O10	O	1.488738	0.492406	0.573284
O11	O	0.861099	0.121401	0.073268
O12	O	1.361099	0.621401	0.573268
O13	O	1.103157	0.107964	0.073282
O14	O	1.603157	0.607964	0.573282
Zn15	Zn	0.982127	0.114682	0.096529
Zn16	Zn	1.482127	0.614682	0.596529
Zn17	Zn	0.982138	0.114685	-0.096435
Zn18	Zn	1.482138	0.614685	0.403565
O19	O	0.975518	0.236960	0.073267
O20	O	1.475518	0.736960	0.573267
C21	C	0.830129	0.120857	0.000038
C22	C	1.330129	0.620857	0.500038
C23	C	0.737833	0.119226	0.000033
C24	C	1.237833	0.619226	0.500033
C25	C	0.515584	0.191975	0.000038
C26	C	1.015584	0.691975	0.500038
C27	C	0.428863	0.190435	0.000044
C28	C	0.928863	0.690435	0.500044
C29	C	0.448688	0.037387	0.000050
C30	C	0.948688	0.537387	0.500050
C31	C	0.535407	0.038927	0.000051
C32	C	1.035407	0.538927	0.500051
C33	C	0.568853	0.116224	0.000040
C34	C	1.068853	0.616224	0.500040
C35	C	0.395412	0.113143	0.000045
C36	C	0.895412	0.613143	0.500045
C37	C	0.301386	0.111473	0.000052
C38	C	0.801386	0.611473	0.500052
C39	C	0.662885	0.117894	0.000036
C40	C	1.162885	0.617894	0.500036
C41	C	0.988194	-0.038887	0.000055
C42	C	1.488194	0.461113	0.500055
C43	C	0.986548	-0.132133	0.000056
C44	C	1.486548	0.367867	0.500056
C45	C	0.903499	-0.346962	0.000039
C46	C	1.403499	0.153038	0.500039
C47	C	0.942060	-0.407993	0.072253
C48	C	1.442060	0.092007	0.572253
C49	C	0.983572	-0.302858	0.000049
C50	C	1.483572	0.197142	0.500049
C51	C	0.942087	-0.407975	-0.072142
C52	C	1.442087	0.092025	0.427858
C53	C	0.980691	-0.467769	0.000038
C54	C	1.480691	0.032231	0.500038
C55	C	1.022155	-0.362660	0.072323
C56	C	1.522155	0.137340	0.572323
C57	C	1.022171	-0.362636	-0.072137
C58	C	1.522171	0.137364	0.427863
C59	C	1.060790	-0.423649	0.000095
C60	C	1.560790	0.076351	0.500095
C61	C	0.985229	-0.207856	0.000055
C62	C	1.485229	0.292144	0.500055
C63	C	0.979039	-0.562770	0.000038
C64	C	1.479039	-0.062770	0.500038
C65	C	1.134136	0.108510	0.000054
C66	C	1.634136	0.608510	0.500054
C67	C	1.226432	0.110141	0.000053
C68	C	1.726432	0.610141	0.500053
C69	C	0.976071	0.268254	0.000036
C70	C	1.476071	0.768254	0.500036
C71	C	0.977717	0.361500	0.000030
C72	C	1.477717	0.861500	0.500030
N73	N	0.982125	0.114680	0.228221
N74	N	1.482125	0.614680	0.728221
N75	N	0.982146	0.114680	-0.228128
N76	N	1.482146	0.614680	0.271872
C77	C	1.038663	0.057580	0.453951
C78	C	1.538663	0.557580	0.953951
C79	C	1.038666	0.057578	0.546141
C80	C	1.538666	0.557578	1.046141
C81	C	0.925603	0.171783	0.546136
C82	C	1.425603	0.671783	1.046136
C83	C	0.925597	0.171780	0.453948
C84	C	1.425597	0.671780	0.953948
C85	C	0.982132	0.114680	0.407858
C86	C	1.482132	0.614680	0.907858
C87	C	0.982140	0.114680	0.592236
C88	C	1.482140	0.614680	1.092236
C89	C	0.982143	0.114679	0.692192
C90	C	1.482143	0.614679	1.192192
C91	C	0.982128	0.114680	0.307895
C92	C	1.482128	0.614680	0.807895
H93	H	0.837035	-0.313632	0.000107
H94	H	1.337035	0.186368	0.500107
H95	H	1.056013	-0.342516	-0.133188
H96	H	1.556013	0.157484	0.366812
C97	C	1.099940	-0.004573	0.403979
C98	C	1.599940	0.495427	0.903979
C99	C	1.086415	-0.087104	0.426427
C100	C	1.586415	0.412896	0.926427
C101	C	1.142839	-0.144394	0.380415
C102	C	1.642839	0.355606	0.880415
H103	H	1.155463	0.004443	0.419052
H104	H	1.655463	0.504443	0.919052
H105	H	1.091853	0.003524	0.342460
H106	H	1.591853	0.503524	0.842460
H107	H	1.094509	-0.095198	0.487932
H108	H	1.594509	0.404802	0.987932
H109	H	1.030903	-0.096147	0.411352
H110	H	1.530903	0.403853	0.911352
H111	H	1.134753	-0.136296	0.318896
H112	H	1.634753	0.363704	0.818896
H113	H	1.198359	-0.135370	0.395492
H114	H	1.698359	0.364630	0.895492
H115	H	1.133666	-0.200397	0.395634
H116	H	1.633666	0.299603	0.895634
H117	H	0.385495	0.252119	0.000044
H118	H	0.885495	0.752119	0.500044
C119	C	0.412325	-0.046506	-0.000129
C120	C	0.912325	0.453494	0.499871
C121	C	0.363139	-0.051865	-0.075492
C122	C	0.863139	0.448135	0.424508
C123	C	0.329639	-0.129141	-0.075696
C124	C	0.829639	0.370859	0.424304
H125	H	0.378848	-0.050375	0.050882
H126	H	0.878848	0.449625	0.550882
H127	H	0.456448	-0.091427	-0.000174
H128	H	0.956448	0.408573	0.499826
H129	H	0.319021	-0.006958	-0.075439
H130	H	0.819021	0.493042	0.424561
H131	H	0.396597	-0.048012	-0.126515
H132	H	0.896597	0.451988	0.373485
H133	H	0.373762	-0.174061	-0.075741
H134	H	0.873762	0.325939	0.424259
H135	H	0.296166	-0.133003	-0.024681
H136	H	0.796166	0.366997	0.475319
H137	H	0.296269	-0.132790	-0.126832
H138	H	0.796269	0.367210	0.373168
H139	H	0.908189	-0.428091	0.133301
H140	H	1.408189	0.071909	0.633301
H141	H	1.055990	-0.342682	0.133442
H142	H	1.555990	0.157318	0.633442
H143	H	0.542812	0.254914	0.000036
H144	H	1.042812	0.754914	0.500036
H145	H	0.879558	0.218278	0.416417
H146	H	1.379558	0.718278	0.916417
C147	C	0.593111	-0.043413	0.000008
C148	C	1.093111	0.456587	0.500008
C149	C	0.545262	-0.111436	-0.000014
C150	C	1.045262	0.388564	0.499986
C151	C	0.598389	-0.187296	-0.000062
C152	C	1.098389	0.312704	0.499938
H153	H	0.627369	-0.046113	0.051068
H154	H	1.127369	0.453887	0.551068
H155	H	0.627341	-0.046035	-0.051085
H156	H	1.127341	0.453965	0.448915
H157	H	0.511046	-0.108815	0.051074
H158	H	1.011046	0.391185	0.551074
H159	H	0.511005	-0.108764	-0.051070
H160	H	1.011005	0.391236	0.448930
H161	H	0.632619	-0.189918	-0.051154
H162	H	1.132619	0.310082	0.448846
H163	H	0.632645	-0.189987	0.050999
H164	H	1.132645	0.310013	0.550999
H165	H	0.565931	-0.233458	-0.000085
H166	H	1.065931	0.266542	0.499915
C167	C	1.149554	-0.467731	0.000206
C168	C	1.649554	0.032269	0.500206
C169	C	1.206077	-0.407199	0.000986
C170	C	1.706077	0.092801	0.500986
C171	C	1.287853	-0.447771	0.001110
C172	C	1.787853	0.052229	0.501110
H173	H	1.158340	-0.501674	-0.051084
H174	H	1.658340	-0.001674	0.448916
H175	H	1.157903	-0.502364	0.051064
H176	H	1.657903	-0.002364	0.551064
H177	H	1.197731	-0.372581	-0.049867
H178	H	1.697731	0.127419	0.450133
H179	H	1.197318	-0.373253	0.052273
H180	H	1.697318	0.126747	0.552273
H181	H	1.296202	-0.482404	0.051968
H182	H	1.796202	0.017596	0.551968
H183	H	1.296630	-0.481713	-0.050181
H184	H	1.796630	0.018287	0.449819
H185	H	1.326213	-0.406706	0.001647
H186	H	1.826213	0.093294	0.501647
C187	C	0.896790	-0.434609	-0.153518
C188	C	1.396790	0.065391	0.346482
C189	C	0.814494	-0.395389	-0.153182
C190	C	1.314494	0.104611	0.346818
C191	C	0.772739	-0.419891	-0.228133
C192	C	1.272739	0.080109	0.271867
H193	H	0.896422	-0.494140	-0.153294
H194	H	1.396422	0.005860	0.346706
H195	H	0.924653	-0.418287	-0.204818
H196	H	1.424653	0.081713	0.295182
H197	H	0.786638	-0.411717	-0.101896
H198	H	1.286638	0.088283	0.398104
H199	H	0.814837	-0.335859	-0.153420
H200	H	1.314837	0.164141	0.346580
H201	H	0.800602	-0.403569	-0.279433
H202	H	1.300602	0.096431	0.220567
H203	H	0.772377	-0.479422	-0.227902
H204	H	1.272377	0.020578	0.272098
H205	H	0.716900	-0.393279	-0.227919
H206	H	1.216900	0.106721	0.272081
H207	H	0.879574	0.218274	0.583672
H208	H	1.379574	0.718274	1.083672
C209	C	1.099912	-0.004511	0.596231
C210	C	1.599912	0.495489	1.096231
C211	C	1.055630	-0.055961	0.649145
C212	C	1.555630	0.444039	1.149145
C213	C	1.112023	-0.113178	0.695291
C214	C	1.612023	0.386822	1.195291
H215	H	1.134544	0.025616	0.632261
H216	H	1.634544	0.525616	1.132261
H217	H	1.133567	-0.038565	0.555603
H218	H	1.633567	0.461435	1.055603
H219	H	1.021990	-0.021911	0.689769
H220	H	1.521990	0.478089	1.189769
H221	H	1.021001	-0.086107	0.613137
H222	H	1.521001	0.413893	1.113137
H223	H	1.145678	-0.147232	0.654663
H224	H	1.645678	0.352768	1.154663
H225	H	1.146652	-0.083044	0.731317
H226	H	1.646652	0.416956	1.231317
H227	H	1.081986	-0.148098	0.731193
H228	H	1.581986	0.351902	1.231193
