data_functionalizedCrystal
_audit_creation_method	'MofGen! by Chris Wilmer'
_symmetry_space_group_name_H-M	'P1'
_symmetry_Int_Tables_number	1
_symmetry_cell_setting	triclinic
loop_
_symmetry_equiv_pos_as_xyz
  x,y,z
_cell_length_a	13.033304
_cell_length_b	13.032868
_cell_length_c	13.033288
_cell_angle_alpha	90.885024
_cell_angle_beta	76.656197
_cell_angle_gamma	105.190463
loop_
_atom_site_label
_atom_site_type_symbol
_atom_site_fract_x
_atom_site_fract_y
_atom_site_fract_z
Zn1	Zn	-1.689064	0.098096	0.818281
Zn2	Zn	-1.189064	0.598096	1.318281
Zn3	Zn	-1.643821	0.298255	0.663174
Zn4	Zn	-1.143821	0.798255	1.163174
Zn5	Zn	-1.483167	0.148894	0.623790
Zn6	Zn	-0.983167	0.648894	1.123790
Zn7	Zn	-1.488795	0.298221	0.818142
Zn8	Zn	-0.988795	0.798221	1.318142
O9	O	-1.576211	0.210867	0.730847
O10	O	-1.076211	0.710867	1.230847
O11	O	-1.834109	0.103402	0.814246
O12	O	-1.334109	0.603402	1.314246
O13	O	-1.601220	0.299715	0.511700
O14	O	-1.101220	0.799715	1.011700
O15	O	-1.527058	-0.004105	0.633166
O16	O	-1.027058	0.495895	1.133166
O17	O	-1.800870	0.250458	0.700289
O18	O	-1.300870	0.750458	1.200289
O19	O	-1.678330	-0.041426	0.776057
O20	O	-1.178330	0.458574	1.276057
O21	O	-1.483188	0.189981	0.482765
O22	O	-0.983188	0.689981	0.982765
O23	O	-1.332866	0.189948	0.633031
O24	O	-0.832866	0.689948	1.133031
O25	O	-1.536651	0.250401	0.964410
O26	O	-1.036651	0.750401	1.464410
O27	O	-1.337001	0.299658	0.775821
O28	O	-0.837001	0.799658	1.275821
O29	O	-1.683787	0.103370	0.964512
O30	O	-1.183787	0.603370	1.464512
O31	O	-1.606677	0.444511	0.700155
O32	O	-1.106677	0.944511	1.200155
O33	O	-1.492781	0.444487	0.814009
O34	O	-0.992781	0.944487	1.314009
C35	C	-1.295769	0.250312	0.700138
C36	C	-0.795769	0.750312	1.200138
C37	C	-1.175795	0.267209	0.687028
C38	C	-0.675795	0.767209	1.187028
C39	C	-1.138756	0.202066	0.737676
C40	C	-0.638756	0.702066	1.237676
C41	C	-1.014757	0.219528	0.724128
C42	C	-0.514757	0.719528	1.224128
C43	C	-1.545463	0.482415	0.761367
C44	C	-1.045463	0.982415	1.261367
C45	C	-1.532412	0.598566	0.774469
C46	C	-1.032412	1.098566	1.274469
C47	C	-1.615894	0.171215	1.003442
C48	C	-1.115894	0.671215	1.503442
C49	C	-1.632804	0.154318	1.119606
C50	C	-1.132804	0.654318	1.619606
C51	C	-0.857749	0.171263	0.761668
C52	C	-0.357749	0.671263	1.261668
C53	C	-0.977723	0.154376	0.774783
C54	C	-0.477723	0.654376	1.274783
C55	C	-1.583013	0.650312	0.724032
C56	C	-1.083013	1.150312	1.224032
C57	C	-1.569526	0.770360	0.737572
C58	C	-1.069526	1.270360	1.237572
C59	C	-1.607076	0.938257	0.700218
C60	C	-1.107076	1.438257	1.200218
C61	C	-1.620133	0.822104	0.687128
C62	C	-1.120133	1.322104	1.187128
C63	C	-1.585016	0.202075	1.291407
C64	C	-1.085016	0.702075	1.791407
C65	C	-1.567536	0.219540	1.171345
C66	C	-1.067536	0.719540	1.671345
C67	C	-1.536672	0.250389	1.459314
C68	C	-1.036672	0.750389	1.959314
C69	C	-1.519757	0.267289	1.343149
C70	C	-1.019757	0.767289	1.843149
H71	H	-1.037808	0.085667	0.828173
H72	H	-0.537808	0.585667	1.328173
H73	H	-1.701623	0.085554	1.164188
H74	H	-1.201623	0.585554	1.664188
H75	H	-1.516221	0.814928	0.790786
H76	H	-1.016221	1.314928	1.290786
H77	H	-1.115705	0.335906	0.633634
H78	H	-0.615705	0.835906	1.133634
H79	H	-1.450949	0.336053	1.298564
H80	H	-0.950949	0.836053	1.798564
H81	H	-1.673448	0.777535	0.633922
H82	H	-1.173448	1.277535	1.133922
H83	H	-1.198845	0.133364	0.791064
H84	H	-0.698845	0.633364	1.291064
H85	H	-1.636324	0.605741	0.670829
H86	H	-1.136324	1.105741	1.170829
H87	H	-1.479111	0.643138	0.827680
H88	H	-0.979111	1.143138	1.327680
H89	H	-1.653831	0.133318	1.335995
H90	H	-1.153831	0.633318	1.835995
H91	H	-0.954670	0.288229	0.670730
H92	H	-0.454670	0.788229	1.170730
H93	H	-1.498723	0.288309	1.126764
H94	H	-0.998723	0.788309	1.626764
