data_functionalizedCrystal
_audit_creation_method	'MofGen! by Chris Wilmer'
_symmetry_space_group_name_H-M	'P1'
_symmetry_Int_Tables_number	1
_symmetry_cell_setting	triclinic
loop_
_symmetry_equiv_pos_as_xyz
  x,y,z
_cell_length_a	15.995350
_cell_length_b	8.140239
_cell_length_c	9.065218
_cell_angle_alpha	90.001330
_cell_angle_beta	95.745870
_cell_angle_gamma	90.002179
loop_
_atom_site_label
_atom_site_type_symbol
_atom_site_fract_x
_atom_site_fract_y
_atom_site_fract_z
O1	O	-1.112424	0.136467	0.190159
O2	O	-0.612424	0.636467	0.690159
O3	O	-0.868827	0.136500	0.213642
O4	O	-0.368827	0.636500	0.713642
O5	O	-0.995661	0.136480	-0.012860
O6	O	-0.495661	0.636480	0.487140
O7	O	-0.985590	0.136488	0.416662
O8	O	-0.485590	0.636488	0.916662
O9	O	-0.995657	-0.136747	-0.012862
O10	O	-0.495657	0.363253	0.487138
O11	O	-0.868823	-0.136727	0.213640
O12	O	-0.368823	0.363273	0.713640
O13	O	-1.112420	-0.136760	0.190158
O14	O	-0.612420	0.363240	0.690158
Zn15	Zn	-0.990621	-0.180124	0.201899
Zn16	Zn	-0.490621	0.319876	0.701899
Zn17	Zn	-0.990626	0.179865	0.201901
Zn18	Zn	-0.490626	0.679865	0.701901
O19	O	-0.985586	-0.136739	0.416660
O20	O	-0.485586	0.363261	0.916660
C21	C	-0.837623	-0.000109	0.212670
C22	C	-0.337623	0.499891	0.712670
C23	C	-0.744650	-0.000096	0.209760
C24	C	-0.244650	0.499904	0.709760
C25	C	-1.143624	-0.000147	0.191129
C26	C	-0.643624	0.499853	0.691129
C27	C	-1.236597	-0.000149	0.194040
C28	C	-0.736597	0.499851	0.694040
C29	C	-0.994691	-0.000131	-0.067825
C30	C	-0.494691	0.499869	0.432175
C31	C	-0.991797	-0.000123	-0.231600
C32	C	-0.491797	0.499877	0.268400
C33	C	-0.406824	-0.000130	0.199308
C34	C	0.093176	0.499870	0.699308
C35	C	-0.453034	-0.000743	0.037997
C36	C	0.046966	0.499257	0.537997
C37	C	-0.549747	-0.000116	0.040908
C38	C	-0.049747	0.499884	0.540908
C39	C	-0.574423	-0.000114	0.204492
C40	C	-0.074423	0.499886	0.704492
C41	C	-0.533942	0.155907	0.284057
C42	C	-0.033942	0.655907	0.784057
C43	C	-0.437276	0.156026	0.280005
C44	C	0.062724	0.656026	0.780005
C45	C	-0.436957	-0.154684	0.283336
C46	C	0.063043	0.345316	0.783336
C47	C	-0.533902	-0.156735	0.283298
C48	C	-0.033902	0.343265	0.783298
C49	C	-0.669143	-0.000100	0.207431
C50	C	-0.169143	0.499900	0.707431
C51	C	-0.312103	-0.000134	0.196374
C52	C	0.187897	0.499866	0.696374
N53	N	-0.990623	-0.425806	0.201897
N54	N	-0.490623	0.074194	0.701897
N55	N	-0.990630	0.425547	0.201892
N56	N	-0.490630	0.925547	0.701892
C57	C	-0.986556	-0.000125	0.471625
C58	C	-0.486556	0.499875	0.971625
C59	C	-0.989450	-0.000122	0.635400
C60	C	-0.489450	0.499878	1.135400
H61	H	-0.577699	-0.111958	-0.021634
H62	H	-0.077699	0.388042	0.478366
H63	H	-0.405925	0.163107	0.398436
H64	H	0.094075	0.663107	0.898436
H65	H	-0.418529	0.272654	0.221984
H66	H	0.081471	0.772654	0.721984
F67	F	-0.409595	-0.309261	0.214401
F68	F	0.090405	0.190739	0.714401
F69	F	-0.428179	-0.146991	-0.046284
F70	F	0.071821	0.353009	0.453716
H71	H	-0.548978	0.161709	0.404238
H72	H	-0.048978	0.661709	0.904238
F73	F	-0.426786	0.144685	-0.045903
F74	F	0.073214	0.644685	0.454097
F75	F	-0.585518	0.146555	-0.041056
F76	F	-0.085518	0.646555	0.458944
F77	F	-0.396623	-0.156064	0.438790
F78	F	0.103377	0.343936	0.938790
F79	F	-0.570481	0.307678	0.211829
F80	F	-0.070481	0.807678	0.711829
H81	H	-0.560777	-0.272159	0.225216
H82	H	-0.060777	0.227841	0.725216
F83	F	-0.555162	-0.169051	0.439224
F84	F	-0.055162	0.330949	0.939224
