data_functionalizedCrystal
_audit_creation_method	'MofGen! by Chris Wilmer'
_symmetry_space_group_name_H-M	'P1'
_symmetry_Int_Tables_number	1
_symmetry_cell_setting	triclinic
loop_
_symmetry_equiv_pos_as_xyz
  x,y,z
_cell_length_a	21.395362
_cell_length_b	12.594516
_cell_length_c	12.594509
_cell_angle_alpha	90.026199
_cell_angle_beta	90.040404
_cell_angle_gamma	90.031933
loop_
_atom_site_label
_atom_site_type_symbol
_atom_site_fract_x
_atom_site_fract_y
_atom_site_fract_z
Zn1	Zn	0.957901	-0.423259	0.602417
Zn2	Zn	0.957837	-0.601269	0.424445
Zn3	Zn	0.853123	-0.423354	0.424387
Zn4	Zn	0.853112	-0.601245	0.602316
O5	O	0.905493	-0.512282	0.513391
O6	O	1.045571	-0.446842	0.578876
O7	O	0.943924	-0.577718	0.275491
O8	O	0.867053	-0.274396	0.448021
O9	O	1.045524	-0.577626	0.448120
O10	O	0.944034	-0.274326	0.578819
O11	O	0.866991	-0.447005	0.275448
O12	O	0.765444	-0.446982	0.447922
O13	O	0.867035	-0.577585	0.751275
O14	O	0.765436	-0.577677	0.578646
O15	O	0.944023	-0.446819	0.751350
O16	O	0.943914	-0.750212	0.448022
O17	O	0.866973	-0.750194	0.578703
C18	C	0.742706	-0.512338	0.513268
C19	C	0.673065	-0.512388	0.513240
C20	C	0.640364	-0.580531	0.581206
C21	C	0.574928	-0.580505	0.581253
C22	C	0.542196	-0.512347	0.513316
C23	C	0.574905	-0.444190	0.445345
C24	C	0.640339	-0.444211	0.445307
C25	C	0.438474	-0.503797	0.417494
C26	C	0.373041	-0.503784	0.417531
C27	C	0.340376	-0.512277	0.513433
C28	C	0.373151	-0.520806	0.609303
C29	C	0.438585	-0.520827	0.609265
C30	C	0.471244	-0.512316	0.513350
C31	C	0.236722	-0.580396	0.581456
C32	C	0.171286	-0.580362	0.581506
C33	C	0.171263	-0.444053	0.445588
C34	C	0.236699	-0.444081	0.445548
C35	C	0.269424	-0.512258	0.513481
C36	C	0.905452	-0.788823	0.513381
C37	C	0.905492	-0.907128	0.513412
C38	C	0.863640	-0.976410	0.584439
C39	C	0.848374	-1.047283	0.487307
C40	C	0.920815	-1.047055	0.610560
C41	C	0.890196	-0.976443	0.416228
C42	C	0.962664	-0.976208	0.539547
C43	C	0.947420	-1.047048	0.442348
C44	C	1.068917	-0.512226	0.513516
C45	C	1.138558	-0.512202	0.513569
C46	C	0.905535	-0.512189	0.791012
C47	C	0.905553	-0.512149	0.909318
C48	C	0.905552	-0.234661	0.513425
C49	C	0.905577	-0.116355	0.513439
C50	C	0.905488	-0.512298	0.236850
C51	C	0.905591	-0.512038	0.118545
C52	C	0.863693	-0.583232	0.978530
C53	C	0.920863	-0.609211	1.049354
C54	C	0.848427	-0.486105	1.049293
C55	C	0.962754	-0.538179	0.978583
C56	C	0.890279	-0.415028	0.978516
C57	C	0.947489	-0.440970	1.049308
H58	H	0.346557	-0.527720	0.687396
H59	H	1.010962	-0.944969	0.561676
H60	H	0.828320	-0.643438	0.947455
H61	H	0.144614	-0.388552	0.390277
O62	O	0.790746	-1.084659	0.461087
C63	C	0.702199	-1.189972	0.514841
C64	C	0.767465	-1.147744	0.544649
H65	H	0.683351	-1.240967	0.582394
H66	H	0.705620	-1.239874	0.439528
H67	H	0.669287	-1.120264	0.500557
H68	H	0.800412	-1.217388	0.558989
H69	H	0.763994	-1.097810	0.619934
H70	H	0.263369	-0.635904	0.636777
H71	H	0.800101	-0.464124	1.080355
H72	H	0.548250	-0.388693	0.390032
H73	H	0.877323	-0.332966	0.947377
H74	H	0.144662	-0.635851	0.636858
O75	O	0.989616	-1.083779	0.370483
C76	C	1.021185	-1.089226	0.186942
C77	C	0.973350	-1.047576	0.268215
H78	H	1.008059	-1.059955	0.104244
H79	H	1.021202	-1.179739	0.187877
H80	H	1.069739	-1.058755	0.208559
H81	H	0.924772	-1.077969	0.246655
H82	H	0.973387	-0.957064	0.267266
H83	H	0.933803	-0.691296	1.080469
H84	H	1.011095	-0.560253	0.947652
H85	H	0.933741	-1.078072	0.692707
H86	H	0.263324	-0.388597	0.390198
O87	O	0.989871	-0.369320	1.086108
C88	C	1.097966	-0.315758	1.091584
C89	C	1.050036	-0.396984	1.049855
H90	H	1.146618	-0.338082	1.062272
H91	H	1.097439	-0.315742	1.182098
H92	H	1.085312	-0.233262	1.061215
H93	H	1.062656	-0.479519	1.080146
H94	H	1.050572	-0.396906	0.959342
O95	O	0.341302	-0.495445	0.324318
C96	C	0.348100	-0.478608	0.134098
C97	C	0.384119	-0.488022	0.239589
H98	H	0.382701	-0.472626	0.065565
H99	H	0.317514	-0.404535	0.135825
H100	H	0.317410	-0.551777	0.122806
H101	H	0.414842	-0.414909	0.250947
H102	H	0.414665	-0.562139	0.237813
H103	H	0.465064	-0.496876	0.339394
H104	H	0.667005	-0.636045	0.636524
O105	O	0.543251	-0.646798	0.647317
C106	C	0.550174	-0.781950	0.782171
C107	C	0.586123	-0.706951	0.707388
H108	H	0.584820	-0.830587	0.830774
H109	H	0.519499	-0.837604	0.733282
H110	H	0.519579	-0.733117	0.837877
H111	H	0.616751	-0.755698	0.651667
H112	H	0.616758	-0.651294	0.756344
H113	H	0.666964	-0.388717	0.389961
O114	O	0.821384	-0.939526	0.656126
C115	C	0.789092	-0.935062	0.839329
C116	C	0.836983	-0.976927	0.758260
H117	H	0.801694	-0.965265	0.921926
H118	H	0.740395	-0.964301	0.816944
H119	H	0.789757	-0.844551	0.839136
H120	H	0.836374	-1.067435	0.758411
H121	H	0.885658	-0.947607	0.780674
O122	O	0.874618	-0.939730	0.318192
C123	C	0.796975	-0.935032	0.179588
C124	C	0.814546	-0.976703	0.290606
H125	H	0.748400	-0.964890	0.157260
H126	H	0.832426	-0.964763	0.118947
H127	H	0.797078	-0.844518	0.180402
H128	H	0.814436	-1.067214	0.289897
H129	H	0.779091	-0.946891	0.351200
H130	H	0.465269	-0.527768	0.687325
