data_functionalizedCrystal
_audit_creation_method	'MofGen! by Chris Wilmer'
_symmetry_space_group_name_H-M	'P1'
_symmetry_Int_Tables_number	1
_symmetry_cell_setting	triclinic
loop_
_symmetry_equiv_pos_as_xyz
  x,y,z
_cell_length_a	15.297328
_cell_length_b	15.298708
_cell_length_c	15.299448
_cell_angle_alpha	91.589441
_cell_angle_beta	91.593244
_cell_angle_gamma	107.408256
loop_
_atom_site_label
_atom_site_type_symbol
_atom_site_fract_x
_atom_site_fract_y
_atom_site_fract_z
Zn1	Zn	-0.065912	1.415675	-0.276902
Zn2	Zn	-0.244763	1.365335	-0.165662
Zn3	Zn	-0.116189	1.236845	-0.165645
Zn4	Zn	-0.236048	1.245500	-0.335680
O5	O	-0.165728	1.315839	-0.235972
O6	O	-0.072242	1.533989	-0.237554
O7	O	-0.252396	1.323601	-0.047945
O8	O	0.015492	1.278012	-0.155799
O9	O	-0.203644	1.497005	-0.155826
O10	O	0.052431	1.409398	-0.237539
O11	O	-0.157933	1.229200	-0.047933
O12	O	-0.149483	1.113001	-0.212793
O13	O	-0.188791	1.292764	-0.445598
O14	O	-0.237543	1.119360	-0.337716
O15	O	-0.063792	1.417790	-0.402414
O16	O	-0.368619	1.331994	-0.212820
O17	O	-0.362216	1.243952	-0.337732
C18	C	-0.198024	1.083772	-0.281632
C19	C	-0.211857	0.984493	-0.301189
C20	C	-0.067038	0.691424	-0.096444
C21	C	-0.054036	0.784702	-0.078068
C22	C	-0.093490	0.834654	-0.133847
C23	C	-0.145949	0.791320	-0.208004
C24	C	-0.158947	0.698035	-0.226385
C25	C	-0.185399	0.841265	-0.263788
C26	C	-0.237858	0.797931	-0.337945
C27	C	-0.250854	0.704654	-0.356322
C28	C	-0.211400	0.654702	-0.300544
C29	C	-0.172401	0.934550	-0.245407
C30	C	-0.264310	0.941161	-0.375348
C31	C	-0.277312	0.847883	-0.393723
C32	C	-0.397824	1.283477	-0.281670
C33	C	-0.497099	1.269721	-0.301231
C34	C	-0.540446	1.217366	-0.375434
C35	C	-0.633717	1.204447	-0.393821
C36	C	-0.683648	1.243887	-0.338009
C37	C	-0.640299	1.296248	-0.263807
C38	C	-0.547021	1.309163	-0.245416
C39	C	-0.690223	1.335683	-0.207990
C40	C	-0.646874	1.388044	-0.133789
C41	C	-0.553605	1.400957	-0.115401
C42	C	-0.503674	1.361517	-0.171212
C43	C	-0.783501	1.322769	-0.226382
C44	C	-0.790076	1.414565	-0.096363
C45	C	-0.696805	1.427484	-0.077977
C46	C	0.067282	1.348355	-0.190110
C47	C	0.166576	1.362211	-0.170567
C48	C	-0.119711	1.361858	-0.455381
C49	C	-0.100101	1.381469	-0.548880
C50	C	-0.133307	1.548812	-0.190135
C51	C	-0.119491	1.648091	-0.170603
C52	C	-0.025806	1.455777	-0.570320
C53	C	-0.007371	1.474197	-0.658166
C54	C	-0.063234	1.418313	-0.724581
C55	C	-0.137535	1.344007	-0.703143
C56	C	-0.155967	1.325582	-0.615288
C57	C	-0.193395	1.288118	-0.769550
C58	C	-0.267696	1.213811	-0.748111
C59	C	-0.286125	1.195390	-0.660264
C60	C	-0.230263	1.251273	-0.593849
C61	C	-0.174963	1.306543	-0.857404
C62	C	-0.305124	1.176348	-0.902373
C63	C	-0.323559	1.157928	-0.814526
C64	C	-0.211495	1.270059	-0.017394
C65	C	-0.230829	1.250656	0.076188
H66	H	-0.293562	0.669377	-0.416710
H67	H	-0.129685	0.969824	-0.185029
H68	H	-0.661499	1.470117	-0.017561
H69	H	-0.245270	1.236282	-0.522315
H70	H	-0.669007	1.161807	-0.454231
Cl71	Cl	-0.343264	0.793394	-0.486943
Cl72	Cl	-0.077144	0.951919	-0.110744
H73	H	-0.499788	1.185253	-0.420866
H74	H	-0.384055	1.097427	-0.797058
Cl75	Cl	-0.852842	1.464143	-0.026191
Cl76	Cl	-0.081559	1.399953	-0.884345
H77	H	-0.346624	1.134882	-0.642813
Cl78	Cl	-0.040060	1.441474	-0.835018
H79	H	-0.350607	1.130838	-0.956450
H80	H	-0.011327	0.819977	-0.017688
H81	H	-0.296433	0.981833	-0.420770
H82	H	-0.518313	1.443584	-0.054976
Cl83	Cl	-0.837985	1.256947	-0.319661
H84	H	-0.034915	0.650746	-0.051040
Cl85	Cl	-0.227738	0.537435	-0.323645
H86	H	0.053124	1.534698	-0.675614
H87	H	-0.427723	1.372037	-0.156249
Cl88	Cl	-0.800890	1.227695	-0.361156
H89	H	0.019673	1.501266	-0.516238
