data_functionalizedCrystal
_audit_creation_method	'MofGen! by Chris Wilmer'
_symmetry_space_group_name_H-M	'P1'
_symmetry_Int_Tables_number	1
_symmetry_cell_setting	triclinic
loop_
_symmetry_equiv_pos_as_xyz
  x,y,z
_cell_length_a	16.625545
_cell_length_b	10.685969
_cell_length_c	10.686551
_cell_angle_alpha	89.648066
_cell_angle_beta	94.407339
_cell_angle_gamma	94.340372
loop_
_atom_site_label
_atom_site_type_symbol
_atom_site_fract_x
_atom_site_fract_y
_atom_site_fract_z
Zn1	Zn	-0.389945	-1.972100	0.561976
Zn2	Zn	0.110055	-1.472100	1.061976
Zn3	Zn	-0.534292	-1.955829	0.352215
Zn4	Zn	-0.034292	-1.455829	0.852215
Zn5	Zn	-0.388424	-1.746227	0.368339
Zn6	Zn	0.111576	-1.246227	0.868339
Zn7	Zn	-0.513679	-1.762272	0.578032
Zn8	Zn	-0.013679	-1.262272	1.078032
O9	O	-0.456585	-1.859107	0.465140
O10	O	0.043415	-1.359107	0.965140
O11	O	-0.418356	-2.145474	0.520684
O12	O	0.081644	-1.645474	1.020684
O13	O	-0.522932	-1.914500	0.178810
O14	O	-0.022932	-1.414500	0.678810
O15	O	-0.275797	-1.776284	0.394054
O16	O	0.224203	-1.276284	0.894054
O17	O	-0.524406	-2.133520	0.366573
O18	O	-0.024406	-1.633520	0.866573
O19	O	-0.276914	-1.942232	0.536319
O20	O	0.223086	-1.442232	1.036319
O21	O	-0.415764	-1.760507	0.190657
O22	O	0.084236	-1.260507	0.690657
O23	O	-0.395777	-1.572823	0.409622
O24	O	0.104223	-1.072823	0.909622
O25	O	-0.489276	-1.803631	0.751445
O26	O	0.010724	-1.303631	1.251445
O27	O	-0.487801	-1.584611	0.563683
O28	O	0.012199	-1.084611	1.063683
O29	O	-0.398368	-1.957790	0.739649
O30	O	0.101632	-1.457790	1.239649
O31	O	-0.644387	-1.930059	0.382141
O32	O	-0.144387	-1.430059	0.882141
O33	O	-0.629243	-1.787853	0.548048
O34	O	-0.129243	-1.287853	1.048048
C35	C	-0.439388	-1.533204	0.490145
C36	C	0.060612	-1.033204	0.990145
C37	C	-0.432049	-1.393783	0.500872
C38	C	0.067951	-0.893783	1.000872
C39	C	-0.666071	-1.858968	0.465111
C40	C	-0.166071	-1.358968	0.965111
C41	C	-0.755693	-1.859026	0.465132
C42	C	-0.255693	-1.359026	0.965132
C43	C	-0.828477	-1.859077	0.465153
C44	C	-0.328477	-1.359077	0.965153
C45	C	-0.919788	-1.859152	0.465175
C46	C	-0.419788	-1.359152	0.965175
C47	C	-0.992567	-1.859218	0.465186
C48	C	-0.492567	-1.359218	0.965186
C49	C	-1.083884	-1.859292	0.465207
C50	C	-0.583884	-1.359292	0.965207
C51	C	-0.246282	-1.859283	0.465194
C52	C	0.253718	-1.359283	0.965194
C53	C	-0.156663	-1.859358	0.465217
C54	C	0.343337	-1.359358	0.965217
C55	C	-0.441692	-1.884315	0.792336
C56	C	0.058308	-1.384315	1.292336
C57	C	-0.435346	-1.895057	0.931768
C58	C	0.064654	-1.395057	1.431768
C59	C	-0.473843	-1.186282	0.440025
C60	C	0.026157	-0.686282	0.940025
C61	C	-0.481179	-1.325702	0.429285
C62	C	0.018821	-0.825702	0.929285
C63	C	-0.471365	-1.834069	0.139212
C64	C	0.028635	-1.334069	0.639212
C65	C	-0.477497	-1.823570	-0.000237
C66	C	0.022503	-1.323570	0.499763
H67	H	-0.384373	-1.345410	0.570374
H68	H	0.115627	-0.845410	1.070374
N69	N	-0.531734	-1.731602	0.935604
N70	N	-0.031734	-1.231602	1.435604
H71	H	-0.574237	-1.778400	0.877317
H72	H	-0.074237	-1.278400	1.377317
H73	H	-0.498287	-1.669379	0.885781
H74	H	0.001713	-1.169379	1.385781
H75	H	-0.528864	-1.374082	0.359789
H76	H	-0.028864	-0.874082	0.859789
H77	H	-0.394404	-1.964489	0.980229
H78	H	0.105596	-1.464489	1.480229
