data_functionalizedCrystal
_audit_creation_method	'MofGen! by Chris Wilmer'
_symmetry_space_group_name_H-M	'P1'
_symmetry_Int_Tables_number	1
_symmetry_cell_setting	triclinic
loop_
_symmetry_equiv_pos_as_xyz
  x,y,z
_cell_length_a	23.532407
_cell_length_b	16.109301
_cell_length_c	22.010155
_cell_angle_alpha	90.012987
_cell_angle_beta	89.990798
_cell_angle_gamma	96.844921
loop_
_atom_site_label
_atom_site_type_symbol
_atom_site_fract_x
_atom_site_fract_y
_atom_site_fract_z
O1	O	0.073201	-1.102570	-0.050493
O2	O	0.082311	-0.860436	-0.050504
O3	O	-0.005148	-0.988805	-0.050487
O4	O	0.160661	-0.974202	-0.050510
O5	O	-0.005149	-0.988766	0.050564
O6	O	0.082311	-0.860398	0.050547
O7	O	0.073201	-1.102532	0.050557
Cu8	Cu	0.077756	-0.981461	0.059779
Cu9	Cu	0.077756	-0.981507	-0.059725
O10	O	0.160661	-0.974163	0.050541
C11	C	0.081942	-0.829445	0.000020
C12	C	0.080836	-0.737159	0.000017
C13	C	-0.026366	-0.988414	0.000040
C14	C	-0.089587	-0.987296	0.000044
C15	C	0.073570	-1.133523	0.000032
C16	C	0.074677	-1.225809	0.000031
C17	C	-0.488436	-1.056249	0.000014
C18	C	-0.547840	-1.055210	0.000010
O19	O	-0.584349	-1.119130	-0.000010
N20	N	-0.570748	-0.978895	0.000007
C21	C	-0.534248	-0.903614	0.000002
O22	O	-0.559187	-0.838607	-0.000001
C23	C	-0.474845	-0.904654	0.000003
C24	C	-0.451941	-0.980973	0.000012
C25	C	-0.465531	-1.132562	0.000023
C26	C	-0.406131	-1.133601	0.000028
C27	C	-0.369636	-1.058325	0.000026
C28	C	-0.392541	-0.982012	0.000017
C29	C	-0.438346	-0.829373	-0.000006
C30	C	-0.378940	-0.830419	-0.000006
C31	C	-0.356036	-0.906739	0.000003
C32	C	-0.296645	-0.907774	0.000021
N33	N	-0.273738	-0.984089	0.000024
C34	C	-0.310233	-1.059365	0.000026
C35	C	-0.658998	-0.901437	0.000001
C36	C	-0.718400	-0.900396	0.000005
C37	C	-0.731988	-1.051993	0.000011
C38	C	-0.672585	-1.053032	0.000011
C39	C	-0.636091	-0.977752	0.000003
C40	C	-0.185488	-1.061539	0.000039
C41	C	-0.126082	-1.062571	0.000047
C42	C	-0.112499	-0.910975	0.000038
C43	C	-0.171900	-0.909943	0.000033
C44	C	-0.208394	-0.985232	0.000031
O45	O	-0.260102	-0.843888	0.000038
O46	O	-0.285285	-1.124361	0.000021
C47	C	0.181878	-0.974554	0.000013
C48	C	0.245100	-0.975672	0.000004
N49	N	0.077756	-0.981435	0.143831
C50	C	0.130160	-0.514498	0.000017
C51	C	0.129116	-0.427786	0.000021
C52	C	0.025348	-0.448476	0.000033
C53	C	0.026393	-0.535187	0.000033
C54	C	0.078801	-0.568195	0.000022
C55	C	0.076712	-0.394773	0.000026
C56	C	0.075580	-0.300755	0.000030
C57	C	0.079933	-0.662218	0.000019
N58	N	0.077752	-0.981539	-0.143777
C59	C	0.112302	-1.031646	0.563608
C60	C	0.112300	-1.031655	0.627216
O61	O	0.141669	-1.074316	0.660105
N62	N	0.077750	-0.981523	0.659038
C63	C	0.043194	-0.931384	0.627250
O64	O	0.013806	-0.888744	0.660159
C65	C	0.043193	-0.931379	0.563644
C66	C	0.077750	-0.981508	0.531824
C67	C	0.146856	-1.081772	0.531788
C68	C	0.146858	-1.081760	0.468185
C69	C	0.112306	-1.031623	0.436402
C70	C	0.077752	-0.981497	0.468221
C71	C	0.008634	-0.881245	0.531857
C72	C	0.008636	-0.881245	0.468246
C73	C	0.043193	-0.931374	0.436427
C74	C	0.043202	-0.931349	0.372834
N75	N	0.077753	-0.981481	0.341011
C76	C	0.112305	-1.031619	0.372795
C77	C	0.043199	-0.931399	0.760828
C78	C	0.043203	-0.931398	0.824433
C79	C	0.112308	-1.031671	0.824394
C80	C	0.112307	-1.031667	0.760788
C81	C	0.077749	-0.981531	0.729005
C82	C	0.112307	-1.031591	0.239224
C83	C	0.112307	-1.031572	0.175615
C84	C	0.043200	-0.931303	0.175660
C85	C	0.043201	-0.931318	0.239263
C86	C	0.077756	-0.981468	0.271043
O87	O	0.013847	-0.888713	0.339905
O88	O	0.141683	-1.074260	0.339879
H89	H	-0.107437	-1.124722	0.000056
N90	N	0.183686	-0.548230	0.000020
N91	N	0.184614	-0.625651	0.000022
H92	H	0.222418	-0.649474	0.000026
H93	H	-0.019506	-0.840425	0.557753
N94	N	0.147597	-1.082797	0.143113
N95	N	0.125369	-1.137945	0.107612
H96	H	0.150290	-1.174124	0.084659
N97	N	-0.026680	-0.830043	0.435792
N98	N	-0.057536	-0.785303	0.464214
H99	H	-0.082481	-0.749146	0.441295
H100	H	-0.017320	-0.421590	0.000046
H101	H	-0.015433	-0.578910	0.000039
N102	N	0.007917	-0.880171	0.856932
N103	N	0.014723	-0.802638	0.849841
H104	H	-0.010199	-0.766458	0.872791
N105	N	0.147596	-1.082893	0.728295
N106	N	0.140789	-1.160426	0.735393
H107	H	0.165711	-1.196611	0.712447
H108	H	0.140444	-1.072428	0.265092
H109	H	0.015069	-0.890488	0.265172
H110	H	-0.215195	-1.122847	0.000035
N111	N	0.182168	-1.132962	0.435697
N112	N	0.213016	-1.177713	0.464093
H113	H	0.237958	-1.213875	0.441152
N114	N	0.182153	-1.132999	0.564239
N115	N	0.212998	-1.177748	0.535809
H116	H	0.237932	-1.213928	0.558722
N117	N	0.147606	-1.082874	0.856877
N118	N	0.147599	-1.082862	0.913668
H119	H	0.172529	-1.119017	0.936611
N120	N	0.007892	-0.880179	0.728375
N121	N	-0.022953	-0.835428	0.756801
H122	H	-0.047891	-0.799256	0.733885
N123	N	0.007914	-0.880092	0.143177
N124	N	0.007924	-0.880098	0.086386
H125	H	-0.016999	-0.843933	0.063443
N126	N	-0.769282	-1.128880	0.000017
N127	N	-0.822318	-1.127932	0.000016
H128	H	-0.848658	-1.182230	0.000022
N129	N	-0.382749	-1.211568	0.000035
N130	N	-0.415350	-1.278766	0.000035
H131	H	-0.398841	-1.333835	0.000038
N132	N	0.181580	-0.372939	0.000028
N133	N	0.216433	-0.375691	0.042621
H134	H	0.253488	-0.336956	0.042629
N135	N	-0.502796	-1.209469	0.000021
N136	N	-0.482326	-1.277594	0.000026
H137	H	-0.508641	-1.331915	0.000029
N138	N	-0.649191	-1.130990	0.000029
N139	N	-0.660383	-1.181604	0.042630
H140	H	-0.643863	-1.236665	0.042643
N141	N	-0.741793	-0.822438	0.000016
N142	N	-0.730613	-0.771791	0.042612
H143	H	-0.747132	-0.716730	0.042618
N144	N	-0.621721	-0.824534	-0.000011
N145	N	-0.623804	-0.773684	-0.042609
H146	H	-0.597479	-0.719372	-0.042619
N147	N	-0.461723	-0.751406	-0.000017
N148	N	-0.429120	-0.684209	-0.000026
H149	H	-0.445628	-0.629139	-0.000035
H150	H	-0.349228	-0.769115	-0.000013
H151	H	-0.190549	-0.847797	0.000042
H152	H	-0.082774	-0.849688	0.000038
