data_functionalizedCrystal
_audit_creation_method	'MofGen! by Chris Wilmer'
_symmetry_space_group_name_H-M	'P1'
_symmetry_Int_Tables_number	1
_symmetry_cell_setting	triclinic
loop_
_symmetry_equiv_pos_as_xyz
  x,y,z
_cell_length_a	15.538191
_cell_length_b	10.489741
_cell_length_c	14.185569
_cell_angle_alpha	76.708603
_cell_angle_beta	97.875798
_cell_angle_gamma	65.905634
loop_
_atom_site_label
_atom_site_type_symbol
_atom_site_fract_x
_atom_site_fract_y
_atom_site_fract_z
O1	O	1.226002	-0.374270	-0.083430
O2	O	0.952739	-0.227456	-0.083429
O3	O	1.095590	-0.489420	-0.083424
O4	O	1.083151	-0.112306	-0.083436
O5	O	1.137789	-0.566800	0.083412
O6	O	0.994938	-0.304836	0.083407
O7	O	1.268201	-0.451650	0.083406
Cu8	Cu	1.135423	-0.385309	0.098640
Cu9	Cu	1.085517	-0.293798	-0.098663
O10	O	1.125350	-0.189686	0.083401
C11	C	0.938847	-0.250786	-0.000011
C12	C	0.834584	-0.205031	-0.000011
C13	C	0.543710	-0.659588	-0.000012
C14	C	0.445735	-0.616562	-0.000014
C15	C	0.424932	-0.374552	-0.000021
C16	C	0.522908	-0.417560	-0.000014
C17	C	0.582289	-0.560079	-0.000011
C18	C	0.561487	-0.318051	-0.000013
C19	C	0.659454	-0.361054	-0.000012
C20	C	0.718840	-0.503566	-0.000011
C21	C	0.680255	-0.603082	-0.000009
C22	C	0.502103	-0.175529	-0.000024
C23	C	0.540682	-0.076020	-0.000023
C24	C	0.638652	-0.119026	-0.000014
C25	C	0.698038	-0.261537	-0.000013
C26	C	0.677237	-0.019509	-0.000016
C27	C	0.775203	-0.062512	-0.000014
C28	C	0.796004	-0.304540	-0.000012
C29	C	1.115750	-0.575195	-0.000006
C30	C	1.112939	-0.715488	-0.000008
C31	C	1.022047	-0.740411	-0.000015
C32	C	1.085789	-0.891099	0.082244
C33	C	1.044205	-0.814793	-0.082244
C34	C	1.176736	-0.864360	0.082319
C35	C	1.135121	-0.788004	-0.082243
C36	C	1.198935	-0.938706	0.000036
C37	C	1.282092	-0.428320	-0.000014
C38	C	1.386353	-0.474071	-0.000021
C39	C	1.105189	-0.103910	-0.000019
C40	C	1.107998	0.036385	-0.000024
N41	N	1.170531	-0.449677	0.237412
N42	N	1.050417	-0.229443	-0.237436
C43	C	0.947269	-0.040386	0.605054
C44	C	0.973870	-0.089138	0.710076
C45	C	1.100390	-0.321055	0.710042
C46	C	1.073797	-0.272324	0.605017
C47	C	0.997237	-0.131988	0.552531
C48	C	1.123765	-0.363927	0.552495
C49	C	1.097178	-0.315197	0.447480
C50	C	1.020622	-0.174865	0.394986
C51	C	0.970649	-0.083258	0.447516
C52	C	1.200330	-0.504259	0.604983
C53	C	1.250298	-0.595862	0.552461
C54	C	1.223706	-0.547136	0.447443
C55	C	1.147150	-0.406804	0.394950
C56	C	1.273679	-0.638743	0.394914
C57	C	1.247091	-0.590013	0.289898
C58	C	1.120563	-0.358074	0.289935
H59	H	0.414329	-0.697605	-0.000017
O60	O	1.298019	-1.051323	0.000090
H61	H	1.352796	-1.072817	0.068438
H62	H	0.492320	0.040022	-0.000030
H63	H	0.798607	-0.538570	-0.000023
H64	H	1.287781	-0.664606	0.247134
O65	O	0.396441	-0.129150	-0.000016
H66	H	0.348916	-0.034044	-0.068022
H67	H	0.933174	-0.014530	0.752835
O68	O	1.332875	-0.747216	0.609074
H69	H	1.315141	-0.831457	0.588916
H70	H	0.628872	0.096535	-0.000029
O71	O	1.250959	-0.890511	0.174547
H72	H	1.252436	-0.785403	0.173850
O73	O	0.864684	0.110966	0.548416
H74	H	0.882406	0.195234	0.568547
O75	O	1.356260	-0.790095	0.451525
H76	H	1.328437	-0.855842	0.499381
O77	O	0.923091	-0.627610	0.000087
H78	H	0.902888	-0.669371	0.068477
H79	H	0.998978	-0.135188	0.309476
H80	H	0.376570	-0.258510	-0.000028
H81	H	1.064922	-0.936081	0.151788
O82	O	0.816828	0.044801	-0.000003
H83	H	0.759082	0.151121	0.000008
O84	O	0.969944	-0.788888	-0.174356
H85	H	1.006986	-0.857198	-0.219574
O86	O	1.162758	-0.728451	-0.174367
H87	H	1.231380	-0.721222	-0.151227
O88	O	1.037978	-0.206722	0.233297
H89	H	1.055699	-0.122455	0.253428
H90	H	0.728609	-0.719139	-0.000000
H91	H	0.592063	-0.775645	-0.000003
H92	H	0.908300	0.031012	0.404780
H93	H	1.162729	-0.435316	0.752788
O94	O	1.229018	-0.556822	0.718251
H95	H	1.220386	-0.657733	0.745946
O96	O	0.860070	-0.458262	0.000002
H97	H	0.829069	-0.476508	-0.067997
