data_functionalizedCrystal
_audit_creation_method	'MofGen! by Chris Wilmer'
_symmetry_space_group_name_H-M	'P1'
_symmetry_Int_Tables_number	1
_symmetry_cell_setting	triclinic
loop_
_symmetry_equiv_pos_as_xyz
  x,y,z
_cell_length_a	10.686220
_cell_length_b	12.827892
_cell_length_c	10.686551
_cell_angle_alpha	85.594922
_cell_angle_beta	90.308082
_cell_angle_gamma	94.396976
loop_
_atom_site_label
_atom_site_type_symbol
_atom_site_fract_x
_atom_site_fract_y
_atom_site_fract_z
Zn1	Zn	1.972286	-0.254771	-0.562389
Zn2	Zn	1.956055	-0.443915	-0.352633
Zn3	Zn	1.746404	-0.281503	-0.368707
Zn4	Zn	1.762485	-0.441797	-0.578411
O5	O	1.859307	-0.355496	-0.465535
O6	O	2.145674	-0.269560	-0.521133
O7	O	1.914721	-0.434445	-0.179220
O8	O	1.776430	-0.131715	-0.394421
O9	O	2.133750	-0.408523	-0.367026
O10	O	1.942384	-0.112075	-0.536719
O11	O	1.760692	-0.315121	-0.191029
O12	O	1.572995	-0.313068	-0.409957
O13	O	1.803838	-0.404914	-0.751831
O14	O	1.584810	-0.430835	-0.564025
O15	O	1.957978	-0.267506	-0.740060
O16	O	1.930315	-0.589876	-0.382561
O17	O	1.788100	-0.588320	-0.548439
C18	C	1.533386	-0.374623	-0.490474
C19	C	1.393958	-0.382829	-0.501173
C20	C	1.859227	-0.627013	-0.465519
C21	C	1.859311	-0.743159	-0.465545
C22	C	1.929780	-0.795668	-0.383541
C23	C	1.929868	-0.915711	-0.383567
C24	C	2.186501	-0.336296	-0.440499
C25	C	2.325931	-0.328114	-0.429830
C26	C	1.884512	-0.332992	-0.792735
C27	C	1.895253	-0.323402	-0.932168
C28	C	1.859424	-0.082916	-0.465576
C29	C	1.859474	0.033241	-0.465594
C30	C	1.834273	-0.377834	-0.139602
C31	C	1.823775	-0.387115	-0.000151
H32	H	1.990053	-0.751753	-0.313319
H33	H	1.345526	-0.435960	-0.570436
O34	O	1.787304	-0.912974	-0.549241
C35	C	1.660176	-0.948920	-0.531352
H36	H	1.646191	-0.986285	-0.431651
H37	H	1.599041	-0.880041	-0.546757
H38	H	1.632498	-1.009498	-0.601182
H39	H	1.799050	-0.787075	-0.535775
H40	H	1.374357	-0.274993	-0.360564
O41	O	1.977999	-0.249434	-0.989849
C42	C	1.948174	-0.149056	-0.960059
H43	H	1.892702	-0.156192	-0.868584
H44	H	2.038394	-0.097178	-0.948782
H45	H	1.889311	-0.112631	-1.038722
H46	H	1.754366	-0.449003	-0.951684
H47	H	1.990196	-0.960865	-0.313357
