data_functionalizedCrystal
_audit_creation_method	'MofGen! by Chris Wilmer'
_symmetry_space_group_name_H-M	'P1'
_symmetry_Int_Tables_number	1
_symmetry_cell_setting	triclinic
loop_
_symmetry_equiv_pos_as_xyz
  x,y,z
_cell_length_a	15.944499
_cell_length_b	15.944551
_cell_length_c	9.730223
_cell_angle_alpha	90.005066
_cell_angle_beta	90.004410
_cell_angle_gamma	83.488174
loop_
_atom_site_label
_atom_site_type_symbol
_atom_site_fract_x
_atom_site_fract_y
_atom_site_fract_z
O1	O	1.114548	0.108125	0.114375
O2	O	0.869992	0.121526	0.114360
O3	O	0.998948	-0.007450	0.114356
O4	O	0.985592	0.237102	0.114380
O5	O	0.998944	-0.007454	-0.114224
O6	O	0.869988	0.121523	-0.114220
O7	O	1.114543	0.108122	-0.114205
Zn8	Zn	0.992265	0.114822	-0.150504
Zn9	Zn	0.992271	0.114826	0.150660
O10	O	0.985587	0.237099	-0.114200
C11	C	0.838695	0.120976	0.000068
C12	C	0.745447	0.119331	0.000062
C13	C	0.453911	0.194263	0.000090
C14	C	0.514943	0.155313	0.112791
C15	C	0.409810	0.113355	0.000093
C16	C	0.514924	0.155288	-0.112571
C17	C	0.574719	0.116296	0.000076
C18	C	0.469614	0.074382	0.112887
C19	C	0.469589	0.074369	-0.112576
C20	C	0.530603	0.035360	0.000152
C21	C	0.314810	0.111663	0.000105
C22	C	0.669718	0.117981	0.000074
C23	C	0.998392	-0.038746	0.000066
C24	C	0.996729	-0.131992	0.000065
C25	C	0.912823	-0.346833	0.000078
C26	C	0.951784	-0.407859	-0.112623
C27	C	0.993722	-0.302717	0.000075
C28	C	0.951808	-0.407839	0.112739
C29	C	0.990811	-0.467629	0.000091
C30	C	1.032705	-0.362515	-0.112719
C31	C	1.032718	-0.362489	0.112744
C32	C	1.071737	-0.423497	0.000015
C33	C	0.995397	-0.207715	0.000065
C34	C	0.989143	-0.562630	0.000092
C35	C	1.145840	0.108672	0.000090
C36	C	1.239089	0.110317	0.000105
C37	C	0.986144	0.268394	0.000093
C38	C	0.987806	0.361640	0.000103
N39	N	0.992267	0.114819	-0.356041
C40	C	0.941330	0.063849	-0.427997
C41	C	0.941332	0.063853	-0.571880
C42	C	1.043215	0.165799	-0.571837
C43	C	1.043208	0.165798	-0.427957
C44	C	0.890389	0.012869	-0.356081
C45	C	0.839449	-0.038106	-0.428038
C46	C	0.839451	-0.038102	-0.571921
C47	C	0.890393	0.012877	-0.643847
N48	N	0.992276	0.114823	0.356196
H49	H	0.449637	0.040195	0.208273
H50	H	1.066891	-0.342532	-0.208104
O51	O	0.414176	0.274378	0.000467
C52	C	0.392115	0.407525	0.119680
C53	C	0.437154	0.316816	0.119432
H54	H	0.410689	0.441869	0.215838
H55	H	0.320867	0.405549	0.118787
H56	H	0.411491	0.442331	0.024529
H57	H	0.417846	0.281957	0.214567
H58	H	0.508392	0.318854	0.120254
O59	O	0.538829	0.196099	0.226566
C60	C	0.541835	0.200498	0.474045
C61	C	0.514727	0.154205	0.345345
H62	H	0.522375	0.166635	0.570110
H63	H	0.509972	0.268221	0.473934
H64	H	0.613289	0.200877	0.473361
H65	H	0.443284	0.153761	0.345945
H66	H	0.546652	0.086506	0.345505
H67	H	1.066907	-0.342363	0.208033
H68	H	1.138946	-0.456668	-0.000045
O69	O	0.570157	-0.044826	0.000456
C70	C	0.591880	-0.178036	0.119505
C71	C	0.547047	-0.087243	0.119341
H72	H	0.573199	-0.212362	0.215598
H73	H	0.663152	-0.176230	0.118681
H74	H	0.572435	-0.212749	0.024287
H75	H	0.566423	-0.052477	0.214543
H76	H	0.475785	-0.089110	0.120093
O77	O	1.092640	0.215427	-0.358198
C78	C	1.125397	0.356818	-0.314062
C79	C	1.069374	0.300707	-0.393174
H80	H	1.106595	0.425780	-0.342289
H81	H	1.194380	0.338195	-0.342356
H82	H	1.116653	0.348016	-0.198882
H83	H	1.078044	0.309481	-0.508372
H84	H	1.000412	0.319344	-0.364766
H85	H	0.890383	0.012858	-0.238924
H86	H	0.917582	-0.427908	0.208026
H87	H	1.084690	0.207303	-0.630411
O88	O	0.445265	0.033814	-0.226280
C89	C	0.329463	-0.013343	-0.352888
C90	C	0.357016	0.032413	-0.223940
H91	H	0.258110	-0.014475	-0.351054
H92	H	0.361999	-0.080801	-0.354446
H93	H	0.347885	0.021430	-0.448687
H94	H	0.338598	-0.002290	-0.128072
H95	H	0.324486	0.099874	-0.222503
H96	H	0.534997	0.189522	-0.207847
H97	H	0.845673	-0.313513	-0.000038
O98	O	0.910830	-0.431791	-0.226194
C99	C	0.780804	-0.419501	-0.354660
C100	C	0.827083	-0.392350	-0.225975
H101	H	0.713092	-0.387611	-0.354541
H102	H	0.780408	-0.490954	-0.354087
H103	H	0.814680	-0.399993	-0.450681
H104	H	0.793244	-0.411800	-0.129887
H105	H	0.827487	-0.320898	-0.226670
H106	H	0.797968	-0.079605	-0.369466
O107	O	0.789946	-0.087690	-0.641612
C108	C	0.688857	-0.188771	-0.626471
C109	C	0.744892	-0.132663	-0.547377
H110	H	0.652403	-0.225134	-0.550317
H111	H	0.730135	-0.235195	-0.693795
H112	H	0.642501	-0.147470	-0.693870
H113	H	0.791255	-0.173898	-0.479903
H114	H	0.703561	-0.086235	-0.480139
H115	H	0.890386	0.012881	-0.761006
