data_functionalizedCrystal
_audit_creation_method	'MofGen! by Chris Wilmer'
_symmetry_space_group_name_H-M	'P1'
_symmetry_Int_Tables_number	1
_symmetry_cell_setting	triclinic
loop_
_symmetry_equiv_pos_as_xyz
  x,y,z
_cell_length_a	6.817900
_cell_length_b	9.582889
_cell_length_c	19.453114
_cell_angle_alpha	93.805745
_cell_angle_beta	101.709288
_cell_angle_gamma	111.207298
loop_
_atom_site_label
_atom_site_type_symbol
_atom_site_fract_x
_atom_site_fract_y
_atom_site_fract_z
V1	V	-4.047104	-0.208613	-0.218869
O2	O	-3.993116	0.008421	-0.214835
O3	O	-4.038024	-0.412102	-0.217245
O4	O	-3.989535	-0.206108	-0.314384
O5	O	-4.041940	-0.199000	-0.117024
V6	V	-4.526825	-0.182570	-0.206703
O7	O	-4.316702	-0.265740	-0.245557
O8	O	-4.707424	-0.125443	-0.180016
O9	O	-4.312698	0.020919	-0.208328
O10	O	-4.698210	-0.399604	-0.210737
O11	O	-4.649385	-0.192184	-0.308549
O12	O	-4.361187	-0.185075	-0.111189
C13	C	-3.892887	-0.461687	-0.213760
C14	C	-3.966688	-0.628047	-0.213068
C15	C	-3.831033	-0.198918	-0.337669
C16	C	-3.865507	-0.198216	-0.415752
C17	C	-4.064937	-0.205398	-0.456004
C18	C	-4.097330	-0.204739	-0.529372
C19	C	-3.930296	-0.196927	-0.562485
C20	C	-3.730834	-0.189736	-0.522223
C21	C	-3.698440	-0.190380	-0.448856
N22	N	-3.885824	-0.275959	-0.681225
N23	N	-3.916612	-0.275351	-0.750921
C24	C	-4.027887	-0.194982	-0.783535
N25	N	-4.107251	-0.115265	-0.743821
N26	N	-4.076470	-0.115880	-0.674120
C27	C	-3.965402	-0.196227	-0.642039
C28	C	-4.262452	-0.201447	-0.903341
C29	C	-4.294834	-0.200778	-0.976708
C30	C	-3.928340	-0.185790	-0.969559
C31	C	-3.895957	-0.186444	-0.896192
C32	C	-4.063024	-0.194280	-0.863088
C33	C	-4.121179	0.070496	-0.211811
C34	C	-4.026615	0.236854	-0.212507
C35	C	-4.183032	-0.192270	-0.087900
C36	C	-4.127795	-0.192964	-0.009817
H37	H	-4.200977	-0.211772	-0.429055
C38	C	-4.313875	-0.212784	-0.573197
C39	C	-4.405149	-0.342253	-0.624915
C40	C	-4.604612	-0.349711	-0.665307
H41	H	-4.408989	-0.217628	-0.543068
H42	H	-4.292137	-0.125176	-0.595655
H43	H	-4.426897	-0.429840	-0.602458
H44	H	-4.310097	-0.337438	-0.655059
H45	H	-4.582874	-0.262102	-0.687765
H46	H	-4.699707	-0.354550	-0.635172
H47	H	-4.666557	-0.437547	-0.700406
C48	C	-3.482142	-0.182894	-0.405097
C49	C	-3.514965	-0.312257	-0.372159
C50	C	-3.315772	-0.305434	-0.331842
H51	H	-3.387166	-0.178234	-0.435257
H52	H	-3.419746	-0.095178	-0.369919
H53	H	-3.577330	-0.399950	-0.407333
H54	H	-3.609906	-0.316944	-0.341987
H55	H	-3.253376	-0.217718	-0.296664
H56	H	-3.220811	-0.300770	-0.362007
H57	H	-3.338018	-0.393197	-0.309484
H58	H	-4.457232	-0.206616	-1.009481
H59	H	-3.792330	-0.179417	-0.996518
C60	C	-4.443886	-0.210242	-0.867374
C61	C	-4.498095	-0.340490	-0.834865
C62	C	-4.665240	-0.348651	-0.801736
H63	H	-4.397019	-0.123199	-0.832495
H64	H	-4.567389	-0.214497	-0.901841
H65	H	-4.374618	-0.336223	-0.800401
H66	H	-4.545000	-0.427556	-0.869729
H67	H	-4.788743	-0.352905	-0.836203
H68	H	-4.618356	-0.261601	-0.766859
H69	H	-4.702056	-0.437030	-0.779679
H70	H	-3.594834	-0.183371	-0.549188
H71	H	-3.733568	-0.180612	-0.863418
