data_functionalizedCrystal
_audit_creation_method	'MofGen! by Chris Wilmer'
_symmetry_space_group_name_H-M	'P1'
_symmetry_Int_Tables_number	1
_symmetry_cell_setting	triclinic
loop_
_symmetry_equiv_pos_as_xyz
  x,y,z
_cell_length_a	15.944499
_cell_length_b	10.723024
_cell_length_c	9.198806
_cell_angle_alpha	90.002012
_cell_angle_beta	90.000529
_cell_angle_gamma	96.027260
loop_
_atom_site_label
_atom_site_type_symbol
_atom_site_fract_x
_atom_site_fract_y
_atom_site_fract_z
O1	O	1.115470	-0.160624	-0.120738
O2	O	0.871029	-0.180533	-0.120773
O3	O	0.998888	0.011070	-0.120749
O4	O	0.987611	-0.352228	-0.120762
O5	O	0.998878	0.011071	0.121036
O6	O	0.871018	-0.180533	0.121012
O7	O	1.115460	-0.160624	0.121047
Cu8	Cu	0.993238	-0.170578	0.143107
Cu9	Cu	0.993250	-0.170579	-0.142832
O10	O	0.987601	-0.352227	0.121023
C11	C	0.839724	-0.179718	0.000115
C12	C	0.746462	-0.177274	0.000101
C13	C	0.998062	0.057560	0.000142
C14	C	0.995607	0.196082	0.000136
C15	C	1.146765	-0.161439	0.000156
C16	C	1.240027	-0.163883	0.000160
C17	C	1.530926	-0.052566	0.000136
C18	C	1.470229	-0.110431	-0.119080
C19	C	1.575714	-0.172761	0.000118
C20	C	1.470241	-0.110464	0.119301
C21	C	1.410780	-0.168392	0.000141
C22	C	1.516246	-0.230659	-0.119196
C23	C	1.516264	-0.230675	0.119292
C24	C	1.455585	-0.288627	0.000047
C25	C	1.670729	-0.175274	0.000104
C26	C	1.315767	-0.165888	0.000146
C27	C	0.988427	-0.398716	0.000130
C28	C	0.990882	-0.537239	0.000126
N29	N	0.993236	-0.170577	0.344221
C30	C	1.067150	0.271988	0.000144
C31	C	1.064614	0.415159	0.000139
N32	N	0.993259	-0.170570	-0.343946
C33	C	1.046920	-0.089777	0.416428
C34	C	1.046933	-0.089772	0.583840
H35	H	1.563711	0.047167	-0.000005
Cl36	Cl	0.922297	-0.277389	0.560199
Cl37	Cl	1.117902	0.017030	0.679704
Cl38	Cl	0.922282	-0.277374	0.440118
H39	H	0.932479	0.237089	0.000117
Cl40	Cl	1.438758	-0.031945	-0.274685
H41	H	1.092870	-0.020598	0.354310
Cl42	Cl	0.896313	0.362075	0.000126
H43	H	1.536516	-0.281458	-0.220094
H44	H	1.536669	-0.281472	0.220080
H45	H	1.422974	-0.388463	-0.000026
Cl46	Cl	1.438795	-0.031947	0.274908
H47	H	1.130278	0.230981	0.000163
Cl48	Cl	1.159180	0.515852	0.000161
