data_functionalizedCrystal
_audit_creation_method	'MofGen! by Chris Wilmer'
_symmetry_space_group_name_H-M	'P1'
_symmetry_Int_Tables_number	1
_symmetry_cell_setting	triclinic
loop_
_symmetry_equiv_pos_as_xyz
  x,y,z
_cell_length_a	25.639242
_cell_length_b	18.050589
_cell_length_c	18.050582
_cell_angle_alpha	90.018205
_cell_angle_beta	89.976321
_cell_angle_gamma	89.976251
loop_
_atom_site_label
_atom_site_type_symbol
_atom_site_fract_x
_atom_site_fract_y
_atom_site_fract_z
Zn1	Zn	0.799271	0.295795	-0.420109
Zn2	Zn	0.799208	0.419978	-0.295928
Zn3	Zn	0.711845	0.295797	-0.295914
Zn4	Zn	0.711808	0.419938	-0.420058
O5	O	0.755533	0.357877	-0.358002
O6	O	0.872428	0.312284	-0.403663
O7	O	0.787608	0.403523	-0.192001
O8	O	0.723484	0.191872	-0.312404
O9	O	0.872382	0.403521	-0.312428
O10	O	0.787715	0.191871	-0.403649
O11	O	0.723423	0.312288	-0.191991
O12	O	0.638675	0.312249	-0.312354
O13	O	0.723421	0.403453	-0.523989
O14	O	0.638648	0.403455	-0.403562
O15	O	0.787680	0.312245	-0.524026
O16	O	0.787573	0.523898	-0.312379
O17	O	0.723360	0.523868	-0.403576
C18	C	0.755470	0.550829	-0.357990
C19	C	0.755491	0.633375	-0.358009
C20	C	0.619690	0.357848	-0.357952
C21	C	0.561576	0.357853	-0.357948
C22	C	0.755554	0.357844	-0.551708
C23	C	0.755562	0.357830	-0.634253
C24	C	0.201208	0.405448	-0.405449
C25	C	0.146604	0.405452	-0.405461
O26	O	0.118363	0.445882	-0.445805
N27	N	0.119294	0.357898	-0.358050
C28	C	0.146591	0.310330	-0.310631
O29	O	0.118348	0.269882	-0.270306
C30	C	0.201194	0.310323	-0.310623
C31	C	0.228502	0.357885	-0.358031
C32	C	0.228515	0.453006	-0.452854
C33	C	0.283116	0.453002	-0.452841
C34	C	0.310409	0.405440	-0.405423
C35	C	0.283102	0.357882	-0.358018
C36	C	0.228491	0.262752	-0.263208
C37	C	0.283098	0.262748	-0.263205
C38	C	0.310405	0.310311	-0.310613
C39	C	0.364996	0.310316	-0.310588
N40	N	0.392306	0.357870	-0.357998
C41	C	0.365013	0.405432	-0.405416
C42	C	0.031920	0.310349	-0.310651
C43	C	-0.022682	0.310360	-0.310654
C44	C	-0.022665	0.405481	-0.405485
C45	C	0.031938	0.405473	-0.405478
C46	C	0.059230	0.357904	-0.358061
C47	C	0.479678	0.405421	-0.405385
C48	C	0.534283	0.405415	-0.405365
C49	C	0.534262	0.310292	-0.310537
C50	C	0.479661	0.310300	-0.310553
C51	C	0.452370	0.357867	-0.357983
O52	O	0.393272	0.269904	-0.270266
O53	O	0.393263	0.445867	-0.445740
C54	C	0.891906	0.357907	-0.358053
C55	C	0.950020	0.357920	-0.358075
C56	C	0.755611	0.164172	-0.358031
C57	C	0.755644	0.081626	-0.358043
C58	C	0.720606	0.832837	-0.407585
C59	C	0.707865	0.882269	-0.339815
C60	C	0.755542	0.784506	-0.358019
C61	C	0.768309	0.882155	-0.425797
C62	C	0.755591	0.930491	-0.358034
C63	C	0.742776	0.832851	-0.290213
C64	C	0.803242	0.832732	-0.376240
C65	C	0.790519	0.882142	-0.308424
C66	C	0.755513	0.700407	-0.358011
C67	C	0.755620	1.014587	-0.358034
C68	C	0.720645	0.407361	-0.833684
C69	C	0.768346	0.425520	-0.883087
C70	C	0.755588	0.357774	-0.785384
C71	C	0.707913	0.339594	-0.883063
C72	C	0.755609	0.357720	-0.931369
C73	C	0.803314	0.375968	-0.833700
C74	C	0.742849	0.290011	-0.833671
C75	C	0.790583	0.308144	-0.883052
C76	C	0.755575	0.357806	-0.701286
C77	C	0.755627	0.357688	-1.015466
C78	C	0.755543	0.357856	-0.165050
C79	C	0.755635	0.357661	-0.082504
H80	H	0.457464	0.444153	-0.444008
H81	H	0.305316	0.224006	-0.224596
H82	H	0.054139	0.271613	-0.272033
O83	O	0.825782	0.907940	-0.258427
C84	C	0.825711	0.986044	-0.259395
H85	H	0.810142	1.006369	-0.314939
H86	H	0.799753	1.007664	-0.212867
C87	C	0.900849	0.989738	-0.180055
C88	C	0.881731	1.014701	-0.248277
H89	H	0.935405	1.007416	-0.173193
H90	H	0.900896	0.937118	-0.179400
H91	H	0.879213	1.007757	-0.141289
H92	H	0.903363	0.996675	-0.287042
H93	H	0.881689	1.067319	-0.248938
H94	H	0.305345	0.491731	-0.491447
H95	H	0.691123	0.449350	-0.812008
H96	H	0.556514	0.444150	-0.443971
H97	H	0.779088	0.903812	-0.483110
O98	O	0.781131	0.493900	-0.908953
C99	C	0.744191	0.546046	-0.883790
H100	H	0.706130	0.516509	-0.869917
H101	H	0.759721	0.574897	-0.832124
C102	C	0.781021	0.640211	-0.961875
C103	C	0.734273	0.603933	-0.944842
H104	H	0.774904	0.675921	-0.999532
H105	H	0.805910	0.605081	-0.978826
H106	H	0.793958	0.664247	-0.918814
H107	H	0.721340	0.579890	-0.987899
H108	H	0.709381	0.639061	-0.927899
H109	H	0.731950	0.811283	-0.232884
O110	O	0.202089	0.499284	-0.498941
C111	C	0.237910	0.541237	-0.540787
H112	H	0.276820	0.543747	-0.510351
H113	H	0.243745	0.514122	-0.597237
C114	C	0.168809	0.617219	-0.588737
C115	C	0.216597	0.620307	-0.551352
H116	H	0.155661	0.665993	-0.595258
H117	H	0.144675	0.588953	-0.560547
H118	H	0.173677	0.594620	-0.635774
H119	H	0.211727	0.642897	-0.504313
H120	H	0.240730	0.648579	-0.579535
H121	H	0.843653	0.391387	-0.812107
O122	O	0.201905	0.216536	-0.217247
C123	C	0.170345	0.168616	-0.259594
H124	H	0.162183	0.194868	-0.315841
H125	H	0.191394	0.113577	-0.267825
C126	C	0.128490	0.122912	-0.149671
C127	C	0.118461	0.155159	-0.218753
H128	H	0.096487	0.114608	-0.124478
H129	H	0.149754	0.155194	-0.121140
H130	H	0.146032	0.077050	-0.156540
H131	H	0.100926	0.201024	-0.211883
H132	H	0.097193	0.122884	-0.247282
O133	O	0.659845	0.321182	-0.909019
C134	C	0.663474	0.256115	-0.951950
H135	H	0.705081	0.249536	-0.973256
H136	H	0.652748	0.206190	-0.916411
C137	C	0.574618	0.269446	-0.991904
C138	C	0.625720	0.261369	-1.018078
H139	H	0.551329	0.272685	-1.032693
H140	H	0.572173	0.313282	-0.962978
H141	H	0.565687	0.227840	-0.962288
H142	H	0.634653	0.302979	-1.047685
H143	H	0.628166	0.217541	-1.047010
H144	H	0.820176	0.266186	-0.904591
H145	H	0.691019	0.811186	-0.449442
H146	H	0.457427	0.271572	-0.271949
H147	H	0.556494	0.271571	-0.271929
O148	O	0.058381	0.451695	-0.451604
C149	C	0.022576	0.493687	-0.493438
H150	H	-0.016339	0.463275	-0.496060
H151	H	0.016747	0.550053	-0.466147
C152	C	0.091701	0.541850	-0.569242
C153	C	0.043906	0.504494	-0.572467
H154	H	0.104859	0.548520	-0.617989
H155	H	0.115824	0.513562	-0.541056
H156	H	0.086837	0.588818	-0.546496
H157	H	0.048772	0.457524	-0.595203
H158	H	0.019784	0.532776	-0.600659
H159	H	0.732047	0.232744	-0.811949
O160	O	-0.049286	0.264246	-0.264607
C161	C	-0.103334	0.274434	-0.274784
H162	H	-0.110799	0.331773	-0.299028
H163	H	-0.118810	0.230427	-0.314391
C164	C	-0.122217	0.197128	-0.169873
C165	C	-0.131385	0.267556	-0.199644
H166	H	-0.139521	0.192882	-0.123524
H167	H	-0.085803	0.190262	-0.163018
H168	H	-0.135113	0.160463	-0.202886
H169	H	-0.118483	0.304218	-0.166635
H170	H	-0.167797	0.274428	-0.206492
O171	O	0.851310	0.806784	-0.394776
C172	C	0.864601	0.831874	-0.466294
H173	H	0.827540	0.845780	-0.498279
H174	H	0.889985	0.883505	-0.461651
C175	C	0.940408	0.753673	-0.468198
C176	C	0.894890	0.770746	-0.507485
H177	H	0.959094	0.715968	-0.493606
H178	H	0.931456	0.736770	-0.420014
H179	H	0.961556	0.796704	-0.464332
H180	H	0.873740	0.727718	-0.511343
H181	H	0.903839	0.787640	-0.555671
O182	O	0.659773	0.908320	-0.321532
C183	C	0.640390	0.952361	-0.379856
H184	H	0.674326	0.973960	-0.414477
H185	H	0.613536	0.917624	-0.416269
C186	C	0.567971	0.991690	-0.305089
C187	C	0.609652	1.018222	-0.347607
H188	H	0.549009	1.032314	-0.285197
H189	H	0.581028	0.962017	-0.265795
H190	H	0.545599	0.962742	-0.335439
H191	H	0.632027	1.047161	-0.317254
H192	H	0.596598	1.047902	-0.386895
H193	H	-0.044897	0.444207	-0.444098
