data_functionalizedCrystal
_audit_creation_method	'MofGen! by Chris Wilmer'
_symmetry_space_group_name_H-M	'P1'
_symmetry_Int_Tables_number	1
_symmetry_cell_setting	triclinic
loop_
_symmetry_equiv_pos_as_xyz
  x,y,z
_cell_length_a	19.805407
_cell_length_b	12.759399
_cell_length_c	19.805399
_cell_angle_alpha	90.023653
_cell_angle_beta	90.017803
_cell_angle_gamma	90.012432
loop_
_atom_site_label
_atom_site_type_symbol
_atom_site_fract_x
_atom_site_fract_y
_atom_site_fract_z
Zn1	Zn	1.034789	-0.418366	0.382706
Zn2	Zn	1.534789	0.081634	0.882706
Zn3	Zn	1.034726	-0.594059	0.269526
Zn4	Zn	1.534726	-0.094059	0.769526
Zn5	Zn	0.921603	-0.418387	0.269534
Zn6	Zn	1.421603	0.081613	0.769534
Zn7	Zn	0.921589	-0.593995	0.382676
Zn8	Zn	1.421589	-0.093995	0.882676
O9	O	0.978177	-0.506202	0.326110
O10	O	1.478177	-0.006202	0.826110
O11	O	1.129497	-0.441690	0.367702
O12	O	1.629497	0.058310	0.867702
O13	O	1.019700	-0.570791	0.174810
O14	O	1.519700	-0.070791	0.674810
O15	O	0.936650	-0.271363	0.284563
O16	O	1.436650	0.228637	0.784563
O17	O	1.129451	-0.570771	0.284548
O18	O	1.629451	-0.070771	0.784548
O19	O	1.019807	-0.271348	0.367710
O20	O	1.519807	0.228652	0.867710
O21	O	0.936589	-0.441725	0.174816
O22	O	1.436589	0.058275	0.674816
O23	O	0.826885	-0.441663	0.284534
O24	O	1.326885	0.058337	0.784534
O25	O	0.936626	-0.570662	0.477397
O26	O	1.436626	-0.070662	0.977397
O27	O	0.826875	-0.570682	0.367658
O28	O	1.326875	-0.070682	0.867658
O29	O	1.019793	-0.441628	0.477419
O30	O	1.519793	0.058372	0.977419
O31	O	1.019686	-0.741072	0.284519
O32	O	1.519686	-0.241072	0.784519
O33	O	0.936565	-0.741025	0.367650
O34	O	1.436565	-0.241025	0.867650
C35	C	0.802321	-0.506169	0.326094
C36	C	1.302321	-0.006169	0.826094
C37	C	0.727089	-0.506180	0.326103
C38	C	1.227089	-0.006180	0.826103
C39	C	0.691769	-0.439086	0.369467
C40	C	1.191769	0.060914	0.869467
C41	C	0.621081	-0.439092	0.369469
C42	C	1.121081	0.060908	0.869469
C43	C	0.585713	-0.506197	0.326111
C44	C	1.085713	-0.006197	0.826111
C45	C	0.621038	-0.573294	0.282743
C46	C	1.121038	-0.073294	0.782743
C47	C	0.691725	-0.573282	0.282737
C48	C	1.191725	-0.073282	0.782737
C49	C	0.335964	-0.573341	0.282763
C50	C	0.835964	-0.073341	0.782763
C51	C	0.265272	-0.573350	0.282774
C52	C	0.765272	-0.073350	0.782774
C53	C	0.265321	-0.439151	0.369496
C54	C	0.765321	0.060849	0.869496
C55	C	0.336008	-0.439139	0.369490
C56	C	0.836008	0.060861	0.869490
C57	C	0.371326	-0.506231	0.326119
C58	C	0.871326	-0.006231	0.826119
C59	C	0.447974	-0.506223	0.326116
C60	C	0.947974	-0.006223	0.826116
C61	C	0.509066	-0.506211	0.326117
C62	C	1.009066	-0.006211	0.826117
C63	C	0.978135	-0.779169	0.326095
C64	C	1.478135	-0.279169	0.826095
C65	C	0.978180	-0.895946	0.326111
C66	C	1.478180	-0.395946	0.826111
C67	C	1.021510	-0.950797	0.282874
C68	C	1.521510	-0.450797	0.782874
C69	C	1.021553	-1.060521	0.282897
C70	C	1.521553	-0.560521	0.782897
C71	C	0.934930	-1.060533	0.369396
C72	C	1.434930	-0.560533	0.869396
C73	C	0.934891	-0.950811	0.369376
C74	C	1.434891	-0.450811	0.869376
C75	C	1.101446	-1.210401	0.258812
C76	C	1.601446	-0.710401	0.758812
C77	C	1.144771	-1.265256	0.215564
C78	C	1.644771	-0.765256	0.715564
C79	C	1.155188	-1.229704	0.149523
C80	C	1.655188	-0.729704	0.649523
C81	C	1.122271	-1.139298	0.126717
C82	C	1.622271	-0.639298	0.626717
C83	C	1.078942	-1.084449	0.169961
C84	C	1.578942	-0.584449	0.669961
C85	C	1.068537	-1.119999	0.236011
C86	C	1.568537	-0.619999	0.736011
C87	C	0.854997	-0.800929	0.393454
C88	C	1.354997	-0.300929	0.893454
C89	C	0.811663	-0.746077	0.436695
C90	C	1.311663	-0.246077	0.936695
C91	C	0.801239	-0.781627	0.502737
C92	C	1.301239	-0.281627	1.002737
C93	C	0.834144	-0.872037	0.525541
C94	C	1.334144	-0.372037	1.025541
C95	C	0.877478	-0.926888	0.482300
C96	C	1.377478	-0.426888	0.982300
C97	C	0.887903	-0.891331	0.416259
C98	C	1.387903	-0.391331	0.916259
C99	C	1.154720	-0.506236	0.326127
C100	C	1.654720	-0.006236	0.826127
C101	C	1.229952	-0.506250	0.326135
C102	C	1.729952	-0.006250	0.826135
C103	C	0.978215	-0.506136	0.502653
C104	C	1.478215	-0.006136	1.002653
C105	C	0.978231	-0.506107	0.577885
C106	C	1.478231	-0.006107	1.077885
C107	C	0.978237	-0.232168	0.326141
C108	C	1.478237	0.267832	0.826141
C109	C	0.978263	-0.115392	0.326154
C110	C	1.478263	0.384608	0.826154
C111	C	0.978178	-0.506192	0.150255
C112	C	1.478178	-0.006192	0.650255
C113	C	0.978293	-0.505924	0.075023
C114	C	1.478293	-0.005924	0.575023
C115	C	1.021537	-0.438916	0.613242
C116	C	1.521537	0.061084	1.113242
C117	C	1.021544	-0.438886	0.683931
C118	C	1.521544	0.061114	1.183931
C119	C	0.978248	-0.506052	0.719261
C120	C	1.478248	-0.006052	1.219261
C121	C	0.934937	-0.573247	0.683899
C122	C	1.434937	-0.073247	1.183899
C123	C	0.934927	-0.573271	0.613212
C124	C	1.434927	-0.073271	1.113212
C125	C	0.934975	-0.573149	0.968973
C126	C	1.434975	-0.073149	1.468973
C127	C	0.934990	-0.573122	1.039665
C128	C	1.434990	-0.073122	1.539665
C129	C	1.021592	-0.438763	1.039691
C130	C	1.521592	0.061237	1.539691
C131	C	1.021582	-0.438788	0.969004
C132	C	1.521582	0.061212	1.469004
C133	C	0.978269	-0.505977	0.933648
C134	C	1.478269	-0.005977	1.433648
C135	C	0.978261	-0.506008	0.857000
C136	C	1.478261	-0.006008	1.357000
C137	C	0.978259	-0.506028	0.795908
C138	C	1.478259	-0.006028	1.295908
H139	H	0.236556	-0.384517	0.404808
H140	H	0.736556	0.115483	0.904808
H141	H	1.056810	-0.384174	0.712715
H142	H	1.556810	0.115826	1.212715
F143	F	0.729404	-0.367667	0.415618
F144	F	1.229404	0.132333	0.915618
F145	F	0.583494	-0.367684	0.415624
F146	F	1.083494	0.132316	0.915624
H147	H	1.056841	-0.384097	0.940242
H148	H	1.556841	0.115903	1.440242
F149	F	1.067688	-0.367249	1.077325
F150	F	1.567688	0.132751	1.577325
H151	H	1.056760	-0.906129	0.247646
H152	H	1.556760	-0.406129	0.747646
H153	H	0.825657	-0.900982	0.579318
H154	H	1.325657	-0.400982	1.079318
F155	F	0.729314	-0.644693	0.236584
F156	F	1.229314	-0.144693	0.736584
H157	H	0.899656	-0.627975	0.584425
H158	H	1.399656	-0.127975	1.084425
H159	H	0.364801	-0.384499	0.404799
H160	H	0.864801	0.115501	0.904799
F161	F	0.227633	-0.644774	0.236622
F162	F	0.727633	-0.144774	0.736622
H163	H	1.056796	-0.384224	0.584481
H164	H	1.556796	0.115776	1.084481
H165	H	0.364712	-0.627973	0.247449
H166	H	0.864712	-0.127973	0.747449
F167	F	0.776624	-0.649875	0.412415
F168	F	1.276624	-0.149875	0.912415
H169	H	0.899717	-0.627874	0.940195
H170	H	1.399717	-0.127874	1.440195
H171	H	0.592236	-0.627927	0.247436
H172	H	1.092236	-0.127927	0.747436
H173	H	1.130751	-1.110365	0.072937
H174	H	1.630751	-0.610365	0.572937
H175	H	0.899685	-1.105217	0.404619
H176	H	1.399685	-0.605217	0.904619
F177	F	0.888855	-0.644727	0.721502
F178	F	1.388855	-0.144727	1.221502
H179	H	0.765951	-0.736958	0.537943
H180	H	1.265951	-0.236958	1.037943
F181	F	0.912499	-1.023111	0.506572
F182	F	1.412499	-0.523111	1.006572
H183	H	0.899730	-0.627819	1.068429
H184	H	1.399730	-0.127819	1.568429
H185	H	1.052143	-1.010841	0.151392
H186	H	1.552143	-0.510841	0.651392
H187	H	1.190465	-1.274375	0.114311
H188	H	1.690465	-0.774375	0.614311
H189	H	0.863486	-0.771969	0.339679
H190	H	1.363486	-0.271969	0.839679
F191	F	1.179802	-1.361470	0.239838
F192	F	1.679802	-0.861470	0.739838
H193	H	1.092975	-1.239350	0.312589
H194	H	1.592975	-0.739350	0.812589
