data_functionalizedCrystal
_audit_creation_method	'MofGen! by Chris Wilmer'
_symmetry_space_group_name_H-M	'P1'
_symmetry_Int_Tables_number	1
_symmetry_cell_setting	triclinic
loop_
_symmetry_equiv_pos_as_xyz
  x,y,z
_cell_length_a	12.827893
_cell_length_b	14.908520
_cell_length_c	12.827885
_cell_angle_alpha	93.263527
_cell_angle_beta	89.980538
_cell_angle_gamma	93.320575
loop_
_atom_site_label
_atom_site_type_symbol
_atom_site_fract_x
_atom_site_fract_y
_atom_site_fract_z
Zn1	Zn	1.573617	-0.359115	-0.614817
Zn2	Zn	1.563403	-0.509998	-0.450147
Zn3	Zn	1.398854	-0.359159	-0.440093
Zn4	Zn	1.388741	-0.509931	-0.624843
O5	O	1.481154	-0.434551	-0.532475
O6	O	1.718497	-0.379139	-0.592984
O7	O	1.541534	-0.490036	-0.302580
O8	O	1.430544	-0.232908	-0.454867
O9	O	1.710994	-0.489993	-0.472002
O10	O	1.558941	-0.232876	-0.583236
O11	O	1.420640	-0.379214	-0.295194
O12	O	1.251278	-0.379149	-0.464589
O13	O	1.413307	-0.489879	-0.769746
O14	O	1.243847	-0.489921	-0.600323
O15	O	1.549134	-0.379074	-0.762380
O16	O	1.531727	-0.636234	-0.481724
O17	O	1.403403	-0.636184	-0.610072
C18	C	1.209645	-0.434533	-0.532454
C19	C	1.093491	-0.434548	-0.532471
C20	C	1.038051	-0.489447	-0.599545
C21	C	0.918000	-0.489463	-0.599564
C22	C	1.465388	-0.668943	-0.548100
C23	C	1.458739	-0.769217	-0.554820
C24	C	1.580005	-0.957632	-0.433905
C25	C	1.573761	-1.051849	-0.440215
C26	C	1.440013	-1.051867	-0.573755
C27	C	1.446257	-0.957651	-0.567444
C28	C	1.516254	-0.910537	-0.497516
C29	C	1.522492	-0.816319	-0.491201
C30	C	1.388750	-0.816339	-0.624745
C31	C	1.382506	-0.910555	-0.631056
C32	C	1.753723	-0.434569	-0.532497
C33	C	1.869875	-0.434576	-0.532506
C34	C	1.481232	-0.434464	-0.805039
C35	C	1.481265	-0.434427	-0.921190
C36	C	1.497010	-0.199243	-0.516811
C37	C	1.503767	-0.098969	-0.510137
C38	C	1.421464	-0.379578	-0.969319
C39	C	1.421497	-0.379539	-1.089367
C40	C	1.481141	-0.434572	-0.260966
C41	C	1.481327	-0.434355	-0.144799
H42	H	0.917531	-0.387576	-0.475075
H43	H	1.052078	-0.387555	-0.475065
H44	H	1.325519	-0.948929	-0.687992
N45	N	1.597984	-0.765499	-0.415782
H46	H	1.637425	-0.809634	-0.376446
H47	H	1.648911	-0.726345	-0.455747
H48	H	1.636993	-0.919271	-0.376960
N49	N	1.642523	-1.102647	-0.371610
H50	H	1.687811	-1.058500	-0.326357
H51	H	1.597421	-1.141800	-0.325830
H52	H	1.532532	-0.481312	-1.103402
H53	H	1.383032	-1.090244	-0.630693
H54	H	1.370238	-0.332653	-0.921649
H55	H	1.336836	-0.777983	-0.676539
N56	N	1.353667	-0.317340	-1.144199
H57	H	1.398996	-0.275556	-1.186712
H58	H	1.302834	-0.354093	-1.191864
N59	N	1.092894	-0.551695	-0.675595
H60	H	1.170881	-0.542861	-0.664799
H61	H	1.069536	-0.616124	-0.663516
N62	N	0.854877	-0.551732	-0.675627
H63	H	0.778064	-0.542919	-0.664857
H64	H	0.874871	-0.537780	-0.749373
H65	H	1.532486	-0.481357	-0.968860
