data_functionalizedCrystal
_audit_creation_method	'MofGen! by Chris Wilmer'
_symmetry_space_group_name_H-M	'P1'
_symmetry_Int_Tables_number	1
_symmetry_cell_setting	triclinic
loop_
_symmetry_equiv_pos_as_xyz
  x,y,z
_cell_length_a	10.489711
_cell_length_b	16.109301
_cell_length_c	14.586319
_cell_angle_alpha	90.005214
_cell_angle_beta	89.994956
_cell_angle_gamma	96.005755
loop_
_atom_site_label
_atom_site_type_symbol
_atom_site_fract_x
_atom_site_fract_y
_atom_site_fract_z
O1	O	1.692374	-0.117180	-0.076277
O2	O	2.025707	0.216153	0.257057
O3	O	2.359041	0.549487	0.590390
O4	O	1.321013	-0.128216	-0.076272
O5	O	1.654347	0.205117	0.257062
O6	O	1.987680	0.538451	0.590395
O7	O	1.516895	-0.001729	-0.076265
O8	O	1.850229	0.331604	0.257068
O9	O	2.183562	0.664937	0.590402
O10	O	1.496492	-0.243667	-0.076283
O11	O	1.829825	0.089666	0.257050
O12	O	2.163159	0.423000	0.590383
O13	O	1.516882	-0.001727	0.076216
O14	O	1.850215	0.331606	0.409549
O15	O	2.183548	0.664939	0.742882
O16	O	1.321000	-0.128214	0.076209
O17	O	1.654333	0.205119	0.409543
O18	O	1.987666	0.538453	0.742876
O19	O	1.692360	-0.117178	0.076204
O20	O	2.025694	0.216155	0.409537
O21	O	2.359027	0.549489	0.742871
Cu22	Cu	1.506679	-0.122696	0.090129
Cu23	Cu	1.840012	0.210637	0.423463
Cu24	Cu	2.173345	0.543971	0.756796
Cu25	Cu	1.506695	-0.122698	-0.090197
Cu26	Cu	1.840028	0.210635	0.243136
Cu27	Cu	2.173362	0.543968	0.576470
O28	O	1.496478	-0.243665	0.076197
O29	O	1.829812	0.089668	0.409531
O30	O	2.163145	0.423002	0.742864
C31	C	1.516062	0.029252	-0.000024
C32	C	1.849395	0.362585	0.333309
C33	C	2.182729	0.695918	0.666643
C34	C	1.513584	0.121562	-0.000023
C35	C	1.846917	0.454895	0.333311
C36	C	2.180251	0.788229	0.666644
C37	C	1.273486	-0.127387	-0.000030
C38	C	1.606820	0.205946	0.333303
C39	C	1.940153	0.539280	0.666636
C40	C	1.131891	-0.124909	-0.000028
C41	C	1.465224	0.208425	0.333305
C42	C	1.798558	0.541758	0.666638
C43	C	0.948401	-0.200974	-0.000044
C44	C	1.281734	0.132359	0.333289
C45	C	1.615067	0.465693	0.666622
C46	C	1.041104	-0.162979	-0.075221
C47	C	1.374438	0.170354	0.258112
C48	C	1.707771	0.503687	0.591446
C49	C	1.041064	-0.162957	0.075113
C50	C	1.374397	0.170376	0.408446
C51	C	1.707731	0.503710	0.741780
C52	C	0.972321	-0.082457	-0.075286
C53	C	1.305655	0.250876	0.258047
C54	C	1.638988	0.584209	0.591380
C55	C	0.972272	-0.082446	0.075115
C56	C	1.305605	0.250887	0.408449
C57	C	1.638938	0.584221	0.741782
C58	C	1.064949	-0.044393	-0.000080
C59	C	1.398282	0.288940	0.333254
C60	C	1.731615	0.622274	0.666587
C61	C	1.739887	-0.118007	-0.000039
C62	C	2.073221	0.215326	0.333294
C63	C	2.406554	0.548659	0.666628
C64	C	1.881483	-0.120485	-0.000047
C65	C	2.214816	0.212848	0.333286
C66	C	2.548149	0.546181	0.666619
N67	N	1.506677	-0.122694	0.216961
N68	N	1.840010	0.210640	0.550294
N69	N	2.173343	0.543973	0.883628
C70	C	1.497312	-0.274646	-0.000045
C71	C	1.830645	0.058688	0.333288
C72	C	2.163978	0.392021	0.666621
C73	C	1.499790	-0.366956	-0.000053
C74	C	1.833123	-0.033623	0.333280
C75	C	2.166456	0.299710	0.666614
C76	C	1.624055	0.343161	-0.000039
C77	C	1.957388	0.676495	0.333295
C78	C	2.290722	1.009828	0.666628
C79	C	1.621717	0.429896	-0.000046
C80	C	1.955050	0.763229	0.333287
C81	C	2.288384	1.096563	0.666620
C82	C	1.389310	0.411438	-0.000040
C83	C	1.722643	0.744771	0.333294
C84	C	2.055976	1.078105	0.666627
C85	C	1.391649	0.324705	-0.000039
C86	C	1.724982	0.658038	0.333295
C87	C	2.058316	0.991372	0.666628
C88	C	1.509026	0.290569	-0.000034
C89	C	1.842359	0.623902	0.333300
C90	C	2.175692	0.957236	0.666633
C91	C	1.504348	0.464037	-0.000042
C92	C	1.837681	0.797370	0.333291
C93	C	2.171015	1.130703	0.666625
C94	C	1.501812	0.558078	-0.000050
C95	C	1.835145	0.891412	0.333283
C96	C	2.168479	1.224745	0.666617
C97	C	1.511562	0.196522	-0.000027
C98	C	1.844896	0.529855	0.333306
C99	C	2.178229	0.863188	0.666639
N100	N	1.506707	-0.122694	-0.217029
N101	N	1.840040	0.210640	0.116305
N102	N	2.173374	0.543973	0.449638
C103	C	1.593442	-0.066705	0.451970
C104	C	1.926775	0.266629	0.785304
C105	C	2.260109	0.599962	1.118637
C106	C	1.593446	-0.066703	0.547952
C107	C	1.926779	0.266631	0.881285
C108	C	2.260112	0.599964	1.214618
C109	C	1.419933	-0.178686	0.547955
C110	C	1.753266	0.154648	0.881289
C111	C	2.086599	0.487981	1.214622
C112	C	1.419924	-0.178683	0.451976
C113	C	1.753257	0.154650	0.785309
C114	C	2.086590	0.487984	1.118642
C115	C	1.506686	-0.122693	0.403986
C116	C	1.840019	0.210640	0.737319
C117	C	2.173352	0.543973	1.070653
C118	C	1.506698	-0.122694	0.595947
C119	C	1.840031	0.210639	0.929280
C120	C	2.173365	0.543973	1.262613
C121	C	1.506701	-0.122692	0.700014
C122	C	1.840035	0.210641	1.033347
C123	C	2.173368	0.543974	1.366680
C124	C	1.506681	-0.122694	0.299912
C125	C	1.840014	0.210639	0.633245
C126	C	2.173348	0.543973	0.966579
H127	H	0.897751	-0.267130	-0.000124
H128	H	1.231084	0.066203	0.333209
H129	H	1.564417	0.399537	0.666542
H130	H	1.664089	-0.021110	0.587018
H131	H	1.997422	0.312223	0.920351
H132	H	2.330756	0.645556	1.253685
F133	F	1.080965	-0.207493	-0.158304
F134	F	1.414299	0.125841	0.175029
F135	F	1.747632	0.459174	0.508362
H136	H	0.941737	-0.048417	0.138680
H137	H	1.275070	0.284917	0.472014
H138	H	1.608404	0.618250	0.805347
H139	H	1.349270	-0.224276	0.412904
H140	H	1.682604	0.109057	0.746237
H141	H	2.015937	0.442390	1.079571
F142	F	1.748977	0.306834	-0.000035
F143	F	2.082311	0.640168	0.333299
F144	F	2.415644	0.973501	0.666632
F145	F	1.080877	-0.207488	0.158185
F146	F	1.414210	0.125845	0.491518
F147	F	1.747544	0.459179	0.824851
H148	H	1.293746	0.439242	-0.000042
H149	H	1.627079	0.772575	0.333292
H150	H	1.960412	1.105909	0.666625
F151	F	1.327602	-0.238273	0.599036
F152	F	1.660935	0.095060	0.932369
F153	F	1.994268	0.428393	1.265702
H154	H	0.942012	-0.048433	-0.138917
H155	H	1.275345	0.284900	0.194417
H156	H	1.608679	0.618233	0.527750
H157	H	1.115367	0.021824	-0.000113
H158	H	1.448700	0.355158	0.333221
H159	H	1.782034	0.688491	0.666554
F160	F	1.269212	0.268729	-0.000040
F161	F	1.602546	0.602062	0.333294
F162	F	1.935879	0.935395	0.666627
H163	H	1.715386	0.472713	-0.000053
H164	H	2.048719	0.806047	0.333281
H165	H	2.382052	1.139380	0.666614
F166	F	1.685779	-0.007113	0.400900
F167	F	2.019112	0.326220	0.734233
F168	F	2.352445	0.659553	1.067566
