data_functionalizedCrystal
_audit_creation_method	'MofGen! by Chris Wilmer'
_symmetry_space_group_name_H-M	'P1'
_symmetry_Int_Tables_number	1
_symmetry_cell_setting	triclinic
loop_
_symmetry_equiv_pos_as_xyz
  x,y,z
_cell_length_a	12.759395
_cell_length_b	21.295418
_cell_length_c	12.759387
_cell_angle_alpha	90.036848
_cell_angle_beta	90.019431
_cell_angle_gamma	90.027245
loop_
_atom_site_label
_atom_site_type_symbol
_atom_site_fract_x
_atom_site_fract_y
_atom_site_fract_z
Zn1	Zn	1.606176	-0.250579	0.593931
Zn2	Zn	1.606028	-0.355861	0.418233
Zn3	Zn	1.430474	-0.250610	0.418271
Zn4	Zn	1.430428	-0.355814	0.593875
O5	O	1.518276	-0.303216	0.506077
O6	O	1.753177	-0.264552	0.570631
O7	O	1.582697	-0.341933	0.271216
O8	O	1.453863	-0.162516	0.441612
O9	O	1.753068	-0.341902	0.441547
O10	O	1.582950	-0.162493	0.570668
O11	O	1.453719	-0.264605	0.271245
O12	O	1.283447	-0.264558	0.441558
O13	O	1.453784	-0.341821	0.740904
O14	O	1.283413	-0.341851	0.570573
O15	O	1.582905	-0.264505	0.740944
O16	O	1.582652	-0.443945	0.441493
O17	O	1.453640	-0.443909	0.570536
C18	C	1.245309	-0.303203	0.506064
C19	C	1.128532	-0.303213	0.506084
C20	C	1.128626	-0.222798	0.640717
C21	C	1.073813	-0.182598	0.708042
C22	C	0.964091	-0.182609	0.708055
C23	C	0.909181	-0.222823	0.640733
C24	C	0.963994	-0.263023	0.573408
C25	C	1.073718	-0.263009	0.573405
C26	C	0.963900	-0.343434	0.438772
C27	C	1.073622	-0.343427	0.438762
C28	C	0.908990	-0.383649	0.371450
C29	C	0.963803	-0.423853	0.304129
C30	C	1.073532	-0.423840	0.304120
C31	C	1.128435	-0.383627	0.371437
C32	C	1.518153	-0.466768	0.506027
C33	C	1.518197	-0.536736	0.506041
C34	C	1.585705	-1.036191	0.439054
C35	C	1.585665	-0.970448	0.439029
C36	C	1.518424	-0.937575	0.506151
C37	C	1.451199	-0.970450	0.573284
C38	C	1.451233	-1.036191	0.573299
N39	N	1.510262	-0.834316	0.598085
N40	N	1.510235	-0.771864	0.598067
C41	C	1.518315	-0.739500	0.506107
N42	N	1.526442	-0.771947	0.414163
N43	N	1.526474	-0.834404	0.414182
C44	C	1.518379	-0.866290	0.506141
C45	C	1.585487	-0.635348	0.438946
C46	C	1.585440	-0.569604	0.438919
C47	C	1.450979	-0.569607	0.573184
C48	C	1.451021	-0.635349	0.573201
C49	C	1.518281	-0.668216	0.506083
C50	C	1.792310	-0.303229	0.506091
C51	C	1.909086	-0.303234	0.506097
C52	C	1.518356	-0.303154	0.780111
C53	C	1.518390	-0.303128	0.896888
C54	C	1.518428	-0.139026	0.506151
C55	C	1.518493	-0.069057	0.506182
C56	C	1.518258	-0.303232	0.233110
C57	C	1.518427	-0.303081	0.116334
C58	C	1.652853	-0.222624	0.896950
C59	C	1.720099	-0.182363	0.951842
C60	C	1.720125	-0.182340	1.061564
C61	C	1.652895	-0.222581	1.116396
C62	C	1.585648	-0.262843	1.061504
C63	C	1.585632	-0.262863	0.951780
C64	C	1.451181	-0.343342	1.061442
C65	C	1.451159	-0.343369	0.951720
C66	C	1.383951	-0.383583	1.116274
C67	C	1.316708	-0.423849	1.061382
C68	C	1.316686	-0.423870	0.951653
C69	C	1.383913	-0.383630	0.896828
H70	H	0.819649	-0.383653	0.371463
H71	H	1.640169	-0.542844	0.384250
O72	O	1.658035	-0.670811	0.366578
H73	H	1.611073	-0.700825	0.313099
H74	H	0.819839	-0.222824	0.640742
O75	O	1.133042	-0.139227	0.780649
H76	H	1.112004	-0.089811	0.762782
H77	H	1.652849	-0.222645	0.807609
O78	O	1.246778	-0.383612	0.371433
H79	H	1.275673	-0.418323	0.313314
H80	H	0.919462	-0.149871	0.762870
O81	O	1.378534	-0.670806	0.645609
H82	H	1.396505	-0.658146	0.728081
O83	O	1.246969	-0.222784	0.640713
H84	H	1.275885	-0.270275	0.661798
O85	O	0.904584	-0.467221	0.231521
H86	H	0.819080	-0.460474	0.242839
H87	H	1.118155	-0.456574	0.249292
O88	O	1.792620	-0.138966	0.892706
H89	H	1.781319	-0.145749	0.807187
O90	O	1.378453	-0.534162	0.645585
H91	H	1.389723	-0.482925	0.634302
O92	O	1.792655	-0.138920	1.120779
H93	H	1.839405	-0.110944	1.064224
O94	O	1.658234	-1.071642	0.366655
H95	H	1.704957	-1.037738	0.319964
H96	H	1.640399	-0.943683	0.384363
H97	H	1.383906	-0.383647	0.807487
O98	O	1.244193	-0.467242	1.120519
H99	H	1.291186	-0.499265	1.170502
H100	H	1.396448	-0.943681	0.627934
O101	O	1.378745	-1.071646	0.645711
H102	H	1.331982	-1.037746	0.692387
O103	O	1.652910	-0.222555	1.234739
H104	H	1.710964	-0.187799	1.263697
H105	H	1.261914	-0.456649	0.906967
H106	H	1.383972	-0.383559	1.205615
