data_functionalizedCrystal
_audit_creation_method	'MofGen! by Chris Wilmer'
_symmetry_space_group_name_H-M	'P1'
_symmetry_Int_Tables_number	1
_symmetry_cell_setting	triclinic
loop_
_symmetry_equiv_pos_as_xyz
  x,y,z
_cell_length_a	23.532361
_cell_length_b	23.532407
_cell_length_c	15.500227
_cell_angle_alpha	92.805592
_cell_angle_beta	87.178185
_cell_angle_gamma	82.839173
loop_
_atom_site_label
_atom_site_type_symbol
_atom_site_fract_x
_atom_site_fract_y
_atom_site_fract_z
O1	O	0.757938	0.066352	-0.071865
O2	O	1.257938	0.566352	0.428135
O3	O	0.592072	0.076382	-0.071887
O4	O	1.092072	0.576382	0.428113
O5	O	0.680006	-0.011565	-0.071860
O6	O	1.180006	0.488435	0.428140
O7	O	0.670004	0.154299	-0.071893
O8	O	1.170004	0.654299	0.428107
O9	O	0.674670	-0.006249	0.072027
O10	O	1.174670	0.493751	0.572027
O11	O	0.586736	0.081698	0.072000
O12	O	1.086736	0.581698	0.572000
O13	O	0.752602	0.071668	0.072022
O14	O	1.252602	0.571668	0.572022
Cu15	Cu	0.669182	0.077169	0.085149
Cu16	Cu	1.169182	0.577169	0.585149
Cu17	Cu	0.675492	0.070882	-0.085014
Cu18	Cu	1.175492	0.570882	0.414986
O19	O	0.664668	0.159615	0.071994
O20	O	1.164668	0.659615	0.571994
C21	C	0.568187	0.078789	0.000054
C22	C	1.068187	0.578789	0.500054
C23	C	0.504969	0.078033	0.000046
C24	C	1.004969	0.578033	0.500046
C25	C	0.234634	0.071832	-0.078381
C26	C	0.734634	0.571832	0.421619
C27	C	0.294034	0.072547	-0.078383
C28	C	0.794034	0.572547	0.421617
O29	O	0.327233	0.070433	-0.145086
O30	O	0.827233	0.570433	0.354914
N31	N	0.320831	0.075806	0.000050
N32	N	0.820831	0.575806	0.500050
C33	C	0.288225	0.078345	0.078490
C34	C	0.788225	0.578345	0.578490
O35	O	0.316473	0.081182	0.145203
O36	O	0.816473	0.581182	0.645203
C37	C	0.228827	0.077626	0.078491
C38	C	0.728827	0.577626	0.578491
C39	C	0.202033	0.074372	0.000053
C40	C	0.702033	0.574372	0.500053
C41	C	0.207839	0.068579	-0.156813
C42	C	0.707839	0.568579	0.343187
C43	C	0.148443	0.067865	-0.156810
C44	C	0.648443	0.567865	0.343190
C45	C	0.115842	0.070405	-0.078376
C46	C	0.615842	0.570405	0.421624
C47	C	0.142637	0.073659	0.000056
C48	C	0.642637	0.573659	0.500056
C49	C	0.196224	0.080160	0.156931
C50	C	0.696224	0.580160	0.656931
C51	C	0.136822	0.079440	0.156926
C52	C	0.636822	0.579440	0.656926
C53	C	0.110027	0.076187	0.078487
C54	C	0.610027	0.576187	0.578487
C55	C	0.050640	0.075485	0.078493
C56	C	0.550640	0.575485	0.578493
N57	N	0.023843	0.072226	0.000060
N58	N	0.523843	0.572226	0.500060
C59	C	0.056444	0.069686	-0.078375
C60	C	0.556444	0.569686	0.421625
C61	C	0.412966	0.079853	0.078481
C62	C	0.912966	0.579853	0.578481
C63	C	0.472362	0.080576	0.078481
C64	C	0.972362	0.580576	0.578481
C65	C	0.478167	0.074778	-0.078393
C66	C	0.978167	0.574778	0.421607
C67	C	0.418768	0.074059	-0.078392
C68	C	0.918768	0.574059	0.421608
C69	C	0.386169	0.076594	0.000048
C70	C	0.886169	0.576594	0.500048
C71	C	-0.068292	0.068188	-0.078363
C72	C	0.431708	0.568188	0.421637
C73	C	-0.127694	0.067477	-0.078354
C74	C	0.372306	0.567477	0.421646
C75	C	-0.133493	0.073272	0.078520
C76	C	0.366507	0.573272	0.578520
C77	C	-0.074096	0.073986	0.078511
C78	C	0.425904	0.573986	0.578511
C79	C	-0.041497	0.071442	0.000062
C80	C	0.458503	0.571442	0.500062
O81	O	0.017404	0.077595	0.145162
O82	O	0.517404	0.577595	0.645162
O83	O	0.028190	0.066842	-0.145077
O84	O	0.528190	0.566842	0.354923
C85	C	0.677083	-0.030123	0.000086
C86	C	1.177083	0.469877	0.500086
C87	C	0.676317	-0.093339	0.000092
C88	C	1.176317	0.406661	0.500092
C89	C	0.723553	-0.492452	0.000051
C90	C	1.223553	0.007548	0.500051
C91	C	0.722842	-0.551852	0.000045
C92	C	1.222842	-0.051852	0.500045
O93	O	0.766630	-0.588605	0.000018
O94	O	1.266630	-0.088605	0.500018
N95	N	0.670565	-0.574470	0.000038
N96	N	1.170565	-0.074470	0.500038
C97	C	0.618996	-0.537684	0.000030
C98	C	1.118996	-0.037684	0.500030
O99	O	0.574464	-0.562376	0.000023
O100	O	1.074464	-0.062376	0.500023
C101	C	0.619708	-0.478285	0.000030
C102	C	1.119708	0.021715	0.500030
C103	C	0.671988	-0.455671	0.000045
C104	C	1.171988	0.044329	0.500045
C105	C	0.775829	-0.469837	0.000065
C106	C	1.275829	0.030163	0.500065
C107	C	0.776540	-0.410440	0.000074
C108	C	1.276540	0.089560	0.500074
C109	C	0.724975	-0.373659	0.000068
C110	C	1.224975	0.126341	0.500068
C111	C	0.672699	-0.396274	0.000054
C112	C	1.172699	0.103726	0.500054
C113	C	0.568139	-0.441500	0.000016
C114	C	1.068139	0.058500	0.500016
C115	C	0.568856	-0.382098	0.000015
C116	C	1.068856	0.117902	0.500015
C117	C	0.621136	-0.359484	0.000031
C118	C	1.121136	0.140516	0.500031
C119	C	0.621845	-0.300097	0.000056
C120	C	1.121845	0.199903	0.500056
N121	N	0.674122	-0.277479	0.000062
N122	N	1.174122	0.222521	0.500062
C123	C	0.725687	-0.314260	0.000068
C124	C	1.225687	0.185740	0.500068
C125	C	0.617504	-0.662426	0.000027
C126	C	1.117504	-0.162426	0.500027
C127	C	0.616791	-0.721824	0.000033
C128	C	1.116791	-0.221824	0.500033
C129	C	0.720638	-0.735988	0.000046
C130	C	1.220638	-0.235988	0.500046
C131	C	0.721350	-0.676589	0.000047
C132	C	1.221350	-0.176589	0.500047
C133	C	0.669781	-0.639809	0.000034
C134	C	1.169781	-0.139809	0.500034
C135	C	0.727176	-0.189523	0.000086
C136	C	1.227176	0.310477	0.500086
C137	C	0.727882	-0.130121	0.000098
C138	C	1.227882	0.369879	0.500098
C139	C	0.624036	-0.115962	0.000081
C140	C	1.124036	0.384038	0.500081
C141	C	0.623329	-0.175359	0.000073
C142	C	1.123329	0.324641	0.500073
C143	C	0.674904	-0.212139	0.000073
C144	C	1.174904	0.287861	0.500073
O145	O	0.578080	-0.263309	0.000079
O146	O	1.078080	0.236691	0.500079
O147	O	0.770211	-0.289560	0.000064
O148	O	1.270211	0.210440	0.500064
C149	C	0.776487	0.069261	0.000079
C150	C	1.276487	0.569261	0.500079
C151	C	0.839705	0.070017	0.000081
C152	C	1.339705	0.570017	0.500081
C153	C	0.667591	0.178173	0.000046
C154	C	1.167591	0.678173	0.500046
C155	C	0.668357	0.241389	0.000034
C156	C	1.168357	0.741389	0.500034
N157	N	0.664747	0.081590	0.204832
N158	N	1.164747	0.581590	0.704832
N159	N	0.679931	0.066456	-0.204698
N160	N	1.179931	0.566456	0.295302
C161	C	0.702021	0.044337	0.250120
C162	C	1.202021	0.544337	0.750120
C163	C	0.698673	0.047686	0.340692
C164	C	1.198673	0.547686	0.840692
C165	C	0.658053	0.088291	0.385974
C166	C	1.158053	0.588291	0.885974
C167	C	0.620776	0.125546	0.340679
C168	C	1.120776	0.625546	0.840679
C169	C	0.624122	0.122193	0.250109
C170	C	1.124122	0.622193	0.750109
C171	C	0.645999	0.100358	0.659437
C172	C	1.145999	0.600358	1.159437
C173	C	0.642657	0.103708	0.750014
C174	C	1.142657	0.603708	1.250014
C175	C	0.720554	0.025848	0.750020
C176	C	1.220554	0.525848	1.250020
C177	C	0.723899	0.022502	0.659448
C178	C	1.223899	0.522502	1.159448
C179	C	0.686619	0.059754	0.614162
C180	C	1.186619	0.559754	1.114162
C181	C	0.654631	0.091717	0.478553
C182	C	1.154631	0.591717	0.978553
C183	C	0.690039	0.056326	0.521584
C184	C	1.190039	0.556326	1.021584
H185	H	0.396957	0.071410	-0.142263
H186	H	0.896957	0.571410	0.357737
O187	O	0.583921	0.162368	0.201248
O188	O	1.083921	0.662368	0.701248
H189	H	0.590281	0.207373	0.218597
H190	H	1.090281	0.707373	0.718597
O191	O	0.513336	0.072027	-0.162996
O192	O	1.013336	0.572027	0.337004
H193	H	0.559140	0.073065	-0.149812
H194	H	1.059140	0.573065	0.350188
H195	H	0.526862	-0.352154	0.000004
H196	H	1.026862	0.147846	0.500004
O197	O	0.561879	-0.622756	0.000026
O198	O	1.061879	-0.122756	0.500026
H199	H	0.557547	-0.593193	0.058671
H200	H	1.057547	-0.093193	0.558671
O201	O	0.610825	0.135514	0.527399
O202	O	1.110825	0.635514	1.027399
H203	H	0.585464	0.160858	0.480695
H204	H	1.085464	0.660858	0.980695
H205	H	0.218029	0.082807	0.220804
H206	H	0.718029	0.582807	0.720804
H207	H	0.609578	0.136776	0.786878
H208	H	1.109578	0.636776	1.286878
O209	O	-0.156593	0.063949	-0.162957
O210	O	0.343407	0.563949	0.337043
H211	H	-0.123938	0.062291	-0.217496
H212	H	0.376062	0.562291	0.282504
O213	O	0.101658	0.082180	0.241530
O214	O	0.601658	0.582180	0.741530
H215	H	0.130273	0.084568	0.296066
H216	H	0.630273	0.584568	0.796066
H217	H	-0.041757	0.066117	-0.142243
H218	H	0.458243	0.566117	0.357757
O219	O	0.605798	0.140540	0.610596
O220	O	1.105798	0.640540	1.110596
H221	H	0.576997	0.169342	0.657302
H222	H	1.076997	0.669342	1.157302
H223	H	0.817822	-0.499779	0.000067
H224	H	1.317822	0.000221	0.500067
H225	H	0.729023	0.017352	0.377566
H226	H	1.229023	0.517352	0.877566
H227	H	0.723110	0.023263	0.484713
H228	H	1.223110	0.523263	0.984713
O229	O	-0.045198	0.077500	0.163114
O230	O	0.454802	0.577500	0.663114
H231	H	-0.023574	0.116787	0.166863
H232	H	0.476426	0.616787	0.666863
O233	O	0.560404	-0.746213	0.000028
O234	O	1.060404	-0.246213	0.500028
H235	H	0.524670	-0.710652	0.000021
H236	H	1.024670	-0.210652	0.500021
O237	O	0.767719	-0.021288	0.610615
O238	O	1.267719	0.478712	1.110615
H239	H	0.763790	-0.017353	0.540027
H240	H	1.263790	0.482647	1.040027
H241	H	0.234377	0.066508	-0.220687
H242	H	0.734377	0.566508	0.279313
H243	H	0.494172	0.083235	0.142353
H244	H	0.994172	0.583235	0.642353
H245	H	0.580758	-0.193771	0.000085
H246	H	1.080758	0.306229	0.500085
H247	H	0.126633	0.065213	-0.220683
H248	H	0.626633	0.565213	0.279317
H249	H	0.582053	-0.086004	0.000079
H250	H	1.082053	0.413996	0.500079
O251	O	0.511751	-0.465884	-0.000004
O252	O	1.011751	0.034116	0.499996
H253	H	0.476021	-0.430320	-0.000018
H254	H	0.976021	0.069680	0.499982
O255	O	0.777737	-0.652199	0.000047
O256	O	1.277737	-0.152199	0.500047
H257	H	0.813471	-0.687760	0.000044
H258	H	1.313471	-0.187760	0.500044
H259	H	-0.160047	0.075342	0.142379
H260	H	0.339953	0.575342	0.642379
H261	H	0.819112	-0.392034	0.000082
H262	H	1.319112	0.107966	0.500082
O263	O	0.776255	-0.775669	0.000052
O264	O	1.276255	-0.275669	0.500052
H265	H	0.812731	-0.749968	0.000066
H266	H	1.312731	-0.249968	0.500066
H267	H	0.386425	0.081925	0.142360
H268	H	0.886425	0.581925	0.642360
O269	O	0.784273	-0.105729	0.000101
O270	O	1.284273	0.394271	0.500101
H271	H	0.820008	-0.141288	0.000091
H272	H	1.320008	0.358712	0.500091
H273	H	0.769173	-0.219463	0.000083
H274	H	1.269173	0.280537	0.500083
H275	H	0.735100	0.011275	0.213258
H276	H	1.235100	0.511275	0.713258
H277	H	0.750905	-0.004482	0.786901
H278	H	1.250905	0.495518	1.286901
H279	H	0.587699	0.158605	0.377553
H280	H	1.087699	0.658605	0.877553
