data_functionalizedCrystal
_audit_creation_method	'MofGen! by Chris Wilmer'
_symmetry_space_group_name_H-M	'P1'
_symmetry_Int_Tables_number	1
_symmetry_cell_setting	triclinic
loop_
_symmetry_equiv_pos_as_xyz
  x,y,z
_cell_length_a	15.944499
_cell_length_b	15.944493
_cell_length_c	9.130313
_cell_angle_alpha	89.993981
_cell_angle_beta	90.005612
_cell_angle_gamma	83.476327
loop_
_atom_site_label
_atom_site_type_symbol
_atom_site_fract_x
_atom_site_fract_y
_atom_site_fract_z
O1	O	1.114528	0.108122	0.121868
O2	O	0.869969	0.121524	0.121849
O3	O	0.998952	-0.007456	0.121871
O4	O	0.985545	0.237103	0.121846
O5	O	0.998943	-0.007448	-0.121728
O6	O	0.869960	0.121532	-0.121750
O7	O	1.114519	0.108130	-0.121731
Cu8	Cu	0.992239	0.114832	-0.143983
Cu9	Cu	0.992249	0.114823	0.144101
O10	O	0.985536	0.237110	-0.121753
C11	C	0.838670	0.120979	0.000048
C12	C	0.745422	0.119334	0.000041
C13	C	0.453871	0.194269	0.000055
C14	C	0.514912	0.155312	0.120169
C15	C	0.409787	0.113358	0.000076
C16	C	0.514889	0.155298	-0.120000
C17	C	0.574695	0.116299	0.000057
C18	C	0.469601	0.074379	0.120289
C19	C	0.469571	0.074376	-0.119989
C20	C	0.530595	0.035361	0.000154
C21	C	0.314787	0.111666	0.000088
C22	C	0.669694	0.117984	0.000055
C23	C	0.998400	-0.038747	0.000078
C24	C	0.996757	-0.131995	0.000096
C25	C	1.072679	-0.367769	0.000074
C26	C	1.031741	-0.418333	0.120177
C27	C	0.993713	-0.302716	0.000078
C28	C	1.031714	-0.418302	-0.119992
C29	C	0.990778	-0.467625	0.000054
C30	C	0.952796	-0.352052	0.120280
C31	C	0.952781	-0.352017	-0.119997
C32	C	0.911785	-0.402548	0.000135
C33	C	0.995405	-0.207716	0.000093
C34	C	0.989079	-0.562622	0.000050
C35	C	1.145818	0.108675	0.000074
C36	C	1.239066	0.110320	0.000089
C37	C	0.986088	0.268401	0.000043
C38	C	0.987731	0.361650	0.000034
N39	N	0.992237	0.114838	-0.346606
C40	C	1.043171	0.165803	-0.423273
C41	C	1.043183	0.165787	-0.576610
C42	C	0.941322	0.063839	-0.576598
C43	C	0.941314	0.063851	-0.423264
C44	C	1.094094	0.216790	-0.346614
C45	C	1.145031	0.267760	-0.423282
C46	C	1.145043	0.267745	-0.576619
C47	C	1.094119	0.216759	-0.653288
N48	N	0.992257	0.114810	0.346724
H49	H	0.535007	0.189534	0.221703
C50	C	0.408811	0.284971	0.000207
H51	H	0.424218	0.313581	0.085653
H52	H	0.424960	0.314009	-0.084252
H53	H	0.349448	0.283274	-0.000651
C54	C	1.201045	0.323838	-0.338953
H55	H	1.193738	0.316555	-0.236652
H56	H	1.258520	0.308259	-0.364053
H57	H	1.185420	0.381305	-0.364117
C58	C	1.094080	0.216806	-0.177950
H59	H	1.056448	0.179154	-0.143268
H60	H	1.149433	0.199118	-0.143228
H61	H	1.076330	0.272162	-0.143300
C62	C	1.164562	-0.346666	0.000231
H63	H	1.174412	-0.315160	-0.085149
H64	H	1.174041	-0.314309	0.084756
H65	H	1.201921	-0.397515	0.001160
C66	C	1.076775	-0.457380	-0.257161
H67	H	1.133899	-0.445728	-0.256997
H68	H	1.074945	-0.516721	-0.256659
H69	H	1.049288	-0.433783	-0.342455
H70	H	1.186525	0.309241	-0.639038
C71	C	0.907756	-0.312881	-0.257173
H72	H	0.861098	-0.273990	-0.228331
H73	H	0.946078	-0.284268	-0.312752
H74	H	0.888302	-0.356249	-0.315062
C75	C	1.094136	0.216734	-0.821955
H76	H	1.056515	0.179068	-0.856631
H77	H	1.076406	0.272077	-0.856683
H78	H	1.149499	0.199024	-0.856606
C79	C	1.076795	-0.457458	0.257347
H80	H	1.133925	-0.445823	0.257209
H81	H	1.049310	-0.433893	0.342638
H82	H	1.074960	-0.516803	0.256796
C83	C	0.885294	0.007773	-0.660924
H84	H	0.854960	-0.022581	-0.593301
H85	H	0.846637	0.042181	-0.720757
H86	H	0.919723	-0.030880	-0.720721
C87	C	0.885285	0.007794	-0.338924
H88	H	0.854948	-0.022564	-0.406538
H89	H	0.919710	-0.030842	-0.279081
H90	H	0.846616	0.042211	-0.279137
H91	H	0.563787	-0.031847	0.000225
C92	C	0.442632	0.028190	0.257628
H93	H	0.383140	0.027436	0.256824
H94	H	0.469593	-0.028088	0.257988
H95	H	0.458512	0.056746	0.342809
C96	C	0.442390	0.028190	-0.257159
H97	H	0.457714	0.057022	-0.342424
H98	H	0.469717	-0.027944	-0.258016
H99	H	0.382959	0.027019	-0.255680
C100	C	0.819830	-0.423434	0.000214
H101	H	0.791915	-0.400528	0.085607
H102	H	0.791585	-0.399720	-0.084299
H103	H	0.819265	-0.482947	-0.000586
C104	C	0.541989	0.201544	-0.257184
H105	H	0.515439	0.257987	-0.257035
H106	H	0.601532	0.201833	-0.256688
H107	H	0.525693	0.173348	-0.342467
H108	H	0.919470	-0.323229	0.221927
