data_functionalizedCrystal
_audit_creation_method	'MofGen! by Chris Wilmer'
_symmetry_space_group_name_H-M	'P1'
_symmetry_Int_Tables_number	1
_symmetry_cell_setting	triclinic
loop_
_symmetry_equiv_pos_as_xyz
  x,y,z
_cell_length_a	6.817900
_cell_length_b	17.982959
_cell_length_c	12.908943
_cell_angle_alpha	95.935468
_cell_angle_beta	100.860631
_cell_angle_gamma	102.451857
loop_
_atom_site_label
_atom_site_type_symbol
_atom_site_fract_x
_atom_site_fract_y
_atom_site_fract_z
V1	V	-3.991120	-0.104460	-0.329118
O2	O	-3.984602	0.005998	-0.322400
O3	O	-3.937793	-0.208068	-0.327303
O4	O	-3.929497	-0.102424	-0.472459
O5	O	-3.992956	-0.100377	-0.176239
V6	V	-4.477100	-0.091299	-0.310780
O7	O	-4.246989	-0.133331	-0.369345
O8	O	-4.671428	-0.062428	-0.270553
O9	O	-4.307221	0.012309	-0.312595
O10	O	-4.601015	-0.201757	-0.317498
O11	O	-4.592661	-0.095382	-0.463659
O12	O	-4.315518	-0.093335	-0.167439
C13	C	-3.782023	-0.233339	-0.322223
C14	C	-3.819621	-0.318037	-0.321695
C15	C	-3.771439	-0.098578	-0.507383
C16	C	-3.802306	-0.097599	-0.624568
C17	C	-4.018715	-0.361694	-0.326721
C18	C	-4.054032	-0.441277	-0.326230
C19	C	-3.890250	-0.477202	-0.320706
C20	C	-3.691141	-0.433540	-0.315683
C21	C	-3.655829	-0.353959	-0.316181
C22	C	-3.833546	-0.754481	-0.313675
C23	C	-3.868874	-0.834068	-0.313174
C24	C	-4.231749	-0.841800	-0.323724
C25	C	-4.196437	-0.762219	-0.324222
C26	C	-3.997334	-0.718564	-0.319204
C27	C	-3.959042	-0.632271	-0.319738
C28	C	-3.928537	-0.563492	-0.320164
C29	C	-4.223199	-0.103320	-0.855539
C30	C	-4.252210	-0.102400	-0.965645
C31	C	-3.889340	-0.094835	-0.954887
C32	C	-3.860329	-0.095754	-0.844781
C33	C	-4.027267	-0.099998	-0.795111
C34	C	-3.998255	-0.100923	-0.685004
C35	C	-3.635385	-0.093352	-0.674247
C36	C	-3.664396	-0.092433	-0.784353
C37	C	-4.126333	0.037576	-0.317672
C38	C	-4.067973	0.122273	-0.318207
C39	C	-4.136917	-0.097183	-0.132509
C40	C	-4.085290	-0.098159	-0.015323
H41	H	-4.152086	-0.332449	-0.331209
Br42	Br	-4.518125	-0.106903	-1.047651
H43	H	-3.753434	-0.091374	-0.995346
H44	H	-4.134188	-0.104382	-0.644566
H45	H	-4.359131	-0.106783	-0.815099
H46	H	-3.528486	-0.088975	-0.824809
H47	H	-3.475840	-0.090651	-0.625036
H48	H	-4.329807	-0.732973	-0.328715
H49	H	-4.393873	-0.877353	-0.327811
Br50	Br	-3.646581	-0.882822	-0.305673
Br51	Br	-4.324241	-0.500523	-0.333053
H52	H	-3.671428	-0.718946	-0.309583
H53	H	-3.557792	-0.462796	-0.311191
H54	H	-3.493710	-0.318414	-0.312093
