data_functionalizedCrystal
_audit_creation_method	'MofGen! by Chris Wilmer'
_symmetry_space_group_name_H-M	'P1'
_symmetry_Int_Tables_number	1
_symmetry_cell_setting	triclinic
loop_
_symmetry_equiv_pos_as_xyz
  x,y,z
_cell_length_a	15.625163
_cell_length_b	15.625110
_cell_length_c	13.330367
_cell_angle_alpha	108.076026
_cell_angle_beta	108.079408
_cell_angle_gamma	78.666164
loop_
_atom_site_label
_atom_site_type_symbol
_atom_site_fract_x
_atom_site_fract_y
_atom_site_fract_z
O1	O	0.117722	1.196328	0.394680
O2	O	0.131740	0.933875	0.304287
O3	O	-0.006498	1.072121	0.304296
O4	O	0.255960	1.058082	0.394670
O5	O	-0.006502	1.072101	0.471135
O6	O	0.131736	0.933855	0.471126
O7	O	0.117719	1.196308	0.561518
Cu8	Cu	0.124728	1.065080	0.531556
Cu9	Cu	0.124731	1.065104	0.334250
O10	O	0.255957	1.058062	0.561509
C11	C	0.131102	0.900277	0.375254
C12	C	0.129197	0.800196	0.338147
C13	C	0.126514	0.659147	0.194909
C14	C	0.128304	0.753188	0.229788
C15	C	0.128304	0.753174	0.411673
C16	C	0.126519	0.659130	0.376811
C17	C	0.125623	0.612124	0.268428
C18	C	0.125628	0.612108	0.450330
C19	C	0.123837	0.518073	0.415469
C20	C	0.122938	0.471061	0.307090
C21	C	0.123832	0.518089	0.233567
C22	C	0.126517	0.659117	0.558711
C23	C	0.125626	0.612094	0.632229
C24	C	0.123842	0.518057	0.597371
C25	C	0.122943	0.471044	0.488991
C26	C	0.122948	0.471028	0.670893
C27	C	0.121158	0.376993	0.636033
C28	C	0.121153	0.377009	0.454131
C29	C	-0.040089	1.071478	0.375264
C30	C	-0.140172	1.069581	0.338157
C31	C	-0.281230	1.066917	0.194921
C32	C	-0.187187	1.068700	0.229799
C33	C	-0.187190	1.068675	0.411678
C34	C	-0.281235	1.066887	0.376814
C35	C	-0.328248	1.066010	0.268434
C36	C	-0.328252	1.065980	0.450328
C37	C	-0.422290	1.064197	0.415467
C38	C	-0.469310	1.063322	0.307093
C39	C	-0.422285	1.064227	0.233574
C40	C	-0.281239	1.066864	0.558709
C41	C	-0.328256	1.065956	0.632223
C42	C	-0.422294	1.064167	0.597361
C43	C	-0.469314	1.063292	0.488986
C44	C	-0.469319	1.063262	0.670880
C45	C	-0.563356	1.061480	0.636019
C46	C	-0.563352	1.061510	0.454126
C47	C	0.289547	1.058705	0.490539
C48	C	0.389631	1.060602	0.527640
N49	N	0.124724	1.065070	0.670332
C50	C	0.118357	1.229906	0.490549
C51	C	0.120262	1.329987	0.527649
N52	N	0.124727	1.065121	0.195473
C53	C	0.185919	1.003885	1.142956
C54	C	0.063536	1.126346	1.142958
C55	C	0.063534	1.126336	1.037935
C56	C	0.124725	1.065100	0.985418
C57	C	0.185920	1.003875	1.037925
C58	C	0.002346	1.187566	0.985425
C59	C	0.002342	1.187559	0.880396
C60	C	0.063530	1.126318	0.827875
C61	C	0.124726	1.065090	0.880387
C62	C	0.185918	1.003855	0.827870
C63	C	0.247111	0.942621	0.880378
C64	C	0.247108	0.942635	0.985403
C65	C	0.063533	1.126305	0.722849
C66	C	0.185919	1.003845	0.722839
H67	H	0.121482	0.394491	0.278708
Br68	Br	0.125316	0.595341	0.047821
Br69	Br	-0.080689	1.270677	1.056700
H70	H	-0.460564	1.063497	0.145315
Br71	Br	0.330150	0.859540	1.056665
Br72	Br	-0.019500	1.209409	0.651601
Br73	Br	0.129509	0.817003	0.129998
Br74	Br	0.119955	0.313204	0.307043
H75	H	-0.289966	1.066674	0.720467
Br76	Br	-0.405507	1.064470	0.817966
Br77	Br	0.128933	0.786739	0.606019
Br78	Br	0.268957	0.920780	1.214204
Br79	Br	-0.019499	1.209457	1.214233
Br80	Br	0.126842	0.675896	0.779316
Br81	Br	-0.080703	1.270656	0.809141
H82	H	0.123669	0.509316	0.759136
H83	H	0.123114	0.479813	0.145314
Br84	Br	-0.123380	1.069939	0.130020
H85	H	0.120449	0.338704	0.695904
Br86	Br	-0.627161	1.060298	0.307030
Br87	Br	-0.153616	1.069293	0.606024
H88	H	-0.545881	1.061874	0.278712
H89	H	-0.319509	1.066187	0.106662
Br90	Br	-0.627173	1.060258	0.735791
Br91	Br	0.268962	0.920728	0.651569
H92	H	0.129031	0.791460	0.499918
H93	H	-0.148900	1.069393	0.499923
Br94	Br	0.330162	0.859528	0.809100
