data_functionalizedCrystal
_audit_creation_method	'MofGen! by Chris Wilmer'
_symmetry_space_group_name_H-M	'P1'
_symmetry_Int_Tables_number	1
_symmetry_cell_setting	triclinic
loop_
_symmetry_equiv_pos_as_xyz
  x,y,z
_cell_length_a	10.654550
_cell_length_b	9.065218
_cell_length_c	9.730223
_cell_angle_alpha	90.000469
_cell_angle_beta	89.996251
_cell_angle_gamma	84.750394
loop_
_atom_site_label
_atom_site_type_symbol
_atom_site_fract_x
_atom_site_fract_y
_atom_site_fract_z
O1	O	1.668655	0.207228	-0.114397
O2	O	1.303254	0.226972	-0.114374
O3	O	1.493507	0.002417	-0.114383
O4	O	1.478402	0.431784	-0.114388
O5	O	1.493505	0.002422	0.114197
O6	O	1.303252	0.226978	0.114206
O7	O	1.668653	0.207234	0.114183
Zn8	Zn	1.485952	0.217107	0.150486
Zn9	Zn	1.485955	0.217099	-0.150678
O10	O	1.478400	0.431790	0.114192
C11	C	1.256450	0.225525	-0.000082
C12	C	1.116989	0.221188	-0.000073
C13	C	1.038027	0.353403	-0.000095
C14	C	0.906990	0.349319	-0.000118
C15	C	0.933890	0.080793	-0.000105
C16	C	1.064925	0.084879	-0.000071
C17	C	1.022496	0.508434	-0.000108
C18	C	0.891459	0.504350	-0.000132
C19	C	1.492055	-0.052559	-0.000096
C20	C	1.487714	-0.216378	-0.000102
C21	C	1.715457	0.208681	-0.000113
C22	C	1.854918	0.213018	-0.000130
C23	C	1.479852	0.486766	-0.000099
C24	C	1.484193	0.650585	-0.000102
N25	N	1.485959	0.217111	0.356023
N26	N	1.485958	0.217084	-0.356214
C27	C	1.570225	0.117712	0.427945
C28	C	1.570222	0.117694	0.571828
C29	C	1.401682	0.316488	0.571854
C30	C	1.401681	0.316497	0.427973
C31	C	1.667534	0.002944	0.427931
C32	C	1.667531	0.002926	0.571814
H33	H	1.058348	0.557796	-0.098796
C34	C	1.637952	-0.150252	0.375160
C35	C	1.632224	-0.179930	0.219560
C36	C	1.602642	-0.333120	0.166788
C37	C	1.578787	-0.456632	0.269617
C38	C	1.584515	-0.426957	0.425227
C39	C	1.614097	-0.273767	0.477998
H40	H	1.649884	-0.088496	0.143431
H41	H	1.598402	-0.355087	0.051595
H42	H	1.556889	-0.570032	0.230552
H43	H	1.566856	-0.518391	0.501356
H44	H	1.618337	-0.251800	0.593192
H45	H	0.845972	0.551205	0.098552
C46	C	1.790906	0.051492	0.367626
C47	C	1.917445	-0.037303	0.400817
C48	C	2.040814	0.011254	0.340514
C49	C	2.037645	0.148605	0.247019
C50	C	1.911101	0.237408	0.213822
C51	C	1.787732	0.188851	0.274126
H52	H	1.919795	-0.138985	0.470032
H53	H	2.134490	-0.054484	0.365089
H54	H	2.128970	0.184550	0.202378
H55	H	1.908750	0.339091	0.144607
H56	H	1.694056	0.254589	0.249551
H57	H	1.636593	-0.104243	0.616432
H58	H	1.764142	0.028206	0.610858
C59	C	1.062457	0.590343	0.129124
C60	C	1.033444	0.531014	0.272866
C61	C	1.073406	0.612919	0.402095
C62	C	1.142381	0.754153	0.387582
C63	C	1.171398	0.813489	0.243834
C64	C	1.131436	0.731584	0.114605
H65	H	0.982381	0.426458	0.283614
H66	H	1.051925	0.568994	0.508506
H67	H	1.171963	0.814784	0.483245
H68	H	1.222461	0.918046	0.233086
H69	H	1.152916	0.775510	0.008194
H70	H	1.129212	-0.022783	-0.000034
H71	H	0.849958	0.562761	-0.095800
C72	C	1.308985	0.425815	0.651002
C73	C	1.309197	0.426066	0.809265
C74	C	1.216498	0.535398	0.888409
C75	C	1.123586	0.644478	0.809291
C76	C	1.123371	0.644231	0.651020
C77	C	1.216070	0.534899	0.571875
H78	H	1.377979	0.345315	0.867840
H79	H	1.216658	0.535581	1.005572
H80	H	1.054965	0.725412	0.867878
H81	H	1.054589	0.724982	0.592444
H82	H	1.215910	0.534716	0.454712
H83	H	0.891483	-0.030185	-0.000124
H84	H	1.333054	0.397423	0.369416
