data_functionalizedCrystal
_audit_creation_method	'MofGen! by Chris Wilmer'
_symmetry_space_group_name_H-M	'P1'
_symmetry_Int_Tables_number	1
_symmetry_cell_setting	triclinic
loop_
_symmetry_equiv_pos_as_xyz
  x,y,z
_cell_length_a	18.101398
_cell_length_b	18.101395
_cell_length_c	18.101390
_cell_angle_alpha	89.968753
_cell_angle_beta	89.977223
_cell_angle_gamma	90.026371
loop_
_atom_site_label
_atom_site_type_symbol
_atom_site_fract_x
_atom_site_fract_y
_atom_site_fract_z
Zn1	Zn	1.132110	-0.294895	-0.418847
Zn2	Zn	1.132009	-0.418752	-0.295009
Zn3	Zn	1.008272	-0.294919	-0.295008
Zn4	Zn	1.008219	-0.418689	-0.418797
O5	O	1.070152	-0.356814	-0.356915
O6	O	1.235729	-0.311342	-0.402441
O7	O	1.115575	-0.402362	-0.191376
O8	O	1.024764	-0.191283	-0.311456
O9	O	1.235655	-0.402339	-0.311457
O10	O	1.115747	-0.191266	-0.402440
O11	O	1.024666	-0.311382	-0.191375
O12	O	0.904632	-0.311321	-0.311408
O13	O	1.024674	-0.402232	-0.522437
O14	O	0.904593	-0.402255	-0.402355
O15	O	1.115696	-0.311281	-0.522473
O16	O	1.115524	-0.522377	-0.311409
O17	O	1.024576	-0.522331	-0.402356
C18	C	0.877742	-0.356784	-0.356877
C19	C	0.795428	-0.356789	-0.356878
C20	C	0.496337	-0.356835	-0.356940
C21	C	0.527662	-0.299336	-0.299997
C22	C	0.613280	-0.299490	-0.299754
C23	C	0.644719	-0.356812	-0.356909
C24	C	0.613602	-0.434825	-0.335587
C25	C	0.527957	-0.434505	-0.335191
C26	C	0.527949	-0.336999	-0.435339
C27	C	0.613600	-0.335262	-0.434911
C28	C	0.728579	-0.356803	-0.356893
C29	C	0.412477	-0.356849	-0.356954
C30	C	1.070053	-0.549225	-0.356893
C31	C	1.070079	-0.631539	-0.356909
C32	C	1.070241	-0.930630	-0.356949
C33	C	1.013152	-0.899306	-0.414312
C34	C	1.012881	-0.813688	-0.414133
C35	C	1.070161	-0.782247	-0.356930
C36	C	1.049034	-0.813402	-0.278878
C37	C	1.048666	-0.899047	-0.279221
C38	C	1.148582	-0.898978	-0.376950
C39	C	1.148122	-0.813327	-0.378661
C40	C	1.070116	-0.698388	-0.356914
C41	C	1.070284	-1.014489	-0.356959
C42	C	1.263314	-0.356845	-0.356954
C43	C	1.345628	-0.356858	-0.356971
C44	C	1.070190	-0.356747	-0.550077
C45	C	1.070206	-0.356718	-0.632391
C46	C	1.070272	-0.163652	-0.356953
C47	C	1.070323	-0.081338	-0.356970
C48	C	1.070233	-0.356695	-0.783100
C49	C	1.127503	-0.299466	-0.814476
C50	C	1.127742	-0.299621	-0.900095
C51	C	1.070259	-0.356671	-0.931482
C52	C	1.091134	-0.434784	-0.900376
C53	C	1.091535	-0.434467	-0.814731
C54	C	0.991948	-0.336488	-0.814649
C55	C	0.992383	-0.334753	-0.900301
C56	C	1.070272	-0.356662	-1.015342
C57	C	1.070221	-0.356709	-0.699240
C58	C	1.070158	-0.356828	-0.164505
C59	C	1.070285	-0.356648	-0.082191
H60	H	0.635018	-0.451938	-0.278892
H61	H	0.506114	-0.312302	-0.242242
H62	H	1.026099	-0.792621	-0.472007
H63	H	0.972875	-0.280507	-0.793053
H64	H	0.976634	-0.277267	-0.920634
C65	C	0.640917	-0.317211	-0.221274
N66	N	0.661733	-0.330561	-0.162159
C67	C	1.037622	-0.494062	-0.786684
N68	N	0.997022	-0.538954	-0.765562
C69	C	1.103435	-0.785887	-0.219560
N70	N	1.144410	-0.765159	-0.174882
H71	H	0.507692	-0.378879	-0.477766
C72	C	0.931698	-0.386944	-0.929130
N73	N	0.885994	-0.426269	-0.950833
H74	H	0.507946	-0.451327	-0.277877
C75	C	0.498813	-0.261480	-0.461526
N76	N	0.476870	-0.204594	-0.481240
C77	C	0.934306	-0.392792	-0.787227
N78	N	0.890896	-0.435201	-0.766567
H79	H	1.191116	-0.919235	-0.335170
C80	C	0.972484	-0.784516	-0.255582
N81	N	0.914824	-0.762760	-0.238040
H82	H	0.991399	-0.919087	-0.262279
H83	H	1.164054	-0.792961	-0.436103
H84	H	0.634320	-0.241640	-0.313119
C85	C	1.030825	-0.927067	-0.492752
N86	N	1.044137	-0.947983	-0.551835
C87	C	1.206119	-0.317714	-0.927795
N88	N	1.265155	-0.331346	-0.948659
H89	H	0.955437	-0.920889	-0.401230
C90	C	1.110097	-0.220988	-0.786680
N91	N	1.096985	-0.161877	-0.765741
C92	C	1.036521	-0.493957	-0.927838
N93	N	0.995385	-0.538525	-0.948525
H94	H	0.633944	-0.277853	-0.450989
H95	H	1.147720	-0.452174	-0.921855
H96	H	0.954812	-0.793261	-0.400884
H97	H	1.088443	-0.919771	-0.235023
C98	C	0.499959	-0.494345	-0.388772
N99	N	0.478874	-0.539419	-0.429126
H100	H	0.507091	-0.241309	-0.313215
C101	C	1.168836	-0.457545	-0.787758
N102	N	1.227063	-0.474923	-0.767446
C103	C	1.174603	-0.928081	-0.452533
N104	N	1.194192	-0.950000	-0.509465
C105	C	1.208625	-0.784412	-0.326331
N106	N	1.254194	-0.762634	-0.286908
H107	H	1.185182	-0.312699	-0.792968
H108	H	1.114700	-0.241710	-0.921129
C109	C	0.642509	-0.387720	-0.495299
N110	N	0.664281	-0.427239	-0.540782
C111	C	0.641121	-0.494257	-0.389854
N112	N	0.661853	-0.539020	-0.430728
