data_functionalizedCrystal
_audit_creation_method	'MofGen! by Chris Wilmer'
_symmetry_space_group_name_H-M	'P1'
_symmetry_Int_Tables_number	1
_symmetry_cell_setting	triclinic
loop_
_symmetry_equiv_pos_as_xyz
  x,y,z
_cell_length_a	19.188930
_cell_length_b	12.811457
_cell_length_c	11.892283
_cell_angle_alpha	80.674607
_cell_angle_beta	93.886934
_cell_angle_gamma	83.596719
loop_
_atom_site_label
_atom_site_type_symbol
_atom_site_fract_x
_atom_site_fract_y
_atom_site_fract_z
O1	O	0.091715	1.395740	-0.049068
O2	O	0.103433	1.087852	-0.017502
O3	O	-0.004082	1.250683	-0.034218
O4	O	0.199230	1.232910	-0.032352
O5	O	-0.013032	1.264231	-0.223611
O6	O	0.094483	1.101400	-0.206895
O7	O	0.082765	1.409288	-0.238462
Zn8	Zn	0.087203	1.257495	-0.252749
Zn9	Zn	0.098995	1.239645	-0.003215
O10	O	0.190280	1.246457	-0.221745
C11	C	0.098576	1.055236	-0.108160
C12	C	0.097429	0.937866	-0.096127
C13	C	0.085503	0.732087	-0.280016
C14	C	0.084425	0.621808	-0.268716
C15	C	0.094190	0.607027	-0.062228
C16	C	0.095268	0.717306	-0.073528
C17	C	0.090925	0.779832	-0.182426
C18	C	0.092009	0.890113	-0.193725
C19	C	0.101769	0.875331	0.012762
C20	C	0.100691	0.765052	0.024062
C21	C	-0.034568	1.256881	-0.128859
C22	C	-0.112073	1.255155	-0.128692
C23	C	-0.156993	1.350698	-0.138493
C24	C	-0.229816	1.349074	-0.138308
C25	C	-0.257717	1.251903	-0.128345
C26	C	-0.212788	1.156346	-0.118536
C27	C	-0.139966	1.157973	-0.118709
N28	N	-0.368772	1.182237	-0.185184
N29	N	-0.437950	1.180699	-0.185022
C30	C	-0.477125	1.246997	-0.127819
N31	N	-0.444510	1.314908	-0.070800
N32	N	-0.375326	1.316450	-0.070967
C33	C	-0.336680	1.250129	-0.128155
C34	C	-0.601008	1.340786	-0.137419
C35	C	-0.673832	1.339157	-0.137227
C36	C	-0.656803	1.146428	-0.117466
C37	C	-0.583980	1.148058	-0.117647
C38	C	-0.556088	1.245241	-0.127629
C39	C	0.220767	1.240259	-0.127102
C40	C	0.298272	1.241985	-0.127262
C41	C	0.087622	1.441904	-0.147801
C42	C	0.088769	1.559274	-0.159826
N43	N	0.079155	1.269685	-0.423049
C44	C	0.023118	1.354619	-0.609273
C45	C	0.028749	1.346074	-0.490057
C46	C	0.123934	1.201837	-0.475266
C47	C	0.118303	1.210381	-0.594481
C48	C	0.067892	1.286773	-0.661481
C49	C	0.062258	1.295312	-0.780699
C50	C	0.157446	1.151080	-0.765906
C51	C	0.163077	1.142536	-0.646690
N52	N	0.107037	1.227464	0.167085
H53	H	0.104223	0.714129	0.112723
Br54	Br	-0.032015	1.438159	-0.419206
Br55	Br	0.077061	0.557014	-0.401166
Br56	Br	0.231492	1.038869	-0.555756
H57	H	-0.266396	1.426878	-0.146285
H58	H	-0.578297	1.419917	-0.145542
Br59	Br	0.109145	0.940130	0.145215
Br60	Br	-0.078999	1.028296	-0.105404
H61	H	-0.134288	1.429831	-0.146617
H62	H	-0.547406	1.070257	-0.109672
Br63	Br	-0.250651	1.024469	-0.104999
H64	H	-0.710405	1.416962	-0.145202
Br65	Br	-0.694660	1.014549	-0.103932
H66	H	0.021210	1.357512	-0.835249
H67	H	0.097714	0.556102	0.026430
H68	H	-0.017933	1.416813	-0.663824
Br69	Br	0.192354	1.098181	-0.384329
Br70	Br	0.218208	1.058991	-0.836768
H71	H	0.088477	0.941020	-0.282395
H72	H	0.081976	0.782995	-0.368685
