data_functionalizedCrystal
_audit_creation_method	'MofGen! by Chris Wilmer'
_symmetry_space_group_name_H-M	'P1'
_symmetry_Int_Tables_number	1
_symmetry_cell_setting	triclinic
loop_
_symmetry_equiv_pos_as_xyz
  x,y,z
_cell_length_a	17.699083
_cell_length_b	13.339070
_cell_length_c	16.776229
_cell_angle_alpha	89.996888
_cell_angle_beta	89.998886
_cell_angle_gamma	99.456154
loop_
_atom_site_label
_atom_site_type_symbol
_atom_site_fract_x
_atom_site_fract_y
_atom_site_fract_z
O1	O	1.031106	0.127864	-0.066171
O2	O	1.531106	0.627864	0.433829
O3	O	0.814244	0.144499	-0.066196
O4	O	1.314244	0.644499	0.433804
O5	O	0.897786	-0.011021	-0.066184
O6	O	1.397786	0.488979	0.433816
O7	O	0.947563	0.283384	-0.066183
O8	O	1.447563	0.783384	0.433817
O9	O	0.897768	-0.011031	0.066392
O10	O	1.397768	0.488969	0.566392
O11	O	0.814226	0.144489	0.066380
O12	O	1.314226	0.644489	0.566380
O13	O	1.031088	0.127854	0.066406
O14	O	1.531088	0.627854	0.566406
Zn15	Zn	0.922654	0.136170	0.087442
Zn16	Zn	1.422654	0.636170	0.587442
Zn17	Zn	0.922677	0.136183	-0.087233
Zn18	Zn	1.422677	0.636183	0.412767
O19	O	0.947546	0.283374	0.066394
O20	O	1.447546	0.783374	0.566394
C21	C	0.785912	0.143898	0.000089
C22	C	1.285912	0.643898	0.500089
C23	C	0.701516	0.142110	0.000079
C24	C	1.201516	0.642110	0.500079
C25	C	0.889369	-0.048694	0.000102
C26	C	1.389369	0.451306	0.500102
C27	C	0.864305	-0.160935	0.000096
C28	C	1.364305	0.339065	0.500096
C29	C	0.672191	0.233397	0.000079
C30	C	1.172191	0.733397	0.500079
C31	C	0.592891	0.231710	0.000090
C32	C	1.092891	0.731710	0.500090
C33	C	0.542918	0.138736	0.000094
C34	C	1.042918	0.638736	0.500094
C35	C	0.572248	0.047442	0.000096
C36	C	1.072248	0.547442	0.500096
C37	C	0.651546	0.049129	0.000091
C38	C	1.151546	0.549129	0.500091
C39	C	0.252446	0.040635	0.000115
C40	C	0.752446	0.540635	0.500115
C41	C	0.173143	0.038955	0.000117
C42	C	0.673143	0.538955	0.500117
C43	C	0.193791	0.223216	0.000114
C44	C	0.693791	0.723216	0.500114
C45	C	0.273089	0.224904	0.000109
C46	C	0.773089	0.724904	0.500109
C47	C	0.302412	0.133610	0.000115
C48	C	0.802412	0.633610	0.500115
C49	C	0.388398	0.135440	0.000106
C50	C	0.888398	0.635440	0.500106
C51	C	0.456933	0.136906	0.000098
C52	C	0.956933	0.636906	0.500098
C53	C	1.059185	-0.526207	0.000119
C54	C	1.559185	-0.026207	0.500119
C55	C	1.082736	-0.420752	0.000129
C56	C	1.582736	0.079248	0.500129
C57	C	1.028130	-0.355792	0.000121
C58	C	1.528130	0.144208	0.500121
C59	C	0.949970	-0.396298	0.000102
C60	C	1.449970	0.103702	0.500102
C61	C	0.926417	-0.501763	0.000098
C62	C	1.426417	-0.001763	0.500098
C63	C	0.895362	-0.331349	0.000100
C64	C	1.395362	0.168651	0.500100
C65	C	0.817202	-0.371855	0.000082
C66	C	1.317202	0.128145	0.500082
C67	C	0.793652	-0.477310	0.000077
C68	C	1.293652	0.022690	0.500077
C69	C	0.848258	-0.542269	0.000086
C70	C	1.348258	-0.042269	0.500086
C71	C	0.918915	-0.225884	0.000104
C72	C	1.418915	0.274116	0.500104
C73	C	0.786147	-0.201441	0.000083
C74	C	1.286147	0.298559	0.500083
C75	C	0.762596	-0.306895	0.000073
C76	C	1.262596	0.193105	0.500073
C77	C	1.059420	0.128455	0.000119
C78	C	1.559420	0.628455	0.500119
C79	C	1.143816	0.130243	0.000124
C80	C	1.643816	0.630243	0.500124
C81	C	0.955963	0.321047	0.000106
C82	C	1.455963	0.821047	0.500106
C83	C	0.981027	0.433288	0.000107
C84	C	1.481027	0.933288	0.500107
N85	N	0.922644	0.136161	0.206654
N86	N	1.422644	0.636161	0.706654
N87	N	0.922692	0.136184	-0.206444
N88	N	1.422692	0.636184	0.293556
C89	C	0.959658	0.067325	0.248376
C90	C	1.459658	0.567325	0.748376
C91	C	0.959662	0.067324	0.331828
C92	C	1.459662	0.567324	0.831828
C93	C	0.922656	0.136165	0.373556
C94	C	1.422656	0.636165	0.873556
C95	C	0.885638	0.205004	0.331828
C96	C	1.385638	0.705004	0.831828
C97	C	0.885629	0.204999	0.248378
C98	C	1.385629	0.704999	0.748378
C99	C	0.885669	0.205024	0.668375
C100	C	1.385669	0.705024	1.168375
C101	C	0.885682	0.205026	0.751832
C102	C	1.385682	0.705026	1.251832
C103	C	0.959702	0.067349	0.751826
C104	C	1.459702	0.567349	1.251826
C105	C	0.959694	0.067344	0.668375
C106	C	1.459694	0.567344	1.168375
C107	C	0.922672	0.136179	0.626654
C108	C	1.422672	0.636179	1.126654
C109	C	0.922667	0.136178	0.536166
C110	C	1.422667	0.636178	1.036166
C111	C	0.922666	0.136172	0.464043
C112	C	1.422666	0.636172	0.964043
H113	H	0.712875	0.309107	0.000075
H114	H	1.212875	0.809107	0.500075
Br115	Br	0.105321	-0.087233	0.000121
Br116	Br	0.605321	0.412767	0.500121
Br117	Br	0.656524	-0.361880	0.000044
Br118	Br	1.156524	0.138120	0.500044
H119	H	0.989801	0.011272	0.365798
H120	H	1.489801	0.511272	0.865798
H121	H	0.855545	0.261086	0.785806
H122	H	1.355545	0.761086	1.285806
Br123	Br	1.133284	-0.614367	0.000150
Br124	Br	1.633284	-0.114367	0.500150
Br125	Br	0.691345	-0.074765	0.000097
Br126	Br	1.191345	0.425235	0.500097
H127	H	0.531553	-0.028259	0.000110
H128	H	1.031553	0.471741	0.500110
H129	H	0.855526	0.261074	0.634413
H130	H	1.355526	0.761074	1.134413
H131	H	0.989831	0.011291	0.634403
H132	H	1.489831	0.511291	1.134403
H133	H	0.829087	-0.628140	0.000074
H134	H	1.329087	-0.128140	0.500074
H135	H	0.855487	0.261051	0.214408
H136	H	1.355487	0.761051	0.714408
Br137	Br	1.009891	-0.026100	0.191754
Br138	Br	1.509891	0.473900	0.691754
H139	H	0.569019	0.306046	0.000089
H140	H	1.069019	0.806046	0.500089
Br141	Br	0.835407	0.298427	0.388456
Br142	Br	1.335407	0.798427	0.888456
Br143	Br	1.024986	-0.170925	0.000131
Br144	Br	1.524986	0.329075	0.500131
H145	H	0.989845	0.011296	0.785804
H146	H	1.489845	0.511296	1.285804
H147	H	0.313775	0.300613	0.000102
H148	H	0.813775	0.800613	0.500102
H149	H	0.169907	0.297552	0.000113
H150	H	0.669907	0.797552	0.500113
H151	H	1.047310	-0.269927	0.000129
H152	H	1.547310	0.230073	0.500129
Br153	Br	0.292231	-0.083263	0.000125
Br154	Br	0.792231	0.416737	0.500125
H155	H	1.146374	-0.387780	0.000146
H156	H	1.646374	0.112220	0.500146
Br157	Br	0.687578	-0.532280	0.000067
Br158	Br	1.187578	-0.032280	0.500067
H159	H	0.741682	-0.148550	0.000080
H160	H	1.241682	0.351450	0.500080
