data_functionalizedCrystal
_audit_creation_method	'MofGen! by Chris Wilmer'
_symmetry_space_group_name_H-M	'P1'
_symmetry_Int_Tables_number	1
_symmetry_cell_setting	triclinic
loop_
_symmetry_equiv_pos_as_xyz
  x,y,z
_cell_length_a	16.120530
_cell_length_b	16.120484
_cell_length_c	12.759387
_cell_angle_alpha	92.863831
_cell_angle_beta	87.081276
_cell_angle_gamma	90.167327
loop_
_atom_site_label
_atom_site_type_symbol
_atom_site_fract_x
_atom_site_fract_y
_atom_site_fract_z
Zn1	Zn	1.254492	-0.395556	-0.699367
Zn2	Zn	1.247331	-0.534628	-0.532099
Zn3	Zn	1.115427	-0.388537	-0.514373
Zn4	Zn	1.108344	-0.527509	-0.698405
O5	O	1.181399	-0.461558	-0.611061
O6	O	1.369908	-0.419921	-0.684999
O7	O	1.229801	-0.515290	-0.382727
O8	O	1.139835	-0.273105	-0.531896
O9	O	1.364647	-0.522097	-0.562108
O10	O	1.242006	-0.278262	-0.667811
O11	O	1.132891	-0.407957	-0.369703
O12	O	0.998122	-0.401055	-0.530964
O13	O	1.127764	-0.509964	-0.845554
O14	O	0.992918	-0.503157	-0.666172
O15	O	1.235138	-0.413019	-0.846260
O16	O	1.222933	-0.650046	-0.561176
O17	O	1.120820	-0.644816	-0.683361
C18	C	0.965348	-0.450573	-0.596541
C19	C	0.872919	-0.445893	-0.590356
C20	C	1.170354	-0.677604	-0.624112
C21	C	1.165705	-0.770033	-0.629735
C22	C	0.703692	-0.437330	-0.579070
C23	C	0.659943	-0.485846	-0.643132
C24	C	0.565779	-0.481082	-0.636853
C25	C	0.797864	-0.442094	-0.585348
C26	C	1.157221	-0.939264	-0.640024
C27	C	1.205725	-0.983018	-0.582125
C28	C	1.201005	-1.077184	-0.587849
C29	C	1.161940	-0.845090	-0.634301
C30	C	1.398293	-0.472586	-0.625638
C31	C	1.490721	-0.477286	-0.631850
C32	C	1.181460	-0.461480	-0.885093
C33	C	1.181486	-0.461447	-1.001870
C34	C	1.192509	-0.244669	-0.597983
C35	C	1.197244	-0.152243	-0.592411
C36	C	1.293351	-0.360442	-1.222049
C37	C	1.349244	-0.309983	-1.167555
C38	C	1.349219	-0.310009	-1.057833
C39	C	1.293297	-0.360502	-1.002603
C40	C	1.237404	-0.410962	-1.057097
C41	C	1.237433	-0.410928	-1.166821
C42	C	1.125594	-0.511907	-1.056364
C43	C	1.125613	-0.511877	-1.166085
C44	C	1.069672	-0.562400	-1.001134
C45	C	1.013773	-0.612856	-1.055628
C46	C	1.013800	-0.612827	-1.165356
C47	C	1.069720	-0.562336	-1.220579
C48	C	1.181388	-0.461577	-0.338094
C49	C	1.181535	-0.461384	-0.221315
H50	H	0.693208	-0.530959	-0.702694
Cl51	Cl	1.087639	-0.990613	-0.723186
H52	H	1.293367	-0.360404	-1.311388
H53	H	0.968288	-0.653920	-1.209719
Cl54	Cl	1.293277	-0.360545	-0.864668
H55	H	0.670428	-0.392221	-0.519514
H56	H	1.394733	-0.268923	-1.013464
Cl57	Cl	1.275307	-0.931670	-0.498949
Cl58	Cl	1.419545	-0.246512	-1.236991
Cl59	Cl	0.943483	-0.676329	-0.986192
Cl60	Cl	1.069754	-0.562291	-1.358515
Cl61	Cl	1.069643	-0.562437	-0.863198
