data_functionalizedCrystal
_audit_creation_method	'MofGen! by Chris Wilmer'
_symmetry_space_group_name_H-M	'P1'
_symmetry_Int_Tables_number	1
_symmetry_cell_setting	triclinic
loop_
_symmetry_equiv_pos_as_xyz
  x,y,z
_cell_length_a	9.016244
_cell_length_b	9.065218
_cell_length_c	9.065218
_cell_angle_alpha	85.015885
_cell_angle_beta	89.993936
_cell_angle_gamma	90.002981
loop_
_atom_site_label
_atom_site_type_symbol
_atom_site_fract_x
_atom_site_fract_y
_atom_site_fract_z
O1	O	0.123337	-1.960385	-0.216365
O2	O	0.123339	-1.531100	-0.234112
O3	O	0.123335	-1.754615	-0.010596
O4	O	0.123341	-1.736869	-0.439881
O5	O	-0.123346	-1.754630	-0.010572
O6	O	-0.123342	-1.531114	-0.234088
O7	O	-0.123343	-1.960399	-0.216341
Cu8	Cu	-0.145866	-1.745758	-0.225212
Cu9	Cu	0.145862	-1.745741	-0.225240
O10	O	-0.123339	-1.736883	-0.439857
C11	C	-0.000001	-1.476120	-0.232394
C12	C	-0.000000	-1.312277	-0.227294
N13	N	-0.351053	-1.745780	-0.225192
N14	N	0.351048	-1.745730	-0.225249
C15	C	0.586083	-1.626312	-0.344931
C16	C	0.414192	-1.625848	-0.344646
C17	C	0.413411	-1.710447	-0.070717
C18	C	0.585356	-1.709616	-0.071384
C19	C	0.585566	-1.900867	-0.258618
C20	C	0.413611	-1.899853	-0.262137
C21	C	-0.000003	-1.752917	0.044403
C22	C	0.000004	-1.747817	0.208245
C23	C	0.000000	-2.015378	-0.218059
C24	C	0.000009	-2.179221	-0.223158
C25	C	0.000002	-1.738582	-0.494855
C26	C	0.000004	-1.743681	-0.658698
H27	H	0.372030	-1.647109	-0.459436
C28	C	0.355552	-2.025748	-0.152223
N29	N	0.311825	-2.120570	-0.069423
H30	H	0.626938	-1.793235	0.020519
H31	H	0.626224	-1.989792	-0.171332
C32	C	0.641985	-1.654609	-0.500502
N33	N	0.684099	-1.675926	-0.617681
C34	C	0.355252	-1.559289	-0.030577
N35	N	0.311452	-1.445432	-0.000353
C36	C	0.644437	-1.471752	-0.316122
N37	N	0.688384	-1.355337	-0.294412
C38	C	0.358623	-1.470401	-0.315473
N39	N	0.316771	-1.353312	-0.293495
H40	H	0.628959	-1.934370	-0.369010
H41	H	0.372880	-1.926575	-0.375840
C42	C	0.639544	-1.556744	-0.032107
N43	N	0.680352	-1.441595	-0.002528
H44	H	0.372507	-1.795068	0.020614
