data_functionalizedCrystal
_audit_creation_method	'MofGen! by Chris Wilmer'
_symmetry_space_group_name_H-M	'P1'
_symmetry_Int_Tables_number	1
_symmetry_cell_setting	triclinic
loop_
_symmetry_equiv_pos_as_xyz
  x,y,z
_cell_length_a	12.784890
_cell_length_b	23.532409
_cell_length_c	11.892095
_cell_angle_alpha	93.867696
_cell_angle_beta	86.513306
_cell_angle_gamma	77.978059
loop_
_atom_site_label
_atom_site_type_symbol
_atom_site_fract_x
_atom_site_fract_y
_atom_site_fract_z
O1	O	1.417116	-0.000413	-0.093968
O2	O	1.107404	0.023990	-0.093976
O3	O	1.271598	-0.071578	-0.093973
O4	O	1.252922	0.095154	-0.093971
O5	O	1.257908	-0.063621	0.094034
O6	O	1.093714	0.031947	0.094032
O7	O	1.403426	0.007544	0.094039
Zn8	Zn	1.246396	0.021008	0.123885
Zn9	Zn	1.264434	0.010525	-0.123822
O10	O	1.239232	0.103111	0.094036
C11	C	1.060943	0.029555	0.000027
C12	C	0.942899	0.034278	0.000024
C13	C	0.763299	0.093463	0.000023
C14	C	0.874210	0.089030	0.000023
C15	C	0.900669	-0.016045	0.000021
C16	C	0.789758	-0.011611	0.000021
C17	C	0.721076	0.043144	0.000024
C18	C	0.610161	0.047578	0.000032
C19	C	0.636623	-0.057497	0.000022
C20	C	0.747535	-0.061930	0.000022
C21	C	1.264278	-0.088793	0.000028
C22	C	1.262847	-0.151944	0.000019
C23	C	1.264225	-0.429244	-0.102469
C24	C	1.265553	-0.369905	-0.102469
O25	O	1.272624	-0.342903	-0.189623
N26	N	1.258749	-0.335896	0.000016
C27	C	1.250625	-0.361230	0.102507
O28	O	1.244960	-0.326854	0.189678
C29	C	1.249304	-0.420568	0.102506
C30	C	1.256099	-0.454573	0.000015
C31	C	1.271020	-0.463248	-0.204951
C32	C	1.269689	-0.522582	-0.204951
C33	C	1.261563	-0.547912	-0.102467
C34	C	1.254768	-0.513907	0.000015
C35	C	1.241188	-0.445902	0.204996
C36	C	1.239869	-0.505244	0.204986
C37	C	1.246663	-0.539249	0.102495
C38	C	1.245311	-0.598570	0.102500
N39	N	1.252116	-0.632579	0.000015
C40	C	1.260242	-0.607250	-0.102468
C41	C	1.253402	-0.236616	0.102501
C42	C	1.254715	-0.177278	0.102503
C43	C	1.269646	-0.185958	-0.102473
C44	C	1.268325	-0.245296	-0.102474
C45	C	1.260207	-0.270625	0.000017
C46	C	1.257446	-0.731855	-0.102459
C47	C	1.256110	-0.791194	-0.102450
C48	C	1.241185	-0.782510	0.102526
C49	C	1.242515	-0.723176	0.102517
C50	C	1.250650	-0.697851	0.000015
O51	O	1.238247	-0.625613	0.189609
O52	O	1.265920	-0.641634	-0.189625
C53	C	1.449888	0.001978	0.000034
C54	C	1.567932	-0.002745	0.000029
C55	C	1.246553	0.120326	0.000033
C56	C	1.247984	0.183477	0.000034
N57	N	1.234094	0.028163	0.292939
N58	N	1.276744	0.003366	-0.292876
C59	C	1.362349	-0.046448	0.529589
C60	C	1.353758	-0.041444	0.647931
C61	C	1.208315	0.043173	0.647967
C62	C	1.216907	0.038168	0.529625
C63	C	1.293927	-0.006643	0.470440
C64	C	1.302523	-0.011645	0.352096
C65	C	1.157076	0.072969	0.352134
C66	C	1.148485	0.077974	0.470476
H67	H	0.908583	0.130004	0.000024
H68	H	0.956609	-0.060625	0.000010
Br69	Br	0.670081	0.167773	0.000053
Br70	Br	1.278922	-0.568724	-0.344054
Br71	Br	1.231949	-0.399765	0.344101
H72	H	1.425069	-0.082932	0.481400
H73	H	1.246782	-0.257233	0.185967
Br74	Br	1.103779	0.103978	0.728299
H75	H	0.803470	-0.106511	0.000016
H76	H	0.602241	-0.098474	-0.000067
H77	H	1.234565	-0.803143	0.185965
H78	H	1.277641	-0.442633	-0.288410
H79	H	1.101366	0.105383	0.303962
Br80	Br	1.265326	-0.837340	-0.241554
H81	H	1.249162	-0.149593	0.185962
Br82	Br	1.268485	-0.697495	-0.241570
Br83	Br	1.043957	0.138785	0.550805
H84	H	1.365240	-0.048131	0.303909
Br85	Br	1.228859	-0.539617	0.344089
H86	H	0.554241	0.092163	0.000040
Br87	Br	1.277546	-0.291439	-0.241573
H88	H	1.236940	-0.695482	0.185974
Br89	Br	1.280646	-0.151567	-0.241559
H90	H	1.409472	-0.073858	0.696086
