data_functionalizedCrystal
_audit_creation_method	'MofGen! by Chris Wilmer'
_symmetry_space_group_name_H-M	'P1'
_symmetry_Int_Tables_number	1
_symmetry_cell_setting	triclinic
loop_
_symmetry_equiv_pos_as_xyz
  x,y,z
_cell_length_a	19.188930
_cell_length_b	15.538191
_cell_length_c	14.750779
_cell_angle_alpha	82.427828
_cell_angle_beta	77.396187
_cell_angle_gamma	114.791562
loop_
_atom_site_label
_atom_site_type_symbol
_atom_site_fract_x
_atom_site_fract_y
_atom_site_fract_z
O1	O	-0.206654	-1.230319	-0.079811
O2	O	-0.125950	-0.955725	-0.079820
O3	O	-0.269953	-1.100951	-0.079797
O4	O	-0.062651	-1.085093	-0.079835
O5	O	-0.310658	-1.142004	0.079860
O6	O	-0.166654	-0.996778	0.079837
O7	O	-0.247359	-1.271372	0.079846
Zn8	Zn	-0.213470	-1.140594	0.105190
Zn9	Zn	-0.159839	-1.086504	-0.105165
O10	O	-0.103356	-1.126146	0.079822
C11	C	-0.137858	-0.941121	0.000007
C12	C	-0.112707	-0.836443	0.000004
C13	C	-0.316188	-1.120965	0.000035
C14	C	-0.393308	-1.119427	0.000043
C15	C	-0.235450	-1.285976	0.000016
C16	C	-0.260600	-1.390652	0.000013
C17	C	-0.459635	-1.204639	0.000050
C18	C	-0.532092	-1.203187	0.000035
C19	C	-0.538221	-1.116524	0.000031
C20	C	-0.471879	-1.031299	0.000018
C21	C	-0.399422	-1.032751	0.000024
N22	N	-0.643440	-1.064252	0.054363
N23	N	-0.712273	-1.062879	0.054360
C24	C	-0.756526	-1.112146	0.000012
N25	N	-0.729353	-1.162854	-0.054321
N26	N	-0.660516	-1.164230	-0.054313
C27	C	-0.616784	-1.114941	0.000024
C28	C	-0.901421	-1.195790	0.000001
C29	C	-0.973876	-1.194333	-0.000020
C30	C	-0.913663	-1.022445	-0.000027
C31	C	-0.841208	-1.023901	-0.000016
C32	C	-0.835093	-1.110577	0.000003
C33	C	-0.057120	-1.106132	-0.000011
C34	C	0.020001	-1.107668	-0.000026
N35	N	-0.250073	-1.177515	0.248752
C36	C	-0.362580	-0.549690	0.000035
C37	C	-0.338928	-0.451325	0.000030
C38	C	-0.205893	-0.428328	0.000006
C39	C	-0.229535	-0.526694	0.000016
C40	C	-0.307879	-0.587367	0.000029
C41	C	-0.174835	-0.564371	0.000010
C42	C	-0.198474	-0.662727	0.000014
C43	C	-0.276813	-0.723406	0.000025
C44	C	-0.331518	-0.685723	0.000034
C45	C	-0.096490	-0.503694	-0.000011
C46	C	-0.041789	-0.541372	-0.000017
C47	C	-0.065429	-0.639731	-0.000005
C48	C	-0.143769	-0.700410	0.000006
C49	C	-0.010724	-0.677414	-0.000014
C50	C	-0.034363	-0.775770	-0.000009
C51	C	-0.167408	-0.798766	0.000010
N52	N	-0.123244	-1.049589	-0.248726
C53	C	-0.021047	-0.946472	0.600532
C54	C	-0.046693	-0.972351	0.701036
C55	C	-0.174180	-1.100975	0.701020
C56	C	-0.148545	-1.075104	0.600514
C57	C	-0.071978	-0.997852	0.550279
C58	C	-0.199476	-1.126484	0.550260
C59	C	-0.173842	-1.100617	0.449764
C60	C	-0.097277	-1.023370	0.399521
C61	C	-0.046344	-0.971985	0.449782
C62	C	-0.276041	-1.203739	0.600498
C63	C	-0.326973	-1.255119	0.550244
C64	C	-0.301341	-1.229248	0.449745
C65	C	-0.224776	-1.152002	0.399503
C66	C	-0.352274	-1.280633	0.399484
C67	C	-0.326640	-1.254767	0.298988
C68	C	-0.199142	-1.126135	0.299006
H69	H	-0.454663	-1.275216	0.000062
H70	H	-0.345414	-0.963358	0.000018
H71	H	-0.586105	-1.272579	0.000037
F72	F	-0.117653	-1.043906	0.245539
F73	F	-0.408458	-1.337337	0.603717
H74	H	0.022000	-0.491958	-0.000032
F75	F	-0.433757	-1.362856	0.452960
F76	F	-0.920180	-0.930209	-0.000036
H77	H	-0.368114	-1.296607	0.258071
H78	H	0.041299	-0.883560	0.559629
F79	F	-1.044469	-1.285031	-0.000018
F80	F	-0.414904	-0.750305	0.000059
H81	H	-0.296055	-0.803490	0.000016
H82	H	-0.231204	-0.848172	0.000027
H83	H	-0.896441	-1.266365	0.000012
H84	H	0.053065	-0.627997	-0.000034
H85	H	0.016002	-0.909073	0.408878
F86	F	-0.770614	-0.933207	-0.000020
H87	H	-0.426376	-0.599096	0.000052
F88	F	-0.478401	-0.939064	0.000008
F89	F	0.023856	-0.815871	-0.000017
H90	H	-0.005211	-0.930506	0.741948
F91	F	-0.122515	-0.363745	-0.000014
H92	H	-0.383477	-0.420654	0.000033
H93	H	-0.077245	-0.423607	-0.000017
H94	H	-0.076406	-1.002314	0.317690
H95	H	-0.236521	-1.163877	0.741933
H96	H	-0.296908	-1.224800	0.682329
