data_functionalizedCrystal
_audit_creation_method	'MofGen! by Chris Wilmer'
_symmetry_space_group_name_H-M	'P1'
_symmetry_Int_Tables_number	1
_symmetry_cell_setting	triclinic
loop_
_symmetry_equiv_pos_as_xyz
  x,y,z
_cell_length_a	13.897449
_cell_length_b	16.120444
_cell_length_c	13.897449
_cell_angle_alpha	87.114069
_cell_angle_beta	90.008641
_cell_angle_gamma	92.927498
loop_
_atom_site_label
_atom_site_type_symbol
_atom_site_fract_x
_atom_site_fract_y
_atom_site_fract_z
Zn1	Zn	1.455019	-0.332036	0.564906
Zn2	Zn	1.705019	-0.082036	0.814906
Zn3	Zn	1.955019	0.167964	1.064906
Zn4	Zn	2.205019	0.417964	1.314906
Zn5	Zn	1.446750	-0.471421	0.411776
Zn6	Zn	1.696750	-0.221421	0.661776
Zn7	Zn	1.946750	0.028579	0.911776
Zn8	Zn	2.196750	0.278579	1.161776
Zn9	Zn	1.293750	-0.332025	0.403617
Zn10	Zn	1.543750	-0.082025	0.653617
Zn11	Zn	1.793750	0.167975	0.903617
Zn12	Zn	2.043750	0.417975	1.153617
Zn13	Zn	1.285486	-0.471415	0.573021
Zn14	Zn	1.535486	-0.221415	0.823021
Zn15	Zn	1.785486	0.028585	1.073021
Zn16	Zn	2.035486	0.278585	1.323021
O17	O	1.370251	-0.401725	0.488330
O18	O	1.620251	-0.151725	0.738330
O19	O	1.870251	0.098275	0.988330
O20	O	2.120251	0.348275	1.238330
O21	O	1.588903	-0.350533	0.544612
O22	O	1.838903	-0.100533	0.794612
O23	O	2.088903	0.149467	1.044612
O24	O	2.338903	0.399467	1.294612
O25	O	1.426453	-0.452928	0.275712
O26	O	1.676453	-0.202928	0.525712
O27	O	1.926453	0.047072	0.775712
O28	O	2.176453	0.297072	1.025712
O29	O	1.322062	-0.215359	0.418202
O30	O	1.572062	0.034641	0.668202
O31	O	1.822062	0.284641	0.918202
O32	O	2.072062	0.534641	1.168202
O33	O	1.582828	-0.452939	0.432108
O34	O	1.832828	-0.202939	0.682108
O35	O	2.082828	0.047061	0.932108
O36	O	2.332828	0.297061	1.182108
O37	O	1.440545	-0.215367	0.536701
O38	O	1.690545	0.034633	0.786701
O39	O	1.940545	0.284633	1.036701
O40	O	2.190545	0.534633	1.286701
O41	O	1.314044	-0.350515	0.269717
O42	O	1.564044	-0.100515	0.519717
O43	O	1.814044	0.149485	0.769717
O44	O	2.064044	0.399485	1.019717
O45	O	1.157673	-0.350509	0.426070
O46	O	1.407673	-0.100509	0.676070
O47	O	1.657673	0.149491	0.926070
O48	O	1.907673	0.399491	1.176070
O49	O	1.307977	-0.452928	0.706926
O50	O	1.557977	-0.202928	0.956926
O51	O	1.807977	0.047072	1.206926
O52	O	2.057977	0.297072	1.456926
O53	O	1.151601	-0.452917	0.550530
O54	O	1.401601	-0.202917	0.800530
O55	O	1.651601	0.047083	1.050530
O56	O	1.901601	0.297083	1.300530
O57	O	1.432532	-0.350527	0.700965
O58	O	1.682532	-0.100527	0.950965
O59	O	1.932532	0.149473	1.200965
O60	O	2.182532	0.399473	1.450965
O61	O	1.418439	-0.588089	0.439976
O62	O	1.668439	-0.338089	0.689976
O63	O	1.918439	-0.088089	0.939976
O64	O	2.168439	0.161911	1.189976
O65	O	1.299959	-0.588084	0.558441
O66	O	1.549959	-0.338084	0.808441
O67	O	1.799959	-0.088084	1.058441
O68	O	2.049959	0.161916	1.308441
C69	C	1.119638	-0.401712	0.488296
C70	C	1.369638	-0.151712	0.738296
C71	C	1.619638	0.098288	0.988296
C72	C	1.869638	0.348288	1.238296
C73	C	1.012423	-0.401726	0.488305
C74	C	1.262423	-0.151726	0.738305
C75	C	1.512423	0.098274	0.988305
C76	C	1.762423	0.348274	1.238305
C77	C	0.925353	-0.401729	0.488321
C78	C	1.175353	-0.151729	0.738321
C79	C	1.425353	0.098271	0.988321
C80	C	1.675353	0.348271	1.238321
C81	C	0.816120	-0.401735	0.488351
C82	C	1.066120	-0.151735	0.738351
C83	C	1.316120	0.098265	0.988351
C84	C	1.566120	0.348265	1.238351
C85	C	1.357431	-0.618337	0.500995
C86	C	1.607431	-0.368337	0.750995
C87	C	1.857431	-0.118337	1.000995
C88	C	2.107431	0.131663	1.250995
C89	C	1.352035	-0.711005	0.506446
C90	C	1.602035	-0.461005	0.756446
C91	C	1.852035	-0.211005	1.006446
C92	C	2.102035	0.038995	1.256446
C93	C	1.398480	-0.921933	0.460262
C94	C	1.648480	-0.671933	0.710262
C95	C	1.898480	-0.421933	0.960262
C96	C	2.148480	-0.171933	1.210262
C97	C	1.342201	-0.880665	0.516408
C98	C	1.592201	-0.630665	0.766408
C99	C	1.842201	-0.380665	1.016408
C100	C	2.092201	-0.130665	1.266408
C101	C	1.347674	-0.786257	0.510863
C102	C	1.597674	-0.536257	0.760863
C103	C	1.847674	-0.286257	1.010863
C104	C	2.097674	-0.036257	1.260863
C105	C	1.393008	-1.016349	0.465805
C106	C	1.643008	-0.766349	0.715805
C107	C	1.893008	-0.516349	0.965805
C108	C	2.143008	-0.266349	1.215805
C109	C	1.621844	-0.401738	0.488365
C110	C	1.871844	-0.151738	0.738365
C111	C	2.121844	0.098262	0.988365
C112	C	2.371844	0.348262	1.238365
C113	C	1.729057	-0.401744	0.488380
C114	C	1.979057	-0.151744	0.738380
C115	C	2.229057	0.098256	0.988380
C116	C	2.479057	0.348256	1.238380
C117	C	1.370255	-0.401728	0.739923
C118	C	1.620255	-0.151728	0.989923
C119	C	1.870255	0.098272	1.239923
C120	C	2.120255	0.348272	1.489923
C121	C	1.370256	-0.401730	0.847137
C122	C	1.620256	-0.151730	1.097137
C123	C	1.870256	0.098270	1.347137
C124	C	2.120256	0.348270	1.597137
C125	C	1.383148	-0.184266	0.475636
C126	C	1.633148	0.065734	0.725636
C127	C	1.883148	0.315734	0.975636
C128	C	2.133148	0.565734	1.225636
C129	C	1.388643	-0.091598	0.470227
C130	C	1.638643	0.158402	0.720227
C131	C	1.888643	0.408402	0.970227
C132	C	2.138643	0.658402	1.220227
C133	C	1.370232	-0.401733	1.043432
C134	C	1.620232	-0.151733	1.293432
C135	C	1.870232	0.098267	1.543432
C136	C	2.120232	0.348267	1.793432
C137	C	1.370242	-0.401734	0.934200
C138	C	1.620242	-0.151734	1.184200
C139	C	1.870242	0.098266	1.434200
C140	C	2.120242	0.348266	1.684200
C141	C	1.370238	-0.401738	1.237716
C142	C	1.620238	-0.151738	1.487716
C143	C	1.870238	0.098262	1.737716
C144	C	2.120238	0.348262	1.987716
C145	C	1.370231	-0.401731	1.130502
C146	C	1.620231	-0.151731	1.380502
C147	C	1.870231	0.098269	1.630502
C148	C	2.120231	0.348269	1.880502
H149	H	1.450769	-0.886366	0.408033
H150	H	1.700769	-0.636366	0.658033
H151	H	1.950769	-0.386366	0.908033
H152	H	2.200769	-0.136366	1.158033
H153	H	1.289908	-0.916235	0.568639
H154	H	1.539908	-0.666235	0.818639
H155	H	1.789908	-0.416235	1.068639
H156	H	2.039908	-0.166235	1.318639
