data_functionalizedCrystal
_audit_creation_method	'MofGen! by Chris Wilmer'
_symmetry_space_group_name_H-M	'P1'
_symmetry_Int_Tables_number	1
_symmetry_cell_setting	triclinic
loop_
_symmetry_equiv_pos_as_xyz
  x,y,z
_cell_length_a	17.699083
_cell_length_b	15.944551
_cell_length_c	16.776229
_cell_angle_alpha	89.992397
_cell_angle_beta	89.998886
_cell_angle_gamma	83.390877
loop_
_atom_site_label
_atom_site_type_symbol
_atom_site_fract_x
_atom_site_fract_y
_atom_site_fract_z
O1	O	1.004260	0.106222	-0.066178
O2	O	1.504260	0.606222	0.433822
O3	O	0.783905	0.120042	-0.066204
O4	O	1.283905	0.620042	0.433796
O5	O	0.900100	-0.009156	-0.066183
O6	O	1.400100	0.490844	0.433817
O7	O	0.888065	0.235419	-0.066199
O8	O	1.388065	0.735419	0.433801
O9	O	0.900084	-0.009164	0.066393
O10	O	1.400084	0.490836	0.566393
O11	O	0.783890	0.120034	0.066372
O12	O	1.283890	0.620034	0.566372
O13	O	1.004244	0.106214	0.066398
O14	O	1.504244	0.606214	0.566398
Zn15	Zn	0.894065	0.113123	0.087435
Zn16	Zn	1.394065	0.613123	0.587435
Zn17	Zn	0.894085	0.113133	-0.087241
Zn18	Zn	1.394085	0.613133	0.412759
O19	O	0.888050	0.235411	0.066377
O20	O	1.388050	0.735411	0.566377
C21	C	0.755700	0.119542	0.000080
C22	C	1.255700	0.619542	0.500080
C23	C	0.671679	0.118057	0.000071
C24	C	1.171679	0.618057	0.500071
C25	C	0.623187	0.193893	0.000066
C26	C	1.123187	0.693893	0.500066
C27	C	0.544242	0.192492	0.000076
C28	C	1.044242	0.692492	0.500076
C29	C	0.513789	0.115254	0.000086
C30	C	1.013789	0.615254	0.500086
C31	C	0.562287	0.039412	0.000093
C32	C	1.062287	0.539412	0.500093
C33	C	0.641231	0.040814	0.000088
C34	C	1.141231	0.540814	0.500088
C35	C	0.243914	0.033758	0.000113
C36	C	0.743914	0.533758	0.500113
C37	C	0.164964	0.032362	0.000115
C38	C	0.664964	0.532362	0.500115
C39	C	0.146925	0.185436	0.000101
C40	C	0.646925	0.685436	0.500101
C41	C	0.225869	0.186837	0.000096
C42	C	0.725869	0.686837	0.500096
C43	C	0.274360	0.110996	0.000108
C44	C	0.774360	0.610996	0.500108
C45	C	0.359962	0.112516	0.000098
C46	C	0.859962	0.612516	0.500098
C47	C	0.428189	0.113733	0.000090
C48	C	0.928189	0.613733	0.500090
C49	C	0.899593	-0.040453	0.000105
C50	C	1.399593	0.459547	0.500105
C51	C	0.898095	-0.133696	0.000105
C52	C	1.398095	0.366304	0.500105
C53	C	0.822492	-0.348393	0.000085
C54	C	1.322492	0.151607	0.500085
C55	C	0.857592	-0.409488	0.065458
C56	C	1.357592	0.090512	0.565458
C57	C	0.895385	-0.304416	0.000099
C58	C	1.395385	0.195584	0.500099
C59	C	0.857624	-0.409464	-0.065252
C60	C	1.357624	0.090536	0.434748
C61	C	0.892762	-0.469323	0.000089
C62	C	1.392762	0.030677	0.500089
C63	C	0.930505	-0.364283	0.065525
C64	C	1.430505	0.135717	0.565525
C65	C	0.930527	-0.364252	-0.065244
C66	C	1.430527	0.135748	0.434756
C67	C	0.965680	-0.425329	0.000145
C68	C	1.465680	0.074671	0.500145
C69	C	0.896894	-0.209417	0.000105
C70	C	1.396894	0.290583	0.500105
C71	C	0.891259	-0.564321	0.000089
C72	C	1.391259	-0.064321	0.500089
C73	C	1.032450	0.106713	0.000112
C74	C	1.532450	0.606713	0.500112
C75	C	1.116471	0.108199	0.000116
C76	C	1.616471	0.608199	0.500116
C77	C	0.888557	0.266708	0.000087
C78	C	1.388557	0.766708	0.500087
C79	C	0.890055	0.359951	0.000082
C80	C	1.390055	0.859951	0.500082
N81	N	0.894056	0.113115	0.206646
N82	N	1.394056	0.613115	0.706646
N83	N	0.894099	0.113134	-0.206452
N84	N	1.394099	0.613134	0.293548
C85	C	0.945523	0.055930	0.248372
C86	C	1.445523	0.555930	0.748372
C87	C	0.945527	0.055929	0.331824
C88	C	1.445527	0.555929	0.831824
C89	C	0.894068	0.113118	0.373549
C90	C	1.394068	0.613118	0.873549
C91	C	0.842595	0.170306	0.331816
C92	C	1.342595	0.670306	0.831816
C93	C	0.842588	0.170302	0.248366
C94	C	1.342588	0.670302	0.748366
C95	C	0.842623	0.170323	0.668364
C96	C	1.342623	0.670323	1.168364
C97	C	0.842636	0.170324	0.751820
C98	C	1.342636	0.670324	1.251820
C99	C	0.945562	0.055949	0.751822
C100	C	1.445562	0.555949	1.251822
C101	C	0.945555	0.055945	0.668372
C102	C	1.445555	0.555945	1.168372
C103	C	0.894080	0.113130	0.626647
C104	C	1.394080	0.613130	1.126647
C105	C	0.894075	0.113129	0.536158
C106	C	1.394075	0.613129	1.036158
C107	C	0.894076	0.113124	0.464036
C108	C	1.394076	0.613124	0.964036
H109	H	0.504763	0.254246	0.000072
H110	H	1.004763	0.754246	0.500072
O111	O	0.750361	-0.308368	0.000110
O112	O	1.250361	0.191632	0.500110
C113	C	0.752739	-0.220286	-0.000576
C114	C	1.252739	0.279714	0.499424
H115	H	0.809502	-0.205771	-0.026088
H116	H	1.309502	0.294229	0.473912
H117	H	0.704388	-0.189006	-0.039062
H118	H	1.204388	0.310994	0.460938
H119	H	0.746249	-0.194856	0.062864
H120	H	1.246249	0.305144	0.562864
O121	O	0.135471	-0.042724	0.000024
O122	O	0.635471	0.457276	0.500024
C123	C	0.160233	-0.088941	-0.068641
C124	C	0.660233	0.411059	0.431359
H125	H	0.214988	-0.066167	-0.091538
H126	H	0.714988	0.433833	0.408462
H127	H	0.171182	-0.158912	-0.053187
H128	H	0.671182	0.341088	0.446813
H129	H	0.114552	-0.079118	-0.116722
H130	H	0.614552	0.420882	0.383278
H131	H	0.826790	-0.429473	-0.120524
H132	H	1.326790	0.070527	0.379476
H133	H	0.800678	0.216867	0.214393
H134	H	1.300678	0.716867	0.714393
H135	H	0.107434	0.247189	0.000096
H136	H	0.607434	0.747189	0.500096
O137	O	0.291085	-0.039858	0.000008
O138	O	0.791085	0.460142	0.500008
C139	C	0.337273	-0.043637	-0.068667
C140	C	0.837273	0.456363	0.431333
H141	H	0.341275	0.023028	-0.091560
H142	H	0.841275	0.523028	0.408440
H143	H	0.396603	-0.075056	-0.053227
H144	H	0.896603	0.424944	0.446773
H145	H	0.311293	-0.081936	-0.116745
H146	H	0.811293	0.418064	0.383255
H147	H	0.680713	-0.020940	0.000091
H148	H	1.180713	0.479060	0.500091
H149	H	0.826754	-0.429535	0.120718
H150	H	1.326754	0.070465	0.620718
H151	H	0.537486	-0.023476	0.000112
H152	H	1.037486	0.476524	0.500112
H153	H	0.800728	0.216896	0.785791
H154	H	1.300728	0.716896	1.285791
H155	H	0.961304	-0.344360	0.120853
H156	H	1.461304	0.155640	0.620853
O157	O	0.255324	0.261940	0.000123
O158	O	0.755324	0.761940	0.500123
C159	C	0.195595	0.328576	0.000103
C160	C	0.695595	0.828576	0.500103
H161	H	0.141965	0.305139	0.025206
H162	H	0.641965	0.805139	0.525206
H163	H	0.212096	0.382508	0.038590
H164	H	0.712096	0.882508	0.538590
H165	H	0.184423	0.351967	-0.063502
H166	H	0.684423	0.851967	0.436498
H167	H	1.026238	-0.458615	0.000189
H168	H	1.526238	0.041385	0.500189
H169	H	0.987460	0.009380	0.634402
H170	H	1.487460	0.509380	1.134402
O171	O	0.967396	-0.340277	-0.131085
O172	O	1.467396	0.159723	0.368915
C173	C	1.031287	-0.301030	-0.107647
C174	C	1.531287	0.198970	0.392353
H175	H	1.049390	-0.322815	-0.045074
H176	H	1.549390	0.177185	0.454926
H177	H	1.080053	-0.318960	-0.151029
H178	H	1.580053	0.181040	0.348971
H179	H	1.016082	-0.229581	-0.107885
H180	H	1.516082	0.270419	0.392115
H181	H	0.987430	0.009363	0.214406
H182	H	1.487430	0.509363	0.714406
H183	H	0.800712	0.216886	0.634398
H184	H	1.300712	0.716886	1.134398
O185	O	0.995604	0.000357	0.372234
O186	O	1.495604	0.500357	0.872234
C187	C	1.041016	-0.050126	0.317512
C188	C	1.541016	0.449874	0.817512
H189	H	1.041854	-0.015691	0.258018
H190	H	1.541854	0.484309	0.758018
H191	H	1.101460	-0.063007	0.341615
H192	H	1.601460	0.436993	0.841615
H193	H	1.016455	-0.112500	0.308654
H194	H	1.516455	0.387500	0.808654
O195	O	0.995487	0.000424	0.792479
O196	O	1.495487	0.500424	1.292479
C197	C	0.984474	0.012697	0.875082
C198	C	1.484474	0.512697	1.375082
H199	H	0.924304	0.044172	0.886484
H200	H	1.424304	0.544172	1.386484
H201	H	0.992901	-0.050927	0.906804
H202	H	1.492901	0.449073	1.406804
H203	H	1.027312	0.054769	0.898753
H204	H	1.527312	0.554769	1.398753
O205	O	0.792576	0.225744	0.372435
O206	O	1.292576	0.725744	0.872435
C207	C	0.745880	0.180824	0.420707
C208	C	1.245880	0.680824	0.920707
H209	H	0.776025	0.115054	0.433215
H210	H	1.276025	0.615054	0.933215
H211	H	0.733915	0.215903	0.479385
H212	H	1.233915	0.715903	0.979385
H213	H	0.689941	0.175193	0.388556
H214	H	1.189941	0.675193	0.888556
O215	O	0.652640	0.268997	0.000091
O216	O	1.152640	0.768997	0.500091
C217	C	0.592907	0.335630	0.000071
C218	C	1.092907	0.835630	0.500071
H219	H	0.539280	0.312189	0.025175
H220	H	1.039280	0.812189	0.525175
H221	H	0.609407	0.389564	0.038556
H222	H	1.109407	0.889564	0.538556
H223	H	0.581734	0.359019	-0.063534
H224	H	1.081734	0.859019	0.436466
