data_functionalizedCrystal
_audit_creation_method	'MofGen! by Chris Wilmer'
_symmetry_space_group_name_H-M	'P1'
_symmetry_Int_Tables_number	1
_symmetry_cell_setting	triclinic
loop_
_symmetry_equiv_pos_as_xyz
  x,y,z
_cell_length_a	10.686220
_cell_length_b	12.594516
_cell_length_c	10.685880
_cell_angle_alpha	94.341733
_cell_angle_beta	89.641569
_cell_angle_gamma	94.397503
loop_
_atom_site_label
_atom_site_type_symbol
_atom_site_fract_x
_atom_site_fract_y
_atom_site_fract_z
Zn1	Zn	1.972249	-0.332254	-0.562388
Zn2	Zn	2.472249	0.167746	-0.062388
Zn3	Zn	1.956029	-0.497766	-0.352643
Zn4	Zn	2.456029	0.002234	0.147357
Zn5	Zn	1.746379	-0.334424	-0.368710
Zn6	Zn	2.246379	0.165576	0.131290
Zn7	Zn	1.762446	-0.524820	-0.578416
Zn8	Zn	2.262446	-0.024820	-0.078416
O9	O	1.859276	-0.422316	-0.465539
O10	O	2.359276	0.077684	0.034461
O11	O	2.145641	-0.341980	-0.521133
O12	O	2.645641	0.158020	-0.021133
O13	O	1.914706	-0.465684	-0.179233
O14	O	2.414706	0.034316	0.320767
O15	O	1.776405	-0.185187	-0.394419
O16	O	2.276405	0.314813	0.105581
O17	O	2.133723	-0.463580	-0.367034
O18	O	2.633723	0.036420	0.132966
O19	O	1.942351	-0.183593	-0.536713
O20	O	2.442351	0.316407	-0.036713
O21	O	1.760677	-0.345677	-0.191038
O22	O	2.260677	0.154323	0.308962
O23	O	1.572967	-0.371910	-0.409961
O24	O	2.072967	0.128090	0.090039
O25	O	1.803789	-0.509690	-0.751831
O26	O	2.303789	-0.009690	-0.251831
O27	O	1.584772	-0.511794	-0.564030
O28	O	2.084772	-0.011794	-0.064030
O29	O	1.957931	-0.368213	-0.740056
O30	O	2.457931	0.131787	-0.240056
O31	O	1.930285	-0.650304	-0.382576
O32	O	2.430285	-0.150304	0.117424
O33	O	1.788061	-0.670180	-0.548450
O34	O	2.288061	-0.170180	-0.048450
C35	C	1.533353	-0.445024	-0.490479
C36	C	2.033353	0.054976	0.009521
C37	C	1.393924	-0.454766	-0.501178
C38	C	1.893924	0.045234	-0.001178
C39	C	1.859193	-0.698862	-0.465533
C40	C	2.359193	-0.198862	0.034467
C41	C	1.859275	-0.817164	-0.465564
C42	C	2.359275	-0.317164	0.034436
C43	C	1.781906	-0.897264	-0.555725
C44	C	2.281906	-0.397264	-0.055725
C45	C	1.742561	-0.963435	-0.443599
C46	C	2.242561	-0.463435	0.056401
C47	C	1.898736	-0.961785	-0.577700
C48	C	2.398736	-0.461785	-0.077700
C49	C	1.819864	-0.881778	-0.353383
C50	C	2.319864	-0.381778	0.146617
C51	C	1.976099	-0.880122	-0.487556
C52	C	2.476099	-0.380122	0.012444
C53	C	1.936791	-0.946254	-0.375349
C54	C	2.436791	-0.446254	0.124651
C55	C	2.186471	-0.399520	-0.440503
C56	C	2.686471	0.100480	0.059497
C57	C	2.325902	-0.389806	-0.429834
C58	C	2.825902	0.110194	0.070166
C59	C	1.884462	-0.441728	-0.792732
C60	C	2.384462	0.058272	-0.292732
C61	C	1.895194	-0.450000	-0.932162
C62	C	2.395194	0.050000	-0.432162
C63	C	1.859395	-0.144689	-0.465570
C64	C	2.359395	0.355311	0.034430
C65	C	1.859447	-0.026381	-0.465583
C66	C	2.359447	0.473619	0.034417
C67	C	1.834260	-0.402898	-0.139614
C68	C	2.334260	0.097102	0.360386
C69	C	1.823770	-0.394309	-0.000166
C70	C	2.323770	0.105691	0.499834
H71	H	1.716344	-0.875397	-0.631878
H72	H	2.216344	-0.375397	-0.131878
O73	O	1.977814	-0.514589	-0.989905
O74	O	2.477814	-0.014589	-0.489905
C75	C	1.947947	-0.620710	-0.960041
C76	C	2.447947	-0.120710	-0.460041
H77	H	1.844983	-0.630954	-0.931611
H78	H	2.344983	-0.130954	-0.431611
H79	H	1.965295	-0.677596	-1.045435
H80	H	2.465295	-0.177596	-0.545435
H81	H	2.009411	-0.639392	-0.878931
H82	H	2.509411	-0.139392	-0.378931
H83	H	1.754396	-0.340302	-0.951713
H84	H	2.254396	0.159698	-0.451713
H85	H	2.074797	-0.843715	-0.506195
H86	H	2.574797	-0.343715	-0.006195
H87	H	1.932043	-0.996776	-0.672524
H88	H	2.432043	-0.496776	-0.172524
H89	H	1.786444	-0.846921	-0.258540
H90	H	2.286444	-0.346921	0.241460
H91	H	1.374333	-0.326739	-0.360567
H92	H	1.874333	0.173261	0.139433
H93	H	1.345487	-0.517843	-0.570441
H94	H	1.845487	-0.017843	-0.070441
H95	H	1.643845	-0.999850	-0.425017
H96	H	2.143845	-0.499850	0.074983
H97	H	2.002286	-0.967918	-0.299029
H98	H	2.502286	-0.467918	0.200971
