data_functionalizedCrystal
_audit_creation_method	'MofGen! by Chris Wilmer'
_symmetry_space_group_name_H-M	'P1'
_symmetry_Int_Tables_number	1
_symmetry_cell_setting	triclinic
loop_
_symmetry_equiv_pos_as_xyz
  x,y,z
_cell_length_a	17.666332
_cell_length_b	14.044220
_cell_length_c	14.044220
_cell_angle_alpha	86.811122
_cell_angle_beta	90.006987
_cell_angle_gamma	89.995739
loop_
_atom_site_label
_atom_site_type_symbol
_atom_site_fract_x
_atom_site_fract_y
_atom_site_fract_z
O1	O	0.062871	-1.277175	0.230170
O2	O	0.062890	-1.000503	0.221864
O3	O	0.062873	-1.134686	0.087681
O4	O	0.062888	-1.142992	0.364353
O5	O	-0.063024	-1.134660	0.087671
O6	O	-0.063007	-1.000477	0.221854
O7	O	-0.063026	-1.277148	0.230160
Cu8	Cu	-0.074512	-1.138810	0.226006
Cu9	Cu	0.074376	-1.138841	0.226018
O10	O	-0.063009	-1.142965	0.364343
C11	C	-0.000056	-0.964868	0.218223
C12	C	-0.000049	-0.858725	0.207379
N13	N	-0.179231	-1.138795	0.225998
C14	C	-0.000075	-1.131037	0.052054
C15	C	-0.000075	-1.120193	-0.054088
C16	C	-0.218848	-1.198235	0.166615
C17	C	-0.298096	-1.198240	0.166611
C18	C	-0.337723	-1.138816	0.226007
C19	C	-0.298097	-1.079364	0.285393
C20	C	-0.218851	-1.079354	0.285389
N21	N	-0.462137	-1.133806	0.309456
N22	N	-0.537418	-1.133821	0.309457
C23	C	-0.576487	-1.138842	0.226022
N24	N	-0.537433	-1.143866	0.142584
N25	N	-0.462145	-1.143855	0.142583
C26	C	-0.423652	-1.138820	0.226018
C27	C	-0.702034	-1.198291	0.166630
C28	C	-0.781283	-1.198289	0.166624
C29	C	-0.781282	-1.079419	0.285415
C30	C	-0.702035	-1.079415	0.285412
C31	C	-0.662415	-1.138856	0.226021
N32	N	0.179095	-1.138863	0.226019
C33	C	-0.000078	-1.312783	0.233800
C34	C	-0.000080	-1.418926	0.244645
C35	C	-0.000065	-0.664388	0.187553
C36	C	-0.000064	-0.613258	0.264467
C37	C	-0.000073	-0.505122	0.253435
C38	C	-0.000056	-0.772534	0.198583
C39	C	-0.000063	-1.100366	-0.248426
C40	C	-0.000066	-1.177281	-0.299556
C41	C	-0.000059	-1.166249	-0.407692
C42	C	-0.000070	-1.111397	-0.140280
C43	C	-0.000059	-1.146614	0.399969
C44	C	-0.000054	-1.157459	0.506112
H45	H	-0.330358	-1.246645	0.118252
O46	O	-0.000025	-1.011860	-0.292930
C47	C	-0.000070	-0.842264	-0.274700
C48	C	-0.000093	-0.942439	-0.224163
H49	H	-0.000142	-0.786110	-0.219125
H50	H	0.052632	-0.833213	-0.321160
H51	H	-0.052744	-0.833313	-0.321242
H52	H	0.052544	-0.951458	-0.177573
H53	H	-0.052830	-0.951444	-0.177762
H54	H	-0.000057	-0.650697	0.338600
H55	H	-0.186593	-1.246633	0.118253
O56	O	-0.000035	-0.619581	0.099186
C57	C	-0.000086	-0.469371	0.007489
C58	C	-0.000106	-0.520007	0.107617
H59	H	-0.000160	-0.388858	0.014272
H60	H	0.052617	-0.490826	-0.032971
H61	H	-0.052758	-0.490952	-0.032966
H62	H	0.052531	-0.498452	0.148152
H63	H	-0.052843	-0.498550	0.148006
H64	H	-0.000020	-1.251414	-0.262117
H65	H	-0.813540	-1.246689	0.118262
H66	H	-0.330365	-1.030978	0.333752
O67	O	-0.180480	-1.021587	0.343169
C68	C	-0.188842	-0.903643	0.460948
C69	C	-0.232392	-0.969030	0.395573
H70	H	-0.230794	-0.861119	0.503319
H71	H	-0.151752	-0.948846	0.512213
H72	H	-0.151729	-0.852508	0.415652
H73	H	-0.269546	-1.020177	0.440792
H74	H	-0.269434	-0.923768	0.344304
H75	H	-0.669774	-1.246689	0.118267
H76	H	-0.669776	-1.031017	0.333771
O77	O	-0.819732	-1.021552	0.343007
C78	C	-0.843956	-0.860281	0.384857
C79	C	-0.800374	-0.925708	0.319558
H80	H	-0.828309	-0.782779	0.365935
H81	H	-0.907410	-0.870411	0.374654
H82	H	-0.828371	-0.879230	0.462379
H83	H	-0.815895	-0.906800	0.242012
H84	H	-0.736930	-0.915568	0.329843
