data_functionalizedCrystal
_audit_creation_method	'MofGen! by Chris Wilmer'
_symmetry_space_group_name_H-M	'P1'
_symmetry_Int_Tables_number	1
_symmetry_cell_setting	triclinic
loop_
_symmetry_equiv_pos_as_xyz
  x,y,z
_cell_length_a	8.597366
_cell_length_b	9.482900
_cell_length_c	8.559649
_cell_angle_alpha	81.982926
_cell_angle_beta	77.624636
_cell_angle_gamma	91.873750
loop_
_atom_site_label
_atom_site_type_symbol
_atom_site_fract_x
_atom_site_fract_y
_atom_site_fract_z
O1	O	2.023628	-0.132593	0.264991
O2	O	1.577188	-0.076669	0.271882
O3	O	1.839740	-0.109559	0.037468
O4	O	1.761077	-0.099703	0.499404
O5	O	1.786386	-0.344668	0.085282
O6	O	1.523835	-0.311778	0.319695
O7	O	1.970275	-0.367702	0.312805
Cu8	Cu	1.742183	-0.361207	0.320616
Cu9	Cu	1.805280	-0.083164	0.264071
O10	O	1.707723	-0.334811	0.547218
C11	C	1.493887	-0.187130	0.292385
C12	C	1.325164	-0.165995	0.282225
N13	N	1.697816	-0.556769	0.360386
C14	C	1.792184	-0.640790	0.275792
C15	C	1.755279	-0.803584	0.308895
C16	C	2.053577	-0.257237	0.292301
C17	C	2.222301	-0.278363	0.302459
N18	N	1.849661	0.112397	0.224288
C19	C	1.819025	-0.227858	0.002092
C20	C	1.836771	-0.230073	-0.174552
C21	C	1.728439	-0.216510	0.582593
C22	C	1.710695	-0.214286	0.759236
H23	H	1.284157	-0.053614	0.257115
Cl24	Cl	1.958806	-0.565750	0.125765
H25	H	1.589180	-0.199069	-0.162313
H26	H	1.958291	-0.245307	-0.253009
Cl27	Cl	1.285616	-0.451886	0.341211
H28	H	1.647153	-0.852164	0.405826
H29	H	1.957777	-0.839023	0.127345
Cl30	Cl	1.530884	-0.631771	0.510035
