data_functionalizedCrystal
_audit_creation_method	'MofGen! by Chris Wilmer'
_symmetry_space_group_name_H-M	'P1'
_symmetry_Int_Tables_number	1
_symmetry_cell_setting	triclinic
loop_
_symmetry_equiv_pos_as_xyz
  x,y,z
_cell_length_a	19.188923
_cell_length_b	18.266242
_cell_length_c	10.654550
_cell_angle_alpha	89.994952
_cell_angle_beta	96.186758
_cell_angle_gamma	90.011434
loop_
_atom_site_label
_atom_site_type_symbol
_atom_site_fract_x
_atom_site_fract_y
_atom_site_fract_z
O1	O	-0.927178	-0.060914	0.156735
O2	O	-0.427178	0.439086	0.656735
O3	O	-0.724004	-0.060908	0.177850
O4	O	-0.224004	0.439092	0.677850
O5	O	-0.830263	-0.060908	-0.015546
O6	O	-0.330263	0.439092	0.484454
O7	O	-0.820920	-0.060913	0.350131
O8	O	-0.320920	0.439087	0.850131
O9	O	-0.830244	0.060854	-0.015555
O10	O	-0.330244	0.560854	0.484445
O11	O	-0.723985	0.060854	0.177841
O12	O	-0.223985	0.560854	0.677841
O13	O	-0.927159	0.060848	0.156725
O14	O	-0.427159	0.560848	0.656725
Zn15	Zn	-0.825569	0.080183	0.167282
Zn16	Zn	-0.325569	0.580183	0.667282
Zn17	Zn	-0.825594	-0.080243	0.167294
Zn18	Zn	-0.325594	0.419757	0.667294
O19	O	-0.820901	0.060849	0.350121
O20	O	-0.320901	0.560849	0.850121
C21	C	-0.697979	-0.000026	0.177163
C22	C	-0.197979	0.499974	0.677163
C23	C	-0.620461	-0.000023	0.175116
C24	C	-0.120461	0.499977	0.675116
C25	C	-0.059343	-0.000015	0.274882
C26	C	0.440657	0.499985	0.774882
C27	C	-0.132179	-0.000020	0.276817
C28	C	0.367821	0.499980	0.776817
C29	C	-0.176371	-0.000018	0.163339
C30	C	0.323629	0.499982	0.663339
C31	C	-0.147722	-0.000030	0.047917
C32	C	0.352278	0.499970	0.547917
C33	C	-0.074887	-0.000032	0.045985
C34	C	0.425113	0.499968	0.545985
N35	N	-0.296504	0.041429	0.081180
N36	N	0.203496	0.541429	0.581180
N37	N	-0.365694	0.041432	0.083023
N38	N	0.134306	0.541432	0.583023
C39	C	-0.395818	-0.000014	0.169152
C40	C	0.104182	0.499986	0.669152
N41	N	-0.354138	-0.041455	0.253388
N42	N	0.145862	0.458545	0.753388
N43	N	-0.284942	-0.041455	0.251548
N44	N	0.215058	0.458545	0.751548
C45	C	-0.255349	-0.000017	0.165421
C46	C	0.244651	0.499983	0.665421
C47	C	-0.503436	-0.000014	0.286665
C48	C	-0.003436	0.499986	0.786665
C49	C	-0.576274	-0.000024	0.288595
C50	C	-0.076274	0.499976	0.788595
C51	C	-0.591816	-0.000026	0.059692
C52	C	-0.091816	0.499974	0.559692
C53	C	-0.518979	-0.000023	0.057765
C54	C	-0.018979	0.499977	0.557765
C55	C	-0.474794	-0.000014	0.171255
C56	C	0.025206	0.499986	0.671255
N57	N	-0.825557	0.189670	0.167272
N58	N	-0.325557	0.689670	0.667272
C59	C	-0.872624	0.227979	0.081679
C60	C	-0.372624	0.727979	0.581679
C61	C	-0.872628	0.304624	0.081673
C62	C	-0.372628	0.804624	0.581673
C63	C	-0.825572	0.342957	0.167283
C64	C	-0.325572	0.842957	0.667283
C65	C	-0.778496	0.304639	0.252883
C66	C	-0.278496	0.804639	0.752883
C67	C	-0.778489	0.227996	0.252878
C68	C	-0.278489	0.727996	0.752878
N69	N	-0.817223	0.463288	0.278451
N70	N	-0.317223	0.963288	0.778451
N71	N	-0.817234	0.536096	0.278452
N72	N	-0.317234	1.036096	0.778452
C73	C	-0.825590	0.573880	0.167302
C74	C	-0.325590	1.073880	0.667302
N75	N	-0.833949	0.536104	0.056147
N76	N	-0.333949	1.036104	0.556147
N77	N	-0.833941	0.463290	0.056147
N78	N	-0.333941	0.963290	0.556147
C79	C	-0.825575	0.426064	0.167297
C80	C	-0.325575	0.926064	0.667297
C81	C	-0.872664	0.695295	0.081695
C82	C	-0.372664	1.195295	0.581695
C83	C	-0.872663	0.771942	0.081688
C84	C	-0.372663	1.271942	0.581688
C85	C	-0.778535	0.771956	0.252909
C86	C	-0.278535	1.271956	0.752909
C87	C	-0.778532	0.695311	0.252905
C88	C	-0.278532	1.195311	0.752905
C89	C	-0.825601	0.656985	0.167299
C90	C	-0.325601	1.156985	0.667299
C91	C	0.046816	-0.000030	0.157416
C92	C	0.546816	0.499970	0.657416
C93	C	-0.030701	-0.000022	0.159475
C94	C	0.469299	0.499978	0.659475
C95	C	-0.829567	-0.000028	-0.062334
C96	C	-0.329567	0.499972	0.437666
C97	C	-0.827515	-0.000031	-0.201734
C98	C	-0.327515	0.499969	0.298266
N99	N	-0.825606	0.810270	0.167297
N100	N	-0.325606	1.310270	0.667297
C101	C	-0.890078	-0.000030	-0.282546
C102	C	-0.390078	0.499970	0.217454
C103	C	-0.888145	-0.000036	-0.413526
C104	C	-0.388145	0.499964	0.086474
C105	C	-0.761081	-0.000038	-0.382868
C106	C	-0.261081	0.499962	0.117132
C107	C	-0.763014	-0.000038	-0.251890
C108	C	-0.263014	0.499962	0.248110
C109	C	-0.963438	-0.000026	-0.300248
C110	C	-0.463438	0.499974	0.199752
C111	C	-0.961505	-0.000031	-0.431228
C112	C	-0.461505	0.499969	0.068772
C113	C	-0.821596	-0.000033	0.396910
C114	C	-0.321596	0.499967	0.896910
C115	C	-0.823649	-0.000036	0.536309
C116	C	-0.323649	0.499964	1.036309
H117	H	-0.051569	-0.000037	-0.047996
H118	H	0.448431	0.499963	0.452004
Br119	Br	-0.443466	-0.000002	0.440683
Br120	Br	0.056534	0.499998	0.940683
H121	H	-0.910989	0.803133	0.011980
H122	H	-0.410989	1.303133	0.511980
Br123	Br	-0.480106	-0.000039	-0.098868
Br124	Br	0.019894	0.499961	0.401132
H125	H	-0.712069	-0.000048	-0.186096
H126	H	-0.212069	0.499952	0.313904
Br127	Br	-0.615145	-0.000026	0.445233
Br128	Br	-0.115145	0.499974	0.945233
Br129	Br	-1.002344	0.087605	-0.241683
Br130	Br	-0.502344	0.587605	0.258317
H131	H	-0.023370	-0.000011	0.367295
H132	H	0.476630	0.499989	0.867295
Br133	Br	-0.714629	0.356660	0.369061
Br134	Br	-0.214629	0.856660	0.869061
H135	H	-0.910948	0.196776	0.011971
H136	H	-0.410948	0.696776	0.511971
Br137	Br	-0.651783	-0.000039	-0.094318
Br138	Br	-0.151783	0.499961	0.405682
H139	H	-0.740161	0.196804	0.322580
H140	H	-0.240161	0.696804	0.822580
Br141	Br	-0.673548	-0.000052	-0.450946
Br142	Br	-0.173548	0.499948	0.049054
Br143	Br	-0.171059	-0.000011	0.433452
Br144	Br	0.328941	0.499989	0.933452
Br145	Br	-0.998467	-0.087655	-0.508093
Br146	Br	-0.498467	0.412345	-0.008093
H147	H	-0.740209	0.664118	0.322609
H148	H	-0.240209	1.164118	0.822609
H149	H	-0.740218	0.803166	0.322609
H150	H	-0.240218	1.303166	0.822609
H151	H	-0.992139	-0.050980	-0.271495
H152	H	-0.492139	0.449020	0.228505
H153	H	-0.183708	-0.000030	-0.044478
H154	H	0.316292	0.499970	0.455522
H155	H	-0.910988	0.664089	0.011986
H156	H	-0.410988	1.164089	0.511986
H157	H	-0.910957	0.335820	0.011969
H158	H	-0.410957	0.835820	0.511969
Br159	Br	-1.007559	0.084894	-0.501826
Br160	Br	-0.507559	0.584894	-0.001826
