data_functionalizedCrystal
_audit_creation_method	'MofGen! by Chris Wilmer'
_symmetry_space_group_name_H-M	'P1'
_symmetry_Int_Tables_number	1
_symmetry_cell_setting	triclinic
loop_
_symmetry_equiv_pos_as_xyz
  x,y,z
_cell_length_a	10.685594
_cell_length_b	10.685972
_cell_length_c	10.686551
_cell_angle_alpha	98.409768
_cell_angle_beta	90.301037
_cell_angle_gamma	80.938386
loop_
_atom_site_label
_atom_site_type_symbol
_atom_site_fract_x
_atom_site_fract_y
_atom_site_fract_z
Zn1	Zn	-0.282887	-1.975664	-0.886898
Zn2	Zn	-0.511478	-1.942976	-0.690914
Zn3	Zn	-0.318000	-1.744592	-0.660858
Zn4	Zn	-0.511349	-1.747109	-0.886810
O5	O	-0.405929	-1.852585	-0.781370
O6	O	-0.298570	-2.150003	-0.873515
O7	O	-0.500561	-1.901927	-0.510345
O8	O	-0.136758	-1.787871	-0.678300
O9	O	-0.466514	-2.125988	-0.729527
O10	O	-0.110961	-1.957638	-0.844371
O11	O	-0.358414	-1.756175	-0.488263
O12	O	-0.358289	-1.566250	-0.678215
O13	O	-0.466295	-1.792160	-1.063404
O14	O	-0.500342	-1.568099	-0.844222
O15	O	-0.298445	-1.960078	-1.063468
O16	O	-0.688045	-1.904368	-0.729442
O17	O	-0.687950	-1.760464	-0.873366
C18	C	-0.433112	-1.520846	-0.757948
C19	C	-0.444769	-1.378927	-0.747961
C20	C	-0.733778	-1.829179	-0.804686
C21	C	-0.874021	-1.819286	-0.814711
C22	C	-0.076793	-1.876120	-0.757993
C23	C	0.063464	-1.886149	-0.748031
C24	C	-0.378439	-1.880046	-1.110502
C25	C	-0.366724	-1.891749	-1.250759
C26	C	-0.378632	-1.185620	-0.804877
C27	C	-0.366979	-1.327539	-0.814878
C28	C	-0.433215	-1.825311	-0.453517
C29	C	-0.444553	-1.813881	-0.313253
H30	H	-0.291454	-1.392117	-0.879807
C31	C	-0.264596	-1.993916	-1.323425
H32	H	-0.217347	-2.041202	-1.265412
H33	H	-0.209371	-1.953251	-1.367492
H34	H	-0.304073	-2.050343	-1.382190
C35	C	-0.863908	-1.973717	-0.660545
H36	H	-0.921931	-2.014343	-0.620064
H37	H	-0.821152	-1.923914	-0.598452
H38	H	-0.803843	-2.036938	-0.709158
C39	C	-0.546802	-1.291690	-0.660238
H40	H	-0.541528	-1.204548	-0.664809
H41	H	-0.533522	-1.307718	-0.575676
H42	H	-0.628314	-1.308973	-0.686131
C43	C	-0.946649	-1.731727	-0.902194
H44	H	-1.034542	-1.736333	-0.897675
H45	H	-0.916455	-1.758920	-0.986782
H46	H	-0.933777	-1.645896	-0.876076
H47	H	-0.520152	-1.738266	-1.259458
