data_functionalizedCrystal
_audit_creation_method	'MofGen! by Chris Wilmer'
_symmetry_space_group_name_H-M	'P1'
_symmetry_Int_Tables_number	1
_symmetry_cell_setting	triclinic
loop_
_symmetry_equiv_pos_as_xyz
  x,y,z
_cell_length_a	10.489711
_cell_length_b	16.109301
_cell_length_c	14.586319
_cell_angle_alpha	90.005214
_cell_angle_beta	89.994956
_cell_angle_gamma	96.005755
loop_
_atom_site_label
_atom_site_type_symbol
_atom_site_fract_x
_atom_site_fract_y
_atom_site_fract_z
O1	O	1.692374	-0.117180	-0.076277
O2	O	1.321013	-0.128216	-0.076272
O3	O	1.516895	-0.001729	-0.076265
O4	O	1.496492	-0.243667	-0.076283
O5	O	1.516882	-0.001727	0.076216
O6	O	1.321000	-0.128214	0.076209
O7	O	1.692360	-0.117178	0.076204
Cu8	Cu	1.506679	-0.122696	0.090129
Cu9	Cu	1.506695	-0.122698	-0.090197
O10	O	1.496478	-0.243665	0.076197
C11	C	1.516062	0.029252	-0.000024
C12	C	1.513584	0.121562	-0.000023
C13	C	1.273486	-0.127387	-0.000030
C14	C	1.131891	-0.124909	-0.000028
C15	C	0.948401	-0.200974	-0.000044
C16	C	1.041104	-0.162979	-0.075221
C17	C	1.041064	-0.162957	0.075113
C18	C	0.972321	-0.082457	-0.075286
C19	C	0.972272	-0.082446	0.075115
C20	C	1.064949	-0.044393	-0.000080
C21	C	1.739887	-0.118007	-0.000039
C22	C	1.881483	-0.120485	-0.000047
N23	N	1.506677	-0.122694	0.216961
C24	C	1.497312	-0.274646	-0.000045
C25	C	1.499790	-0.366956	-0.000053
C26	C	1.624055	0.343161	-0.000039
C27	C	1.621717	0.429896	-0.000046
C28	C	1.389310	0.411438	-0.000040
C29	C	1.391649	0.324705	-0.000039
C30	C	1.509026	0.290569	-0.000034
C31	C	1.504348	0.464037	-0.000042
C32	C	1.501812	0.558078	-0.000050
C33	C	1.511562	0.196522	-0.000027
N34	N	1.506707	-0.122694	-0.217029
C35	C	1.593442	-0.066705	0.451970
C36	C	1.593446	-0.066703	0.547952
C37	C	1.419933	-0.178686	0.547955
C38	C	1.419924	-0.178683	0.451976
C39	C	1.506686	-0.122693	0.403986
C40	C	1.506698	-0.122694	0.595947
C41	C	1.506701	-0.122692	0.700014
C42	C	1.506681	-0.122694	0.299912
H43	H	0.897751	-0.267130	-0.000124
H44	H	1.664089	-0.021110	0.587018
F45	F	1.080965	-0.207493	-0.158304
H46	H	0.941737	-0.048417	0.138680
H47	H	1.349270	-0.224276	0.412904
F48	F	1.748977	0.306834	-0.000035
F49	F	1.080877	-0.207488	0.158185
H50	H	1.293746	0.439242	-0.000042
F51	F	1.327602	-0.238273	0.599036
H52	H	0.942012	-0.048433	-0.138917
H53	H	1.115367	0.021824	-0.000113
F54	F	1.269212	0.268729	-0.000040
H55	H	1.715386	0.472713	-0.000053
F56	F	1.685779	-0.007113	0.400900
