data_functionalizedCrystal
_audit_creation_method	'MofGen! by Chris Wilmer'
_symmetry_space_group_name_H-M	'P1'
_symmetry_Int_Tables_number	1
_symmetry_cell_setting	triclinic
loop_
_symmetry_equiv_pos_as_xyz
  x,y,z
_cell_length_a	8.497366
_cell_length_b	11.169417
_cell_length_c	11.169416
_cell_angle_alpha	89.988781
_cell_angle_beta	90.046879
_cell_angle_gamma	89.968914
loop_
_atom_site_label
_atom_site_type_symbol
_atom_site_fract_x
_atom_site_fract_y
_atom_site_fract_z
Zn1	Zn	-0.891931	1.835096	0.477492
Zn2	Zn	-0.391931	2.335096	0.977492
Zn3	Zn	-0.628148	1.834946	0.678289
Zn4	Zn	-0.128148	2.334946	1.178289
Zn5	Zn	-0.628164	1.634342	0.477621
Zn6	Zn	-0.128164	2.134342	0.977621
Zn7	Zn	-0.891887	1.634389	0.678135
Zn8	Zn	-0.391887	2.134389	1.178135
O9	O	-0.760033	1.734693	0.577884
O10	O	-0.260033	2.234693	1.077884
O11	O	-0.856951	2.003025	0.504139
O12	O	-0.356951	2.503025	1.004139
O13	O	-0.407388	1.808253	0.651788
O14	O	0.092612	2.308253	1.151788
O15	O	-0.663179	1.661016	0.309655
O16	O	-0.163179	2.161016	0.809655
O17	O	-0.663151	2.002915	0.651663
O18	O	-0.163151	2.502915	1.151663
O19	O	-0.856966	1.808508	0.309560
O20	O	-0.356966	2.308508	0.809560
O21	O	-0.407400	1.660870	0.504359
O22	O	0.092600	2.160870	1.004359
O23	O	-0.663136	1.466399	0.504210
O24	O	-0.163136	1.966399	1.004210
O25	O	-1.112655	1.661096	0.651401
O26	O	-0.612655	2.161096	1.151401
O27	O	-0.856892	1.466433	0.651526
O28	O	-0.356892	1.966433	1.151526
O29	O	-1.112687	1.808554	0.503990
O30	O	-0.612687	2.308554	1.003990
O31	O	-0.663109	1.808298	0.846218
O32	O	-0.163109	2.308298	1.346218
O33	O	-0.856877	1.660950	0.846105
O34	O	-0.356877	2.160950	1.346105
C35	C	-0.760012	1.422868	0.577866
C36	C	-0.260012	1.922868	1.077866
C37	C	-0.760041	1.289468	0.577887
C38	C	-0.260041	1.789468	1.077887
C39	C	-0.760021	1.734646	0.889709
C40	C	-0.260021	2.234646	1.389709
C41	C	-0.760068	1.734735	1.023109
C42	C	-0.260068	2.234735	1.523109
C43	C	-0.171513	1.734763	0.577775
C44	C	0.328487	2.234763	1.077775
C45	C	-0.350157	1.734604	0.578026
C46	C	0.149843	2.234604	1.078026
C47	C	-0.760054	2.047735	0.577904
C48	C	-0.260054	2.547735	1.077904
C49	C	-0.760063	2.181135	0.577912
C50	C	-0.260063	2.681135	1.077912
C51	C	-0.760079	1.734774	0.264842
C52	C	-0.260079	2.234774	0.764842
C53	C	-0.760099	1.734808	0.131442
C54	C	-0.260099	2.234808	0.631442
