data_functionalizedCrystal
_audit_creation_method	'MofGen! by Chris Wilmer'
_symmetry_space_group_name_H-M	'P1'
_symmetry_Int_Tables_number	1
_symmetry_cell_setting	triclinic
loop_
_symmetry_equiv_pos_as_xyz
  x,y,z
_cell_length_a	27.354012
_cell_length_b	27.353283
_cell_length_c	27.349551
_cell_angle_alpha	60.005606
_cell_angle_beta	60.011434
_cell_angle_gamma	59.993282
loop_
_atom_site_label
_atom_site_type_symbol
_atom_site_fract_x
_atom_site_fract_y
_atom_site_fract_z
O1	O	0.067635	-0.714267	0.597330
O2	O	0.567635	-0.214267	1.097330
O3	O	0.025429	-0.556105	0.481282
O4	O	0.525429	-0.056105	0.981282
O5	O	0.125575	-0.656186	0.481214
O6	O	0.625575	-0.156186	0.981214
O7	O	-0.032512	-0.614186	0.597397
O8	O	0.467488	-0.114186	1.097397
O9	O	0.158797	-0.622968	0.514367
O10	O	0.658797	-0.122968	1.014367
O11	O	0.058650	-0.522887	0.514434
O12	O	0.558650	-0.022887	1.014434
O13	O	0.100856	-0.681048	0.630482
O14	O	0.600856	-0.181048	1.130482
Zn15	Zn	0.085028	-0.596693	0.577722
Zn16	Zn	0.585028	-0.096693	1.077722
Zn17	Zn	0.041257	-0.640460	0.534042
Zn18	Zn	0.541257	-0.140460	1.034042
O19	O	0.000709	-0.580967	0.630549
O20	O	0.500709	-0.080967	1.130549
N21	N	0.114901	-0.566828	0.607534
N22	N	0.614901	-0.066828	1.107534
N23	N	0.011389	-0.670331	0.504229
N24	N	0.511389	-0.170331	1.004229
C25	C	0.179404	-0.338196	0.672015
C26	C	0.679404	0.161804	1.172015
C27	C	0.179501	-0.502386	0.836160
C28	C	0.679501	-0.002386	1.336160
C29	C	0.179415	-0.502363	0.671996
C30	C	0.679415	-0.002363	1.171996
C31	C	0.343611	-0.502373	0.671960
C32	C	0.843611	-0.002373	1.171960
C33	C	0.197478	-0.392371	0.690061
C34	C	0.697478	0.107629	1.190061
C35	C	0.197534	-0.484321	0.781984
C36	C	0.697534	0.015679	1.281984
C37	C	0.289434	-0.484312	0.690032
C38	C	0.789434	0.015688	1.190032
C39	C	0.197486	-0.484308	0.690051
C40	C	0.697486	0.015692	1.190051
C41	C	0.156398	-0.269238	0.649045
C42	C	0.656398	0.230762	1.149045
C43	C	0.156418	-0.525342	0.649015
C44	C	0.656418	-0.025342	1.149015
C45	C	0.220484	-0.461329	0.713032
C46	C	0.720484	0.038671	1.213032
C47	C	0.443889	-0.485097	0.619172
C48	C	0.943889	0.014903	1.119172
C49	C	0.506571	-0.505993	0.598266
C50	C	1.006571	-0.005993	1.098266
C51	C	0.506589	-0.607412	0.636940
C52	C	1.006589	-0.107412	1.136940
C53	C	0.443909	-0.586515	0.657848
C54	C	0.943909	-0.086515	1.157848
C55	C	0.171510	-0.237888	0.587422
C56	C	0.671510	0.262112	1.087422
C57	C	0.150593	-0.175201	0.566543
C58	C	0.650593	0.324799	1.066543
C59	C	0.099458	-0.175218	0.668913
C60	C	0.599458	0.324782	1.168913
C61	C	0.120375	-0.237905	0.689792
C62	C	0.620375	0.262095	1.189792
C63	C	0.094789	-0.510201	0.664176
C64	C	0.594789	-0.010201	1.164176
C65	C	0.073888	-0.531091	0.643278
C66	C	0.573888	-0.031091	1.143278
C67	C	0.176239	-0.582263	0.592072
C68	C	0.676239	-0.082263	1.092072
C69	C	0.197142	-0.561373	0.612963
C70	C	0.697142	-0.061373	1.112963
C71	C	0.094933	-0.510244	0.936476
C72	C	0.594933	-0.010244	1.436476
C73	C	0.074073	-0.531151	0.999161
C74	C	0.574073	-0.031151	1.499161
C75	C	0.176453	-0.582335	0.999126
C76	C	0.676453	-0.082335	1.499126
C77	C	0.197312	-0.561429	0.936439
C78	C	0.697312	-0.061429	1.436439
C79	C	0.156551	-0.525382	0.905116
C80	C	0.656551	-0.025382	1.405116
C81	C	0.412561	-0.525357	0.648961
C82	C	0.912561	-0.025357	1.148961
C83	C	-0.098513	-0.688235	0.485867
C84	C	0.401487	-0.188235	0.985867
C85	C	-0.006461	-0.688368	0.394066
C86	C	0.493539	-0.188368	0.894066
C87	C	-0.006645	-0.780264	0.486040
C88	C	0.493355	-0.280264	0.986040
C89	C	-0.006630	-0.688361	0.486097
C90	C	0.493370	-0.188361	0.986097
C91	C	-0.029562	-0.711308	0.463018
C92	C	0.470438	-0.211308	0.963018
N93	N	0.537030	-0.566846	0.607436
N94	N	1.037030	-0.066846	1.107436
O95	O	0.741877	-0.576849	0.459995
O96	O	1.241877	-0.076849	0.959995
O97	O	0.742050	-0.693241	0.618010
O98	O	1.242050	-0.193241	1.118010
O99	O	0.741986	-0.692977	0.517791
O100	O	1.241986	-0.192977	1.017791
O101	O	0.741941	-0.577114	0.560214
O102	O	1.241941	-0.077114	1.060214
O103	O	0.642405	-0.659839	0.551046
O104	O	1.142405	-0.159839	1.051046
O105	O	0.642469	-0.660104	0.651265
O106	O	1.142469	-0.160104	1.151265
O107	O	0.642296	-0.543712	0.493251
O108	O	1.142296	-0.043712	0.993251
Zn109	Zn	0.626572	-0.596646	0.577538
Zn110	Zn	1.126572	-0.096646	1.077538
Zn111	Zn	0.757774	-0.640307	0.533723
Zn112	Zn	1.257774	-0.140307	1.033723
O113	O	0.642360	-0.543976	0.593469
O114	O	1.142360	-0.043976	1.093469
N115	N	0.847316	-0.670107	0.503818
N116	N	1.347316	-0.170107	1.003818
N117	N	0.114877	-0.144758	0.607577
N118	N	0.614877	0.355242	1.107577
O119	O	-0.032498	0.060193	0.597441
O120	O	0.467502	0.560193	1.097441
O121	O	0.125523	0.060193	0.481067
O122	O	0.625523	0.560193	0.981067
O123	O	0.025289	0.060179	0.481345
O124	O	0.525289	0.560179	0.981345
O125	O	0.067736	0.060207	0.597163
O126	O	0.567736	0.560207	1.097163
O127	O	0.058511	-0.039410	0.514543
O128	O	0.558511	0.460590	1.014543
O129	O	0.158745	-0.039397	0.514265
O130	O	0.658745	0.460603	1.014265
O131	O	0.000724	-0.039396	0.630638
O132	O	0.500724	0.460604	1.130638
Zn133	Zn	0.085009	-0.055208	0.577722
Zn134	Zn	0.585009	0.444792	1.077722
Zn135	Zn	0.041238	0.076005	0.533983
Zn136	Zn	0.541238	0.576005	1.033983
O137	O	0.100958	-0.039382	0.630360
O138	O	0.600958	0.460618	1.130360
N139	N	0.011362	0.165555	0.504130
N140	N	0.511362	0.665555	1.004130
N141	N	0.115121	-0.566884	1.029592
N142	N	0.615121	-0.066884	1.529592
O143	O	0.104990	-0.714248	1.234528
O144	O	0.604990	-0.214248	1.734528
O145	O	-0.011371	-0.556177	1.234539
O146	O	0.488629	-0.056177	1.734539
O147	O	-0.011103	-0.656395	1.234497
O148	O	0.488897	-0.156395	1.734497
O149	O	0.104722	-0.614030	1.234569
O150	O	0.604722	-0.114030	1.734569
O151	O	0.022090	-0.623190	1.134913
O152	O	0.522090	-0.123190	1.634913
O153	O	0.021822	-0.522972	1.134954
O154	O	0.521822	-0.022972	1.634954
O155	O	0.138182	-0.681044	1.134943
O156	O	0.638182	-0.181044	1.634943
Zn157	Zn	0.085272	-0.596736	1.119137
Zn158	Zn	0.585272	-0.096736	1.619137
Zn159	Zn	0.041539	-0.640484	1.250344
Zn160	Zn	0.541539	-0.140484	1.750344
O161	O	0.137914	-0.580826	1.134984
O162	O	0.637914	-0.080826	1.634984
N163	N	0.011689	-0.670343	1.339890
N164	N	0.511689	-0.170343	1.839890
C165	C	0.038085	-0.519567	0.481870
C166	C	0.538085	-0.019567	0.981870
C167	C	0.162104	-0.643505	0.481786
C168	C	0.662104	-0.143505	0.981786
C169	C	0.088200	-0.717587	0.629893
C170	C	0.588200	-0.217587	1.129893
C171	C	-0.035819	-0.593649	0.629977
C172	C	0.464181	-0.093649	1.129977
C173	C	0.692280	-0.692701	0.654545
C174	C	1.192280	-0.192701	1.154545
C175	C	0.692203	-0.692374	0.530435
C176	C	1.192203	-0.192374	1.030435
C177	C	0.692063	-0.544251	0.456717
C178	C	1.192063	-0.044251	0.956717
C179	C	0.692144	-0.544580	0.580825
C180	C	1.192144	-0.044580	1.080825
C181	C	0.162000	0.010521	0.481600
C182	C	0.662000	0.510521	0.981600
C183	C	0.037914	0.010381	0.481984
C184	C	0.537914	0.510381	0.981984
C185	C	-0.035795	0.010399	0.630065
C186	C	0.464205	0.510399	1.130065
C187	C	0.088333	0.010415	0.629722
C188	C	0.588333	0.510415	1.129722
C189	C	-0.010799	-0.519660	1.184747
C190	C	0.489201	-0.019660	1.684747
C191	C	-0.010461	-0.643761	1.184677
C192	C	0.489539	-0.143761	1.684677
C193	C	0.137610	-0.717561	1.184734
C194	C	0.637610	-0.217561	1.684734
C195	C	0.137280	-0.593452	1.184783
C196	C	0.637280	-0.093452	1.684783
H197	H	0.023897	-0.518815	1.024687
H198	H	0.523897	-0.018815	1.524687
O199	O	0.099232	0.010309	0.673152
O200	O	0.599232	0.510309	1.173152
C201	C	0.160045	-0.041271	0.736081
C202	C	0.660045	0.458729	1.236081
C203	C	0.147759	-0.041229	0.686902
C204	C	0.647759	0.458771	1.186902
H205	H	0.199287	-0.082928	0.747203
H206	H	0.699287	0.417072	1.247203
H207	H	0.118552	-0.041312	0.777933
H208	H	0.618552	0.458688	1.277933
H209	H	0.171415	0.000426	0.719482
H210	H	0.671415	0.500426	1.219482
H211	H	0.136404	-0.082918	0.703444
H212	H	0.636404	0.417082	1.203444
H213	H	0.189262	-0.041157	0.645060
H214	H	0.689262	0.458843	1.145060
H215	H	0.692134	-0.508185	0.589902
H216	H	1.192134	-0.008185	1.089902
O217	O	-0.054326	-0.465477	1.184776
O218	O	0.445674	0.034523	1.684776
C219	C	-0.082149	-0.366823	1.184766
C220	C	0.417851	0.133177	1.684766
C221	C	-0.032806	-0.428162	1.184748
C222	C	0.467194	0.071838	1.684748
H223	H	-0.064764	-0.336632	1.184730
H224	H	0.435236	0.163368	1.684730
H225	H	-0.122988	-0.373070	1.226443
H226	H	0.377012	0.126930	1.726443
H227	H	-0.095213	-0.345342	1.143091
H228	H	0.404787	0.154658	1.643091
H229	H	-0.019691	-0.449676	1.226395
H230	H	0.480309	0.050324	1.726395
H231	H	0.008001	-0.421876	1.143043
H232	H	0.508001	0.078124	1.643043
O233	O	-0.089980	0.010438	0.673576
O234	O	0.410020	0.510438	1.173576
C235	C	-0.188615	0.010416	0.701425
C236	C	0.311385	0.510416	1.201425
C237	C	-0.127281	0.010380	0.652094
C238	C	0.372719	0.510380	1.152094
H239	H	-0.218786	0.010357	0.684079
H240	H	0.281214	0.510357	1.184079
H241	H	-0.210149	0.052113	0.714463
H242	H	0.289851	0.552113	1.214463
H243	H	-0.182298	-0.031243	0.742273
H244	H	0.317702	0.468757	1.242273
H245	H	-0.133545	0.052011	0.611214
H246	H	0.366455	0.552011	1.111214
H247	H	-0.105767	-0.031344	0.639106
H248	H	0.394233	0.468656	1.139106
H249	H	0.174144	-0.762957	1.184724
H250	H	0.674144	-0.262957	1.684724
H251	H	0.097215	-0.763020	0.666340
H252	H	0.597215	-0.263020	1.166340
O253	O	-0.090013	-0.583036	0.673488
O254	O	0.409987	-0.083036	1.173488
C255	C	-0.177943	-0.612086	0.738962
C256	C	0.322057	-0.112086	1.238962
C257	C	-0.116587	-0.624162	0.689678
C258	C	0.383413	-0.124162	1.189678
H259	H	-0.199440	-0.645337	0.752075
H260	H	0.300560	-0.145337	1.252075
H261	H	-0.208128	-0.564541	0.721550
H262	H	0.291872	-0.064541	1.221550
H263	H	-0.171662	-0.617463	0.779779
H264	H	0.328338	-0.117463	1.279779
H265	H	-0.122812	-0.618817	0.648844
H266	H	0.377188	-0.118817	1.148844
H267	H	-0.086423	-0.671702	0.707138
H268	H	0.413577	-0.171702	1.207138
O269	O	0.692077	-0.500634	0.402578
O270	O	1.192077	-0.000634	0.902578
C271	C	0.743583	-0.435137	0.314679
C272	C	1.243583	0.064863	0.814679
C273	C	0.743635	-0.484521	0.375985
C274	C	1.243635	0.015479	0.875985
H275	H	0.785270	-0.422103	0.293156
H276	H	1.285270	0.077897	0.793156
H277	H	0.701915	-0.394285	0.320971
H278	H	1.201915	0.105715	0.820971
H279	H	0.743544	-0.452495	0.284505
H280	H	1.243544	0.047505	0.784505
H281	H	0.743695	-0.467219	0.406192
H282	H	1.243695	0.032781	0.906192
H283	H	0.785300	-0.525363	0.369648
H284	H	1.285300	-0.025363	0.869648
H285	H	-0.046832	-0.652809	1.184615
H286	H	0.453168	-0.152809	1.684615
H287	H	0.173667	-0.584388	1.184797
H288	H	0.673667	-0.084388	1.684797
H289	H	0.692323	-0.729239	0.699929
H290	H	1.192323	-0.229239	1.199929
O291	O	0.692115	-0.735744	0.519616
O292	O	1.192115	-0.235744	1.019616
C293	C	0.640541	-0.764332	0.493243
C294	C	1.140541	-0.264332	0.993243
C295	C	0.640560	-0.715170	0.505494
C296	C	1.140560	-0.215170	1.005494
H297	H	0.598870	-0.747711	0.481809
H298	H	1.098870	-0.247711	0.981809
H299	H	0.640554	-0.806167	0.534761
H300	H	1.140554	-0.306167	1.034761
H301	H	0.682217	-0.775500	0.454044
H302	H	1.182217	-0.275500	0.954044
H303	H	0.598891	-0.703950	0.544673
H304	H	1.098891	-0.203950	1.044673
H305	H	0.640578	-0.673365	0.463945
H306	H	1.140578	-0.173365	0.963945
O307	O	0.055254	-0.475253	0.906144
O308	O	0.555254	0.024747	1.406144
C309	C	-0.048496	-0.426660	0.912800
C310	C	0.451504	0.073340	1.412800
C311	C	-0.003627	-0.466299	0.947226
C312	C	0.496373	0.033701	1.447226
H313	H	-0.096111	-0.419398	0.946000
H314	H	0.403889	0.080602	1.446000
H315	H	-0.041336	-0.449612	0.883466
H316	H	0.458664	0.050388	1.383466
H317	H	-0.041254	-0.381584	0.883442
H318	H	0.458746	0.118416	1.383442
H319	H	-0.010842	-0.511382	0.976616
H320	H	0.489158	-0.011382	1.476616
H321	H	-0.010798	-0.443300	0.976522
H322	H	0.489202	0.056700	1.476522
H323	H	0.029071	-0.474132	0.445424
H324	H	0.529071	0.025868	0.945424
H325	H	0.207290	0.010797	0.444973
H326	H	0.707290	0.510797	0.944973
H327	H	0.207509	-0.652460	0.445301
H328	H	0.707509	-0.152460	0.945301
H329	H	0.028825	0.010378	0.445599
H330	H	0.528825	0.510378	0.945599
H331	H	0.209648	-0.611676	1.024626
H332	H	0.709648	-0.111676	1.524626
H333	H	0.023705	-0.518748	0.655609
H334	H	0.523705	-0.018748	1.155609
H335	H	0.061625	-0.480862	0.693528
H336	H	0.561625	0.019138	1.193528
O337	O	0.257185	-0.576240	0.906044
O338	O	0.757185	-0.076240	1.406044
C339	C	0.351071	-0.655709	0.886806
C340	C	0.851071	-0.155709	1.386806
C341	C	0.283277	-0.639021	0.921273
C342	C	0.783277	-0.139021	1.421273
H343	H	0.372184	-0.706467	0.899096
H344	H	0.872184	-0.206467	1.399096
H345	H	0.372242	-0.638456	0.899140
H346	H	0.872242	-0.138456	1.399140
H347	H	0.358967	-0.634549	0.836626
H348	H	0.858967	-0.134549	1.336626
H349	H	0.275327	-0.660176	0.971461
H350	H	0.775327	-0.160176	1.471461
H351	H	0.262140	-0.656263	0.908889
H352	H	0.762140	-0.156263	1.408889
O353	O	0.215830	-0.617177	0.556967
O354	O	0.715830	-0.117177	1.056967
C355	C	0.296921	-0.625183	0.464708
C356	C	0.796921	-0.125183	0.964708
C357	C	0.252109	-0.585579	0.504400
C358	C	0.752109	-0.085579	1.004400
H359	H	0.326272	-0.599656	0.422205
H360	H	0.826272	-0.099656	0.922205
H361	H	0.271432	-0.637503	0.452322
H362	H	0.771432	-0.137503	0.952322
H363	H	0.326261	-0.667732	0.490239
H364	H	0.826261	-0.167732	0.990239
H365	H	0.222757	-0.543005	0.478906
H366	H	0.722757	-0.043005	0.978906
H367	H	0.277634	-0.573307	0.516789
H368	H	0.777634	-0.073307	1.016789
O369	O	0.256989	-0.576003	0.598274
O370	O	0.756989	-0.076003	1.098274
C371	C	0.334554	-0.566531	0.607800
C372	C	0.834554	-0.066531	1.107800
C373	C	0.266763	-0.549904	0.624468
C374	C	0.766763	-0.049904	1.124468
H375	H	0.342478	-0.545449	0.628981
H376	H	0.842478	-0.045449	1.128981
H377	H	0.355684	-0.549203	0.557047
H378	H	0.855684	-0.049203	1.057047
H379	H	0.355687	-0.617294	0.625068
H380	H	0.855687	-0.117294	1.125068
H381	H	0.245578	-0.499148	0.607239
H382	H	0.745578	0.000852	1.107239
H383	H	0.245677	-0.567276	0.675224
H384	H	0.745677	-0.067276	1.175224
O385	O	0.413510	-0.625639	0.686686
O386	O	0.913510	-0.125639	1.186686
C387	C	0.394375	-0.699356	0.681103
C388	C	0.894375	-0.199356	1.181103
C389	C	0.428824	-0.655056	0.648372
C390	C	0.928824	-0.155056	1.148372
H391	H	0.406753	-0.723161	0.650145
H392	H	0.906753	-0.223161	1.150145
H393	H	0.344180	-0.673951	0.694506
H394	H	0.844180	-0.173951	1.194506
H395	H	0.406719	-0.733784	0.722912
H396	H	0.906719	-0.233784	1.222912
H397	H	0.416530	-0.620617	0.606542
H398	H	0.916530	-0.120617	1.106542
H399	H	0.479010	-0.680501	0.635014
H400	H	0.979010	-0.180501	1.135014
O401	O	0.536916	-0.466801	0.569314
O402	O	1.036916	0.033199	1.069314
C403	C	0.530290	-0.364007	0.533182
C404	C	1.030290	0.135993	1.033182
C405	C	0.495849	-0.408324	0.565971
C406	C	0.995849	0.091676	1.065971
H407	H	0.497102	-0.316721	0.530479
H408	H	0.997102	0.183279	1.030479
H409	H	0.559598	-0.365881	0.486033
H410	H	1.059598	0.134119	0.986033
H411	H	0.559672	-0.376625	0.558799
H412	H	1.059672	0.123375	1.058799
H413	H	0.466434	-0.395737	0.540404
H414	H	0.966434	0.104263	1.040404
H415	H	0.466578	-0.406443	0.613122
H416	H	0.966578	0.093557	1.113122
H417	H	0.532110	-0.657210	0.644171
H418	H	1.032110	-0.157210	1.144171
H419	H	0.418366	-0.435297	0.611936
H420	H	0.918366	0.064703	1.111936
H421	H	0.200842	-0.263395	0.554238
H422	H	0.700842	0.236605	1.054238
H423	H	0.162897	-0.149674	0.516363
H424	H	0.662897	0.350326	1.016363
H425	H	0.108067	-0.263426	0.739970
H426	H	0.608067	0.236574	1.239970
O427	O	0.064454	-0.144871	0.708574
O428	O	0.564454	0.355129	1.208574
C429	C	0.015986	-0.151505	0.812317
C430	C	0.515986	0.348495	1.312317
C431	C	0.055621	-0.185944	0.767466
C432	C	0.555621	0.314056	1.267466
H433	H	0.008843	-0.184697	0.859941
H434	H	0.508843	0.315303	1.359941
H435	H	-0.029140	-0.122175	0.805159
H436	H	0.470860	0.377825	1.305159
H437	H	0.038951	-0.122138	0.805050
H438	H	0.538951	0.377862	1.305050
H439	H	0.032709	-0.215343	0.774706
H440	H	0.532709	0.284657	1.274706
H441	H	0.100746	-0.215235	0.774635
H442	H	0.600746	0.284765	1.274635
