data_functionalizedCrystal
_audit_creation_method	'MofGen! by Chris Wilmer'
_symmetry_space_group_name_H-M	'P1'
_symmetry_Int_Tables_number	1
_symmetry_cell_setting	triclinic
loop_
_symmetry_equiv_pos_as_xyz
  x,y,z
_cell_length_a	27.732048
_cell_length_b	15.944551
_cell_length_c	15.021413
_cell_angle_alpha	90.002826
_cell_angle_beta	89.999048
_cell_angle_gamma	96.929303
loop_
_atom_site_label
_atom_site_type_symbol
_atom_site_fract_x
_atom_site_fract_y
_atom_site_fract_z
O1	O	0.062334	-1.113714	-0.073949
O2	O	0.070020	-0.869064	-0.073973
O3	O	-0.004187	-0.998987	-0.073943
O4	O	0.136541	-0.983790	-0.073979
O5	O	-0.004176	-0.998966	0.074121
O6	O	0.070030	-0.869043	0.074092
O7	O	0.062345	-1.113693	0.074115
Zn8	Zn	0.066189	-0.991365	0.097612
Zn9	Zn	0.066175	-0.991392	-0.097469
O10	O	0.136551	-0.983770	0.074086
C11	C	0.069706	-0.837763	0.000057
C12	C	0.068749	-0.744530	0.000049
C13	C	-0.022190	-0.998658	0.000091
C14	C	-0.075849	-0.997697	0.000099
C15	C	0.062658	-1.144993	0.000084
C16	C	0.063615	-1.238227	0.000086
C17	C	-0.414358	-1.068426	0.000060
C18	C	-0.616033	-1.064862	0.000047
O19	O	-0.647008	-1.129539	0.000014
N20	N	-0.635490	-0.987823	0.000040
C21	C	-0.604525	-0.911669	0.000031
O22	O	-0.625703	-0.846061	0.000016
C23	C	-0.402851	-0.915234	0.000038
C24	C	-0.383397	-0.992278	0.000053
C25	C	-0.394903	-1.145464	0.000074
C26	C	-0.344487	-1.146354	0.000082
C27	C	-0.313526	-1.070206	0.000076
C28	C	-0.332981	-0.993168	0.000061
C29	C	-0.371887	-0.839081	0.000022
C30	C	-0.321466	-0.839979	0.000021
C31	C	-0.302012	-0.917024	0.000037
C32	C	-0.251604	-0.917911	0.000063
N33	N	-0.232147	-0.994950	0.000069
C34	C	-0.263108	-1.071098	0.000076
C35	C	-0.710408	-0.909803	0.000030
C36	C	-0.760826	-0.908912	0.000030
C37	C	-0.772330	-1.062105	0.000044
C38	C	-0.721911	-1.062995	0.000050
C39	C	-0.690950	-0.986842	0.000036
C40	C	-0.157231	-1.072961	0.000093
C41	C	-0.106810	-1.073845	0.000105
C42	C	-0.095310	-0.920652	0.000086
C43	C	-0.145727	-0.919768	0.000079
C44	C	-0.176686	-0.995930	0.000080
O45	O	-0.220600	-0.853269	0.000085
O46	O	-0.241921	-1.136697	0.000071
C47	C	-0.464774	-1.067536	0.000052
C48	C	-0.484228	-0.990498	0.000037
C49	C	-0.453268	-0.914350	0.000031
C50	C	-0.534647	-0.989607	0.000037
C51	C	-0.565608	-1.065754	0.000044
C52	C	-0.546150	-1.142794	0.000050
C53	C	-0.495734	-1.143684	0.000058
C54	C	-0.472725	-0.837311	0.000024
C55	C	-0.523141	-0.836427	0.000017
C56	C	-0.554102	-0.912575	0.000023
C57	C	0.154554	-0.984099	0.000049
C58	C	0.208213	-0.985059	0.000036
N59	N	0.066198	-0.991352	0.230749
C60	C	0.020466	-0.530305	0.000078
C61	C	0.042882	-0.469001	-0.072931
C62	C	0.067019	-0.573827	0.000060
C63	C	0.042904	-0.469003	0.073049
C64	C	0.065344	-0.408936	0.000074
C65	C	0.089448	-0.513752	-0.073010
C66	C	0.089463	-0.513760	0.073036
C67	C	0.111912	-0.452474	0.000009
C68	C	0.067983	-0.668816	0.000051
C69	C	0.064384	-0.313947	0.000077
N70	N	0.066162	-0.991411	-0.230607
C71	C	0.100495	-0.931267	0.470419
C72	C	0.109879	-1.007044	0.529758
C73	C	0.066186	-0.991374	0.412356
C74	C	0.056813	-0.915617	0.529759
C75	C	0.066176	-0.991388	0.587780
C76	C	0.075592	-1.067190	0.470389
C77	C	0.022507	-0.975712	0.470385
C78	C	0.031872	-1.051545	0.529697
C79	C	0.066194	-0.991365	0.311299
C80	C	0.066168	-0.991406	0.688836
H81	H	-0.182432	-1.134979	0.000090
H82	H	-0.018169	-0.564143	-0.000003
O83	O	0.113009	-0.537491	0.146567
C84	C	0.153813	-0.576343	0.120388
H85	H	0.165373	-0.554456	0.050505
H86	H	0.184957	-0.558100	0.168836
H87	H	0.144103	-0.647887	0.120654
H88	H	-0.447521	-0.775301	0.000017
H89	H	0.023188	-0.449157	-0.134645
H90	H	-0.538976	-0.773684	0.000012
O91	O	-0.065161	-0.846762	0.000039
C92	C	-0.016491	-0.864079	0.000067
H93	H	-0.014554	-0.930036	-0.027950
H94	H	0.006349	-0.815515	-0.042929
H95	H	-0.001911	-0.860687	0.071101
O96	O	-0.002801	-1.112143	0.560601
C97	C	-0.036669	-1.074183	0.612267
H98	H	-0.035878	-1.005077	0.592209
H99	H	-0.074621	-1.108568	0.600634
H100	H	-0.026896	-1.078209	0.685734
H101	H	0.109118	-0.533491	-0.134801
O102	O	-0.425024	-1.219385	0.000200
C103	C	-0.454522	-1.223458	0.076898
H104	H	-0.457087	-1.156819	0.102452
H105	H	-0.492409	-1.255265	0.059659
H106	H	-0.437924	-1.261582	0.130600
H107	H	0.150587	-0.418809	-0.000042
H108	H	-0.014416	-0.962429	0.444285
O109	O	0.019347	-0.445450	0.146658
C110	C	-0.028850	-0.485473	0.146376
H111	H	-0.031170	-0.544909	0.103641
H112	H	-0.040433	-0.503322	0.217376
H113	H	-0.053920	-0.440553	0.117884
O114	O	0.135198	-0.870777	0.439399
C115	C	0.181184	-0.887613	0.469672
H116	H	0.179823	-0.957616	0.486312
H117	H	0.209380	-0.870399	0.415399
H118	H	0.191537	-0.848441	0.531783
H119	H	0.146814	-1.020304	0.555837
O120	O	0.085146	-1.143565	0.439266
C121	C	0.085061	-1.142621	0.345410
H122	H	0.092625	-1.074654	0.320863
H123	H	0.114413	-1.180602	0.319508
H124	H	0.048079	-1.171843	0.319966
H125	H	0.048890	-0.851544	0.555840
H126	H	-0.328652	-1.209091	0.000091
O127	O	-0.087993	-1.148764	0.000077
C128	C	-0.126135	-1.215779	0.000100
H129	H	-0.160386	-1.192689	-0.027938
H130	H	-0.115592	-1.269614	-0.042881
H131	H	-0.133270	-1.239227	0.071135
H132	H	-0.706075	-1.125732	0.000062
O133	O	-0.576250	-1.216742	-0.000104
C134	C	-0.605763	-1.220798	-0.076781
H135	H	-0.587297	-1.177610	-0.130377
H136	H	-0.611428	-1.288534	-0.102519
H137	H	-0.642426	-1.199533	-0.059451
H138	H	-0.776661	-0.846175	0.000032
O139	O	-0.802479	-1.135999	0.000003
C140	C	-0.851149	-1.118682	0.000020
H141	H	-0.853083	-1.052730	-0.028005
H142	H	-0.873987	-1.167253	-0.042974
H143	H	-0.865733	-1.122059	0.071052
H144	H	-0.685203	-0.847786	0.000018
O145	O	-0.390697	-0.764165	-0.000037
C146	C	-0.352550	-0.697158	-0.000026
H147	H	-0.318299	-0.720269	-0.028047
H148	H	-0.363085	-0.643336	-0.043028
H149	H	-0.345418	-0.673685	0.071003
O150	O	-0.164606	-0.844910	-0.000089
C151	C	-0.148769	-0.798536	-0.076765
H152	H	-0.138269	-0.843608	-0.130350
H153	H	-0.179314	-0.763213	-0.102523
H154	H	-0.115918	-0.751290	-0.059425
H155	H	-0.296260	-0.777965	0.000009
O156	O	-0.476920	-1.218599	0.000028
C157	C	-0.515067	-1.285608	0.000053
H158	H	-0.549316	-1.262511	-0.027982
H159	H	-0.504528	-1.339445	-0.042929
H160	H	-0.522201	-1.309055	0.071089
