data_functionalizedCrystal
_audit_creation_method	'MofGen! by Chris Wilmer'
_symmetry_space_group_name_H-M	'P1'
_symmetry_Int_Tables_number	1
_symmetry_cell_setting	triclinic
loop_
_symmetry_equiv_pos_as_xyz
  x,y,z
_cell_length_a	19.805407
_cell_length_b	19.805406
_cell_length_c	19.805399
_cell_angle_alpha	89.985648
_cell_angle_beta	90.021064
_cell_angle_gamma	90.001047
loop_
_atom_site_label
_atom_site_type_symbol
_atom_site_fract_x
_atom_site_fract_y
_atom_site_fract_z
Zn1	Zn	-1.034860	-0.269497	-0.382809
Zn2	Zn	-0.534860	0.230503	0.117191
Zn3	Zn	-1.034827	-0.382685	-0.269647
Zn4	Zn	-0.534827	0.117315	0.230353
Zn5	Zn	-0.921675	-0.269514	-0.269630
Zn6	Zn	-0.421675	0.230486	0.230370
Zn7	Zn	-0.921690	-0.382647	-0.382791
Zn8	Zn	-0.421690	0.117353	0.117209
O9	O	-0.978263	-0.326086	-0.326219
O10	O	-0.478263	0.173914	0.173781
O11	O	-1.129572	-0.284521	-0.367812
O12	O	-0.629572	0.215479	0.132188
O13	O	-1.019797	-0.367696	-0.174928
O14	O	-0.519797	0.132304	0.325072
O15	O	-0.936696	-0.174795	-0.284645
O16	O	-0.436696	0.325205	0.215355
O17	O	-1.129548	-0.367680	-0.284672
O18	O	-0.629548	0.132320	0.215328
O19	O	-1.019853	-0.174783	-0.367796
O20	O	-0.519853	0.325217	0.132204
O21	O	-0.936664	-0.284549	-0.174916
O22	O	-0.436664	0.215451	0.325084
O23	O	-0.826960	-0.284512	-0.284627
O24	O	-0.326960	0.215488	0.215373
O25	O	-0.936723	-0.367615	-0.477510
O26	O	-0.436723	0.132385	0.022490
O27	O	-0.826972	-0.367631	-0.367765
O28	O	-0.326972	0.132369	0.132235
O29	O	-1.019868	-0.284484	-0.477523
O30	O	-0.519868	0.215516	0.022477
O31	O	-1.019812	-0.477397	-0.284655
O32	O	-0.519812	0.022603	0.215345
O33	O	-0.936691	-0.477369	-0.367781
O34	O	-0.436691	0.022631	0.132219
C35	C	-0.802407	-0.326070	-0.326193
C36	C	-0.302407	0.173930	0.173807
C37	C	-0.727175	-0.326079	-0.326197
C38	C	-0.227175	0.173921	0.173803
C39	C	-0.691855	-0.369424	-0.369417
C40	C	-0.191855	0.130576	0.130583
C41	C	-0.621166	-0.369424	-0.369424
C42	C	-0.121166	0.130576	0.130576
C43	C	-0.585800	-0.326082	-0.326209
C44	C	-0.085800	0.173918	0.173791
C45	C	-0.621125	-0.282733	-0.282988
C46	C	-0.121125	0.217267	0.217012
C47	C	-0.691812	-0.282730	-0.282984
C48	C	-0.191812	0.217270	0.217016
C49	C	-0.336052	-0.282743	-0.283003
C50	C	0.163948	0.217257	0.216997
C51	C	-0.265359	-0.282750	-0.283009
C52	C	0.234641	0.217250	0.216991
C53	C	-0.265406	-0.369437	-0.369443
C54	C	0.234594	0.130563	0.130557
C55	C	-0.336093	-0.369434	-0.369439
C56	C	0.163907	0.130566	0.130561
C57	C	-0.371412	-0.326082	-0.326221
C58	C	0.128588	0.173918	0.173779
C59	C	-0.448061	-0.326082	-0.326214
C60	C	0.051939	0.173918	0.173786
C61	C	-0.509152	-0.326085	-0.326212
C62	C	-0.009152	0.173915	0.173788
C63	C	-0.978268	-0.501942	-0.326232
C64	C	-0.478268	-0.001942	0.173768
C65	C	-0.978332	-0.577174	-0.326261
C66	C	-0.478332	-0.077174	0.173739
C67	C	-0.978301	-0.326043	-0.502762
C68	C	-0.478301	0.173957	-0.002762
C69	C	-0.978317	-0.326025	-0.577994
C70	C	-0.478317	0.173975	-0.077994
C71	C	-0.154806	-0.326098	-0.326240
C72	C	0.345194	0.173902	0.173760
C73	C	-0.230038	-0.326092	-0.326232
C74	C	0.269962	0.173908	0.173768
C75	C	-0.978277	-0.149543	-0.326221
C76	C	-0.478277	0.350457	0.173779
C77	C	-0.978282	-0.074311	-0.326221
C78	C	-0.478282	0.425689	0.173779
C79	C	-0.934992	-0.038972	-0.282931
C80	C	-0.434992	0.461028	0.217069
C81	C	-0.934997	0.031716	-0.282938
C82	C	-0.434997	0.531716	0.217062
C83	C	-0.978295	0.067064	-0.326233
C84	C	-0.478295	0.567064	0.173767
C85	C	-1.021587	0.031721	-0.369529
C86	C	-0.521587	0.531721	0.130471
C87	C	-1.021578	-0.038967	-0.369524
C88	C	-0.521578	0.461033	0.130476
C89	C	-1.021620	0.316794	-0.369549
C90	C	-0.521620	0.816794	0.130451
C91	C	-1.021626	0.387486	-0.369549
C92	C	-0.521626	0.887486	0.130451
C93	C	-0.935038	0.387477	-0.282962
C94	C	-0.435038	0.887477	0.217038
C95	C	-0.935030	0.316789	-0.282958
C96	C	-0.435030	0.816789	0.217042
C97	C	-0.978319	0.281452	-0.326256
C98	C	-0.478319	0.781452	0.173744
C99	C	-0.978313	0.204803	-0.326248
C100	C	-0.478313	0.704803	0.173752
C101	C	-0.978305	0.143711	-0.326238
C102	C	-0.478305	0.643711	0.173762
C103	C	-1.021612	-0.282737	-0.613346
C104	C	-0.521612	0.217263	-0.113346
C105	C	-1.021619	-0.282717	-0.684035
C106	C	-0.521619	0.217283	-0.184035
C107	C	-0.978334	-0.325990	-0.719370
C108	C	-0.478334	0.174010	-0.219370
C109	C	-0.935035	-0.369280	-0.684012
C110	C	-0.435035	0.130720	-0.184012
C111	C	-0.935025	-0.369296	-0.613325
C112	C	-0.435025	0.130704	-0.113325
C113	C	-0.935073	-0.369217	-0.969086
C114	C	-0.435073	0.130783	-0.469086
C115	C	-0.935087	-0.369200	-1.039778
C116	C	-0.435087	0.130800	-0.539778
C117	C	-1.021667	-0.282638	-1.039795
C118	C	-0.521667	0.217362	-0.539795
C119	C	-1.021657	-0.282654	-0.969108
C120	C	-0.521657	0.217346	-0.469108
C121	C	-0.978355	-0.325941	-0.933757
C122	C	-0.478355	0.174059	-0.433757
C123	C	-0.978347	-0.325961	-0.857109
C124	C	-0.478347	0.174039	-0.357109
C125	C	-0.978345	-0.325974	-0.796017
C126	C	-0.478345	0.174026	-0.296017
C127	C	-0.978264	-0.326080	-0.150363
C128	C	-0.478264	0.173920	0.349637
C129	C	-0.978379	-0.325907	-0.075132
C130	C	-0.478379	0.174093	0.424868
H131	H	-0.364800	-0.247448	-0.247807
H132	H	0.135200	0.252552	0.252193
H133	H	-1.056838	0.060505	-0.404784
H134	H	-0.556838	0.560505	0.095216
H135	H	-0.236640	-0.404733	-0.404636
H136	H	0.263360	0.095267	0.095364
O137	O	-0.586804	-0.240532	-0.241080
O138	O	-0.086804	0.259468	0.258920
C139	C	-0.604092	-0.173093	-0.255968
C140	C	-0.104092	0.326907	0.244032
H141	H	-0.623544	-0.169746	-0.310045
H142	H	-0.123544	0.330254	0.189955
H143	H	-0.645109	-0.155351	-0.219707
H144	H	-0.145109	0.344649	0.280293
C145	C	-0.517404	-0.132021	-0.181743
C146	C	-0.017404	0.367979	0.318257
C147	C	-0.541289	-0.127910	-0.248164
C148	C	-0.041289	0.372090	0.251836
H149	H	-0.478665	-0.104150	-0.176927
H150	H	0.021335	0.395850	0.323073
H151	H	-0.505757	-0.177456	-0.171711
H152	H	-0.005757	0.322544	0.328289
H153	H	-0.551590	-0.117238	-0.151534
H154	H	-0.051590	0.382762	0.348466
H155	H	-0.507106	-0.142701	-0.278371
H156	H	-0.007106	0.357299	0.221629
H157	H	-0.552928	-0.082477	-0.258201
H158	H	-0.052928	0.417523	0.241799
H159	H	-0.899824	-0.404474	-0.940312
H160	H	-0.399824	0.095526	-0.440312
H161	H	-0.720569	-0.247431	-0.247794
H162	H	-0.220569	0.252569	0.252206
O163	O	-1.063645	-0.240571	-0.718296
O164	O	-0.563645	0.259429	-0.218296
C165	C	-1.048846	-0.173115	-0.701025
C166	C	-0.548846	0.326885	-0.201025
H167	H	-1.022816	-0.171728	-0.649697
H168	H	-0.522816	0.328272	-0.149697
H169	H	-1.014058	-0.150299	-0.740801
H170	H	-0.514058	0.349701	-0.240801
C171	C	-1.146805	-0.133830	-0.760806
C172	C	-0.646805	0.366170	-0.260806
C173	C	-1.114840	-0.132126	-0.697762
C174	C	-0.614840	0.367874	-0.197762
H175	H	-1.187512	-0.108544	-0.758796
H176	H	-0.687512	0.391456	-0.258796
H177	H	-1.156774	-0.179276	-0.772445
H178	H	-0.656774	0.320724	-0.272445
H179	H	-1.117808	-0.114817	-0.793946
H180	H	-0.617808	0.385183	-0.293946
H181	H	-1.143833	-0.151146	-0.664625
H182	H	-0.643833	0.348854	-0.164625
H183	H	-1.104877	-0.086682	-0.686118
H184	H	-0.604877	0.413318	-0.186118
H185	H	-1.056923	-0.247389	-1.068587
H186	H	-0.556923	0.252611	-0.568587
O187	O	-1.063590	0.421899	-0.411646
O188	O	-0.563590	0.921899	0.088354
C189	C	-1.025060	0.462790	-0.455361
C190	C	-0.525060	0.962790	0.044639
H191	H	-0.973765	0.473378	-0.431475
H192	H	-0.473765	0.973378	0.068525
H193	H	-1.017626	0.435562	-0.505519
H194	H	-0.517626	0.935562	-0.005519
C195	C	-1.125308	0.516933	-0.496963
C196	C	-0.625308	1.016933	0.003037
C197	C	-1.062309	0.529941	-0.467623
C198	C	-0.562309	1.029941	0.032377
H199	H	-1.148285	0.558353	-0.504529
H200	H	-0.648285	1.058353	-0.004529
H201	H	-1.151267	0.489382	-0.467513
H202	H	-0.651267	0.989382	0.032487
H203	H	-1.119104	0.494241	-0.538758
H204	H	-0.619104	0.994241	-0.038758
H205	H	-1.068514	0.552624	-0.425825
H206	H	-0.568514	1.052624	0.074175
H207	H	-1.036352	0.557497	-0.497066
H208	H	-0.536352	1.057497	0.002934
H209	H	-0.899837	-0.404439	-1.068546
H210	H	-0.399837	0.095561	-0.568546
H211	H	-0.899736	-0.067748	-0.247672
H212	H	-0.399736	0.432252	0.252328
O213	O	-1.063725	-0.240554	-0.934889
O214	O	-0.563725	0.259446	-0.434889
C215	C	-1.101952	-0.202353	-0.981251
C216	C	-0.601952	0.297647	-0.481251
H217	H	-1.074237	-0.199996	-1.031634
H218	H	-0.574237	0.300004	-0.531634
H219	H	-1.153358	-0.227140	-0.988778
H220	H	-0.653358	0.272860	-0.488778
C221	C	-1.145746	-0.133217	-0.891785
C222	C	-0.645746	0.366783	-0.391785
C223	C	-1.111703	-0.130318	-0.953665
C224	C	-0.611703	0.369682	-0.453665
H225	H	-1.151764	-0.088784	-0.874768
H226	H	-0.651764	0.411216	-0.374768
H227	H	-1.119994	-0.158956	-0.860550
H228	H	-0.619994	0.341044	-0.360550
H229	H	-1.188580	-0.153877	-0.898066
H230	H	-0.688580	0.346123	-0.398066
H231	H	-1.068867	-0.109666	-0.947382
H232	H	-0.568867	0.390334	-0.447382
H233	H	-1.137448	-0.104574	-0.984899
H234	H	-0.637448	0.395426	-0.484899
O235	O	-0.892929	0.065939	-0.240816
O236	O	-0.392929	0.565939	0.259184
C237	C	-0.854705	0.019582	-0.202608
C238	C	-0.354705	0.519582	0.297392
H239	H	-0.882423	-0.030810	-0.200272
H240	H	-0.382423	0.469190	0.299728
H241	H	-0.803299	0.012077	-0.227377
H242	H	-0.303299	0.512077	0.272623
C243	C	-0.810906	0.109048	-0.133438
C244	C	-0.310906	0.609048	0.366562
C245	C	-0.844953	0.047157	-0.130564
C246	C	-0.344953	0.547157	0.369436
H247	H	-0.804887	0.126058	-0.088998
H248	H	-0.304887	0.626058	0.411002
H249	H	-0.836656	0.140280	-0.159180
H250	H	-0.336656	0.640280	0.340820
H251	H	-0.768072	0.102785	-0.154081
H252	H	-0.268072	0.602785	0.345919
H253	H	-0.887789	0.053422	-0.109928
H254	H	-0.387789	0.553422	0.390072
H255	H	-0.819210	0.015926	-0.104816
H256	H	-0.319210	0.515926	0.395184
H257	H	-1.056876	0.288030	-0.404797
H258	H	-0.556876	0.788030	0.095203
H259	H	-0.364885	-0.404729	-0.404627
H260	H	0.135115	0.095271	0.095373
H261	H	-1.056824	-0.067739	-0.404782
H262	H	-0.556824	0.432261	0.095218
H263	H	-0.236566	-0.247452	-0.247817
H264	H	0.263434	0.252548	0.252183
H265	H	-0.899774	0.288012	-0.247700
H266	H	-0.399774	0.788012	0.252300
O267	O	-1.063564	-0.240665	-0.578952
O268	O	-0.563564	0.259335	-0.078952
C269	C	-1.025024	-0.196943	-0.538070
C270	C	-0.525024	0.303057	-0.038070
H271	H	-0.973728	-0.220815	-0.527466
H272	H	-0.473728	0.279185	-0.027466
H273	H	-1.017590	-0.146779	-0.565315
H274	H	-0.517590	0.353221	-0.065315
C275	C	-1.125258	-0.155379	-0.483960
C276	C	-0.625258	0.344621	0.016040
C277	C	-1.062259	-0.184702	-0.470930
C278	C	-0.562259	0.315298	0.029070
H279	H	-1.148227	-0.147825	-0.442546
H280	H	-0.648227	0.352175	0.057454
H281	H	-1.151225	-0.184833	-0.511504
H282	H	-0.651225	0.315167	-0.011504
H283	H	-1.119055	-0.113579	-0.506666
H284	H	-0.619055	0.386421	-0.006666
H285	H	-1.068463	-0.226505	-0.448233
H286	H	-0.568463	0.273495	0.051767
H287	H	-1.036294	-0.155254	-0.443381
H288	H	-0.536294	0.344746	0.056619
O289	O	-0.893049	-0.411293	-0.718439
O290	O	-0.393049	0.088707	-0.218439
C291	C	-0.902330	-0.401987	-0.788411
C292	C	-0.402330	0.098013	-0.288411
H293	H	-0.954568	-0.379824	-0.798078
H294	H	-0.454568	0.120176	-0.298078
H295	H	-0.862189	-0.365933	-0.808463
H296	H	-0.362189	0.134067	-0.308463
C297	C	-0.831964	-0.497682	-0.812825
C298	C	-0.331964	0.002318	-0.312825
C299	C	-0.896127	-0.470467	-0.824699
C300	C	-0.396127	0.029533	-0.324699
H301	H	-0.828135	-0.539923	-0.835210
H302	H	-0.328135	-0.039923	-0.335210
H303	H	-0.825709	-0.503951	-0.765684
H304	H	-0.325709	-0.003951	-0.265684
H305	H	-0.798521	-0.467631	-0.829535
H306	H	-0.298521	0.032369	-0.329535
H307	H	-0.929568	-0.500514	-0.807981
H308	H	-0.429568	-0.000514	-0.307981
H309	H	-0.902387	-0.464205	-0.871838
H310	H	-0.402387	0.035795	-0.371838
O311	O	-0.892955	-0.411419	-0.579086
O312	O	-0.392955	0.088581	-0.079086
C313	C	-0.854745	-0.449602	-0.625430
C314	C	-0.354745	0.050398	-0.125430
H315	H	-0.882472	-0.451930	-0.675826
H316	H	-0.382472	0.048070	-0.175826
H317	H	-0.803338	-0.424818	-0.632931
H318	H	-0.303338	0.075182	-0.132931
C319	C	-0.810940	-0.518790	-0.535943
C320	C	-0.310940	-0.018790	-0.035943
C321	C	-0.844997	-0.521653	-0.597840
C322	C	-0.344997	-0.021653	-0.097840
H323	H	-0.804923	-0.563233	-0.518924
H324	H	-0.304923	-0.063233	-0.018924
H325	H	-0.836680	-0.493064	-0.504720
H326	H	-0.336680	0.006936	-0.004720
H327	H	-0.768104	-0.498133	-0.542203
H328	H	-0.268104	0.001867	-0.042203
H329	H	-0.887835	-0.542301	-0.591578
H330	H	-0.387835	-0.042301	-0.091578
H331	H	-0.819263	-0.547384	-0.629062
H332	H	-0.319263	-0.047384	-0.129062
O333	O	-0.893002	0.421909	-0.240970
O334	O	-0.393002	0.921909	0.259030
C335	C	-0.902300	0.491880	-0.250244
C336	C	-0.402300	0.991880	0.249756
H337	H	-0.924476	0.501543	-0.302484
H338	H	-0.424476	1.001543	0.197516
H339	H	-0.938338	0.511929	-0.210105
H340	H	-0.438338	1.011929	0.289895
C341	C	-0.806579	0.516306	-0.179868
C342	C	-0.306579	1.016306	0.320132
C343	C	-0.833811	0.528175	-0.244032
C344	C	-0.333811	1.028175	0.255968
H345	H	-0.764333	0.538696	-0.176033
H346	H	-0.264333	1.038696	0.323967
H347	H	-0.800316	0.469166	-0.173618
H348	H	-0.300316	0.969166	0.326382
H349	H	-0.836617	0.533013	-0.146426
H350	H	-0.336617	1.033013	0.353574
H351	H	-0.803777	0.511460	-0.277473
H352	H	-0.303777	1.011460	0.222527
H353	H	-0.840068	0.575314	-0.250288
H354	H	-0.340068	1.075314	0.249712
H355	H	-0.592412	-0.404720	-0.404617
H356	H	-0.092412	0.095280	0.095383
H357	H	-0.720645	-0.404720	-0.404605
H358	H	-0.220645	0.095280	0.095395
