data_functionalizedCrystal
_audit_creation_method	'MofGen! by Chris Wilmer'
_symmetry_space_group_name_H-M	'P1'
_symmetry_Int_Tables_number	1
_symmetry_cell_setting	triclinic
loop_
_symmetry_equiv_pos_as_xyz
  x,y,z
_cell_length_a	26.455835
_cell_length_b	26.455273
_cell_length_c	26.451828
_cell_angle_alpha	60.005170
_cell_angle_beta	60.010757
_cell_angle_gamma	59.993435
loop_
_atom_site_label
_atom_site_type_symbol
_atom_site_fract_x
_atom_site_fract_y
_atom_site_fract_z
O1	O	0.069940	-0.738516	0.617604
O2	O	0.026299	-0.574986	0.497618
O3	O	0.129847	-0.678463	0.497546
O4	O	-0.033607	-0.635040	0.617676
O5	O	0.164197	-0.644116	0.531822
O6	O	0.060649	-0.540639	0.531894
O7	O	0.104290	-0.704170	0.651880
Cu8	Cu	0.085606	-0.619268	0.595016
Cu9	Cu	0.044984	-0.659887	0.554481
O10	O	0.000742	-0.600693	0.651952
N11	N	0.114179	-0.590703	0.623530
N12	N	0.016416	-0.688458	0.525968
C13	C	0.157553	-0.547535	0.933368
C14	C	0.424104	-0.547506	0.666656
C15	C	0.157413	-0.547503	0.666729
C16	C	0.157397	-0.280846	0.666749
C17	C	0.200330	-0.409550	0.709625
C18	C	0.200339	-0.504608	0.709615
C19	C	0.224118	-0.480848	0.733375
C20	C	0.327800	-0.462984	0.678792
C21	C	0.392611	-0.484588	0.657175
C22	C	0.392630	-0.589450	0.697162
C23	C	0.327821	-0.567844	0.718781
C24	C	0.215955	-0.377135	0.645910
C25	C	0.194327	-0.312320	0.624323
C26	C	0.141457	-0.312339	0.730169
C27	C	0.163084	-0.377154	0.751756
C28	C	0.136618	-0.488954	0.725292
C29	C	0.115007	-0.510553	0.703686
C30	C	0.220833	-0.563461	0.650740
C31	C	0.242447	-0.541861	0.672339
C32	C	0.136680	-0.488971	0.837094
C33	C	0.115112	-0.510589	0.901907
C34	C	0.220969	-0.563508	0.901868
C35	C	0.242535	-0.541892	0.837053
C36	C	0.200389	-0.504622	0.804668
C37	C	0.295409	-0.504610	0.709593
C38	C	0.132990	-0.570876	1.004655
C39	C	0.495389	-0.570440	0.642547
C40	C	0.132802	-0.570856	0.643399
C41	C	0.133212	-0.209553	0.643833
C42	C	-0.097217	-0.706972	0.506986
C43	C	-0.002040	-0.707108	0.412067
C44	C	-0.002230	-0.802124	0.507163
C45	C	-0.002214	-0.707101	0.507221
C46	C	-0.025925	-0.730827	0.483360
N47	N	0.553723	-0.590712	0.623415
O48	O	0.751638	-0.596429	0.475603
O49	O	0.751819	-0.716773	0.638980
O50	O	0.751753	-0.716500	0.535361
O51	O	0.751705	-0.596703	0.579222
O52	O	0.648791	-0.682239	0.569747
O53	O	0.648858	-0.682512	0.673366
O54	O	0.648676	-0.562169	0.509989
Cu55	Cu	0.639366	-0.619212	0.594817
Cu56	Cu	0.761130	-0.659729	0.554152
O57	O	0.648743	-0.562442	0.613609
N58	N	0.846773	-0.688230	0.525548
N59	N	0.114157	-0.151217	0.623565
O60	O	-0.033591	0.046803	0.617717
O61	O	0.129795	0.046806	0.497390
O62	O	0.026157	0.046789	0.497680
O63	O	0.070046	0.046819	0.617427
O64	O	0.060509	-0.056181	0.532004
O65	O	0.164146	-0.056164	0.531714
O66	O	0.000760	-0.056167	0.652041
Cu67	Cu	0.085590	-0.065568	0.595012
Cu68	Cu	0.044965	0.056206	0.554419
O69	O	0.104397	-0.056151	0.651751
N70	N	0.016390	0.141855	0.525867
N71	N	0.114410	-0.590756	1.062992
O72	O	0.108565	-0.738494	1.260998
O73	O	-0.011747	-0.575059	1.261012
O74	O	-0.011470	-0.678679	1.260970
O75	O	0.108287	-0.634874	1.261040
O76	O	0.022849	-0.644347	1.158004
O77	O	0.022572	-0.540726	1.158046
O78	O	0.142884	-0.704162	1.158033
Cu79	Cu	0.085861	-0.619309	1.148638
Cu80	Cu	0.045275	-0.659911	1.270406
O81	O	0.142606	-0.600541	1.158074
N82	N	0.016726	-0.688471	1.356052
C83	C	0.039385	-0.537207	0.498225
C84	C	0.167616	-0.665350	0.498136
C85	C	0.091204	-0.741950	0.651272
C86	C	-0.037027	-0.613806	0.651361
C87	C	0.700360	-0.716215	0.676756
C88	C	0.700279	-0.715877	0.548436
C89	C	0.700133	-0.562725	0.472214
C90	C	0.700218	-0.563065	0.600533
C91	C	0.167511	-0.004552	0.497940
C92	C	0.039211	-0.004699	0.498341
C93	C	-0.036999	-0.004682	0.651449
C94	C	0.091344	-0.004663	0.651090
C95	C	-0.011156	-0.537302	1.209530
C96	C	-0.010806	-0.665617	1.209458
C97	C	0.142293	-0.741918	1.209514
C98	C	0.141950	-0.613596	1.209563
H99	H	0.102355	-0.458618	0.810728
C100	C	-0.113495	-0.671430	1.262280
C101	C	-0.061576	-0.678242	1.209372
H102	H	-0.144836	-0.679229	1.262228
H103	H	-0.128621	-0.630444	1.262297
H104	H	-0.102239	-0.700008	1.298198
H105	H	-0.072831	-0.649661	1.173454
H106	H	-0.046448	-0.719234	1.209350
H107	H	0.179573	-0.604224	1.209577
C108	C	0.171248	-0.843612	1.209483
C109	C	0.193288	-0.805282	1.209508
H110	H	0.202731	-0.882730	1.209482
H111	H	0.160005	-0.825081	1.173571
H112	H	0.136067	-0.849026	1.245384
H113	H	0.228467	-0.799865	1.173604
H114	H	0.204540	-0.823817	1.245423
H115	H	0.030065	-0.490230	0.460543
C116	C	0.647409	-0.783334	0.577896
C117	C	0.700301	-0.766685	0.535771
H118	H	0.647426	-0.814703	0.570079
H119	H	0.611487	-0.748140	0.573300
H120	H	0.647452	-0.798459	0.618880
H121	H	0.700256	-0.751555	0.494788
H122	H	0.736233	-0.801886	0.540363
H123	H	0.100526	-0.788925	0.688956
H124	H	0.700073	-0.524942	0.425295
C125	C	-0.138678	-0.540911	0.680150
C126	C	-0.100401	-0.601314	0.702292
H127	H	-0.177801	-0.533199	0.711596
H128	H	-0.144082	-0.536261	0.644977
H129	H	-0.120113	-0.512307	0.668872
H130	H	-0.118964	-0.629919	0.713566
H131	H	-0.094999	-0.605970	0.737476
C132	C	0.223013	-0.670979	0.395355
C133	C	0.230990	-0.677843	0.447206
H134	H	0.262139	-0.678695	0.363915
H135	H	0.197045	-0.630004	0.380344
H136	H	0.204454	-0.699590	0.406642
H137	H	0.249546	-0.649228	0.435920
H138	H	0.256968	-0.718823	0.462219
H139	H	0.063231	-0.497836	0.928300
C140	C	0.700438	-0.745173	0.778438
C141	C	0.700428	-0.767222	0.740098
H142	H	0.700484	-0.776664	0.817540
H143	H	0.664517	-0.710008	0.783880
H144	H	0.736327	-0.733902	0.759898
H145	H	0.664536	-0.778488	0.758636
H146	H	0.736353	-0.802397	0.734657
H147	H	0.029814	-0.004702	0.460721
C148	C	-0.138699	-0.004670	0.680407
C149	C	-0.100347	-0.004667	0.702444
H150	H	-0.177809	-0.004653	0.711887
H151	H	-0.120185	-0.040584	0.669177
H152	H	-0.144120	0.031232	0.645217
H153	H	-0.094922	-0.040571	0.737632
H154	H	-0.118864	0.031251	0.713683
H155	H	-0.048928	-0.490363	1.209534
C156	C	0.029275	-0.460922	0.666904
C157	C	0.044963	-0.493347	0.720916
H158	H	-0.013968	-0.450296	0.677543
H159	H	0.051254	-0.486199	0.641618
H160	H	0.039890	-0.424274	0.644925
H161	H	0.034352	-0.529997	0.742893
H162	H	0.022976	-0.468069	0.746212
C163	C	0.753151	-0.533330	0.627654
C164	C	0.700198	-0.512261	0.613202
H165	H	0.753135	-0.501967	0.635479
H166	H	0.789032	-0.542937	0.593867
H167	H	0.753189	-0.569372	0.663426
H168	H	0.700162	-0.476222	0.577427
H169	H	0.664307	-0.502646	0.646993
C170	C	0.327772	-0.613631	0.895309
C171	C	0.267298	-0.604464	0.937461
H172	H	0.356374	-0.638919	0.917284
H173	H	0.333974	-0.574782	0.870035
H174	H	0.333982	-0.633418	0.870027
H175	H	0.261086	-0.584672	0.962740
H176	H	0.261093	-0.643319	0.962746
C177	C	0.277374	-0.056974	0.467508
C178	C	0.230726	-0.004164	0.446816
H179	H	0.316401	-0.056732	0.435949
H180	H	0.270023	-0.092957	0.477133
H181	H	0.277339	-0.057040	0.503471
H182	H	0.230757	-0.004100	0.410856
H183	H	0.238078	0.031828	0.437183
C184	C	0.328201	-0.505069	0.764145
C185	C	0.312570	-0.559097	0.801410
H186	H	0.371436	-0.515693	0.742140
H187	H	0.317589	-0.483091	0.789433
H188	H	0.306186	-0.479787	0.735584
H189	H	0.334582	-0.584378	0.829975
H190	H	0.323189	-0.581085	0.776121
C191	C	0.304361	-0.571965	0.555753
C192	C	0.267130	-0.604405	0.609764
H193	H	0.332944	-0.597240	0.530452
H194	H	0.326337	-0.561341	0.566389
H195	H	0.279051	-0.535317	0.533784
H196	H	0.292440	-0.641051	0.631736
H197	H	0.245152	-0.615038	0.599128
C198	C	0.328105	-0.505019	0.622713
C199	C	0.312488	-0.559056	0.655114
H200	H	0.371345	-0.515634	0.612079
H201	H	0.306113	-0.479748	0.648008
H202	H	0.317459	-0.483033	0.586073
H203	H	0.323130	-0.581040	0.691757
H204	H	0.334488	-0.584336	0.629819
C205	C	0.334354	-0.673667	0.756126
C206	C	0.292214	-0.613604	0.752635
H207	H	0.312370	-0.701916	0.777023
H208	H	0.359646	-0.684511	0.778202
H209	H	0.359617	-0.675310	0.715516
H210	H	0.266954	-0.611960	0.793245
H211	H	0.266912	-0.602757	0.730560
H212	H	0.419022	-0.640939	0.704632
C213	C	0.386081	-0.378765	0.619812
C214	C	0.428218	-0.438831	0.623314
H215	H	0.408066	-0.350516	0.598903
H216	H	0.360820	-0.377111	0.660412
H217	H	0.360787	-0.367928	0.597735
H218	H	0.453510	-0.449669	0.645395
H219	H	0.453490	-0.440486	0.582706
C220	C	0.164452	-0.004670	0.679574
C221	C	0.104027	-0.004668	0.701883
H222	H	0.172283	-0.004680	0.710935
H223	H	0.169049	0.031239	0.644375
H224	H	0.193004	-0.040577	0.668293
H225	H	0.075474	0.031242	0.713159
H226	H	0.099424	-0.040580	0.737093
H227	H	0.301415	-0.411495	0.671309
C228	C	0.266027	-0.370605	0.539117
C229	C	0.256890	-0.412747	0.599603
H230	H	0.291295	-0.392591	0.510528
H231	H	0.285815	-0.345327	0.532886
H232	H	0.227165	-0.345325	0.532915
H233	H	0.295751	-0.438024	0.605806
H234	H	0.237102	-0.438036	0.605836
C235	C	0.091383	-0.318863	0.836963
C236	C	0.100520	-0.276724	0.776477
H237	H	0.066107	-0.296876	0.865551
H238	H	0.130238	-0.344137	0.843168
H239	H	0.071597	-0.344149	0.843193
H240	H	0.120310	-0.251441	0.770245
H241	H	0.061658	-0.251440	0.770269
H242	H	0.207047	-0.285927	0.572438
C243	C	0.199952	-0.450060	0.837432
C244	C	0.145912	-0.412791	0.821796
H245	H	0.189348	-0.472063	0.880670
H246	H	0.221926	-0.424774	0.826809
H247	H	0.225227	-0.478626	0.815426
H248	H	0.120639	-0.384221	0.843799
H249	H	0.123928	-0.438080	0.832425
H250	H	0.102328	-0.458621	0.755642
