data_functionalizedCrystal
_audit_creation_method	'MofGen! by Chris Wilmer'
_symmetry_space_group_name_H-M	'P1'
_symmetry_Int_Tables_number	1
_symmetry_cell_setting	triclinic
loop_
_symmetry_equiv_pos_as_xyz
  x,y,z
_cell_length_a	16.109301
_cell_length_b	15.021413
_cell_length_c	16.109301
_cell_angle_alpha	90.002593
_cell_angle_beta	96.538519
_cell_angle_gamma	90.004594
loop_
_atom_site_label
_atom_site_type_symbol
_atom_site_fract_x
_atom_site_fract_y
_atom_site_fract_z
O1	O	1.103137	0.073979	-0.106856
O2	O	1.603137	0.573979	0.393144
O3	O	0.861075	0.073993	-0.120155
O4	O	1.361075	0.573993	0.379845
O5	O	0.988755	0.073976	0.007525
O6	O	1.488755	0.573976	0.507525
O7	O	0.975456	0.073995	-0.234537
O8	O	1.475456	0.573995	0.265463
O9	O	0.988735	-0.074088	0.007507
O10	O	1.488735	0.425912	0.507507
O11	O	0.861054	-0.074071	-0.120174
O12	O	1.361054	0.425929	0.379826
O13	O	1.103116	-0.074086	-0.106874
O14	O	1.603116	0.425914	0.393126
Zn15	Zn	0.982082	-0.097587	-0.113527
Zn16	Zn	1.482082	0.402413	0.386473
Zn17	Zn	0.982109	0.097494	-0.113503
Zn18	Zn	1.482109	0.597494	0.386497
O19	O	0.975436	-0.074069	-0.234555
O20	O	1.475436	0.425931	0.265445
C21	C	0.830090	-0.000037	-0.119626
C22	C	1.330090	0.499963	0.380374
C23	C	0.737794	-0.000032	-0.118011
C24	C	1.237794	0.499968	0.381989
N25	N	0.982070	-0.230724	-0.113543
N26	N	1.482070	0.269276	0.386457
C27	C	0.515522	-0.000037	-0.190018
C28	C	1.015522	0.499963	0.309982
C29	C	0.428801	-0.000043	-0.188494
C30	C	0.928801	0.499957	0.311506
C31	C	0.448676	-0.000051	-0.037006
C32	C	0.948676	0.499949	0.462994
C33	C	0.535394	-0.000051	-0.038530
C34	C	1.035394	0.499949	0.461470
C35	C	0.568815	-0.000040	-0.115039
C36	C	1.068815	0.499960	0.384961
C37	C	0.395376	-0.000045	-0.111990
C38	C	0.895376	0.499955	0.388010
C39	C	0.301350	-0.000051	-0.110337
C40	C	0.801350	0.499949	0.389663
C41	C	0.662847	-0.000035	-0.116693
C42	C	1.162847	0.499965	0.383307
C43	C	0.923021	-0.470400	-0.172554
C44	C	1.423021	0.029600	0.327446
C45	C	0.998143	-0.529737	-0.188671
C46	C	1.498143	-0.029737	0.311329
C47	C	0.982091	-0.412331	-0.113522
C48	C	1.482091	0.087669	0.386478
C49	C	0.906990	-0.529735	-0.097424
C50	C	1.406990	-0.029735	0.402576
C51	C	0.982105	-0.587755	-0.113504
C52	C	1.482105	-0.087755	0.386496
C53	C	1.057251	-0.470362	-0.129676
C54	C	1.557251	0.029638	0.370324
C55	C	0.966048	-0.470355	-0.038396
C56	C	1.466048	0.029645	0.461604
C57	C	1.041224	-0.529666	-0.054481
C58	C	1.541224	-0.029666	0.445519
C59	C	0.982082	-0.311274	-0.113535
C60	C	1.482082	0.188726	0.386465
C61	C	0.982123	-0.688811	-0.113491
C62	C	1.482123	-0.188811	0.386509
C63	C	1.134101	-0.000053	-0.107404
C64	C	1.634101	0.499947	0.392596
C65	C	1.226397	-0.000053	-0.109019
C66	C	1.726397	0.499947	0.390981
C67	C	0.988206	-0.000056	0.038491
C68	C	1.488206	0.499944	0.538491
C69	C	0.986591	-0.000057	0.130786
C70	C	1.486591	0.499943	0.630786
N71	N	0.982128	0.230632	-0.113480
N72	N	1.482128	0.730632	0.386520
C73	C	0.975984	-0.000034	-0.265521
C74	C	1.475984	0.499966	0.234479
C75	C	0.977600	-0.000027	-0.357816
C76	C	1.477600	0.499973	0.142184
C77	C	1.058599	-0.000048	0.353059
C78	C	1.558599	0.499952	0.853059
C79	C	1.057075	-0.000040	0.439779
C80	C	1.557075	0.499960	0.939779
C81	C	0.905586	-0.000035	0.419905
C82	C	1.405586	0.499965	0.919905
C83	C	0.907111	-0.000036	0.333186
C84	C	1.407111	0.499964	0.833186
C85	C	0.983620	-0.000047	0.299766
C86	C	1.483620	0.499953	0.799766
C87	C	0.980571	-0.000038	0.473205
C88	C	1.480571	0.499962	0.973205
C89	C	0.978918	-0.000030	0.567231
C90	C	1.478918	0.499970	1.067231
C91	C	0.985273	-0.000053	0.205734
C92	C	1.485273	0.499947	0.705734
H93	H	0.542730	-0.000034	-0.252317
H94	H	1.042730	0.499966	0.247683
H95	H	0.578788	-0.000056	0.022530
H96	H	1.078788	0.499944	0.522530
O97	O	0.856919	-0.435916	-0.238727
O98	O	1.356919	0.064084	0.261273
H99	H	0.870449	-0.459699	-0.301021
H100	H	1.370449	0.040301	0.198979
H101	H	1.118130	-0.000039	0.483168
H102	H	1.618130	0.499961	0.983168
H103	H	0.843295	-0.000027	0.447127
H104	H	1.343295	0.499973	0.947127
O105	O	1.016110	-0.564344	-0.272802
O106	O	1.516110	-0.064344	0.227198
H107	H	0.966979	-0.540633	-0.321706
H108	H	1.466979	-0.040633	0.178294
O109	O	0.826232	-0.000041	0.275703
O110	O	1.326232	0.499959	0.775703
H111	H	0.823305	0.060312	0.235727
H112	H	1.323305	0.560312	0.735727
O113	O	0.948029	-0.435777	0.045723
O114	O	1.448029	0.064223	0.545723
H115	H	1.001627	-0.395132	0.073640
H116	H	1.501627	0.104868	0.573640
H117	H	0.421454	-0.000065	0.025285
H118	H	0.921454	0.499935	0.525285
H119	H	1.120782	-0.444392	-0.143359
H120	H	1.620782	0.055608	0.356641
H121	H	1.091238	-0.555525	-0.004548
H122	H	1.591238	-0.055525	0.495452
H123	H	0.843472	-0.555818	-0.083817
H124	H	1.343472	-0.055818	0.416183
O125	O	0.371318	-0.000037	-0.269364
O126	O	0.871318	0.499963	0.230636
H127	H	0.409130	-0.000023	-0.322817
H128	H	0.909130	0.499977	0.177183
O129	O	1.141114	-0.000041	0.317007
O130	O	1.641114	0.499959	0.817007
H131	H	1.192995	-0.000029	0.368638
H132	H	1.692995	0.499971	0.868638
