data_functionalizedCrystal
_audit_creation_method	'MofGen! by Chris Wilmer'
_symmetry_space_group_name_H-M	'P1'
_symmetry_Int_Tables_number	1
_symmetry_cell_setting	triclinic
loop_
_symmetry_equiv_pos_as_xyz
  x,y,z
_cell_length_a	29.839131
_cell_length_b	16.625548
_cell_length_c	16.625539
_cell_angle_alpha	90.020568
_cell_angle_beta	90.032094
_cell_angle_gamma	90.042488
loop_
_atom_site_label
_atom_site_type_symbol
_atom_site_fract_x
_atom_site_fract_y
_atom_site_fract_z
Zn1	Zn	-0.178840	1.232574	0.455888
Zn2	Zn	0.321160	1.732574	0.955888
Zn3	Zn	-0.253971	1.232433	0.321046
Zn4	Zn	0.246029	1.732433	0.821046
Zn5	Zn	-0.178857	1.097736	0.321069
Zn6	Zn	0.321143	1.597736	0.821069
Zn7	Zn	-0.253945	1.097662	0.455836
Zn8	Zn	0.246055	1.597662	0.955836
O9	O	-0.216403	1.165101	0.388460
O10	O	0.283597	1.665101	0.888460
O11	O	-0.188810	1.345388	0.438013
O12	O	0.311190	1.845388	0.938013
O13	O	-0.244025	1.214537	0.208217
O14	O	0.255975	1.714537	0.708217
O15	O	-0.115987	1.115713	0.338984
O16	O	0.384013	1.615713	0.838984
O17	O	-0.244008	1.345284	0.338946
O18	O	0.255992	1.845284	0.838946
O19	O	-0.115975	1.214778	0.438035
O20	O	0.384025	1.714778	0.938035
O21	O	-0.188839	1.115576	0.208233
O22	O	0.311161	1.615576	0.708233
O23	O	-0.188814	0.984894	0.338933
O24	O	0.311186	1.484894	0.838933
O25	O	-0.243964	1.115586	0.568676
O26	O	0.256036	1.615586	1.068676
O27	O	-0.243981	0.984839	0.437947
O28	O	0.256019	1.484839	0.937947
O29	O	-0.188785	1.214706	0.568714
O30	O	0.311215	1.714706	1.068714
O31	O	-0.316834	1.214465	0.338896
O32	O	0.183166	1.714465	0.838896
O33	O	-0.316815	1.115449	0.437925
O34	O	0.183185	1.615449	0.937925
C35	C	-0.216397	0.955610	0.388437
C36	C	0.283603	1.455610	0.888437
C37	C	-0.216405	0.865989	0.388447
C38	C	0.283595	1.365989	0.888447
C39	C	-0.216408	0.537814	0.388481
C40	C	0.283592	1.037814	0.888481
C41	C	-0.216406	0.629122	0.388469
C42	C	0.283594	1.129122	0.888469
C43	C	-0.216406	0.701899	0.388463
C44	C	0.283594	1.201899	0.888463
C45	C	-0.216404	0.793213	0.388452
C46	C	0.283596	1.293213	0.888452
C47	C	-0.333126	1.164956	0.388420
C48	C	0.166874	1.664956	0.888420
C49	C	-0.383060	1.164967	0.388430
C50	C	0.116940	1.664967	0.888430
C51	C	-0.692701	1.216752	0.336971
C52	C	-0.192701	1.716752	0.836971
C53	C	-0.880374	1.216852	0.337002
C54	C	-0.380374	1.716852	0.837002
O55	O	-0.904636	1.260766	0.293219
O56	O	-0.404636	1.760766	0.793219
N57	N	-0.903845	1.165268	0.388521
N58	N	-0.403845	1.665268	0.888521
C59	C	-0.880395	1.113660	0.440039
C60	C	-0.380395	1.613660	0.940039
O61	O	-0.904665	1.069793	0.483866
O62	O	-0.404665	1.569793	0.983866
C63	C	-0.692723	1.113565	0.440011
C64	C	-0.192723	1.613565	0.940011
C65	C	-0.669254	1.165146	0.388483
C66	C	-0.169254	1.665146	0.888483
C67	C	-0.669232	1.268330	0.285447
C68	C	-0.169232	1.768330	0.785447
C69	C	-0.622316	1.268302	0.285437
C70	C	-0.122316	1.768302	0.785437
C71	C	-0.598870	1.216695	0.336950
C72	C	-0.098870	1.716695	0.836950
C73	C	-0.622339	1.165118	0.388473
C74	C	-0.122339	1.665118	0.888473
C75	C	-0.669274	1.061962	0.491533
C76	C	-0.169274	1.561962	0.991533
C77	C	-0.622353	1.061944	0.491523
C78	C	-0.122353	1.561944	0.991523
C79	C	-0.598884	1.113525	0.439995
C80	C	-0.098884	1.613525	0.939995
C81	C	-0.551977	1.113483	0.439975
C82	C	-0.051977	1.613483	0.939975
N83	N	-0.528505	1.165067	0.388456
N84	N	-0.028505	1.665067	0.888456
C85	C	-0.551952	1.216673	0.336944
C86	C	-0.051952	1.716673	0.836944
C87	C	-0.978926	1.113712	0.440049
C88	C	-0.478926	1.613712	0.940049
C89	C	-1.025844	1.113735	0.440055
C90	C	-0.525844	1.613735	0.940055
C91	C	-1.025819	1.216928	0.337019
C92	C	-0.525819	1.716928	0.837019
C93	C	-0.978900	1.216901	0.337009
C94	C	-0.478900	1.716901	0.837009
C95	C	-0.955455	1.165296	0.388530
C96	C	-0.455455	1.665296	0.888530
C97	C	-0.453426	1.216609	0.336925
C98	C	0.046574	1.716609	0.836925
C99	C	-0.406506	1.216573	0.336917
C100	C	0.093494	1.716573	0.836917
C101	C	-0.406535	1.113383	0.439956
C102	C	0.093465	1.613383	0.939956
C103	C	-0.453451	1.113416	0.439962
C104	C	0.046549	1.613416	0.939962
C105	C	-0.476895	1.165035	0.388443
C106	C	0.023105	1.665035	0.888443
O107	O	-0.527685	1.069599	0.483742
O108	O	-0.027685	1.569599	0.983742
O109	O	-0.527674	1.260546	0.293136
O110	O	-0.027674	1.760546	0.793136
C111	C	-0.739616	1.216781	0.336981
C112	C	-0.239616	1.716781	0.836981
C113	C	-0.763085	1.165203	0.388504
C114	C	-0.263085	1.665203	0.888504
C115	C	-0.739639	1.113597	0.440017
C116	C	-0.239639	1.613597	0.940017
C117	C	-0.810003	1.165226	0.388510
C118	C	-0.310003	1.665226	0.888510
C119	C	-0.833449	1.216832	0.336997
C120	C	-0.333449	1.716832	0.836997
C121	C	-0.809978	1.268416	0.285479
C122	C	-0.309978	1.768416	0.785479
C123	C	-0.763062	1.268387	0.285468
C124	C	-0.263062	1.768387	0.785468
C125	C	-0.763110	1.062014	0.491536
C126	C	-0.263110	1.562014	0.991536
C127	C	-0.810026	1.062046	0.491541
C128	C	-0.310026	1.562046	0.991541
C129	C	-0.833472	1.113652	0.440028
C130	C	-0.333472	1.613652	0.940028
C131	C	-0.099225	1.165269	0.388518
C132	C	0.400775	1.665269	0.888518
C133	C	-0.049290	1.165341	0.388542
C134	C	0.450710	1.665341	0.888542
C135	C	-0.216370	1.165154	0.598769
C136	C	0.283630	1.665154	1.098769
C137	C	-0.216355	1.165176	0.688390
C138	C	0.283645	1.665176	1.188390
C139	C	-0.216410	1.375410	0.388483
C140	C	0.283590	1.875410	0.888483
C141	C	-0.216413	1.465031	0.388493
C142	C	0.283587	1.965031	0.888493
C143	C	-0.216404	1.165095	0.178969
C144	C	0.283596	1.665095	0.678969
C145	C	-0.216292	1.165229	0.089348
C146	C	0.283708	1.665229	0.589348
C147	C	-0.216305	1.165213	1.016566
C148	C	0.283695	1.665213	1.516566
C149	C	-0.216320	1.165201	0.925257
C150	C	0.283680	1.665201	1.425257
C151	C	-0.216330	1.165195	0.852481
C152	C	0.283670	1.665195	1.352481
C153	C	-0.216345	1.165182	0.761167
C154	C	0.283655	1.665182	1.261167
H155	H	-0.387399	1.258577	0.294954
H156	H	0.112601	1.758577	0.794954
Br157	Br	-1.057689	1.043717	0.509977
Br158	Br	-0.557689	1.543717	1.009977
H159	H	-0.743957	1.310389	0.243509
H160	H	-0.243957	1.810389	0.743509
Br161	Br	-0.701043	1.338378	0.215529
Br162	Br	-0.201043	1.838378	0.715529
H163	H	-0.472509	1.258644	0.294976
H164	H	0.027491	1.758644	0.794976
H165	H	-0.829130	1.020035	0.533501
H166	H	-0.329130	1.520035	1.033501
H167	H	-0.603210	1.310306	0.243481
H168	H	-0.103210	1.810306	0.743481
Br169	Br	-0.374706	1.043353	0.509866
Br170	Br	0.125294	1.543353	1.009866
H171	H	-0.688375	1.019955	0.533489
H172	H	-0.188375	1.519955	1.033489
Br173	Br	-0.947054	1.286905	0.267075
Br174	Br	-0.447054	1.786905	0.767075
Br175	Br	-1.057648	1.286962	0.267106
Br176	Br	-0.557648	1.786962	0.767106
Br177	Br	-0.485303	1.043393	0.509873
Br178	Br	0.014697	1.543393	1.009873
Br179	Br	-0.947114	1.043670	0.509977
Br180	Br	-0.447114	1.543670	1.009977
Br181	Br	-0.590537	0.991908	0.561452
Br182	Br	-0.090537	1.491908	1.061452
H183	H	-0.744024	1.019991	0.533485
H184	H	-0.244024	1.519991	1.033485
Br185	Br	-0.841807	1.338448	0.215566
Br186	Br	-0.341807	1.838448	0.715566
