data_functionalizedCrystal
_audit_creation_method	'MofGen! by Chris Wilmer'
_symmetry_space_group_name_H-M	'P1'
_symmetry_Int_Tables_number	1
_symmetry_cell_setting	triclinic
loop_
_symmetry_equiv_pos_as_xyz
  x,y,z
_cell_length_a	18.215407
_cell_length_b	18.215399
_cell_length_c	11.169416
_cell_angle_alpha	90.024035
_cell_angle_beta	89.992201
_cell_angle_gamma	89.986109
loop_
_atom_site_label
_atom_site_type_symbol
_atom_site_fract_x
_atom_site_fract_y
_atom_site_fract_z
Zn1	Zn	1.125124	-0.416091	0.477872
Zn2	Zn	1.458458	-0.082757	0.811206
Zn3	Zn	1.791791	0.250576	1.144539
Zn4	Zn	1.125071	-0.293038	0.678589
Zn5	Zn	1.458404	0.040295	1.011922
Zn6	Zn	1.791737	0.373629	1.345256
Zn7	Zn	1.002063	-0.293044	0.477910
Zn8	Zn	1.335397	0.040289	0.811243
Zn9	Zn	1.668730	0.373622	1.144576
Zn10	Zn	1.002054	-0.416069	0.678503
Zn11	Zn	1.335387	-0.082736	1.011837
Zn12	Zn	1.668721	0.250598	1.345170
O13	O	1.063578	-0.354560	0.578218
O14	O	1.396912	-0.021227	0.911552
O15	O	1.730245	0.312106	1.244885
O16	O	1.228102	-0.399774	0.504518
O17	O	1.561435	-0.066440	0.837851
O18	O	1.894768	0.266893	1.171185
O19	O	1.108735	-0.190054	0.652020
O20	O	1.442068	0.143279	0.985353
O21	O	1.775401	0.476612	1.318686
O22	O	1.018414	-0.309378	0.309955
O23	O	1.351748	0.023955	0.643288
O24	O	1.685081	0.357288	0.976622
O25	O	1.228062	-0.309367	0.651984
O26	O	1.561395	0.023966	0.985317
O27	O	1.894729	0.357299	1.318650
O28	O	1.108827	-0.399780	0.309928
O29	O	1.442160	-0.066447	0.643261
O30	O	1.775493	0.266887	0.976594
O31	O	1.018362	-0.190059	0.504582
O32	O	1.351695	0.143274	0.837915
O33	O	1.685029	0.476608	1.171248
O34	O	0.899078	-0.309357	0.504498
O35	O	1.232411	0.023976	0.837832
O36	O	1.565745	0.357309	1.171165
O37	O	1.018398	-0.519056	0.651838
O38	O	1.351732	-0.185723	0.985171
O39	O	1.685065	0.147610	1.318504
O40	O	0.899071	-0.399743	0.651874
O41	O	1.232404	-0.066410	0.985207
O42	O	1.565738	0.266923	1.318540
O43	O	1.108818	-0.519072	0.504435
O44	O	1.442151	-0.185739	0.837768
O45	O	1.775484	0.147595	1.171102
O46	O	1.108726	-0.309347	0.846527
O47	O	1.442059	0.023987	1.179861
O48	O	1.775392	0.357320	1.513194
O49	O	1.018346	-0.399737	0.846464
O50	O	1.351679	-0.066404	1.179798
O51	O	1.685013	0.266930	1.513131
C52	C	0.872372	-0.354549	0.578182
C53	C	1.205705	-0.021216	0.911515
C54	C	1.539039	0.312118	1.244848
C55	C	0.790573	-0.354562	0.578195
C56	C	1.123906	-0.021228	0.911528
C57	C	1.457240	0.312105	1.244862
C58	C	0.525531	-0.401560	0.655083
C59	C	0.858864	-0.068226	0.988416
C60	C	1.192198	0.265107	1.321749
C61	C	0.602390	-0.401556	0.655073
C62	C	0.935723	-0.068223	0.988406
C63	C	1.269057	0.265110	1.321739
C64	C	0.602366	-0.307574	0.501381
C65	C	0.935700	0.025759	0.834714
C66	C	1.269033	0.359093	1.168048
C67	C	0.525509	-0.307574	0.501398
C68	C	0.858842	0.025759	0.834732
C69	C	1.192176	0.359092	1.168065
C70	C	0.487093	-0.354572	0.578247
C71	C	0.820427	-0.021238	0.911581
C72	C	1.153760	0.312095	1.244914
C73	C	0.640810	-0.354568	0.578220
C74	C	0.974143	-0.021234	0.911553
C75	C	1.307476	0.312099	1.244887
C76	C	0.724143	-0.354563	0.578208
C77	C	1.057477	-0.021230	0.911542
C78	C	1.390810	0.312103	1.244875
C79	C	0.403754	-0.354575	0.578261
C80	C	0.737088	-0.021242	0.911594
C81	C	1.070421	0.312092	1.244928
C82	C	1.063613	-0.546513	0.578123
C83	C	1.396946	-0.213180	0.911456
C84	C	1.730280	0.120153	1.244789
C85	C	1.063628	-0.628312	0.578082
C86	C	1.396961	-0.294979	0.911415
C87	C	1.730294	0.038354	1.244748
C88	C	1.016610	-0.816510	0.501259
C89	C	1.349944	-0.483176	0.834592
C90	C	1.683277	-0.149843	1.167926
C91	C	1.016623	-0.893369	0.501235
C92	C	1.349957	-0.560035	0.834568
C93	C	1.683290	-0.226702	1.167901
C94	C	1.110733	-0.893353	0.654762
C95	C	1.444066	-0.560020	0.988095
C96	C	1.777400	-0.226686	1.321428
C97	C	1.110716	-0.816496	0.654791
C98	C	1.444049	-0.483162	0.988124
C99	C	1.777383	-0.149829	1.321458
C100	C	1.063656	-0.778076	0.578033
C101	C	1.396989	-0.444743	0.911366
C102	C	1.730322	-0.111409	1.244699
C103	C	1.063686	-0.931792	0.577979
C104	C	1.397019	-0.598459	0.911313
C105	C	1.730352	-0.265125	1.244646
C106	C	1.063700	-1.015126	0.577954
C107	C	1.397033	-0.681793	0.911287
C108	C	1.730366	-0.348459	1.244620
C109	C	1.063640	-0.694737	0.578060
C110	C	1.396974	-0.361404	0.911393
C111	C	1.730307	-0.028070	1.244726
C112	C	1.255531	-0.354572	0.578256
C113	C	1.588864	-0.021239	0.911590
C114	C	1.922198	0.312094	1.244923
C115	C	1.337330	-0.354577	0.578272
C116	C	1.670663	-0.021244	0.911606
C117	C	2.003997	0.312089	1.244939
C118	C	1.063549	-0.354555	0.890043
C119	C	1.396882	-0.021222	1.223377
C120	C	1.730216	0.312112	1.556710
C121	C	1.063604	-0.354577	1.023443
C122	C	1.396937	-0.021244	1.356776
C123	C	1.730271	0.312090	1.690110
C124	C	1.063586	-0.163354	0.578227
C125	C	1.396919	0.169979	0.911561
C126	C	1.730253	0.503312	1.244894
C127	C	1.063714	-0.081556	0.577930
C128	C	1.397047	0.251778	0.911264
C129	C	1.730380	0.585111	1.244597
C130	C	1.063628	-0.354582	0.265176
C131	C	1.396961	-0.021249	0.598509
C132	C	1.730294	0.312084	0.931843
C133	C	1.063649	-0.354591	0.131776
C134	C	1.396982	-0.021258	0.465109
C135	C	1.730315	0.312075	0.798443
H136	H	0.633654	-0.269312	0.438812
H137	H	0.966987	0.064022	0.772145
H138	H	1.300321	0.397355	1.105478
H139	H	1.149048	-0.924644	0.717254
H140	H	1.482382	-0.591310	1.050588
H141	H	1.815715	-0.257977	1.383921
H142	H	0.494255	-0.439828	0.717659
H143	H	0.827589	-0.106494	1.050992
H144	H	1.160922	0.226839	1.384325
H145	H	1.149028	-0.785202	0.717314
H146	H	1.482361	-0.451869	1.050647
H147	H	1.815695	-0.118535	1.383981
H148	H	0.494212	-0.269307	0.438828
H149	H	0.827546	0.064026	0.772161
H150	H	1.160879	0.397359	1.105494
H151	H	0.633682	-0.439818	0.717641
H152	H	0.967016	-0.106485	1.050974
H153	H	1.300349	0.226849	1.384308
H154	H	0.978313	-0.924658	0.438719
H155	H	1.311647	-0.591325	0.772052
H156	H	1.644980	-0.257991	1.105385
H157	H	0.978291	-0.785231	0.438758
H158	H	1.311624	-0.451897	0.772091
H159	H	1.644957	-0.118564	1.105424
