data_functionalizedCrystal
_audit_creation_method	'MofGen! by Chris Wilmer'
_symmetry_space_group_name_H-M	'P1'
_symmetry_Int_Tables_number	1
_symmetry_cell_setting	triclinic
loop_
_symmetry_equiv_pos_as_xyz
  x,y,z
_cell_length_a	12.827893
_cell_length_b	16.959453
_cell_length_c	12.827885
_cell_angle_alpha	89.966028
_cell_angle_beta	89.980538
_cell_angle_gamma	90.020148
loop_
_atom_site_label
_atom_site_type_symbol
_atom_site_fract_x
_atom_site_fract_y
_atom_site_fract_z
Zn1	Zn	1.597638	-0.314640	-0.590818
Zn2	Zn	1.597518	-0.446839	-0.416066
Zn3	Zn	1.422879	-0.314679	-0.416092
Zn4	Zn	1.422851	-0.446781	-0.590766
O5	O	1.510221	-0.380735	-0.503435
O6	O	1.743858	-0.332185	-0.567648
O7	O	1.574313	-0.429348	-0.269833
O8	O	1.446123	-0.204063	-0.439303
O9	O	1.743770	-0.429311	-0.439258
O10	O	1.574518	-0.204034	-0.567673
O11	O	1.446007	-0.332251	-0.269852
O12	O	1.276639	-0.332194	-0.439252
O13	O	1.446075	-0.429211	-0.737009
O14	O	1.276619	-0.429249	-0.567584
O15	O	1.574491	-0.332128	-0.737047
O16	O	1.574286	-0.557442	-0.439207
O17	O	1.445959	-0.557399	-0.567559
C18	C	1.238712	-0.380720	-0.503416
C19	C	1.122558	-0.380733	-0.503432
C20	C	1.070817	-0.332757	-0.567062
C21	C	0.950767	-0.332769	-0.567080
C22	C	1.510134	-0.586101	-0.503397
C23	C	1.510193	-0.673957	-0.503416
C24	C	1.577162	-1.045360	-0.570404
C25	C	1.443573	-1.045506	-0.436622
C26	C	1.443534	-0.962961	-0.436598
C27	C	1.510309	-0.921610	-0.503479
C28	C	1.577123	-0.962806	-0.570384
C29	C	1.376713	-0.921759	-0.369701
C30	C	1.376671	-0.839208	-0.369675
C31	C	1.443453	-0.797856	-0.436552
C32	C	1.510270	-0.839057	-0.503459
C33	C	1.577046	-0.797707	-0.570341
C34	C	1.643869	-0.838906	-0.637243
C35	C	1.643905	-0.921454	-0.637261
C36	C	1.443417	-0.715308	-0.436534
C37	C	1.577007	-0.715153	-0.570321
C38	C	1.782792	-0.380750	-0.503456
C39	C	1.898945	-0.380756	-0.503465
C40	C	1.510293	-0.380659	-0.776006
C41	C	1.510324	-0.380626	-0.892159
C42	C	1.510337	-0.174566	-0.503497
C43	C	1.510387	-0.086710	-0.503523
C44	C	1.446854	-0.332570	-0.943953
C45	C	1.446885	-0.332535	-1.064004
C46	C	1.510210	-0.380753	-0.231926
C47	C	1.510382	-0.380563	-0.115773
H48	H	1.115397	-0.291671	-0.621521
H49	H	1.077979	-0.421814	-0.448967
F50	F	0.957094	-0.434451	-0.432260
H51	H	1.392550	-0.291389	-1.108545
F52	F	0.892611	-0.279084	-0.638293
H53	H	1.564727	-0.421705	-1.071238
F54	F	1.648085	-0.671152	-0.641502
F55	F	1.714926	-0.794889	-0.708429
F56	F	1.715013	-0.965307	-0.708461
F57	F	1.581376	-0.434376	-0.950362
H58	H	1.631571	-1.078908	-0.624872
H59	H	1.322346	-0.955432	-0.315253
F60	F	1.305550	-0.795368	-0.298475
F61	F	1.372497	-1.089516	-0.365459
H62	H	1.389005	-0.681767	-0.382068
H63	H	1.392489	-0.291456	-0.899419
