data_functionalizedCrystal
_audit_creation_method	'MofGen! by Chris Wilmer'
_symmetry_space_group_name_H-M	'P1'
_symmetry_Int_Tables_number	1
_symmetry_cell_setting	triclinic
loop_
_symmetry_equiv_pos_as_xyz
  x,y,z
_cell_length_a	6.817900
_cell_length_b	11.168121
_cell_length_c	11.168136
_cell_angle_alpha	92.020174
_cell_angle_beta	108.508683
_cell_angle_gamma	108.508496
loop_
_atom_site_label
_atom_site_type_symbol
_atom_site_fract_x
_atom_site_fract_y
_atom_site_fract_z
V1	V	-4.109882	-0.174724	-0.393710
O2	O	-4.069466	0.008377	-0.386204
O3	O	-4.086169	-0.346429	-0.391027
O4	O	-4.086172	-0.172045	-0.565415
O5	O	-4.069463	-0.167215	-0.210609
V6	V	-4.587111	-0.152822	-0.371808
O7	O	-4.384945	-0.222767	-0.441753
O8	O	-4.762245	-0.104778	-0.323765
O9	O	-4.387617	0.018883	-0.374490
O10	O	-4.744924	-0.335922	-0.379314
O11	O	-4.744927	-0.160331	-0.554909
O12	O	-4.387614	-0.155501	-0.200102
C13	C	-3.936377	-0.388286	-0.384819
C14	C	-3.998441	-0.528658	-0.383771
C15	C	-3.915419	-0.730203	-0.376231
C16	C	-3.851269	-0.585122	-0.377314
C17	C	-3.936379	-0.165840	-0.607267
C18	C	-3.998441	-0.164786	-0.747637
C19	C	-4.200949	-0.170305	-0.816329
C20	C	-4.265097	-0.169216	-0.961409
C21	C	-4.200752	0.060735	-0.380695
C22	C	-4.117928	0.201105	-0.381752
C23	C	-4.200749	-0.161709	-0.158244
C24	C	-4.117925	-0.162757	-0.017873
H25	H	-3.677784	-0.526070	-0.372583
H26	H	-3.944443	-0.158040	-0.958832
C27	C	-3.828340	-0.157261	-0.813275
N28	N	-3.700205	-0.151577	-0.862709
C29	C	-4.232821	-0.608422	-0.390161
N30	N	-4.409362	-0.668511	-0.394978
H31	H	-4.243814	-0.750299	-0.387287
C32	C	-4.371020	-0.177771	-0.750682
N33	N	-4.499123	-0.183394	-0.701238
H34	H	-3.789539	-0.778801	-0.370708
H35	H	-4.438582	-0.173947	-1.020461
