data_functionalizedCrystal
_audit_creation_method	'MofGen! by Chris Wilmer'
_symmetry_space_group_name_H-M	'P1'
_symmetry_Int_Tables_number	1
_symmetry_cell_setting	triclinic
loop_
_symmetry_equiv_pos_as_xyz
  x,y,z
_cell_length_a	19.805407
_cell_length_b	12.645330
_cell_length_c	19.805399
_cell_angle_alpha	89.978279
_cell_angle_beta	89.980427
_cell_angle_gamma	90.017692
loop_
_atom_site_label
_atom_site_type_symbol
_atom_site_fract_x
_atom_site_fract_y
_atom_site_fract_z
Zn1	Zn	1.034777	-0.422064	-0.382747
Zn2	Zn	1.534777	0.077936	0.117253
Zn3	Zn	1.034709	-0.599342	-0.269571
Zn4	Zn	1.534709	-0.099342	0.230429
Zn5	Zn	0.921591	-0.422093	-0.269572
Zn6	Zn	1.421591	0.077907	0.230428
Zn7	Zn	0.921572	-0.599286	-0.382717
Zn8	Zn	1.421572	-0.099286	0.117283
O9	O	0.978162	-0.510696	-0.326152
O10	O	1.478162	-0.010696	0.173848
O11	O	1.129484	-0.445592	-0.367746
O12	O	1.629484	0.054408	0.132254
O13	O	1.019683	-0.575865	-0.174854
O14	O	1.519683	-0.075865	0.325146
O15	O	0.936642	-0.273742	-0.284598
O16	O	1.436642	0.226258	0.215402
O17	O	1.129434	-0.575837	-0.284596
O18	O	1.629434	-0.075837	0.215404
O19	O	1.019799	-0.273721	-0.367747
O20	O	1.519799	0.226279	0.132253
O21	O	0.936576	-0.445641	-0.174855
O22	O	1.436576	0.054359	0.325145
O23	O	0.826872	-0.445587	-0.284569
O24	O	1.326872	0.054413	0.215431
O25	O	0.936609	-0.575741	-0.477438
O26	O	1.436609	-0.075741	0.022562
O27	O	0.826858	-0.575769	-0.367696
O28	O	1.326858	-0.075769	0.132304
O29	O	1.019780	-0.445537	-0.477460
O30	O	1.519780	0.054463	0.022540
O31	O	1.019664	-0.747682	-0.284567
O32	O	1.519664	-0.247682	0.215433
O33	O	0.936543	-0.747641	-0.367695
O34	O	1.436543	-0.247641	0.132305
C35	C	0.802306	-0.510676	-0.326130
C36	C	1.302306	-0.010676	0.173870
C37	C	0.727074	-0.510693	-0.326137
C38	C	1.227074	-0.010693	0.173863
C39	C	0.691740	-0.578581	-0.369351
C40	C	1.191740	-0.078581	0.130649
C41	C	0.621052	-0.578583	-0.369361
C42	C	1.121052	-0.078583	0.130639
C43	C	0.585699	-0.510701	-0.326152
C44	C	1.085699	-0.010701	0.173848
C45	C	0.621037	-0.442805	-0.282935
C46	C	1.121037	0.057195	0.217065
C47	C	0.691725	-0.442799	-0.282930
C48	C	1.191725	0.057201	0.217070
C49	C	0.335964	-0.442829	-0.282958
C50	C	0.835964	0.057171	0.217042
C51	C	0.265272	-0.442843	-0.282965
C52	C	0.765272	0.057157	0.217035
C53	C	0.265292	-0.578613	-0.369388
C54	C	0.765292	-0.078613	0.130612
C55	C	0.335979	-0.578606	-0.369383
C56	C	0.835979	-0.078606	0.130617
C57	C	0.371311	-0.510707	-0.326169
C58	C	0.871311	-0.010707	0.173831
C59	C	0.447960	-0.510705	-0.326160
C60	C	0.947960	-0.010705	0.173840
C61	C	0.509051	-0.510708	-0.326157
C62	C	1.009051	-0.010708	0.173843
C63	C	0.978113	-0.786126	-0.326142
C64	C	1.478113	-0.286126	0.173858
C65	C	0.978154	-0.903956	-0.326161
C66	C	1.478154	-0.403956	0.173839
C67	C	0.926078	-1.071538	-0.378618
C68	C	1.426078	-0.571538	0.121382
C69	C	0.925811	-0.948979	-0.378450
C70	C	1.425811	-0.448979	0.121550
C71	C	0.958847	-0.948544	-0.254828
C72	C	1.458847	-0.448544	0.245172
C73	C	0.958530	-1.071142	-0.255147
C74	C	1.458530	-0.571142	0.244853
C75	C	1.049854	-1.071047	-0.344457
C76	C	1.549854	-0.571047	0.155543
C77	C	1.049415	-0.948440	-0.346017
C78	C	1.549415	-0.448440	0.153983
C79	C	1.154705	-0.510717	-0.326174
C80	C	1.654705	-0.010717	0.173826
C81	C	1.229937	-0.510726	-0.326184
C82	C	1.729937	-0.010726	0.173816
C83	C	0.978200	-0.510629	-0.502695
C84	C	1.478200	-0.010629	-0.002695
C85	C	0.978216	-0.510601	-0.577927
C86	C	1.478216	-0.010601	-0.077927
C87	C	0.978230	-0.234191	-0.326176
C88	C	1.478230	0.265809	0.173824
C89	C	0.978259	-0.116361	-0.326186
C90	C	1.478259	0.383639	0.173814
C91	C	1.021524	-0.442800	-0.613283
C92	C	1.521524	0.057200	-0.113283
C93	C	1.021531	-0.442770	-0.683972
C94	C	1.521531	0.057230	-0.183972
C95	C	0.978233	-0.510546	-0.719302
C96	C	1.478233	-0.010546	-0.219302
C97	C	0.934920	-0.578349	-0.683941
C98	C	1.434920	-0.078349	-0.183941
C99	C	0.934910	-0.578374	-0.613253
C100	C	1.434910	-0.078374	-0.113253
C101	C	0.934958	-0.578250	-0.969014
C102	C	1.434958	-0.078250	-0.469014
C103	C	0.934973	-0.578223	-1.039706
C104	C	1.434973	-0.078223	-0.539706
C105	C	1.021579	-0.442646	-1.039732
C106	C	1.521579	0.057354	-0.539732
C107	C	1.021570	-0.442671	-0.969045
C108	C	1.521570	0.057329	-0.469045
C109	C	0.978255	-0.510470	-0.933690
C110	C	1.478255	-0.010470	-0.433690
C111	C	0.978247	-0.510501	-0.857041
C112	C	1.478247	-0.010501	-0.357041
C113	C	0.978244	-0.510521	-0.795949
C114	C	1.478244	-0.010521	-0.295949
C115	C	0.978163	-0.510686	-0.150296
C116	C	1.478163	-0.010686	0.349704
C117	C	0.978278	-0.510416	-0.075064
C118	C	1.478278	-0.010416	0.424936
H119	H	0.236515	-0.633895	-0.404578
H120	H	0.736515	-0.133895	0.095422
C121	C	0.887285	-0.652893	-0.722807
C122	C	1.387285	-0.152893	-0.222807
N123	N	0.851405	-0.709041	-0.752080
N124	N	1.351405	-0.209041	-0.252080
H125	H	0.899638	-0.633574	-0.584467
H126	H	1.399638	-0.133574	-0.084467
H127	H	0.720492	-0.387512	-0.247744
H128	H	1.220492	0.112488	0.252256
H129	H	0.899712	-0.633416	-1.068470
H130	H	1.399712	-0.133416	-0.568470
C131	C	0.730623	-0.653258	-0.416885
C132	C	1.230623	-0.153258	0.083115
N133	N	0.759907	-0.709504	-0.452691
N134	N	1.259907	-0.209504	0.047309
C135	C	0.888877	-0.907200	-0.233543
C136	C	1.388877	-0.407200	0.266457
N137	N	0.836172	-0.876062	-0.217514
N138	N	1.336172	-0.376062	0.282486
C139	C	1.069175	-0.368185	-0.722861
C140	C	1.569175	0.131815	-0.222861
N141	N	1.105062	-0.312005	-0.752152
N142	N	1.605062	0.187995	-0.252152
H143	H	0.899699	-0.633472	-0.940236
H144	H	1.399699	-0.133472	-0.440236
C145	C	0.582188	-0.653286	-0.416887
C146	C	1.082188	-0.153286	0.083113
N147	N	0.552916	-0.709562	-0.452682
N148	N	1.052916	-0.209562	0.047318
H149	H	1.067466	-1.101895	-0.395589
H150	H	1.567466	-0.601895	0.104411
H151	H	1.088731	-1.100032	-0.306269
H152	H	1.588731	-0.600032	0.193731
C153	C	1.008560	-0.909141	-0.200607
C154	C	1.508560	-0.409141	0.299393
N155	N	1.046003	-0.879458	-0.159768
N156	N	1.546003	-0.379458	0.340232
C157	C	0.374863	-0.653283	-0.416915
C158	C	0.874863	-0.153283	0.083085
N159	N	0.404150	-0.709528	-0.452719
N160	N	0.904150	-0.209528	0.047281
C161	C	1.069219	-0.368052	-1.078630
C162	C	1.569219	0.131948	-0.578630
N163	N	1.105100	-0.311868	-1.107926
N164	N	1.605100	0.188132	-0.607926
C165	C	0.887824	-1.109904	-0.234242
C166	C	1.387824	-0.609904	0.265758
N167	N	0.834566	-1.139094	-0.218498
N168	N	1.334566	-0.639094	0.281502
H169	H	0.236489	-0.387559	-0.247779
H170	H	0.736489	0.112441	0.252221
C171	C	1.069198	-0.368108	-0.930186
C172	C	1.569198	0.131892	-0.430186
N173	N	1.105070	-0.311940	-0.900917
N174	N	1.605070	0.188060	-0.400917
C175	C	0.374821	-0.368144	-0.235417
C176	C	0.874821	0.131856	0.264583
N177	N	0.404090	-0.311890	-0.199606
N178	N	0.904090	0.188110	0.300394
C179	C	0.582146	-0.368132	-0.235407
C180	C	1.082146	0.131868	0.264593
N181	N	0.552854	-0.311889	-0.199606
N182	N	1.052854	0.188111	0.300394
C183	C	0.942127	-0.908245	-0.449906
C184	C	1.442127	-0.408245	0.050094
N185	N	0.954413	-0.877570	-0.503730
N186	N	1.454413	-0.377570	-0.003730
C187	C	1.007639	-1.111206	-0.200565
C188	C	1.507639	-0.611206	0.299435
N189	N	1.044623	-1.141378	-0.159451
N190	N	1.544623	-0.641378	0.340549
H191	H	0.938046	-1.100955	-0.431684
H192	H	1.438046	-0.600955	0.068316
H193	H	0.873332	-1.102438	-0.366668
H194	H	1.373332	-0.602438	0.133332
H195	H	1.063974	-0.919294	-0.398514
H196	H	1.563974	-0.419294	0.101486
H197	H	0.872734	-0.919743	-0.366345
H198	H	1.372734	-0.419743	0.133655
H199	H	1.090340	-0.917787	-0.310610
H200	H	1.590340	-0.417787	0.189390
H201	H	1.056785	-0.387612	-0.584522
H202	H	1.556785	0.112388	-0.084522
