data_functionalizedCrystal
_audit_creation_method	'MofGen! by Chris Wilmer'
_symmetry_space_group_name_H-M	'P1'
_symmetry_Int_Tables_number	1
_symmetry_cell_setting	triclinic
loop_
_symmetry_equiv_pos_as_xyz
  x,y,z
_cell_length_a	19.188925
_cell_length_b	19.188924
_cell_length_c	15.455313
_cell_angle_alpha	92.653849
_cell_angle_beta	87.326905
_cell_angle_gamma	83.142256
loop_
_atom_site_label
_atom_site_type_symbol
_atom_site_fract_x
_atom_site_fract_y
_atom_site_fract_z
O1	O	0.929216	0.084085	-0.072153
O2	O	0.725904	0.095824	-0.072151
O3	O	0.833429	-0.011701	-0.072142
O4	O	0.821690	0.191610	-0.072163
O5	O	0.827280	-0.005578	0.072119
O6	O	0.719755	0.101947	0.072110
O7	O	0.923067	0.090209	0.072108
Cu8	Cu	0.820850	0.096637	0.085281
Cu9	Cu	0.828121	0.089395	-0.085325
O10	O	0.815542	0.197734	0.072099
C11	C	0.696818	0.098506	-0.000020
C12	C	0.619313	0.097367	-0.000019
C13	C	0.057542	0.152831	-0.000027
C14	C	0.130365	0.153907	-0.000032
C15	C	0.175301	0.090815	-0.000024
C16	C	0.147409	0.026641	-0.000033
C17	C	0.074587	0.025566	-0.000037
N18	N	0.293886	0.047223	0.049088
N19	N	0.363063	0.048249	0.049094
C20	C	0.394710	0.094050	-0.000014
N21	N	0.354564	0.138797	-0.049117
N22	N	0.285380	0.137774	-0.049118
C23	C	0.254265	0.091973	-0.000020
C24	C	0.501557	0.159386	-0.000016
C25	C	0.574383	0.160460	-0.000026
C26	C	0.591425	0.033192	-0.000019
C27	C	0.518601	0.032120	-0.000017
C28	C	0.473671	0.095219	-0.000012
C29	C	0.829975	-0.034650	-0.000011
C30	C	0.828836	-0.112155	-0.000008
C31	C	0.831656	-0.151892	-0.078645
C32	C	0.830577	-0.224715	-0.078652
C33	C	0.826691	-0.257800	-0.000017
C34	C	0.823866	-0.218053	0.078631
C35	C	0.824939	-0.145231	0.078635
N36	N	0.862244	-0.374980	0.058509
N37	N	0.861227	-0.444158	0.058499
C38	C	0.823457	-0.477209	-0.000025
N39	N	0.786752	-0.438470	-0.058553
N40	N	0.787773	-0.369286	-0.058546
C41	C	0.825527	-0.336763	-0.000013
C42	C	0.825106	-0.595909	-0.078675
C43	C	0.824022	-0.668733	-0.078678
C44	C	0.817318	-0.662071	0.078607
C45	C	0.818395	-0.589248	0.078608
C46	C	0.822293	-0.556172	-0.000036
C47	C	0.952153	0.087527	-0.000025
C48	C	1.029658	0.088665	-0.000032
C49	C	0.818996	0.220683	-0.000034
C50	C	0.820135	0.298187	-0.000043
N51	N	0.815740	0.101730	0.205276
N52	N	0.833236	0.084297	-0.205320
C53	C	0.861436	0.056067	0.250675
C54	C	0.857579	0.059925	0.341482
C55	C	0.808028	0.109450	0.386890
C56	C	0.762327	0.155116	0.341486
C57	C	0.766181	0.151254	0.250680
C58	C	0.791390	0.126101	0.658470
C59	C	0.787540	0.129961	0.749282
C60	C	0.882791	0.034768	0.749273
C61	C	0.886645	0.030913	0.658465
C62	C	0.840941	0.076576	0.613068
N63	N	0.804085	0.113396	0.479710
N64	N	0.844881	0.072626	0.520250
H65	H	0.597084	0.212712	-0.000029
H66	H	0.901789	0.015741	0.213709
H67	H	0.820700	-0.244996	0.142656
H68	H	0.153073	0.206160	-0.000020
H69	H	0.834828	-0.124966	-0.142683
Br70	Br	0.834402	-0.278655	-0.185382
H71	H	0.628011	-0.018179	-0.000019
H72	H	0.747187	0.170293	0.786249
H73	H	0.020964	0.204211	-0.000026
Br74	Br	0.944813	-0.027202	0.810885
H75	H	0.894788	0.022741	0.378445
H76	H	0.926993	-0.009414	0.621496
Br77	Br	0.821108	-0.091298	0.185365
Br78	Br	0.729367	0.188071	0.596865
H79	H	0.828275	-0.568977	-0.142711
H80	H	0.826315	-0.701085	-0.142717
Br81	Br	0.812037	-0.706963	0.185328
H82	H	0.184001	-0.024729	-0.000029
Br83	Br	0.695072	0.222326	0.403107
Br84	Br	0.440577	0.245018	-0.000008
H85	H	0.728970	0.188437	0.213717
H86	H	0.051885	-0.026687	-0.000041
Br87	Br	0.480755	-0.054967	-0.000031
H88	H	0.816105	-0.556894	0.142643
