data_functionalizedCrystal
_audit_creation_method	'MofGen! by Chris Wilmer'
_symmetry_space_group_name_H-M	'P1'
_symmetry_Int_Tables_number	1
_symmetry_cell_setting	triclinic
loop_
_symmetry_equiv_pos_as_xyz
  x,y,z
_cell_length_a	21.395362
_cell_length_b	12.759394
_cell_length_c	21.395356
_cell_angle_alpha	90.024246
_cell_angle_beta	90.035878
_cell_angle_gamma	90.030716
loop_
_atom_site_label
_atom_site_type_symbol
_atom_site_fract_x
_atom_site_fract_y
_atom_site_fract_z
Zn1	Zn	0.957879	-0.417843	0.354603
Zn2	Zn	1.457879	0.082157	0.854603
Zn3	Zn	0.957825	-0.593537	0.249832
Zn4	Zn	1.457825	-0.093537	0.749832
Zn5	Zn	0.853108	-0.417921	0.249804
Zn6	Zn	1.353108	0.082079	0.749804
Zn7	Zn	0.853092	-0.593529	0.354537
Zn8	Zn	1.353092	-0.093529	0.854537
O9	O	0.905476	-0.505707	0.302194
O10	O	1.405476	-0.005707	0.802194
O11	O	1.045549	-0.441119	0.340744
O12	O	1.545549	0.058881	0.840744
O13	O	0.943918	-0.570277	0.162151
O14	O	1.443918	-0.070277	0.662151
O15	O	0.867036	-0.270890	0.263721
O16	O	1.367036	0.229110	0.763721
O17	O	1.045510	-0.570201	0.263770
O18	O	1.545510	-0.070201	0.763770
O19	O	0.944010	-0.270832	0.340717
O20	O	1.444010	0.229168	0.840717
O21	O	0.866984	-0.441253	0.162130
O22	O	1.366984	0.058747	0.662130
O23	O	0.765428	-0.441245	0.263658
O24	O	1.265428	0.058755	0.763658
O25	O	0.867008	-0.570187	0.442224
O26	O	1.367008	-0.070187	0.942224
O27	O	0.765416	-0.570264	0.340605
O28	O	1.265416	-0.070264	0.840605
O29	O	0.943994	-0.441112	0.442272
O30	O	1.443994	0.058888	0.942272
O31	O	0.943902	-0.740557	0.263706
O32	O	1.443902	-0.240557	0.763706
O33	O	0.866955	-0.740551	0.340632
O34	O	1.366955	-0.240551	0.840632
C35	C	0.742688	-0.505763	0.302121
C36	C	1.242688	-0.005763	0.802121
C37	C	0.673047	-0.505812	0.302105
C38	C	1.173047	-0.005812	0.802105
C39	C	0.640344	-0.573081	0.342112
C40	C	1.140344	-0.073081	0.842112
C41	C	0.574909	-0.573055	0.342139
C42	C	1.074909	-0.073055	0.842139
C43	C	0.542179	-0.505772	0.302150
C44	C	1.042179	-0.005772	0.802150
C45	C	0.574890	-0.438490	0.262141
C46	C	1.074890	0.061510	0.762141
C47	C	0.640324	-0.438510	0.262118
C48	C	1.140324	0.061490	0.762118
C49	C	0.438461	-0.497324	0.245744
C50	C	0.938461	0.002676	0.745744
C51	C	0.373028	-0.497311	0.245766
C52	C	0.873028	0.002689	0.745766
C53	C	0.340358	-0.505703	0.302219
C54	C	0.840358	-0.005703	0.802219
C55	C	0.373129	-0.514130	0.358653
C56	C	0.873129	-0.014130	0.858653
C57	C	0.438564	-0.514150	0.358631
C58	C	0.938564	-0.014150	0.858631
C59	C	0.471226	-0.505742	0.302170
C60	C	0.971226	-0.005742	0.802170
C61	C	0.236702	-0.572947	0.342259
C62	C	0.736702	-0.072947	0.842259
C63	C	0.171266	-0.572914	0.342288
C64	C	0.671266	-0.072914	0.842288
C65	C	0.171248	-0.438354	0.262284
C66	C	0.671248	0.061646	0.762284
C67	C	0.236684	-0.438382	0.262260
C68	C	0.736684	0.061618	0.762260
C69	C	0.269407	-0.505684	0.302247
C70	C	0.769407	-0.005684	0.802247
C71	C	0.905438	-0.778675	0.302179
C72	C	1.405438	-0.278675	0.802179
C73	C	0.905480	-0.895452	0.302193
C74	C	1.405480	-0.395452	0.802193
C75	C	0.985665	-0.895404	0.222150
C76	C	1.485665	-0.395404	0.722150
C77	C	1.025773	-0.950241	0.182136
C78	C	1.525773	-0.450241	0.682136
C79	C	1.025810	-1.059963	0.182153
C80	C	1.525810	-0.559963	0.682153
C81	C	0.985735	-1.114850	0.222190
C82	C	1.485735	-0.614850	0.722190
C83	C	0.945626	-1.060013	0.262204
C84	C	1.445626	-0.560013	0.762204
C85	C	0.945593	-0.950289	0.262182
C86	C	1.445593	-0.450289	0.762182
C87	C	0.865445	-1.060060	0.342250
C88	C	1.365445	-0.560060	0.842250
C89	C	0.865404	-0.950338	0.342230
C90	C	1.365404	-0.450338	0.842230
C91	C	0.825370	-1.114947	0.382286
C92	C	1.325370	-0.614947	0.882286
C93	C	0.785257	-1.060110	0.422298
C94	C	1.285257	-0.560110	0.922298
C95	C	0.785222	-0.950382	0.422279
C96	C	1.285222	-0.450382	0.922279
C97	C	0.825296	-0.895501	0.382244
C98	C	1.325296	-0.395501	0.882244
C99	C	1.068899	-0.505652	0.302267
C100	C	1.568899	-0.005652	0.802267
C101	C	1.138541	-0.505629	0.302299
C102	C	1.638541	-0.005629	0.802299
C103	C	0.905505	-0.505640	0.465617
C104	C	1.405505	-0.005640	0.965617
C105	C	0.905517	-0.505611	0.535259
C106	C	1.405517	-0.005611	1.035259
C107	C	0.905531	-0.231674	0.302223
C108	C	1.405531	0.268326	0.802223
C109	C	0.905554	-0.114897	0.302235
C110	C	1.405554	0.385103	0.802235
C111	C	0.905483	-0.505699	0.139407
C112	C	1.405483	-0.005699	0.639407
C113	C	0.905592	-0.505432	0.069766
C114	C	1.405592	-0.005432	0.569766
C115	C	0.945663	-0.438234	1.037081
C116	C	1.445663	0.061766	1.537081
C117	C	0.945658	-0.438259	0.971646
C118	C	1.445658	0.061741	1.471646
C119	C	0.905571	-0.505471	0.938897
C120	C	1.405571	-0.005471	1.438897
C121	C	0.865497	-0.572682	0.971590
C122	C	1.365497	-0.072682	1.471590
C123	C	0.865508	-0.572662	1.037024
C124	C	1.365508	-0.072662	1.537024
C125	C	0.849103	-0.513818	0.835203
C126	C	1.349103	-0.013818	1.335203
C127	C	0.849092	-0.513830	0.769770
C128	C	1.349092	-0.013830	1.269770
C129	C	0.905539	-0.505538	0.737076
C130	C	1.405539	-0.005538	1.237076
C131	C	0.961999	-0.497212	0.769824
C132	C	1.461999	0.002788	1.269824
C133	C	0.962010	-0.497192	0.835259
C134	C	1.462010	0.002808	1.335259
C135	C	0.905555	-0.505501	0.867945
C136	C	1.405555	-0.005501	1.367945
C137	C	0.945608	-0.438364	0.633439
C138	C	1.445608	0.061636	1.133439
C139	C	0.945604	-0.438397	0.568003
C140	C	1.445604	0.061603	1.068003
C141	C	0.865438	-0.572814	0.567948
C142	C	1.365438	-0.072814	1.067948
C143	C	0.865447	-0.572787	0.633383
C144	C	1.365447	-0.072787	1.133383
C145	C	0.905531	-0.505557	0.666125
C146	C	1.405531	-0.005557	1.166125
H147	H	0.465055	-0.490485	0.199770
H148	H	0.965055	0.009515	0.699770
F149	F	1.068425	-0.891820	0.139531
F150	F	1.568425	-0.391820	0.639531
F151	F	0.985766	-0.778629	0.222267
F152	F	1.485766	-0.278629	0.722267
H153	H	0.346531	-0.520962	0.404623
H154	H	0.846531	-0.020962	0.904623
F155	F	0.825404	-0.778726	0.382363
F156	F	1.325404	-0.278726	0.882363
F157	F	0.985569	-1.231625	0.221998
F158	F	1.485569	-0.731625	0.721998
F159	F	0.825203	-1.231722	0.382096
F160	F	1.325203	-0.731722	0.882096
F161	F	0.988309	-0.366735	0.936853
F162	F	1.488309	0.133265	1.436853
H163	H	0.548237	-0.383705	0.229582
H164	H	1.048237	0.116295	0.729582
H165	H	0.752563	-0.905739	0.454866
H166	H	1.252563	-0.405739	0.954866
H167	H	0.803119	-0.520609	0.743111
H168	H	1.303119	-0.020609	1.243111
F169	F	1.068501	-1.118326	0.139569
F170	F	1.568501	-0.618326	0.639569
H171	H	0.548277	-0.627833	0.374720
H172	H	1.048277	-0.127833	0.874720
F173	F	0.822796	-0.644307	0.668170
F174	F	1.322796	-0.144307	1.168170
F175	F	1.022098	-0.488343	0.870109
F176	F	1.522098	0.011657	1.370109
F177	F	0.988344	-0.366713	1.071924
F178	F	1.488344	0.133287	1.571924
F179	F	0.742615	-1.118530	0.464907
F180	F	1.242615	-0.618530	0.964907
H181	H	0.666950	-0.383728	0.229540
H182	H	1.166950	0.116272	0.729540
F183	F	0.675167	-0.644707	0.384671
F184	F	1.175167	-0.144707	0.884671
F185	F	1.022080	-0.488402	0.735036
F186	F	1.522080	0.011598	1.235036
H187	H	0.978247	-0.383621	0.660099
H188	H	1.478247	0.116379	1.160099
F189	F	0.988259	-0.366878	0.533218
F190	F	1.488259	0.133122	1.033218
H191	H	0.803134	-0.520571	0.861816
H192	H	1.303134	-0.020571	1.361816
H193	H	0.832800	-0.627544	0.541285
H194	H	1.332800	-0.127544	1.041285
F195	F	0.822835	-0.644216	0.936736
F196	F	1.322835	-0.144216	1.436736
H197	H	0.832876	-0.627384	1.063635
H198	H	1.332876	-0.127384	1.563635
H199	H	0.263347	-0.627744	0.374822
H200	H	0.763347	-0.127744	0.874822
F201	F	0.136461	-0.644510	0.384874
F202	F	0.636461	-0.144510	0.884874
F203	F	0.136419	-0.366740	0.219727
F204	F	0.636419	0.133260	0.719727
F205	F	0.473439	-0.523114	0.418690
F206	F	0.973439	-0.023114	0.918690
H207	H	0.263311	-0.383610	0.229680
H208	H	0.763311	0.116390	0.729680
H209	H	0.346350	-0.490456	0.199814
H210	H	0.846350	0.009544	0.699814
