data_functionalizedCrystal
_audit_creation_method	'MofGen! by Chris Wilmer'
_symmetry_space_group_name_H-M	'P1'
_symmetry_Int_Tables_number	1
_symmetry_cell_setting	triclinic
loop_
_symmetry_equiv_pos_as_xyz
  x,y,z
_cell_length_a	6.394984
_cell_length_b	10.654550
_cell_length_c	9.730223
_cell_angle_alpha	90.000043
_cell_angle_beta	89.997126
_cell_angle_gamma	94.509859
loop_
_atom_site_label
_atom_site_type_symbol
_atom_site_fract_x
_atom_site_fract_y
_atom_site_fract_z
O1	O	0.293442	-1.670943	-0.114182
O2	O	0.321399	-1.305761	-0.114207
O3	O	0.003431	-1.493539	-0.114190
O4	O	0.611411	-1.483165	-0.114199
O5	O	0.003422	-1.493527	0.114390
O6	O	0.321391	-1.305748	0.114373
O7	O	0.293433	-1.670931	0.114398
Zn8	Zn	0.307411	-1.488337	0.150677
Zn9	Zn	0.307422	-1.488354	-0.150487
O10	O	0.611402	-1.483152	0.114381
C11	C	0.319342	-1.258935	0.000080
C12	C	0.313201	-1.119426	0.000070
C13	C	0.925578	-1.491470	0.000104
C14	C	0.689250	-1.485218	0.000101
C15	C	0.295491	-1.717757	0.000108
C16	C	0.301632	-1.857265	0.000108
N17	N	0.307402	-1.488335	0.356214
N18	N	0.307415	-1.488366	-0.356023
C19	C	0.500415	-1.041921	0.000071
C20	C	0.494632	-0.910839	0.000095
C21	C	0.114403	-0.934780	0.000111
C22	C	0.120188	-1.065860	0.000097
C23	C	0.166665	-1.571513	0.428147
C24	C	0.166666	-1.571526	0.572030
C25	C	0.448158	-1.405179	0.572034
C26	C	0.448145	-1.405161	0.428153
H27	H	0.647082	-0.847739	0.000099
H28	H	0.562751	-1.337421	0.369581
H29	H	0.657578	-1.085531	0.000060
C30	C	0.013642	-1.661571	0.349901
C31	C	-0.115251	-1.592588	0.267336
C32	C	-0.256274	-1.675491	0.195244
H33	H	-0.070374	-1.711109	0.413225
H34	H	0.089442	-1.715052	0.293654
H35	H	-0.191044	-1.539129	0.323578
H36	H	-0.031292	-1.543054	0.203986
H37	H	-0.180475	-1.728973	0.138997
H38	H	-0.340276	-1.725025	0.258579
H39	H	-0.343732	-1.628700	0.139206
C40	C	0.013777	-1.661977	0.649881
C41	C	-0.109439	-1.734829	0.556077
C42	C	-0.250292	-1.818180	0.627742
H43	H	-0.074095	-1.615575	0.706024
H44	H	0.089699	-1.715522	0.705968
H45	H	-0.185356	-1.681292	0.500014
H46	H	-0.021625	-1.781258	0.499931
H47	H	-0.174370	-1.871724	0.683829
H48	H	-0.338149	-1.771767	0.683883
H49	H	-0.333898	-1.867628	0.564108
H50	H	0.562752	-1.337461	0.630621
C51	C	-0.094936	-0.876378	0.000057
C52	C	-0.059938	-0.744995	0.000030
C53	C	-0.252735	-0.691157	-0.000042
H54	H	-0.172266	-0.902642	0.079747
H55	H	-0.172120	-0.902703	-0.079686
H56	H	0.017213	-0.718681	0.079765
H57	H	0.017359	-0.718696	-0.079653
H58	H	-0.329919	-0.717481	-0.079785
H59	H	-0.330050	-0.717429	0.079648
H60	H	-0.229015	-0.602008	-0.000074
H61	H	-0.032274	-1.128968	0.000100
