data_functionalizedCrystal
_audit_creation_method	'MofGen! by Chris Wilmer'
_symmetry_space_group_name_H-M	'P1'
_symmetry_Int_Tables_number	1
_symmetry_cell_setting	triclinic
loop_
_symmetry_equiv_pos_as_xyz
  x,y,z
_cell_length_a	14.971486
_cell_length_b	14.519709
_cell_length_c	13.448316
_cell_angle_alpha	89.992453
_cell_angle_beta	89.998199
_cell_angle_gamma	83.647137
loop_
_atom_site_label
_atom_site_type_symbol
_atom_site_fract_x
_atom_site_fract_y
_atom_site_fract_z
O1	O	1.187015	0.120184	-0.082580
O2	O	0.926623	0.134576	-0.082607
O3	O	1.063723	-0.006863	-0.082584
O4	O	1.049915	0.261623	-0.082603
O5	O	1.063706	-0.006871	0.082800
O6	O	0.926606	0.134567	0.082777
O7	O	1.186998	0.120175	0.082804
Cu8	Cu	1.056800	0.127371	0.097891
Cu9	Cu	1.056820	0.127381	-0.097694
O10	O	1.049898	0.261614	0.082781
C11	C	0.893289	0.133928	0.000082
C12	C	0.793991	0.131999	0.000071
C13	C	0.736812	0.215091	0.000067
C14	C	0.643512	0.213273	0.000082
C15	C	0.607392	0.128363	0.000094
C16	C	0.664578	0.045265	0.000102
C17	C	0.757876	0.047084	0.000094
C18	C	0.470113	0.041480	0.000116
C19	C	0.376808	0.039661	0.000122
C20	C	0.355749	0.207669	0.000104
C21	C	0.449047	0.209488	0.000096
C22	C	0.506227	0.126390	0.000101
C23	C	1.063071	-0.041226	0.000108
C24	C	1.061142	-0.143606	0.000109
C25	C	1.054043	-0.518498	0.000082
C26	C	1.056015	-0.414191	0.000090
C27	C	1.057593	-0.331055	0.000096
C28	C	1.059564	-0.226742	0.000102
C29	C	1.220331	0.120823	0.000113
C30	C	1.319630	0.122752	0.000117
C31	C	1.050550	0.295978	0.000087
C32	C	1.052478	0.398358	0.000080
N33	N	1.056792	0.127363	0.235456
N34	N	1.056835	0.127381	-0.235258
C35	C	1.117519	0.064759	0.287506
C36	C	1.117525	0.064759	0.391610
C37	C	1.056807	0.127366	0.443660
C38	C	0.996074	0.189973	0.391602
C39	C	0.996065	0.189968	0.287501
C40	C	0.996099	0.189979	0.608582
C41	C	0.996109	0.189985	0.712691
C42	C	1.117559	0.064769	0.712691
C43	C	1.117549	0.064765	0.608590
C44	C	1.056817	0.127373	0.556539
H45	H	0.766213	0.284234	0.000056
H46	H	0.946614	0.240945	0.245122
H47	H	0.596960	0.280934	0.000077
H48	H	0.478453	0.278629	0.000076
F49	F	0.294893	0.296109	0.000099
F50	F	0.530966	-0.046963	0.000125
H51	H	0.804431	-0.020578	0.000097
F52	F	0.338369	-0.050710	0.000161
H53	H	0.946632	0.240946	0.433988
H54	H	1.166972	0.013782	0.433989
H55	H	0.635162	-0.023871	0.000126
H56	H	1.166966	0.013781	0.245134
F57	F	1.182176	-0.001863	0.553193
F58	F	1.182195	-0.001861	0.768091
F59	F	0.931483	0.256619	0.768080
H60	H	0.946641	0.240958	0.566206
