data_functionalizedCrystal
_audit_creation_method	'MofGen! by Chris Wilmer'
_symmetry_space_group_name_H-M	'P1'
_symmetry_Int_Tables_number	1
_symmetry_cell_setting	triclinic
loop_
_symmetry_equiv_pos_as_xyz
  x,y,z
_cell_length_a	15.944545
_cell_length_b	19.188924
_cell_length_c	14.421503
_cell_angle_alpha	90.002214
_cell_angle_beta	89.995153
_cell_angle_gamma	83.319068
loop_
_atom_site_label
_atom_site_type_symbol
_atom_site_fract_x
_atom_site_fract_y
_atom_site_fract_z
O1	O	1.114193	0.090018	-0.077056
O2	O	0.869601	0.101124	-0.077072
O3	O	0.998958	-0.006067	-0.077052
O4	O	0.984836	0.197209	-0.077075
O5	O	0.998937	-0.006051	0.077171
O6	O	0.869579	0.101140	0.077152
O7	O	1.114172	0.090034	0.077167
Cu8	Cu	0.991874	0.095588	0.091242
Cu9	Cu	0.991899	0.095570	-0.091146
O10	O	0.984814	0.197225	0.077148
C11	C	0.838298	0.100672	0.000038
C12	C	0.745057	0.099292	0.000033
C13	C	0.998491	-0.032071	0.000060
C14	C	0.997121	-0.109579	0.000063
C15	C	0.474690	0.028726	0.000050
C16	C	0.525133	0.062755	0.076089
C17	C	0.409431	0.094371	0.000049
C18	C	0.525135	0.062757	-0.075963
C19	C	0.574336	0.096785	0.000040
C20	C	0.458646	0.128382	0.076151
C21	C	0.458644	0.128374	-0.075970
C22	C	0.509054	0.162451	0.000087
C23	C	0.314435	0.092978	0.000056
C24	C	0.669330	0.098183	0.000040
C25	C	0.996494	-0.145989	-0.084005
C26	C	0.995194	-0.218815	-0.084012
C27	C	0.994540	-0.255231	0.000053
C28	C	0.995163	-0.218812	0.084132
C29	C	0.996454	-0.145987	0.084136
N30	N	1.040304	-0.374770	0.062624
N31	N	1.039080	-0.443951	0.062613
C32	C	0.990649	-0.474650	0.000044
N33	N	0.943500	-0.433554	-0.062529
N34	N	0.944728	-0.364367	-0.062522
C35	C	0.993140	-0.334198	0.000057
C36	C	0.988612	-0.590025	-0.084037
C37	C	0.987307	-0.662852	-0.084041
C38	C	0.987284	-0.662849	0.084105
C39	C	0.988580	-0.590022	0.084107
C40	C	0.989248	-0.553615	0.000033
C41	C	1.145475	0.090486	0.000056
C42	C	1.238716	0.091866	0.000055
C43	C	0.985281	0.223229	0.000034
C44	C	0.986651	0.300737	0.000025
N45	N	0.991862	0.095601	0.219523
N46	N	0.991917	0.095551	-0.219427
C47	C	0.932036	0.145144	0.469168
C48	C	1.007886	0.158698	0.530973
C49	C	0.991882	0.095585	0.408684
C50	C	0.916053	0.082047	0.530972
C51	C	0.991895	0.095570	0.591406
C52	C	1.067770	0.109170	0.469129
C53	C	0.975887	0.032492	0.469123
C54	C	1.051791	0.046018	0.530901
C55	C	0.991874	0.095595	0.303423
C56	C	0.991913	0.095559	0.696665
H57	H	0.554159	0.035039	0.140380
C58	C	0.529315	0.237921	-0.000010
C59	C	0.494168	0.272355	-0.078939
C60	C	0.512809	0.341879	-0.079050
H61	H	0.588806	0.238477	-0.000569
H62	H	0.506295	0.261173	0.054013
H63	H	0.517191	0.249110	-0.132949
H64	H	0.434677	0.271819	-0.078397
H65	H	0.489789	0.365131	-0.025026
H66	H	0.572300	0.342428	-0.079606
H67	H	0.488958	0.365253	-0.132597
C68	C	1.119424	-0.009889	0.566644
C69	C	1.161779	-0.044151	0.491464
C70	C	1.224096	-0.095647	0.524356
H71	H	1.093867	-0.042967	0.602887
H72	H	1.158534	0.011504	0.603701
H73	H	1.122674	-0.065544	0.454421
H74	H	1.187353	-0.011092	0.455213
H75	H	1.263207	-0.074254	0.561414
H76	H	1.198532	-0.128719	0.560599
H77	H	1.252846	-0.118895	0.473352
H78	H	0.989098	-0.560379	0.152564
C79	C	0.864728	0.201175	0.433063
C80	C	0.881889	0.267112	0.464386
C81	C	0.819914	0.318745	0.431133
H82	H	0.810921	0.192100	0.455124
H83	H	0.864865	0.200554	0.367191
H84	H	0.881743	0.267731	0.530245
H85	H	0.935684	0.276209	0.442327
H86	H	0.820051	0.318125	0.365260
H87	H	0.766112	0.309664	0.453196
H88	H	0.831554	0.363490	0.452373
H89	H	0.429723	0.156091	0.140504
H90	H	1.021427	0.212048	0.558141
C91	C	1.153212	0.124596	0.432887
C92	C	1.152179	0.124495	0.335809
C93	C	1.230857	0.138739	0.302389
H94	H	1.195853	0.089643	0.454400
H95	H	1.164635	0.169290	0.454547
H96	H	1.140767	0.079807	0.314158
H97	H	1.109556	0.159448	0.314271
H98	H	1.242280	0.183433	0.324048
H99	H	1.273491	0.103784	0.323908
H100	H	1.230164	0.138679	0.236518
C101	C	0.994490	-0.258476	0.175307
C102	C	0.993248	-0.330050	0.157311
C103	C	0.992632	-0.366609	0.241281
H104	H	0.945735	-0.241302	0.209912
H105	H	1.043684	-0.251907	0.209866
H106	H	0.944058	-0.336614	0.122766
H107	H	1.041999	-0.347244	0.122719
H108	H	1.041827	-0.360040	0.275840
H109	H	0.943876	-0.349429	0.275880
H110	H	0.991797	-0.415176	0.229082
H111	H	0.989150	-0.560380	-0.152495
H112	H	0.429602	0.156067	-0.140263
C113	C	0.986757	-0.702492	-0.175249
C114	C	1.058252	-0.752171	-0.180133
C115	C	1.057770	-0.788710	-0.264135
H116	H	0.987384	-0.670465	-0.225397
H117	H	0.937306	-0.725619	-0.178761
H118	H	1.107690	-0.729046	-0.176630
H119	H	1.057640	-0.784213	-0.130005
H120	H	1.008319	-0.811836	-0.267647
H121	H	1.058394	-0.756677	-0.314276
H122	H	1.106273	-0.822425	-0.267456
C123	C	0.986421	-0.702442	0.175316
C124	C	0.913432	-0.736399	0.180199
C125	C	0.912601	-0.772885	0.264208
H126	H	0.986933	-0.670393	0.225457
H127	H	1.034855	-0.736219	0.178841
H128	H	0.865010	-0.702626	0.176684
H129	H	0.912904	-0.768459	0.130078
H130	H	0.961035	-0.806661	0.267733
H131	H	0.913115	-0.740831	0.314342
H132	H	0.863083	-0.795934	0.267529
H133	H	0.851920	0.070604	0.558140
H134	H	0.997035	-0.116350	-0.152464
H135	H	0.994678	-0.248464	-0.152472
H136	H	0.962322	-0.020841	0.441934
H137	H	0.459250	-0.027807	0.000131
C138	C	0.563939	0.025888	-0.161711
C139	C	0.604609	0.073283	-0.214316
C140	C	0.640372	0.039337	-0.293302
H141	H	0.520805	0.008959	-0.197856
H142	H	0.603760	-0.012355	-0.143458
H143	H	0.564791	0.111514	-0.232571
H144	H	0.647755	0.090216	-0.178199
H145	H	0.680193	0.001094	-0.275048
H146	H	0.597232	0.022409	-0.329438
H147	H	0.667977	0.071488	-0.328999
C148	C	0.997179	-0.106583	0.175512
C149	C	0.996343	-0.154059	0.249135
C150	C	0.997022	-0.117786	0.333323
H151	H	0.948725	-0.072846	0.179133
H152	H	1.046674	-0.083517	0.179064
H153	H	0.946853	-0.177114	0.245585
H154	H	1.044793	-0.187796	0.245544
H155	H	1.046517	-0.094720	0.336876
H156	H	0.948568	-0.084050	0.336935
H157	H	0.996464	-0.149993	0.383287
