data_functionalizedCrystal
_audit_creation_method	'MofGen! by Chris Wilmer'
_symmetry_space_group_name_H-M	'P1'
_symmetry_Int_Tables_number	1
_symmetry_cell_setting	triclinic
loop_
_symmetry_equiv_pos_as_xyz
  x,y,z
_cell_length_a	14.853566
_cell_length_b	14.853567
_cell_length_c	13.930277
_cell_angle_alpha	89.999243
_cell_angle_beta	89.995631
_cell_angle_gamma	83.634672
loop_
_atom_site_label
_atom_site_type_symbol
_atom_site_fract_x
_atom_site_fract_y
_atom_site_fract_z
O1	O	1.196369	0.117698	-0.079759
O2	O	0.933909	0.131721	-0.079774
O3	O	1.072150	-0.006520	-0.079769
O4	O	1.058129	0.255939	-0.079764
O5	O	1.072131	-0.006523	0.079893
O6	O	0.933890	0.131718	0.079888
O7	O	1.196350	0.117695	0.079903
Zn8	Zn	1.065117	0.124706	0.105245
Zn9	Zn	1.065142	0.124710	-0.105116
O10	O	1.058109	0.255936	0.079898
C11	C	0.900311	0.131084	0.000055
C12	C	0.800227	0.129181	0.000049
C13	C	0.377053	0.121132	-0.086966
C14	C	0.377053	0.121129	0.087103
C15	C	0.471087	0.122916	0.087101
C16	C	0.518108	0.123813	0.000063
C17	C	0.471095	0.122922	-0.086972
C18	C	0.518106	0.123817	0.174134
C19	C	0.612146	0.125605	0.174134
C20	C	0.659170	0.126495	0.087095
C21	C	0.612151	0.125603	0.000057
C22	C	0.659172	0.126499	-0.086980
C23	C	0.612156	0.125601	-0.174019
C24	C	0.518119	0.123812	-0.174010
C25	C	0.753206	0.128284	0.087086
C26	C	0.753214	0.128290	-0.086986
C27	C	1.071505	-0.040111	0.000059
C28	C	1.069601	-0.140194	0.000051
C29	C	0.979435	-0.552728	0.000064
C30	C	1.143668	-0.574009	0.000073
C31	C	1.145458	-0.479976	0.000067
C32	C	1.064236	-0.422313	0.000061
C33	C	0.981223	-0.458685	0.000061
C34	C	1.228470	-0.443597	0.000078
C35	C	1.230263	-0.349558	0.000073
C36	C	1.149040	-0.291894	0.000060
C37	C	1.066023	-0.328271	0.000059
C38	C	0.984801	-0.270608	0.000053
C39	C	0.901784	-0.306984	0.000045
C40	C	0.899999	-0.401021	0.000048
C41	C	1.150824	-0.197856	0.000057
C42	C	0.986588	-0.176566	0.000050
C43	C	1.229948	0.118332	0.000072
C44	C	1.330032	0.120235	0.000071
C45	C	1.058754	0.289526	0.000068
C46	C	1.060658	0.389610	0.000070
N47	N	1.065106	0.124703	0.248811
N48	N	1.065160	0.124706	-0.248682
C49	C	1.003927	0.185899	0.701078
C50	C	1.126382	0.063514	0.701052
C51	C	1.126372	0.063511	0.600556
C52	C	1.065139	0.124704	0.550317
C53	C	1.003916	0.185900	0.600573
C54	C	1.187599	0.002322	0.550292
C55	C	1.187592	0.002318	0.449791
C56	C	1.126353	0.063507	0.399549
C57	C	1.065128	0.124705	0.449812
C58	C	1.003895	0.185898	0.399572
C59	C	0.942664	0.247092	0.449833
C60	C	0.942678	0.247089	0.550332
C61	C	1.126339	0.063510	0.299050
C62	C	1.003884	0.185899	0.299067
H63	H	0.338762	0.120405	0.157965
C64	C	1.240223	-0.153697	0.419111
C65	C	1.254884	-0.065051	0.394667
H66	H	1.281761	-0.195317	0.385110
H67	H	1.248926	-0.162342	0.486170
H68	H	1.180040	-0.163555	0.402615
H69	H	1.315065	-0.055192	0.411170
H70	H	1.246188	-0.056403	0.327594
H71	H	0.892811	0.296920	0.408917
H72	H	1.294597	-0.490552	0.000091
H73	H	0.954017	0.235726	0.258169
H74	H	0.650419	0.126335	0.245007
C75	C	0.386513	0.121316	-0.259030
C76	C	0.325379	0.120149	-0.182638
H77	H	0.354610	0.120706	-0.318093
H78	H	0.416378	0.174543	-0.255407
H79	H	0.430004	0.069480	-0.255406
H80	H	0.281892	0.171989	-0.186258
H81	H	0.295499	0.066917	-0.186263
C82	C	0.882156	-0.646129	-0.082020
C83	C	0.888187	-0.592709	0.000056
H84	H	0.825825	-0.670816	-0.082019
H85	H	0.886270	-0.609884	-0.137685
H86	H	0.930276	-0.693926	-0.082007
H87	H	0.840071	-0.544908	0.000040
H88	H	0.884064	-0.628956	0.055736
C89	C	0.373953	0.121077	0.251422
C90	C	0.466420	0.122842	0.269800
H91	H	0.342043	0.120472	0.310486
H92	H	0.351742	0.173307	0.215660
H93	H	0.365364	0.068244	0.215668
H94	H	0.475009	0.175678	0.305549
H95	H	0.488638	0.070606	0.305577
C96	C	0.888336	0.301439	0.704400
C97	C	0.875387	0.314358	0.605580
H98	H	0.846799	0.342973	0.738508
H99	H	0.878470	0.241260	0.720871
H100	H	0.948521	0.311337	0.720841
H101	H	0.815204	0.304452	0.589138
H102	H	0.885246	0.374551	0.589103
C103	C	1.145796	-0.059137	0.814073
C104	C	1.193683	-0.003748	0.756277
H105	H	1.187346	-0.100667	0.848165
H106	H	1.109345	-0.022687	0.858379
H107	H	1.108231	-0.091633	0.774865
H108	H	1.231243	0.028753	0.795486
H109	H	1.230149	-0.040202	0.711966
H110	H	0.954071	0.235720	0.742003
H111	H	0.479830	0.123079	-0.244873
C112	C	0.762336	-0.259874	0.082111
C113	C	0.812505	-0.243594	0.000039
H114	H	0.707224	-0.220733	0.082108
H115	H	0.749386	-0.321075	0.082099
H116	H	0.796372	-0.248838	0.137786
H117	H	0.778472	-0.254637	-0.055636
H118	H	0.825454	-0.182379	0.000043
C119	C	1.226485	-0.063154	0.000065
C120	C	1.242066	-0.157871	0.000070
H121	H	1.282818	-0.038472	0.000078
H122	H	1.193056	-0.043380	-0.055616
H123	H	1.193025	-0.043376	0.055740
H124	H	1.275521	-0.177650	-0.055609
H125	H	1.275509	-0.177653	0.055756
C126	C	1.236938	-0.692112	-0.081992
C127	C	1.232945	-0.637389	0.000080
H128	H	1.292059	-0.731239	-0.081989
H129	H	1.187250	-0.727229	-0.081983
H130	H	1.234229	-0.654979	-0.137666
H131	H	1.235647	-0.674523	0.055755
H132	H	1.282647	-0.602269	0.000080
C133	C	0.651163	0.048723	-0.322398
C134	C	0.663843	0.126592	-0.269693
H135	H	0.683070	0.049342	-0.381463
H136	H	0.673390	-0.003504	-0.286640
H137	H	0.588428	0.047532	-0.334849
H138	H	0.726577	0.127780	-0.257236
H139	H	0.641620	0.178833	-0.305459
C140	C	1.179107	-0.092457	0.268069
C141	C	1.193636	-0.003736	0.243788
H142	H	1.220652	-0.133970	0.233943
H143	H	1.187891	-0.101219	0.335101
H144	H	1.118926	-0.102355	0.251612
H145	H	1.253815	0.006164	0.260251
H146	H	1.184859	0.005030	0.176741
H147	H	1.237458	-0.047495	0.591201
C148	C	0.916400	-0.022963	0.000040
C149	C	0.897304	-0.113185	0.000040
H150	H	0.861278	0.016164	0.000026
H151	H	0.950415	-0.011928	0.055718
H152	H	0.950444	-0.011933	-0.055637
H153	H	0.863266	-0.124216	0.055720
H154	H	0.863274	-0.124224	-0.055645
H155	H	0.791482	0.129025	0.157952
C156	C	0.897366	0.131036	-0.164291
C157	C	0.804898	0.129273	-0.182662
H158	H	0.929272	0.131638	-0.223359
H159	H	0.905960	0.183859	-0.128540
H160	H	0.919580	0.078796	-0.128529
H161	H	0.782682	0.181517	-0.218418
H162	H	0.796299	0.076445	-0.218428
C163	C	0.802726	-0.494442	-0.082018
C164	C	0.808756	-0.441011	0.000050
H165	H	0.746399	-0.519137	-0.082010
H166	H	0.806832	-0.458202	-0.137689
H167	H	0.850852	-0.542233	-0.082003
H168	H	0.760634	-0.393215	0.000031
H169	H	0.804641	-0.477253	0.055735
C170	C	1.392425	-0.380051	0.000075
C171	C	1.321513	-0.309579	0.000071
H172	H	1.448757	-0.355366	0.000066
H173	H	1.388307	-0.416278	0.055754
H174	H	1.388308	-0.416292	-0.055602
H175	H	1.325625	-0.273341	0.055752
H176	H	1.325632	-0.273336	-0.055613
