data_functionalizedCrystal
_audit_creation_method	'MofGen! by Chris Wilmer'
_symmetry_space_group_name_H-M	'P1'
_symmetry_Int_Tables_number	1
_symmetry_cell_setting	triclinic
loop_
_symmetry_equiv_pos_as_xyz
  x,y,z
_cell_length_a	13.032721
_cell_length_b	13.032891
_cell_length_c	11.169409
_cell_angle_alpha	82.803792
_cell_angle_beta	97.146154
_cell_angle_gamma	90.903621
loop_
_atom_site_label
_atom_site_type_symbol
_atom_site_fract_x
_atom_site_fract_y
_atom_site_fract_z
Zn1	Zn	-0.609274	1.520325	-0.988813
Zn2	Zn	-0.781267	1.498351	-0.809997
Zn3	Zn	-0.587463	1.348323	-0.759912
Zn4	Zn	-0.759324	1.326473	-0.982405
O5	O	-0.684332	1.423368	-0.885282
O6	O	-0.650400	1.661325	-0.988734
O7	O	-0.755614	1.478397	-0.635403
O8	O	-0.446452	1.389480	-0.771998
O9	O	-0.776763	1.645180	-0.857359
O10	O	-0.462476	1.515849	-0.940170
O11	O	-0.613227	1.368173	-0.598607
O12	O	-0.591949	1.201510	-0.765785
O13	O	-0.739364	1.352240	-1.151205
O14	O	-0.718215	1.185457	-0.929249
O15	O	-0.629123	1.494662	-1.155912
O16	O	-0.922261	1.457210	-0.851146
O17	O	-0.906139	1.330933	-0.977814
C18	C	-0.650335	1.156168	-0.841388
C19	C	-0.635816	1.041855	-0.822641
C20	C	-0.676909	0.864815	-0.875702
C21	C	-0.691921	0.982963	-0.895076
C22	C	-0.951516	1.389344	-0.919250
C23	C	-1.065830	1.374883	-0.933837
C24	C	-1.124745	1.430970	-0.877732
C25	C	-1.242895	1.416025	-0.892807
C26	C	-0.416108	1.457553	-0.851212
C27	C	-0.301807	1.472120	-0.836693
C28	C	-0.684229	1.423465	-1.198323
C29	C	-0.684184	1.423506	-1.331723
C30	C	-0.718463	1.691611	-0.929348
C31	C	-0.733007	1.805921	-0.948127
C32	C	-0.684368	1.423340	-0.573458
C33	C	-0.684148	1.423535	-0.440055
H34	H	-0.617765	0.827770	-0.799358
H35	H	-1.279922	1.356942	-0.952011
Br36	Br	-1.240106	1.570613	-0.738032
H37	H	-0.576666	1.004816	-0.746292
H38	H	-0.751061	1.020005	-0.971434
H39	H	-1.102862	1.315804	-0.993037
Br40	Br	-0.831574	0.867656	-1.075393
Br41	Br	-1.063036	1.529460	-0.779078
