data_functionalizedCrystal
_audit_creation_method	'MofGen! by Chris Wilmer'
_symmetry_space_group_name_H-M	'P1'
_symmetry_Int_Tables_number	1
_symmetry_cell_setting	triclinic
loop_
_symmetry_equiv_pos_as_xyz
  x,y,z
_cell_length_a	19.805407
_cell_length_b	19.805405
_cell_length_c	19.805399
_cell_angle_alpha	90.026615
_cell_angle_beta	90.017803
_cell_angle_gamma	90.024042
loop_
_atom_site_label
_atom_site_type_symbol
_atom_site_fract_x
_atom_site_fract_y
_atom_site_fract_z
Zn1	Zn	1.034734	-0.269527	0.382692
Zn2	Zn	1.034648	-0.382716	0.269506
Zn3	Zn	0.921549	-0.269541	0.269520
Zn4	Zn	0.921512	-0.382674	0.382656
O5	O	0.978111	-0.326115	0.326094
O6	O	1.129439	-0.284554	0.367687
O7	O	1.019625	-0.367726	0.174791
O8	O	0.936615	-0.174822	0.284554
O9	O	1.129376	-0.367713	0.284529
O10	O	1.019771	-0.174813	0.367701
O11	O	0.936531	-0.284576	0.174802
O12	O	0.826827	-0.284536	0.284519
O13	O	0.936551	-0.367642	0.477378
O14	O	0.826800	-0.367655	0.367639
O15	O	1.019735	-0.284514	0.477404
O16	O	1.019589	-0.477427	0.284494
O17	O	0.936468	-0.477396	0.367625
C18	C	0.802255	-0.326093	0.326077
C19	C	0.727023	-0.326101	0.326086
C20	C	0.978034	-0.501971	0.326069
C21	C	0.978063	-0.577203	0.326081
C22	C	0.691712	-0.282876	0.369452
C23	C	0.621024	-0.282880	0.369455
C24	C	0.585647	-0.326112	0.326094
C25	C	0.620963	-0.369338	0.282724
C26	C	0.691650	-0.369330	0.282718
C27	C	0.335890	-0.369368	0.282744
C28	C	0.265197	-0.369374	0.282755
C29	C	0.265263	-0.282918	0.369481
C30	C	0.335950	-0.282910	0.369476
C31	C	0.371260	-0.326134	0.326103
C32	C	0.447908	-0.326128	0.326099
C33	C	0.509000	-0.326121	0.326100
C34	C	1.021337	-0.612483	0.369410
C35	C	1.021361	-0.683172	0.369422
C36	C	0.978114	-0.718578	0.326103
C37	C	0.934835	-0.683292	0.282772
C38	C	0.934808	-0.612605	0.282763
C39	C	0.934944	-0.968366	0.282807
C40	C	0.934976	-1.039058	0.282817
C41	C	1.021497	-1.038932	0.369466
C42	C	1.021470	-0.968245	0.369457
C43	C	0.978189	-0.932965	0.326129
C44	C	0.978162	-0.856317	0.326117
C45	C	0.978144	-0.795225	0.326111
C46	C	1.154653	-0.326136	0.326111
C47	C	1.229885	-0.326146	0.326118
C48	C	0.978149	-0.326072	0.502636
C49	C	0.978165	-0.326054	0.577868
C50	C	0.978207	-0.149572	0.326133
C51	C	0.978247	-0.074340	0.326150
C52	C	0.978112	-0.326108	0.150238
C53	C	0.978227	-0.325936	0.075006
C54	C	1.021480	-0.282766	0.613227
C55	C	1.021487	-0.282747	0.683916
C56	C	0.978182	-0.326018	0.719244
C57	C	0.934862	-0.369308	0.683880
C58	C	0.934852	-0.369323	0.613193
C59	C	0.934900	-0.369244	0.968954
C60	C	0.934915	-0.369227	1.039646
C61	C	1.021535	-0.282668	1.039677
C62	C	1.021525	-0.282684	0.968989
C63	C	0.978203	-0.325970	0.933632
C64	C	0.978195	-0.325990	0.856983
C65	C	0.978193	-0.326002	0.795891
H66	H	0.720511	-0.247674	0.404763
H67	H	0.899648	-0.404465	1.068408
H68	H	0.899600	-0.404538	0.712650
O69	O	1.063273	-0.578122	0.411589
C70	C	1.048455	-0.595381	0.479035
H71	H	0.994388	-0.614855	0.482402
H72	H	1.084748	-0.636372	0.496767
C73	C	1.122682	-0.508637	0.520073
C74	C	1.056274	-0.532550	0.524209
H75	H	1.127508	-0.469881	0.547940
H76	H	1.132668	-0.497010	0.474634
H77	H	1.152919	-0.542802	0.534849
H78	H	1.026040	-0.498388	0.509426
H79	H	1.046283	-0.544170	0.569648
H80	H	0.899574	-0.404565	0.584404
O81	O	1.063613	-0.240586	0.934777
C82	C	1.101857	-0.202385	0.981145
H83	H	1.074144	-0.200027	1.031530
H84	H	1.153252	-0.227174	0.988664
C85	C	1.145683	-0.133251	0.891691
C86	C	1.111642	-0.130350	0.953574
H87	H	1.151722	-0.088817	0.874684
H88	H	1.119919	-0.158989	0.860452
H89	H	1.188508	-0.153912	0.897966
H90	H	1.068815	-0.109698	0.947297
H91	H	1.137399	-0.104607	0.984812
O92	O	1.063549	-0.240634	1.074129
C93	C	1.054285	-0.249904	1.144095
H94	H	1.002040	-0.272061	1.153737
H95	H	1.094415	-0.285948	1.164155
C96	C	1.124701	-0.154197	1.168557
C97	C	1.060530	-0.181405	1.180400
H98	H	1.128556	-0.111945	1.190952
H99	H	1.130945	-0.147952	1.121419
H100	H	1.158136	-0.184240	1.185273
H101	H	1.027097	-0.151366	1.163675
H102	H	1.054280	-0.187643	1.227535
H103	H	0.592277	-0.247684	0.404769
O104	O	1.063307	-0.717468	0.411582
C105	C	1.024773	-0.758374	0.455267
H106	H	0.971452	-0.737118	0.459402
H107	H	1.022478	-0.811964	0.434350
C108	C	1.123299	-0.785487	0.520577
C109	C	1.057811	-0.759377	0.525660
H110	H	1.143679	-0.786109	0.563998
H111	H	1.149261	-0.757930	0.491144
H112	H	1.121378	-0.830143	0.503144
H113	H	1.059733	-0.714720	0.543085
H114	H	1.031850	-0.786926	0.555098
H115	H	0.364750	-0.247709	0.404786
O116	O	0.892790	-0.411347	0.934718
C117	C	0.854556	-0.449518	0.981060
H118	H	0.882295	-0.451868	1.031446
H119	H	0.803174	-0.424707	0.988588
C120	C	0.810658	-0.518667	0.891562
C121	C	0.844731	-0.521558	0.953446
H122	H	0.804594	-0.563105	0.874528
H123	H	0.836414	-0.492949	0.860340
H124	H	0.767844	-0.497989	0.897844
H125	H	0.887547	-0.542228	0.947161
H126	H	0.818981	-0.547281	0.984667
O127	O	0.586569	-0.411405	0.240700
C128	C	0.545671	-0.455166	0.279161
H129	H	0.566995	-0.459415	0.332460
H130	H	0.492106	-0.434248	0.281536
C131	C	0.518360	-0.520267	0.180506
C132	C	0.544553	-0.525490	0.245967
H133	H	0.517667	-0.563646	0.160030
H134	H	0.545912	-0.490784	0.154593
H135	H	0.473725	-0.502833	0.182494
H136	H	0.589190	-0.542916	0.243978
H137	H	0.517009	-0.554978	0.271879
O138	O	1.063438	-1.073237	0.411633
C139	C	1.024891	-1.114140	0.455310
H140	H	0.971573	-1.092876	0.459440
H141	H	1.022590	-1.167727	0.434389
C142	C	1.123404	-1.141275	0.520630
C143	C	1.057919	-1.115154	0.525707
H144	H	1.143778	-1.141904	0.564054
H145	H	1.149375	-1.113720	0.491203
H146	H	1.121478	-1.185929	0.503193
H147	H	1.059847	-1.070499	0.543136
H148	H	1.031950	-1.142702	0.555139
H149	H	0.236506	-0.247721	0.404795
O150	O	0.230936	-0.411390	0.240565
C151	C	0.277258	-0.449550	0.202292
H152	H	0.327655	-0.421820	0.199991
H153	H	0.284770	-0.500990	0.226981
C154	C	0.187734	-0.493266	0.133067
C155	C	0.249631	-0.459204	0.130237
H156	H	0.170692	-0.499224	0.088620
H157	H	0.156525	-0.467559	0.158853
H158	H	0.194002	-0.536128	0.153644
H159	H	0.243360	-0.416339	0.109668
H160	H	0.280838	-0.484904	0.104445
O161	O	0.725848	-0.411385	0.240573
C162	C	0.679468	-0.449534	0.202292
H163	H	0.629090	-0.451920	0.230015
H164	H	0.671938	-0.424682	0.150931
C165	C	0.768906	-0.518626	0.158357
C166	C	0.707032	-0.521560	0.192410
H167	H	0.785908	-0.563054	0.152258
H168	H	0.800153	-0.492923	0.184146
H169	H	0.762622	-0.497912	0.115560
H170	H	0.713317	-0.542265	0.235210
H171	H	0.675785	-0.547268	0.166629
H172	H	0.364630	-0.404564	0.247428
H173	H	1.056688	-0.939419	0.404730
H174	H	0.899756	-1.067884	0.247540
O175	O	0.892815	-0.934178	0.240745
C176	C	0.825352	-0.951489	0.255483
H177	H	0.823955	-1.002795	0.281514
H178	H	0.802511	-0.911701	0.290248
C179	C	0.786118	-0.891824	0.157486
C180	C	0.784401	-0.954842	0.189452
H181	H	0.760856	-0.893889	0.116756
H182	H	0.831568	-0.880159	0.147557
H183	H	0.767084	-0.858674	0.186464
H184	H	0.803442	-0.987989	0.160478
H185	H	0.738953	-0.966512	0.199375
O186	O	0.892761	-0.717579	0.240670
C187	C	0.854571	-0.671279	0.202413
H188	H	0.852191	-0.620877	0.230130
H189	H	0.879384	-0.663770	0.151029
C190	C	0.785474	-0.760836	0.158554
C191	C	0.782546	-0.698933	0.192598
H192	H	0.741047	-0.777895	0.152497
H193	H	0.811205	-0.792030	0.184326
H194	H	0.806155	-0.754570	0.115738
H195	H	0.761873	-0.705201	0.235417
H196	H	0.756810	-0.667740	0.166834
O197	O	1.063629	-0.240679	0.718159
C198	C	1.101841	-0.202482	0.671820
H199	H	1.104160	-0.230219	0.621426
H200	H	1.077086	-0.151073	0.664308
C201	C	1.171040	-0.158668	0.761316
C202	C	1.173893	-0.192738	0.699423
H203	H	1.215484	-0.152654	0.778344
H204	H	1.145295	-0.184399	0.792536
H205	H	1.150408	-0.115830	0.755048
H206	H	1.194516	-0.235577	0.705693
H207	H	1.199643	-0.167013	0.668204
H208	H	1.056746	-0.247532	0.584468
H209	H	0.899569	-0.583880	0.247482
