data_functionalizedCrystal
_audit_creation_method	'MofGen! by Chris Wilmer'
_symmetry_space_group_name_H-M	'P1'
_symmetry_Int_Tables_number	1
_symmetry_cell_setting	triclinic
loop_
_symmetry_equiv_pos_as_xyz
  x,y,z
_cell_length_a	19.077115
_cell_length_b	12.759394
_cell_length_c	19.077174
_cell_angle_alpha	92.276241
_cell_angle_beta	85.484425
_cell_angle_gamma	87.710368
loop_
_atom_site_label
_atom_site_type_symbol
_atom_site_fract_x
_atom_site_fract_y
_atom_site_fract_z
Zn1	Zn	1.093769	-0.510483	-0.441856
Zn2	Zn	1.593769	-0.010483	0.058144
Zn3	Zn	1.088976	-0.678821	-0.323976
Zn4	Zn	1.588976	-0.178821	0.176024
Zn5	Zn	0.971153	-0.495796	-0.319254
Zn6	Zn	1.471153	0.004204	0.180746
Zn7	Zn	0.975870	-0.678753	-0.437096
Zn8	Zn	1.475870	-0.178753	0.062904
O9	O	1.032442	-0.590963	-0.380545
O10	O	1.532442	-0.090963	0.119455
O11	O	1.191784	-0.538988	-0.430187
O12	O	1.691784	-0.038988	0.069813
O13	O	1.069366	-0.648425	-0.224700
O14	O	1.569366	-0.148425	0.275300
O15	O	0.987450	-0.350726	-0.335533
O16	O	1.487450	0.149274	0.164467
O17	O	1.188262	-0.662666	-0.343582
O18	O	1.688262	-0.162666	0.156418
O19	O	1.077536	-0.361516	-0.425608
O20	O	1.577536	0.138484	0.074392
O21	O	0.982802	-0.513957	-0.221231
O22	O	1.482802	-0.013957	0.278769
O23	O	0.873128	-0.513891	-0.330918
O24	O	1.373128	-0.013891	0.169082
O25	O	0.995490	-0.662549	-0.536377
O26	O	1.495490	-0.162549	-0.036377
O27	O	0.876593	-0.648308	-0.417495
O28	O	1.376593	-0.148308	0.082505
O29	O	1.082110	-0.538922	-0.539874
O30	O	1.582110	-0.038922	-0.039874
O31	O	1.073940	-0.825830	-0.338966
O32	O	1.573940	-0.325830	0.161034
O33	O	0.990842	-0.825780	-0.422074
O34	O	1.490842	-0.325780	0.077926
C35	C	0.849281	-0.579499	-0.373178
C36	C	1.349281	-0.079499	0.126822
C37	C	0.770925	-0.574621	-0.370043
C38	C	1.270925	-0.074621	0.129957
C39	C	0.329667	-0.539589	-0.347563
C40	C	0.829667	-0.039589	0.152437
C41	C	0.403292	-0.544178	-0.350513
C42	C	0.903292	-0.044178	0.149487
C43	C	0.441921	-0.616563	-0.396991
C44	C	0.941921	-0.116563	0.103009
C45	C	0.406923	-0.684355	-0.440527
C46	C	0.906923	-0.184355	0.059473
C47	C	0.333300	-0.679760	-0.437580
C48	C	0.833300	-0.179760	0.062420
C49	C	0.662305	-0.637817	-0.410632
C50	C	1.162305	-0.137817	0.089368
C51	C	0.735932	-0.642410	-0.413574
C52	C	1.235932	-0.142410	0.086426
C53	C	0.732296	-0.502231	-0.323560
C54	C	1.232296	-0.002231	0.176440
C55	C	0.658672	-0.497647	-0.320615
C56	C	1.158672	0.002353	0.179385
C57	C	0.623680	-0.565435	-0.364154
C58	C	1.123680	-0.065435	0.135846
N59	N	0.517177	-0.621258	-0.400005
N60	N	1.017177	-0.121258	0.099995
N61	N	0.548426	-0.560734	-0.361142
N62	N	1.048426	-0.060734	0.138858
C63	C	1.032402	-0.863927	-0.380532
C64	C	1.532402	-0.363927	0.119468
C65	C	1.032451	-0.980708	-0.380553
C66	C	1.532451	-0.480708	0.119447
C67	C	1.126192	-0.991786	-0.474413
C68	C	1.626192	-0.491786	0.025587
C69	C	1.173086	-1.052187	-0.521349
C70	C	1.673086	-0.552187	-0.021349
C71	C	1.173128	-1.161912	-0.521366
C72	C	1.673128	-0.661912	-0.021366
C73	C	1.126271	-1.211238	-0.474443
C74	C	1.626271	-0.711238	0.025557
C75	C	1.079378	-1.150837	-0.427507
C76	C	1.579378	-0.650837	0.072493
C77	C	1.079342	-1.041110	-0.427494
C78	C	1.579342	-0.541110	0.072506
C79	C	0.985634	-1.139759	-0.333651
C80	C	1.485634	-0.639759	0.166349
C81	C	0.985593	-1.030034	-0.333630
C82	C	1.485593	-0.530034	0.166370
C83	C	0.938776	-1.189085	-0.286728
C84	C	1.438776	-0.689085	0.213272
C85	C	0.891885	-1.128684	-0.239788
C86	C	1.391885	-0.628684	0.260212
C87	C	0.891845	-1.018952	-0.239772
C88	C	1.391845	-0.518952	0.260228
C89	C	0.938700	-0.969633	-0.286694
C90	C	1.438700	-0.469633	0.213306
C91	C	1.216318	-0.602473	-0.387942
C92	C	1.716318	-0.102473	0.112058
C93	C	1.294674	-0.607378	-0.391095
C94	C	1.794674	-0.107378	0.108905
C95	C	1.039861	-0.602366	-0.564420
C96	C	1.539861	-0.102366	-0.064420
C97	C	1.043022	-0.607225	-0.642776
C98	C	1.543022	-0.107225	-0.142776
C99	C	1.032501	-0.316935	-0.380575
C100	C	1.532501	0.183065	0.119425
C101	C	1.032527	-0.200161	-0.380587
C102	C	1.532527	0.299839	0.119413
C103	C	0.999440	-0.539499	-0.677781
C104	C	1.499440	-0.039499	-0.177781
C105	C	1.002408	-0.544073	-0.751405
C106	C	1.502408	-0.044073	-0.251405
C107	C	1.048962	-0.616369	-0.790023
C108	C	1.548962	-0.116369	-0.290023
C109	C	1.092546	-0.684102	-0.755013
C110	C	1.592546	-0.184102	-0.255013
C111	C	1.089574	-0.679532	-0.681390
C112	C	1.589574	-0.179532	-0.181390
C113	C	1.062680	-0.637548	-1.010405
C114	C	1.562680	-0.137548	-0.510405
C115	C	1.065650	-0.642111	-1.084033
C116	C	1.565650	-0.142111	-0.584033
C117	C	0.975511	-0.502083	-1.080420
C118	C	1.475511	-0.002083	-0.580420
C119	C	0.972546	-0.497515	-1.006796
C120	C	1.472546	0.002485	-0.506796
C121	C	1.016127	-0.565252	-0.971792
C122	C	1.516127	-0.065252	-0.471792
N123	N	1.051998	-0.621044	-0.865278
N124	N	1.551998	-0.121044	-0.365278
N125	N	1.013087	-0.560581	-0.896538
N126	N	1.513087	-0.060581	-0.396538
C127	C	1.025092	-0.579532	-0.197388
C128	C	1.525092	-0.079532	0.302612
C129	C	1.022068	-0.574385	-0.119038
C130	C	1.522068	-0.074385	0.380962
H131	H	0.633823	-0.693019	-0.446082
H132	H	1.133823	-0.193019	0.053918
H133	H	0.304810	-0.734958	-0.473030
H134	H	0.804810	-0.234958	0.026970
H135	H	1.211306	-1.211091	-0.559593
H136	H	1.711306	-0.711091	-0.059593
N137	N	1.109687	-0.710587	-0.972649
N138	N	1.609687	-0.210587	-0.472649
H139	H	1.079794	-0.755586	-0.940946
H140	H	1.579794	-0.255586	-0.440946
H141	H	1.139627	-0.757010	-1.008325
H142	H	1.639627	-0.257010	-0.508325
N143	N	1.223628	-0.998984	-0.571950
N144	N	1.723628	-0.498984	-0.071950
H145	H	1.253340	-1.053898	-0.601686
H146	H	1.753340	-0.553898	-0.101686
H147	H	1.196210	-0.953700	-0.603393
H148	H	1.696210	-0.453700	-0.103393
N149	N	0.441044	-0.471075	-0.303562
N150	N	0.941044	0.028925	0.196438
H151	H	0.472759	-0.426144	-0.333494
H152	H	0.972759	0.073856	0.166506
H153	H	0.405365	-0.424589	-0.273672
H154	H	0.905365	0.075411	0.226328
N155	N	1.142750	-0.762092	-0.796660
N156	N	1.642750	-0.262092	-0.296660
H157	H	1.138021	-0.754711	-0.848612
H158	H	1.638021	-0.254711	-0.348612
H159	H	1.192584	-0.748101	-0.785819
H160	H	1.692584	-0.248101	-0.285819
N161	N	1.126319	-1.329583	-0.474455
N162	N	1.626319	-0.829583	0.025545
H163	H	1.163137	-1.360362	-0.511307
H164	H	1.663137	-0.860362	-0.011307
H165	H	1.137353	-1.353734	-0.426604
H166	H	1.637353	-0.853734	0.073396
N167	N	0.617008	-0.419578	-0.270483
N168	N	1.117008	0.080422	0.229517
H169	H	0.650348	-0.377329	-0.243352
H170	H	1.150348	0.122671	0.256648
H171	H	0.587633	-0.370904	-0.298012
H172	H	1.087633	0.129096	0.201988
N173	N	1.136578	-0.752585	-0.643633
N174	N	1.636578	-0.252585	-0.143633
H175	H	1.166520	-0.799075	-0.679269
H176	H	1.666520	-0.299075	-0.179269
H177	H	1.167979	-0.709971	-0.614402
H178	H	1.667979	-0.209971	-0.114402
N179	N	0.928499	-0.429044	-1.118176
N180	N	1.428499	0.070956	-0.618176
H181	H	0.898555	-0.382554	-1.082539
H182	H	1.398555	0.117446	-0.582539
H183	H	0.958435	-0.384113	-1.149884
H184	H	1.458435	0.115887	-0.649884
H185	H	0.853735	-1.168854	-0.201590
H186	H	1.353735	-0.668854	0.298410
H187	H	0.938812	-1.278430	-0.286748
H188	H	1.438812	-0.778430	0.213252
H189	H	0.298220	-0.480646	-0.309715
H190	H	0.798220	0.019354	0.190285
N191	N	1.126156	-0.873440	-0.474385
N192	N	1.626156	-0.373440	0.025615
H193	H	1.162955	-0.851358	-0.511228
H194	H	1.662955	-0.351358	-0.011228
H195	H	1.078275	-0.844911	-0.485337
H196	H	1.578275	-0.344911	0.014663
N197	N	0.841264	-0.953807	-0.189151
N198	N	1.341264	-0.453807	0.310849
H199	H	0.811589	-1.001708	-0.159432
H200	H	1.311589	-0.501708	0.340568
H201	H	0.868649	-0.908039	-0.157693
H202	H	1.368649	-0.408039	0.342307
H203	H	0.767383	-0.701355	-0.451426
H204	H	1.267383	-0.201355	0.048574
N205	N	0.770036	-0.429118	-0.276604
N206	N	1.270036	0.070882	0.223396
H207	H	0.822537	-0.443009	-0.285522
H208	H	1.322537	0.056991	0.214478
H209	H	0.757624	-0.353995	-0.287152
H210	H	1.257624	0.146005	0.212848
H211	H	0.438381	-0.743288	-0.478373
H212	H	0.938381	-0.243288	0.021627
N213	N	0.949227	-0.461528	-0.636128
N214	N	1.449227	0.038472	-0.136128
H215	H	0.976654	-0.412738	-0.606741
H216	H	1.476654	0.087262	-0.106741
H217	H	0.922077	-0.419391	-0.669519
H218	H	1.422077	0.080609	-0.169519
H219	H	0.938675	-0.880290	-0.286683
H220	H	1.438675	-0.380290	0.213317
H221	H	1.103563	-0.700984	-1.115474
H222	H	1.603563	-0.200984	-0.615474
N223	N	0.955400	-0.471030	-0.789161
N224	N	1.455400	0.028970	-0.289161
H225	H	0.925460	-0.424534	-0.753526
H226	H	1.425460	0.075466	-0.253526
H227	H	0.985339	-0.426106	-0.820871
H228	H	1.485339	0.073894	-0.320871
H229	H	0.934635	-0.438647	-0.975358
H230	H	1.434635	0.061353	-0.475358
