data_functionalizedCrystal
_audit_creation_method	'MofGen! by Chris Wilmer'
_symmetry_space_group_name_H-M	'P1'
_symmetry_Int_Tables_number	1
_symmetry_cell_setting	triclinic
loop_
_symmetry_equiv_pos_as_xyz
  x,y,z
_cell_length_a	16.992694
_cell_length_b	16.992700
_cell_length_c	7.540329
_cell_angle_alpha	89.989176
_cell_angle_beta	90.002664
_cell_angle_gamma	90.667698
loop_
_atom_site_label
_atom_site_type_symbol
_atom_site_fract_x
_atom_site_fract_y
_atom_site_fract_z
O1	O	1.050847	0.166915	-0.147307
O2	O	0.822447	0.165084	-0.147359
O3	O	0.935733	0.051800	-0.147288
O4	O	0.937562	0.280200	-0.147378
O5	O	0.935726	0.051798	0.147677
O6	O	0.822440	0.165082	0.147606
O7	O	1.050840	0.166913	0.147658
Cu8	Cu	0.936639	0.165998	0.174565
Cu9	Cu	0.936648	0.166000	-0.174266
O10	O	0.937555	0.280198	0.147587
C11	C	0.793084	0.162727	0.000118
C12	C	0.705599	0.155699	0.000100
C13	C	0.659608	0.223517	0.000075
C14	C	0.577407	0.216908	0.000102
C15	C	0.541199	0.142480	0.000142
C16	C	0.587197	0.074657	0.000172
C17	C	0.669396	0.081267	0.000158
C18	C	0.295885	0.115086	0.000200
C19	C	0.213680	0.108481	0.000209
C20	C	0.203896	0.250732	0.000142
C21	C	0.286097	0.257335	0.000117
C22	C	0.332087	0.189512	0.000157
N23	N	0.457177	0.135723	0.000164
N24	N	0.416108	0.196270	0.000147
C25	C	0.933374	0.022439	0.000202
C26	C	0.926346	-0.065046	0.000223
C27	C	0.879124	-0.556965	0.000051
C28	C	0.885734	-0.474764	0.000070
C29	C	0.960162	-0.438557	0.000111
C30	C	1.027984	-0.484555	0.000115
C31	C	1.021374	-0.566754	0.000083
C32	C	0.987558	-0.193243	0.000196
C33	C	0.994163	-0.111038	0.000233
C34	C	0.851912	-0.101253	0.000184
C35	C	0.845308	-0.183454	0.000163
C36	C	0.913131	-0.229445	0.000158
N37	N	0.966919	-0.354535	0.000136
N38	N	0.906372	-0.313465	0.000121
C39	C	1.080204	0.169270	0.000177
C40	C	1.167688	0.176299	0.000184
C41	C	0.939914	0.309559	0.000094
C42	C	0.946942	0.397043	0.000060
N43	N	0.936639	0.165996	0.419913
N44	N	0.936654	0.165996	-0.419614
H45	H	0.166442	0.305950	0.000113
H46	H	0.184203	0.047870	0.000239
C47	C	0.705362	-0.165521	0.000108
C48	C	0.763494	-0.223250	0.000115
H49	H	0.654855	-0.190092	0.000075
H50	H	0.710894	-0.133680	0.102973
H51	H	0.710908	-0.133648	-0.102749
H52	H	0.757952	-0.255119	0.102980
H53	H	0.757960	-0.255104	-0.102761
C54	C	1.134116	-0.128963	0.000212
C55	C	1.075981	-0.071238	0.000242
H56	H	1.184623	-0.104390	0.000204
H57	H	1.128586	-0.160833	0.103057
H58	H	1.128572	-0.160807	-0.102666
H59	H	1.081521	-0.039397	0.103127
H60	H	1.081513	-0.039354	-0.102613
H61	H	0.706842	0.026042	0.000177
C62	C	0.776831	-0.003118	-0.151455
C63	C	0.777364	-0.050699	0.000165
H64	H	0.730803	0.028088	-0.151474
H65	H	0.822097	0.030207	-0.151407
H66	H	0.777220	-0.035382	-0.254312
H67	H	0.776982	-0.018434	0.103023
H68	H	0.732086	-0.084027	0.000133
H69	H	1.042784	-0.230679	0.000203
H70	H	0.333321	0.059859	0.000234
C71	C	0.465538	0.001362	0.000207
C72	C	0.547399	-0.007156	0.000212
H73	H	0.440971	-0.049148	0.000217
H74	H	0.450063	0.029496	0.103051
H75	H	0.450060	0.029504	-0.102672
H76	H	0.562877	-0.035293	0.103098
H77	H	0.562880	-0.035303	-0.102643
C78	C	0.479297	0.292006	0.151696
C79	C	0.526850	0.291454	0.000058
H80	H	0.448089	0.338033	0.151668
H81	H	0.445975	0.246739	0.151720
H82	H	0.511581	0.291636	0.254540
H83	H	0.494566	0.291818	-0.102788
H84	H	0.560175	0.336733	0.000017
H85	H	0.315571	0.317942	0.000064
H86	H	0.689081	0.284123	0.000041
H87	H	0.830509	-0.437320	0.000056
C88	C	1.151262	-0.467624	0.151780
C89	C	1.109800	-0.444763	0.000150
H90	H	1.201775	-0.443063	0.151793
H91	H	1.123121	-0.452151	0.254619
H92	H	1.157022	-0.523162	0.151742
H93	H	1.104035	-0.389225	0.000195
H94	H	1.137949	-0.460231	-0.102716
H95	H	1.076598	-0.604200	0.000084
H96	H	0.818517	-0.586438	0.000038
