data_functionalizedCrystal
_audit_creation_method	'MofGen! by Chris Wilmer'
_symmetry_space_group_name_H-M	'P1'
_symmetry_Int_Tables_number	1
_symmetry_cell_setting	triclinic
loop_
_symmetry_equiv_pos_as_xyz
  x,y,z
_cell_length_a	18.101395
_cell_length_b	18.101398
_cell_length_c	18.101389
_cell_angle_alpha	90.026909
_cell_angle_beta	89.983159
_cell_angle_gamma	89.976925
loop_
_atom_site_label
_atom_site_type_symbol
_atom_site_fract_x
_atom_site_fract_y
_atom_site_fract_z
Zn1	Zn	-0.295066	-1.132121	-0.418898
Zn2	Zn	-0.418892	-1.132017	-0.295060
Zn3	Zn	-0.295051	-1.008280	-0.295053
Zn4	Zn	-0.418853	-1.008231	-0.418843
O5	O	-0.356965	-1.070162	-0.356963
O6	O	-0.311514	-1.235740	-0.402496
O7	O	-0.402474	-1.115580	-0.191426
O8	O	-0.191420	-1.024772	-0.311502
O9	O	-0.402488	-1.235664	-0.311513
O10	O	-0.191431	-1.115757	-0.402490
O11	O	-0.311489	-1.024671	-0.191421
O12	O	-0.311451	-0.904641	-0.311449
O13	O	-0.402422	-1.024688	-0.522483
O14	O	-0.402408	-0.904604	-0.402396
O15	O	-0.311476	-1.115710	-0.522523
O16	O	-0.522519	-1.115532	-0.311459
O17	O	-0.522491	-1.024587	-0.402402
C18	C	-0.356924	-0.877752	-0.356916
C19	C	-0.356924	-0.795437	-0.356913
C20	C	-0.549376	-1.070063	-0.356942
C21	C	-0.631690	-1.070088	-0.356957
C22	C	-0.356953	-0.496347	-0.356962
C23	C	-0.299442	-0.527670	-0.300021
C24	C	-0.299601	-0.613288	-0.299782
C25	C	-0.356938	-0.644729	-0.356938
C26	C	-0.434945	-0.613611	-0.335614
C27	C	-0.434620	-0.527966	-0.335214
C28	C	-0.337139	-0.527961	-0.435362
C29	C	-0.335407	-0.613612	-0.434938
C30	C	-0.356935	-0.728589	-0.356926
C31	C	-0.356962	-0.412487	-0.356973
C32	C	-0.930781	-1.070251	-0.356997
C33	C	-0.899469	-1.013163	-0.414358
C34	C	-0.813851	-1.012892	-0.414178
C35	C	-0.782398	-1.070170	-0.356978
C36	C	-0.813532	-1.049041	-0.278925
C37	C	-0.899178	-1.048673	-0.279269
C38	C	-0.899139	-1.148593	-0.377002
C39	C	-0.813488	-1.148132	-0.378713
C40	C	-0.698539	-1.070126	-0.356962
C41	C	-1.014640	-1.070293	-0.357007
C42	C	-0.163803	-1.070282	-0.357002
C43	C	-0.081489	-1.070333	-0.357018
C44	C	-0.356947	-1.070205	-0.550125
C45	C	-0.356939	-1.070223	-0.632440
C46	C	-0.356993	-0.263324	-0.357000
C47	C	-0.356967	-0.345638	-0.356987
C48	C	-0.356800	-1.070266	-0.931531
C49	C	-0.413838	-1.012801	-0.900180
C50	C	-0.414103	-1.012956	-0.814562
C51	C	-0.356869	-1.070244	-0.783148
C52	C	-0.378064	-1.148270	-0.814258
C53	C	-0.378438	-1.147949	-0.899903
C54	C	-0.278439	-1.050385	-0.899952
C55	C	-0.278892	-1.048649	-0.814301
C56	C	-0.356906	-1.070237	-0.699289
C57	C	-0.356764	-1.070279	-1.015390
C58	C	-0.356931	-1.070162	-0.164553
C59	C	-0.356730	-1.070287	-0.082239
H60	H	-0.241756	-0.634329	-0.313148
H61	H	-0.400710	-0.954768	-0.920763
H62	H	-0.472186	-1.026082	-0.794081
H63	H	-0.921045	-0.955448	-0.401273
H64	H	-0.471567	-1.025796	-0.921708
C65	C	-0.457315	-0.500929	-0.257783
N66	N	-0.474406	-0.480568	-0.199458
C67	C	-0.926242	-0.971306	-0.256382
N68	N	-0.946623	-0.913030	-0.239146
H69	H	-0.435721	-1.164804	-0.919889
H70	H	-0.241417	-0.507099	-0.313238
C71	C	-0.387882	-0.642522	-0.495328
N72	N	-0.427413	-0.664296	-0.540812
H73	H	-0.338698	-1.192217	-0.920644
H74	H	-0.478921	-0.507244	-0.374879
H75	H	-0.259131	-0.994478	-0.921535
H76	H	-0.792137	-0.992380	-0.261677
H77	H	-0.312392	-0.506120	-0.242265
H78	H	-0.792075	-1.192915	-0.339981
H79	H	-0.235943	-1.092240	-0.920229
C80	C	-0.393726	-0.500592	-0.492680
N81	N	-0.436349	-0.479972	-0.535846
H82	H	-0.312701	-0.633741	-0.241690
C83	C	-0.257851	-0.641086	-0.456657
N84	N	-0.199435	-0.661782	-0.473012
C85	C	-0.454630	-1.171432	-0.785299
N86	N	-0.512303	-1.188874	-0.763490
H87	H	-0.792799	-1.026111	-0.472053
H88	H	-0.919387	-1.191125	-0.335224
C89	C	-0.786005	-1.103441	-0.219610
N90	N	-0.765269	-1.144415	-0.174933
C91	C	-0.323708	-1.207669	-0.786769
N92	N	-0.282767	-1.252408	-0.766062
C93	C	-0.928262	-1.174615	-0.452586
N94	N	-0.950197	-1.194206	-0.509519
H95	H	-0.262909	-0.991229	-0.793966
H96	H	-0.234138	-1.087450	-0.792917
C97	C	-0.494392	-0.641132	-0.389883
N98	N	-0.539167	-0.661865	-0.430757
C99	C	-0.458044	-0.642533	-0.259020
N100	N	-0.475438	-0.664315	-0.201327
C101	C	-0.261625	-0.498826	-0.461548
N102	N	-0.204743	-0.476883	-0.481262
H103	H	-0.793417	-0.954823	-0.400927
C104	C	-0.927165	-1.102400	-0.219555
N105	N	-0.948241	-1.142862	-0.174575
C106	C	-0.927250	-1.030839	-0.492799
N107	N	-0.948182	-1.044152	-0.551882
H108	H	-0.793138	-1.164065	-0.436156
C109	C	-0.396181	-0.934791	-0.786142
N110	N	-0.382685	-0.875913	-0.764739
