data_functionalizedCrystal
_audit_creation_method	'MofGen! by Chris Wilmer'
_symmetry_space_group_name_H-M	'P1'
_symmetry_Int_Tables_number	1
_symmetry_cell_setting	triclinic
loop_
_symmetry_equiv_pos_as_xyz
  x,y,z
_cell_length_a	14.853558
_cell_length_b	14.853569
_cell_length_c	14.048226
_cell_angle_alpha	89.992399
_cell_angle_beta	89.994068
_cell_angle_gamma	83.633349
loop_
_atom_site_label
_atom_site_type_symbol
_atom_site_fract_x
_atom_site_fract_y
_atom_site_fract_z
O1	O	1.196373	0.117666	-0.079152
O2	O	0.933912	0.131696	-0.079156
O3	O	1.072153	-0.006549	-0.079145
O4	O	1.058133	0.255911	-0.079163
O5	O	1.072136	-0.006557	0.079177
O6	O	0.933896	0.131688	0.079165
O7	O	1.196356	0.117658	0.079170
Zn8	Zn	1.065123	0.124672	0.104304
Zn9	Zn	1.065145	0.124683	-0.104291
O10	O	1.058116	0.255903	0.079158
C11	C	0.900315	0.131058	0.000004
C12	C	0.800231	0.129158	0.000002
C13	C	1.071509	-0.040141	0.000016
C14	C	1.069604	-0.140225	0.000017
C15	C	0.753220	0.128271	-0.086302
C16	C	0.753200	0.128251	0.086306
C17	C	0.659166	0.126461	0.086308
C18	C	0.612155	0.125574	0.000003
C19	C	0.659178	0.126477	-0.086303
C20	C	0.612138	0.125548	0.172612
C21	C	0.518099	0.123756	0.172617
C22	C	0.471085	0.122876	0.086312
C23	C	0.518113	0.123780	0.000002
C24	C	0.471102	0.122894	-0.086302
C25	C	0.518128	0.123805	-0.172613
C26	C	0.612164	0.125597	-0.172609
C27	C	0.377049	0.121084	0.086307
C28	C	0.377060	0.121100	-0.086303
C29	C	0.986593	-0.176599	0.000017
C30	C	1.150826	-0.197894	0.000010
C31	C	1.149040	-0.291928	0.000006
C32	C	1.066029	-0.328302	0.000006
C33	C	0.984804	-0.270641	0.000010
C34	C	1.230263	-0.349595	-0.000008
C35	C	1.228480	-0.443635	-0.000013
C36	C	1.145468	-0.480011	-0.000006
C37	C	1.064240	-0.422344	-0.000001
C38	C	0.981229	-0.458718	-0.000001
C39	C	0.900000	-0.401053	0.000011
C40	C	0.901792	-0.307017	0.000017
C41	C	1.143675	-0.574047	-0.000012
C42	C	0.979439	-0.552760	-0.000008
C43	C	1.229953	0.118296	0.000008
C44	C	1.330038	0.120197	0.000003
C45	C	1.058760	0.289496	-0.000005
C46	C	1.060664	0.389579	-0.000012
N47	N	1.065115	0.124664	0.246665
N48	N	1.065161	0.124683	-0.246652
C49	C	1.126347	0.063474	0.296488
C50	C	1.126353	0.063474	0.396146
C51	C	1.065131	0.124668	0.445979
C52	C	1.003892	0.185860	0.396148
C53	C	1.003882	0.185856	0.296493
C54	C	1.003918	0.185867	0.603863
C55	C	1.003929	0.185873	0.703525
C56	C	1.126389	0.063485	0.703516
C57	C	1.126379	0.063480	0.603860
C58	C	1.065141	0.124674	0.554037
H59	H	0.338790	0.120384	-0.156584
N60	N	0.814189	-0.244821	0.000012
H61	H	0.761329	-0.282129	0.000012
H62	H	0.811349	-0.205345	0.058702
N63	N	0.898985	-0.114412	0.000055
H64	H	0.912709	-0.049319	0.000068
H65	H	0.862803	-0.126180	-0.058631
H66	H	1.218411	-0.168272	0.000029
H67	H	1.294622	-0.490579	-0.000021
H68	H	0.954049	0.235695	0.563300
H69	H	0.479840	0.123078	-0.242882
H70	H	0.479819	0.123013	0.242897
H71	H	1.176235	0.013656	0.563287
H72	H	1.297847	-0.319972	0.000051
N73	N	0.937834	0.251852	0.242756
H74	H	0.948291	0.315860	0.260081
H75	H	0.947145	0.242485	0.172081
N76	N	0.937857	0.251856	0.449899
H77	H	0.972358	0.291840	0.491228
H78	H	0.899077	0.290558	0.403154
H79	H	0.650461	0.126337	-0.242878
N80	N	0.810473	-0.440298	0.000015
H81	H	0.774881	-0.419298	0.058710
H82	H	0.774952	-0.419259	-0.058708
N83	N	0.803930	0.129244	-0.179393
H84	H	0.780323	0.184777	-0.217124
H85	H	0.870625	0.130481	-0.166225
H86	H	1.209811	-0.620993	-0.000031
H87	H	0.791483	0.128966	0.156571
H88	H	0.650422	0.126262	0.242877
H89	H	0.911841	-0.582368	0.000001
H90	H	0.338764	0.120350	0.156580
H91	H	1.176205	0.013647	0.255921
N92	N	1.192427	-0.002492	0.449885
H93	H	1.231224	-0.041244	0.403194
H94	H	1.232308	0.032135	0.491199
N95	N	1.192442	-0.002517	0.757246
H96	H	1.183158	0.006767	0.827940
H97	H	1.181955	-0.066494	0.739839
H98	H	0.954074	0.235702	0.744094
