data_functionalizedCrystal
_audit_creation_method	'MofGen! by Chris Wilmer'
_symmetry_space_group_name_H-M	'P1'
_symmetry_Int_Tables_number	1
_symmetry_cell_setting	triclinic
loop_
_symmetry_equiv_pos_as_xyz
  x,y,z
_cell_length_a	16.992694
_cell_length_b	19.188930
_cell_length_c	15.455313
_cell_angle_alpha	92.650876
_cell_angle_beta	87.142206
_cell_angle_gamma	86.906503
loop_
_atom_site_label
_atom_site_type_symbol
_atom_site_fract_x
_atom_site_fract_y
_atom_site_fract_z
O1	O	1.043326	0.145160	-0.072038
O2	O	0.815047	0.143535	-0.072064
O3	O	0.935773	0.043078	-0.072033
O4	O	0.922600	0.245617	-0.072069
O5	O	0.928870	0.048798	0.072227
O6	O	0.808144	0.149255	0.072197
O7	O	1.036422	0.150879	0.072222
Cu8	Cu	0.921653	0.150589	0.085382
Cu9	Cu	0.929817	0.143825	-0.085223
O10	O	0.915696	0.251336	0.072192
C11	C	0.782390	0.144306	0.000064
C12	C	0.695368	0.138072	0.000055
C13	C	0.644922	0.198212	0.000045
C14	C	0.563155	0.192351	0.000058
C15	C	0.531836	0.126351	0.000075
C16	C	0.582288	0.066208	0.000087
C17	C	0.664053	0.072069	0.000080
C18	C	0.288320	0.102059	0.000102
C19	C	0.206548	0.096203	0.000106
C20	C	0.187420	0.222347	0.000079
C21	C	0.269188	0.228202	0.000067
C22	C	0.319633	0.168059	0.000084
N23	N	0.448257	0.120360	0.000085
N24	N	0.403210	0.174051	0.000079
C25	C	0.931895	0.019902	0.000099
C26	C	0.930614	-0.057677	0.000107
C27	C	1.001452	-0.098455	0.000119
C28	C	1.000250	-0.171350	0.000105
C29	C	0.928204	-0.203463	0.000096
C30	C	0.857356	-0.162676	0.000079
C31	C	0.858561	-0.089783	0.000085
N32	N	0.870784	-0.312744	0.049185
N33	N	0.869644	-0.381990	0.049181
C34	C	0.924569	-0.423085	0.000078
N35	N	0.980688	-0.392319	-0.049011
N36	N	0.981830	-0.323067	-0.049004
C37	C	0.926889	-0.282503	0.000090
C38	C	0.994108	-0.542904	0.000074
C39	C	0.992903	-0.615801	0.000054
C40	C	0.850007	-0.607124	0.000038
C41	C	0.851215	-0.534230	0.000048
C42	C	0.923267	-0.502124	0.000070
C43	C	1.069079	0.150109	0.000093
C44	C	1.156102	0.156342	0.000096
C45	C	0.919575	0.274513	0.000057
C46	C	0.920856	0.352092	0.000044
N47	N	0.915916	0.155346	0.205376
N48	N	0.935560	0.139063	-0.205217
C49	C	0.967222	0.112686	0.250783
C50	C	0.962891	0.116291	0.341590
C51	C	0.907257	0.162559	0.386988
C52	C	0.855945	0.205221	0.341574
C53	C	0.860273	0.201613	0.250769
C54	C	0.888576	0.178116	0.658564
C55	C	0.884253	0.181723	0.749376
C56	C	0.991199	0.092792	0.749385
C57	C	0.995525	0.089190	0.658578
C58	C	0.944211	0.131849	0.613173
N59	N	0.902830	0.166246	0.479807
N60	N	0.948634	0.128158	0.520355
H61	H	0.705127	0.023097	0.000088
H62	H	1.060123	-0.072320	0.000134
H63	H	0.294682	0.281946	0.000043
O64	O	0.514109	0.250754	0.000193
C65	C	0.462662	0.254100	0.074898
H66	H	0.490240	0.222154	0.127131
H67	H	0.452073	0.310813	0.099955
H68	H	0.404071	0.232039	0.058017
H69	H	1.012529	0.075013	0.213826
O70	O	0.782448	-0.494534	0.000161
C71	C	0.775285	-0.449172	0.074888
H72	H	0.836305	-0.441036	0.099807
H73	H	0.746701	-0.396741	0.058084
H74	H	0.737057	-0.473057	0.127199
O75	O	0.780008	-0.638282	-0.000126
C76	C	0.740406	-0.620765	-0.074832
H77	H	0.785041	-0.605327	-0.127045
H78	H	0.708405	-0.667724	-0.099921
H79	H	0.695750	-0.575082	-0.057941
H80	H	0.798696	-0.188827	0.000070
H81	H	1.004668	0.081553	0.378560
H82	H	0.846795	0.212852	0.621602
O83	O	1.069135	-0.210867	0.000158
C84	C	1.132989	-0.166900	0.000153
H85	H	1.111597	-0.112587	0.027461
H86	H	1.180599	-0.189342	0.042046
H87	H	1.158404	-0.163217	-0.069051
H88	H	0.800874	-0.056581	0.000075
O89	O	0.810512	0.243156	0.206697
C90	C	0.821942	0.313859	0.228875
H91	H	0.883513	0.318728	0.253828
H92	H	0.815648	0.346010	0.169148
H93	H	0.775908	0.334010	0.281584
O94	O	0.830129	0.226680	0.793343
C95	C	0.785774	0.263568	0.733796
H96	H	0.788078	0.232329	0.669074
H97	H	0.721883	0.271721	0.760042
H98	H	0.811494	0.316480	0.724122
O99	O	1.049590	0.044182	0.614615
C100	C	1.093960	0.007313	0.674166
H101	H	1.058739	0.007285	0.738901
H102	H	1.107364	-0.048803	0.647944
H103	H	1.151655	0.033643	0.683807
H104	H	0.181052	0.042455	0.000119
H105	H	1.052778	-0.516763	0.000088
O106	O	0.801971	0.250150	0.385806
C107	C	0.809140	0.244178	0.475690
H108	H	0.870963	0.222090	0.488091
H109	H	0.798590	0.297923	0.510183
H110	H	0.763663	0.207692	0.501479
H111	H	0.329383	0.053086	0.000117
O112	O	1.061777	-0.655345	-0.000051
C113	C	1.109109	-0.643130	-0.074763
H114	H	1.090861	-0.589955	-0.099669
H115	H	1.173704	-0.643938	-0.057944
H116	H	1.101037	-0.685618	-0.127089
O117	O	0.675209	0.262380	0.000066
C118	C	0.613147	0.314202	0.000040
H119	H	0.556364	0.292616	0.027360
H120	H	0.628081	0.361668	0.041913
H121	H	0.604810	0.330227	-0.069172
O122	O	0.138304	0.280697	0.000108
C123	C	0.059421	0.261375	0.000096
H124	H	0.055170	0.207453	0.027416
H125	H	0.020240	0.301089	0.041975
H126	H	0.039065	0.259959	-0.069112
H127	H	0.556781	0.012469	0.000113
H128	H	1.032976	0.058060	0.786362
