data_functionalizedCrystal
_audit_creation_method	'MofGen! by Chris Wilmer'
_symmetry_space_group_name_H-M	'P1'
_symmetry_Int_Tables_number	1
_symmetry_cell_setting	triclinic
loop_
_symmetry_equiv_pos_as_xyz
  x,y,z
_cell_length_a	15.625950
_cell_length_b	17.038272
_cell_length_c	14.750779
_cell_angle_alpha	76.426773
_cell_angle_beta	120.090508
_cell_angle_gamma	87.507827
loop_
_atom_site_label
_atom_site_type_symbol
_atom_site_fract_x
_atom_site_fract_y
_atom_site_fract_z
O1	O	1.288219	0.023953	0.368446
O2	O	1.004079	0.057086	0.269569
O3	O	1.144462	-0.073175	0.318428
O4	O	1.147836	0.154214	0.319587
O5	O	1.184147	-0.109995	0.491890
O6	O	1.043764	0.020266	0.443031
O7	O	1.327904	-0.012866	0.541908
Zn8	Zn	1.192135	-0.002146	0.520011
Zn9	Zn	1.139848	0.046365	0.291467
O10	O	1.187521	0.117394	0.493049
C11	C	0.987386	0.040821	0.343586
C12	C	0.878520	0.047205	0.305703
C13	C	0.628518	-0.032081	0.653754
C14	C	0.526210	-0.026057	0.618108
C15	C	0.482998	0.014079	0.429024
C16	C	0.585304	0.008062	0.464654
C17	C	0.658057	-0.015020	0.577020
C18	C	0.614842	0.025124	0.387920
C19	C	0.717140	0.019103	0.423547
C20	C	0.789898	-0.003980	0.535909
C21	C	0.760354	-0.021040	0.612647
C22	C	0.542088	0.048200	0.275554
C23	C	0.571627	0.065261	0.198821
C24	C	0.673925	0.059247	0.234448
C25	C	0.746684	0.036164	0.346809
C26	C	0.703470	0.076307	0.157709
C27	C	0.805767	0.070286	0.193337
C28	C	0.848981	0.030143	0.382437
C29	C	1.161233	-0.120490	0.404090
C30	C	1.152068	-0.206618	0.400901
C31	C	1.236213	-0.262841	0.430183
C32	C	1.227593	-0.343764	0.427174
C33	C	1.134829	-0.368463	0.394890
C34	C	1.050677	-0.312233	0.365603
C35	C	1.059296	-0.231310	0.368604
C36	C	1.104380	-0.612008	0.384281
C37	C	1.095768	-0.692938	0.381285
C38	C	1.272684	-0.724463	0.442855
C39	C	1.281296	-0.643539	0.445860
C40	C	1.197143	-0.587314	0.416567
C41	C	1.126017	-0.451180	0.391818
C42	C	1.205954	-0.504598	0.419632
C43	C	1.344597	0.003398	0.467889
C44	C	1.453461	-0.002984	0.505765
C45	C	1.170750	0.164710	0.407385
C46	C	1.179913	0.250839	0.410567
N47	N	1.227826	-0.035255	0.675988
N48	N	1.104164	0.079467	0.135491
C49	C	1.004480	0.171900	0.950073
C50	C	1.029498	0.148705	1.059279
C51	C	1.153838	0.033396	1.102517
C52	C	1.128827	0.056579	0.993312
C53	C	1.054148	0.125833	0.917097
C54	C	1.178495	0.010512	0.960336
C55	C	1.153490	0.033697	0.851140
C56	C	1.078816	0.102949	0.774921
C57	C	1.029143	0.149018	0.807902
C58	C	1.253179	-0.058738	1.036553
C59	C	1.302847	-0.104805	1.003578
C60	C	1.277837	-0.081624	0.894379
C61	C	1.203163	-0.012372	0.818159
C62	C	1.327511	-0.127693	0.861398
C63	C	1.302505	-0.104508	0.752203
C64	C	1.178158	0.010813	0.708964
H65	H	0.829816	0.084184	0.130852
H66	H	1.311752	-0.242739	0.456478
H67	H	0.512379	0.084051	0.107332
O68	O	1.381354	-0.616909	0.480673
H69	H	1.405697	-0.595815	0.554221
O70	O	1.051841	0.127960	0.657143
H71	H	0.971037	0.126939	0.602551
H72	H	1.214645	-0.022990	1.164584
H73	H	0.687758	-0.050865	0.745253
O74	O	0.975919	0.198390	1.094848
H75	H	0.919786	0.250436	1.023502
H76	H	0.458792	0.053105	0.246550
O77	O	1.306001	-0.477955	0.454450
H78	H	1.330591	-0.486026	0.397933
O79	O	1.318352	-0.404411	0.458774
H80	H	1.384308	-0.373644	0.481746
O81	O	1.408058	-0.202383	0.943603
H82	H	1.417100	-0.210766	1.025073
H83	H	0.502166	-0.039935	0.680602
O84	O	1.280160	-0.083751	1.154333
H85	H	1.212551	-0.097018	1.157326
H86	H	1.341196	-0.770249	0.466702
O87	O	0.948594	0.223712	0.725685
H88	H	0.918255	0.251856	0.766957
H89	H	0.644221	0.095092	0.066221
O90	O	1.383389	-0.179500	1.085779
H91	H	1.392430	-0.187887	1.167249
H92	H	1.020229	-0.713047	0.355011
H93	H	1.342952	-0.142021	0.725356
O94	O	1.013625	-0.551376	0.352715
H95	H	0.947681	-0.582153	0.329782
H96	H	0.975145	-0.332348	0.339310
O97	O	0.968544	-0.170665	0.337033
H98	H	0.902594	-0.201437	0.314092
O99	O	1.025973	-0.477831	0.357021
H100	H	1.001643	-0.498942	0.283487
H101	H	1.117339	0.067201	0.646903
H102	H	0.908221	0.011360	0.473936
H103	H	0.943662	0.228289	0.888012
H104	H	0.873195	-0.008882	0.564915
H105	H	0.819594	-0.039823	0.704147
H106	H	0.423750	0.032868	0.337535
