data_functionalizedCrystal
_audit_creation_method	'MofGen! by Chris Wilmer'
_symmetry_space_group_name_H-M	'P1'
_symmetry_Int_Tables_number	1
_symmetry_cell_setting	triclinic
loop_
_symmetry_equiv_pos_as_xyz
  x,y,z
_cell_length_a	15.944557
_cell_length_b	18.266242
_cell_length_c	15.944551
_cell_angle_alpha	90.006078
_cell_angle_beta	96.499947
_cell_angle_gamma	89.992907
loop_
_atom_site_label
_atom_site_type_symbol
_atom_site_fract_x
_atom_site_fract_y
_atom_site_fract_z
O1	O	-1.114526	0.060851	0.108358
O2	O	-0.869977	0.060860	0.121708
O3	O	-0.998930	0.060848	-0.007242
O4	O	-0.985574	0.060862	0.237308
O5	O	-0.998908	-0.060913	-0.007245
O6	O	-0.869955	-0.060902	0.121705
O7	O	-1.114504	-0.060911	0.108354
Zn8	Zn	-0.992226	-0.080239	0.115029
Zn9	Zn	-0.992255	0.080188	0.115034
O10	O	-0.985552	-0.060900	0.237304
C11	C	-0.838672	-0.000020	0.121151
C12	C	-0.745427	-0.000017	0.119487
N13	N	-0.992213	-0.189726	0.115025
C14	C	-0.474796	-0.000034	0.034581
C15	C	-0.525366	-0.060067	0.075510
C16	C	-0.409785	-0.000035	0.113551
C17	C	-0.525368	0.059980	0.075535
C18	C	-0.574697	-0.000025	0.116463
C19	C	-0.459127	-0.060118	0.154459
C20	C	-0.459126	0.059983	0.154472
C21	C	-0.509664	-0.000065	0.195460
C22	C	-0.314783	-0.000041	0.111871
C23	C	-0.669696	-0.000024	0.118149
C24	C	-1.043150	-0.228028	0.166007
C25	C	-1.043164	-0.304672	0.166005
C26	C	-0.992225	-0.343013	0.115030
C27	C	-0.941284	-0.304702	0.064037
C28	C	-0.941278	-0.228059	0.064035
N29	N	-0.918655	-0.463363	0.112730
N30	N	-0.918663	-0.536171	0.112737
C31	C	-0.992242	-0.573935	0.115033
N32	N	-1.065813	-0.536141	0.117338
N33	N	-1.065804	-0.463326	0.117335
C34	C	-0.992226	-0.426120	0.115027
C35	C	-1.043199	-0.695344	0.166016
C36	C	-1.043214	-0.771990	0.166007
C37	C	-0.941326	-0.772018	0.064044
C38	C	-0.941319	-0.695373	0.064048
C39	C	-0.992253	-0.657041	0.115038
C40	C	-0.145811	-0.000033	0.108900
C41	C	-0.239061	-0.000042	0.110530
C42	C	-0.998364	-0.000033	-0.038538
C43	C	-0.996702	-0.000033	-0.131784
N44	N	-0.992276	0.189675	0.115031
C45	C	-0.912798	-0.000020	-0.346642
C46	C	-0.951749	-0.060057	-0.407660
C47	C	-0.993695	-0.000027	-0.302510
C48	C	-0.951790	0.059990	-0.407640
C49	C	-0.990784	-0.000019	-0.467422
C50	C	-1.032668	-0.060114	-0.362300
C51	C	-1.032698	0.059988	-0.362273
C52	C	-1.071708	-0.000065	-0.423274
C53	C	-0.995369	-0.000033	-0.207507
C54	C	-0.989116	-0.000018	-0.562423
C55	C	-0.986117	-0.000017	0.268600
C56	C	-0.987779	-0.000012	0.361846
H57	H	-0.554288	-0.110825	0.042157
H58	H	-0.845650	-0.000078	-0.313336
H59	H	-0.899852	-0.803234	0.022538
C60	C	-1.162493	-0.000113	-0.468075
H61	H	-1.191083	-0.042798	-0.452564
H62	H	-1.191450	0.042129	-0.451850
H63	H	-1.160950	0.000286	-0.527461
C64	C	-1.078891	0.128553	-0.335065
H65	H	-1.050074	0.171172	-0.350408
H66	H	-1.135026	0.128984	-0.362359
H67	H	-1.080052	0.127815	-0.275632
C68	C	-0.905518	-0.128620	-0.434834
H69	H	-0.849067	-0.128546	-0.408335
H70	H	-0.933704	-0.171253	-0.418552
H71	H	-0.905244	-0.128348	-0.494383
H72	H	-0.525155	-0.000096	0.263525
H73	H	-1.084644	-0.335864	0.207523
C74	C	-1.099238	-0.653175	0.222086
H75	H	-1.129590	-0.686967	0.252439
H76	H	-1.064824	-0.623276	0.260724
H77	H	-1.137890	-0.623276	0.187678
H78	H	-1.084700	-0.803174	0.207521
C79	C	-0.905569	0.128557	-0.434778
H80	H	-0.943003	0.156829	-0.472451
H81	H	-0.886830	0.157014	-0.386395
H82	H	-0.858360	0.114123	-0.462246
C83	C	-0.453639	-0.000117	-0.057293
H84	H	-0.476438	-0.042829	-0.085228
H85	H	-0.477310	0.042097	-0.085615
H86	H	-0.394108	0.000313	-0.057712
C87	C	-0.420202	-0.128755	0.199482
H88	H	-0.360789	-0.128352	0.198130
H89	H	-0.432344	-0.128920	0.256450
H90	H	-0.443452	-0.171342	0.171627
C91	C	-1.078833	-0.128761	-0.335301
H92	H	-1.079577	-0.128359	-0.275808
H93	H	-1.135113	-0.128940	-0.362229
H94	H	-1.050272	-0.171339	-0.351198
H95	H	-0.430189	0.110743	0.187796
C96	C	-0.885276	-0.653240	0.007977
H97	H	-0.854934	-0.687049	-0.022378
H98	H	-0.919689	-0.623338	-0.030659
H99	H	-0.846616	-0.623346	0.042380
H100	H	-1.084629	-0.196822	0.207524
C101	C	-0.564441	0.128544	0.030471
H102	H	-0.552756	0.128462	-0.026648
H103	H	-0.623783	0.128293	0.032292
H104	H	-0.540870	0.171177	0.057959
H105	H	-0.899810	-0.335924	0.022532
H106	H	-0.899797	-0.196874	0.022517
