data_functionalizedCrystal
_audit_creation_method	'MofGen! by Chris Wilmer'
_symmetry_space_group_name_H-M	'P1'
_symmetry_Int_Tables_number	1
_symmetry_cell_setting	triclinic
loop_
_symmetry_equiv_pos_as_xyz
  x,y,z
_cell_length_a	10.723023
_cell_length_b	17.038272
_cell_length_c	9.798715
_cell_angle_alpha	90.003416
_cell_angle_beta	90.003230
_cell_angle_gamma	87.789552
loop_
_atom_site_label
_atom_site_type_symbol
_atom_site_fract_x
_atom_site_fract_y
_atom_site_fract_z
O1	O	1.667337	0.109717	0.113479
O2	O	2.167337	0.609717	0.613479
O3	O	1.305156	0.120220	0.113485
O4	O	1.805156	0.620220	0.613485
O5	O	1.484094	0.001141	0.113471
O6	O	1.984094	0.501141	0.613471
O7	O	1.488399	0.228796	0.113492
O8	O	1.988399	0.728796	0.613492
O9	O	1.484080	0.001141	-0.113511
O10	O	1.984080	0.501141	0.386489
O11	O	1.305142	0.120220	-0.113498
O12	O	1.805142	0.620220	0.386502
O13	O	1.667323	0.109717	-0.113503
O14	O	2.167323	0.609717	0.386497
Zn15	Zn	1.486230	0.114968	-0.149539
Zn16	Zn	1.986230	0.614968	0.350461
Zn17	Zn	1.486249	0.114969	0.149520
Zn18	Zn	1.986249	0.614969	0.649520
O19	O	1.488385	0.228796	-0.113490
O20	O	1.988385	0.728796	0.386510
C21	C	1.258579	0.119456	-0.000006
C22	C	1.758579	0.619456	0.499994
C23	C	1.119813	0.117169	-0.000004
C24	C	1.619813	0.617169	0.499996
C25	C	1.057939	0.116150	-0.117586
C26	C	1.557939	0.616150	0.382414
C27	C	0.914517	0.113787	-0.117587
C28	C	1.414517	0.613787	0.382413
C29	C	1.480171	-0.028009	-0.000020
C30	C	1.980171	0.471991	0.499980
C31	C	1.468489	-0.114866	-0.000019
C32	C	1.968489	0.385134	0.499981
C33	C	1.575745	-0.164388	-0.000023
C34	C	2.075745	0.335612	0.499977
C35	C	1.564761	-0.245999	-0.000009
C36	C	2.064761	0.254001	0.499991
C37	C	1.446520	-0.278087	-0.000003
C38	C	1.946520	0.221913	0.499997
C39	C	1.339256	-0.228559	0.000004
C40	C	1.839256	0.271441	0.500004
C41	C	1.350242	-0.146949	0.000001
C42	C	1.850242	0.353051	0.500001
C43	C	1.407711	-0.524059	0.000016
C44	C	1.907711	-0.024059	0.500016
C45	C	1.396734	-0.605675	0.000016
C46	C	1.896734	-0.105675	0.500016
C47	C	1.622239	-0.623110	0.000004
C48	C	2.122239	-0.123110	0.500004
C49	C	1.633214	-0.541497	-0.000007
C50	C	2.133214	-0.041497	0.499993
C51	C	1.525951	-0.491977	0.000007
C52	C	2.025951	0.008023	0.500007
C53	C	1.435290	-0.361507	0.000006
C54	C	1.935290	0.138493	0.500006
C55	C	1.537182	-0.408559	0.000008
C56	C	2.037182	0.091441	0.500008
C57	C	1.713900	0.110481	-0.000010
C58	C	2.213900	0.610481	0.499990
C59	C	1.852666	0.112768	-0.000003
C60	C	2.352666	0.612768	0.499997
C61	C	1.492307	0.257946	0.000004
C62	C	1.992307	0.757946	0.500004
C63	C	1.503990	0.344803	0.000013
C64	C	2.003990	0.844803	0.500013
N65	N	1.486226	0.114968	-0.353639
N66	N	1.986226	0.614968	0.146361
C67	C	1.561337	0.064749	-0.421421
C68	C	2.061337	0.564749	0.078579
C69	C	1.561357	0.064747	-0.578584
C70	C	2.061357	0.564747	-0.078584
N71	N	1.486262	0.114963	0.353620
N72	N	1.986262	0.614963	0.853620
H73	H	0.861307	0.112914	-0.218254
H74	H	1.361307	0.612914	0.281746
Cl75	Cl	1.660651	-0.001632	-0.668574
Cl76	Cl	2.160651	0.498368	-0.168574
H77	H	1.111146	0.117022	-0.218253
H78	H	1.611146	0.617022	0.281747
Cl79	Cl	1.699603	-0.308252	-0.000018
Cl80	Cl	2.199603	0.191748	0.499982
H81	H	1.421930	0.157957	-0.411958
H82	H	1.921930	0.657957	0.088042
Cl83	Cl	1.037677	0.115810	0.155426
Cl84	Cl	1.537677	0.615810	0.655426
H85	H	1.421958	0.157962	-0.588099
H86	H	1.921958	0.657962	-0.088099
H87	H	1.633453	-0.382429	0.000033
H88	H	2.133453	0.117571	0.500033
Cl89	Cl	0.934802	0.114127	0.155433
Cl90	Cl	1.434802	0.614127	0.655433
H91	H	1.729498	-0.515378	-0.000013
H92	H	2.229498	-0.015378	0.499987
Cl93	Cl	1.757076	-0.685368	-0.000010
Cl94	Cl	2.257076	-0.185368	0.499990
Cl95	Cl	1.248077	-0.646013	0.000016
Cl96	Cl	1.748077	-0.146013	0.500016
Cl97	Cl	1.724398	-0.124057	-0.000045
Cl98	Cl	2.224398	0.375943	0.499955
H99	H	1.320369	-0.483749	0.000028
H100	H	1.820369	0.016251	0.500028
Cl101	Cl	1.660301	-0.001806	-0.331390
Cl102	Cl	2.160301	0.498194	0.168610
H103	H	1.242982	-0.254692	0.000018
H104	H	1.742982	0.245308	0.500018
Cl105	Cl	1.215400	-0.084693	0.000010
Cl106	Cl	1.715400	0.415307	0.500010
Cl107	Cl	1.286648	-0.401853	0.000022
Cl108	Cl	1.786648	0.098147	0.500022
