data_functionalizedCrystal
_audit_creation_method	'MofGen! by Chris Wilmer'
_symmetry_space_group_name_H-M	'P1'
_symmetry_Int_Tables_number	1
_symmetry_cell_setting	triclinic
loop_
_symmetry_equiv_pos_as_xyz
  x,y,z
_cell_length_a	17.038272
_cell_length_b	17.019294
_cell_length_c	15.072220
_cell_angle_alpha	86.119892
_cell_angle_beta	89.992913
_cell_angle_gamma	87.244363
loop_
_atom_site_label
_atom_site_type_symbol
_atom_site_fract_x
_atom_site_fract_y
_atom_site_fract_z
O1	O	1.037232	0.171281	-0.086756
O2	O	1.537232	0.671281	0.413244
O3	O	0.809603	0.168561	-0.086574
O4	O	1.309603	0.668561	0.413426
O5	O	0.929766	0.055515	-0.077919
O6	O	1.429766	0.555515	0.422081
O7	O	0.917069	0.284328	-0.095411
O8	O	1.417069	0.784328	0.404589
O9	O	0.929737	0.055520	0.069646
O10	O	1.429737	0.555520	0.569646
O11	O	0.809574	0.168566	0.060991
O12	O	1.309574	0.668566	0.560991
O13	O	1.037202	0.171286	0.060809
O14	O	1.537202	0.671286	0.560809
Zn15	Zn	0.923383	0.169927	0.084329
Zn16	Zn	1.423383	0.669927	0.584329
Zn17	Zn	0.923422	0.169921	-0.110094
Zn18	Zn	1.423422	0.669921	0.389906
O19	O	0.917039	0.284332	0.052154
O20	O	1.417039	0.784332	0.552154
C21	C	0.780462	0.166090	-0.012606
C22	C	1.280462	0.666090	0.487394
C23	C	0.693676	0.158710	-0.012052
C24	C	1.193676	0.658710	0.487948
C25	C	0.643504	0.226470	-0.017231
C26	C	1.143504	0.726470	0.482769
C27	C	0.561960	0.219531	-0.016689
C28	C	1.061960	0.719531	0.483311
C29	C	0.530588	0.144831	-0.010973
C30	C	1.030588	0.644831	0.489027
C31	C	0.580766	0.077066	-0.005791
C32	C	1.080766	0.577066	0.494209
C33	C	0.662309	0.084006	-0.006327
C34	C	1.162309	0.584006	0.493673
C35	C	0.284851	0.120313	-0.009075
C36	C	0.784851	0.620313	0.490925
C37	C	0.203301	0.113378	-0.008541
C38	C	0.703301	0.613378	0.491459
C39	C	0.184501	0.255844	-0.019438
C40	C	0.684501	0.755844	0.480562
C41	C	0.266046	0.262777	-0.019979
C42	C	0.766046	0.762777	0.480021
C43	C	0.316217	0.195012	-0.014792
C44	C	0.816217	0.695012	0.485208
C45	C	0.447236	0.137736	-0.010421
C46	C	0.947236	0.637736	0.489579
C47	C	0.399567	0.202107	-0.015338
C48	C	0.899567	0.702107	0.484662
C49	C	0.929270	0.026096	-0.001890
C50	C	1.429270	0.526096	0.498110
C51	C	0.927824	-0.061571	0.004806
C52	C	1.427824	0.438429	0.504806
C53	C	0.927163	-0.102755	-0.072486
C54	C	1.427163	0.397245	0.427514
C55	C	0.925800	-0.185127	-0.066192
C56	C	1.425800	0.314873	0.433808
C57	C	0.925103	-0.226314	0.017394
C58	C	1.425103	0.273686	0.517394
C59	C	0.925762	-0.185124	0.094691
C60	C	1.425762	0.314876	0.594691
C61	C	0.927120	-0.102753	0.088397
C62	C	1.427120	0.397247	0.588397
C63	C	0.920998	-0.475021	0.040424
C64	C	1.420998	0.024979	0.540424
C65	C	0.919643	-0.557398	0.046713
C66	C	1.419643	-0.057398	0.546713
C67	C	0.919679	-0.557395	-0.114171
C68	C	1.419679	-0.057395	0.385829
C69	C	0.921041	-0.475023	-0.120458
C70	C	1.421041	0.024977	0.379542
C71	C	0.921696	-0.433840	-0.043161
C72	C	1.421696	0.066160	0.456839
C73	C	0.923712	-0.310512	0.023829
C74	C	1.423712	0.189488	0.523829
C75	C	0.923081	-0.349643	-0.049597
C76	C	1.423081	0.150357	0.450403
C77	C	1.066343	0.173757	-0.013161
C78	C	1.566343	0.673757	0.486839
C79	C	1.153130	0.181138	-0.013721
C80	C	1.653130	0.681138	0.486279
C81	C	0.917536	0.313751	-0.023877
C82	C	1.417536	0.813751	0.476123
C83	C	0.918981	0.401418	-0.030578
C84	C	1.418981	0.901418	0.469422
N85	N	0.923362	0.169931	0.217017
N86	N	1.423362	0.669931	0.717017
N87	N	0.923449	0.169911	-0.242782
N88	N	1.423449	0.669911	0.257218
C89	C	0.923421	0.169917	0.576220
C90	C	1.423421	0.669917	1.076220
C91	C	0.858908	0.230174	0.534000
C92	C	1.358908	0.730174	1.034000
C93	C	0.859056	0.230420	0.431155
C94	C	1.359056	0.730420	0.931155
C95	C	0.923391	0.169924	0.398015
C96	C	1.423391	0.669924	0.898015
C97	C	1.004944	0.193374	0.433524
C98	C	1.504944	0.693374	0.933524
C99	C	1.004583	0.193809	0.536348
C100	C	1.504583	0.693809	1.036348
C101	C	0.907107	0.086068	0.544728
C102	C	1.407107	0.586068	1.044728
C103	C	0.905235	0.086494	0.441832
C104	C	1.405235	0.586494	0.941832
C105	C	0.923379	0.169927	0.297302
C106	C	1.423379	0.669927	0.797302
C107	C	0.923438	0.169917	0.676933
C108	C	1.423438	0.669917	1.176933
H109	H	0.425113	0.262928	-0.019987
H110	H	0.925113	0.762928	0.480013
H111	H	0.669040	0.287298	-0.021886
H112	H	1.169040	0.787298	0.478114
O113	O	0.925024	-0.229550	0.184844
O114	O	1.425024	0.270450	0.684844
H115	H	0.871154	-0.263635	0.191292
H116	H	1.371154	0.236365	0.691292
O117	O	0.918955	-0.601810	-0.197540
O118	O	1.418955	-0.101810	0.302460
H119	H	0.971590	-0.642802	-0.198259
H120	H	1.471590	-0.142802	0.301741
O121	O	1.023645	0.275029	0.561918
O122	O	1.523645	0.775029	1.061918
H123	H	0.978805	0.318940	0.533113
H124	H	1.478805	0.818940	1.033113
H125	H	0.925265	-0.218656	-0.129131
H126	H	1.425265	0.281344	0.370869
O127	O	0.918892	-0.601833	0.136866
O128	O	1.418892	-0.101833	0.636866
H129	H	0.865879	-0.582585	0.173960
H130	H	1.365879	-0.082585	0.673960
O131	O	0.921724	-0.430607	0.123790
O132	O	1.421724	0.069393	0.623790
H133	H	0.921026	-0.473089	0.182967
H134	H	1.421026	0.026911	0.682967
O135	O	0.507843	0.292613	-0.022274
O136	O	1.007843	0.792613	0.477726
H137	H	0.543357	0.345722	-0.026349
H138	H	1.043357	0.845722	0.473651
O139	O	0.830041	0.058008	0.581268
O140	O	1.330041	0.558008	1.081268
H141	H	0.819897	-0.001218	0.558120
H142	H	1.319897	0.498782	1.058120
O143	O	1.024467	0.273721	0.393268
O144	O	1.524467	0.773721	0.893268
H145	H	0.976217	0.297082	0.347972
H146	H	1.476217	0.797082	0.847972
H147	H	0.291582	0.323605	-0.024644
H148	H	0.791582	0.823605	0.475356
H149	H	0.923148	-0.344055	0.091886
H150	H	1.423148	0.155945	0.591886
O151	O	0.825766	0.063085	0.411346
O152	O	1.325766	0.563085	0.911346
H153	H	0.799305	0.110664	0.365173
H154	H	1.299305	0.610664	0.865173
H155	H	0.927647	-0.069221	0.151336
H156	H	1.427647	0.430779	0.651336
H157	H	0.949177	0.039129	0.419749
H158	H	1.449177	0.539129	0.919749
H159	H	0.923643	-0.316105	-0.117653
H160	H	1.423643	0.183895	0.382347
H161	H	0.143643	0.311014	-0.023659
H162	H	0.643643	0.811014	0.476341
H163	H	0.869463	0.292530	0.401795
H164	H	1.369463	0.792530	0.901795
O165	O	0.546936	-0.003507	0.000378
O166	O	1.046936	0.496493	0.500378
H167	H	0.481804	0.003049	-0.000128
H168	H	0.981804	0.503049	0.499872
H169	H	0.921609	-0.441494	-0.188523
H170	H	1.421609	0.058506	0.311477
O171	O	0.169460	0.032805	-0.002364
O172	O	0.669460	0.532805	0.497636
H173	H	0.189627	-0.000034	-0.059990
H174	H	0.689627	0.499966	0.440010
O175	O	0.969377	0.026551	0.581535
O176	O	1.469377	0.526551	1.081535
H177	H	1.000789	-0.000438	0.525785
H178	H	1.500789	0.499562	1.025785
H179	H	0.798433	0.215641	0.407067
H180	H	1.298433	0.715641	0.907067
O181	O	0.778342	0.210833	0.568277
O182	O	1.278342	0.710833	1.068277
H183	H	0.783416	0.158068	0.615776
H184	H	1.283416	0.658068	1.115776
O185	O	0.338959	0.047227	-0.003481
O186	O	0.838959	0.547227	0.496519
H187	H	0.303442	-0.005880	0.000576
H188	H	0.803442	0.494120	0.500576
H189	H	0.421684	0.076915	-0.005742
H190	H	0.921684	0.576915	0.494258
H191	H	0.703158	0.028828	-0.002110
H192	H	1.203158	0.528828	0.497890
H193	H	1.054083	0.151944	0.564429
H194	H	1.554083	0.651944	1.064429
H195	H	0.869172	0.291929	0.555119
H196	H	1.369172	0.791929	1.055119
H197	H	0.927734	-0.069227	-0.140551
H198	H	1.427734	0.430773	0.359449
O199	O	1.070055	0.137096	0.405427
O200	O	1.570055	0.637096	0.905427
H201	H	1.044920	0.091709	0.365757
H202	H	1.544920	0.591709	0.865757
