data_functionalizedCrystal
_audit_creation_method	'MofGen! by Chris Wilmer'
_symmetry_space_group_name_H-M	'P1'
_symmetry_Int_Tables_number	1
_symmetry_cell_setting	triclinic
loop_
_symmetry_equiv_pos_as_xyz
  x,y,z
_cell_length_a	29.839131
_cell_length_b	29.839134
_cell_length_c	29.839125
_cell_angle_alpha	89.978020
_cell_angle_beta	90.017709
_cell_angle_gamma	89.963719
loop_
_atom_site_label
_atom_site_type_symbol
_atom_site_fract_x
_atom_site_fract_y
_atom_site_fract_z
Zn1	Zn	-0.178978	-0.686720	0.254125
Zn2	Zn	0.321022	-0.186720	0.754125
Zn3	Zn	-0.254090	-0.686652	0.178995
Zn4	Zn	0.245910	-0.186652	0.678995
Zn5	Zn	-0.178968	-0.611602	0.178995
Zn6	Zn	0.321032	-0.111602	0.678995
Zn7	Zn	-0.254075	-0.611550	0.254083
Zn8	Zn	0.245925	-0.111550	0.754083
O9	O	-0.216528	-0.649131	0.216549
O10	O	0.283472	-0.149131	0.716549
O11	O	-0.188952	-0.749578	0.244176
O12	O	0.311048	-0.249578	0.744176
O13	O	-0.244127	-0.676690	0.116128
O14	O	0.255873	-0.176690	0.616128
O15	O	-0.116102	-0.621617	0.188978
O16	O	0.383898	-0.121617	0.688978
O17	O	-0.244137	-0.749528	0.188979
O18	O	0.255863	-0.249528	0.688979
O19	O	-0.116109	-0.676805	0.244176
O20	O	0.383891	-0.176805	0.744176
O21	O	-0.188935	-0.621551	0.116127
O22	O	0.311065	-0.121551	0.616127
O23	O	-0.188921	-0.548728	0.188938
O24	O	0.311079	-0.048728	0.688938
O25	O	-0.244111	-0.621528	0.316956
O26	O	0.255889	-0.121528	0.816956
O27	O	-0.244101	-0.548690	0.244105
O28	O	0.255899	-0.048690	0.744105
O29	O	-0.188937	-0.676755	0.316987
O30	O	0.311063	-0.176755	0.816987
O31	O	-0.316955	-0.676639	0.188938
O32	O	0.183045	-0.176639	0.688938
O33	O	-0.316944	-0.621462	0.244105
O34	O	0.183056	-0.121462	0.744105
C35	C	-0.333250	-0.649050	0.216527
C36	C	0.166750	-0.149050	0.716527
C37	C	-0.383185	-0.649056	0.216533
C38	C	0.116815	-0.149056	0.716533
C39	C	-0.216509	-0.532408	0.216517
C40	C	0.283491	-0.032408	0.716517
C41	C	-0.216511	-0.482474	0.216514
C42	C	0.283489	0.017526	0.716514
C43	C	-0.692821	-0.677914	0.187866
C44	C	-0.192821	-0.177914	0.687866
C45	C	-0.880494	-0.677969	0.187883
C46	C	-0.380494	-0.177969	0.687883
O47	O	-0.904753	-0.702441	0.163493
O48	O	-0.404753	-0.202441	0.663493
N49	N	-0.903970	-0.649224	0.216583
N50	N	-0.403970	-0.149224	0.716583
C51	C	-0.880524	-0.620465	0.245283
C52	C	-0.380524	-0.120465	0.745283
O53	O	-0.904798	-0.596020	0.269698
O54	O	-0.404798	-0.096020	0.769698
C55	C	-0.692852	-0.620412	0.245268
C56	C	-0.192852	-0.120412	0.745268
C57	C	-0.669379	-0.649156	0.216563
C58	C	-0.169379	-0.149156	0.716563
C59	C	-0.669348	-0.706656	0.159164
C60	C	-0.169348	-0.206656	0.659164
C61	C	-0.622433	-0.706640	0.159158
C62	C	-0.122433	-0.206640	0.659158
C63	C	-0.598990	-0.677882	0.187854
C64	C	-0.098990	-0.177882	0.687854
C65	C	-0.622463	-0.649140	0.216557
C66	C	-0.122463	-0.149140	0.716557
C67	C	-0.669407	-0.591656	0.273969
C68	C	-0.169407	-0.091656	0.773969
C69	C	-0.622486	-0.591646	0.273964
C70	C	-0.122486	-0.091646	0.773964
C71	C	-0.599013	-0.620390	0.245259
C72	C	-0.099013	-0.120390	0.745259
C73	C	-0.552106	-0.620367	0.245248
C74	C	-0.052106	-0.120367	0.745248
N75	N	-0.528630	-0.649112	0.216548
N76	N	-0.028630	-0.149112	0.716548
C77	C	-0.552072	-0.677869	0.187851
C78	C	-0.052072	-0.177869	0.687851
C79	C	-0.979055	-0.620494	0.245289
C80	C	-0.479055	-0.120494	0.745289
C81	C	-1.025973	-0.620507	0.245292
C82	C	-0.525973	-0.120507	0.745292
C83	C	-1.025939	-0.678012	0.187893
C84	C	-0.525939	-0.178012	0.687893
C85	C	-0.979021	-0.677996	0.187887
C86	C	-0.479021	-0.177996	0.687887
C87	C	-0.955579	-0.649239	0.216589
C88	C	-0.455579	-0.149239	0.716589
C89	C	-0.453547	-0.677834	0.187841
C90	C	0.046453	-0.177834	0.687841
C91	C	-0.406627	-0.677814	0.187836
C92	C	0.093373	-0.177814	0.687836
C93	C	-0.406664	-0.620311	0.245237
C94	C	0.093336	-0.120311	0.745237
C95	C	-0.453580	-0.620329	0.245240
C96	C	0.046420	-0.120329	0.745240
C97	C	-0.477020	-0.649094	0.216540
C98	C	0.022980	-0.149094	0.716540
O99	O	-0.527818	-0.595912	0.269629
O100	O	-0.027818	-0.095912	0.769629
O101	O	-0.527791	-0.702318	0.163447
O102	O	-0.027791	-0.202318	0.663447
C103	C	-0.739737	-0.677930	0.187872
C104	C	-0.239737	-0.177930	0.687872
C105	C	-0.763210	-0.649188	0.216574
C106	C	-0.263210	-0.149188	0.716574
C107	C	-0.739767	-0.620430	0.245271
C108	C	-0.239767	-0.120430	0.745271
C109	C	-0.810128	-0.649200	0.216578
C110	C	-0.310128	-0.149200	0.716578
C111	C	-0.833570	-0.677958	0.187881
C112	C	-0.333570	-0.177958	0.687881
C113	C	-0.810094	-0.706703	0.159181
C114	C	-0.310094	-0.206703	0.659181
C115	C	-0.763179	-0.706687	0.159175
C116	C	-0.263179	-0.206687	0.659175
C117	C	-0.763243	-0.591685	0.273971
C118	C	-0.263243	-0.091685	0.773971
C119	C	-0.810158	-0.591703	0.273974
C120	C	-0.310158	-0.091703	0.773974
C121	C	-0.833601	-0.620461	0.245277
C122	C	-0.333601	-0.120461	0.745277
C123	C	-0.216524	-0.649143	0.333728
C124	C	0.283476	-0.149143	0.833728
C125	C	-0.216522	-0.649148	0.383662
C126	C	0.283478	-0.149148	0.883662
C127	C	-0.099349	-0.649225	0.216582
C128	C	0.400651	-0.149225	0.716582
C129	C	-0.049415	-0.649265	0.216595
C130	C	0.450585	-0.149265	0.716595
C131	C	-0.216547	-0.766309	0.216582
C132	C	0.283453	-0.266309	0.716582
C133	C	-0.216555	-0.816244	0.216596
C134	C	0.283445	-0.316244	0.716596
C135	C	-0.245303	-0.172820	0.245240
C136	C	0.254697	0.327180	0.745240
C137	C	-0.245315	0.014853	0.245260
C138	C	0.254685	0.514853	0.745260
O139	O	-0.269774	0.039127	0.269665
O140	O	0.230226	0.539127	0.769665
N141	N	-0.216544	0.038311	0.216583
N142	N	0.283456	0.538311	0.716583
C143	C	-0.187766	0.014848	0.187902
C144	C	0.312234	0.514848	0.687902
O145	O	-0.163291	0.039107	0.163514
O146	O	0.336709	0.539107	0.663514
C147	C	-0.187751	-0.172824	0.187884
C148	C	0.312249	0.327176	0.687884
C149	C	-0.216527	-0.196280	0.216560
C150	C	0.283473	0.303720	0.716560
C151	C	-0.274076	-0.196276	0.273913
C152	C	0.225924	0.303724	0.773913
C153	C	-0.274075	-0.243191	0.273906
C154	C	0.225925	0.256809	0.773906
C155	C	-0.245299	-0.266651	0.245226
C156	C	0.254701	0.233349	0.745226
C157	C	-0.216526	-0.243195	0.216553
C158	C	0.283474	0.256805	0.716553
C159	C	-0.158971	-0.196286	0.159205
C160	C	0.341029	0.303714	0.659205
C161	C	-0.158969	-0.243207	0.159204
C162	C	0.341031	0.256793	0.659204
C163	C	-0.187745	-0.266663	0.187880
C164	C	0.312255	0.233337	0.687880
C165	C	-0.187749	-0.313570	0.187865
C166	C	0.312251	0.186430	0.687865
N167	N	-0.216520	-0.337029	0.216542
N168	N	0.283480	0.162971	0.716542
C169	C	-0.245295	-0.313569	0.245222
C170	C	0.254705	0.186431	0.745222
C171	C	-0.187776	0.113379	0.187912
C172	C	0.312224	0.613379	0.687912
C173	C	-0.187780	0.160297	0.187916
C174	C	0.312220	0.660297	0.687916
C175	C	-0.245329	0.160298	0.245275
C176	C	0.254671	0.660298	0.745275
C177	C	-0.245327	0.113380	0.245269
C178	C	0.254673	0.613380	0.745269
C179	C	-0.216547	0.089921	0.216589
C180	C	0.283453	0.589921	0.716589
C181	C	-0.245290	-0.412095	0.245205
C182	C	0.254710	0.087905	0.745205
C183	C	-0.245287	-0.459014	0.245194
C184	C	0.254713	0.040986	0.745194
C185	C	-0.187736	-0.459012	0.187837
C186	C	0.312264	0.040988	0.687837
C187	C	-0.187740	-0.412096	0.187846
C188	C	0.312260	0.087904	0.687846
C189	C	-0.216519	-0.388639	0.216534
C190	C	0.283481	0.111361	0.716534
O191	O	-0.163299	-0.337873	0.163477
O192	O	0.336701	0.162127	0.663477
O193	O	-0.269759	-0.337836	0.269613
O194	O	0.230241	0.162164	0.769613
C195	C	-0.245304	-0.125905	0.245247
C196	C	0.254696	0.374095	0.745247
C197	C	-0.216531	-0.102449	0.216574
C198	C	0.283469	0.397551	0.716574
C199	C	-0.187755	-0.125909	0.187893
C200	C	0.312245	0.374091	0.687893
C201	C	-0.216535	-0.055531	0.216577
C202	C	0.283465	0.444469	0.716577
C203	C	-0.245310	-0.032071	0.245258
C204	C	0.254690	0.467929	0.745258
C205	C	-0.274082	-0.055529	0.273934
C206	C	0.225918	0.444471	0.773934
C207	C	-0.274080	-0.102445	0.273927
C208	C	0.225920	0.397555	0.773927
C209	C	-0.158984	-0.102451	0.159217
C210	C	0.341016	0.397549	0.659217
C211	C	-0.158989	-0.055535	0.159226
C212	C	0.341011	0.444465	0.659226
C213	C	-0.187764	-0.032075	0.187906
C214	C	0.312236	0.467925	0.687906
C215	C	-0.216499	-0.649145	0.099827
C216	C	0.283501	-0.149145	0.599827
C217	C	-0.216374	-0.649227	0.049893
C218	C	0.283626	-0.149227	0.549893
C219	C	-0.187718	-0.677935	0.693325
C220	C	0.312282	-0.177935	1.193325
C221	C	-0.187680	-0.677957	0.880998
C222	C	0.312320	-0.177957	1.380998
O223	O	-0.163232	-0.702399	0.905279
O224	O	0.336768	-0.202399	1.405279
N225	N	-0.216402	-0.649208	0.904448
N226	N	0.283598	-0.149208	1.404448
C227	C	-0.245133	-0.620449	0.880976
C228	C	0.254867	-0.120449	1.380976
O229	O	-0.269559	-0.595993	0.905228
O230	O	0.230441	-0.095993	1.405228
C231	C	-0.245169	-0.620424	0.693304
C232	C	0.254831	-0.120424	1.193304
C233	C	-0.216448	-0.649179	0.669857
C234	C	0.283552	-0.149179	1.169857
C235	C	-0.158999	-0.706687	0.669877
C236	C	0.341001	-0.206687	1.169877
C237	C	-0.159011	-0.706683	0.622962
C238	C	0.340989	-0.206683	1.122962
C239	C	-0.187741	-0.677927	0.599494
C240	C	0.312259	-0.177927	1.099494
C241	C	-0.216460	-0.649175	0.622941
C242	C	0.283540	-0.149175	1.122941
C243	C	-0.273898	-0.591663	0.669833
C244	C	0.226102	-0.091663	1.169833
C245	C	-0.273903	-0.591659	0.622912
C246	C	0.226097	-0.091659	1.122912
C247	C	-0.245183	-0.620414	0.599465
C248	C	0.254817	-0.120414	1.099465
C249	C	-0.245202	-0.620415	0.552558
C250	C	0.254798	-0.120415	1.052558
N251	N	-0.216480	-0.649164	0.529108
N252	N	0.283520	-0.149164	1.029108
C253	C	-0.187749	-0.677920	0.552576
C254	C	0.312251	-0.177920	1.052576
C255	C	-0.245113	-0.620464	0.979507
C256	C	0.254887	-0.120464	1.479507
C257	C	-0.245105	-0.620471	1.026425
C258	C	0.254895	-0.120471	1.526425
C259	C	-0.187650	-0.677979	1.026443
C260	C	0.312350	-0.177979	1.526443
C261	C	-0.187661	-0.677974	0.979524
C262	C	0.312339	-0.177974	1.479524
C263	C	-0.216391	-0.649214	0.956057
C264	C	0.283609	-0.149214	1.456057
C265	C	-0.187776	-0.677910	0.454050
C266	C	0.312224	-0.177910	0.954050
C267	C	-0.187792	-0.677904	0.407130
C268	C	0.312208	-0.177904	0.907130
C269	C	-0.245244	-0.620395	0.407116
C270	C	0.254756	-0.120395	0.907116
C271	C	-0.245230	-0.620401	0.454032
C272	C	0.254770	-0.120401	0.954032
C273	C	-0.216493	-0.649161	0.477497
C274	C	0.283507	-0.149161	0.977497
O275	O	-0.269633	-0.595982	0.528248
O276	O	0.230367	-0.095982	1.028248
O277	O	-0.163320	-0.702366	0.528316
O278	O	0.336680	-0.202366	1.028316
C279	C	-0.187706	-0.677939	0.740240
C280	C	0.312294	-0.177939	1.240240
C281	C	-0.216425	-0.649187	0.763688
C282	C	0.283575	-0.149187	1.263688
C283	C	-0.245155	-0.620431	0.740219
C284	C	0.254845	-0.120431	1.240219
C285	C	-0.216417	-0.649194	0.810605
C286	C	0.283583	-0.149194	1.310605
C287	C	-0.187686	-0.677950	0.834074
C288	C	0.312314	-0.177950	1.334074
C289	C	-0.158964	-0.706699	0.810624
C290	C	0.341036	-0.206699	1.310624
C291	C	-0.158976	-0.706695	0.763708
C292	C	0.341024	-0.206695	1.263708
C293	C	-0.273877	-0.591682	0.763669
C294	C	0.226123	-0.091682	1.263669
C295	C	-0.273864	-0.591689	0.810585
C296	C	0.226136	-0.091689	1.310585
C297	C	-0.245133	-0.620445	0.834053
C298	C	0.254867	-0.120445	1.334053
H299	H	-0.387517	-0.701220	0.164459
H300	H	0.112483	-0.201220	0.664459
H301	H	-1.045034	-0.701427	0.164527
H302	H	-0.545034	-0.201427	0.664527
H303	H	-0.387570	-0.596895	0.268600
H304	H	0.112430	-0.096895	0.768600
H305	H	-0.297506	-0.262285	0.297258
H306	H	0.202494	0.237715	0.797258
Cl307	Cl	-0.310023	-0.555500	0.593413
Cl308	Cl	0.189977	-0.055500	1.093413
H309	H	-0.268759	0.179407	0.268628
H310	H	0.231241	0.679407	0.768628
Cl311	Cl	-0.151608	0.189778	0.151860
Cl312	Cl	0.348392	0.689778	0.651860
Cl313	Cl	-0.733677	-0.742826	0.123089
Cl314	Cl	-0.233677	-0.242826	0.623089
Cl315	Cl	-1.055476	-0.584365	0.281375
Cl316	Cl	-0.555476	-0.084365	0.781375
Cl317	Cl	-0.122810	-0.026054	0.123172
Cl318	Cl	0.377190	0.473946	0.623172
Cl319	Cl	-0.310257	-0.166792	0.309973
Cl320	Cl	0.189743	0.333208	0.809973
Cl321	Cl	-0.281359	-0.584245	0.377604
Cl322	Cl	0.218641	-0.084245	0.877604
Cl323	Cl	-0.151592	0.083894	0.151854
Cl324	Cl	0.348408	0.583894	0.651854
H325	H	-0.268721	-0.478110	0.268545
H326	H	0.231279	0.021890	0.768545
Cl327	Cl	-0.309976	-0.555539	0.840055
Cl328	Cl	0.190024	-0.055539	1.340055
H329	H	-0.135529	-0.262305	0.135852
H330	H	0.364471	0.237695	0.635852
Cl331	Cl	-0.698810	-0.742813	0.123083
Cl332	Cl	-0.198810	-0.242813	0.623083
H333	H	-0.164309	-0.478121	0.164485
H334	H	0.335691	0.021879	0.664485
H335	H	-0.744160	-0.568268	0.297340
H336	H	-0.244160	-0.068268	0.797340
Cl337	Cl	-0.122882	-0.742848	0.699372
Cl338	Cl	0.377118	-0.242848	1.199372
H339	H	-0.603402	-0.568229	0.297337
H340	H	-0.103402	-0.068229	0.797337
Cl341	Cl	-0.151646	-0.714062	0.483543
Cl342	Cl	0.348354	-0.214062	0.983543
H343	H	-0.135588	-0.730110	0.744622
H344	H	0.364412	-0.230110	1.244622
Cl345	Cl	-0.151571	-0.382608	0.151790
Cl346	Cl	0.348429	0.117392	0.651790
Cl347	Cl	-0.281503	0.083897	0.281320
Cl348	Cl	0.218497	0.583897	0.781320
Cl349	Cl	-0.122805	-0.131936	0.123158
Cl350	Cl	0.377195	0.368064	0.623158
H351	H	-0.829189	-0.730117	0.135814
H352	H	-0.329189	-0.230117	0.635814
Cl353	Cl	-0.483090	-0.584184	0.281317
Cl354	Cl	0.016910	-0.084184	0.781317
Cl355	Cl	-0.949592	-0.584338	0.281373
Cl356	Cl	-0.449592	-0.084338	0.781373
Cl357	Cl	-0.151553	-0.714123	0.950053
Cl358	Cl	0.348447	-0.214123	1.450053
H359	H	-0.297512	-0.121538	0.297278
H360	H	0.202488	0.378462	0.797278
Cl361	Cl	-0.281469	-0.382613	0.281269
Cl362	Cl	0.218531	0.117387	0.781269
H363	H	-0.297513	-0.036420	0.297286
H364	H	0.202487	0.463580	0.797286
Cl365	Cl	-0.839662	-0.555564	0.310064
Cl366	Cl	-0.339662	-0.055564	0.810064
Cl367	Cl	-0.151532	-0.714128	1.055955
Cl368	Cl	0.348468	-0.214128	1.555955
H369	H	-0.135539	-0.177197	0.135854
H370	H	0.364461	0.322803	0.635854
H371	H	-0.688511	-0.568248	0.297342
H372	H	-0.188511	-0.068248	0.797342
H373	H	-0.268621	-0.596991	0.473123
H374	H	0.231379	-0.096991	0.973123
H375	H	-0.135573	-0.730115	0.829740
H376	H	0.364427	-0.230115	1.329740
H377	H	-0.959912	-0.701402	0.164514
H378	H	-0.459912	-0.201402	0.664514
H379	H	-0.164403	-0.701321	0.388042
H380	H	0.335597	-0.201321	0.888042
Cl381	Cl	-0.592931	-0.742784	0.123076
Cl382	Cl	-0.092931	-0.242784	0.623076
Cl383	Cl	-0.122899	-0.742830	0.593492
Cl384	Cl	0.377101	-0.242830	1.093492
Cl385	Cl	-0.281219	-0.584327	1.055895
Cl386	Cl	0.218781	-0.084327	1.555895
H387	H	-0.297274	-0.568265	0.744566
H388	H	0.202726	-0.068265	1.244566
H389	H	-0.268511	-0.597044	0.960404
H390	H	0.231489	-0.097044	1.460404
H391	H	-0.472626	-0.701258	0.164472
H392	H	0.027374	-0.201258	0.664472
Cl393	Cl	-0.310008	-0.555514	0.699298
Cl394	Cl	0.189992	-0.055514	1.199298
