data_functionalizedCrystal
_audit_creation_method	'MofGen! by Chris Wilmer'
_symmetry_space_group_name_H-M	'P1'
_symmetry_Int_Tables_number	1
_symmetry_cell_setting	triclinic
loop_
_symmetry_equiv_pos_as_xyz
  x,y,z
_cell_length_a	17.699097
_cell_length_b	17.699083
_cell_length_c	8.140239
_cell_angle_alpha	89.995596
_cell_angle_beta	89.993686
_cell_angle_gamma	83.285722
loop_
_atom_site_label
_atom_site_type_symbol
_atom_site_fract_x
_atom_site_fract_y
_atom_site_fract_z
O1	O	1.004068	0.095758	-0.136753
O2	O	0.783691	0.108200	-0.136727
O3	O	0.900105	-0.008210	-0.136726
O4	O	0.887653	0.212168	-0.136754
O5	O	0.900099	-0.008211	0.136501
O6	O	0.783684	0.108199	0.136500
O7	O	1.004061	0.095757	0.136474
Zn8	Zn	0.893872	0.101977	0.179868
Zn9	Zn	0.893880	0.101979	-0.180121
O10	O	0.887647	0.212166	0.136473
C11	C	0.755491	0.107752	-0.000110
C12	C	0.671473	0.106409	-0.000099
C13	C	0.155758	0.098180	-0.149101
C14	C	0.234702	0.099437	-0.149093
C15	C	0.274165	0.100065	-0.000150
C16	C	0.234680	0.099430	0.148794
C17	C	0.155738	0.098168	0.148785
C18	C	0.553044	0.104517	0.148837
C19	C	0.631991	0.105781	0.148835
C20	C	0.632008	0.105786	-0.149040
C21	C	0.553067	0.104524	-0.149050
C22	C	0.513589	0.103885	-0.000107
C23	C	0.427989	0.102521	-0.000117
C24	C	0.359763	0.101434	-0.000138
C25	C	0.899656	-0.036408	-0.000112
C26	C	0.898317	-0.120426	-0.000112
C27	C	0.966650	-0.169044	-0.000117
C28	C	0.965388	-0.247987	-0.000132
C29	C	0.895792	-0.278311	-0.000129
C30	C	0.827454	-0.229687	-0.000128
C31	C	0.828717	-0.150745	-0.000125
C32	C	0.822359	-0.548050	-0.000140
C33	C	0.821101	-0.626998	-0.000138
C34	C	0.959030	-0.645292	-0.000147
C35	C	0.960293	-0.566350	-0.000145
C36	C	0.891955	-0.517733	-0.000152
C37	C	0.893325	-0.432134	-0.000140
C38	C	0.894422	-0.363909	-0.000129
C39	C	1.032261	0.096205	-0.000147
C40	C	1.116279	0.097547	-0.000168
C41	C	0.888096	0.240364	-0.000144
C42	C	0.889435	0.324382	-0.000156
N43	N	0.893872	0.101976	0.425550
N44	N	0.893886	0.101975	-0.425803
H45	H	0.664120	0.106293	0.270130
C46	C	0.750123	-0.051352	-0.140579
C47	C	0.753603	-0.097301	-0.000119
H48	H	0.703747	-0.018362	-0.140583
H49	H	0.791748	-0.021999	-0.140569
H50	H	0.752502	-0.082535	-0.235846
H51	H	0.751230	-0.066118	0.095148
H52	H	0.711967	-0.126657	-0.000115
H53	H	1.023323	-0.144360	-0.000110
C54	C	1.096508	-0.592365	-0.000174
C55	C	1.036795	-0.533019	-0.000156
H56	H	1.143737	-0.571786	-0.000196
H57	H	1.093148	-0.622775	0.095102
H58	H	1.093142	-0.622773	-0.095459
H59	H	1.040158	-0.502614	0.095136
H60	H	1.040156	-0.502596	-0.095442
C61	C	1.082578	-0.287868	-0.140575
C62	C	1.040505	-0.301423	-0.000128
H63	H	1.128957	-0.320854	-0.140565
H64	H	1.054043	-0.297049	-0.235841
H65	H	1.093278	-0.236510	-0.140550
H66	H	1.029800	-0.352780	-0.000159
H67	H	1.069047	-0.292248	0.095162
C68	C	0.163713	0.098308	-0.443546
C69	C	0.112385	0.097490	-0.312827
H70	H	0.136937	0.097877	-0.544624
H71	H	0.188650	0.142916	-0.437350
H72	H	0.200357	0.054678	-0.437328
H73	H	0.075744	0.141124	-0.319038
H74	H	0.087436	0.052878	-0.319026
C75	C	0.684878	-0.600989	-0.000175
C76	C	0.744595	-0.660332	-0.000156
H77	H	0.637651	-0.621570	-0.000196
H78	H	0.688228	-0.570583	0.095100
H79	H	0.688252	-0.570576	-0.095461
H80	H	0.741225	-0.690742	0.095137
H81	H	0.741244	-0.690751	-0.095441
C82	C	0.472914	0.038040	0.321665
C83	C	0.509666	0.103810	0.312563
H84	H	0.446139	0.037601	0.422755
H85	H	0.438109	0.037492	0.232987
H86	H	0.509575	-0.005576	0.315452
H87	H	0.473004	0.147427	0.318763
H88	H	0.544474	0.104365	0.401265
H89	H	0.123594	0.097661	0.270061
C90	C	1.018351	-0.774429	-0.000181
C91	C	1.034150	-0.698735	-0.000165
H92	H	1.064727	-0.807419	-0.000200
H93	H	0.989810	-0.783611	0.095093
H94	H	0.989810	-0.783595	-0.095468
H95	H	1.062687	-0.689568	0.095129
H96	H	1.062703	-0.689549	-0.095449
C97	C	0.743750	-0.448672	-0.140602
C98	C	0.747240	-0.494621	-0.000141
H99	H	0.697370	-0.415690	-0.140604
H100	H	0.785369	-0.419311	-0.140595
H101	H	0.746133	-0.479856	-0.235868
H102	H	0.744863	-0.463438	0.095126
H103	H	0.705610	-0.523985	-0.000133
C104	C	0.764271	-0.342575	-0.000109
C105	C	0.750952	-0.263018	-0.000118
H106	H	0.717040	-0.363148	-0.000089
H107	H	0.792397	-0.359264	-0.095387
H108	H	0.792401	-0.359265	0.095174
H109	H	0.722827	-0.246326	-0.095408
H110	H	0.722814	-0.246321	0.095170
H111	H	0.520940	0.104016	-0.270335
C112	C	0.355723	0.101372	-0.281350
C113	C	0.278099	0.100138	-0.312804
H114	H	0.382512	0.101801	-0.382425
H115	H	0.362801	0.145691	-0.220159
H116	H	0.374500	0.057453	-0.220156
H117	H	0.259319	0.144060	-0.373988
H118	H	0.271016	0.055814	-0.374021
C119	C	0.753030	0.107712	-0.281318
C120	C	0.675406	0.106478	-0.312767
H121	H	0.779819	0.108136	-0.382395
H122	H	0.760110	0.152033	-0.220135
H123	H	0.771808	0.063794	-0.220118
H124	H	0.656627	0.150398	-0.373958
H125	H	0.668322	0.062152	-0.373977
C126	C	0.355682	0.101371	0.281079
C127	C	0.278055	0.100124	0.312517
H128	H	0.382456	0.101806	0.382159
H129	H	0.374474	0.057462	0.219903
H130	H	0.362761	0.145700	0.219874
H131	H	0.270976	0.055792	0.373712
H132	H	0.259258	0.144037	0.373719
