data_functionalizedCrystal
_audit_creation_method	'MofGen! by Chris Wilmer'
_symmetry_space_group_name_H-M	'P1'
_symmetry_Int_Tables_number	1
_symmetry_cell_setting	triclinic
loop_
_symmetry_equiv_pos_as_xyz
  x,y,z
_cell_length_a	10.654550
_cell_length_b	12.837942
_cell_length_c	9.130313
_cell_angle_alpha	89.996012
_cell_angle_beta	89.999724
_cell_angle_gamma	89.656935
loop_
_atom_site_label
_atom_site_type_symbol
_atom_site_fract_x
_atom_site_fract_y
_atom_site_fract_z
O1	O	1.683741	0.145723	-0.121688
O2	O	2.183741	0.645723	0.378312
O3	O	1.319778	0.159606	-0.121715
O4	O	1.819778	0.659606	0.378285
O5	O	1.493689	0.001704	-0.121693
O6	O	1.993689	0.501704	0.378307
O7	O	1.509830	0.303626	-0.121710
O8	O	2.009830	0.803626	0.378290
O9	O	1.493675	0.001699	0.121906
O10	O	1.993675	0.501699	0.621906
O11	O	1.319764	0.159602	0.121884
O12	O	1.819764	0.659602	0.621884
O13	O	1.683728	0.145718	0.121911
O14	O	2.183728	0.645718	0.621911
Cu15	Cu	1.501745	0.152660	0.144140
Cu16	Cu	2.001745	0.652660	0.644140
Cu17	Cu	1.501761	0.152665	-0.143944
Cu18	Cu	2.001761	0.652665	0.356056
O19	O	1.509816	0.303621	0.121889
O20	O	2.009816	0.803621	0.621889
C21	C	1.272862	0.158585	0.000081
C22	C	1.772862	0.658585	0.500081
C23	C	1.133086	0.155535	0.000071
C24	C	1.633086	0.655535	0.500071
C25	C	1.063746	0.248505	0.000070
C26	C	1.563746	0.748505	0.500070
C27	C	0.932411	0.245633	0.000096
C28	C	1.432411	0.745633	0.500096
C29	C	0.939770	0.056812	0.000117
C30	C	1.439770	0.556812	0.500117
C31	C	1.071101	0.059685	0.000102
C32	C	1.571101	0.559685	0.500102
C33	C	1.488230	-0.036958	0.000105
C34	C	1.988230	0.463042	0.500105
C35	C	1.471967	-0.152152	0.000101
C36	C	1.971967	0.347848	0.500101
C37	C	1.667472	-0.391705	0.000085
C38	C	2.167472	0.108295	0.500085
C39	C	1.652197	-0.499941	0.000082
C40	C	2.152197	0.000059	0.500082
C41	C	1.426146	-0.476861	0.000080
C42	C	1.926146	0.023139	0.500080
C43	C	1.441420	-0.368626	0.000084
C44	C	1.941420	0.131374	0.500084
C45	C	1.562087	-0.326052	0.000088
C46	C	2.062087	0.173948	0.500088
C47	C	1.577360	-0.217814	0.000103
C48	C	2.077360	0.282186	0.500103
C49	C	1.351309	-0.194737	0.000091
C50	C	1.851309	0.305263	0.500091
C51	C	1.336035	-0.302972	0.000087
C52	C	1.836035	0.197028	0.500087
C53	C	1.730644	0.146740	0.000111
C54	C	2.230644	0.646740	0.500111
C55	C	1.870420	0.149790	0.000112
C56	C	2.370420	0.649790	0.500112
C57	C	1.515276	0.342283	0.000087
C58	C	2.015276	0.842283	0.500087
C59	C	1.531538	0.457477	0.000081
C60	C	2.031538	0.957477	0.500081
N61	N	1.501742	0.152655	0.346762
N62	N	2.001742	0.652655	0.846762
N63	N	1.501772	0.152661	-0.346567
N64	N	2.001772	0.652661	0.153433
C65	C	1.578782	0.082766	0.423424
C66	C	2.078782	0.582766	0.923424
C67	C	1.578794	0.082766	0.576761
C68	C	2.078794	0.582766	1.076761
C69	C	1.424723	0.222554	0.576761
C70	C	1.924723	0.722554	1.076761
C71	C	1.424706	0.222548	0.423427
C72	C	1.924706	0.722548	0.923427
H73	H	1.127560	-0.016027	0.000107
H74	H	1.627560	0.483973	0.500107
H75	H	1.675613	-0.183153	0.000112
H76	H	2.175613	0.316847	0.500112
N77	N	1.205899	-0.348904	0.000092
N78	N	1.705899	0.151096	0.500092
H79	H	1.159149	-0.325029	0.090399
H80	H	1.659149	0.174971	0.590399
H81	H	1.159241	-0.325005	-0.090265
H82	H	1.659241	0.174995	0.409735
N83	N	1.765869	-0.570746	0.000091
N84	N	2.265869	-0.070746	0.500091
H85	H	1.764568	-0.616171	0.090394
H86	H	2.264568	-0.116171	0.590394
H87	H	1.764512	-0.616096	-0.090270
H88	H	2.264512	-0.116096	0.409730
H89	H	1.361964	0.279461	0.361005
H90	H	1.861964	0.779461	0.861005
H91	H	1.641508	0.025853	0.361007
H92	H	2.141508	0.525853	0.861007
H93	H	0.889286	-0.021225	0.000151
H94	H	1.389286	0.478775	0.500151
H95	H	1.641526	0.025854	0.639174
H96	H	2.141526	0.525854	1.139174
N97	N	0.857626	0.345911	0.000075
N98	N	1.357626	0.845911	0.500075
H99	H	0.765021	0.329551	0.000093
H100	H	1.265021	0.829551	0.500093
H101	H	0.878986	0.387644	0.090368
H102	H	1.378986	0.887644	0.590368
H103	H	1.114209	0.326552	0.000056
H104	H	1.614209	0.826552	0.500056
N105	N	1.341638	0.297936	0.659449
N106	N	1.841638	0.797936	1.159449
H107	H	1.353340	0.287338	0.768219
H108	H	1.853340	0.787338	1.268219
H109	H	1.364953	0.371651	0.632629
H110	H	1.864953	0.871651	1.132629
H111	H	1.765723	-0.357041	0.000103
H112	H	2.265723	0.142959	0.500103
H113	H	1.265497	-0.141269	0.000105
H114	H	1.765497	0.358731	0.500105
H115	H	1.327904	-0.511544	0.000061
H116	H	1.827904	-0.011544	0.500061
