data_functionalizedCrystal
_audit_creation_method	'MofGen! by Chris Wilmer'
_symmetry_space_group_name_H-M	'P1'
_symmetry_Int_Tables_number	1
_symmetry_cell_setting	triclinic
loop_
_symmetry_equiv_pos_as_xyz
  x,y,z
_cell_length_a	19.188930
_cell_length_b	19.188928
_cell_length_c	8.965430
_cell_angle_alpha	89.986605
_cell_angle_beta	90.011458
_cell_angle_gamma	96.855705
loop_
_atom_site_label
_atom_site_type_symbol
_atom_site_fract_x
_atom_site_fract_y
_atom_site_fract_z
O1	O	0.926137	-0.087170	0.124543
O2	O	1.259470	0.246163	0.457876
O3	O	1.592803	0.579497	0.791210
O4	O	0.722825	-0.098904	0.124444
O5	O	1.056159	0.234429	0.457777
O6	O	1.389492	0.567763	0.791111
O7	O	0.830349	0.008619	0.124458
O8	O	1.163682	0.341952	0.457792
O9	O	1.497016	0.675285	0.791125
O10	O	0.818613	-0.194693	0.124528
O11	O	1.151946	0.138641	0.457862
O12	O	1.485280	0.471974	0.791195
O13	O	0.830354	0.008626	-0.123620
O14	O	1.163688	0.341960	0.209713
O15	O	1.497021	0.675293	0.543046
O16	O	0.722831	-0.098897	-0.123635
O17	O	1.056164	0.234437	0.209698
O18	O	1.389497	0.567770	0.543032
O19	O	0.926142	-0.087162	-0.123536
O20	O	1.259475	0.246171	0.209797
O21	O	1.592809	0.579504	0.543131
Cu22	Cu	0.824487	-0.093029	-0.146237
Cu23	Cu	1.157820	0.240305	0.187096
Cu24	Cu	1.491154	0.573638	0.520430
Cu25	Cu	0.824481	-0.093038	0.147145
Cu26	Cu	1.157814	0.240296	0.480478
Cu27	Cu	1.491147	0.573629	0.813812
O28	O	0.818618	-0.194685	-0.123551
O29	O	1.151952	0.138648	0.209783
O30	O	1.485285	0.471981	0.543116
C31	C	0.696817	-0.098520	0.000391
C32	C	1.030150	0.234813	0.333724
C33	C	1.363484	0.568146	0.667058
C34	C	0.619313	-0.097380	0.000352
C35	C	0.952646	0.235954	0.333685
C36	C	1.285979	0.569287	0.667018
C37	C	0.574388	-0.160471	0.000397
C38	C	0.907721	0.172863	0.333730
C39	C	1.241055	0.506196	0.667063
C40	C	0.501564	-0.159399	0.000413
C41	C	0.834898	0.173934	0.333746
C42	C	1.168231	0.507268	0.667079
C43	C	0.473668	-0.095233	0.000414
C44	C	0.807002	0.238101	0.333747
C45	C	1.140335	0.571434	0.667080
C46	C	0.518603	-0.032134	0.000360
C47	C	0.851936	0.301200	0.333693
C48	C	1.185269	0.634533	0.667027
C49	C	0.591425	-0.033207	0.000329
C50	C	0.924758	0.300126	0.333662
C51	C	1.258091	0.633460	0.666996
N52	N	0.365687	-0.046188	0.084889
N53	N	0.699020	0.287145	0.418222
N54	N	1.032353	0.620478	0.751556
N55	N	0.296508	-0.045173	0.084922
N56	N	0.629841	0.288160	0.418255
N57	N	0.963175	0.621494	0.751588
C58	C	0.254260	-0.091995	0.000504
C59	C	0.587593	0.241339	0.333837
C60	C	0.920926	0.574672	0.667170
N61	N	0.283802	-0.139881	-0.083929
N62	N	0.617135	0.193453	0.249404
N63	N	0.950468	0.526786	0.582737
N64	N	0.352986	-0.140898	-0.083955
N65	N	0.686320	0.192435	0.249378
N66	N	1.019653	0.525768	0.582712
C67	C	0.394706	-0.094062	0.000446
C68	C	0.728039	0.239272	0.333780
C69	C	1.061372	0.572605	0.667113
C70	C	0.130371	-0.153928	0.000564
C71	C	0.463704	0.179405	0.333897
C72	C	0.797037	0.512739	0.667231
C73	C	0.057546	-0.152854	0.000571
C74	C	0.390879	0.180480	0.333904
C75	C	0.724213	0.513813	0.667238
C76	C	0.074586	-0.025586	0.000533
C77	C	0.407919	0.307747	0.333867
C78	C	0.741253	0.641080	0.667200
C79	C	0.147409	-0.026662	0.000512
C80	C	0.480742	0.306671	0.333845
C81	C	0.814076	0.640004	0.667178
C82	C	0.175297	-0.090835	0.000534
C83	C	0.508630	0.242498	0.333867
C84	C	0.841963	0.575832	0.667201
C85	C	0.829972	0.034634	0.000412
C86	C	1.163305	0.367967	0.333746
C87	C	1.496639	0.701300	0.667079
C88	C	0.828832	0.112138	0.000392
C89	C	1.162165	0.445472	0.333726
C90	C	1.495499	0.778805	0.667059
C91	C	0.891923	0.157062	0.000412
C92	C	1.225256	0.490395	0.333746
C93	C	1.558590	0.823729	0.667079
C94	C	0.890852	0.229886	0.000430
C95	C	1.224185	0.563219	0.333763
C96	C	1.557519	0.896553	0.667096
C97	C	0.826686	0.257783	0.000397
C98	C	1.160020	0.591116	0.333730
C99	C	1.493353	0.924449	0.667063
C100	C	0.763587	0.212849	0.000385
C101	C	1.096920	0.546182	0.333718
C102	C	1.430253	0.879515	0.667052
C103	C	0.764660	0.140027	0.000383
C104	C	1.097993	0.473360	0.333716
C105	C	1.431326	0.806693	0.667050
N106	N	0.777642	0.365790	-0.084062
N107	N	1.110975	0.699124	0.249271
N108	N	1.444308	1.032457	0.582604
N109	N	0.776627	0.434969	-0.084064
N110	N	1.109960	0.768302	0.249270
N111	N	1.443293	1.101636	0.582603
C112	C	0.823450	0.477192	0.000407
C113	C	1.156783	0.810525	0.333740
C114	C	1.490117	1.143858	0.667073
N115	N	0.871337	0.447623	0.084859
N116	N	1.204670	0.780957	0.418193
N117	N	1.538004	1.114290	0.751526
N118	N	0.872354	0.378439	0.084854
N119	N	1.205687	0.711772	0.418187
N120	N	1.539021	1.045105	0.751521
C121	C	0.825516	0.336745	0.000400
C122	C	1.158849	0.670079	0.333733
C123	C	1.492182	1.003412	0.667067
C124	C	0.885384	0.601080	0.000448
C125	C	1.218718	0.934413	0.333781
C126	C	1.552051	1.267747	0.667114
C127	C	0.884311	0.673905	0.000474
C128	C	1.217644	1.007238	0.333807
C129	C	1.550977	1.340572	0.667141
C130	C	0.757043	0.656866	0.000414
C131	C	1.090377	0.990199	0.333748
C132	C	1.423710	1.323533	0.667081
C133	C	0.758119	0.584043	0.000403
C134	C	1.091452	0.917376	0.333736
C135	C	1.424786	1.250710	0.667070
C136	C	0.822291	0.556155	0.000413
C137	C	1.155625	0.889488	0.333746
C138	C	1.488958	1.222821	0.667079
C139	C	0.952150	-0.087546	0.000520
C140	C	1.285484	0.245787	0.333853
C141	C	1.618817	0.579121	0.667187
C142	C	1.029655	-0.088687	0.000569
C143	C	1.362988	0.244647	0.333903
C144	C	1.696322	0.577980	0.667236
C145	C	0.818998	0.779300	0.000477
C146	C	1.152331	1.112634	0.333811
C147	C	1.485664	1.445967	0.667144
C148	C	0.820144	0.701797	0.000444
C149	C	1.153477	1.035130	0.333777
C150	C	1.486811	1.368463	0.667110
N151	N	0.824477	-0.093039	0.353494
N152	N	1.157810	0.240294	0.686827
N153	N	1.491143	0.573628	1.020161
N154	N	0.824496	-0.093022	-0.352586
N155	N	1.157830	0.240311	-0.019253
N156	N	1.491163	0.573645	0.314081
C157	C	0.774654	-0.142670	0.450784
C158	C	1.107987	0.190664	0.784117
C159	C	1.441320	0.523997	1.117450
C160	C	0.761461	-0.079567	0.550171
C161	C	1.094795	0.253767	0.883504
C162	C	1.428128	0.587100	1.216838
C163	C	0.837658	-0.156120	0.550234
C164	C	1.170991	0.177214	0.883568
C165	C	1.504325	0.510547	1.216901
C166	C	0.811253	-0.029904	0.450692
C167	C	1.144586	0.303429	0.784026
C168	C	1.477920	0.636763	1.117359
C169	C	0.887477	-0.106498	0.450747
C170	C	1.220810	0.226835	0.784080
C171	C	1.554143	0.560168	1.117414
C172	C	0.874311	-0.043350	0.550089
C173	C	1.207645	0.289984	0.883423
C174	C	1.540978	0.623317	1.216756
H175	H	0.183988	0.024713	0.000483
H176	H	0.517321	0.358046	0.333816
H177	H	0.850654	0.691380	0.667150
H178	H	0.708193	-0.068173	0.593854
H179	H	1.041526	0.265160	0.927188
H180	H	1.374860	0.598494	1.260521
H181	H	0.628003	0.018171	0.000293
H182	H	0.961336	0.351504	0.333627
H183	H	1.294670	0.684838	0.666960
H184	H	0.800050	0.023461	0.407152
H185	H	1.133383	0.356795	0.740486
H186	H	1.466717	0.690128	1.073819
H187	H	0.935689	0.710482	0.000499
H188	H	1.269023	1.043816	0.333832
H189	H	1.602356	1.377149	0.667165
H190	H	0.153078	-0.206181	0.000560
H191	H	0.486411	0.127152	0.333894
H192	H	0.819745	0.460486	0.667227
H193	H	0.916456	-0.001325	0.593418
H194	H	1.249790	0.332008	0.926751
H195	H	1.583123	0.665341	1.260084
H196	H	0.020968	-0.204232	0.000599
H197	H	0.354302	0.129101	0.333932
H198	H	0.687635	0.462435	0.667266
H199	H	0.597089	-0.212725	0.000418
H200	H	0.930422	0.120608	0.333751
H201	H	1.263756	0.453942	0.667085
H202	H	0.937637	0.578372	0.000462
H203	H	1.270971	0.911706	0.333795
H204	H	1.604304	1.245039	0.667129
H205	H	0.848808	-0.209475	0.593931
H206	H	1.182141	0.123858	0.927264
H207	H	1.515474	0.457191	1.260597
H208	H	0.711342	0.235567	0.000362
H209	H	1.044676	0.568900	0.333695
H210	H	1.378009	0.902234	0.667028
H211	H	0.944177	0.134361	0.000425
H212	H	1.277511	0.467694	0.333759
H213	H	1.610844	0.801027	0.667092
H214	H	0.940728	-0.117916	0.407038
H215	H	1.274062	0.215418	0.740371
H216	H	1.607395	0.548751	1.073704
H217	H	0.713281	0.103449	0.000366
H218	H	1.046615	0.436782	0.333699
H219	H	1.379948	0.770115	0.667033
H220	H	0.464980	-0.210777	0.000445
H221	H	0.798313	0.122557	0.333779
H222	H	1.131646	0.455890	0.667112
H223	H	0.051874	0.026659	0.000627
H224	H	0.385207	0.359992	0.333960
H225	H	0.718540	0.693326	0.667293
H226	H	0.495885	0.020111	0.000381
H227	H	0.829218	0.353444	0.333715
H228	H	1.162552	0.686778	0.667048
H229	H	0.942230	0.266470	0.000452
H230	H	1.275564	0.599804	0.333785
H231	H	1.608897	0.933137	0.667119
H232	H	0.704798	0.679579	0.000395
H233	H	1.038132	1.012912	0.333728
H234	H	1.371465	1.346245	0.667062
H235	H	0.706743	0.547464	0.000378
H236	H	1.040076	0.880798	0.333712
H237	H	1.373410	1.214131	0.667045
H238	H	0.732484	-0.184600	0.407179
H239	H	1.065818	0.148733	0.740512
H240	H	1.399151	0.482067	1.073845
