data_functionalizedCrystal
_audit_creation_method	'MofGen! by Chris Wilmer'
_symmetry_space_group_name_H-M	'P1'
_symmetry_Int_Tables_number	1
_symmetry_cell_setting	triclinic
loop_
_symmetry_equiv_pos_as_xyz
  x,y,z
_cell_length_a	15.299448
_cell_length_b	15.297475
_cell_length_c	15.297327
_cell_angle_alpha	91.625546
_cell_angle_beta	88.404991
_cell_angle_gamma	110.793752
loop_
_atom_site_label
_atom_site_type_symbol
_atom_site_fract_x
_atom_site_fract_y
_atom_site_fract_z
Zn1	Zn	-0.839934	-1.444340	0.464129
Zn2	Zn	-0.339934	-0.944340	0.964129
Zn3	Zn	-0.708681	-1.392990	0.628820
Zn4	Zn	-0.208681	-0.892990	1.128820
Zn5	Zn	-0.657557	-1.261892	0.464103
Zn6	Zn	-0.157557	-0.761892	0.964103
Zn7	Zn	-0.831040	-1.270729	0.586397
Zn8	Zn	-0.331040	-0.770729	1.086397
O9	O	-0.759303	-1.342488	0.535862
O10	O	-0.259303	-0.842488	1.035862
O11	O	-0.847641	-1.565050	0.503741
O12	O	-0.347641	-1.065050	1.003741
O13	O	-0.574367	-1.350411	0.624714
O14	O	-0.074367	-0.850411	1.124714
O15	O	-0.664077	-1.303887	0.344002
O16	O	-0.164077	-0.803887	0.844002
O17	O	-0.751210	-1.527323	0.624739
O18	O	-0.251210	-1.027323	1.124739
O19	O	-0.798068	-1.437930	0.344021
O20	O	-0.298068	-0.937930	0.844021
O21	O	-0.536806	-1.254094	0.503697
O22	O	-0.036806	-0.754094	1.003697
O23	O	-0.655452	-1.135542	0.462561
O24	O	-0.155452	-0.635542	0.962561
O25	O	-0.959752	-1.318947	0.552434
O26	O	-0.459752	-0.818947	1.052434
O27	O	-0.782909	-1.142034	0.552410
O28	O	-0.282909	-0.642034	1.052410
O29	O	-0.966287	-1.446499	0.462604
O30	O	-0.466287	-0.946499	0.962604
O31	O	-0.742586	-1.358979	0.743297
O32	O	-0.242586	-0.858979	1.243297
O33	O	-0.832482	-1.269154	0.712129
O34	O	-0.332482	-0.769154	1.212129
C35	C	-0.712668	-1.105723	0.502880
C36	C	-0.212668	-0.605723	1.002880
C37	C	-0.692742	-1.004436	0.488787
C38	C	-0.192742	-0.504436	0.988787
C39	C	-0.792141	-1.309482	0.758856
C40	C	-0.292141	-0.809482	1.258856
C41	C	-0.806236	-1.295452	0.854260
C42	C	-0.306236	-0.795452	1.354260
C43	C	-0.997012	-1.389436	0.502790
C44	C	-0.497012	-0.889436	1.002790
C45	C	-1.098310	-1.409443	0.488697
C46	C	-0.598310	-0.909443	0.988697
C47	C	-1.149299	-1.485253	0.435304
C48	C	-0.649299	-0.985253	0.935304
C49	C	-1.244470	-1.504044	0.422050
C50	C	-0.744470	-1.004044	0.922050
C51	C	-1.288663	-1.447032	0.462193
C52	C	-0.788663	-0.947032	0.962193
C53	C	-1.237675	-1.371225	0.515593
C54	C	-0.737675	-0.871225	1.015593
C55	C	-1.142493	-1.352427	0.528842
C56	C	-0.642493	-0.852427	1.028842
C57	C	-1.281857	-1.314207	0.555732
C58	C	-0.781857	-0.814207	1.055732
C59	C	-1.230869	-1.238400	0.609131
C60	C	-0.730869	-0.738400	1.109131
C61	C	-1.135697	-1.219606	0.622378
C62	C	-0.635697	-0.719606	1.122378
C63	C	-1.091504	-1.276618	0.582235
C64	C	-0.591504	-0.776618	1.082235
C65	C	-1.377039	-1.333004	0.542482
C66	C	-0.877039	-0.833004	1.042482
C67	C	-1.370233	-1.200179	0.636021
C68	C	-0.870233	-0.700179	1.136021
C69	C	-1.275062	-1.181388	0.649274
C70	C	-0.775062	-0.681388	1.149274
C71	C	-0.522520	-1.295783	0.568751
C72	C	-0.022520	-0.795783	1.068751
C73	C	-0.421222	-1.275989	0.582628
C74	C	0.078778	-0.775989	1.082628
C75	C	-0.806121	-1.580176	0.568975
C76	C	-0.306121	-1.080176	1.068975
C77	C	-0.826071	-1.681465	0.583085
C78	C	-0.326071	-1.181465	1.083085
C79	C	-0.901720	-0.732422	0.636590
C80	C	-0.401720	-0.232422	1.136590
C81	C	-0.920439	-0.827585	0.649837
C82	C	-0.420439	-0.327585	1.149837
C83	C	-0.863517	-0.871802	0.609576
C84	C	-0.363517	-0.371802	1.109576
C85	C	-0.787871	-0.820847	0.556065
C86	C	-0.287871	-0.320847	1.056065
C87	C	-0.769145	-0.725673	0.542822
C88	C	-0.269145	-0.225673	1.042822
C89	C	-0.730943	-0.865054	0.515807
C90	C	-0.230943	-0.365054	1.015807
C91	C	-0.655297	-0.814099	0.462297
C92	C	-0.155297	-0.314099	0.962297
C93	C	-0.636575	-0.718934	0.449055
C94	C	-0.136575	-0.218934	0.949055
C95	C	-0.693497	-0.674716	0.489317
C96	C	-0.193497	-0.174716	0.989317
C97	C	-0.749669	-0.960228	0.529051
C98	C	-0.249669	-0.460228	1.029051
C99	C	-0.617094	-0.953479	0.435282
C100	C	-0.117094	-0.453479	0.935282
C101	C	-0.598374	-0.858316	0.422035
C102	C	-0.098374	-0.358316	0.922035
C103	C	-0.726362	-1.375651	0.311999
C104	C	-0.226362	-0.875651	0.811999
C105	C	-0.712324	-1.389783	0.216602
C106	C	-0.212324	-0.889783	0.716602
C107	C	-0.658948	-1.443203	1.187982
C108	C	-0.158948	-0.943203	1.687982
C109	C	-0.645701	-1.456384	1.098345
C110	C	-0.145701	-0.956384	1.598345
C111	C	-0.685833	-1.416152	1.037319
C112	C	-0.185833	-0.916152	1.537319
C113	C	-0.739216	-1.362737	1.065939
C114	C	-0.239216	-0.862737	1.565939
C115	C	-0.752459	-1.349548	1.155585
C116	C	-0.252459	-0.849548	1.655585
C117	C	-0.779344	-1.322498	1.004923
C118	C	-0.279344	-0.822498	1.504923
C119	C	-0.832727	-1.269082	1.033543
C120	C	-0.332727	-0.769082	1.533543
C121	C	-0.845968	-1.255897	1.123180
C122	C	-0.345968	-0.755897	1.623180
C123	C	-0.805835	-1.296128	1.184206
C124	C	-0.305835	-0.796128	1.684206
C125	C	-0.766101	-1.335686	0.915277
C126	C	-0.266101	-0.835686	1.415277
C127	C	-0.859612	-1.242032	0.882881
C128	C	-0.359612	-0.742032	1.382881
C129	C	-0.872860	-1.228851	0.972518
C130	C	-0.372860	-0.728851	1.472518
H131	H	-1.418543	-1.394726	0.499002
H132	H	-0.918543	-0.894726	0.999002
H133	H	-0.811261	-1.001707	0.572619
H134	H	-0.311261	-0.501707	1.072619
H135	H	-1.366155	-1.462336	0.451398
H136	H	-0.866155	-0.962336	0.951398
H137	H	-1.285977	-1.565768	0.378574
H138	H	-0.785977	-1.065768	0.878574
H139	H	-0.889423	-1.212390	1.146479
H140	H	-0.389423	-0.712390	1.646479
H141	H	-0.892290	-1.209269	0.833193
H142	H	-0.392290	-0.709269	1.333193
H143	H	-0.916324	-1.185359	0.995833
H144	H	-0.416324	-0.685359	1.495833
H145	H	-0.675043	-1.426886	0.964334
H146	H	-0.175043	-0.926886	1.464334
H147	H	-0.574971	-0.677445	0.405493
H148	H	-0.074971	-0.177445	0.905493
H149	H	-0.570742	-0.989480	0.402499
H150	H	-0.070742	-0.489480	0.902499
H151	H	-0.982029	-0.869065	0.693408
H152	H	-0.482029	-0.369065	1.193408
H153	H	-0.626271	-1.475947	1.237675
H154	H	-0.126271	-0.975947	1.737675
H155	H	-1.113306	-1.531660	0.402620
H156	H	-0.613306	-1.031660	0.902620
H157	H	-1.094184	-1.157876	0.665857
H158	H	-0.594184	-0.657876	1.165857
H159	H	-1.014009	-1.261324	0.593026
H160	H	-0.514009	-0.761324	1.093026
H161	H	-1.233535	-1.119664	0.692752
H162	H	-0.733535	-0.619664	1.192752
H163	H	-0.602236	-1.499873	1.075046
H164	H	-0.102236	-0.999873	1.575046
H165	H	-1.406212	-1.153750	0.668702
H166	H	-0.906212	-0.653750	1.168702
H167	H	-0.878764	-0.949289	0.620364
H168	H	-0.378764	-0.449289	1.120364
H169	H	-0.948053	-0.696409	0.669371
H170	H	-0.448053	-0.196409	1.169371
H171	H	-0.678261	-0.597227	0.478532
H172	H	-0.178261	-0.097227	0.978532
H173	H	-0.536782	-0.816815	0.378466
H174	H	-0.036782	-0.316815	0.878466
H175	H	-0.722636	-1.379177	0.891983
H176	H	-0.222636	-0.879177	1.391983
H177	H	-0.816621	-1.285402	1.257197
H178	H	-0.316621	-0.785402	1.757197
