data_functionalizedCrystal
_audit_creation_method	'MofGen! by Chris Wilmer'
_symmetry_space_group_name_H-M	'P1'
_symmetry_Int_Tables_number	1
_symmetry_cell_setting	triclinic
loop_
_symmetry_equiv_pos_as_xyz
  x,y,z
_cell_length_a	27.440280
_cell_length_b	23.096457
_cell_length_c	23.096457
_cell_angle_alpha	60.007374
_cell_angle_beta	90.009350
_cell_angle_gamma	59.996306
loop_
_atom_site_label
_atom_site_type_symbol
_atom_site_fract_x
_atom_site_fract_y
_atom_site_fract_z
Zr1	Zr	0.469490	0.633697	-0.075988
O2	O	0.391656	0.754493	-0.168433
O3	O	0.493348	0.512907	-0.047650
O4	O	0.493327	0.633696	-0.168439
O5	O	0.391697	0.633702	0.047638
O6	O	0.573528	0.633689	-0.168441
O7	O	0.391678	0.633703	-0.047644
O8	O	0.573566	0.417619	0.047628
O9	O	0.391658	0.849772	-0.168432
O10	O	0.563379	0.562582	-0.035564
O11	O	0.503540	0.562586	0.035546
O12	O	0.503514	0.704800	-0.106668
O13	O	0.443675	0.704804	-0.035558
Zr14	Zr	0.597432	0.633683	0.075972
Zr15	Zr	0.597401	0.633685	-0.075992
Zr16	Zr	0.469520	0.633694	0.075976
Zr17	Zr	0.469493	0.785656	-0.075986
Zr18	Zr	0.597428	0.481723	0.075969
O19	O	0.573573	0.754473	0.047633
O20	O	0.573530	0.754477	-0.168440
O21	O	0.391700	0.754489	0.047639
O22	O	0.675265	0.512887	0.168417
O23	O	0.675222	0.512891	-0.047656
O24	O	0.493391	0.512903	0.168423
O25	O	0.675224	0.633678	-0.047654
O26	O	0.573595	0.633683	0.168422
O27	O	0.493394	0.633691	0.168425
O28	O	0.675243	0.633676	0.047628
O29	O	0.493331	0.849763	-0.168435
O30	O	0.573590	0.417617	0.168419
O31	O	0.675263	0.417608	0.168416
O32	O	0.675239	0.417610	0.047625
O33	O	0.391683	0.849770	-0.047641
O34	O	0.493355	0.849761	-0.047644
O35	O	0.563407	0.562580	0.106652
O36	O	0.623246	0.562575	0.035542
O37	O	0.563382	0.704794	-0.035562
O38	O	0.503543	0.704798	0.035548
C39	C	0.533457	0.443612	-0.000011
C40	C	0.533455	0.379101	-0.000012
C41	C	0.489277	-0.028925	-0.052498
C42	C	0.489272	0.031694	-0.052498
C43	C	0.533465	0.009511	-0.000009
C44	C	0.577658	-0.073299	0.052495
C45	C	0.577658	-0.133916	0.052497
N46	N	0.585864	0.065608	0.015883
N47	N	0.585861	0.123194	0.015876
C48	C	0.533466	0.192141	-0.000011
N49	N	0.481070	0.201335	-0.015906
N50	N	0.481073	0.143745	-0.015902
C51	C	0.533469	0.075233	-0.000005
C52	C	0.489268	0.340671	-0.052508
C53	C	0.489262	0.401288	-0.052503
C54	C	0.577653	0.296293	0.052487
C55	C	0.577654	0.235678	0.052485
C56	C	0.533461	0.257872	-0.000016
C57	C	0.373463	0.633704	-0.000003
C58	C	0.319161	0.633709	-0.000001
C59	C	0.084485	0.633678	0.052498
C60	C	0.135504	0.633680	0.052500
O61	O	0.161914	0.633652	0.097156
N62	N	0.161007	0.633687	0.000005
C63	C	0.135491	0.633684	-0.052491
O64	O	0.161868	0.633689	-0.097142
C65	C	0.084475	0.633676	-0.052489
C66	C	0.058971	0.633677	0.000005
C67	C	0.058982	0.633678	0.104989
C68	C	0.007965	0.633678	0.104986
C69	C	-0.017549	0.633677	0.052494
C70	C	0.007955	0.633677	0.000003
C71	C	0.058962	0.633667	-0.104981
C72	C	0.007943	0.633658	-0.104974
C73	C	-0.017561	0.633659	-0.052480
C74	C	-0.068576	0.633675	-0.052492
N75	N	-0.094078	0.633668	0.000003
C76	C	-0.068565	0.633669	0.052496
C77	C	0.242629	0.633699	-0.052491
C78	C	0.293641	0.633713	-0.052496
C79	C	0.293652	0.633707	0.052495
C80	C	0.242636	0.633699	0.052498
C81	C	0.217126	0.633692	0.000004
C82	C	-0.175704	0.633669	0.052486
C83	C	-0.226726	0.633672	0.052478
C84	C	-0.226730	0.633673	-0.052512
C85	C	-0.175714	0.633674	-0.052505
C86	C	-0.150201	0.633669	-0.000000
O87	O	-0.095016	0.633700	-0.097124
O88	O	-0.094943	0.633653	0.097144
C89	C	0.693459	0.633676	-0.000014
C90	C	0.747760	0.633671	-0.000015
C91	C	0.533423	0.633693	-0.190092
C92	C	0.533410	0.633694	-0.254604
C93	C	0.533465	0.823768	-0.000005
C94	C	0.533466	0.888279	-0.000004
C95	C	0.502164	0.707928	-0.322023
C96	C	0.502179	0.707930	-0.382640
C97	C	0.533432	0.633692	-0.375833
C98	C	0.564685	0.559448	-0.308402
C99	C	0.564673	0.559449	-0.247787
N100	N	0.529119	0.578436	-0.443389
N101	N	0.529127	0.578440	-0.500973
C102	C	0.533469	0.633685	-0.558458
N103	N	0.537792	0.688938	-0.556191
N104	N	0.537781	0.688936	-0.498603
C105	C	0.533448	0.633683	-0.441555
C106	C	0.502238	0.707926	-0.691607
C107	C	0.502258	0.707924	-0.752223
C108	C	0.564759	0.559440	-0.677983
C109	C	0.564744	0.559444	-0.617369
C110	C	0.533480	0.633689	-0.624186
C111	C	0.533499	0.633687	0.190075
C112	C	0.533512	0.633686	0.254588
C113	C	0.693455	0.443597	-0.000016
C114	C	0.747755	0.379082	-0.000019
C115	C	0.533495	0.443609	0.190072
C116	C	0.533506	0.379097	0.254584
C117	C	0.693493	0.443594	0.190067
C118	C	0.747806	0.379078	0.254577
C119	C	0.373429	0.823786	-0.190083
C120	C	0.319116	0.888302	-0.254593
C121	C	0.373467	0.823782	0.000000
C122	C	0.319167	0.888298	0.000003
C123	C	0.533427	0.823771	-0.190089
C124	C	0.533415	0.888283	-0.254600
C125	C	0.742005	0.348788	-0.037143
C126	C	0.793021	0.288177	-0.037160
C127	C	0.849787	0.257857	-0.000048
C128	C	0.855536	0.288157	0.037077
C129	C	0.804520	0.348771	0.037089
C130	C	0.564762	0.348798	0.322002
C131	C	0.564770	0.288191	0.382624
C132	C	0.533527	0.257879	0.375825
C133	C	0.502267	0.288184	0.308400
C134	C	0.502255	0.348794	0.247780
C135	C	0.804553	0.348778	0.247753
C136	C	0.855591	0.288166	0.308361
C137	C	0.849881	0.257851	0.375792
C138	C	0.793128	0.288157	0.382615
C139	C	0.742091	0.348772	0.322008
C140	C	0.262369	0.918610	-0.247769
C141	C	0.211331	0.979240	-0.308377
C142	C	0.217041	1.009558	-0.375808
C143	C	0.273794	0.979249	-0.382631
C144	C	0.324830	0.918623	-0.322024
C145	C	0.324917	0.918598	0.037121
C146	C	0.273901	0.979226	0.037121
C147	C	0.217135	1.009548	0.000007
C148	C	0.211386	0.979245	-0.037116
C149	C	0.262401	0.918623	-0.037119
C150	C	0.564665	0.918575	-0.247779
C151	C	0.564666	0.979183	-0.308389
C152	C	0.533413	1.009501	-0.375819
C153	C	0.502162	0.979203	-0.382639
C154	C	0.502165	0.918593	-0.322030
H155	H	0.613633	0.278230	0.095228
C156	C	0.665026	0.137988	0.156253
C157	C	0.626235	0.144661	0.110181
H158	H	0.695021	0.081796	0.191871
H159	H	0.643207	0.163812	0.177815
H160	H	0.683167	0.163820	0.130316
H161	H	0.608090	0.118835	0.136117
H162	H	0.648057	0.118826	0.088618
C163	C	0.142368	1.047434	-0.149886
C164	C	0.148986	1.012574	-0.077903
H165	H	0.103843	1.068010	-0.175062
H166	H	0.171920	1.006998	-0.155202
H167	H	0.146844	1.090946	-0.168213
H168	H	0.144515	0.969057	-0.059575
H169	H	0.119425	1.053013	-0.072582
H170	H	0.788487	0.263465	0.437526
C171	C	0.430883	0.825666	0.070086
C172	C	0.387310	0.885278	0.077918
H173	H	0.469400	0.805099	0.095275
H174	H	0.426397	0.849310	0.021259
H175	H	0.426407	0.782153	0.088423
H176	H	0.391784	0.928794	0.059575
H177	H	0.391798	0.861635	0.126755
C178	C	0.592393	0.493516	-0.368355
C179	C	0.599037	0.477844	-0.300915
H180	H	0.613600	0.443133	-0.363729
H181	H	0.607793	0.524036	-0.393566
H182	H	0.551279	0.523996	-0.393501
H183	H	0.640150	0.447369	-0.275770
H184	H	0.583640	0.447310	-0.275693
H185	H	0.590206	0.498995	-0.672440
H186	H	0.590184	0.498995	-0.562472
H187	H	0.257711	0.893954	-0.067343
C188	C	0.142387	1.047367	-0.263717
C189	C	0.148954	1.012540	-0.300864
H190	H	0.103881	1.067918	-0.259074
H191	H	0.146850	1.090884	-0.288901
H192	H	0.171974	1.006912	-0.217977
H193	H	0.119370	1.052998	-0.346606
H194	H	0.144485	0.969018	-0.275680
C195	C	0.626455	0.924646	-0.180491
C196	C	0.599026	0.885253	-0.173664
H197	H	0.647674	0.904070	-0.134736
H198	H	0.596890	0.981868	-0.205672
H199	H	0.653413	0.914703	-0.205686
H200	H	0.572065	0.895202	-0.148474
H201	H	0.628595	0.828018	-0.148472
H202	H	0.476717	1.003898	-0.437549
C203	C	0.424375	0.269480	0.333537
C204	C	0.467939	0.254840	0.300942
H205	H	0.403191	0.248882	0.328939
H206	H	0.397393	0.326704	0.311421
H207	H	0.443000	0.242769	0.382362
H208	H	0.449314	0.281556	0.252115
H209	H	0.494925	0.197606	0.323056
C210	C	0.440371	0.924731	-0.401522
C211	C	0.467804	0.885309	-0.329535
H212	H	0.419153	0.904188	-0.406158
H213	H	0.469934	0.914781	-0.423613
H214	H	0.413412	0.981960	-0.423613
H215	H	0.494766	0.828081	-0.307446
H216	H	0.438236	0.895253	-0.307435
C217	C	0.842118	0.317876	0.149882
C218	C	0.810848	0.382054	0.077912
H219	H	0.846025	0.338423	0.175086
H220	H	0.880616	0.277449	0.155173
H221	H	0.820913	0.294242	0.168201
H222	H	0.832056	0.405684	0.059592
H223	H	0.772343	0.422496	0.072617
H224	H	0.891443	0.208494	0.425137
C225	C	0.814095	0.269529	-0.129750
C226	C	0.786693	0.254872	-0.077964
H227	H	0.810183	0.248972	-0.154941
H228	H	0.855199	0.242799	-0.107656
H229	H	0.795477	0.326761	-0.161782
H230	H	0.805313	0.197640	-0.045929
H231	H	0.745580	0.281600	-0.100058
H232	H	0.476709	0.768385	-0.327580
H233	H	0.590118	0.498997	-0.192890
H234	H	0.695788	0.373474	-0.067373
C235	C	-0.070264	0.633646	-0.151599
C236	C	-0.020098	0.633651	-0.162678
H237	H	-0.087571	0.633637	-0.187221
H238	H	-0.098614	0.681136	-0.153781
H239	H	-0.058625	0.586152	-0.106283
H240	H	-0.031738	0.681148	-0.207992
H241	H	0.008258	0.586155	-0.160503
H242	H	0.590205	0.373471	0.327551
C243	C	0.340829	0.973085	0.110520
C244	C	0.280229	1.012517	0.077937
H245	H	0.344736	0.993633	0.135722
H246	H	0.359423	0.983019	0.075398
H247	H	0.359424	0.915859	0.142548
H248	H	0.261636	1.069743	0.045905
H249	H	0.261628	1.002590	0.113064
C250	C	0.939889	0.121509	0.069649
C251	C	0.905861	0.191222	-0.000059
H252	H	0.974507	0.080372	0.069642
H253	H	0.916806	0.101657	0.089515
H254	H	0.951440	0.135219	0.097064
H255	H	0.894307	0.177513	-0.027472
H256	H	0.928948	0.211077	-0.019934
C257	C	0.424294	0.794075	-0.666535
C258	C	0.467881	0.789532	-0.699093
H259	H	0.403083	0.844458	-0.671162
H260	H	0.442899	0.749867	-0.617710
H261	H	0.397335	0.790993	-0.688661
H262	H	0.494843	0.792608	-0.676963
H263	H	0.449275	0.833752	-0.747927
C264	C	0.626568	0.294279	0.449889
C265	C	0.599140	0.254880	0.456732
H266	H	0.647789	0.273711	0.495640
H267	H	0.597001	0.351501	0.424704
H268	H	0.653523	0.284332	0.424693
H269	H	0.572181	0.264832	0.481924
H270	H	0.628710	0.197645	0.481927
C271	C	0.440491	0.342670	0.180518
C272	C	0.467905	0.382085	0.173674
H273	H	0.419286	0.363217	0.134768
H274	H	0.413528	0.352620	0.205699
H275	H	0.470069	0.285440	0.205720
H276	H	0.438326	0.439314	0.148477
H277	H	0.494869	0.372141	0.148482
C278	C	0.924527	0.319033	0.263694
C279	C	0.917965	0.254866	0.300840
H280	H	0.963031	0.298478	0.259045
H281	H	0.920068	0.342669	0.288882
H282	H	0.894937	0.359465	0.217956
H283	H	0.947553	0.214436	0.346580
H284	H	0.922430	0.231218	0.275652
H285	H	0.533541	0.208527	0.425191
C286	C	0.685489	0.342644	0.401504
C287	C	0.679715	0.382063	0.329516
H288	H	0.646981	0.363192	0.406141
H289	H	0.706689	0.352590	0.423593
H290	H	0.706707	0.285416	0.423595
H291	H	0.658502	0.439291	0.307426
H292	H	0.658507	0.372124	0.307418
H293	H	0.590113	1.003845	-0.302822
C294	C	0.312858	0.825677	-0.121886
C295	C	0.256082	0.885294	-0.173652
H296	H	0.308971	0.805113	-0.076131
H297	H	0.334056	0.849317	-0.127203
H298	H	0.334046	0.782163	-0.127209
H299	H	0.234895	0.928811	-0.168332
H300	H	0.234875	0.861655	-0.168332
C301	C	0.137166	0.633649	-0.151604
C302	C	0.086994	0.633649	-0.162677
H303	H	0.154470	0.633638	-0.187226
H304	H	0.165516	0.586167	-0.106292
H305	H	0.125533	0.681151	-0.153796
H306	H	0.098627	0.586143	-0.160480
H307	H	0.058638	0.681135	-0.208000
H308	H	0.809213	0.373451	0.192852
C309	C	0.567439	1.096314	-0.422202
C310	C	0.533410	1.076131	-0.442438
H311	H	0.567433	1.137452	-0.463328
H312	H	0.607241	1.049015	-0.394786
H313	H	0.550711	1.116175	-0.394776
H314	H	0.550140	1.056263	-0.469860
H315	H	0.493599	1.123438	-0.469865
H316	H	0.175479	1.058923	-0.425153
H317	H	0.278436	1.003942	-0.437541
H318	H	0.371035	0.893947	-0.327589
C319	C	0.178103	1.096361	0.040446
C320	C	0.161061	1.076179	0.000022
H321	H	0.143486	1.137491	0.040462
H322	H	0.201176	1.116225	0.020567
H323	H	0.201197	1.049053	0.087731
H324	H	0.137970	1.123486	-0.047264
H325	H	0.137978	1.056317	0.019899
H326	H	0.453291	-0.010847	-0.095247
H327	H	0.476816	0.768377	-0.807121
H328	H	0.453280	0.099119	-0.095238
H329	H	0.613639	-0.091357	0.095233
H330	H	0.613643	-0.201336	0.095245
H331	H	0.453283	0.358743	-0.095256
H332	H	-0.247490	0.633675	0.095225
C333	C	0.443396	0.509428	-0.176994
C334	C	0.440686	0.492305	-0.110211
H335	H	0.413409	0.565620	-0.212621
H336	H	0.437074	0.476503	-0.184500
H337	H	0.481543	0.497785	-0.179155
H338	H	0.402541	0.503942	-0.108049
H339	H	0.447004	0.525240	-0.102703
C340	C	-0.180846	0.633696	0.156250
C341	C	-0.147674	0.633685	0.110189
H342	H	-0.163546	0.633720	0.191866
H343	H	-0.180745	0.586201	0.177817
H344	H	-0.220742	0.681185	0.130305
H345	H	-0.107778	0.586193	0.136134
H346	H	-0.147768	0.681186	0.088621
C347	C	-0.037187	0.703671	0.159487
C348	C	-0.020056	0.633667	0.162698
H349	H	-0.054479	0.703657	0.195124
H350	H	-0.065551	0.751157	0.114184
H351	H	-0.003146	0.703667	0.166989
H352	H	-0.054098	0.633674	0.155192
H353	H	0.008309	0.586169	0.208012
C354	C	0.137186	0.633690	0.151622
C355	C	0.087020	0.633682	0.162694
H356	H	0.154492	0.633692	0.187250
H357	H	0.125551	0.681179	0.106314
H358	H	0.165542	0.586194	0.153804
H359	H	0.058662	0.681181	0.160507
H360	H	0.098653	0.586188	0.208013
C361	C	0.247782	0.633696	0.156274
C362	C	0.214609	0.633692	0.110205
H363	H	0.230483	0.633685	0.191904
H364	H	0.247683	0.681189	0.130344
H365	H	0.287678	0.586205	0.177827
H366	H	0.174714	0.681186	0.088647
H367	H	0.214702	0.586194	0.136138
H368	H	0.314397	0.633724	-0.095249
C369	C	0.371873	0.633698	0.099113
C370	C	0.321707	0.633698	0.110203
H371	H	0.389195	0.633688	0.134740
H372	H	0.360234	0.681191	0.053806
H373	H	0.400217	0.586206	0.101284
H374	H	0.293361	0.681194	0.108027
H375	H	0.333346	0.586201	0.155522
H376	H	0.221858	0.633699	-0.095243
H377	H	-0.154954	0.633685	-0.095257
C378	C	-0.304942	0.633658	-0.099114
C379	C	-0.254780	0.633667	-0.110208
H380	H	-0.322254	0.633645	-0.134729
H381	H	-0.333290	0.681150	-0.101296
H382	H	-0.293298	0.586165	-0.053795
H383	H	-0.266425	0.681163	-0.155525
H384	H	-0.226426	0.586170	-0.108032
H385	H	0.476734	0.768382	-0.437543
C386	C	0.924537	0.318949	0.050869
C387	C	0.917935	0.254816	0.077879
H388	H	0.963061	0.298358	0.076061
H389	H	0.894984	0.359378	0.056192
H390	H	0.920052	0.342597	0.002036
H391	H	0.922416	0.231171	0.126711
H392	H	0.947497	0.214372	0.072562
