data_functionalizedCrystal
_audit_creation_method	'MofGen! by Chris Wilmer'
_symmetry_space_group_name_H-M	'P1'
_symmetry_Int_Tables_number	1
_symmetry_cell_setting	triclinic
loop_
_symmetry_equiv_pos_as_xyz
  x,y,z
_cell_length_a	10.723024
_cell_length_b	10.723024
_cell_length_c	9.198806
_cell_angle_alpha	90.002012
_cell_angle_beta	89.997255
_cell_angle_gamma	95.532131
loop_
_atom_site_label
_atom_site_type_symbol
_atom_site_fract_x
_atom_site_fract_y
_atom_site_fract_z
O1	O	1.657188	-0.175024	-0.120849
O2	O	1.294035	-0.191778	-0.120860
O3	O	1.483988	-0.001825	-0.120849
O4	O	1.467235	-0.364977	-0.120860
O5	O	1.483973	-0.001824	0.120936
O6	O	1.294020	-0.191777	0.120925
O7	O	1.657173	-0.175024	0.120936
Cu8	Cu	1.475595	-0.183401	0.143008
Cu9	Cu	1.475613	-0.183401	-0.142931
O10	O	1.467220	-0.364977	0.120925
C11	C	1.482762	0.044675	0.000042
C12	C	1.479114	0.183229	0.000037
C13	C	1.247528	-0.190558	0.000031
C14	C	1.108974	-0.186911	0.000027
C15	C	1.703680	-0.176243	0.000042
C16	C	1.842234	-0.179891	0.000037
C17	C	1.917217	-0.073603	0.000038
C18	C	2.060420	-0.077371	0.000033
C19	C	1.468447	-0.411477	0.000031
C20	C	1.472094	-0.550031	0.000027
N21	N	1.475592	-0.183399	0.344122
C22	C	1.585401	0.258212	0.000038
C23	C	1.581634	0.401415	0.000033
N24	N	1.475626	-0.183393	-0.344045
C25	C	1.555347	-0.103292	0.416323
C26	C	1.555367	-0.103288	0.583736
H27	H	2.124853	0.013619	0.000025
H28	H	1.623611	-0.034707	0.354201
O29	O	1.891908	-0.291890	0.000094
C30	C	1.794386	-0.389985	0.000054
H31	H	1.705602	-0.354373	0.045832
H32	H	1.822384	-0.470351	0.070245
H33	H	1.776312	-0.424554	-0.115945
O34	O	1.690275	0.478145	-0.000161
C35	C	1.760225	0.454899	-0.125401
H36	H	1.730547	0.356396	-0.167147
H37	H	1.864228	0.463294	-0.097237
H38	H	1.742466	0.526206	-0.213088
H39	H	1.623653	-0.034709	0.645826
H40	H	1.679187	0.216390	0.000050
H41	H	1.381099	0.385544	0.000036
O42	O	1.394284	-0.265394	0.581968
C43	C	1.415925	-0.389049	0.619080
H44	H	1.515838	-0.390325	0.660996
H45	H	1.402346	-0.451492	0.518919
H46	H	1.347091	-0.425321	0.707330
O47	O	1.394090	-0.265047	0.418384
C48	C	1.316389	-0.197669	0.506415
H49	H	1.365019	-0.100341	0.529057
H50	H	1.297331	-0.249523	0.613513
H51	H	1.223986	-0.188659	0.447863
H52	H	2.044549	-0.277906	0.000020
H53	H	1.385328	0.225051	0.000025
H54	H	1.875395	0.020182	0.000066
