data_functionalizedCrystal
_audit_creation_method	'MofGen! by Chris Wilmer'
_symmetry_space_group_name_H-M	'P1'
_symmetry_Int_Tables_number	1
_symmetry_cell_setting	triclinic
loop_
_symmetry_equiv_pos_as_xyz
  x,y,z
_cell_length_a	19.288864
_cell_length_b	19.288865
_cell_length_c	17.766277
_cell_angle_alpha	89.988397
_cell_angle_beta	89.976791
_cell_angle_gamma	83.136245
loop_
_atom_site_label
_atom_site_type_symbol
_atom_site_fract_x
_atom_site_fract_y
_atom_site_fract_z
O1	O	0.921353	0.086649	-0.062844
O2	O	0.719092	0.098337	-0.062794
O3	O	0.826067	-0.008637	-0.062806
O4	O	0.814378	0.193623	-0.062832
O5	O	0.826048	-0.008643	0.062383
O6	O	0.719074	0.098332	0.062395
O7	O	0.921334	0.086643	0.062344
Cu8	Cu	0.820202	0.092487	0.073800
Cu9	Cu	0.820224	0.092494	-0.074250
O10	O	0.814360	0.193618	0.062356
C11	C	0.693207	0.097959	-0.000193
C12	C	0.616103	0.096830	-0.000173
C13	C	0.571407	0.159598	-0.000193
C14	C	0.498960	0.158537	-0.000201
C15	C	0.471212	0.094705	-0.000205
C16	C	0.515918	0.031929	-0.000180
C17	C	0.588364	0.032991	-0.000164
C18	C	0.362957	0.044527	-0.044082
C19	C	0.290512	0.043468	-0.044103
C20	C	0.247767	0.091425	-0.000250
C21	C	0.277473	0.140454	0.043614
C22	C	0.349918	0.141517	0.043630
C23	C	0.392658	0.093546	-0.000221
C24	C	0.124514	0.153047	-0.000278
C25	C	0.052066	0.151984	-0.000281
C26	C	0.069026	0.025374	-0.000267
C27	C	0.141473	0.026439	-0.000256
C28	C	0.169212	0.090278	-0.000265
C29	C	0.825682	-0.034516	-0.000209
C30	C	0.824553	-0.111620	-0.000202
C31	C	0.887321	-0.156316	-0.000214
C32	C	0.886260	-0.228763	-0.000226
C33	C	0.822428	-0.256511	-0.000210
C34	C	0.759652	-0.211805	-0.000203
C35	C	0.760714	-0.139359	-0.000198
C36	C	0.772242	-0.364800	0.043653
C37	C	0.771182	-0.437245	0.043654
C38	C	0.819148	-0.479956	-0.000226
C39	C	0.868186	-0.450216	-0.044097
C40	C	0.869249	-0.377771	-0.044093
C41	C	0.821269	-0.335065	-0.000215
C42	C	0.880770	-0.603209	-0.000252
C43	C	0.879707	-0.675657	-0.000268
C44	C	0.753097	-0.658697	-0.000238
C45	C	0.754162	-0.586250	-0.000229
C46	C	0.818001	-0.558511	-0.000232
C47	C	0.947220	0.087022	-0.000258
C48	C	1.024324	0.088151	-0.000283
C49	C	0.814745	0.219497	-0.000242
C50	C	0.815874	0.296601	-0.000254
N51	N	0.820192	0.092482	0.177931
N52	N	0.820241	0.092493	-0.178380
C53	C	0.867575	0.045137	0.217312
C54	C	0.867579	0.045134	0.296114
C55	C	0.820206	0.092488	0.335531
C56	C	0.772814	0.139837	0.296140
C57	C	0.772807	0.139834	0.217340
C58	C	0.810908	0.155775	0.460362
C59	C	0.810920	0.155779	0.539161
C60	C	0.820225	0.092496	0.578577
C61	C	0.829533	0.029207	0.539185
C62	C	0.829525	0.029204	0.460385
C63	C	0.820209	0.092496	0.420977
C64	C	0.867616	0.045143	0.703405
C65	C	0.867615	0.045139	0.782208
C66	C	0.772853	0.139848	0.782233
C67	C	0.772850	0.139846	0.703431
C68	C	0.820235	0.092495	0.664022
H69	H	0.015674	0.203099	-0.000293
H70	H	0.593987	0.211580	-0.000202
H71	H	0.909176	-0.353560	-0.079815
H72	H	0.701123	-0.681288	-0.000229
H73	H	0.937375	-0.265162	-0.000238
H74	H	0.906166	0.006578	0.328185
H75	H	0.734220	0.178389	0.185274
H76	H	0.907245	-0.484991	-0.079829
H77	H	0.624756	-0.018124	-0.000148
H78	H	0.837102	-0.022328	0.428315
H79	H	0.932751	-0.580622	-0.000258
H80	H	0.837110	-0.022324	0.571277
H81	H	0.703049	-0.549857	-0.000215
H82	H	0.906198	0.006585	0.671317
H83	H	0.266331	0.003548	-0.079822
H84	H	0.734269	0.178402	0.671364
H85	H	0.906198	0.006581	0.814274
H86	H	0.462561	0.209652	-0.000216
H87	H	0.177866	-0.024674	-0.000244
H88	H	0.803345	0.207313	0.571228
H89	H	0.374102	0.181436	0.079347
H90	H	0.930822	-0.712049	-0.000282
H91	H	0.734278	0.178402	0.814325
H92	H	0.803318	0.207311	0.428276
H93	H	0.731249	-0.461453	0.079371
H94	H	0.242670	0.179505	0.079324
H95	H	0.147101	0.205028	-0.000274
H96	H	0.734241	0.178392	0.328237
H97	H	0.046435	-0.026600	-0.000317
H98	H	0.733180	-0.330029	0.079389
H99	H	0.493322	-0.020044	-0.000193
H100	H	0.397755	0.005473	-0.079797
H101	H	0.939303	-0.133736	-0.000220
H102	H	0.707679	-0.234401	-0.000192
H103	H	0.906158	0.006579	0.185228
H104	H	0.709599	-0.102967	-0.000188
