data_functionalizedCrystal
_audit_creation_method	'MofGen! by Chris Wilmer'
_symmetry_space_group_name_H-M	'P1'
_symmetry_Int_Tables_number	1
_symmetry_cell_setting	triclinic
loop_
_symmetry_equiv_pos_as_xyz
  x,y,z
_cell_length_a	12.827893
_cell_length_b	12.827892
_cell_length_c	18.215399
_cell_angle_alpha	89.976162
_cell_angle_beta	89.982296
_cell_angle_gamma	90.015362
loop_
_atom_site_label
_atom_site_type_symbol
_atom_site_fract_x
_atom_site_fract_y
_atom_site_fract_z
Zn1	Zn	1.597653	-0.416045	-0.416095
Zn2	Zn	1.597552	-0.590804	-0.293038
Zn3	Zn	1.422900	-0.416077	-0.293047
Zn4	Zn	1.422880	-0.590744	-0.416067
O5	O	1.510246	-0.503417	-0.354562
O6	O	1.743876	-0.439238	-0.399779
O7	O	1.574350	-0.567665	-0.190055
O8	O	1.446132	-0.269837	-0.309385
O9	O	1.743802	-0.567633	-0.309369
O10	O	1.574522	-0.269813	-0.399788
O11	O	1.446034	-0.439294	-0.190061
O12	O	1.276661	-0.439236	-0.309358
O13	O	1.446098	-0.567531	-0.519055
O14	O	1.276647	-0.567563	-0.399740
O15	O	1.574504	-0.439180	-0.519076
O16	O	1.574331	-0.737032	-0.309342
O17	O	1.446000	-0.736988	-0.399731
C18	C	1.238736	-0.503397	-0.354548
C19	C	1.122583	-0.503414	-0.354559
C20	C	0.950734	-0.439848	-0.309927
C21	C	1.070784	-0.439829	-0.309914
C22	C	1.510181	-0.774927	-0.354549
C23	C	1.510249	-0.891081	-0.354568
C24	C	1.573826	-0.942852	-0.309890
C25	C	1.573898	-1.062903	-0.309909
C26	C	1.782816	-0.503438	-0.354576
C27	C	1.898970	-0.503447	-0.354582
C28	C	1.510310	-0.503345	-0.546515
C29	C	1.510337	-0.503315	-0.628314
C30	C	1.510340	-0.230847	-0.354591
C31	C	1.510381	-0.114694	-0.354603
C32	C	1.577222	-0.436420	-0.816520
C33	C	1.577234	-0.436389	-0.893378
C34	C	1.443526	-0.570048	-0.893346
C35	C	1.443509	-0.570072	-0.816488
C36	C	1.510363	-0.503260	-0.778077
C37	C	1.510392	-0.503205	-0.931793
C38	C	1.510406	-0.503173	-1.015127
C39	C	1.510349	-0.503291	-0.694738
C40	C	1.510243	-0.503414	-0.163356
C41	C	1.510418	-0.503150	-0.081557
H42	H	1.078074	-0.557870	-0.392790
H43	H	1.455942	-1.070179	-0.392853
N44	N	1.438211	-0.950076	-0.405259
H45	H	1.480717	-0.995294	-0.439369
H46	H	1.389889	-0.995370	-0.375247
N47	N	1.645870	-0.883851	-0.259207
H48	H	1.635609	-0.806454	-0.266380
H49	H	1.629679	-0.902933	-0.206627
H50	H	1.628326	-1.107425	-0.271656
N51	N	1.649323	-0.364360	-0.775089
H52	H	1.691678	-0.322012	-0.811107
H53	H	1.606794	-0.316009	-0.743201
H54	H	0.943529	-0.557879	-0.392807
H55	H	1.389099	-0.624447	-0.924629
N56	N	1.371373	-0.642146	-0.775019
H57	H	1.329024	-0.684468	-0.811013
H58	H	1.413872	-0.690523	-0.743120
N59	N	1.649334	-0.364286	-0.934842
H60	H	1.691676	-0.321964	-0.898844
H61	H	1.697690	-0.406805	-0.966736
H62	H	1.115300	-0.385383	-0.271681
N63	N	0.891723	-0.367756	-0.259281
H64	H	0.814328	-0.377999	-0.266462
H65	H	0.910724	-0.383932	-0.206695
