data_functionalizedCrystal
_audit_creation_method	'MofGen! by Chris Wilmer'
_symmetry_space_group_name_H-M	'P1'
_symmetry_Int_Tables_number	1
_symmetry_cell_setting	triclinic
loop_
_symmetry_equiv_pos_as_xyz
  x,y,z
_cell_length_a	18.215405
_cell_length_b	16.959455
_cell_length_c	18.215399
_cell_angle_alpha	90.019469
_cell_angle_beta	89.970580
_cell_angle_gamma	89.981411
loop_
_atom_site_label
_atom_site_type_symbol
_atom_site_fract_x
_atom_site_fract_y
_atom_site_fract_z
Zn1	Zn	-0.293095	-1.208396	-0.416101
Zn2	Zn	-0.416166	-1.208300	-0.293032
Zn3	Zn	-0.293106	-1.076215	-0.293049
Zn4	Zn	-0.416113	-1.076181	-0.416057
O5	O	-0.354620	-1.142273	-0.354560
O6	O	-0.309437	-1.318994	-0.399787
O7	O	-0.399869	-1.190753	-0.190050
O8	O	-0.190121	-1.093804	-0.309398
O9	O	-0.399857	-1.318924	-0.309368
O10	O	-0.190112	-1.190917	-0.399804
O11	O	-0.309458	-1.093710	-0.190063
O12	O	-0.309406	-0.965600	-0.309356
O13	O	-0.399767	-1.093745	-0.519048
O14	O	-0.399778	-0.965574	-0.399729
O15	O	-0.309386	-1.190883	-0.519080
O16	O	-0.519143	-1.190720	-0.309326
O17	O	-0.519104	-1.093652	-0.399712
C18	C	-0.545826	-1.142193	-0.354528
C19	C	-0.627625	-1.142232	-0.354539
C20	C	-0.354588	-0.936907	-0.354540
C21	C	-0.354593	-0.849050	-0.354549
C22	C	-0.892678	-1.192923	-0.307574
C23	C	-0.815820	-1.192890	-0.307558
C24	C	-0.815820	-1.091721	-0.401595
C25	C	-0.892677	-1.091750	-0.401608
C26	C	-0.931105	-1.142356	-0.354598
C27	C	-0.777388	-1.142294	-0.354569
C28	C	-0.694055	-1.142258	-0.354551
C29	C	-1.014443	-1.142390	-0.354615
C30	C	-0.307501	-0.477563	-0.307591
C31	C	-0.401752	-0.477586	-0.401551
C32	C	-0.401745	-0.560132	-0.401548
C33	C	-0.354615	-0.601397	-0.354565
C34	C	-0.307493	-0.560117	-0.307585
C35	C	-0.448871	-0.601418	-0.448522
C36	C	-0.448866	-0.683969	-0.448520
C37	C	-0.401732	-0.725236	-0.401540
C38	C	-0.354608	-0.683951	-0.354558
C39	C	-0.307478	-0.725216	-0.307575
C40	C	-0.260350	-0.683932	-0.260597
C41	C	-0.260360	-0.601384	-0.260604
C42	C	-0.401722	-0.807785	-0.401532
C43	C	-0.307471	-0.807770	-0.307569
C44	C	-0.162667	-1.142375	-0.354608
C45	C	-0.080868	-1.142418	-0.354628
C46	C	-0.354569	-1.142321	-0.546513
C47	C	-0.354547	-1.142342	-0.628312
C48	C	-0.354643	-0.348441	-0.354577
C49	C	-0.354630	-0.436298	-0.354574
C50	C	-0.307442	-1.192940	-0.816524
C51	C	-0.307421	-1.192949	-0.893383
C52	C	-0.401539	-1.091800	-0.893338
C53	C	-0.401556	-1.091787	-0.816480
C54	C	-0.354509	-1.142361	-0.778075
C55	C	-0.354470	-1.142384	-0.931792
C56	C	-0.354447	-1.142393	-1.015125
C57	C	-0.354531	-1.142351	-0.694736
C58	C	-0.354617	-1.142271	-0.163354
C59	C	-0.354432	-1.142403	-0.081555
H60	H	-0.784535	-1.234066	-0.269266
H61	H	-0.439883	-1.050594	-0.785175
H62	H	-0.784525	-1.050520	-0.439870
H63	H	-0.269131	-1.234119	-0.785257
C64	C	-0.573531	-0.575984	-0.484165
C65	C	-0.500667	-0.556067	-0.500175
H66	H	-0.605505	-0.547981	-0.516057
H67	H	-0.580267	-0.631049	-0.490879
H68	H	-0.584237	-0.562415	-0.434703
H69	H	-0.489959	-0.569642	-0.549636
H70	H	-0.493927	-0.500990	-0.493467
C71	C	-0.884964	-0.991748	-0.494568
C72	C	-0.934921	-1.036165	-0.453303
H73	H	-0.911045	-0.957436	-0.526482
H74	H	-0.855029	-0.961524	-0.462473
H75	H	-0.854944	-1.026163	-0.522745
H76	H	-0.964937	-1.001749	-0.425122
H77	H	-0.964869	-1.066391	-0.485402
H78	H	-0.487240	-0.717576	-0.486773
C79	C	-0.494888	-0.799511	-0.494406
C80	C	-0.453518	-0.853164	-0.453168
H81	H	-0.526861	-0.827528	-0.526289
H82	H	-0.522999	-0.767298	-0.462291
H83	H	-0.462857	-0.767330	-0.522614
H84	H	-0.485548	-0.885342	-0.424955
H85	H	-0.425404	-0.885391	-0.485286
H86	H	-0.269093	-1.234134	-0.924684
C87	C	-0.884956	-1.292913	-0.214615
C88	C	-0.934918	-1.248539	-0.255896
H89	H	-0.911033	-1.327244	-0.182706
H90	H	-0.854940	-1.323115	-0.246701
H91	H	-0.855017	-1.258472	-0.186432
H92	H	-0.964853	-1.282981	-0.284082
H93	H	-0.964947	-1.218336	-0.223806
C94	C	-0.214309	-0.799455	-0.214688
C95	C	-0.255667	-0.853126	-0.255918
H96	H	-0.182332	-0.827458	-0.182798
H97	H	-0.186201	-0.767286	-0.246806
H98	H	-0.246347	-0.767231	-0.186487
H99	H	-0.223629	-0.885346	-0.284123
H100	H	-0.283776	-0.885309	-0.223796
H101	H	-0.221980	-0.717541	-0.222340
H102	H	-0.439845	-1.050625	-0.924617
H103	H	-0.269128	-0.443946	-0.269344
C104	C	-0.218518	-0.474834	-0.218901
C105	C	-0.208556	-0.556003	-0.208973
H106	H	-0.186538	-0.446817	-0.187024
H107	H	-0.207819	-0.461339	-0.268365
H108	H	-0.267953	-0.461296	-0.208035
H109	H	-0.159123	-0.569541	-0.219845
H110	H	-0.219251	-0.569504	-0.159498
H111	H	-0.440127	-0.443983	-0.439799
