data_functionalizedCrystal
_audit_creation_method	'MofGen! by Chris Wilmer'
_symmetry_space_group_name_H-M	'P1'
_symmetry_Int_Tables_number	1
_symmetry_cell_setting	triclinic
loop_
_symmetry_equiv_pos_as_xyz
  x,y,z
_cell_length_a	23.532355
_cell_length_b	23.532407
_cell_length_c	15.072220
_cell_angle_alpha	89.994175
_cell_angle_beta	89.993350
_cell_angle_gamma	82.838088
loop_
_atom_site_label
_atom_site_type_symbol
_atom_site_fract_x
_atom_site_fract_y
_atom_site_fract_z
O1	O	0.755286	0.068990	-0.073671
O2	O	0.589418	0.079024	-0.073700
O3	O	0.677354	-0.008925	-0.073668
O4	O	0.667350	0.156940	-0.073703
O5	O	0.677332	-0.008920	0.073897
O6	O	0.589397	0.079029	0.073865
O7	O	0.755264	0.068995	0.073894
Zn8	Zn	0.672327	0.074013	0.097309
Zn9	Zn	0.672355	0.074007	-0.097115
O10	O	0.667329	0.156945	0.073862
C11	C	0.568191	0.078776	0.000079
C12	C	0.504972	0.078022	0.000068
C13	C	0.112946	0.073287	0.080544
C14	C	0.053547	0.072569	0.080548
O15	O	0.022818	0.072181	0.148956
N16	N	0.023850	0.072211	0.000110
C17	C	0.053557	0.072564	-0.080336
O18	O	0.022843	0.072193	-0.148754
C19	C	0.112956	0.073277	-0.080339
C20	C	0.142649	0.073641	0.000104
C21	C	0.142639	0.073650	0.160980
C22	C	0.202035	0.074369	0.160976
C23	C	0.231737	0.074724	0.080536
C24	C	0.202044	0.074360	0.000100
C25	C	0.142662	0.073626	-0.160784
C26	C	0.202065	0.074339	-0.160780
C27	C	0.231758	0.074704	-0.080337
C28	C	0.291141	0.075433	-0.080344
N29	N	0.320838	0.075792	0.000094
C30	C	0.291136	0.075437	0.080534
C31	C	-0.071185	0.071065	-0.080324
C32	C	-0.130583	0.070356	-0.080323
C33	C	-0.130589	0.070360	0.080561
C34	C	-0.071190	0.071073	0.080559
C35	C	-0.041488	0.071423	0.000113
C36	C	0.415870	0.076946	0.080519
C37	C	0.475270	0.077667	0.080508
C38	C	0.475271	0.077660	-0.080375
C39	C	0.415875	0.076942	-0.080365
C40	C	0.386177	0.076583	0.000090
O41	O	0.321908	0.075819	-0.148717
O42	O	0.321858	0.075801	0.148940
C43	C	0.677088	-0.030139	0.000116
C44	C	0.676322	-0.093356	0.000123
C45	C	0.723557	-0.492468	0.000083
C46	C	0.722845	-0.551868	0.000076
O47	O	0.766632	-0.588620	0.000051
N48	N	0.670568	-0.574484	0.000067
C49	C	0.618998	-0.537697	0.000057
O50	O	0.574467	-0.562388	0.000048
C51	C	0.619710	-0.478298	0.000057
C52	C	0.671991	-0.455685	0.000075
C53	C	0.775834	-0.469854	0.000100
C54	C	0.776545	-0.410458	0.000108
C55	C	0.724979	-0.373676	0.000100
C56	C	0.672703	-0.396289	0.000083
C57	C	0.568141	-0.441512	0.000040
C58	C	0.568858	-0.382110	0.000040
C59	C	0.621139	-0.359497	0.000057
C60	C	0.621848	-0.300110	0.000084
N61	N	0.674126	-0.277494	0.000092
C62	C	0.725691	-0.314277	0.000100
C63	C	0.617507	-0.662439	0.000054
C64	C	0.616794	-0.721837	0.000060
C65	C	0.720642	-0.736004	0.000078
C66	C	0.721354	-0.676605	0.000078
C67	C	0.669784	-0.639823	0.000063
C68	C	0.727181	-0.189540	0.000119
C69	C	0.727888	-0.130138	0.000131
C70	C	0.624041	-0.115977	0.000109
C71	C	0.623334	-0.175373	0.000101
C72	C	0.674909	-0.212154	0.000103
O73	O	0.578084	-0.263323	0.000105
O74	O	0.770216	-0.289577	0.000098
C75	C	0.776491	0.069244	0.000113
C76	C	0.839710	0.069998	0.000118
C77	C	0.667594	0.178158	0.000076
C78	C	0.668360	0.241375	0.000063
N79	N	0.672312	0.074017	0.229998
N80	N	0.672375	0.073998	-0.229803
C81	C	0.672354	0.074004	0.589199
C82	C	0.625145	0.120908	0.551575
C83	C	0.625252	0.121078	0.448749
C84	C	0.672333	0.074011	0.410995
C85	C	0.731685	0.086643	0.448294
C86	C	0.731420	0.086976	0.551151
C87	C	0.660741	0.014327	0.551309
C88	C	0.659376	0.014734	0.448445
C89	C	0.672324	0.074013	0.310282
C90	C	0.672367	0.074003	0.689912
H91	H	-0.154755	0.070068	-0.145827
H92	H	0.618420	0.002094	0.577295
C93	C	0.635225	0.180911	0.415481
H94	H	0.639233	0.205208	0.464830
H95	H	0.603509	0.196569	0.380494
H96	H	0.669098	0.177871	0.380606
C97	C	-0.163291	0.070132	0.169045
H98	H	-0.202924	0.069700	0.157519
H99	H	-0.158041	0.103516	0.201927
H100	H	-0.149094	0.037079	0.202267
C101	C	0.559285	-0.746705	0.000048
H102	H	0.528680	-0.716286	0.000037
H103	H	0.556837	-0.769588	0.051501
H104	H	0.556856	-0.769574	-0.051423
H105	H	0.762629	-0.765963	0.000081
C106	C	-0.038519	0.071462	-0.168820
H107	H	-0.064717	0.071152	-0.216719
H108	H	-0.010812	0.038526	-0.172170
H109	H	-0.019885	0.104962	-0.172172
C110	C	0.565827	-0.200249	0.000080
H111	H	0.535218	-0.169833	0.000070
H112	H	0.563377	-0.223136	0.051528
H113	H	0.563403	-0.223115	-0.051397
C114	C	0.110014	0.073213	-0.249272
H115	H	0.136221	0.073517	-0.297172
H116	H	0.082304	0.106145	-0.252647
H117	H	0.091385	0.039709	-0.252599
H118	H	0.525569	-0.459912	0.000020
H119	H	0.615717	0.005139	0.424068
H120	H	0.770463	-0.111731	0.000148
H121	H	0.391695	0.076659	0.146033
H122	H	0.691552	-0.021779	0.422750
H123	H	0.767640	0.053374	0.423837
H124	H	0.695173	-0.020573	0.575640
C125	C	0.778862	-0.651736	0.000089
H126	H	0.809468	-0.682154	0.000089
H127	H	0.781294	-0.628860	0.051546
H128	H	0.781308	-0.628859	-0.051378
C129	C	0.234733	0.074729	-0.249272
H130	H	0.208538	0.074415	-0.297174
H131	H	0.262441	0.041794	-0.252614
H132	H	0.253366	0.108230	-0.252627
H133	H	0.499443	0.077966	0.146017
H134	H	0.742224	0.129656	0.422518
H135	H	-0.047018	0.071370	0.146062
H136	H	0.391697	0.076655	-0.145868
H137	H	0.499465	0.077951	-0.145867
H138	H	0.769178	-0.219481	0.000117
H139	H	0.817827	-0.499797	0.000103
C140	C	0.234690	0.074767	0.249464
H141	H	0.208487	0.074448	0.297365
H142	H	0.253326	0.108261	0.252806
H143	H	0.262395	0.041826	0.252820
H144	H	0.819117	-0.392053	0.000119
H145	H	0.575510	-0.632494	0.000049
H146	H	0.632422	0.164952	0.577406
C147	C	0.109975	0.073265	0.249472
H148	H	0.136174	0.073588	0.297368
H149	H	0.091334	0.039773	0.252841
H150	H	0.082273	0.106209	0.252810
C151	C	0.567323	-0.075509	0.000095
H152	H	0.575239	-0.036896	0.000091
H153	H	0.545858	-0.082331	0.051544
H154	H	0.545885	-0.082328	-0.051381
C155	C	0.512130	-0.341652	0.000026
H156	H	0.480896	-0.363631	0.000022
H157	H	0.510256	-0.318181	-0.051430
H158	H	0.510239	-0.318192	0.051495
H159	H	0.581124	0.113603	0.423532
H160	H	0.741704	0.130487	0.575126
C161	C	0.565334	0.110986	0.585005
H162	H	0.537455	0.139738	0.561542
H163	H	0.564553	0.112716	0.647967
H164	H	0.557089	0.074381	0.566113
C165	C	0.780275	0.042556	0.584778
H166	H	0.800199	0.024392	0.535573
H167	H	0.764774	0.014662	0.619811
H168	H	0.806000	0.061219	0.619681
