data_functionalizedCrystal
_audit_creation_method	'MofGen! by Chris Wilmer'
_symmetry_space_group_name_H-M	'P1'
_symmetry_Int_Tables_number	1
_symmetry_cell_setting	triclinic
loop_
_symmetry_equiv_pos_as_xyz
  x,y,z
_cell_length_a	18.050591
_cell_length_b	18.050590
_cell_length_c	16.625539
_cell_angle_alpha	90.029956
_cell_angle_beta	90.026599
_cell_angle_gamma	90.014558
loop_
_atom_site_label
_atom_site_type_symbol
_atom_site_fract_x
_atom_site_fract_y
_atom_site_fract_z
Zn1	Zn	1.135384	-0.295737	0.456030
Zn2	Zn	1.135303	-0.419935	0.321193
Zn3	Zn	1.011191	-0.295755	0.321196
Zn4	Zn	1.011172	-0.419881	0.455969
O5	O	1.073263	-0.357827	0.388597
O6	O	1.239298	-0.312227	0.438168
O7	O	1.118814	-0.403492	0.208361
O8	O	1.027707	-0.191828	0.339109
O9	O	1.239239	-0.403475	0.339104
O10	O	1.118951	-0.191815	0.438171
O11	O	1.027629	-0.312257	0.208363
O12	O	0.907264	-0.312205	0.339050
O13	O	1.027675	-0.403384	0.568809
O14	O	0.907250	-0.403400	0.438067
O15	O	1.118933	-0.312175	0.568854
O16	O	1.118796	-0.523852	0.339045
O17	O	1.027597	-0.523813	0.438064
C18	C	0.880311	-0.357799	0.388552
C19	C	0.797765	-0.357805	0.388552
C20	C	0.598300	-0.308156	0.334831
C21	C	0.548890	-0.375894	0.314987
C22	C	0.646634	-0.357828	0.388589
C23	C	0.548963	-0.290113	0.408430
C24	C	0.500649	-0.357844	0.388623
C25	C	0.598312	-0.425601	0.368707
C26	C	0.598389	-0.339775	0.462184
C27	C	0.549001	-0.407560	0.442368
C28	C	0.730733	-0.357818	0.388567
C29	C	0.416553	-0.357861	0.388644
C30	C	1.073206	-0.550779	0.388565
C31	C	1.073249	-0.633325	0.388578
C32	C	1.122946	-0.832770	0.334807
C33	C	1.141088	-0.882102	0.408399
C34	C	1.073291	-0.784455	0.388610
C35	C	1.055225	-0.882205	0.315051
C36	C	1.073333	-0.930440	0.388635
C37	C	1.091468	-0.832700	0.462241
C38	C	1.005573	-0.832798	0.368844
C39	C	1.023689	-0.882108	0.442487
C40	C	1.073269	-0.700357	0.388595
C41	C	1.073356	-1.014537	0.388658
C42	C	1.266968	-0.357855	0.388642
C43	C	1.349514	-0.357867	0.388661
C44	C	1.073311	-0.357772	0.598906
C45	C	1.073332	-0.357748	0.688527
C46	C	1.073340	-0.164121	0.388647
C47	C	1.073373	-0.081576	0.388668
C48	C	1.073257	-0.357828	0.179106
C49	C	1.073381	-0.357643	0.089485
C50	C	1.073366	-0.357665	1.016703
C51	C	1.073354	-0.357690	0.925394
C52	C	1.073349	-0.357707	0.852618
C53	C	1.073337	-0.357731	0.761304
H54	H	0.619898	-0.482890	0.351870
H55	H	0.527491	-0.449621	0.487844
O56	O	0.937230	-0.806900	0.349000
C57	C	0.909099	-0.763912	0.412885
H58	H	0.937514	-0.780736	0.471336
H59	H	0.846880	-0.773456	0.418457
H60	H	0.920156	-0.702785	0.400522
H61	H	0.620147	-0.324474	0.524389
H62	H	0.527247	-0.232849	0.425171
O63	O	1.037055	-0.908057	0.240767
C64	C	1.089544	-0.882933	0.184230
H65	H	1.117805	-0.830902	0.208143
H66	H	1.060455	-0.869677	0.125087
H67	H	1.132814	-0.927904	0.173741
O68	O	1.173155	-0.806953	0.280672
C69	C	1.244497	-0.832090	0.301821
H70	H	1.245867	-0.845901	0.368706
H71	H	1.286858	-0.786905	0.288413
H72	H	1.258457	-0.883788	0.265448
O73	O	0.973532	-0.907833	0.496727
C74	C	0.919755	-0.950884	0.456681
H75	H	0.917551	-0.934226	0.390593
H76	H	0.863263	-0.941229	0.485461
H77	H	0.934964	-1.012010	0.461606
H78	H	1.198374	-0.903761	0.425133
H79	H	1.106710	-0.811047	0.524512
H80	H	0.527149	-0.391175	0.252764
O81	O	0.624095	-0.258179	0.280433
C82	C	0.598853	-0.277493	0.202940
H83	H	0.584992	-0.339094	0.201301
H84	H	0.643994	-0.265044	0.156954
H85	H	0.547163	-0.243959	0.187900
