data_functionalizedCrystal
_audit_creation_method	'MofGen! by Chris Wilmer'
_symmetry_space_group_name_H-M	'P1'
_symmetry_Int_Tables_number	1
_symmetry_cell_setting	triclinic
loop_
_symmetry_equiv_pos_as_xyz
  x,y,z
_cell_length_a	14.044220
_cell_length_b	13.101039
_cell_length_c	14.044220
_cell_angle_alpha	86.332523
_cell_angle_beta	86.811122
_cell_angle_gamma	86.340132
loop_
_atom_site_label
_atom_site_type_symbol
_atom_site_fract_x
_atom_site_fract_y
_atom_site_fract_z
O1	O	1.281968	-0.085109	-0.225348
O2	O	1.531968	0.164891	0.024652
O3	O	1.781968	0.414891	0.274652
O4	O	2.031968	0.664891	0.524652
O5	O	1.005298	-0.085135	-0.217041
O6	O	1.255298	0.164865	0.032959
O7	O	1.505298	0.414865	0.282959
O8	O	1.755298	0.664865	0.532959
O9	O	1.139480	-0.085112	-0.082860
O10	O	1.389480	0.164888	0.167140
O11	O	1.639480	0.414888	0.417140
O12	O	1.889480	0.664888	0.667140
O13	O	1.147787	-0.085132	-0.359530
O14	O	1.397787	0.164868	-0.109530
O15	O	1.647787	0.414868	0.140470
O16	O	1.897787	0.664868	0.390470
O17	O	1.129854	0.085316	-0.092504
O18	O	1.379854	0.335316	0.157496
O19	O	1.629854	0.585316	0.407496
O20	O	1.879854	0.835316	0.657496
O21	O	0.995673	0.085293	-0.226686
O22	O	1.245673	0.335293	0.023314
O23	O	1.495673	0.585293	0.273314
O24	O	1.745673	0.835293	0.523314
O25	O	1.272343	0.085319	-0.234993
O26	O	1.522343	0.335319	0.015007
O27	O	1.772343	0.585319	0.265007
O28	O	2.022343	0.835319	0.515007
Zn29	Zn	1.132479	0.112365	-0.232371
Zn30	Zn	1.382479	0.362365	0.017629
Zn31	Zn	1.632479	0.612365	0.267629
Zn32	Zn	1.882479	0.862365	0.517629
Zn33	Zn	1.145162	-0.112181	-0.219663
Zn34	Zn	1.395162	0.137819	0.030337
Zn35	Zn	1.645162	0.387819	0.280337
Zn36	Zn	1.895162	0.637819	0.530337
O37	O	1.138161	0.085296	-0.369175
O38	O	1.388161	0.335296	-0.119175
O39	O	1.638161	0.585296	0.130825
O40	O	1.888161	0.835296	0.380825
C41	C	0.964864	0.000076	-0.218228
C42	C	1.214864	0.250076	0.031772
C43	C	1.464864	0.500076	0.281772
C44	C	1.714864	0.750076	0.531772
C45	C	0.858722	0.000066	-0.207383
C46	C	1.108722	0.250066	0.042617
C47	C	1.358722	0.500066	0.292617
C48	C	1.608722	0.750066	0.542617
C49	C	1.131031	0.000102	-0.052060
C50	C	1.381031	0.250102	0.197940
C51	C	1.631031	0.500102	0.447940
C52	C	1.881031	0.750102	0.697940
C53	C	1.120187	0.000102	0.054083
C54	C	1.370187	0.250102	0.304083
C55	C	1.620187	0.500102	0.554083
C56	C	1.870187	0.750102	0.804083
N57	N	1.123831	0.265612	-0.241043
N58	N	1.373831	0.515612	0.008957
N59	N	1.623831	0.765612	0.258957
N60	N	1.873831	1.015612	0.508957
C61	C	0.664383	0.000088	-0.187558
C62	C	0.914383	0.250088	0.062442
C63	C	1.164383	0.500088	0.312442
C64	C	1.414383	0.750088	0.562442
C65	C	0.613253	0.000087	-0.264472
C66	C	0.863253	0.250087	-0.014472
C67	C	1.113253	0.500087	0.235528
C68	C	1.363253	0.750087	0.485528
C69	C	0.505116	0.000099	-0.253441
C70	C	0.755116	0.250099	-0.003441
C71	C	1.005116	0.500099	0.246559
C72	C	1.255116	0.750099	0.496559
C73	C	0.772529	0.000076	-0.198587
C74	C	1.022529	0.250076	0.051413
C75	C	1.272529	0.500076	0.301413
C76	C	1.522529	0.750076	0.551413
C77	C	1.312777	0.000106	-0.233806
C78	C	1.562777	0.250106	0.016194
C79	C	1.812777	0.500106	0.266194
C80	C	2.062777	0.750106	0.516194
C81	C	1.418920	0.000109	-0.244651
C82	C	1.668920	0.250109	0.005349
C83	C	1.918920	0.500109	0.255349
C84	C	2.168920	0.750109	0.505349
N85	N	1.153817	-0.265428	-0.210984
N86	N	1.403817	-0.015428	0.039016
N87	N	1.653817	0.234572	0.289016
N88	N	1.903817	0.484572	0.539016
C89	C	1.112065	0.474653	-0.252851
C90	C	1.362065	0.724653	-0.002851
C91	C	1.612065	0.974653	0.247149
C92	C	1.862065	1.224653	0.497149
C93	C	1.165580	0.525538	-0.199179
C94	C	1.415580	0.775538	0.050821
C95	C	1.665580	1.025538	0.300821
C96	C	1.915580	1.275538	0.550821
C97	C	1.159034	0.641855	-0.205749
C98	C	1.409034	0.891855	0.044251
C99	C	1.659034	1.141855	0.294251
C100	C	1.909034	1.391855	0.544251
C101	C	1.118610	0.358325	-0.246282
C102	C	1.368610	0.608325	0.003718
C103	C	1.618610	0.858325	0.253718
C104	C	1.868610	1.108325	0.503718
C105	C	1.146610	0.000080	-0.399974
C106	C	1.396610	0.250080	-0.149974
C107	C	1.646610	0.500080	0.100026
C108	C	1.896610	0.750080	0.350026
C109	C	1.157455	0.000073	-0.506116
C110	C	1.407455	0.250073	-0.256116
C111	C	1.657455	0.500073	-0.006116
C112	C	1.907455	0.750073	0.243884
C113	C	1.100362	0.000086	0.248421
C114	C	1.350362	0.250086	0.498421
C115	C	1.600362	0.500086	0.748421
C116	C	1.850362	0.750086	0.998421
C117	C	1.177276	0.000090	0.299551
C118	C	1.427276	0.250090	0.549551
C119	C	1.677276	0.500090	0.799551
C120	C	1.927276	0.750090	1.049551
C121	C	1.166245	0.000080	0.407688
C122	C	1.416245	0.250080	0.657688
C123	C	1.666245	0.500080	0.907688
C124	C	1.916245	0.750080	1.157688
C125	C	1.111391	0.000095	0.140275
C126	C	1.361391	0.250095	0.390275
C127	C	1.611391	0.500095	0.640275
C128	C	1.861391	0.750095	0.890275
H129	H	0.650693	0.000077	-0.338605
H130	H	0.900693	0.250077	-0.088605
H131	H	1.150693	0.500077	0.161395
H132	H	1.400693	0.750077	0.411395
H133	H	1.026235	0.000076	0.285859
H134	H	1.276235	0.250076	0.535859
H135	H	1.526235	0.500076	0.785859
H136	H	1.776235	0.750076	1.035859
H137	H	1.251413	0.000028	0.262115
H138	H	1.501413	0.250028	0.512115
H139	H	1.751413	0.500028	0.762115
H140	H	2.001413	0.750028	1.012115
H141	H	1.216314	0.481744	-0.148295
H142	H	1.466314	0.731744	0.101705
H143	H	1.716314	0.981744	0.351705
H144	H	1.966314	1.231744	0.601705
H145	H	1.061336	0.518442	-0.303733
H146	H	1.311336	0.768442	-0.053733
H147	H	1.561336	1.018442	0.196267
H148	H	1.811336	1.268442	0.446267
Cl149	Cl	0.606582	0.000098	-0.073108
Cl150	Cl	0.856582	0.250098	0.176892
Cl151	Cl	1.106582	0.500098	0.426892
Cl152	Cl	1.356582	0.750098	0.676892
