data_functionalizedCrystal
_audit_creation_method	'MofGen! by Chris Wilmer'
_symmetry_space_group_name_H-M	'P1'
_symmetry_Int_Tables_number	1
_symmetry_cell_setting	triclinic
loop_
_symmetry_equiv_pos_as_xyz
  x,y,z
_cell_length_a	9.065218
_cell_length_b	15.995350
_cell_length_c	7.540329
_cell_angle_alpha	89.998640
_cell_angle_beta	89.996962
_cell_angle_gamma	84.254130
loop_
_atom_site_label
_atom_site_type_symbol
_atom_site_fract_x
_atom_site_fract_y
_atom_site_fract_z
O1	O	1.957508	0.122770	-0.147477
O2	O	2.457508	0.622770	0.352523
O3	O	1.527986	0.132840	-0.147479
O4	O	2.027986	0.632840	0.352521
O5	O	1.754488	0.006007	-0.147476
O6	O	2.254488	0.506007	0.352524
O7	O	1.731005	0.249604	-0.147480
O8	O	2.231005	0.749604	0.352520
O9	O	1.754474	0.006005	0.147489
O10	O	2.254474	0.506005	0.647489
O11	O	1.527972	0.132839	0.147486
O12	O	2.027972	0.632839	0.647486
O13	O	1.957494	0.122769	0.147488
O14	O	2.457494	0.622769	0.647488
Cu15	Cu	1.742732	0.127804	0.174420
Cu16	Cu	2.242732	0.627804	0.674420
Cu17	Cu	1.742748	0.127805	-0.174411
Cu18	Cu	2.242748	0.627805	0.325589
O19	O	1.730992	0.249602	0.147485
O20	O	2.230992	0.749602	0.647485
C21	C	1.473015	0.131872	0.000003
C22	C	1.973015	0.631872	0.500003
C23	C	1.309240	0.128978	0.000002
C24	C	1.809240	0.628978	0.500002
C25	C	1.753510	-0.025196	0.000003
C26	C	2.253510	0.474804	0.500003
C27	C	1.750600	-0.118169	-0.000007
C28	C	2.250600	0.381831	0.499993
C29	C	1.740148	-0.455995	-0.000001
C30	C	2.240148	0.044005	0.499999
C31	C	1.578837	-0.409785	-0.000663
C32	C	2.078837	0.090215	0.499337
C33	C	1.581748	-0.313072	0.000001
C34	C	2.081748	0.186928	0.500001
C35	C	1.745332	-0.288396	-0.000005
C36	C	2.245332	0.211604	0.499995
C37	C	1.824889	-0.328871	0.168432
C38	C	2.324889	0.171129	0.668432
C39	C	1.820836	-0.425537	0.168573
C40	C	2.320836	0.074463	0.668573
C41	C	1.824184	-0.425868	-0.166858
C42	C	2.324184	0.074132	0.333142
C43	C	1.824146	-0.328923	-0.169084
C44	C	2.324146	0.171077	0.330916
C45	C	1.748271	-0.193676	-0.000001
C46	C	2.248271	0.306324	0.499999
C47	C	1.737214	-0.550716	0.000007
C48	C	2.237214	-0.050716	0.500007
C49	C	2.012465	0.123737	0.000002
C50	C	2.512465	0.623737	0.500002
C51	C	2.176239	0.126631	-0.000009
C52	C	2.676239	0.626631	0.499991
C53	C	1.731969	0.280805	0.000002
C54	C	2.231969	0.780805	0.500002
C55	C	1.734880	0.373778	0.000001
C56	C	2.234880	0.873778	0.500001
N57	N	1.742731	0.127802	0.419768
N58	N	2.242731	0.627802	0.919768
N59	N	1.742760	0.127801	-0.419759
N60	N	2.242760	0.627801	0.080241
H61	H	1.519211	-0.285124	-0.120740
H62	H	2.019211	0.214876	0.379260
Br63	Br	1.476786	-0.267418	0.201582
Br64	Br	1.976786	0.232582	0.701582
Br65	Br	1.728012	-0.283696	-0.376804
Br66	Br	2.228012	0.216304	0.123196
Br67	Br	1.724121	-0.456780	0.378432
Br68	Br	2.224121	0.043220	0.878432
Br69	Br	1.732779	-0.282270	0.377363
Br70	Br	2.232779	0.217730	0.877363
H71	H	1.771449	-0.446807	-0.294523
H72	H	2.271449	0.053193	0.205477
Br73	Br	2.018222	-0.477794	0.181325
Br74	Br	2.518222	0.022206	0.681325
Br75	Br	2.025201	-0.303813	0.178875
Br76	Br	2.525201	0.196187	0.678875
H77	H	1.514368	-0.428805	-0.121452
H78	H	2.014368	0.071195	0.378548
H79	H	1.943439	-0.312656	-0.179259
H80	H	2.443439	0.187344	0.320741
H81	H	1.514643	-0.429866	0.119452
H82	H	2.014643	0.070134	0.619452
H83	H	1.943118	-0.456727	-0.167995
H84	H	2.443118	0.043273	0.332005
