data_functionalizedCrystal
_audit_creation_method	'MofGen! by Chris Wilmer'
_symmetry_space_group_name_H-M	'P1'
_symmetry_Int_Tables_number	1
_symmetry_cell_setting	triclinic
loop_
_symmetry_equiv_pos_as_xyz
  x,y,z
_cell_length_a	16.974829
_cell_length_b	16.992695
_cell_length_c	15.186229
_cell_angle_alpha	89.995943
_cell_angle_beta	86.341329
_cell_angle_gamma	87.025716
loop_
_atom_site_label
_atom_site_type_symbol
_atom_site_fract_x
_atom_site_fract_y
_atom_site_fract_z
O1	O	1.055459	0.099957	-0.148444
O2	O	0.826057	0.112679	-0.132098
O3	O	0.939839	-0.007824	-0.140199
O4	O	0.941678	0.220460	-0.140344
O5	O	0.939831	-0.007825	0.006259
O6	O	0.826049	0.112677	0.014359
O7	O	1.055451	0.099955	-0.001987
Zn8	Zn	0.940749	0.106316	0.029440
Zn9	Zn	0.940760	0.106318	-0.163525
O10	O	0.941670	0.220458	0.006114
C11	C	0.796564	0.112193	-0.056768
C12	C	0.708696	0.110739	-0.050507
C13	C	0.937469	-0.037035	-0.066801
C14	C	0.930409	-0.124071	-0.066299
C15	C	0.214087	0.102578	-0.006693
C16	C	0.296649	0.103945	-0.012578
C17	C	0.337935	0.104623	-0.095356
C18	C	0.296654	0.103943	-0.172254
C19	C	0.214094	0.102582	-0.166369
C20	C	0.584855	0.108698	-0.121520
C21	C	0.667421	0.110056	-0.127399
C22	C	0.667410	0.110060	0.032277
C23	C	0.584848	0.108694	0.038156
C24	C	0.543575	0.108018	-0.038742
N25	N	0.422326	0.106017	-0.101373
N26	N	0.459184	0.106629	-0.032724
C27	C	0.998524	-0.174383	-0.071151
C28	C	0.991886	-0.256163	-0.070687
C29	C	0.917132	-0.287629	-0.065363
C30	C	0.849012	-0.237310	-0.060513
C31	C	0.855650	-0.155532	-0.060984
C32	C	0.889618	-0.531198	-0.063415
C33	C	0.882984	-0.612982	-0.062941
C34	C	1.025860	-0.631829	-0.073117
C35	C	1.032492	-0.550049	-0.073582
C36	C	0.964371	-0.499737	-0.068737
N37	N	0.910346	-0.371221	-0.064885
N38	N	0.971159	-0.416147	-0.069221
C39	C	1.084944	0.100441	-0.077319
C40	C	1.172813	0.101896	-0.083586
C41	C	0.944040	0.249669	-0.067285
C42	C	0.951100	0.336706	-0.067794
N43	N	0.940747	0.106314	0.161133
N44	N	0.940767	0.106314	-0.295218
C45	C	0.991149	0.052973	0.383267
C46	C	0.991151	0.052972	0.475457
C47	C	0.890360	0.159657	0.482641
C48	C	0.890354	0.159655	0.390454
C49	C	0.940753	0.106314	0.340769
C50	C	0.940761	0.106314	0.525146
C51	C	0.940763	0.106313	0.625102
C52	C	0.940750	0.106314	0.240807
H53	H	0.180478	0.102029	0.060714
H54	H	0.822107	-0.638598	-0.058592
H55	H	0.551240	0.108125	0.105562
H56	H	1.059397	-0.148771	-0.075481
H57	H	0.834149	-0.490243	-0.059469
H58	H	0.788145	-0.262936	-0.056184
C59	C	0.341322	0.104643	0.071008
C60	C	0.287496	0.103732	0.144761
C61	C	0.328620	0.104366	0.221779
H62	H	0.370391	0.150862	0.072377
H63	H	0.376654	0.059458	0.071861
H64	H	0.252178	0.148913	0.143908
H65	H	0.258425	0.057516	0.143421
H66	H	0.363952	0.059181	0.222632
H67	H	0.357688	0.150586	0.223138
H68	H	0.292106	0.103741	0.271828
C69	C	1.065773	-0.310884	-0.075815
C70	C	1.066118	-0.358409	-0.000507
C71	C	1.134166	-0.408836	-0.005210
H72	H	1.111305	-0.280534	-0.079008
H73	H	1.066158	-0.343216	-0.126893
H74	H	1.065740	-0.326081	0.050557
H75	H	1.020601	-0.388775	0.002701
H76	H	1.134551	-0.441167	-0.056288
H77	H	1.179693	-0.378479	-0.008405
H78	H	1.134406	-0.441092	0.045880
C79	C	0.712332	0.110681	0.115689
C80	C	0.764375	0.044053	0.116647
C81	C	0.805777	0.044606	0.193469
H82	H	0.676013	0.110044	0.165899
H83	H	0.741447	0.156888	0.116933
H84	H	0.735262	-0.002143	0.115411
H85	H	0.800710	0.044675	0.066455
H86	H	0.834892	0.090814	0.194713
H87	H	0.769452	0.043972	0.243673
H88	H	0.841098	-0.000596	0.194125
C89	C	0.341622	0.104641	-0.262048
C90	C	0.422761	0.105956	-0.250747
C91	C	0.464208	0.106586	-0.333447
H92	H	0.325052	0.150105	-0.293742
H93	H	0.331275	0.058700	-0.294114
H94	H	0.433102	0.151892	-0.218694
H95	H	0.439354	0.060495	-0.219068
H96	H	0.453862	0.060645	-0.365513
H97	H	0.447632	0.152051	-0.365135
H98	H	0.519266	0.107471	-0.325791
H99	H	0.180489	0.102028	-0.228983
H100	H	1.032187	0.009536	0.510056
C101	C	0.712296	0.110637	-0.217258
C102	C	0.764306	0.043985	-0.225639
C103	C	0.805648	0.044486	-0.308405
H104	H	0.741435	0.156813	-0.222741
H105	H	0.675915	0.109999	-0.262237
H106	H	0.800683	0.044630	-0.180673
H107	H	0.735188	-0.002202	-0.220173
H108	H	0.769267	0.043848	-0.353384
H109	H	0.834783	0.090665	-0.313881
H110	H	0.840937	-0.000740	-0.314106
H111	H	0.800183	-0.114568	-0.057032
H112	H	1.032186	0.009539	0.342816
H113	H	0.849312	0.203091	0.355850
C114	C	1.099788	-0.686492	-0.078567
C115	C	1.100164	-0.733970	-0.153957
C116	C	1.168262	-0.784327	-0.159017
H117	H	1.100239	-0.718865	-0.027588
H118	H	1.145280	-0.656067	-0.081856
H119	H	1.054684	-0.764392	-0.150661
H120	H	1.099725	-0.701618	-0.204949
H121	H	1.213754	-0.753902	-0.162306
H122	H	1.168708	-0.816694	-0.108035
H123	H	1.168530	-0.816541	-0.210173
C124	C	0.835736	0.217539	0.536740
C125	C	0.846542	0.206142	0.626570
C126	C	0.796245	0.259458	0.676428
H127	H	0.782398	0.209104	0.525550
H128	H	0.847636	0.269878	0.520824
H129	H	0.834636	0.153815	0.642479
H130	H	0.899870	0.214583	0.637786
H131	H	0.808146	0.311797	0.660513
H132	H	0.742910	0.251019	0.665231
H133	H	0.803576	0.251737	0.737382
H134	H	0.551260	0.108144	-0.184136
H135	H	1.093364	-0.524436	-0.077917
