data_functionalizedCrystal
_audit_creation_method	'MofGen! by Chris Wilmer'
_symmetry_space_group_name_H-M	'P1'
_symmetry_Int_Tables_number	1
_symmetry_cell_setting	triclinic
loop_
_symmetry_equiv_pos_as_xyz
  x,y,z
_cell_length_a	13.897448
_cell_length_b	12.759401
_cell_length_c	13.897441
_cell_angle_alpha	89.983438
_cell_angle_beta	89.970373
_cell_angle_gamma	90.017853
loop_
_atom_site_label
_atom_site_type_symbol
_atom_site_fract_x
_atom_site_fract_y
_atom_site_fract_z
Zn1	Zn	-0.383989	1.606213	-0.545329
Zn2	Zn	-0.545308	1.606105	-0.384030
Zn3	Zn	-0.384029	1.430521	-0.384053
Zn4	Zn	-0.545244	1.430495	-0.545289
O5	O	-0.464643	1.518334	-0.464675
O6	O	-0.405399	1.753220	-0.523940
O7	O	-0.523958	1.582779	-0.249052
O8	O	-0.249042	1.453884	-0.405473
O9	O	-0.523919	1.753140	-0.405434
O10	O	-0.249013	1.582964	-0.523962
O11	O	-0.405467	1.453778	-0.249068
O12	O	-0.405405	1.283497	-0.405434
O13	O	-0.523810	1.453839	-0.680276
O14	O	-0.523849	1.283477	-0.523893
O15	O	-0.405337	1.582939	-0.680305
O16	O	-0.680281	1.582753	-0.405395
O17	O	-0.680235	1.453733	-0.523871
C18	C	-0.464625	1.245366	-0.464662
C19	C	-0.464641	1.128590	-0.464679
C20	C	-0.526413	1.073745	-0.526259
C21	C	-0.526425	0.964021	-0.526269
C22	C	-0.402890	0.963996	-0.403112
C23	C	-0.402874	1.073718	-0.403107
C24	C	-0.597739	1.073759	-0.597360
C25	C	-0.597751	0.964034	-0.597370
C26	C	-0.715257	1.518257	-0.464647
C27	C	-0.822471	1.518320	-0.464668
C28	C	-1.018766	1.518431	-0.464728
C29	C	-0.909534	1.518366	-0.464697
C30	C	-0.213050	1.518439	-0.464724
C31	C	-0.105836	1.518484	-0.464745
C32	C	-0.464562	1.518398	-0.716268
C33	C	-0.464527	1.518425	-0.823482
C34	C	-0.464661	1.792367	-0.464689
C35	C	-0.464669	1.909143	-0.464695
C36	C	-0.464500	1.518447	-0.910552
C37	C	-0.464457	1.518477	-1.019785
C38	C	-0.464654	1.518330	-0.214061
C39	C	-0.464417	1.518506	-0.106847
H40	H	-0.668663	1.107770	-0.570471
C41	C	-0.334916	1.134041	-0.335371
C42	C	-0.259224	1.209496	-0.377298
C43	C	-0.191262	1.269816	-0.309557
C44	C	-0.198992	1.254680	-0.199888
C45	C	-0.274687	1.179221	-0.157956
C46	C	-0.342649	1.118902	-0.225697
H47	H	-0.253498	1.220704	-0.458486
H48	H	-0.135227	1.325675	-0.340599
H49	H	-0.148682	1.299332	-0.149742
H50	H	-0.280412	1.168014	-0.076768
H51	H	-0.398683	1.063042	-0.194655
H52	H	-0.352600	0.919306	-0.352984
C53	C	-0.698640	0.923766	-0.570158
C54	C	-0.718206	0.805102	-0.564901
C55	C	-0.819090	0.764834	-0.537690
C56	C	-0.900409	0.843230	-0.515736
C57	C	-0.880846	0.961902	-0.520992
C58	C	-0.779962	1.002170	-0.548203
H59	H	-0.658006	0.747062	-0.581154
H60	H	-0.833572	0.676985	-0.533799
H61	H	-0.975090	0.813421	-0.495593
H62	H	-0.941046	1.019942	-0.504740
H63	H	-0.765480	1.090019	-0.552094
C64	C	-0.561736	0.918092	-0.693307
C65	C	-0.530861	0.991770	-0.775503
C66	C	-0.494842	0.945825	-0.871435
C67	C	-0.489698	0.826203	-0.885170
C68	C	-0.520574	0.752518	-0.802970
C69	C	-0.556592	0.798463	-0.707039
H70	H	-0.534668	1.080328	-0.765338
H71	H	-0.471986	1.000373	-0.932284
H72	H	-0.463035	0.792192	-0.956184
H73	H	-0.516766	0.663960	-0.813135
H74	H	-0.579448	0.743915	-0.646190
H75	H	-0.577821	1.103565	-0.672101
