data_functionalizedCrystal
_audit_creation_method	'MofGen! by Chris Wilmer'
_symmetry_space_group_name_H-M	'P1'
_symmetry_Int_Tables_number	1
_symmetry_cell_setting	triclinic
loop_
_symmetry_equiv_pos_as_xyz
  x,y,z
_cell_length_a	19.077105
_cell_length_b	12.759400
_cell_length_c	19.076919
_cell_angle_alpha	92.274856
_cell_angle_beta	90.076224
_cell_angle_gamma	87.711168
loop_
_atom_site_label
_atom_site_type_symbol
_atom_site_fract_x
_atom_site_fract_y
_atom_site_fract_z
Zn1	Zn	1.058328	-0.508276	-0.440436
Zn2	Zn	1.062987	-0.677203	-0.322935
Zn3	Zn	0.945544	-0.494202	-0.318229
Zn4	Zn	0.940808	-0.676569	-0.435688
O5	O	1.001917	-0.589062	-0.379322
O6	O	1.157278	-0.536840	-0.428806
O7	O	1.051339	-0.647302	-0.223980
O8	O	0.960537	-0.349051	-0.334457
O9	O	1.160701	-0.660950	-0.342479
O10	O	1.043399	-0.359391	-0.424243
O11	O	0.965055	-0.512852	-0.220522
O12	O	0.846583	-0.512238	-0.329853
O13	O	0.952466	-0.659870	-0.534649
O14	O	0.843104	-0.646223	-0.416150
O15	O	1.038807	-0.536225	-0.538138
O16	O	1.046747	-0.824137	-0.337875
O17	O	0.956983	-0.823671	-0.420714
C18	C	0.819347	-0.577635	-0.371976
C19	C	0.741242	-0.572772	-0.368850
C20	C	1.001876	-0.862026	-0.379306
C21	C	1.001921	-0.978807	-0.379325
C22	C	0.702758	-0.640344	-0.412241
C23	C	0.629371	-0.635761	-0.409307
C24	C	0.594468	-0.563612	-0.362979
C25	C	0.632957	-0.496033	-0.319586
C26	C	0.706344	-0.500611	-0.322524
C27	C	0.375179	-0.542424	-0.349385
C28	C	0.301787	-0.537853	-0.346449
C29	C	0.298205	-0.677581	-0.436172
C30	C	0.371593	-0.682157	-0.439102
C31	C	0.410076	-0.614574	-0.395712
N32	N	0.519454	-0.558928	-0.359977
N33	N	0.485088	-0.619253	-0.398718
C34	C	1.048709	-1.033882	-0.336242
C35	C	1.048751	-1.143610	-0.336266
C36	C	0.955212	-1.143177	-0.422456
C37	C	0.955173	-1.033452	-0.422436
C38	C	1.095457	-0.979237	-0.293132
C39	C	1.142248	-1.034313	-0.250045
C40	C	1.142290	-1.144041	-0.250068
C41	C	1.095542	-1.198693	-0.293178
C42	C	1.185199	-0.600535	-0.386697
C43	C	1.263303	-0.605424	-0.389840
C44	C	0.994588	-0.599547	-0.562603
C45	C	0.991465	-0.604015	-0.640706
C46	C	1.001976	-0.315035	-0.379355
C47	C	1.002002	-0.198260	-0.379368
C48	C	1.034949	-0.541742	-0.679216
C49	C	1.032006	-0.545935	-0.752602
C50	C	0.985583	-0.612408	-0.787477
C51	C	0.942094	-0.674683	-0.748961
C52	C	0.945034	-0.670484	-0.675576
C53	C	0.971967	-0.631866	-1.006758
C54	C	0.969032	-0.636063	-1.080148
C55	C	1.058943	-0.507313	-1.083785
C56	C	1.061882	-0.503124	-1.010398
C57	C	1.018391	-0.565395	-0.971889
N58	N	0.982575	-0.616698	-0.862489
N59	N	1.021396	-0.561099	-0.896878
C60	C	1.009257	-0.578545	-0.196756
C61	C	1.012516	-0.573790	-0.118659
H62	H	0.598040	-0.690786	-0.444640
C63	C	0.263400	-0.458472	-0.295487
C64	C	0.215143	-0.497548	-0.238239
C65	C	0.176758	-0.418170	-0.187279
C66	C	0.186631	-0.299716	-0.193567
C67	C	0.234890	-0.260634	-0.250817
C68	C	0.273274	-0.340012	-0.301778
H69	H	0.207833	-0.585240	-0.233582
H70	H	0.141034	-0.447101	-0.144898
H71	H	0.158216	-0.240955	-0.155843
H72	H	0.242200	-0.172942	-0.255474
H73	H	0.308999	-0.311080	-0.344158
C74	C	0.903787	-1.203291	-0.469870
C75	C	0.903826	-1.323985	-0.469891
C76	C	0.852399	-1.384097	-0.517304
C77	C	0.800932	-1.323516	-0.564696
C78	C	0.800891	-1.202816	-0.564677
C79	C	0.852318	-1.142703	-0.517264
H80	H	0.941927	-1.368837	-0.434807
H81	H	0.852430	-1.473448	-0.517318
H82	H	0.762863	-1.368015	-0.599794
H83	H	0.762791	-1.157964	-0.599761
H84	H	0.852288	-1.053353	-0.517250
H85	H	0.936564	-0.682588	-0.975413
C86	C	0.741147	-0.719711	-0.463205
C87	C	0.789409	-0.680621	-0.520444
C88	C	0.827795	-0.759987	-0.571411
C89	C	0.817919	-0.878443	-0.565139
C90	C	0.769656	-0.917539	-0.507897
C91	C	0.731270	-0.838173	-0.456930
H92	H	0.796721	-0.592927	-0.525090
H93	H	0.863523	-0.731045	-0.613786
H94	H	0.846335	-0.937195	-0.602868
H95	H	0.762343	-1.005232	-0.503251
H96	H	0.695542	-0.867115	-0.414555
H97	H	0.931226	-0.690196	-1.108541
C98	C	0.417496	-0.468103	-0.301637
C99	C	0.407182	-0.348385	-0.307083
C100	C	0.449499	-0.274067	-0.259325
C101	C	0.502131	-0.319466	-0.206120
C102	C	0.512447	-0.439190	-0.200671
C103	C	0.470130	-0.513509	-0.248430
H104	H	0.368219	-0.314772	-0.346471
H105	H	0.441862	-0.185439	-0.263358
H106	H	0.533457	-0.264452	-0.170766
H107	H	0.551410	-0.472803	-0.161284
H108	H	0.477767	-0.602137	-0.244396
H109	H	0.909618	-0.721182	-0.644221
C110	C	0.409984	-0.761515	-0.490071
C111	C	0.367652	-0.835838	-0.537806
C112	C	0.406043	-0.915198	-0.588774
C113	C	0.486765	-0.920234	-0.592007
C114	C	0.529101	-0.845907	-0.544271
C115	C	0.490710	-0.766548	-0.493302
H116	H	0.307893	-0.832112	-0.535414
H117	H	0.374702	-0.970219	-0.624112
H118	H	0.515184	-0.978980	-0.629737
H119	H	0.588860	-0.849633	-0.546662
H120	H	0.522051	-0.711527	-0.457965
C121	C	0.255873	-0.751909	-0.483904
C122	C	0.206623	-0.829428	-0.451345
C123	C	0.164291	-0.903756	-0.499082
C124	C	0.171208	-0.900565	-0.579378
C125	C	0.220459	-0.823042	-0.611941
C126	C	0.262792	-0.748714	-0.564204
H127	H	0.201501	-0.831793	-0.391902
H128	H	0.127831	-0.961143	-0.474976
H129	H	0.139870	-0.955587	-0.614716
H130	H	0.225581	-0.820677	-0.671384
H131	H	0.299251	-0.691327	-0.588310
C132	C	0.748681	-0.426284	-0.274793
C133	C	0.797925	-0.348766	-0.307361
C134	C	0.840262	-0.274432	-0.259632
C135	C	0.833354	-0.277616	-0.179335
C136	C	0.784107	-0.355137	-0.146763
C137	C	0.741771	-0.429470	-0.194492
H138	H	0.803041	-0.346407	-0.366806
H139	H	0.876717	-0.217047	-0.283745
H140	H	0.864694	-0.222590	-0.144003
H141	H	0.778992	-0.357496	-0.087319
H142	H	0.705315	-0.486856	-0.170379
C143	C	1.193673	-0.974201	-0.202629
C144	C	1.193630	-0.853507	-0.202600
C145	C	1.245057	-0.793398	-0.155184
C146	C	1.296527	-0.853984	-0.107798
C147	C	1.296572	-0.974685	-0.107826
C148	C	1.245145	-1.034794	-0.155241
H149	H	1.155527	-0.808652	-0.237680
H150	H	1.245023	-0.704047	-0.155164
H151	H	1.334596	-0.809488	-0.072698
H152	H	1.334675	-1.019540	-0.072746
H153	H	1.245179	-1.124145	-0.155261
H154	H	0.604534	-0.437283	-0.281867
C155	C	1.086016	-0.468619	-0.640857
C156	C	1.079901	-0.349404	-0.650731
C157	C	1.130968	-0.276277	-0.612375
C158	C	1.188149	-0.322365	-0.564144
C159	C	1.194267	-0.441586	-0.554268
C160	C	1.143200	-0.514713	-0.592625
H161	H	1.037570	-0.315282	-0.686436
H162	H	1.126439	-0.188021	-0.619686
H163	H	1.225952	-0.268232	-0.535750
H164	H	1.236598	-0.475709	-0.518563
H165	H	1.147729	-0.602969	-0.585314
C166	C	0.891027	-0.747805	-0.787320
C167	C	0.887794	-0.752434	-0.868041
C168	C	0.836728	-0.825560	-0.906398
C169	C	0.788895	-0.894058	-0.864036
C170	C	0.792126	-0.889432	-0.783311
C171	C	0.843193	-0.816305	-0.744953
H172	H	0.923204	-0.701725	-0.899404
H173	H	0.834335	-0.828984	-0.966156
H174	H	0.751092	-0.948190	-0.892430
H175	H	0.756716	-0.940140	-0.751947
H176	H	0.845585	-0.812881	-0.685195
H177	H	0.917075	-0.988609	-0.457518
H178	H	1.180395	-1.188881	-0.214990
C179	C	1.079841	-0.477431	-0.794960
C180	C	1.160125	-0.490433	-0.788090
C181	C	1.207961	-0.421922	-0.830446
C182	C	1.175512	-0.340408	-0.879673
C183	C	1.095223	-0.327402	-0.886545
C184	C	1.047387	-0.395914	-0.844189
H185	H	1.184150	-0.550777	-0.751648
H186	H	1.267396	-0.431550	-0.825359
H187	H	1.210923	-0.289692	-0.911027
H188	H	1.071198	-0.267058	-0.922987
H189	H	0.987952	-0.386286	-0.849276
H190	H	1.095585	-1.288042	-0.293200
H191	H	1.095426	-0.889891	-0.293106
H192	H	1.099687	-0.448998	-0.982009
H193	H	1.094350	-0.456614	-1.115147
