data_functionalizedCrystal
_audit_creation_method	'MofGen! by Chris Wilmer'
_symmetry_space_group_name_H-M	'P1'
_symmetry_Int_Tables_number	1
_symmetry_cell_setting	triclinic
loop_
_symmetry_equiv_pos_as_xyz
  x,y,z
_cell_length_a	18.101398
_cell_length_b	18.101397
_cell_length_c	17.077396
_cell_angle_alpha	89.967492
_cell_angle_beta	89.976860
_cell_angle_gamma	90.018196
loop_
_atom_site_label
_atom_site_type_symbol
_atom_site_fract_x
_atom_site_fract_y
_atom_site_fract_z
Zn1	Zn	1.132164	-0.294868	-0.443949
Zn2	Zn	1.465497	0.038465	-0.110615
Zn3	Zn	1.798830	0.371798	0.222718
Zn4	Zn	1.132086	-0.418719	-0.312675
Zn5	Zn	1.465419	-0.085385	0.020658
Zn6	Zn	1.798753	0.247948	0.353991
Zn7	Zn	1.008326	-0.294891	-0.312683
Zn8	Zn	1.341659	0.038443	0.020650
Zn9	Zn	1.674993	0.371776	0.353983
Zn10	Zn	1.008296	-0.418668	-0.443886
Zn11	Zn	1.341630	-0.085334	-0.110552
Zn12	Zn	1.674963	0.247999	0.222781
O13	O	1.070218	-0.356786	-0.378298
O14	O	1.403551	-0.023453	-0.044965
O15	O	1.736885	0.309880	0.288368
O16	O	1.235786	-0.311309	-0.426558
O17	O	1.569120	0.022024	-0.093225
O18	O	1.902453	0.355357	0.240108
O19	O	1.115649	-0.402323	-0.202829
O20	O	1.448982	-0.068990	0.130504
O21	O	1.782316	0.264343	0.463837
O22	O	1.024798	-0.191255	-0.330126
O23	O	1.358132	0.142079	0.003208
O24	O	1.691465	0.475412	0.336541
O25	O	1.235729	-0.402302	-0.330112
O26	O	1.569063	-0.068968	0.003221
O27	O	1.902396	0.264365	0.336554
O28	O	1.115781	-0.191238	-0.426566
O29	O	1.449115	0.142095	-0.093232
O30	O	1.782448	0.475428	0.240101
O31	O	1.024723	-0.311348	-0.202835
O32	O	1.358057	0.021986	0.130498
O33	O	1.691390	0.355319	0.463831
O34	O	0.904689	-0.311298	-0.330064
O35	O	1.238023	0.022035	0.003269
O36	O	1.571356	0.355369	0.336602
O37	O	1.024748	-0.402215	-0.553741
O38	O	1.358081	-0.068881	-0.220408
O39	O	1.691414	0.264452	0.112926
O40	O	0.904667	-0.402236	-0.426458
O41	O	1.238001	-0.068903	-0.093125
O42	O	1.571334	0.264430	0.240209
O43	O	1.115752	-0.311260	-0.553787
O44	O	1.449086	0.022074	-0.220454
O45	O	1.782419	0.355407	0.112879
O46	O	1.115620	-0.522345	-0.330051
O47	O	1.448954	-0.189012	0.003282
O48	O	1.782287	0.144322	0.336616
O49	O	1.024672	-0.522307	-0.426451
O50	O	1.358006	-0.188974	-0.093117
O51	O	1.691339	0.144359	0.240216
C52	C	0.877808	-0.356765	-0.378256
C53	C	1.211141	-0.023431	-0.044922
C54	C	1.544474	0.309902	0.288411
C55	C	0.795493	-0.356773	-0.378256
C56	C	1.128827	-0.023440	-0.044923
C57	C	1.462160	0.309894	0.288411
C58	C	0.644785	-0.356788	-0.378291
C59	C	0.978118	-0.023455	-0.044958
C60	C	1.311452	0.309878	0.288375
C61	C	0.613420	-0.299490	-0.317744
C62	C	0.946754	0.033843	0.015589
C63	C	1.280087	0.367176	0.348923
C64	C	0.527802	-0.299275	-0.317943
C65	C	0.861135	0.034059	0.015391
C66	C	1.194469	0.367392	0.348724
C67	C	0.496402	-0.356803	-0.378325
C68	C	0.829736	-0.023470	-0.044991
C69	C	1.163069	0.309864	0.288342
C70	C	0.527536	-0.335968	-0.461146
C71	C	0.860870	-0.002635	-0.127813
C72	C	1.194203	0.330698	0.205521
C73	C	0.613181	-0.335544	-0.460777
C74	C	0.946514	-0.002211	-0.127443
C75	C	1.279848	0.331123	0.205890
C76	C	0.613196	-0.435069	-0.356748
C77	C	0.946530	-0.101736	-0.023414
C78	C	1.279863	0.231597	0.309919
C79	C	0.527545	-0.434657	-0.354943
C80	C	0.860878	-0.101323	-0.021609
C81	C	1.194212	0.232010	0.311724
C82	C	0.412543	-0.356813	-0.378349
C83	C	0.745876	-0.023479	-0.045015
C84	C	1.079210	0.309854	0.288318
C85	C	0.728644	-0.356777	-0.378273
C86	C	1.061978	-0.023443	-0.044940
C87	C	1.395311	0.309890	0.288394
C88	C	1.070155	-0.549197	-0.378260
C89	C	1.403488	-0.215864	-0.044927
C90	C	1.736821	0.117470	0.288406
C91	C	1.070195	-0.631511	-0.378270
C92	C	1.403529	-0.298178	-0.044937
C93	C	1.736862	0.035156	0.288397
C94	C	1.070290	-0.930602	-0.378342
C95	C	1.403623	-0.597269	-0.045008
C96	C	1.736957	-0.263935	0.288325
C97	C	1.127352	-0.899269	-0.317527
C98	C	1.460685	-0.565936	0.015806
C99	C	1.794019	-0.232603	0.349139
C100	C	1.127550	-0.813651	-0.317685
C101	C	1.460883	-0.480318	0.015648
C102	C	1.794217	-0.146984	0.348982
C103	C	1.070243	-0.782219	-0.378306
C104	C	1.403576	-0.448886	-0.044972
C105	C	1.736910	-0.115553	0.288361
C106	C	1.091397	-0.813225	-0.461049
C107	C	1.424730	-0.479891	-0.127716
C108	C	1.758063	-0.146558	0.205617
C109	C	1.091838	-0.898870	-0.460718
C110	C	1.425172	-0.565536	-0.127385
C111	C	1.758505	-0.232203	0.205949
C112	C	0.991922	-0.899108	-0.357129
C113	C	1.325255	-0.565775	-0.023795
C114	C	1.658588	-0.232442	0.309538
C115	C	0.992309	-0.813459	-0.355282
C116	C	1.325642	-0.480126	-0.021949
C117	C	1.658975	-0.146792	0.311385
C118	C	1.070215	-0.698360	-0.378290
C119	C	1.403549	-0.365027	-0.044957
C120	C	1.736882	-0.031693	0.288376
C121	C	1.070319	-1.014461	-0.378363
C122	C	1.403653	-0.681128	-0.045029
C123	C	1.736986	-0.347795	0.288304
C124	C	1.263380	-0.356809	-0.378342
C125	C	1.596713	-0.023475	-0.045008
C126	C	1.930047	0.309858	0.288325
C127	C	1.345694	-0.356818	-0.378360
C128	C	1.679027	-0.023485	-0.045027
C129	C	2.012361	0.309848	0.288307
C130	C	1.070255	-0.356729	-0.583043
C131	C	1.403589	-0.023396	-0.249709
C132	C	1.736922	0.309938	0.083624
C133	C	1.070271	-0.356704	-0.670292
C134	C	1.403604	-0.023371	-0.336959
C135	C	1.736938	0.309962	-0.003626
C136	C	1.070302	-0.163624	-0.378354
C137	C	1.403635	0.169709	-0.045020
C138	C	1.736969	0.503042	0.288313
C139	C	1.070338	-0.081310	-0.378377
C140	C	1.403671	0.252023	-0.045044
C141	C	1.737004	0.585356	0.288289
C142	C	1.022940	-0.309328	-0.711285
C143	C	1.356274	0.024006	-0.377952
C144	C	1.689607	0.357339	-0.044618
C145	C	1.022953	-0.309311	-0.793265
C146	C	1.356286	0.024022	-0.459932
C147	C	1.689619	0.357356	-0.126599
C148	C	1.070300	-0.356668	-0.834252
C149	C	1.403633	-0.023334	-0.500919
C150	C	1.736966	0.309999	-0.167585
C151	C	1.117632	-0.404050	-0.793254
C152	C	1.450966	-0.070716	-0.459920
C153	C	1.784299	0.262617	-0.126587
C154	C	1.117616	-0.404070	-0.711275
C155	C	1.450949	-0.070736	-0.377941
C156	C	1.784283	0.262597	-0.044608
C157	C	1.117664	-0.404003	-0.964124
C158	C	1.450998	-0.070670	-0.630791
C159	C	1.784331	0.262663	-0.297457
C160	C	1.117682	-0.403983	-1.046109
C161	C	1.451015	-0.070649	-0.712775
C162	C	1.784349	0.262684	-0.379442
C163	C	1.023001	-0.309245	-1.046115
C164	C	1.356334	0.024089	-0.712781
C165	C	1.689668	0.357422	-0.379448
C166	C	1.022985	-0.309265	-0.964136
C167	C	1.356318	0.024069	-0.630802
C168	C	1.689651	0.357402	-0.297469
C169	C	1.070319	-0.356646	-0.923143
C170	C	1.403652	-0.023313	-0.589810
C171	C	1.736985	0.310021	-0.256476
C172	C	1.070224	-0.356790	-0.174350
C173	C	1.403557	-0.023457	0.158983
C174	C	1.736890	0.309877	0.492316
C175	C	1.070351	-0.356606	-0.087101
C176	C	1.403685	-0.023273	0.246232
C177	C	1.737018	0.310061	0.579566
H178	H	0.506105	-0.279390	-0.479676
H179	H	0.839438	0.053944	-0.146343
H180	H	1.172772	0.387277	0.186990
F181	F	1.166712	-0.924910	-0.484202
F182	F	1.500045	-0.591577	-0.150869
F183	F	1.833378	-0.258243	0.182465
F184	F	0.639316	-0.260765	-0.484578
F185	F	0.972650	0.072568	-0.151245
F186	F	1.305983	0.405902	0.182089
F187	F	0.972597	-0.258858	-0.920516
F188	F	1.305931	0.074476	-0.587183
F189	F	1.639264	0.407809	-0.253850
H190	H	0.984461	-0.270664	-1.079495
H191	H	1.317794	0.062669	-0.746161
H192	H	1.651127	0.396003	-0.412828
H193	H	0.972677	-0.920770	-0.297838
H194	H	1.306010	-0.587437	0.035495
H195	H	1.639344	-0.254103	0.368829
F196	F	0.499631	-0.493411	-0.408367
F197	F	0.832964	-0.160078	-0.075034
F198	F	1.166298	0.173255	0.258299
H199	H	1.185086	-0.920739	-0.331402
H200	H	1.518419	-0.587406	0.001931
H201	H	1.851752	-0.254073	0.335265
F202	F	1.168018	-0.454455	-0.836877
F203	F	1.501352	-0.121122	-0.503543
F204	F	1.834685	0.212212	-0.170210
F205	F	0.639725	-0.490868	-0.414372
F206	F	0.973058	-0.157534	-0.081039
F207	F	1.306391	0.175799	0.252294
F208	F	1.039867	-0.925960	-0.521957
F209	F	1.373200	-0.592626	-0.188624
F210	F	1.706534	-0.259293	0.144709
H211	H	0.633965	-0.312341	-0.256139
H212	H	0.967299	0.020992	0.077194
H213	H	1.300632	0.354326	0.410527
H214	H	1.114278	-0.919914	-0.255991
H215	H	1.447611	-0.586581	0.077343
H216	H	1.780945	-0.253247	0.410676
F217	F	0.936350	-0.925594	-0.415021
F218	F	1.269683	-0.592261	-0.081688
F219	F	1.603016	-0.258927	0.251645
H220	H	0.984408	-0.270735	-0.826638
H221	H	1.317742	0.062599	-0.493305
H222	H	1.651075	0.395932	-0.159971
F223	F	0.641382	-0.459936	-0.279125
F224	F	0.974715	-0.126603	0.054208
F225	F	1.308048	0.206730	0.387542
F226	F	1.168078	-0.454381	-1.089728
F227	F	1.501411	-0.121048	-0.756395
F228	F	1.834744	0.212286	-0.423061
H229	H	0.976358	-0.793202	-0.294389
H230	H	1.309692	-0.459868	0.038944
H231	H	1.643025	-0.126535	0.372278
H232	H	0.506749	-0.312274	-0.256542
H233	H	0.840082	0.021060	0.076791
H234	H	1.173416	0.354393	0.410125
F235	F	0.641568	-0.224101	-0.336198
F236	F	0.974901	0.109232	-0.002865
F237	F	1.308234	0.442565	0.330469
H238	H	1.148039	-0.791719	-0.479321
H239	H	1.481372	-0.458386	-0.145987
H240	H	1.814705	-0.125052	0.187346
F241	F	0.933746	-0.785504	-0.408936
F242	F	1.267080	-0.452170	-0.075603
F243	F	1.600413	-0.118837	0.257730
F244	F	1.038730	-0.786618	-0.521869
F245	F	1.372063	-0.453285	-0.188535
F246	F	1.705397	-0.119952	0.144798
F247	F	0.500943	-0.455202	-0.275273
F248	F	0.834276	-0.121869	0.058060
F249	F	1.167610	0.211464	0.391393
F250	F	1.203426	-0.786798	-0.336035
F251	F	1.536759	-0.453465	-0.002701
F252	F	1.870092	-0.120131	0.330632
F253	F	1.110213	-0.786252	-0.237502
F254	F	1.443547	-0.452919	0.095832
F255	F	1.776880	-0.119585	0.429165
H256	H	0.507329	-0.241273	-0.332246
H257	H	0.840662	0.092060	0.001087
H258	H	1.173995	0.425393	0.334420
H259	H	1.156215	-0.442580	-0.930750
H260	H	1.489549	-0.109247	-0.597417
H261	H	1.822882	0.224087	-0.264084
H262	H	0.633933	-0.375480	-0.507451
H263	H	0.967267	-0.042146	-0.174118
H264	H	1.300600	0.291187	0.159215
F265	F	0.972550	-0.258919	-0.667671
F266	F	1.305883	0.074414	-0.334338
F267	F	1.639217	0.407747	-0.001005
F268	F	0.500960	-0.388854	-0.521747
F269	F	0.834293	-0.055520	-0.188413
F270	F	1.167626	0.277813	0.144920
F271	F	1.167989	-0.454497	-0.667648
F272	F	1.501323	-0.121164	-0.334314
F273	F	1.834656	0.212169	-0.000981
