data_functionalizedCrystal
_audit_creation_method	'MofGen! by Chris Wilmer'
_symmetry_space_group_name_H-M	'P1'
_symmetry_Int_Tables_number	1
_symmetry_cell_setting	triclinic
loop_
_symmetry_equiv_pos_as_xyz
  x,y,z
_cell_length_a	17.699083
_cell_length_b	17.699083
_cell_length_c	16.176319
_cell_angle_alpha	90.007566
_cell_angle_beta	90.001819
_cell_angle_gamma	83.283015
loop_
_atom_site_label
_atom_site_type_symbol
_atom_site_fract_x
_atom_site_fract_y
_atom_site_fract_z
O1	O	-1.004079	-0.095713	-0.068632
O2	O	-0.670746	0.237620	0.264701
O3	O	-0.337413	0.570954	0.598034
O4	O	-0.783701	-0.108165	-0.068660
O5	O	-0.450368	0.225168	0.264674
O6	O	-0.117034	0.558501	0.598007
O7	O	-0.900116	0.008250	-0.068638
O8	O	-0.566783	0.341583	0.264695
O9	O	-0.233450	0.674917	0.598029
O10	O	-0.887664	-0.212128	-0.068654
O11	O	-0.554331	0.121205	0.264679
O12	O	-0.220997	0.454538	0.598013
O13	O	-0.900099	0.008257	0.068855
O14	O	-0.566766	0.341590	0.402189
O15	O	-0.233433	0.674924	0.735522
O16	O	-0.783684	-0.108158	0.068834
O17	O	-0.450351	0.225175	0.402167
O18	O	-0.117017	0.558508	0.735500
O19	O	-1.004062	-0.095706	0.068861
O20	O	-0.670729	0.237627	0.402194
O21	O	-0.337396	0.570961	0.735528
Cu22	Cu	-0.893872	-0.101932	0.081401
Cu23	Cu	-0.560538	0.231402	0.414735
Cu24	Cu	-0.227205	0.564735	0.748068
Cu25	Cu	-0.893892	-0.101940	-0.081200
Cu26	Cu	-0.560558	0.231394	0.252133
Cu27	Cu	-0.227225	0.564727	0.585467
O28	O	-0.887647	-0.212121	0.068839
O29	O	-0.554314	0.121212	0.402173
O30	O	-0.220980	0.454545	0.735506
C31	C	-0.755495	-0.107716	0.000084
C32	C	-0.422162	0.225618	0.333417
C33	C	-0.088829	0.558951	0.666750
C34	C	-0.671477	-0.106377	0.000073
C35	C	-0.338144	0.226956	0.333407
C36	C	-0.004811	0.560290	0.666740
C37	C	-0.899662	0.036451	0.000109
C38	C	-0.566328	0.369784	0.333442
C39	C	-0.232995	0.703117	0.666775
C40	C	-0.898323	0.120469	0.000109
C41	C	-0.564990	0.453802	0.333442
C42	C	-0.231656	0.787135	0.666776
N43	N	-0.893863	-0.101925	0.195767
N44	N	-0.560530	0.231408	0.529100
N45	N	-0.227196	0.564741	0.862433
C46	C	-1.032268	-0.096156	0.000116
C47	C	-0.698934	0.237178	0.333449
C48	C	-0.365601	0.570511	0.666783
C49	C	-1.116286	-0.097494	0.000121
C50	C	-0.782953	0.235839	0.333454
C51	C	-0.449619	0.569172	0.666787
C52	C	-0.622856	-0.174710	0.000069
C53	C	-0.289523	0.158623	0.333402
C54	C	0.043810	0.491956	0.666735
C55	C	-0.543913	-0.173448	0.000079
C56	C	-0.210580	0.159885	0.333413
C57	C	0.122754	0.493218	0.666746
C58	C	-0.513592	-0.103852	0.000089
C59	C	-0.180259	0.229482	0.333422
C60	C	0.153074	0.562815	0.666756
C61	C	-0.562219	-0.035513	0.000096
C62	C	-0.228886	0.297820	0.333430
C63	C	0.104447	0.631154	0.666763
C64	C	-0.641161	-0.036776	0.000091
C65	C	-0.307828	0.296557	0.333425
C66	C	0.025505	0.629891	0.666758
C67	C	-0.243856	-0.030418	0.000117
C68	C	0.089477	0.302915	0.333450
C69	C	0.422810	0.636249	0.666784
C70	C	-0.164908	-0.029160	0.000120
C71	C	0.168425	0.304173	0.333453
C72	C	0.501758	0.637507	0.666786
C73	C	-0.146608	-0.167090	0.000105
C74	C	0.186725	0.166243	0.333438
C75	C	0.520058	0.499577	0.666772
C76	C	-0.225550	-0.168353	0.000100
C77	C	0.107783	0.164980	0.333434
C78	C	0.441117	0.498314	0.666767
C79	C	-0.274170	-0.100015	0.000112
C80	C	0.059163	0.233319	0.333445
C81	C	0.392496	0.566652	0.666778
C82	C	-0.359769	-0.101384	0.000102
C83	C	-0.026436	0.231949	0.333435
C84	C	0.306897	0.565282	0.666768
C85	C	-0.427995	-0.102481	0.000093
C86	C	-0.094661	0.230852	0.333427
C87	C	0.238672	0.564185	0.666760
C88	C	-0.888102	-0.240322	0.000091
C89	C	-0.554768	0.093011	0.333424
C90	C	-0.221435	0.426345	0.666757
C91	C	-0.889440	-0.324340	0.000085
C92	C	-0.556107	0.008993	0.333418
C93	C	-0.222773	0.342327	0.666752
C94	C	-0.966656	0.169090	0.000119
C95	C	-0.633323	0.502423	0.333452
C96	C	-0.299990	0.835756	0.666785
C97	C	-0.965394	0.248033	0.000111
C98	C	-0.632061	0.581366	0.333444
C99	C	-0.298727	0.914700	0.666778
C100	C	-0.895798	0.278354	0.000100
C101	C	-0.562464	0.611687	0.333433
C102	C	-0.229131	0.945020	0.666767
C103	C	-0.827459	0.229727	0.000088
C104	C	-0.494126	0.563060	0.333421
C105	C	-0.160792	0.896393	0.666754
C106	C	-0.828722	0.150785	0.000089
C107	C	-0.495389	0.484118	0.333423
C108	C	-0.162055	0.817451	0.666756
C109	C	-0.822364	0.548090	0.000080
C110	C	-0.489030	0.881423	0.333414
C111	C	-0.155697	1.214756	0.666747
C112	C	-0.821106	0.627038	0.000081
C113	C	-0.487773	0.960371	0.333415
C114	C	-0.154439	1.293704	0.666748
C115	C	-0.959036	0.645338	0.000102
C116	C	-0.625703	0.978671	0.333436
C117	C	-0.292369	1.312004	0.666769
C118	C	-0.960299	0.566396	0.000104
C119	C	-0.626966	0.899729	0.333437
C120	C	-0.293632	1.233063	0.666770
C121	C	-0.891961	0.517776	0.000087
C122	C	-0.558627	0.851109	0.333421
C123	C	-0.225294	1.184442	0.666754
C124	C	-0.893330	0.432177	0.000094
C125	C	-0.559997	0.765510	0.333427
C126	C	-0.226664	1.098843	0.666760
C127	C	-0.894427	0.363951	0.000099
C128	C	-0.561094	0.697285	0.333433
C129	C	-0.227761	1.030618	0.666766
C130	C	-0.945427	-0.050398	0.239040
C131	C	-0.612094	0.282936	0.572374
C132	C	-0.278760	0.616269	0.905707
C133	C	-0.945430	-0.050397	0.325588
C134	C	-0.612097	0.282936	0.658921
C135	C	-0.278763	0.616270	0.992254
C136	C	-0.893872	-0.101928	0.368859
C137	C	-0.560539	0.231405	0.702193
C138	C	-0.227206	0.564738	1.035526
C139	C	-0.842303	-0.153458	0.325579
C140	C	-0.508970	0.179875	0.658913
C141	C	-0.175636	0.513208	0.992246
C142	C	-0.842297	-0.153455	0.239034
C143	C	-0.508963	0.179879	0.572367
C144	C	-0.175630	0.513212	0.905701
C145	C	-0.842326	-0.153474	0.674608
C146	C	-0.508993	0.179860	1.007941
C147	C	-0.175660	0.513193	1.341274
C148	C	-0.842338	-0.153475	0.761159
C149	C	-0.509005	0.179859	1.094493
C150	C	-0.175671	0.513192	1.427826
C151	C	-0.945460	-0.050416	0.761161
C152	C	-0.612126	0.282917	1.094495
C153	C	-0.278793	0.616251	1.427828
C154	C	-0.945453	-0.050412	0.674616
C155	C	-0.612120	0.282921	1.007949
C156	C	-0.278787	0.616254	1.341283
C157	C	-0.893882	-0.101939	0.631344
C158	C	-0.560548	0.231394	0.964677
C159	C	-0.227215	0.564727	1.298010
C160	C	-0.893878	-0.101938	0.537499
C161	C	-0.560545	0.231395	0.870833
C162	C	-0.227211	0.564728	1.204166
C163	C	-0.893879	-0.101934	0.462702
C164	C	-0.560546	0.231400	0.796035
C165	C	-0.227213	0.564733	1.129369
N166	N	-0.893899	-0.101943	0.804435
N167	N	-0.560566	0.231390	1.137768
N168	N	-0.227232	0.564724	1.471101
H169	H	-0.647537	-0.231384	0.000060
H170	H	-0.314204	0.101949	0.333394
H171	H	0.019130	0.435283	0.666727
H172	H	-0.800351	-0.195439	0.796390
H173	H	-0.467017	0.137894	1.129723
H174	H	-0.133684	0.471227	1.463056
Br175	Br	-0.266696	-0.262808	0.000079
Br176	Br	0.066638	0.070525	0.333413
Br177	Br	0.399971	0.403858	0.666746
H178	H	-1.023330	0.144409	0.000133
H179	H	-0.689997	0.477742	0.333466
H180	H	-0.356663	0.811076	0.666799
Br181	Br	-0.772340	-0.223402	0.615886
Br182	Br	-0.439007	0.109931	0.949219
Br183	Br	-0.105673	0.443264	1.282552
H184	H	-0.140225	0.027517	0.000128
H185	H	0.193108	0.360850	0.333462
H186	H	0.526442	0.694184	0.666795
H187	H	-0.987417	-0.008439	0.360821
H188	H	-0.654083	0.324894	0.694154
H189	H	-0.320750	0.658228	1.027487
Br190	Br	-0.733005	0.270875	0.000059
Br191	Br	-0.399672	0.604208	0.333392
Br192	Br	-0.066339	0.937542	0.666725
H193	H	-0.107012	-0.222734	0.000100
H194	H	0.226322	0.110599	0.333433
H195	H	0.559655	0.443933	0.666767
H196	H	-0.283434	0.025228	0.000127
H197	H	0.049899	0.358561	0.333461
H198	H	0.383233	0.691894	0.666794
H199	H	-0.504328	-0.229092	0.000075
H200	H	-0.170995	0.104241	0.333408
H201	H	0.162338	0.437574	0.666741
H202	H	-0.537526	0.021154	0.000116
H203	H	-0.204193	0.354487	0.333449
H204	H	0.129141	0.687820	0.666783
H205	H	-0.680748	0.018868	0.000095
H206	H	-0.347415	0.352201	0.333428
H207	H	-0.014082	0.685535	0.666761
H208	H	-1.021038	0.287618	0.000121
H209	H	-0.687705	0.620951	0.333454
H210	H	-0.354372	0.954284	0.666787
H211	H	-1.016971	0.541714	0.000117
H212	H	-0.683638	0.875047	0.333450
H213	H	-0.350305	1.208380	0.666784
H214	H	-0.987439	-0.008453	0.639387
H215	H	-0.654106	0.324880	0.972720
H216	H	-0.320772	0.658213	1.306053
H217	H	-1.014680	0.684934	0.000111
H218	H	-0.681347	1.018268	0.333445
H219	H	-0.348013	1.351601	0.666778
H220	H	-0.764429	0.651721	0.000074
H221	H	-0.431096	0.985054	0.333407
H222	H	-0.097762	1.318388	0.666741
H223	H	-0.800307	-0.195413	0.203801
H224	H	-0.466974	0.137921	0.537134
H225	H	-0.133641	0.471254	0.870468
H226	H	-0.773078	0.111198	0.000081
H227	H	-0.439745	0.444531	0.333415
H228	H	-0.106411	0.777864	0.666748
H229	H	-0.766718	0.508512	0.000067
H230	H	-0.433385	0.841845	0.333401
H231	H	-0.100052	1.175179	0.666734
H232	H	-0.987450	-0.008457	0.796403
H233	H	-0.654117	0.324876	1.129736
H234	H	-0.320783	0.658209	1.463070
Br235	Br	-0.772324	-0.223390	0.384302
Br236	Br	-0.438991	0.109943	0.717635
Br237	Br	-0.105658	0.443276	1.050969
Br238	Br	-1.015408	0.019537	0.180324
Br239	Br	-0.682074	0.352870	0.513657
Br240	Br	-0.348741	0.686203	0.846990
