data_functionalizedCrystal
_audit_creation_method	'MofGen! by Chris Wilmer'
_symmetry_space_group_name_H-M	'P1'
_symmetry_Int_Tables_number	1
_symmetry_cell_setting	triclinic
loop_
_symmetry_equiv_pos_as_xyz
  x,y,z
_cell_length_a	19.188930
_cell_length_b	19.188930
_cell_length_c	18.266242
_cell_angle_alpha	90.010255
_cell_angle_beta	90.022820
_cell_angle_gamma	83.144779
loop_
_atom_site_label
_atom_site_type_symbol
_atom_site_fract_x
_atom_site_fract_y
_atom_site_fract_z
O1	O	0.926149	0.087167	0.061124
O2	O	1.259483	0.420501	0.394458
O3	O	1.592816	0.753834	0.727791
O4	O	0.722838	0.098902	0.061075
O5	O	1.056171	0.432235	0.394409
O6	O	1.389505	0.765568	0.727742
O7	O	0.830361	-0.008621	0.061087
O8	O	1.163694	0.324712	0.394420
O9	O	1.497027	0.658046	0.727754
O10	O	0.818627	0.194690	0.061113
O11	O	1.151960	0.528024	0.394446
O12	O	1.485293	0.861357	0.727779
O13	O	0.830343	-0.008624	-0.060675
O14	O	1.163676	0.324709	0.272658
O15	O	1.497009	0.658043	0.605992
O16	O	0.722820	0.098899	-0.060687
O17	O	1.056153	0.432232	0.272647
O18	O	1.389486	0.765565	0.605980
O19	O	0.926131	0.087164	-0.060638
O20	O	1.259464	0.420498	0.272696
O21	O	1.592798	0.753831	0.606029
Zn22	Zn	0.824473	0.093031	-0.079994
Zn23	Zn	1.157806	0.426364	0.253339
Zn24	Zn	1.491139	0.759698	0.586672
Zn25	Zn	0.824497	0.093035	0.080432
Zn26	Zn	1.157830	0.426368	0.413766
Zn27	Zn	1.491163	0.759702	0.747099
O28	O	0.818608	0.194687	-0.060649
O29	O	1.151942	0.528021	0.272684
O30	O	1.485275	0.861354	0.606017
C31	C	0.696818	0.098520	0.000188
C32	C	1.030151	0.431854	0.333521
C33	C	1.363485	0.765187	0.666855
C34	C	0.619313	0.097380	0.000169
C35	C	0.952647	0.430713	0.333502
C36	C	1.285980	0.764046	0.666835
C37	C	0.829972	-0.034634	0.000204
C38	C	1.163305	0.298700	0.333537
C39	C	1.496638	0.632033	0.666870
C40	C	0.828831	-0.112138	0.000197
C41	C	1.162164	0.221195	0.333531
C42	C	1.495498	0.554529	0.666864
C43	C	0.574389	0.160470	0.000188
C44	C	0.907723	0.493804	0.333521
C45	C	1.241056	0.827137	0.666855
C46	C	0.501566	0.159399	0.000196
C47	C	0.834899	0.492732	0.333529
C48	C	1.168232	0.826065	0.666863
C49	C	0.473669	0.095233	0.000199
C50	C	0.807002	0.428566	0.333532
C51	C	1.140336	0.761899	0.666866
C52	C	0.518603	0.032133	0.000175
C53	C	0.851936	0.365467	0.333509
C54	C	1.185270	0.698800	0.666842
C55	C	0.591425	0.033207	0.000160
C56	C	0.924758	0.366540	0.333494
C57	C	1.258092	0.699874	0.666827
N58	N	0.365695	0.046187	0.041663
N59	N	0.699028	0.379520	0.374997
N60	N	1.032362	0.712853	0.708330
N61	N	0.296517	0.045171	0.041679
N62	N	0.629850	0.378505	0.375013
N63	N	0.963183	0.711838	0.708346
C64	C	0.254260	0.091994	0.000243
C65	C	0.587594	0.425328	0.333577
C66	C	0.920927	0.758661	0.666910
N67	N	0.283795	0.139882	-0.041200
N68	N	0.617128	0.473216	0.292133
N69	N	0.950462	0.806549	0.625467
N70	N	0.352980	0.140900	-0.041213
N71	N	0.686313	0.474233	0.292121
N72	N	1.019646	0.807566	0.625454
C73	C	0.394707	0.094062	0.000215
C74	C	0.728040	0.427395	0.333548
C75	C	1.061373	0.760728	0.666882
C76	C	0.130372	0.153928	0.000270
C77	C	0.463705	0.487261	0.333604
C78	C	0.797039	0.820594	0.666937
C79	C	0.057547	0.152853	0.000274
C80	C	0.390881	0.486187	0.333607
C81	C	0.724214	0.819520	0.666940
C82	C	0.074586	0.025586	0.000261
C83	C	0.407919	0.358920	0.333594
C84	C	0.741253	0.692253	0.666927
C85	C	0.147409	0.026662	0.000250
C86	C	0.480743	0.359996	0.333583
C87	C	0.814076	0.693329	0.666917
C88	C	0.175298	0.090835	0.000258
C89	C	0.508631	0.424168	0.333592
C90	C	0.841964	0.757502	0.666925
C91	C	0.891922	-0.157062	0.000209
C92	C	1.225255	0.176271	0.333542
C93	C	1.558589	0.509605	0.666876
C94	C	0.890850	-0.229886	0.000220
C95	C	1.224184	0.103448	0.333554
C96	C	1.557517	0.436781	0.666887
C97	C	0.826684	-0.257782	0.000206
C98	C	1.160017	0.075551	0.333539
C99	C	1.493351	0.408884	0.666872
C100	C	0.763585	-0.212849	0.000198
C101	C	1.096918	0.120485	0.333531
C102	C	1.430252	0.453818	0.666865
C103	C	0.764658	-0.140026	0.000194
C104	C	1.097992	0.193307	0.333527
C105	C	1.431325	0.526640	0.666860
N106	N	0.777631	-0.365788	-0.041244
N107	N	1.110964	-0.032455	0.292089
N108	N	1.444297	0.300878	0.625422
N109	N	0.776615	-0.434967	-0.041242
N110	N	1.109948	-0.101634	0.292091
N111	N	1.443282	0.231700	0.625425
C112	C	0.823446	-0.477191	0.000220
C113	C	1.156779	-0.143858	0.333553
C114	C	1.490113	0.189476	0.666886
N115	N	0.871341	-0.447625	0.041669
N116	N	1.204675	-0.114291	0.375003
N117	N	1.538008	0.219042	0.708336
N118	N	0.872359	-0.378440	0.041664
N119	N	1.205692	-0.045106	0.374997
N120	N	1.539025	0.288227	0.708330
C121	C	0.825513	-0.336745	0.000210
C122	C	1.158846	-0.003412	0.333544
C123	C	1.492180	0.329922	0.666877
C124	C	0.885379	-0.601079	0.000245
C125	C	1.218712	-0.267746	0.333578
C126	C	1.552046	0.065587	0.666911
C127	C	0.884305	-0.673904	0.000261
C128	C	1.217638	-0.340571	0.333594
C129	C	1.550971	-0.007238	0.666927
C130	C	0.757038	-0.656865	0.000231
C131	C	1.090371	-0.323532	0.333564
C132	C	1.423704	0.009801	0.666897
C133	C	0.758114	-0.584042	0.000222
C134	C	1.091447	-0.250709	0.333556
C135	C	1.424781	0.082624	0.666889
C136	C	0.822287	-0.556154	0.000226
C137	C	1.155620	-0.222821	0.333559
C138	C	1.488953	0.110513	0.666892
C139	C	0.952151	0.087546	0.000252
C140	C	1.285485	0.420879	0.333585
C141	C	1.618818	0.754213	0.666918
C142	C	1.029656	0.088687	0.000276
C143	C	1.362989	0.422020	0.333609
C144	C	1.696322	0.755353	0.666942
C145	C	0.818997	0.220700	0.000236
C146	C	1.152331	0.554033	0.333569
C147	C	1.485664	0.887366	0.666902
C148	C	0.820138	0.298204	0.000247
C149	C	1.153471	0.631538	0.333580
C150	C	1.486805	0.964871	0.666914
N151	N	0.824461	0.093028	-0.189481
N152	N	1.157795	0.426361	0.143852
N153	N	1.491128	0.759695	0.477185
C154	C	0.866670	0.135273	-0.227768
C155	C	1.200004	0.468607	0.105566
C156	C	1.533337	0.801940	0.438899
C157	C	0.866682	0.135271	-0.304413
C158	C	1.200015	0.468605	0.028921
C159	C	1.533349	0.801938	0.362254
C160	C	0.824471	0.093032	-0.342768
C161	C	1.157805	0.426365	-0.009435
C162	C	1.491138	0.759699	0.323898
C163	C	0.782260	0.050778	-0.304473
C164	C	1.115593	0.384111	0.028861
C165	C	1.448926	0.717445	0.362194
C166	C	0.782254	0.050776	-0.227829
C167	C	1.115588	0.384109	0.105504
C168	C	1.448921	0.717443	0.438837
N169	N	0.763324	0.091312	-0.463136
N170	N	1.096657	0.424645	-0.129803
N171	N	1.429990	0.757979	0.203530
N172	N	0.763330	0.091318	-0.535944
N173	N	1.096664	0.424651	-0.202611
N174	N	1.429997	0.757985	0.130722
C175	C	0.824485	0.093035	-0.573691
C176	C	1.157819	0.426368	-0.240357
C177	C	1.491152	0.759701	0.092976
N178	N	0.885634	0.094759	-0.535878
N179	N	1.218967	0.428092	-0.202545
N180	N	1.552301	0.761426	0.130788
N181	N	0.885626	0.094757	-0.463064
N182	N	1.218960	0.428090	-0.129730
N183	N	1.552293	0.761423	0.203603
C184	C	0.824472	0.093029	-0.425875
C185	C	1.157806	0.426363	-0.092542
C186	C	1.491139	0.759696	0.240791
C187	C	0.866711	0.135280	-0.695084
C188	C	1.200044	0.468614	-0.361751
C189	C	1.533377	0.801947	-0.028417
C190	C	0.866724	0.135273	-0.771730
C191	C	1.200057	0.468607	-0.438397
C192	C	1.533390	0.801940	-0.105064
C193	C	0.782295	0.050784	-0.771789
C194	C	1.115628	0.384117	-0.438456
C195	C	1.448961	0.717451	-0.105122
C196	C	0.782288	0.050787	-0.695144
C197	C	1.115622	0.384120	-0.361811
C198	C	1.448955	0.717454	-0.028478
C199	C	0.824495	0.093039	-0.656796
C200	C	1.157828	0.426372	-0.323463
C201	C	1.491162	0.759706	0.009870
N202	N	0.824513	0.093033	0.189919
N203	N	1.157847	0.426366	0.523253
N204	N	1.491180	0.759699	0.856586
H205	H	0.597091	0.212725	0.000196
H206	H	0.930424	0.546058	0.333530
H207	H	1.263758	0.879391	0.666863
H208	H	0.020970	0.204232	0.000285
H209	H	0.354303	0.537565	0.333619
H210	H	0.687637	0.870898	0.666952
Br211	Br	0.725019	-0.006553	-0.823835
Br212	Br	1.058352	0.326780	-0.490502
Br213	Br	1.391685	0.660113	-0.157168
Br214	Br	0.972468	-0.563226	0.000242
Br215	Br	1.305801	-0.229893	0.333575
Br216	Br	1.639135	0.103440	0.666909
H217	H	0.935683	-0.710481	0.000274
H218	H	1.269017	-0.377148	0.333608
H219	H	1.602350	-0.043815	0.666941
H220	H	0.704792	-0.679578	0.000222
H221	H	1.038126	-0.346245	0.333556
H222	H	1.371459	-0.012911	0.666889
H223	H	0.464982	0.210776	0.000210
H224	H	0.798315	0.544110	0.333543
H225	H	1.131648	0.877443	0.666876
H226	H	0.051874	-0.026659	0.000309
H227	H	0.385207	0.306674	0.333642
H228	H	0.718540	0.640008	0.666975
H229	H	0.183988	-0.024713	0.000238
H230	H	0.517321	0.308620	0.333571
H231	H	0.850654	0.641954	0.666905
H232	H	0.747914	0.016389	-0.663971
H233	H	1.081247	0.349722	-0.330638
H234	H	1.414581	0.683056	0.002695
H235	H	0.901041	0.169676	-0.196549
H236	H	1.234375	0.503009	0.136784
H237	H	1.567708	0.836342	0.470117
H238	H	0.944176	-0.134360	0.000214
H239	H	1.277509	0.198973	0.333548
H240	H	1.610843	0.532306	0.666881
Br241	Br	0.924018	0.192606	-0.823692
Br242	Br	1.257352	0.525939	-0.490359
Br243	Br	1.590685	0.859273	-0.157026
H244	H	0.628003	-0.018171	0.000145
H245	H	0.961336	0.315162	0.333478
H246	H	1.294670	0.648496	0.666811
H247	H	0.901078	0.169684	-0.663859
H248	H	1.234412	0.503017	-0.330526
H249	H	1.567745	0.836350	0.002807
Br250	Br	0.672486	-0.523070	0.000205
Br251	Br	1.005819	-0.189736	0.333539
Br252	Br	1.339152	0.143597	0.666872
H253	H	0.901054	0.169675	-0.335591
H254	H	1.234387	0.503008	-0.002258
H255	H	1.567721	0.836341	0.331075
Br256	Br	0.976479	-0.290866	0.000240
Br257	Br	1.309813	0.042467	0.333573
Br258	Br	1.643146	0.375801	0.666906
H259	H	0.495885	-0.020111	0.000188
H260	H	0.829218	0.313222	0.333521
H261	H	1.162552	0.646556	0.666855
Br262	Br	0.676502	-0.250706	0.000187
Br263	Br	1.009835	0.082627	0.333520
Br264	Br	1.343168	0.415961	0.666854
H265	H	0.747892	0.016386	-0.335707
H266	H	1.081225	0.349719	-0.002374
H267	H	1.414559	0.683052	0.330960
Br268	Br	0.724963	-0.006559	-0.175866
Br269	Br	1.058296	0.326775	0.157468
Br270	Br	1.391629	0.660108	0.490801
H271	H	0.153080	0.206181	0.000267
H272	H	0.486413	0.539514	0.333600
H273	H	0.819746	0.872847	0.666933
H274	H	0.713281	-0.103448	0.000184
H275	H	1.046614	0.229885	0.333517
H276	H	1.379947	0.563218	0.666851
