data_functionalizedCrystal
_audit_creation_method	'MofGen! by Chris Wilmer'
_symmetry_space_group_name_H-M	'P1'
_symmetry_Int_Tables_number	1
_symmetry_cell_setting	triclinic
loop_
_symmetry_equiv_pos_as_xyz
  x,y,z
_cell_length_a	19.188925
_cell_length_b	19.188930
_cell_length_c	8.965430
_cell_angle_alpha	89.995304
_cell_angle_beta	89.995259
_cell_angle_gamma	83.143665
loop_
_atom_site_label
_atom_site_type_symbol
_atom_site_fract_x
_atom_site_fract_y
_atom_site_fract_z
O1	O	0.926147	0.087144	-0.124088
O2	O	0.722835	0.098882	-0.124086
O3	O	0.830358	-0.008642	-0.124058
O4	O	0.818624	0.194669	-0.124116
O5	O	0.830349	-0.008635	0.124021
O6	O	0.722826	0.098890	0.123993
O7	O	0.926138	0.087151	0.123991
Cu8	Cu	0.824481	0.093021	0.146643
Cu9	Cu	0.824492	0.093013	-0.146739
O10	O	0.818615	0.194676	0.123963
C11	C	0.696820	0.098507	-0.000046
C12	C	0.619315	0.097367	-0.000044
C13	C	0.057545	0.152831	-0.000064
C14	C	0.130368	0.153908	-0.000072
C15	C	0.175302	0.090816	-0.000051
C16	C	0.147408	0.026642	-0.000060
C17	C	0.074586	0.025568	-0.000067
N18	N	0.295976	0.045142	0.084410
N19	N	0.365154	0.046167	0.084419
C20	C	0.394712	0.094050	-0.000035
N21	N	0.352477	0.140879	-0.084479
N22	N	0.283293	0.139856	-0.084482
C23	C	0.254267	0.091974	-0.000045
C24	C	0.501561	0.159386	-0.000045
C25	C	0.574385	0.160460	-0.000063
C26	C	0.591425	0.033193	-0.000036
C27	C	0.518601	0.032121	-0.000033
C28	C	0.473673	0.095220	-0.000031
C29	C	0.829974	-0.034650	-0.000014
C30	C	0.828833	-0.112154	-0.000002
C31	C	0.891924	-0.157079	0.000005
C32	C	0.890852	-0.229903	-0.000019
C33	C	0.826686	-0.257799	-0.000019
C34	C	0.763587	-0.212864	-0.000034
C35	C	0.764660	-0.140041	-0.000025
N36	N	0.777636	-0.365800	0.084407
N37	N	0.776620	-0.434979	0.084402
C38	C	0.823448	-0.477207	-0.000050
N39	N	0.871340	-0.447645	-0.084477
N40	N	0.872358	-0.378460	-0.084465
C41	C	0.825515	-0.336761	-0.000030
C42	C	0.885381	-0.601097	-0.000071
C43	C	0.884307	-0.673922	-0.000104
C44	C	0.757040	-0.656880	-0.000105
C45	C	0.758116	-0.584057	-0.000086
C46	C	0.822289	-0.556170	-0.000063
C47	C	0.952154	0.087527	-0.000053
C48	C	1.029658	0.088666	-0.000064
C49	C	0.819000	0.220684	-0.000084
C50	C	0.820140	0.298188	-0.000107
N51	N	0.824479	0.093027	0.352992
N52	N	0.824500	0.093002	-0.353088
C53	C	0.774738	0.142737	0.450285
C54	C	0.837790	0.156091	0.549694
C55	C	0.761454	0.079678	0.549711
C56	C	0.887562	0.106412	0.450212
C57	C	0.811185	0.029972	0.450221
C58	C	0.874282	0.043299	0.549584
H59	H	0.597088	0.212713	-0.000074
C60	C	0.446579	-0.042911	0.127501
C61	C	0.487940	-0.038410	-0.000020
H62	H	0.427647	-0.086454	0.127497
H63	H	0.474629	-0.039852	0.213998
H64	H	0.409401	-0.005484	0.127475
H65	H	0.525120	-0.075835	0.000012
H66	H	0.459888	-0.041476	-0.086539
C67	C	0.918494	0.242516	0.556315
C68	C	0.852990	0.228057	0.608702
H69	H	0.927871	0.286947	0.592738
H70	H	0.953868	0.207238	0.590306
H71	H	0.918162	0.243180	0.450369
H72	H	0.853323	0.227388	0.714648
H73	H	0.817607	0.263344	0.574719
H74	H	0.944179	-0.134379	0.000019
H75	H	0.464978	0.210765	-0.000046
H76	H	0.628010	-0.018178	-0.000031
C77	C	1.016759	-0.239441	0.000022
C78	C	0.960207	-0.279297	-0.000001
H79	H	1.059574	-0.269934	0.000043
H80	H	1.014541	-0.210682	-0.086483
H81	H	1.014519	-0.210684	0.086539
H82	H	0.962444	-0.308050	-0.086524
H83	H	0.962425	-0.308068	0.086513
C84	C	0.705434	-0.316930	-0.000025
C85	C	0.693054	-0.243523	-0.000029
H86	H	0.661887	-0.335855	-0.000017
H87	H	0.731402	-0.332356	-0.086530
H88	H	0.731400	-0.332360	0.086492
H89	H	0.667092	-0.228092	-0.086552
H90	H	0.667075	-0.228090	0.086485
C91	C	0.652137	0.186209	0.443798
C92	C	0.718006	0.199535	0.391408
H93	H	0.617118	0.221277	0.407454
H94	H	0.642577	0.141453	0.409730
H95	H	0.652042	0.186870	0.549745
H96	H	0.718102	0.198869	0.285461
H97	H	0.727568	0.244302	0.425468
C98	C	0.703256	-0.464861	-0.000080
C99	C	0.688764	-0.534669	-0.000083
H100	H	0.660438	-0.434372	-0.000092
H101	H	0.729567	-0.456435	0.086429
H102	H	0.729582	-0.456430	-0.086593
H103	H	0.662441	-0.543101	0.086436
H104	H	0.662442	-0.543098	-0.086600
C105	C	0.638756	-0.130513	-0.000026
C106	C	0.695306	-0.090655	-0.000018
H107	H	0.595940	-0.100021	-0.000010
H108	H	0.640986	-0.159261	-0.086539
H109	H	0.640985	-0.159281	0.086483
H110	H	0.693079	-0.061890	-0.086533
H111	H	0.693074	-0.061895	0.086504
H112	H	0.153078	0.206160	-0.000057
H113	H	0.051883	-0.026685	-0.000068
C114	C	0.675074	-0.001074	0.556341
C115	C	0.689493	0.064441	0.608713
H116	H	0.630650	-0.010478	0.592772
H117	H	0.674419	-0.000743	0.450409
H118	H	0.710371	-0.036436	0.590347
H119	H	0.654199	0.099803	0.574697
H120	H	0.690143	0.064114	0.714667
C121	C	0.266606	-0.028217	-0.000015
C122	C	0.196798	-0.042710	-0.000031
H123	H	0.297095	-0.071035	0.000007
H124	H	0.275043	-0.001902	-0.086523
H125	H	0.275025	-0.001895	0.086499
H126	H	0.188377	-0.069028	-0.086551
H127	H	0.188357	-0.069037	0.086485
C128	C	1.011071	-0.625253	-0.000108
C129	C	0.955918	-0.570437	-0.000081
H130	H	1.054616	-0.606325	-0.000128
H131	H	1.008008	-0.653306	0.086395
H132	H	1.007997	-0.653297	-0.086627
H133	H	0.958988	-0.542396	0.086444
H134	H	0.958982	-0.542373	-0.086593
H135	H	0.935686	-0.710500	-0.000107
C136	C	0.698885	-0.760941	-0.000120
C137	C	0.686506	-0.687534	-0.000110
H138	H	0.655338	-0.779865	-0.000120
H139	H	0.724854	-0.776364	-0.086625
H140	H	0.724850	-0.776375	0.086396
H141	H	0.660545	-0.672099	-0.086632
H142	H	0.660526	-0.672105	0.086405
C143	C	0.899689	-0.062031	0.694066
C144	C	0.931136	-0.013472	0.608084
H145	H	0.934790	-0.097079	0.730172
H146	H	0.875745	-0.038627	0.775926
H147	H	0.867214	-0.083328	0.634398
H148	H	0.963608	0.007829	0.667754
H149	H	0.955092	-0.036879	0.526212
H150	H	0.940882	0.117755	0.406690
H151	H	0.799906	-0.023324	0.406493
H152	H	0.020968	0.204211	-0.000069
