data_functionalizedCrystal
_audit_creation_method	'MofGen! by Chris Wilmer'
_symmetry_space_group_name_H-M	'P1'
_symmetry_Int_Tables_number	1
_symmetry_cell_setting	triclinic
loop_
_symmetry_equiv_pos_as_xyz
  x,y,z
_cell_length_a	15.944551
_cell_length_b	7.088929
_cell_length_c	8.597304
_cell_angle_alpha	76.027438
_cell_angle_beta	84.421754
_cell_angle_gamma	96.208625
loop_
_atom_site_label
_atom_site_type_symbol
_atom_site_fract_x
_atom_site_fract_y
_atom_site_fract_z
O1	O	1.105747	-0.195390	0.222242
O2	O	0.861176	-0.199619	0.247626
O3	O	0.990313	-0.159226	0.002583
O4	O	0.976609	-0.235783	0.467285
O5	O	1.007571	0.164160	-0.030239
O6	O	0.878434	0.123767	0.214805
O7	O	1.123005	0.127995	0.189420
Cu8	Cu	1.002295	0.155409	0.199115
Cu9	Cu	0.981885	-0.227032	0.237931
O10	O	0.993867	0.087602	0.434463
C11	C	0.838511	-0.037758	0.230162
C12	C	0.745266	-0.037256	0.227006
N13	N	1.016656	0.424397	0.171814
N14	N	0.967531	-0.496018	0.265220
C15	C	0.530531	-0.010952	0.067564
C16	C	0.460947	-0.182595	0.157784
C17	C	0.574546	-0.036292	0.221289
C18	C	0.477984	0.136231	0.125461
C19	C	0.409639	-0.035350	0.215754
C20	C	0.506183	-0.208074	0.311565
C21	C	0.523234	0.110900	0.279206
C22	C	0.453665	-0.060801	0.369542
C23	C	0.669545	-0.036836	0.224473
C24	C	0.314641	-0.034822	0.212584
C25	C	1.145669	-0.033869	0.206884
C26	C	1.238913	-0.034384	0.210042
C27	C	0.998432	0.012259	-0.073293
C28	C	0.996902	0.041436	-0.250481
C29	C	0.985748	-0.083887	0.510340
C30	C	0.987277	-0.113077	0.687529
H31	H	0.563949	0.009868	-0.059994
H32	H	1.003963	0.196065	-0.332972
H33	H	0.420405	-0.081930	0.497260
H34	H	0.518920	-0.353724	0.390231
H35	H	0.550511	0.235004	0.330489
H36	H	0.916618	0.406380	0.362015
H37	H	0.465140	0.281742	0.046733
H38	H	0.980205	-0.267696	-0.229986
H39	H	0.433691	-0.306685	0.106447
H40	H	1.067578	0.522008	0.075023
