data_functionalizedCrystal
_audit_creation_method	'MofGen! by Chris Wilmer'
_symmetry_space_group_name_H-M	'P1'
_symmetry_Int_Tables_number	1
_symmetry_cell_setting	triclinic
loop_
_symmetry_equiv_pos_as_xyz
  x,y,z
_cell_length_a	15.944551
_cell_length_b	16.109301
_cell_length_c	14.586319
_cell_angle_alpha	90.005214
_cell_angle_beta	89.992301
_cell_angle_gamma	96.519891
loop_
_atom_site_label
_atom_site_type_symbol
_atom_site_fract_x
_atom_site_fract_y
_atom_site_fract_z
O1	O	1.114488	-0.107227	-0.076332
O2	O	1.614488	0.392773	0.423668
O3	O	0.869934	-0.120447	-0.076315
O4	O	1.369934	0.379553	0.423685
O5	O	0.998929	0.007192	-0.076315
O6	O	1.498929	0.507192	0.423685
O7	O	0.985492	-0.234866	-0.076333
O8	O	1.485492	0.265134	0.423667
O9	O	0.998920	0.007194	0.076166
O10	O	1.498920	0.507194	0.576166
O11	O	0.869925	-0.120445	0.076166
O12	O	1.369925	0.379555	0.576166
O13	O	1.114479	-0.107225	0.076148
O14	O	1.614479	0.392775	0.576148
Cu15	Cu	0.992201	-0.113835	0.090080
Cu16	Cu	1.492201	0.386165	0.590080
Cu17	Cu	0.992211	-0.113837	-0.090246
Cu18	Cu	1.492211	0.386163	0.409754
O19	O	0.985484	-0.234864	0.076148
O20	O	1.485484	0.265136	0.576148
C21	C	0.998380	0.038168	-0.000074
C22	C	1.498380	0.538168	0.499926
C23	C	0.996748	0.130464	-0.000072
C24	C	1.496748	0.630464	0.499928
C25	C	0.838635	-0.119897	-0.000072
C26	C	1.338635	0.380103	0.499928
C27	C	0.745390	-0.118252	-0.000065
C28	C	1.245390	0.381748	0.499935
C29	C	1.145777	-0.107775	-0.000096
C30	C	1.645777	0.392225	0.499904
C31	C	1.239022	-0.109420	-0.000109
C32	C	1.739022	0.390580	0.499891
C33	C	1.453852	-0.192470	-0.000094
C34	C	1.953852	0.307530	0.499906
C35	C	1.514889	-0.153905	-0.075272
C36	C	2.014889	0.346095	0.424728
C37	C	1.409747	-0.112397	-0.000096
C38	C	1.909747	0.387603	0.499904
C39	C	1.514858	-0.153884	0.075062
C40	C	2.014858	0.346116	0.575062
C41	C	1.574659	-0.115278	-0.000079
C42	C	2.074659	0.384722	0.499921
C43	C	1.469556	-0.073811	-0.075336
C44	C	1.969556	0.426189	0.424664
C45	C	1.469519	-0.073801	0.075066
C46	C	1.969519	0.426199	0.575066
C47	C	1.530539	-0.035178	-0.000130
C48	C	2.030539	0.464822	0.499870
C49	C	1.314746	-0.110739	-0.000106
C50	C	1.814746	0.389261	0.499894
C51	C	1.669660	-0.116929	-0.000076
C52	C	2.169660	0.383071	0.499924
C53	C	0.986032	-0.265840	-0.000095
C54	C	1.486032	0.234160	0.499905
C55	C	0.987664	-0.358136	-0.000102
C56	C	1.487664	0.141864	0.499898
N57	N	0.992200	-0.113833	0.216912
N58	N	1.492200	0.386167	0.716912
C59	C	1.069497	0.352712	-0.000092
C60	C	1.569497	0.852712	0.499908
C61	C	1.067958	0.439433	-0.000100
C62	C	1.567958	0.939433	0.499900
C63	C	0.914909	0.419608	-0.000085
C64	C	1.414909	0.919608	0.499915
C65	C	0.916450	0.332889	-0.000084
C66	C	1.416450	0.832889	0.499916
C67	C	0.993746	0.299444	-0.000083
C68	C	1.493746	0.799444	0.499917
C69	C	0.990666	0.472884	-0.000091
C70	C	1.490666	0.972884	0.499909
C71	C	0.988996	0.566910	-0.000099
C72	C	1.488996	1.066910	0.499901
C73	C	0.995417	0.205411	-0.000077
C74	C	1.495417	0.705411	0.499923
N75	N	0.992219	-0.113833	-0.217078
N76	N	1.492219	0.386167	0.282922
C77	C	1.049337	-0.057333	0.451918
C78	C	1.549337	0.442667	0.951918
C79	C	1.049340	-0.057331	0.547899
C80	C	1.549340	0.442669	1.047899
C81	C	0.935075	-0.170335	0.547909
C82	C	1.435075	0.329665	1.047909
C83	C	0.935070	-0.170332	0.451929
C84	C	1.435070	0.329668	0.951929
C85	C	0.992205	-0.113833	0.403936
C86	C	1.492205	0.386167	0.903936
C87	C	0.992214	-0.113833	0.595897
C88	C	1.492214	0.386167	1.095897
C89	C	0.992216	-0.113831	0.699964
C90	C	1.492216	0.386169	1.199964
C91	C	0.992202	-0.113833	0.299863
C92	C	1.492202	0.386167	0.799863
H93	H	1.420524	-0.258934	-0.000174
H94	H	1.920524	0.241066	0.499826
H95	H	1.095860	-0.011327	0.412845
H96	H	1.595860	0.488673	0.912845
H97	H	1.095861	-0.011324	0.586964
H98	H	1.595861	0.488676	1.086964
C99	C	0.872211	-0.232463	0.600699
C100	C	1.372211	0.267537	1.100699
H101	H	0.838172	-0.266099	0.558374
H102	H	1.338172	0.233901	1.058374
H103	H	0.902392	-0.267102	0.638144
H104	H	1.402392	0.232898	1.138144
H105	H	0.837266	-0.202505	0.638138
H106	H	1.337266	0.297495	1.138138
C107	C	0.872229	-0.232489	0.399141
C108	C	1.372229	0.267511	0.899141
H109	H	0.880405	-0.224389	0.335106
H110	H	1.380405	0.275611	0.835106
H111	H	0.881337	-0.287982	0.414861
H112	H	1.381337	0.212018	0.914861
H113	H	0.816171	-0.223425	0.414881
H114	H	1.316171	0.276575	0.914881
C115	C	1.542054	-0.199655	-0.161135
C116	C	2.042054	0.300345	0.338865
H117	H	1.515535	-0.255531	-0.161049
H118	H	2.015535	0.244469	0.338951
H119	H	1.525786	-0.171750	-0.214522
H120	H	2.025786	0.328250	0.285478
H121	H	1.601603	-0.199926	-0.160791
H122	H	2.101603	0.300074	0.339209
H123	H	1.563714	0.031346	-0.000163
H124	H	2.063714	0.531346	0.499837
C125	C	1.442585	-0.028099	-0.161295
C126	C	1.942585	0.471901	0.338705
H127	H	1.490985	-0.010041	-0.197147
H128	H	1.990985	0.489959	0.302853
H129	H	1.404540	-0.065003	-0.196443
H130	H	1.904540	0.434997	0.303557
H131	H	1.415602	0.018959	-0.143324
H132	H	1.915602	0.518959	0.356676
C133	C	1.442316	-0.028089	0.160931
C134	C	1.942316	0.471911	0.660931
H135	H	1.415800	0.019236	0.142878
H136	H	1.915800	0.519236	0.642878
H137	H	1.403813	-0.064853	0.195707
H138	H	1.903813	0.435147	0.695707
H139	H	1.490559	-0.010439	0.197181
H140	H	1.990559	0.489561	0.697181
C141	C	1.541974	-0.199646	0.160923
C142	C	2.041974	0.300354	0.660923
H143	H	1.579657	-0.162598	0.196333
H144	H	2.079657	0.337402	0.696333
H145	H	1.493582	-0.218199	0.196555
H146	H	1.993582	0.281801	0.696555
H147	H	1.569427	-0.246372	0.142842
H148	H	2.069427	0.253628	0.642842
C149	C	1.154519	0.315924	-0.000101
C150	C	1.654519	0.815924	0.499899
H151	H	1.199412	0.360073	-0.000116
H152	H	1.699412	0.860073	0.499884
H153	H	1.158304	0.282512	0.053071
H154	H	1.658304	0.782512	0.553071
H155	H	1.158300	0.282504	-0.053282
H156	H	1.658300	0.782504	0.446718
C157	C	1.151284	0.498025	-0.000104
C158	C	1.651284	0.998025	0.499896
H159	H	1.197536	0.465683	-0.000096
H160	H	1.697536	0.965683	0.499904
H161	H	1.153870	0.532262	-0.053278
H162	H	1.653870	1.032262	0.446722
H163	H	1.153859	0.532270	0.053076
H164	H	1.653859	1.032270	0.553076
H165	H	0.851977	0.446851	-0.000084
H166	H	1.351977	0.946851	0.499916
H167	H	0.854760	0.289515	-0.000080
H168	H	1.354760	0.789515	0.499920
