data_functionalizedCrystal
_audit_creation_method	'MofGen! by Chris Wilmer'
_symmetry_space_group_name_H-M	'P1'
_symmetry_Int_Tables_number	1
_symmetry_cell_setting	triclinic
loop_
_symmetry_equiv_pos_as_xyz
  x,y,z
_cell_length_a	10.654554
_cell_length_b	10.654555
_cell_length_c	17.766277
_cell_angle_alpha	89.998012
_cell_angle_beta	90.008339
_cell_angle_gamma	95.510652
loop_
_atom_site_label
_atom_site_type_symbol
_atom_site_fract_x
_atom_site_fract_y
_atom_site_fract_z
O1	O	-1.667844	0.176459	-0.062636
O2	O	-1.302368	0.193252	-0.062627
O3	O	-1.493501	0.002117	-0.062631
O4	O	-1.476710	0.367594	-0.062631
O5	O	-1.493480	0.002112	0.062557
O6	O	-1.302346	0.193247	0.062562
O7	O	-1.667823	0.176454	0.062553
Cu8	Cu	-1.485083	0.184850	0.073988
Cu9	Cu	-1.485108	0.184856	-0.074062
O10	O	-1.476689	0.367589	0.062557
C11	C	-1.255559	0.192014	-0.000031
C12	C	-1.116116	0.188317	-0.000028
C13	C	-1.116068	0.188326	0.136456
C14	C	-1.050535	0.186597	0.204697
C15	C	-0.919517	0.183121	0.204696
C16	C	-0.854030	0.181370	0.136447
C17	C	-0.919563	0.183099	0.068206
C18	C	-1.050584	0.186579	0.068214
C19	C	-0.919612	0.183081	-0.068277
C20	C	-1.050629	0.186566	-0.068277
C21	C	-0.854125	0.181330	-0.136526
C22	C	-0.919658	0.183068	-0.204769
C23	C	-1.050684	0.186545	-0.204765
C24	C	-1.116163	0.188294	-0.136518
C25	C	-1.492255	-0.044683	-0.000039
C26	C	-1.488557	-0.184126	-0.000043
C27	C	-1.481595	-0.446162	0.136447
C28	C	-1.483314	-0.380650	0.204688
C29	C	-1.486783	-0.249631	0.204688
C30	C	-1.488528	-0.184121	0.136440
C31	C	-1.486808	-0.249633	0.068198
C32	C	-1.483344	-0.380655	0.068206
C33	C	-1.486838	-0.249638	-0.068285
C34	C	-1.483378	-0.380658	-0.068286
C35	C	-1.488583	-0.184127	-0.136533
C36	C	-1.486872	-0.249640	-0.204776
C37	C	-1.483405	-0.380667	-0.204774
C38	C	-1.481659	-0.446170	-0.136528
C39	C	-0.714632	0.177683	-0.000040
C40	C	-0.854079	0.181352	-0.000036
C41	C	-1.477936	0.414389	-0.000037
C42	C	-1.481633	0.553832	-0.000037
N43	N	-1.485074	0.184845	0.178118
N44	N	-1.485126	0.184851	-0.178192
C45	C	-1.569763	0.100240	0.782405
C46	C	-1.569764	0.100243	0.703603
C47	C	-1.485108	0.184845	0.664207
C48	C	-1.400466	0.269471	0.703619
C49	C	-1.400475	0.269475	0.782420
C50	C	-1.370862	0.200247	0.539378
C51	C	-1.370852	0.200235	0.460579
C52	C	-1.485081	0.184842	0.421161
C53	C	-1.599325	0.169434	0.460551
C54	C	-1.599334	0.169437	0.539351
C55	C	-1.485090	0.184851	0.578761
C56	C	-1.569726	0.100230	0.296312
C57	C	-1.569730	0.100241	0.217509
C58	C	-1.400420	0.269464	0.217527
C59	C	-1.400427	0.269458	0.296328
C60	C	-1.485079	0.184835	0.335716
H61	H	-1.103869	0.188019	0.260264
H62	H	-1.491337	-0.077436	0.136446
H63	H	-1.222748	0.191173	0.136464
H64	H	-1.481890	-0.434003	0.260255
H65	H	-1.331552	0.338376	0.814502
F66	F	-1.492250	-0.044682	-0.136532
F67	F	-1.488608	-0.179906	0.277318
F68	F	-0.849959	0.181176	-0.277396
F69	F	-1.249276	0.216637	0.581323
H70	H	-1.638658	0.031345	0.185427
H71	H	-0.866158	0.181723	0.260264
H72	H	-1.478784	-0.552846	0.136454
H73	H	-0.747445	0.178491	-0.136522
H74	H	-1.104034	0.187949	-0.260335
F75	F	-1.488737	-0.179914	-0.277403
H76	H	-0.747350	0.178524	0.136452
F77	F	-1.255604	0.192002	-0.136508
H78	H	-1.481994	-0.433998	-0.260344
F79	F	-1.477977	-0.585613	-0.136519
F80	F	-1.659859	0.010182	0.824323
F81	F	-1.310372	0.359515	0.661691
H82	H	-1.692356	0.156895	0.571419
F83	F	-1.659851	0.010183	0.661661
F84	F	-1.720906	0.153043	0.418605
H85	H	-1.277827	0.212767	0.428514
H86	H	-1.638659	0.031328	0.328383
H87	H	-1.331496	0.338353	0.185451
F88	F	-1.310340	0.359507	0.338267
