data_functionalizedCrystal
_audit_creation_method	'MofGen! by Chris Wilmer'
_symmetry_space_group_name_H-M	'P1'
_symmetry_Int_Tables_number	1
_symmetry_cell_setting	triclinic
loop_
_symmetry_equiv_pos_as_xyz
  x,y,z
_cell_length_a	10.654550
_cell_length_b	13.330367
_cell_length_c	10.654551
_cell_angle_alpha	90.001782
_cell_angle_beta	84.485132
_cell_angle_gamma	90.011076
loop_
_atom_site_label
_atom_site_type_symbol
_atom_site_fract_x
_atom_site_fract_y
_atom_site_fract_z
O1	O	1.667848	0.083499	0.176398
O2	O	1.302369	0.083482	0.193204
O3	O	1.493511	0.083492	0.002062
O4	O	1.476706	0.083490	0.367540
O5	O	1.493483	-0.083355	0.002057
O6	O	1.302341	-0.083365	0.193199
O7	O	1.667820	-0.083348	0.176393
Cu8	Cu	1.485078	-0.098591	0.184796
Cu9	Cu	1.485111	0.098725	0.184801
O10	O	1.476678	-0.083357	0.367535
C11	C	1.255557	0.000057	0.191968
C12	C	1.116114	0.000051	0.188276
N13	N	1.485064	-0.237372	0.184791
C14	C	1.036629	0.000065	0.300817
C15	C	0.905608	0.000082	0.297341
C16	C	0.933570	0.000076	0.068771
C17	C	1.064589	0.000051	0.072249
C18	C	1.088154	0.000064	0.416844
C19	C	1.008667	0.000080	0.529395
C20	C	0.877647	0.000097	0.525918
C21	C	0.826112	0.000099	0.409891
C22	C	1.400469	-0.709999	0.269405
C23	C	1.569786	-0.709959	0.100187
C24	C	1.569772	-0.604941	0.100183
C25	C	1.485106	-0.552447	0.184793
C26	C	1.400455	-0.604971	0.269407
C27	C	1.654430	-0.552408	0.015580
C28	C	1.654420	-0.447384	0.015574
C29	C	1.569748	-0.394888	0.100178
C30	C	1.485092	-0.447419	0.184794
C31	C	1.400427	-0.394925	0.269404
C32	C	1.315764	-0.447454	0.354015
C33	C	1.315783	-0.552475	0.354011
C34	C	1.569729	-0.289866	0.100182
C35	C	1.400412	-0.289897	0.269405
C36	C	1.714632	0.000080	0.177629
C37	C	1.854075	0.000093	0.181321
C38	C	1.492263	0.000070	-0.044739
C39	C	1.488570	0.000077	-0.184182
N40	N	1.485135	0.237507	0.184796
C41	C	1.486853	0.091024	-0.249691
C42	C	1.483373	0.091019	-0.380712
C43	C	1.483332	-0.090887	-0.380702
C44	C	1.486803	-0.090881	-0.249683
C45	C	1.488620	0.181982	-0.184190
C46	C	1.486905	0.272936	-0.249700
C47	C	1.483424	0.272931	-0.380720
C48	C	1.481660	0.181972	-0.446231
C49	C	1.477926	0.000066	0.414336
C50	C	1.481619	0.000066	0.553779
H51	H	1.050636	0.000069	0.623860
N52	N	1.309157	-0.766653	0.360652
H53	H	1.357629	-0.810218	0.416708
H54	H	1.255542	-0.717399	0.414165
N55	N	1.481593	0.371015	-0.451403
H56	H	1.557875	0.375038	-0.515264
H57	H	1.402392	0.375009	-0.496188
N58	N	1.745753	-0.609023	-0.075662
H59	H	1.732910	-0.683524	-0.062825
H60	H	1.730480	-0.590672	-0.164896
H61	H	1.488174	-0.164938	-0.196341
H62	H	1.246834	-0.404701	0.422910
N63	N	1.481447	-0.188987	-0.451355
H64	H	1.478996	-0.175190	-0.544297
H65	H	1.559771	-0.228692	-0.437950
H66	H	1.194836	0.000055	0.419687
N67	N	0.791912	0.000049	0.647303
H68	H	0.844439	0.000027	0.721327
H69	H	0.736939	0.061892	0.650882
H70	H	1.478807	0.181976	-0.552914
H71	H	1.129308	0.000042	-0.019392
N72	N	1.309083	-0.233281	0.360654
H73	H	1.255456	-0.282495	0.414247
H74	H	1.357631	-0.189694	0.416631
H75	H	0.719425	0.000098	0.407069
H76	H	1.246854	-0.595251	0.422899
H77	H	0.891600	0.000094	-0.025693
H78	H	1.638724	-0.752703	0.031307
N79	N	1.745719	-0.390726	-0.075683
H80	H	1.834981	-0.408977	-0.060393
H81	H	1.730375	-0.409034	-0.164915
N82	N	1.661020	-0.233193	0.008942
H83	H	1.750284	-0.251438	0.024234
H84	H	1.645684	-0.251495	-0.080294
N85	N	1.492381	0.181986	-0.042878
H86	H	1.493240	0.253405	-0.011321
H87	H	1.415487	0.146234	-0.001906
N88	N	1.488690	0.371037	-0.179037
H89	H	1.491123	0.357242	-0.086093
H90	H	1.565775	0.410813	-0.211404
