data_functionalizedCrystal
_audit_creation_method	'MofGen! by Chris Wilmer'
_symmetry_space_group_name_H-M	'P1'
_symmetry_Int_Tables_number	1
_symmetry_cell_setting	triclinic
loop_
_symmetry_equiv_pos_as_xyz
  x,y,z
_cell_length_a	10.540539
_cell_length_b	10.540539
_cell_length_c	9.798715
_cell_angle_alpha	90.001259
_cell_angle_beta	90.001649
_cell_angle_gamma	84.525492
loop_
_atom_site_label
_atom_site_type_symbol
_atom_site_fract_x
_atom_site_fract_y
_atom_site_fract_z
O1	O	1.685886	0.178898	0.113420
O2	O	1.316473	0.195754	0.113436
O3	O	1.509607	0.002620	0.113426
O4	O	1.492752	0.372033	0.113430
O5	O	1.509593	0.002618	-0.113557
O6	O	1.316459	0.195753	-0.113546
O7	O	1.685872	0.178897	-0.113563
Zn8	Zn	1.501163	0.187324	-0.149593
Zn9	Zn	1.501182	0.187326	0.149466
O10	O	1.492737	0.372031	-0.113552
C11	C	1.269163	0.194489	-0.000053
C12	C	1.128215	0.190707	-0.000047
C13	C	0.944788	0.045790	-0.000578
C14	C	1.091406	0.049624	-0.000053
C15	C	1.066550	0.258603	0.129567
C16	C	0.920006	0.253788	0.129661
C17	C	0.919501	0.256657	-0.128460
C18	C	1.066483	0.257956	-0.130159
C19	C	1.508336	-0.044684	-0.000063
C20	C	1.504554	-0.185632	-0.000055
C21	C	1.359637	-0.369059	0.000460
C22	C	1.363471	-0.222441	-0.000051
C23	C	1.572442	-0.247291	-0.129676
C24	C	1.567627	-0.393835	-0.129785
C25	C	1.570513	-0.394352	0.128336
C26	C	1.571812	-0.247370	0.130049
C27	C	1.733182	0.180161	-0.000071
C28	C	1.874130	0.183943	-0.000068
C29	C	1.494008	0.419335	-0.000061
C30	C	1.497790	0.560283	-0.000059
N31	N	1.501159	0.187322	-0.353692
C32	C	1.575217	0.260970	-0.421473
C33	C	1.575238	0.260969	-0.578635
N34	N	1.501196	0.187318	0.353566
H35	H	1.134014	-0.003799	-0.092966
H36	H	0.916197	-0.009946	-0.093532
H37	H	1.524857	-0.425904	0.226580
Br38	Br	0.894443	-0.046727	0.153473
Br39	Br	0.840047	0.422897	0.139468
H40	H	0.891802	0.203608	0.226548
Br41	Br	1.395496	0.082228	-0.549300
H42	H	1.638612	0.324018	-0.363150
H43	H	1.638635	0.324028	-0.636925
H44	H	1.133157	-0.004175	0.093020
H45	H	1.437773	0.124265	-0.412015
H46	H	1.088904	0.362211	0.134391
H47	H	1.303912	-0.397659	0.093414
H48	H	1.109145	0.211440	0.226027
H49	H	1.676049	-0.224937	-0.134500
Br50	Br	1.134567	0.175142	-0.289980
Br51	Br	0.866919	0.180553	-0.292212
Br52	Br	1.493827	-0.176296	-0.290448
H53	H	1.090709	0.360815	-0.137984
H54	H	0.872274	0.358560	-0.129334
H55	H	1.310053	-0.179837	0.092867
H56	H	1.304127	-0.399267	-0.091968
Br57	Br	1.273785	-0.152833	-0.155165
H58	H	1.517443	-0.422035	-0.226675
Br59	Br	1.736735	-0.473793	-0.139611
Br60	Br	1.489729	-0.178445	0.289901
H61	H	1.674673	-0.223148	0.137872
H62	H	1.672416	-0.441578	0.129203
