data_functionalizedCrystal
_audit_creation_method	'MofGen! by Chris Wilmer'
_symmetry_space_group_name_H-M	'P1'
_symmetry_Int_Tables_number	1
_symmetry_cell_setting	triclinic
loop_
_symmetry_equiv_pos_as_xyz
  x,y,z
_cell_length_a	18.050588
_cell_length_b	10.686154
_cell_length_c	10.686551
_cell_angle_alpha	90.306020
_cell_angle_beta	94.406696
_cell_angle_gamma	85.591450
loop_
_atom_site_label
_atom_site_type_symbol
_atom_site_fract_x
_atom_site_fract_y
_atom_site_fract_z
Zn1	Zn	-0.181113	-1.972214	0.562445
Zn2	Zn	-0.315534	-1.955926	0.352681
Zn3	Zn	-0.200106	-1.746323	0.368754
Zn4	Zn	-0.314024	-1.762356	0.578453
O5	O	-0.252694	-1.859205	0.465583
O6	O	-0.191628	-2.145599	0.521193
O7	O	-0.308802	-1.914595	0.179267
O8	O	-0.093656	-1.776395	0.394475
O9	O	-0.290387	-2.133632	0.367081
O10	O	-0.079702	-1.942356	0.536778
O11	O	-0.223998	-1.760601	0.191076
O12	O	-0.222533	-1.572905	0.409997
O13	O	-0.287813	-1.803721	0.751876
O14	O	-0.306228	-1.584684	0.564062
O15	O	-0.190164	-1.957902	0.740114
O16	O	-0.419264	-1.930142	0.382604
O17	O	-0.418155	-1.787927	0.548477
C18	C	-0.266278	-1.533277	0.490511
C19	C	-0.272106	-1.393846	0.501206
C20	C	-0.445655	-1.859043	0.465558
C21	C	-0.528197	-1.859092	0.465580
C22	C	-0.776441	-1.781887	0.555773
C23	C	-0.720699	-1.898637	0.577796
C24	C	-0.825303	-1.859357	0.465630
C25	C	-0.733967	-1.742487	0.443641
C26	C	-0.679325	-1.859221	0.465609
C27	C	-0.770643	-1.976174	0.487708
C28	C	-0.783922	-1.819942	0.353506
C29	C	-0.728201	-1.936768	0.375480
C30	C	-0.909397	-1.859435	0.465646
C31	C	-0.595233	-1.859157	0.465593
C32	C	-0.058977	-1.859404	0.465634
C33	C	0.023573	-1.859488	0.465655
C34	C	-0.236701	-1.884417	0.792785
C35	C	-0.229886	-1.895160	0.932219
C36	C	-0.239051	-1.186404	0.440550
C37	C	-0.233219	-1.325836	0.429862
C38	C	-0.268568	-1.834163	0.139649
C39	C	-0.275164	-1.823663	0.000198
H40	H	-0.195469	-1.374277	0.360599
Cl41	Cl	-0.795689	-2.128739	0.516581
H42	H	-0.185908	-1.964602	0.980696
Cl43	Cl	-0.330404	-1.319055	0.608138
Cl44	Cl	-0.708765	-1.589982	0.414936
Cl45	Cl	-0.678174	-1.950033	0.724175
Cl46	Cl	-0.343069	-1.716467	0.925365
H47	H	-0.707137	-2.002305	0.299234
Cl48	Cl	-0.809163	-1.680971	0.673548
H49	H	-0.811481	-1.786623	0.258725
