data_functionalizedCrystal
_audit_creation_method	'MofGen! by Chris Wilmer'
_symmetry_space_group_name_H-M	'P1'
_symmetry_Int_Tables_number	1
_symmetry_cell_setting	triclinic
loop_
_symmetry_equiv_pos_as_xyz
  x,y,z
_cell_length_a	12.645323
_cell_length_b	12.759401
_cell_length_c	12.759399
_cell_angle_alpha	90.016641
_cell_angle_beta	90.028776
_cell_angle_gamma	90.019795
loop_
_atom_site_label
_atom_site_type_symbol
_atom_site_fract_x
_atom_site_fract_y
_atom_site_fract_z
Zn1	Zn	-0.599376	-1.606251	0.418195
Zn2	Zn	-0.422110	-1.606145	0.593904
Zn3	Zn	-0.422126	-1.430554	0.418244
Zn4	Zn	-0.599331	-1.430541	0.593837
O5	O	-0.510736	-1.518373	0.506045
O6	O	-0.575873	-1.753258	0.441510
O7	O	-0.273764	-1.582813	0.570651
O8	O	-0.445664	-1.453910	0.271217
O9	O	-0.445636	-1.753180	0.570603
O10	O	-0.575888	-1.582995	0.271180
O11	O	-0.273777	-1.453807	0.441594
O12	O	-0.445621	-1.283531	0.441530
O13	O	-0.747684	-1.453888	0.570489
O14	O	-0.575813	-1.283522	0.570537
O15	O	-0.747717	-1.582982	0.441445
O16	O	-0.445593	-1.582801	0.740916
O17	O	-0.575797	-1.453785	0.740867
C18	C	-0.510715	-1.245405	0.506032
C19	C	-0.510731	-1.128629	0.506052
C20	C	-0.510712	-1.518308	0.779012
C21	C	-0.510737	-1.518377	0.895789
C22	C	-0.787241	-1.518446	0.505954
C23	C	-0.905071	-1.518477	0.505916
C24	C	-0.949933	-1.437269	0.587080
C25	C	-1.072493	-1.436983	0.586775
C26	C	-1.072978	-1.488870	0.395018
C27	C	-0.950380	-1.488248	0.395554
C28	C	-0.950257	-1.629565	0.534542
C29	C	-1.072863	-1.629002	0.536919
C30	C	-0.235306	-1.518360	0.506059
C31	C	-0.117476	-1.518533	0.505802
C32	C	-0.510757	-1.792406	0.506059
C33	C	-0.510767	-1.909183	0.506064
C34	C	-0.578415	-1.073789	0.573328
C35	C	-0.578436	-0.964065	0.573332
C36	C	-0.443079	-0.964030	0.438781
C37	C	-0.443065	-1.073752	0.438772
C38	C	-0.510783	-1.518466	0.232012
C39	C	-0.510803	-1.518506	0.115235
C40	C	-0.443017	-1.585632	0.950642
C41	C	-0.443052	-1.585699	1.060366
C42	C	-0.578531	-1.451248	1.060375
C43	C	-0.578500	-1.451186	0.950653
H44	H	-0.920453	-1.455554	0.669507
N45	N	-0.373793	-1.654268	0.894615
N46	N	-0.313334	-1.714312	0.943609
H47	H	-0.264444	-1.762790	0.904044
N48	N	-0.647586	-0.908065	0.642055
N49	N	-0.707998	-0.957079	0.702112
H50	H	-0.756841	-0.917530	0.750650
N51	N	-0.647693	-1.382484	0.894631
N52	N	-0.708186	-1.322494	0.943626
H53	H	-0.757055	-1.273978	0.904061
N54	N	-0.373971	-0.907956	0.370066
N55	N	-0.373991	-0.809991	0.370082
H56	H	-0.325181	-0.770388	0.321552
N57	N	-1.111473	-1.388154	0.364048
N58	N	-1.084910	-1.350244	0.277657
H59	H	-1.112096	-1.279111	0.255786
H60	H	-0.387909	-1.640467	1.105022
N61	N	-1.110223	-1.460191	0.689826
N62	N	-1.086530	-1.545185	0.732478
H63	H	-1.113165	-1.561560	0.805268
N64	N	-0.911289	-1.334598	0.563546
N65	N	-0.931206	-1.293703	0.476746
H66	H	-0.903910	-1.221194	0.460119
N67	N	-1.109279	-1.333736	0.562937
N68	N	-1.044407	-1.261668	0.546465
H69	H	-1.070386	-1.188744	0.529628
H70	H	-1.101944	-1.651374	0.618452
N71	N	-0.373924	-1.129760	0.370033
N72	N	-0.313510	-1.080753	0.309971
H73	H	-0.264684	-1.120308	0.261422
N74	N	-0.647723	-1.382611	1.116437
N75	N	-0.610377	-1.315718	1.177748
H76	H	-0.659242	-1.267240	1.217344
N77	N	-0.914517	-1.386395	0.365163
N78	N	-0.980032	-1.316263	0.343708
H79	H	-0.954709	-1.244325	0.322243
H80	H	-0.919338	-1.656620	0.613989
N81	N	-0.913155	-1.559233	0.317061
N82	N	-0.937378	-1.545187	0.223120
H83	H	-0.911091	-1.595312	0.167679
N84	N	-1.109530	-1.560824	0.317045
N85	N	-1.168927	-1.634944	0.342315
H86	H	-1.194743	-1.685764	0.287249
N87	N	-1.111275	-1.708938	0.468147
N88	N	-1.092056	-1.704150	0.372181
H89	H	-1.119186	-1.760601	0.323602
H90	H	-0.921253	-1.690065	0.475422
H91	H	-0.633516	-1.118467	0.628109
