data_functionalizedCrystal
_audit_creation_method	'MofGen! by Chris Wilmer'
_symmetry_space_group_name_H-M	'P1'
_symmetry_Int_Tables_number	1
_symmetry_cell_setting	triclinic
loop_
_symmetry_equiv_pos_as_xyz
  x,y,z
_cell_length_a	12.759401
_cell_length_b	15.297510
_cell_length_c	12.759393
_cell_angle_alpha	80.356238
_cell_angle_beta	89.981298
_cell_angle_gamma	80.292672
loop_
_atom_site_label
_atom_site_type_symbol
_atom_site_fract_x
_atom_site_fract_y
_atom_site_fract_z
Zn1	Zn	1.533779	0.359127	-0.666324
Zn2	Zn	1.503223	0.510014	-0.521036
Zn3	Zn	1.358072	0.359171	-0.490672
Zn4	Zn	1.327634	0.509941	-0.696663
O5	O	1.430677	0.434563	-0.593674
O6	O	1.676745	0.379154	-0.647063
O7	O	1.483919	0.490053	-0.369997
O8	O	1.406907	0.232921	-0.488568
O9	O	1.654295	0.490010	-0.540320
O10	O	1.535998	0.232888	-0.617619
O11	O	1.377278	0.379230	-0.347689
O12	O	1.207016	0.379159	-0.517986
O13	O	1.355029	0.489886	-0.839649
O14	O	1.184653	0.489930	-0.669327
O15	O	1.506483	0.379084	-0.817360
O16	O	1.454405	0.636249	-0.569738
O17	O	1.325400	0.636195	-0.698770
C18	C	1.157714	0.434542	-0.593654
C19	C	1.040935	0.434555	-0.593675
C20	C	0.888001	0.376957	-0.649392
C21	C	0.997728	0.376940	-0.649381
C22	C	0.974406	0.492198	-0.537984
C23	C	0.864680	0.492220	-0.538002
C24	C	1.154220	0.344802	-0.766861
C25	C	1.220746	0.287151	-0.822538
C26	C	1.202904	0.199147	-0.821123
C27	C	1.118541	0.168776	-0.764014
C28	C	1.052021	0.226422	-0.708328
C29	C	1.069859	0.314439	-0.709764
C30	C	0.708188	0.524348	-0.420519
C31	C	0.641667	0.581990	-0.364827
C32	C	0.659507	0.669996	-0.366231
C33	C	0.743874	0.700363	-0.423321
C34	C	0.810395	0.642721	-0.479014
C35	C	0.792548	0.554717	-0.477612
C36	C	1.383312	0.668956	-0.640864
C37	C	1.363145	0.769230	-0.661087
C38	C	1.575194	1.051871	-0.449555
C39	C	1.594141	0.957659	-0.430549
C40	C	1.536394	0.910547	-0.488182
C41	C	1.459696	0.957657	-0.564824
C42	C	1.440741	1.051879	-0.583826
C43	C	1.401941	0.910554	-0.622453
C44	C	1.325243	0.957664	-0.699095
C45	C	1.306292	1.051877	-0.718094
C46	C	1.364039	1.098988	-0.660461
C47	C	1.420896	0.816332	-0.603451
C48	C	1.286443	0.816340	-0.737722
C49	C	1.267496	0.910552	-0.756728
C50	C	1.704706	0.434585	-0.593694
C51	C	1.821481	0.434594	-0.593703
C52	C	1.430769	0.434472	-0.867689
C53	C	1.430808	0.434433	-0.984458
C54	C	1.478246	1.199255	-0.546334
C55	C	1.498492	1.098981	-0.526190
C56	C	1.375306	0.376717	-1.027701
C57	C	1.375336	0.376689	-1.137420
C58	C	1.486379	0.492096	-1.160643
C59	C	1.486342	0.492128	-1.050927
C60	C	1.258002	0.344401	-1.280869
C61	C	1.202512	0.286670	-1.324113
C62	C	1.204171	0.198652	-1.270794
C63	C	1.261339	0.168346	-1.174230
C64	C	1.316837	0.226071	-1.130990
C65	C	1.315156	0.314102	-1.184310
C66	C	1.603680	0.524407	-0.907474
C67	C	1.659185	0.582129	-0.864232
C68	C	1.657537	0.670149	-0.917548
C69	C	1.600388	0.700452	-1.014116
C70	C	1.544882	0.642730	-1.057358
C71	C	1.546529	0.554711	-1.004034
C72	C	1.430659	0.434589	-0.320712
C73	C	1.430875	0.434374	-0.203892
H74	H	0.572687	0.557385	-0.318726
H75	H	1.330087	0.329738	-0.973585
H76	H	1.551825	0.833835	-0.472701
H77	H	1.205047	0.948922	-0.819131
Cl78	Cl	0.916460	0.680898	-0.550785
H79	H	1.104031	0.097110	-0.762855
H80	H	1.702746	0.717142	-0.882335
Cl81	Cl	1.690568	0.898442	-0.334213
Cl82	Cl	1.388701	0.187980	-1.009604
Cl83	Cl	0.575886	0.742456	-0.296203
H84	H	1.257078	0.152207	-0.866457
Cl85	Cl	1.326797	0.325332	-0.894332
H86	H	0.693653	0.452687	-0.419373
H87	H	1.243826	1.090231	-0.780489
H88	H	1.348618	1.175704	-0.675934
Cl89	Cl	1.263437	0.057681	-1.107214
Cl90	Cl	0.945971	0.188250	-0.636536
H91	H	1.622197	1.090238	-0.402632
H92	H	1.155964	0.311354	-1.402738
H93	H	1.483344	0.777984	-0.541048
H94	H	1.239418	0.777982	-0.784650
Cl95	Cl	1.598320	0.811107	-1.081153
H96	H	1.705732	0.557444	-0.785607
H97	H	1.256631	0.416076	-1.324283
Cl98	Cl	1.473036	0.680827	-1.178759
H99	H	0.852832	0.330035	-0.694747
Cl100	Cl	1.176645	0.455446	-0.768661
Cl101	Cl	1.134413	0.126078	-1.325162
H102	H	1.604997	0.452743	-0.864034
Cl103	Cl	1.028723	0.564633	-0.467958
Cl104	Cl	0.766347	0.810984	-0.425034
H105	H	1.531593	0.539069	-1.214774
