data_functionalizedCrystal
_audit_creation_method	'MofGen! by Chris Wilmer'
_symmetry_space_group_name_H-M	'P1'
_symmetry_Int_Tables_number	1
_symmetry_cell_setting	triclinic
loop_
_symmetry_equiv_pos_as_xyz
  x,y,z
_cell_length_a	14.519709
_cell_length_b	13.596369
_cell_length_c	6.394984
_cell_angle_alpha	90.004414
_cell_angle_beta	94.912251
_cell_angle_gamma	90.000816
loop_
_atom_site_label
_atom_site_type_symbol
_atom_site_fract_x
_atom_site_fract_y
_atom_site_fract_z
O1	O	-1.226849	0.081648	0.273823
O2	O	-0.976849	0.331648	0.523823
O3	O	-0.726849	0.581648	0.773823
O4	O	-0.476849	0.831648	1.023823
O5	O	-0.958723	0.081680	0.306069
O6	O	-0.708723	0.331680	0.556069
O7	O	-0.458723	0.581680	0.806069
O8	O	-0.208723	0.831680	1.056069
O9	O	-1.096595	0.081661	-0.014105
O10	O	-0.846595	0.331661	0.235895
O11	O	-0.596595	0.581661	0.485895
O12	O	-0.346595	0.831661	0.735895
O13	O	-1.088978	0.081667	0.593996
O14	O	-0.838978	0.331667	0.843996
O15	O	-0.588978	0.581667	1.093996
O16	O	-0.338978	0.831667	1.343996
O17	O	-1.096580	-0.081922	-0.014122
O18	O	-0.846580	0.168078	0.235878
O19	O	-0.596580	0.418078	0.485878
O20	O	-0.346580	0.668078	0.735878
O21	O	-0.958709	-0.081903	0.306052
O22	O	-0.708709	0.168097	0.556052
O23	O	-0.458709	0.418097	0.806052
O24	O	-0.208709	0.668097	1.056052
O25	O	-1.226835	-0.081935	0.273806
O26	O	-0.976835	0.168065	0.523806
O27	O	-0.726835	0.418065	0.773806
O28	O	-0.476835	0.668065	1.023806
Zn29	Zn	-1.092770	-0.107891	0.289926
Zn30	Zn	-0.842770	0.142109	0.539926
Zn31	Zn	-0.592770	0.392109	0.789926
Zn32	Zn	-0.342770	0.642109	1.039926
Zn33	Zn	-1.092788	0.107636	0.289948
Zn34	Zn	-0.842788	0.357636	0.539948
Zn35	Zn	-0.592788	0.607636	0.789948
Zn36	Zn	-0.342788	0.857636	1.039948
O37	O	-1.088963	-0.081916	0.593980
O38	O	-0.838963	0.168084	0.843980
O39	O	-0.588963	0.418084	1.093980
O40	O	-0.338963	0.668084	1.343980
C41	C	-0.924340	-0.000107	0.304557
C42	C	-0.674340	0.249893	0.554557
C43	C	-0.424340	0.499893	0.804557
C44	C	-0.174340	0.749893	1.054557
C45	C	-0.821910	-0.000095	0.300054
C46	C	-0.571910	0.249905	0.550054
C47	C	-0.321910	0.499905	0.800054
C48	C	-0.071910	0.749905	1.050054
N49	N	-1.092763	-0.254983	0.289909
N50	N	-0.842763	-0.004983	0.539909
N51	N	-0.592763	0.245017	0.789909
N52	N	-0.342763	0.495017	1.039909
C53	C	-0.446833	-0.000136	0.283475
C54	C	-0.196833	0.249864	0.533475
C55	C	0.053167	0.499864	0.783475
C56	C	0.303167	0.749864	1.033475
C57	C	-0.551191	-0.000124	0.288079
C58	C	-0.301191	0.249876	0.538079
C59	C	-0.051191	0.499876	0.788079
C60	C	0.198809	0.749876	1.038079
C61	C	-0.634368	-0.000115	0.291764
C62	C	-0.384368	0.249885	0.541764
C63	C	-0.134368	0.499885	0.791764
C64	C	0.115632	0.749885	1.041764
C65	C	-0.738733	-0.000105	0.296369
C66	C	-0.488733	0.249895	0.546369
C67	C	-0.238733	0.499895	0.796369
C68	C	0.011267	0.749895	1.046369
C69	C	-1.092787	-0.656274	0.289951
C70	C	-0.842787	-0.406274	0.539951
C71	C	-0.592787	-0.156274	0.789951
C72	C	-0.342787	0.093726	1.039951
C73	C	-1.092778	-0.544623	0.289946
C74	C	-0.842778	-0.294623	0.539946
C75	C	-0.592778	-0.044623	0.789946
C76	C	-0.342778	0.205377	1.039946
C77	C	-1.092776	-0.455632	0.289932
C78	C	-0.842776	-0.205632	0.539932
C79	C	-0.592776	0.044368	0.789932
C80	C	-0.342776	0.294368	1.039932
C81	C	-1.092766	-0.343974	0.289924
C82	C	-0.842766	-0.093974	0.539924
C83	C	-0.592766	0.156026	0.789924
C84	C	-0.342766	0.406026	1.039924
C85	C	-0.261218	-0.000143	0.275317
C86	C	-0.011218	0.249857	0.525317
C87	C	0.238782	0.499857	0.775317
C88	C	0.488782	0.749857	1.025317
C89	C	-0.363648	-0.000142	0.279820
C90	C	-0.113648	0.249858	0.529820
C91	C	0.136352	0.499858	0.779820
C92	C	0.386352	0.749858	1.029820
C93	C	-1.095073	-0.000134	0.908062
C94	C	-0.845073	0.249866	1.158062
C95	C	-0.595073	0.499866	1.408062
C96	C	-0.345073	0.749866	1.658062
C97	C	-1.090483	-0.000131	0.671807
C98	C	-0.840483	0.249869	0.921807
C99	C	-0.590483	0.499869	1.171807
C100	C	-0.340483	0.749869	1.421807
N101	N	-1.092802	0.254728	0.289948
N102	N	-0.842802	0.504728	0.539948
N103	N	-0.592802	0.754728	0.789948
N104	N	-0.342802	1.004728	1.039948
