data_functionalizedCrystal
_audit_creation_method	'MofGen! by Chris Wilmer'
_symmetry_space_group_name_H-M	'P1'
_symmetry_Int_Tables_number	1
_symmetry_cell_setting	triclinic
loop_
_symmetry_equiv_pos_as_xyz
  x,y,z
_cell_length_a	19.288855
_cell_length_b	19.288864
_cell_length_c	9.130307
_cell_angle_alpha	89.984639
_cell_angle_beta	89.994139
_cell_angle_gamma	83.134244
loop_
_atom_site_label
_atom_site_type_symbol
_atom_site_fract_x
_atom_site_fract_y
_atom_site_fract_z
O1	O	-0.086647	-0.921342	0.122277
O2	O	-0.098336	-0.719081	0.122178
O3	O	0.008639	-0.826060	0.122211
O4	O	-0.193622	-0.814364	0.122244
O5	O	0.008640	-0.826056	-0.121388
O6	O	-0.098335	-0.719078	-0.121421
O7	O	-0.086646	-0.921339	-0.121322
Cu8	Cu	-0.092490	-0.820208	-0.143614
Cu9	Cu	-0.092491	-0.820212	0.144470
O10	O	-0.193621	-0.814360	-0.121355
C11	C	-0.097959	-0.693203	0.000366
C12	C	-0.096830	-0.616100	0.000327
C13	C	-0.087023	-0.947217	0.000494
C14	C	-0.088152	-1.024321	0.000542
C15	C	0.034517	-0.825683	0.000410
C16	C	0.111620	-0.824557	0.000404
C17	C	0.147831	-0.824033	0.133189
C18	C	0.220277	-0.822965	0.133198
C19	C	0.256512	-0.822434	0.000415
C20	C	0.220292	-0.822954	-0.132388
C21	C	0.147847	-0.824015	-0.132393
C22	C	0.376744	-0.861435	-0.101287
C23	C	0.449189	-0.860379	-0.101276
C24	C	0.479958	-0.819158	0.000426
C25	C	0.438274	-0.779004	0.102143
C26	C	0.365829	-0.780065	0.102137
C27	C	0.335067	-0.821283	0.000406
C28	C	0.594722	-0.817475	0.133231
C29	C	0.667169	-0.816403	0.133234
C30	C	0.667184	-0.816399	-0.132356
C31	C	0.594738	-0.817465	-0.132356
C32	C	0.558512	-0.818006	0.000442
C33	C	0.780502	-0.814739	0.000446
C34	C	0.703399	-0.815871	0.000450
N35	N	-0.092489	-0.820210	-0.346237
C36	C	-0.159598	-0.571401	0.000360
C37	C	-0.158538	-0.498954	0.000376
C38	C	-0.094705	-0.471209	0.000389
C39	C	-0.031929	-0.515917	0.000347
C40	C	-0.032991	-0.588363	0.000317
C41	C	-0.044526	-0.362950	0.085773
C42	C	-0.043466	-0.290505	0.085813
C43	C	-0.091426	-0.247763	0.000477
C44	C	-0.140456	-0.277473	-0.084880
C45	C	-0.141519	-0.349919	-0.084911
C46	C	-0.093546	-0.392655	0.000421
C47	C	-0.153048	-0.124509	0.000525
C48	C	-0.151985	-0.052061	0.000532
C49	C	-0.025374	-0.069026	0.000518
C50	C	-0.026439	-0.141472	0.000496
C51	C	-0.090278	-0.169209	0.000507
C52	C	0.002211	-0.914978	-0.346197
C53	C	0.049558	-0.962366	-0.422844
C54	C	0.049559	-0.962373	-0.576178
C55	C	0.002208	-0.914985	-0.652867
C56	C	-0.045140	-0.867597	-0.576221
C57	C	-0.045137	-0.867596	-0.422884
C58	C	-0.139835	-0.772827	-0.576260
C59	C	-0.139840	-0.772822	-0.422926
C60	C	-0.187186	-0.725439	-0.652950
C61	C	-0.234538	-0.678053	-0.576303
C62	C	-0.234537	-0.678048	-0.422960
C63	C	-0.187188	-0.725434	-0.346279
N64	N	-0.092487	-0.820215	0.347093
H65	H	0.249764	-0.822534	0.241332
H66	H	0.565225	-0.817912	0.241362
H67	H	-0.205029	-0.147093	0.000513
H68	H	-0.209653	-0.462554	0.000399
O69	O	-0.285595	-0.626928	-0.340284
H70	H	-0.319283	-0.656042	-0.270379
H71	H	0.565256	-0.817897	-0.240484
H72	H	0.483122	-0.893077	-0.184095
O73	O	0.706262	-0.815829	-0.275571
H74	H	0.686025	-0.768698	-0.339266
O75	O	0.343559	-0.905901	-0.210981
H76	H	0.384714	-0.933653	-0.281688
H77	H	0.088113	-1.000948	-0.360390
O78	O	0.259370	-0.822395	-0.275610
H79	H	0.315831	-0.821580	-0.253299
H80	H	0.118364	-0.824439	-0.240526
O81	O	0.706224	-0.815833	0.276466
H82	H	0.762685	-0.814995	0.254164
H83	H	0.002209	-0.914983	-0.221345
H84	H	0.002217	-0.914988	-0.777720
H85	H	-0.187185	-0.725437	-0.221427
H86	H	-0.187181	-0.725444	-0.777802
O87	O	0.108754	-0.824599	0.276413
H88	H	0.146108	-0.824046	0.368750
H89	H	0.331893	-0.747369	0.184955
O90	O	0.471446	-0.734535	0.211842
H91	H	0.528824	-0.740533	0.194749
O92	O	-0.228450	-0.601320	0.000330
H93	H	-0.271919	-0.558062	0.000334
H94	H	-0.003545	-0.266321	0.155322
O95	O	0.100620	-1.013487	-0.658862
H96	H	0.133542	-1.046442	-0.579783
H97	H	-0.005470	-0.397745	0.155273
H98	H	-0.273085	-0.639470	-0.638753
O99	O	-0.194371	-0.381970	-0.177028
H100	H	-0.227535	-0.340085	-0.236393
O101	O	-0.192187	-0.231386	-0.176942
H102	H	-0.183207	-0.176019	-0.162602
H103	H	-0.203100	-0.015667	0.000551
H104	H	0.026600	-0.046436	0.000619
H105	H	0.024674	-0.177867	0.000477
H106	H	0.020044	-0.493322	0.000377
H107	H	0.018124	-0.624757	0.000290
