data_functionalizedCrystal
_audit_creation_method	'MofGen! by Chris Wilmer'
_symmetry_space_group_name_H-M	'P1'
_symmetry_Int_Tables_number	1
_symmetry_cell_setting	triclinic
loop_
_symmetry_equiv_pos_as_xyz
  x,y,z
_cell_length_a	12.645331
_cell_length_b	12.645330
_cell_length_c	13.033255
_cell_angle_alpha	97.153143
_cell_angle_beta	82.797667
_cell_angle_gamma	90.012860
loop_
_atom_site_label
_atom_site_type_symbol
_atom_site_fract_x
_atom_site_fract_y
_atom_site_fract_z
Zn1	Zn	1.696867	-0.498126	-0.590889
Zn2	Zn	2.196867	0.001874	-0.090889
Zn3	Zn	1.674260	-0.652909	-0.416149
Zn4	Zn	2.174260	-0.152909	0.083851
Zn5	Zn	1.497079	-0.475662	-0.416160
Zn6	Zn	1.997079	0.024338	0.083840
Zn7	Zn	1.519572	-0.675342	-0.590838
Zn8	Zn	2.019572	-0.175342	-0.090838
O9	O	1.596945	-0.575510	-0.503509
O10	O	2.096945	-0.075510	-0.003509
O11	O	1.842218	-0.518671	-0.567726
O12	O	2.342218	-0.018671	-0.067726
O13	O	1.631882	-0.610608	-0.269918
O14	O	2.131882	-0.110608	0.230082
O15	O	1.523629	-0.330298	-0.439363
O16	O	2.023629	0.169702	0.060637
O17	O	1.825609	-0.632390	-0.439346
O18	O	2.325609	-0.132390	0.060654
O19	O	1.670412	-0.346802	-0.567736
O20	O	2.170412	0.153198	-0.067736
O21	O	1.501708	-0.480385	-0.269926
O22	O	2.001708	0.019615	0.230074
O23	O	1.351713	-0.502137	-0.439314
O24	O	1.851713	-0.002137	0.060686
O25	O	1.561966	-0.670623	-0.737077
O26	O	2.061966	-0.170623	-0.237077
O27	O	1.368239	-0.648841	-0.567649
O28	O	1.868239	-0.148841	-0.067649
O29	O	1.692223	-0.540424	-0.737114
O30	O	2.192223	-0.040424	-0.237114
O31	O	1.653693	-0.804229	-0.439297
O32	O	2.153693	-0.304229	0.060703
O33	O	1.540045	-0.820710	-0.567639
O34	O	2.040045	-0.320710	-0.067639
C35	C	1.321511	-0.575487	-0.503478
C36	C	1.821511	-0.075487	-0.003478
C37	C	1.203682	-0.575505	-0.503490
C38	C	1.703682	-0.075505	-0.003490
C39	C	1.148385	-0.483103	-0.422885
C40	C	1.648385	0.016897	0.077115
C41	C	1.025861	-0.482836	-0.423162
C42	C	1.525861	0.017164	0.076838
C43	C	1.050057	-0.559921	-0.613803
C44	C	1.550057	-0.059921	-0.113803
C45	C	1.172590	-0.559243	-0.613299
C46	C	1.672590	-0.059243	-0.113299
C47	C	1.154785	-0.683871	-0.474821
C48	C	1.654785	-0.183871	0.025179
C49	C	1.031869	-0.682978	-0.472430
C50	C	1.531869	-0.182978	0.027570
C51	C	1.596888	-0.850936	-0.503484
C52	C	2.096888	-0.350936	-0.003484
C53	C	1.596966	-0.968770	-0.503509
C54	C	2.096966	-0.468770	-0.003509
C55	C	1.668309	-1.125900	-0.422604
C56	C	2.168309	-0.625900	0.077396
C57	C	1.668601	-1.003365	-0.422802
C58	C	2.168601	-0.503365	0.077198
C59	C	1.641452	-1.027338	-0.613660
C60	C	2.141452	-0.527338	-0.113660
C61	C	1.642045	-1.149881	-0.613231
C62	C	2.142045	-0.649881	-0.113231
C63	C	1.481244	-1.132470	-0.475347
C64	C	1.981244	-0.632470	0.024653
C65	C	1.481463	-1.009548	-0.472876
C66	C	1.981463	-0.509548	0.027124
C67	C	1.873454	-0.575534	-0.503541
C68	C	2.373454	-0.075534	-0.003541
C69	C	1.991286	-0.575544	-0.503554
C70	C	2.491286	-0.075544	-0.003554
C71	C	1.632125	-0.610532	-0.776072
C72	C	2.132125	-0.110532	-0.276072
C73	C	1.647117	-0.625456	-0.892222
C74	C	2.147117	-0.125456	-0.392222
C75	C	1.597033	-0.299011	-0.503557
C76	C	2.097033	0.200989	-0.003557
C77	C	1.597071	-0.181183	-0.503577
C78	C	2.097071	0.318817	-0.003577
C79	C	1.604894	-0.583100	-1.064062
C80	C	2.104894	-0.083100	-0.564062
C81	C	1.589391	-0.567673	-0.944014
C82	C	2.089391	-0.067673	-0.444014
C83	C	1.561962	-0.540548	-0.232006
C84	C	2.061962	-0.040548	0.267994
C85	C	1.547175	-0.525325	-0.115856
C86	C	2.047175	-0.025325	0.384144
H87	H	1.181624	-0.402960	-0.441674
H88	H	1.681624	0.097040	0.058326
F89	F	1.221899	-0.644424	-0.694513
F90	F	1.721899	-0.144424	-0.194513
F91	F	0.980126	-0.698728	-0.366377
F92	F	1.480126	-0.198728	0.133623
F93	F	1.630058	-1.150742	-0.315533
F94	F	2.130058	-0.650742	0.184467
F95	F	1.576494	-0.999683	-0.694631
F96	F	2.076494	-0.499683	-0.194631
F97	F	1.181819	-0.706154	-0.371486
F98	F	1.681819	-0.206154	0.128514
H99	H	1.528490	-0.506787	-0.899487
H100	H	2.028490	-0.006787	-0.399487
H101	H	1.754102	-0.976362	-0.441475
H102	H	2.254102	-0.476362	0.058525
H103	H	1.167228	-0.490933	-0.340873
H104	H	1.667228	0.009067	0.159127
H105	H	1.008283	-0.754337	-0.526825
H106	H	1.508283	-0.254337	-0.026825
F107	F	1.751523	-0.991192	-0.645439
F108	F	2.251523	-0.491192	-0.145439
H109	H	1.708017	-0.686343	-0.936748
H110	H	2.208017	-0.186343	-0.436748
H111	H	1.191391	-0.752536	-0.533530
H112	H	1.691391	-0.252536	-0.033530
F113	F	1.431942	-1.159716	-0.372188
F114	F	1.931942	-0.659716	0.127812
F115	F	1.467577	-0.445747	-1.057656
F116	F	1.967577	0.054253	-0.557656
H117	H	0.998997	-0.402263	-0.442201
H118	H	1.498997	0.097737	0.057799
F119	F	0.972701	-0.493386	-0.316326
F120	F	1.472701	0.006614	0.183674
F121	F	1.437949	-0.957997	-0.366924
F122	F	1.937949	-0.457997	0.133076
F123	F	1.214070	-0.456278	-0.644974
F124	F	1.714070	0.043722	-0.144974
F125	F	1.022422	-0.646020	-0.694485
F126	F	1.522422	-0.146020	-0.194485
F127	F	1.630019	-0.950398	-0.316059
F128	F	2.130019	-0.450398	0.183941
H129	H	1.022547	-0.482109	-0.638469
H130	H	1.522547	0.017891	-0.138469
F131	F	1.779450	-1.169169	-0.446736
F132	F	2.279450	-0.669169	0.053264
F133	F	1.753259	-1.191177	-0.644484
F134	F	2.253259	-0.691177	-0.144484
H135	H	1.424370	-0.985972	-0.527528
H136	H	1.924370	-0.485972	-0.027528
F137	F	1.684481	-0.662690	-1.122262
F138	F	2.184481	-0.162690	-0.622262
H139	H	1.593206	-1.187586	-0.675641
H140	H	2.093206	-0.687586	-0.175641
F141	F	1.411636	-1.180315	-0.552429
F142	F	1.911636	-0.680315	-0.052429
