data_functionalizedCrystal
_audit_creation_method	'MofGen! by Chris Wilmer'
_symmetry_space_group_name_H-M	'P1'
_symmetry_Int_Tables_number	1
_symmetry_cell_setting	triclinic
loop_
_symmetry_equiv_pos_as_xyz
  x,y,z
_cell_length_a	17.077404
_cell_length_b	14.908506
_cell_length_c	17.077396
_cell_angle_alpha	93.269594
_cell_angle_beta	89.980223
_cell_angle_gamma	93.315312
loop_
_atom_site_label
_atom_site_type_symbol
_atom_site_fract_x
_atom_site_fract_y
_atom_site_fract_z
Zn1	Zn	1.182022	-0.359269	-0.461886
Zn2	Zn	1.515356	-0.025936	-0.128553
Zn3	Zn	1.848689	0.307397	0.204781
Zn4	Zn	1.174357	-0.510140	-0.338194
Zn5	Zn	1.507690	-0.176807	-0.004861
Zn6	Zn	1.841024	0.156526	0.328472
Zn7	Zn	1.050753	-0.359288	-0.330634
Zn8	Zn	1.384087	-0.025955	0.002699
Zn9	Zn	1.717420	0.307378	0.336033
Zn10	Zn	1.043153	-0.510074	-0.469414
Zn11	Zn	1.376486	-0.176741	-0.136081
Zn12	Zn	1.709820	0.156593	0.197253
O13	O	1.112571	-0.434693	-0.400032
O14	O	1.445905	-0.101360	-0.066699
O15	O	1.779238	0.231974	0.266635
O16	O	1.290852	-0.379302	-0.445491
O17	O	1.624185	-0.045969	-0.112158
O18	O	1.957518	0.287364	0.221175
O19	O	1.157934	-0.490165	-0.227346
O20	O	1.491267	-0.156832	0.105987
O21	O	1.824600	0.176502	0.439320
O22	O	1.074555	-0.233041	-0.341730
O23	O	1.407888	0.100292	-0.008397
O24	O	1.741222	0.433625	0.324936
O25	O	1.285220	-0.490147	-0.354616
O26	O	1.618553	-0.156813	-0.021283
O27	O	1.951886	0.176520	0.312051
O28	O	1.170998	-0.233027	-0.438160
O29	O	1.504331	0.100306	-0.104827
O30	O	1.837665	0.433639	0.228506
O31	O	1.067122	-0.379335	-0.221792
O32	O	1.400456	-0.046001	0.111541
O33	O	1.733789	0.287332	0.444875
O34	O	0.939899	-0.379270	-0.349030
O35	O	1.273233	-0.045937	-0.015697
O36	O	1.606566	0.287396	0.317637
O37	O	1.061602	-0.490034	-0.578261
O38	O	1.394935	-0.156700	-0.244927
O39	O	1.728268	0.176633	0.088406
O40	O	0.934315	-0.490052	-0.450991
O41	O	1.267649	-0.156719	-0.117658
O42	O	1.600982	0.176615	0.215675
O43	O	1.163628	-0.379238	-0.572730
O44	O	1.496962	-0.045905	-0.239396
O45	O	1.830295	0.287428	0.093937
O46	O	1.150564	-0.636376	-0.361916
O47	O	1.483897	-0.303043	-0.028582
O48	O	1.817231	0.030291	0.304751
O49	O	1.054169	-0.636327	-0.458322
O50	O	1.387502	-0.302994	-0.124989
O51	O	1.720836	0.030339	0.208345
C52	C	0.908625	-0.434657	-0.400008
C53	C	1.241959	-0.101323	-0.066674
C54	C	1.575292	0.232010	0.266659
C55	C	0.821375	-0.434663	-0.400017
C56	C	1.154709	-0.101330	-0.066684
C57	C	1.488042	0.232004	0.266650
C58	C	0.442666	-0.492506	-0.453073
C59	C	0.775999	-0.159173	-0.119740
C60	C	1.109333	0.174161	0.213593
C61	C	0.524647	-0.492494	-0.453061
C62	C	0.857980	-0.159161	-0.119727
C63	C	1.191314	0.174172	0.213606
C64	C	0.568524	-0.434717	-0.400046
C65	C	0.901857	-0.101384	-0.066713
C66	C	1.235190	0.231950	0.266621
C67	C	0.530415	-0.376954	-0.347035
C68	C	0.863748	-0.043621	-0.013701
C69	C	1.197082	0.289713	0.319632
C70	C	0.448435	-0.376971	-0.347044
C71	C	0.781768	-0.043638	-0.013711
C72	C	1.115102	0.289696	0.319622
C73	C	0.701287	-0.376921	-0.347020
C74	C	1.034620	-0.043588	-0.013687
C75	C	1.367953	0.289746	0.319647
C76	C	0.783272	-0.376903	-0.347011
C77	C	1.116606	-0.043569	-0.013678
C78	C	1.449939	0.289764	0.319655
C79	C	0.777499	-0.492444	-0.453037
C80	C	1.110832	-0.159111	-0.119703
C81	C	1.444165	0.174222	0.213630
C82	C	0.695519	-0.492461	-0.453046
C83	C	1.028852	-0.159128	-0.119713
C84	C	1.362185	0.174205	0.213620
C85	C	0.657416	-0.434697	-0.400036
C86	C	0.990749	-0.101364	-0.066702
C87	C	1.324082	0.231970	0.266631
C88	C	1.100731	-0.669085	-0.411773
C89	C	1.434065	-0.335752	-0.078440
C90	C	1.767398	-0.002419	0.254893
C91	C	1.095738	-0.769360	-0.416823
C92	C	1.429071	-0.436026	-0.083489
C93	C	1.762404	-0.102693	0.249844
C94	C	1.038473	-0.910699	-0.474085
C95	C	1.371806	-0.577365	-0.140752
C96	C	1.705140	-0.244032	0.192581
C97	C	1.043163	-0.816482	-0.469347
C98	C	1.376497	-0.483149	-0.136013
C99	C	1.709830	-0.149815	0.197320
C100	C	1.143627	-0.816460	-0.369035
C101	C	1.476961	-0.483127	-0.035702
C102	C	1.810294	-0.149793	0.297632
C103	C	1.138937	-0.910676	-0.373774
C104	C	1.472271	-0.577343	-0.040440
C105	C	1.805604	-0.244010	0.292893
C106	C	1.086358	-0.957792	-0.426300
C107	C	1.419691	-0.624459	-0.092967
C108	C	1.753024	-0.291126	0.240367
C109	C	1.081664	-1.052011	-0.431034
C110	C	1.414997	-0.718677	-0.097701
C111	C	1.748331	-0.385344	0.235633
C112	C	1.182132	-1.051987	-0.330727
C113	C	1.515465	-0.718653	0.002606
C114	C	1.848798	-0.385320	0.335940
C115	C	1.186822	-0.957770	-0.325988
C116	C	1.520155	-0.624437	0.007345
C117	C	1.853489	-0.291104	0.340679
C118	C	1.317314	-0.434730	-0.400057
C119	C	1.650647	-0.101397	-0.066724
C120	C	1.983981	0.231937	0.266609
C121	C	1.404563	-0.434746	-0.400068
C122	C	1.737896	-0.101412	-0.066735
C123	C	2.071230	0.231921	0.266599
C124	C	1.112622	-0.434626	-0.604773
C125	C	1.445956	-0.101293	-0.271440
C126	C	1.779289	0.232040	0.061893
C127	C	1.112644	-0.434598	-0.692022
C128	C	1.445977	-0.101265	-0.358688
C129	C	1.779311	0.232069	-0.025355
C130	C	1.124479	-0.199385	-0.388262
C131	C	1.457813	0.133948	-0.054929
C132	C	1.791146	0.467281	0.278404
C133	C	1.129554	-0.099111	-0.383247
C134	C	1.462887	0.234222	-0.049913
C135	C	1.796220	0.567556	0.283420
C136	C	1.165771	-0.376902	-0.730133
C137	C	1.499105	-0.043569	-0.396799
C138	C	1.832438	0.289765	-0.063466
C139	C	1.165782	-0.376872	-0.812112
C140	C	1.499116	-0.043539	-0.478778
C141	C	1.832449	0.289795	-0.145445
C142	C	1.112669	-0.434543	-0.855978
C143	C	1.446002	-0.101210	-0.522645
C144	C	1.779336	0.232123	-0.189312
C145	C	1.059536	-0.492242	-0.817862
C146	C	1.392869	-0.158909	-0.484528
C147	C	1.726203	0.174425	-0.151195
C148	C	1.059522	-0.492267	-0.735884
C149	C	1.392855	-0.158933	-0.402550
C150	C	1.726189	0.174400	-0.069217
C151	C	1.059570	-0.492188	-0.988729
C152	C	1.392904	-0.158854	-0.655396
C153	C	1.726237	0.174479	-0.322062
C154	C	1.059585	-0.492164	-1.070712
C155	C	1.392918	-0.158831	-0.737379
C156	C	1.726252	0.174502	-0.404046
C157	C	1.165831	-0.376793	-1.064957
C158	C	1.499164	-0.043460	-0.731624
C159	C	1.832497	0.289874	-0.398290
C160	C	1.165817	-0.376818	-0.982979
C161	C	1.499150	-0.043484	-0.649646
C162	C	1.832483	0.289849	-0.316313
C163	C	1.112684	-0.434518	-0.944868
C164	C	1.446018	-0.101185	-0.611535
C165	C	1.779351	0.232149	-0.278201
C166	C	1.112569	-0.434694	-0.196084
C167	C	1.445903	-0.101361	0.137249
C168	C	1.779236	0.231973	0.470582
C169	C	1.112712	-0.434468	-0.108824
C170	C	1.446046	-0.101135	0.224510
C171	C	1.779379	0.232198	0.557843
H172	H	0.808526	-0.539476	-0.496202
H173	H	1.141859	-0.206143	-0.162868
H174	H	1.475193	0.127191	0.170465
H175	H	1.004172	-0.778141	-0.508259
H176	H	1.337505	-0.444807	-0.174926
H177	H	1.670839	-0.111474	0.158407
Br178	Br	0.576355	-0.570891	-0.524996
Br179	Br	0.909689	-0.237558	-0.191663
Br180	Br	1.243022	0.095775	0.141670
H181	H	1.186442	-0.778086	-0.326275
H182	H	1.519775	-0.444753	0.007058
H183	H	1.853109	-0.111419	0.340392
Br184	Br	0.987448	-0.570506	-0.877394
Br185	Br	1.320781	-0.237172	-0.544060
Br186	Br	1.654115	0.096161	-0.210727
H187	H	0.670266	-0.329881	-0.303855
H188	H	1.003599	0.003452	0.029478
H189	H	1.336933	0.336785	0.362812
H190	H	1.209092	-0.329810	-1.095991
H191	H	1.542425	0.003523	-0.762657
H192	H	1.875758	0.336857	-0.429324
Br193	Br	1.010302	-1.115954	-0.502313
Br194	Br	1.343635	-0.782620	-0.168980
Br195	Br	1.676969	-0.449287	0.164353
Br196	Br	1.237921	-0.298609	-0.863833
Br197	Br	1.571255	0.034725	-0.530500
Br198	Br	1.904588	0.368058	-0.197167
Br199	Br	0.987413	-0.570566	-0.684160
Br200	Br	1.320746	-0.237233	-0.350827
Br201	Br	1.654080	0.096101	-0.017493
Br202	Br	1.247109	-1.115905	-0.265857
Br203	Br	1.580442	-0.782571	0.067476
Br204	Br	1.913775	-0.449238	0.400810
Br205	Br	1.258181	-0.893819	-0.254711
Br206	Br	1.591514	-0.560486	0.078622
Br207	Br	1.924848	-0.227153	0.411956
Br208	Br	0.635972	-0.570867	-0.525002
Br209	Br	0.969305	-0.237533	-0.191669
Br210	Br	1.302639	0.095800	0.141665
H211	H	1.209025	-0.329942	-0.694422
H212	H	1.542358	0.003391	-0.361089
H213	H	1.875691	0.336725	-0.027756
Br214	Br	0.967103	-0.974646	-0.545353
Br215	Br	1.300436	-0.641313	-0.212020
Br216	Br	1.633769	-0.307979	0.121313
H217	H	0.406947	-0.539550	-0.496248
H218	H	0.740281	-0.206217	-0.162915
H219	H	1.073614	0.127116	0.170418
H220	H	0.566146	-0.329915	-0.303866
H221	H	0.899479	0.003419	0.029468
H222	H	1.232812	0.336752	0.362801
H223	H	1.016293	-0.539159	-0.957701
H224	H	1.349626	-0.205826	-0.624368
H225	H	1.682959	0.127508	-0.291034
H226	H	1.209070	-0.329862	-0.947265
H227	H	1.542404	0.003472	-0.613932
H228	H	1.875737	0.336805	-0.280599
H229	H	1.016334	-0.539123	-1.106427
H230	H	1.349667	-0.205790	-0.773093
H231	H	1.683001	0.127543	-0.439760
H232	H	0.818995	-0.329846	-0.303849
H233	H	1.152328	0.003487	0.029484
H234	H	1.485662	0.336820	0.362817
Br235	Br	0.396722	-0.298586	-0.275099
Br236	Br	0.730056	0.034747	0.058234
Br237	Br	1.063389	0.368081	0.391567
