data_functionalizedCrystal
_audit_creation_method	'MofGen! by Chris Wilmer'
_symmetry_space_group_name_H-M	'P1'
_symmetry_Int_Tables_number	1
_symmetry_cell_setting	triclinic
loop_
_symmetry_equiv_pos_as_xyz
  x,y,z
_cell_length_a	20.919099
_cell_length_b	14.560438
_cell_length_c	14.560438
_cell_angle_alpha	90.001343
_cell_angle_beta	61.866470
_cell_angle_gamma	61.850933
loop_
_atom_site_label
_atom_site_type_symbol
_atom_site_fract_x
_atom_site_fract_y
_atom_site_fract_z
Zr1	Zr	0.664080	0.937296	-0.067766
O2	O	0.790652	0.800658	-0.204360
O3	O	0.537508	0.972239	-0.032864
O4	O	0.664079	0.982249	-0.214412
O5	O	0.664081	0.790651	0.128327
O6	O	0.664078	1.133389	-0.214411
O7	O	0.664081	0.790648	-0.022812
O8	O	0.437666	1.115484	0.110346
O9	O	0.890494	0.808556	-0.196430
O10	O	0.589568	1.108325	-0.009554
O11	O	0.589569	0.995533	0.103238
O12	O	0.738590	1.007318	-0.110512
O13	O	0.738591	0.894525	0.002281
Zr14	Zr	0.664079	1.178351	0.173287
Zr15	Zr	0.664078	1.178347	-0.067763
Zr16	Zr	0.664080	0.937299	0.173284
Zr17	Zr	0.823316	0.949892	-0.055117
Zr18	Zr	0.504843	1.165754	0.160638
O19	O	0.790651	1.143407	0.138385
O20	O	0.790650	1.143402	-0.204357
O21	O	0.790653	0.800663	0.138381
O22	O	0.537507	1.314988	0.309881
O23	O	0.537506	1.314983	-0.032860
O24	O	0.537509	0.972245	0.309878
O25	O	0.664077	1.324996	-0.022806
O26	O	0.664079	1.133397	0.319933
O27	O	0.664080	0.982257	0.319932
O28	O	0.664078	1.324998	0.128333
O29	O	0.890493	1.000160	-0.196428
O30	O	0.437666	1.115487	0.301949
O31	O	0.437665	1.307090	0.301951
O32	O	0.437664	1.307087	0.110348
O33	O	0.890494	0.808559	-0.004827
O34	O	0.890493	1.000163	-0.004825
O35	O	0.589568	1.108329	0.216033
O36	O	0.589568	1.221121	0.103241
O37	O	0.738590	1.120114	0.002283
O38	O	0.738591	1.007321	0.115075
C39	C	0.464899	1.042067	0.036939
C40	C	0.397299	1.036719	0.031570
C41	C	0.017615	1.002521	-0.002447
C42	C	0.081149	1.007543	0.002552
C43	C	0.057926	1.088977	0.083946
C44	C	-0.028838	1.165387	0.160352
C45	C	-0.092370	1.160360	0.155357
C46	C	0.247003	1.108102	0.102980
C47	C	0.310544	1.113125	0.107968
C48	C	0.420526	0.955279	-0.049832
C49	C	0.356988	0.950263	-0.054824
C50	C	0.270229	1.026669	0.021586
C51	C	0.122867	1.094115	0.089056
C52	C	0.205290	1.021526	0.016480
C53	C	0.664081	0.756305	0.052757
C54	C	0.664082	0.653972	0.052756
C55	C	0.664084	0.605895	-0.030509
C56	C	0.664078	0.509747	-0.030503
C57	C	0.664073	0.509760	0.136039
C58	C	0.664072	0.605910	0.136036
C59	C	0.863260	1.073580	0.068582
C60	C	0.930860	1.078927	0.073952
C61	C	0.664079	1.057818	-0.248756
C62	C	0.664078	1.057817	-0.351088
C63	C	0.664077	1.359341	0.052764
C64	C	0.664077	1.461674	0.052765
C65	C	0.664081	0.974560	-0.495327
C66	C	0.664077	0.974555	-0.399173
C67	C	0.664075	1.141095	-0.399157
C68	C	0.664073	1.141103	-0.495305
C69	C	0.664080	1.057828	0.354277
C70	C	0.664080	1.057829	0.456609
C71	C	0.464897	1.343585	0.036942
C72	C	0.397296	1.440570	0.031574
C73	C	0.464900	1.042071	0.338456
C74	C	0.397300	1.036725	0.435418
C75	C	0.464898	1.343590	0.338459
C76	C	0.397297	1.440576	0.435422
C77	C	0.863261	0.772057	-0.232938
C78	C	0.930861	0.675070	-0.329901
C79	C	0.863262	0.772062	0.068579
C80	C	0.930862	0.675077	0.073947
C81	C	0.863259	1.073575	-0.232935
C82	C	0.930859	1.078921	-0.329897
C83	C	0.365551	1.427237	-0.029835
C84	C	0.302042	1.518356	-0.034901
C85	C	0.270275	1.622807	0.021448
C86	C	0.302027	1.636138	0.082860
C87	C	0.365539	1.545020	0.087919
C88	C	0.365554	1.093093	0.539840
C89	C	0.302046	1.088066	0.630957
C90	C	0.270280	1.026678	0.617648
C91	C	0.302032	0.970303	0.513215
C92	C	0.365544	0.975324	0.422101
C93	C	0.365551	1.545009	0.422081
C94	C	0.302042	1.636148	0.513180
C95	C	0.270276	1.622851	0.617619
C96	C	0.302029	1.518408	0.630958
C97	C	0.365541	1.427272	0.539861
C98	C	0.962615	0.570638	-0.316559
C99	C	1.026144	0.479501	-0.407656
C100	C	1.057913	0.492797	-0.512095
C101	C	1.026156	0.597240	-0.525435
C102	C	0.962633	0.688376	-0.434338
C103	C	0.962615	0.688410	0.135347
C104	C	1.026141	0.597293	0.140388
C105	C	1.057910	0.492842	0.084035
C106	C	1.026155	0.479510	0.022628
C107	C	0.962634	0.570627	0.017581
C108	C	0.962604	1.140320	-0.316554
C109	C	1.026113	1.145364	-0.407651
C110	C	1.057879	1.089003	-0.512091
C111	C	1.026128	1.027602	-0.525433
C112	C	0.962616	1.022564	-0.434336
H113	H	0.291625	1.179439	0.174255
H114	H	0.664090	0.645026	-0.098319
H115	H	0.276153	1.721194	0.128736
H116	H	0.664071	1.208893	-0.359997
H117	H	0.391379	1.555892	0.137931
H118	H	0.936750	1.186217	-0.231521
H119	H	0.391411	1.143083	0.550697
H120	H	1.052031	0.608054	-0.610480
H121	H	0.664078	0.470606	-0.098305
H122	H	0.224195	0.955220	-0.049788
H123	H	0.276201	1.133978	0.715982
H124	H	0.151788	0.945336	-0.059670
H125	H	0.936753	0.773451	0.181244
H126	H	0.218558	1.696991	0.017321
H127	H	0.664066	0.470617	0.203842
H128	H	0.218565	1.022598	0.691848
H129	H	1.109595	1.093114	-0.586259
H130	H	0.664068	0.645060	0.203846
H131	H	0.276159	0.920321	0.502394
H132	H	0.664085	0.906755	-0.534475
H133	H	0.276197	1.507480	-0.084908
H134	H	0.103967	1.160421	0.155325
H135	H	0.176368	1.170320	0.165196
H136	H	1.109637	0.418580	-0.586263
H137	H	1.051985	0.608169	0.190396
H138	H	1.051959	1.195362	-0.396767
H139	H	0.664076	0.906751	-0.360041
H140	H	0.664070	1.208916	-0.534440
H141	H	0.391383	0.929425	0.337079
H142	H	0.936776	0.972562	-0.445216
H143	H	0.036534	0.936213	-0.068732
H144	H	0.391414	1.342196	-0.075736
H145	H	0.936780	0.773406	-0.445215
H146	H	0.391405	1.555855	0.337049
H147	H	1.052031	0.394454	-0.023252
H148	H	0.391381	1.342241	0.550739
H149	H	0.276156	1.507598	0.716005
H150	H	0.276196	1.721182	0.502299
H151	H	0.218561	1.697070	0.691787
H152	H	0.936752	0.559791	-0.231528
H153	H	1.051990	0.394468	-0.396774
H154	H	1.109633	0.418658	0.088153
H155	H	0.936783	0.559755	-0.032414
H156	H	0.375906	0.883949	-0.121102
H157	H	-0.047742	1.231689	0.226629
H158	H	0.491169	0.893072	-0.112039
H159	H	-0.163011	1.222576	0.217571
H160	H	1.052002	0.981715	-0.610480
