data_functionalizedCrystal
_audit_creation_method	'MofGen! by Chris Wilmer'
_symmetry_space_group_name_H-M	'P1'
_symmetry_Int_Tables_number	1
_symmetry_cell_setting	triclinic
loop_
_symmetry_equiv_pos_as_xyz
  x,y,z
_cell_length_a	14.519709
_cell_length_b	16.109301
_cell_length_c	14.586319
_cell_angle_alpha	89.994786
_cell_angle_beta	90.002108
_cell_angle_gamma	83.570813
loop_
_atom_site_label
_atom_site_type_symbol
_atom_site_fract_x
_atom_site_fract_y
_atom_site_fract_z
O1	O	1.223634	0.108984	-0.076124
O2	O	1.723634	0.608984	0.423876
O3	O	0.955130	0.121819	-0.076152
O4	O	1.455130	0.621819	0.423848
O5	O	1.096758	-0.005617	-0.076128
O6	O	1.596758	0.494383	0.423872
O7	O	1.082006	0.236420	-0.076148
O8	O	1.582006	0.736420	0.423852
O9	O	1.096748	-0.005618	0.076353
O10	O	1.596748	0.494382	0.576353
O11	O	0.955120	0.121817	0.076328
O12	O	1.455120	0.621817	0.576328
O13	O	1.223624	0.108983	0.076357
O14	O	1.723624	0.608983	0.576357
Cu15	Cu	1.089371	0.115400	0.090265
Cu16	Cu	1.589371	0.615400	0.590265
Cu17	Cu	1.089383	0.115402	-0.090061
Cu18	Cu	1.589383	0.615402	0.409939
O19	O	1.081996	0.236418	0.076333
O20	O	1.581996	0.736418	0.576333
C21	C	1.096156	-0.036593	0.000113
C22	C	1.596156	0.463407	0.500113
C23	C	1.094364	-0.128892	0.000114
C24	C	1.594364	0.371108	0.500114
C25	C	0.920766	0.121220	0.000085
C26	C	1.420766	0.621220	0.500085
C27	C	0.818389	0.119427	0.000074
C28	C	1.318389	0.619427	0.500074
C29	C	1.174238	-0.351026	0.000108
C30	C	1.674238	0.148974	0.500108
C31	C	1.172547	-0.437749	0.000100
C32	C	1.672547	0.062251	0.500100
C33	C	1.004510	-0.418166	0.000086
C34	C	1.504510	0.081834	0.500086
C35	C	1.006202	-0.331444	0.000087
C36	C	1.506202	0.168556	0.500087
C37	C	1.091068	-0.297877	0.000103
C38	C	1.591068	0.202123	0.500103
C39	C	1.087686	-0.471322	0.000094
C40	C	1.587686	0.028678	0.500094
C41	C	1.085852	-0.565351	0.000085
C42	C	1.585852	-0.065351	0.500085
C43	C	1.092902	-0.203842	0.000109
C44	C	1.592902	0.296158	0.500109
C45	C	0.443507	0.112829	0.000116
C46	C	0.943507	0.612829	0.500116
C47	C	0.547811	0.114661	0.000104
C48	C	1.047811	0.614661	0.500104
C49	C	0.630945	0.116128	0.000094
C50	C	1.130945	0.616128	0.500094
C51	C	0.735256	0.117961	0.000084
C52	C	1.235256	0.617961	0.500084
C53	C	1.257988	0.109582	0.000118
C54	C	1.757988	0.609582	0.500118
C55	C	1.360365	0.111374	0.000122
C56	C	1.860365	0.611374	0.500122
C57	C	1.082599	0.267395	0.000090
C58	C	1.582599	0.767395	0.500090
C59	C	1.084390	0.359693	0.000083
C60	C	1.584390	0.859693	0.500083
N61	N	1.089370	0.115397	0.217097
N62	N	1.589370	0.615397	0.717097
N63	N	1.089392	0.115397	-0.216893
N64	N	1.589392	0.615397	0.283107
C65	C	1.152104	0.058988	0.452114
C66	C	1.652104	0.558988	0.952114
C67	C	1.152106	0.058986	0.548096
C68	C	1.652106	0.558986	1.048096
C69	C	1.026651	0.171809	0.548083
C70	C	1.526651	0.671809	1.048083
C71	C	1.026645	0.171807	0.452104
C72	C	1.526645	0.671807	0.952104
C73	C	1.089376	0.115397	0.404122
C74	C	1.589376	0.615397	0.904122
C75	C	1.089385	0.115398	0.596083
C76	C	1.589385	0.615398	1.096083
C77	C	1.089388	0.115396	0.700150
C78	C	1.589388	0.615396	1.200150
C79	C	1.089373	0.115398	0.300048
C80	C	1.589373	0.615398	0.800048
H81	H	1.243341	-0.323699	0.000119
H82	H	1.743341	0.176301	0.500119
C83	C	0.957630	0.233838	0.600862
C84	C	1.457630	0.733838	1.100862
H85	H	0.920257	0.267421	0.558531
H86	H	1.420257	0.767421	1.058531
H87	H	0.990767	0.268524	0.638312
H88	H	1.490767	0.768524	1.138312
H89	H	0.919263	0.203825	0.638294
H90	H	1.419263	0.703825	1.138294
H91	H	1.203183	0.013052	0.587168
H92	H	1.703183	0.513052	1.087168
H93	H	1.240272	-0.481020	0.000102
H94	H	1.740272	0.018980	0.500102
H95	H	0.935415	-0.445507	0.000075
H96	H	1.435415	0.054493	0.500075
H97	H	0.975560	0.217742	0.413026
H98	H	1.475560	0.717742	0.913026
H99	H	0.938471	-0.288168	0.000080
H100	H	1.438471	0.211832	0.500080
C101	C	1.221096	-0.003067	0.399337
C102	C	1.721096	0.496933	0.899337
H103	H	1.258448	-0.036667	0.441670
H104	H	1.758448	0.463333	0.941670
H105	H	1.259475	0.026912	0.361888
H106	H	1.759475	0.526912	0.861888
H107	H	1.187923	-0.037745	0.361904
H108	H	1.687923	0.462255	0.861904
