data_functionalizedCrystal
_audit_creation_method	'MofGen! by Chris Wilmer'
_symmetry_space_group_name_H-M	'P1'
_symmetry_Int_Tables_number	1
_symmetry_cell_setting	triclinic
loop_
_symmetry_equiv_pos_as_xyz
  x,y,z
_cell_length_a	10.686220
_cell_length_b	16.959454
_cell_length_c	10.686551
_cell_angle_alpha	85.595422
_cell_angle_beta	90.308082
_cell_angle_gamma	94.401635
loop_
_atom_site_label
_atom_site_type_symbol
_atom_site_fract_x
_atom_site_fract_y
_atom_site_fract_z
Zn1	Zn	1.972261	-0.192706	-0.562392
Zn2	Zn	1.956011	-0.335773	-0.352638
Zn3	Zn	1.746376	-0.212926	-0.368710
Zn4	Zn	1.762442	-0.334171	-0.578415
O5	O	1.859272	-0.268894	-0.465539
O6	O	2.145648	-0.203892	-0.521135
O7	O	1.914679	-0.328610	-0.179225
O8	O	1.776417	-0.099628	-0.394423
O9	O	2.133710	-0.309003	-0.367030
O10	O	1.942373	-0.084773	-0.536720
O11	O	1.760661	-0.238355	-0.191033
O12	O	1.572964	-0.236801	-0.409960
O13	O	1.803798	-0.306273	-0.751835
O14	O	1.584768	-0.325880	-0.564030
O15	O	1.957951	-0.202339	-0.740063
O16	O	1.930257	-0.446176	-0.382567
O17	O	1.788042	-0.444999	-0.548445
C18	C	1.533350	-0.283361	-0.490478
C19	C	1.393921	-0.289568	-0.501177
C20	C	1.859166	-0.474266	-0.465525
C21	C	1.859238	-0.562118	-0.465553
C22	C	1.785337	-0.933005	-0.551894
C23	C	1.933567	-0.934158	-0.379285
C24	C	1.933522	-0.851615	-0.379276
C25	C	1.859382	-0.809763	-0.465577
C26	C	1.785287	-0.850454	-0.551886
C27	C	2.007607	-0.810918	-0.292961
C28	C	2.007564	-0.728369	-0.292948
C29	C	1.933430	-0.686515	-0.379256
C30	C	1.859333	-0.727212	-0.465569
C31	C	1.785193	-0.685360	-0.551870
C32	C	1.711101	-0.726054	-0.638190
C33	C	1.711153	-0.808600	-0.638193
C34	C	1.933378	-0.603970	-0.379252
C35	C	1.785143	-0.602809	-0.551862
C36	C	2.186468	-0.254371	-0.440502
C37	C	2.325899	-0.248182	-0.429834
C38	C	1.884480	-0.251872	-0.792738
C39	C	1.895221	-0.244618	-0.932171
C40	C	1.859416	-0.062717	-0.465577
C41	C	1.859477	0.025143	-0.465593
C42	C	1.834236	-0.285790	-0.139606
C43	C	1.823737	-0.292810	-0.000156
H44	H	1.345483	-0.329756	-0.570441
N45	N	2.087574	-0.856046	-0.199880
H46	H	2.061242	-0.847230	-0.111720
H47	H	2.076345	-0.914496	-0.213088
N48	N	2.013520	-0.979305	-0.286214
H49	H	2.104634	-0.959902	-0.298910
H50	H	1.987095	-0.970475	-0.198092
N51	N	1.390028	-0.194951	-0.338079
H52	H	1.439888	-0.227651	-0.275737
H53	H	1.448282	-0.153327	-0.385127
N54	N	2.087484	-0.684479	-0.199864
H55	H	2.134461	-0.723519	-0.145198
H56	H	2.149411	-0.644966	-0.246546
H57	H	1.724774	-0.568738	-0.622143
N58	N	1.987169	-0.182601	-0.996369
H59	H	2.033341	-0.151471	-0.931193
H60	H	2.049345	-0.209399	-1.046289
H61	H	1.993696	-0.570841	-0.308966
H62	H	1.754322	-0.339621	-0.951689
N63	N	1.631124	-0.680913	-0.731258
H64	H	1.642335	-0.622447	-0.718143
H65	H	1.657485	-0.689783	-0.819384
N66	N	1.631229	-0.852490	-0.731275
H67	H	1.657532	-0.832583	-0.819439
H68	H	1.642537	-0.911123	-0.718068
N69	N	1.705430	-0.976889	-0.644996
H70	H	1.716709	-1.035532	-0.631913
H71	H	1.614337	-0.967504	-0.632248
