data_functionalizedCrystal
_audit_creation_method	'MofGen! by Chris Wilmer'
_symmetry_space_group_name_H-M	'P1'
_symmetry_Int_Tables_number	1
_symmetry_cell_setting	triclinic
loop_
_symmetry_equiv_pos_as_xyz
  x,y,z
_cell_length_a	6.817900
_cell_length_b	11.102183
_cell_length_c	14.125465
_cell_angle_alpha	94.634773
_cell_angle_beta	100.398878
_cell_angle_gamma	108.603876
loop_
_atom_site_label
_atom_site_type_symbol
_atom_site_fract_x
_atom_site_fract_y
_atom_site_fract_z
V1	V	-4.017257	-0.174747	-0.299975
O2	O	-3.978095	0.009521	-0.294266
O3	O	-3.994669	-0.347574	-0.297921
O4	O	-3.952927	-0.171566	-0.430805
O5	O	-4.020125	-0.167706	-0.160463
V6	V	-4.499605	-0.152765	-0.283288
O7	O	-4.281094	-0.222967	-0.336578
O8	O	-4.685965	-0.104545	-0.246685
O9	O	-4.298987	0.020063	-0.285341
O10	O	-4.656164	-0.337032	-0.288997
O11	O	-4.614133	-0.159806	-0.422800
O12	O	-4.340728	-0.155945	-0.152458
C13	C	-3.846464	-0.389721	-0.293189
C14	C	-3.909176	-0.531006	-0.292382
C15	C	-3.793217	-0.165204	-0.462693
C16	C	-3.822075	-0.163746	-0.569648
C17	C	-3.844194	-0.495370	-0.116162
C18	C	-3.841162	-0.543927	-0.027677
C19	C	-3.900091	-0.676678	-0.026924
C20	C	-3.962065	-0.760877	-0.114666
C21	C	-3.965098	-0.712320	-0.203152
C22	C	-3.906157	-0.579564	-0.203895
C23	C	-4.030093	-0.747956	-0.379370
C24	C	-3.971149	-0.615205	-0.380124
C25	C	-4.092066	-0.832154	-0.467112
C26	C	-4.095085	-0.783597	-0.555599
C27	C	-4.036148	-0.650837	-0.556348
C28	C	-3.974182	-0.566648	-0.468610
C29	C	-3.874968	-0.161074	-0.765471
C30	C	-4.061262	-0.166435	-0.817792
C31	C	-4.090694	-0.164948	-0.926755
C32	C	-3.845528	-0.162561	-0.656498
C33	C	-4.110534	0.062203	-0.290071
C34	C	-4.027060	0.203487	-0.290884
C35	C	-4.163781	-0.162312	-0.120564
C36	C	-4.114161	-0.163763	-0.013609
H37	H	-3.790703	-0.475359	0.043761
H38	H	-4.140061	-0.940246	-0.466493
C39	C	-3.691878	-0.153282	-0.814958
C40	C	-3.644298	-0.042352	-0.859433
C41	C	-3.475680	-0.035145	-0.905054
H42	H	-3.570944	-0.150045	-0.767904
H43	H	-3.730731	-0.226877	-0.862807
H44	H	-3.605435	0.031224	-0.811589
H45	H	-3.765184	-0.045564	-0.906500
H46	H	-3.514533	-0.108740	-0.952903
H47	H	-3.354759	-0.031913	-0.857994
H48	H	-3.443387	0.040113	-0.935243
H49	H	-4.198654	-0.172154	-0.780754
C50	C	-3.896591	-0.729572	0.069081
C51	C	-3.756321	-0.798685	0.079167
C52	C	-3.753064	-0.847444	0.167587
H53	H	-3.851182	-0.660547	0.121315
H54	H	-4.034953	-0.784816	0.069975
H55	H	-3.617988	-0.743445	0.078282
H56	H	-3.801696	-0.867729	0.026955
H57	H	-3.891426	-0.902688	0.168482
H58	H	-3.707659	-0.778411	0.219814
H59	H	-3.657908	-0.894353	0.174439
C60	C	-4.162332	-0.875215	-0.650747
C61	C	-4.213262	-1.001863	-0.631148
C62	C	-4.275190	-1.086299	-0.718775
H63	H	-4.282835	-0.865069	-0.690212
H64	H	-4.049262	-0.856737	-0.684013
H65	H	-4.326322	-1.020333	-0.597898
H66	H	-4.092790	-1.012049	-0.591697
H67	H	-4.162120	-1.067822	-0.752040
H68	H	-4.395688	-1.076142	-0.758233
H69	H	-4.309735	-1.172238	-0.705488
H70	H	-3.796148	-0.387274	-0.116765
H71	H	-4.010071	-0.868969	-0.114046
H72	H	-3.926159	-0.458551	-0.469210
C73	C	-4.039485	-0.598369	-0.652519
C74	C	-4.106325	-0.700522	-0.729189
C75	C	-4.109402	-0.652243	-0.817796
H76	H	-4.134611	-0.551469	-0.659678
H77	H	-3.901080	-0.543238	-0.653465
H78	H	-4.244710	-0.755632	-0.728245
H79	H	-4.011221	-0.747433	-0.722063
H80	H	-3.970996	-0.597112	-0.818741
H81	H	-4.204527	-0.605343	-0.824944
H82	H	-4.154733	-0.721545	-0.869826
