data_functionalizedCrystal
_audit_creation_method	'MofGen! by Chris Wilmer'
_symmetry_space_group_name_H-M	'P1'
_symmetry_Int_Tables_number	1
_symmetry_cell_setting	triclinic
loop_
_symmetry_equiv_pos_as_xyz
  x,y,z
_cell_length_a	8.634740
_cell_length_b	8.597366
_cell_length_c	7.681459
_cell_angle_alpha	91.841591
_cell_angle_beta	96.637293
_cell_angle_gamma	92.879739
loop_
_atom_site_label
_atom_site_type_symbol
_atom_site_fract_x
_atom_site_fract_y
_atom_site_fract_z
O1	O	2.075583	0.493764	0.221327
O2	O	1.625349	0.451314	0.214890
O3	O	1.855965	0.248347	0.184094
O4	O	1.844968	0.696732	0.252123
O5	O	1.827487	0.273282	-0.104981
O6	O	1.596871	0.476249	-0.074185
O7	O	2.047105	0.518699	-0.067748
Zn8	Zn	1.817467	0.501433	-0.116863
Zn9	Zn	1.854988	0.468580	0.264005
O10	O	1.816490	0.721667	-0.036951
C11	C	1.553370	0.454165	0.068894
C12	C	1.381320	0.425492	0.064546
C13	C	1.838959	0.202815	0.030760
C14	C	1.830697	0.029991	0.004551
C15	C	2.119085	0.515848	0.078252
C16	C	2.291136	0.544520	0.082612
N17	N	1.880596	0.446148	0.523936
C18	C	1.833496	0.767198	0.116386
C19	C	1.841760	0.940021	0.142607
N20	N	1.791859	0.523866	0.623206
H21	H	1.345547	0.668362	0.101385
H22	H	1.326906	0.301639	0.045805
H23	H	1.971161	0.366796	0.587101
H24	H	1.701288	0.603199	0.560047
C25	C	1.867342	1.177033	0.320003
C26	C	1.863027	1.014507	0.329269
H27	H	1.880460	1.223020	0.435244
H28	H	1.772336	1.207531	0.258965
H29	H	1.952176	1.210770	0.259538
H30	H	1.778185	0.980768	0.389723
H31	H	1.958044	0.983995	0.390333
H32	H	1.814883	0.974798	-0.133725
