data_functionalizedCrystal
_audit_creation_method	'MofGen! by Chris Wilmer'
_symmetry_space_group_name_H-M	'P1'
_symmetry_Int_Tables_number	1
_symmetry_cell_setting	triclinic
loop_
_symmetry_equiv_pos_as_xyz
  x,y,z
_cell_length_a	6.817900
_cell_length_b	17.253917
_cell_length_c	17.110486
_cell_angle_alpha	100.003024
_cell_angle_beta	99.060439
_cell_angle_gamma	102.659311
loop_
_atom_site_label
_atom_site_type_symbol
_atom_site_fract_x
_atom_site_fract_y
_atom_site_fract_z
V1	V	-3.976353	-0.111047	-0.254214
O2	O	-3.965401	0.005583	-0.241647
O3	O	-3.927661	-0.220425	-0.259908
O4	O	-3.906220	-0.109231	-0.361694
O5	O	-3.986991	-0.106381	-0.139155
V6	V	-4.462835	-0.097110	-0.239549
O7	O	-4.231121	-0.141620	-0.286382
O8	O	-4.658264	-0.066537	-0.207381
O9	O	-4.288319	0.012268	-0.233855
O10	O	-4.591183	-0.213740	-0.252116
O11	O	-4.569593	-0.101776	-0.354608
O12	O	-4.309761	-0.098926	-0.132068
C13	C	-3.773295	-0.247092	-0.257815
C14	C	-3.814626	-0.336510	-0.263187
C15	C	-3.808494	-0.367101	-0.192476
C16	C	-3.847349	-0.451119	-0.197526
C17	C	-3.892319	-0.504543	-0.273287
C18	C	-3.898456	-0.473946	-0.344004
C19	C	-3.859616	-0.389930	-0.338953
C20	C	-4.011232	-0.757040	-0.296246
C21	C	-4.050066	-0.841061	-0.301291
C22	C	-3.998960	-0.818228	-0.154812
C23	C	-3.960110	-0.734211	-0.149768
C24	C	-3.966260	-0.703622	-0.220485
N25	N	-3.932029	-0.590423	-0.278451
N26	N	-3.926566	-0.617744	-0.215321
C27	C	-3.745942	-0.105252	-0.387653
C28	C	-3.769882	-0.104491	-0.475568
C29	C	-3.962406	-0.108148	-0.521173
C30	C	-3.984888	-0.107432	-0.603778
C31	C	-3.814847	-0.103065	-0.640778
C32	C	-3.622307	-0.099406	-0.595166
C33	C	-3.599825	-0.100116	-0.512562
C34	C	-3.873658	-0.100715	-0.889974
C35	C	-3.896157	-0.100008	-0.972585
C36	C	-4.258736	-0.108033	-0.981190
C37	C	-4.236239	-0.108747	-0.898585
C38	C	-4.043700	-0.105083	-0.852980
C39	C	-3.837824	-0.102336	-0.725214
C40	C	-4.020722	-0.105807	-0.768544
C41	C	-4.106029	0.038931	-0.235946
C42	C	-4.043935	0.128348	-0.230580
C43	C	-4.133381	-0.102907	-0.106106
C44	C	-4.088680	-0.103665	-0.018190
H45	H	-4.016216	-0.732144	-0.353828
H46	H	-3.757677	-0.096449	-1.002707
O47	O	-3.942084	-0.525951	-0.417533
C48	C	-3.975094	-0.606668	-0.406831
H49	H	-3.895476	-0.606913	-0.343111
H50	H	-4.146885	-0.634653	-0.415454
C51	C	-3.984428	-0.656403	-0.547827
C52	C	-3.886625	-0.656704	-0.469568
H53	H	-3.929866	-0.687270	-0.586528
H54	H	-3.962196	-0.602023	-0.555038
H55	H	-4.127582	-0.679723	-0.555001
H56	H	-3.743479	-0.633376	-0.462391
H57	H	-3.908831	-0.711081	-0.462357
O58	O	-3.865562	-0.360344	-0.407720
C59	C	-3.913632	-0.425513	-0.475674
H60	H	-3.870854	-0.480635	-0.456338
H61	H	-4.085178	-0.441559	-0.502445
C62	C	-3.844732	-0.332860	-0.563609
C63	C	-3.792176	-0.400560	-0.539861
H64	H	-3.769822	-0.317468	-0.603204
H65	H	-3.812354	-0.288954	-0.517827
H66	H	-3.987689	-0.346241	-0.585913
H67	H	-3.649228	-0.387175	-0.517548
H68	H	-3.824528	-0.444463	-0.585640
H69	H	-4.159166	-0.109360	-0.738415
H70	H	-3.483856	-0.095845	-0.625297
O71	O	-3.916779	-0.682362	-0.076159
C72	C	-4.082939	-0.699844	-0.036834
H73	H	-4.228974	-0.732326	-0.083874
H74	H	-4.050610	-0.740624	0.006800
C75	C	-3.931484	-0.580083	0.068498
C76	C	-4.110850	-0.619972	0.010722
H77	H	-3.948698	-0.530815	0.097837
H78	H	-3.819534	-0.568307	0.042007
H79	H	-3.904562	-0.614075	0.104852
H80	H	-4.137755	-0.585985	-0.025636
H81	H	-4.222806	-0.631741	0.037209
O82	O	-4.093418	-0.892981	-0.374865
C83	C	-3.945187	-0.938387	-0.378152
H84	H	-3.798586	-0.903872	-0.332269
H85	H	-4.006689	-0.999873	-0.363209
C86	C	-4.078276	-0.993944	-0.520266
C87	C	-3.898213	-0.951549	-0.463916
H88	H	-4.049306	-1.002066	-0.573170
H89	H	-4.178148	-0.963356	-0.518052
H90	H	-4.129511	-1.045178	-0.507803
H91	H	-3.846997	-0.900312	-0.476374
H92	H	-3.798331	-0.982129	-0.466135
H93	H	-4.100878	-0.111709	-0.491055
H94	H	-3.716899	-0.097761	-0.852858
O95	O	-4.172063	-0.111014	-0.647965
C96	C	-4.317311	-0.114998	-0.597590
H97	H	-4.261195	-0.139922	-0.543102
H98	H	-4.337583	-0.051485	-0.575798
C99	C	-4.593314	-0.140865	-0.712525
C100	C	-4.524399	-0.171484	-0.645606
H101	H	-4.721059	-0.175705	-0.742144
H102	H	-4.495458	-0.138178	-0.746464
H103	H	-4.610191	-0.087938	-0.694356
H104	H	-4.507498	-0.224406	-0.663777
H105	H	-4.622257	-0.174182	-0.611671
H106	H	-4.374708	-0.112302	-0.868465
H107	H	-4.415494	-0.111014	-1.018330
H108	H	-3.443044	-0.097118	-0.475427
H109	H	-3.771861	-0.323608	-0.130782
O110	O	-3.841211	-0.480698	-0.128755
C111	C	-3.793225	-0.415529	-0.060804
H112	H	-3.710064	-0.357567	-0.077211
H113	H	-3.940790	-0.406681	-0.041461
C114	C	-3.755948	-0.505783	0.029606
C115	C	-3.653792	-0.434594	0.009456
H116	H	-3.669947	-0.517544	0.072948
H117	H	-3.788284	-0.549689	-0.016173
H118	H	-3.878914	-0.498401	0.045720
H119	H	-3.530842	-0.441981	-0.006667
H120	H	-3.621432	-0.390690	0.055235
H121	H	-3.993960	-0.843143	-0.097238
H122	H	-3.699382	-0.098784	-0.755349
