data_functionalizedCrystal
_audit_creation_method	'MofGen! by Chris Wilmer'
_symmetry_space_group_name_H-M	'P1'
_symmetry_Int_Tables_number	1
_symmetry_cell_setting	triclinic
loop_
_symmetry_equiv_pos_as_xyz
  x,y,z
_cell_length_a	27.732048
_cell_length_b	27.732048
_cell_length_c	26.809956
_cell_angle_alpha	89.999364
_cell_angle_beta	89.996742
_cell_angle_gamma	82.642655
loop_
_atom_site_label
_atom_site_type_symbol
_atom_site_fract_x
_atom_site_fract_y
_atom_site_fract_z
O1	O	0.640931	0.057510	-0.041421
O2	O	0.500138	0.066256	-0.041436
O3	O	0.574907	-0.008514	-0.041419
O4	O	0.566162	0.132280	-0.041439
O5	O	0.574893	-0.008502	0.041541
O6	O	0.500123	0.066267	0.041523
O7	O	0.640917	0.057522	0.041539
Zn8	Zn	0.570518	0.061896	0.054702
Zn9	Zn	0.570536	0.061881	-0.054600
O10	O	0.566147	0.132291	0.041521
C11	C	0.482124	0.066078	0.000041
C12	C	0.428469	0.065525	0.000036
C13	C	0.089654	0.106229	0.000051
C14	C	-0.112006	0.104178	0.000056
O15	O	-0.143262	0.141398	0.000073
N16	N	-0.131130	0.059843	0.000062
C17	C	-0.099835	0.016017	0.000069
O18	O	-0.120728	-0.021740	0.000079
C19	C	0.101824	0.018068	0.000068
C20	C	0.120944	0.062407	0.000057
C21	C	0.108775	0.150563	0.000042
C22	C	0.159187	0.151076	0.000038
C23	C	0.190477	0.107253	0.000044
C24	C	0.171356	0.062919	0.000054
C25	C	0.133117	-0.025757	0.000079
C26	C	0.183535	-0.025240	0.000080
C27	C	0.202655	0.019098	0.000069
C28	C	0.253059	0.019609	0.000056
N29	N	0.272183	0.063944	0.000050
C30	C	0.240892	0.107766	0.000044
C31	C	-0.205709	0.014943	0.000069
C32	C	-0.256124	0.014430	0.000068
C33	C	-0.268291	0.102591	0.000056
C34	C	-0.217876	0.103104	0.000053
C35	C	-0.186585	0.059278	0.000063
C36	C	0.346761	0.108839	0.000036
C37	C	0.397178	0.109347	0.000030
C38	C	0.409341	0.021186	0.000044
C39	C	0.358929	0.020678	0.000048
C40	C	0.327639	0.064508	0.000045
O41	O	0.284343	-0.017592	0.000045
O42	O	0.261794	0.145518	0.000045
C43	C	0.039242	0.105716	0.000055
C44	C	0.020120	0.061382	0.000065
C45	C	0.051411	0.017560	0.000071
C46	C	-0.030294	0.060869	0.000065
C47	C	-0.061585	0.104691	0.000059
C48	C	-0.042461	0.149026	0.000053
C49	C	0.007951	0.149539	0.000049
C50	C	0.032287	-0.026775	0.000077
C51	C	-0.018125	-0.027284	0.000080
C52	C	-0.049416	0.016538	0.000074
C53	C	0.574716	-0.026515	0.000062
C54	C	0.574164	-0.080170	0.000066
C55	C	0.614867	-0.418985	0.000045
C56	C	0.612816	-0.620645	0.000038
O57	O	0.650037	-0.651900	0.000021
N58	N	0.568481	-0.639768	0.000034
C59	C	0.524656	-0.608474	0.000028
O60	O	0.486899	-0.629367	0.000019
C61	C	0.526707	-0.406815	0.000031
C62	C	0.571045	-0.387694	0.000041
C63	C	0.659202	-0.399864	0.000054
C64	C	0.659714	-0.349452	0.000059
C65	C	0.615892	-0.318161	0.000054
C66	C	0.571557	-0.337282	0.000045
C67	C	0.482882	-0.375521	0.000022
C68	C	0.483399	-0.325104	0.000021
C69	C	0.527737	-0.305983	0.000031
C70	C	0.528247	-0.255580	0.000045
N71	N	0.572583	-0.236456	0.000050
C72	C	0.616405	-0.267747	0.000054
C73	C	0.523582	-0.714348	0.000027
C74	C	0.523069	-0.764762	0.000027
C75	C	0.611230	-0.776930	0.000036
C76	C	0.611742	-0.726514	0.000040
C77	C	0.567917	-0.695224	0.000031
C78	C	0.617477	-0.161878	0.000064
C79	C	0.617986	-0.111461	0.000071
C80	C	0.529825	-0.099298	0.000059
C81	C	0.529316	-0.149710	0.000055
C82	C	0.573147	-0.180999	0.000056
O83	O	0.491047	-0.224296	0.000057
O84	O	0.654156	-0.246844	0.000053
C85	C	0.614355	-0.469397	0.000041
C86	C	0.570021	-0.488518	0.000032
C87	C	0.526198	-0.457228	0.000027
C88	C	0.569508	-0.538933	0.000032
C89	C	0.613330	-0.570223	0.000036
C90	C	0.657665	-0.551100	0.000041
C91	C	0.658177	-0.500688	0.000045
C92	C	0.481863	-0.476351	0.000023
C93	C	0.481355	-0.526764	0.000019
C94	C	0.525177	-0.558054	0.000023
C95	C	0.658931	0.057699	0.000060
C96	C	0.712586	0.058252	0.000062
C97	C	0.566338	0.150292	0.000039
C98	C	0.566891	0.203947	0.000031
N99	N	0.570509	0.061906	0.129298
N100	N	0.570549	0.061867	-0.129196
C101	C	0.603640	0.028781	0.473932
C102	C	0.603652	0.028774	0.682810
O103	O	0.631801	0.000613	0.709820
N104	N	0.570539	0.061870	0.708925
C105	C	0.537419	0.094969	0.682818
O106	O	0.509252	0.123116	0.709824
C107	C	0.537406	0.094974	0.473941
C108	C	0.570524	0.061878	0.447829
C109	C	0.636755	-0.004312	0.447819
C110	C	0.636754	-0.004308	0.395603
C111	C	0.603637	0.028789	0.369500
C112	C	0.570522	0.061882	0.395612
C113	C	0.504284	0.128070	0.447835
C114	C	0.504283	0.128067	0.395613
C115	C	0.537401	0.094972	0.369500
C116	C	0.537405	0.094983	0.317293
N117	N	0.570517	0.061887	0.291177
C118	C	0.603633	0.028790	0.317281
C119	C	0.537429	0.094965	0.792481
C120	C	0.537433	0.094964	0.844700
C121	C	0.603665	0.028768	0.844689
C122	C	0.603663	0.028772	0.792469
C123	C	0.570542	0.061868	0.766366
C124	C	0.603628	0.028801	0.207623
C125	C	0.603625	0.028809	0.155402
C126	C	0.537392	0.095003	0.155418
C127	C	0.537396	0.094997	0.207635
C128	C	0.570516	0.061892	0.233735
O129	O	0.509266	0.123126	0.290250
O130	O	0.631789	0.000640	0.290266
C131	C	0.603642	0.028777	0.526149
C132	C	0.570527	0.061870	0.552261
C133	C	0.537410	0.094968	0.526158
C134	C	0.570531	0.061870	0.604480
C135	C	0.603647	0.028773	0.630584
C136	C	0.636759	-0.004324	0.604468
C137	C	0.636758	-0.004320	0.552252
C138	C	0.504298	0.128064	0.552273
C139	C	0.504303	0.128058	0.604489
C140	C	0.537419	0.094961	0.630593
H141	H	-0.033688	-0.063392	0.000085
O142	O	-0.199384	0.146216	0.000069
C143	C	-0.237819	0.184781	0.000048
H144	H	-0.271972	0.171491	0.015754
H145	H	-0.227515	0.215763	0.024129
H146	H	-0.245048	0.198273	-0.039754
H147	H	0.445246	-0.542327	0.000015
O148	O	0.062727	-0.069316	0.000012
C149	C	0.092243	-0.071669	-0.042963
H150	H	0.094519	-0.033323	-0.057290
H151	H	0.130268	-0.089971	-0.033304
H152	H	0.075809	-0.093617	-0.073046
O153	O	0.660085	-0.192218	0.000001
C154	C	0.687029	-0.183603	-0.042964
H155	H	0.674865	-0.145270	-0.057289
H156	H	0.727369	-0.187438	-0.033293
H157	H	0.680642	-0.211135	-0.073053
O158	O	0.661028	-0.092830	0.000011
C159	C	0.663975	-0.064040	-0.042958
H160	H	0.625783	-0.051201	-0.057285
H161	H	0.682993	-0.031166	-0.033290
H162	H	0.685533	-0.086472	-0.073043
O163	O	0.480011	-0.783357	0.000110
C164	C	0.477069	-0.812164	0.043068
H165	H	0.502232	-0.800428	0.073103
H166	H	0.438074	-0.807350	0.057482
H167	H	0.488520	-0.852008	0.033354
H168	H	0.209009	-0.060929	0.000089
H169	H	0.446177	-0.450879	0.000018
O170	O	-0.274752	-0.028609	0.000138
C171	C	-0.303543	-0.031546	0.043110
H172	H	-0.316384	0.006649	0.057429
H173	H	-0.336416	-0.050568	0.033449
H174	H	-0.281111	-0.053095	0.073199
H175	H	0.695819	-0.333889	0.000065
O176	O	0.653787	-0.807349	-0.000052
C177	C	0.656118	-0.836880	-0.043013
H178	H	0.631261	-0.818229	-0.073040
H179	H	0.695098	-0.842838	-0.057437
H180	H	0.643882	-0.873452	-0.033301
O181	O	0.472196	0.160240	0.526867
C182	C	0.497859	0.189896	0.496675
H183	H	0.535824	0.170380	0.488840
H184	H	0.477622	0.197695	0.459959
H185	H	0.500882	0.225593	0.516809
H186	H	0.647846	-0.710950	0.000047
H187	H	0.477317	0.155019	0.469089
O188	O	0.439791	-0.021348	-0.000015
C189	C	0.469312	-0.023701	-0.042986
H190	H	0.471576	0.014645	-0.057321
H191	H	0.507341	-0.041987	-0.033318
H192	H	0.452893	-0.045662	-0.073066
O193	O	-0.175386	-0.027676	0.000053
C194	C	-0.203082	-0.066912	0.000069
H195	H	-0.240801	-0.054350	-0.015638
H196	H	-0.184263	-0.097598	-0.024013
H197	H	-0.206578	-0.080516	0.039870
H198	H	0.174750	0.187180	0.000029
H199	H	0.321291	0.144530	0.000035
H200	H	0.510430	0.121952	0.134157
O201	O	0.440781	-0.294778	0.000035
C202	C	0.401542	-0.322470	0.000013
H203	H	0.414098	-0.360191	0.015719
H204	H	0.370854	-0.303651	0.024093
H205	H	0.387945	-0.325961	-0.039790
O206	O	0.472157	0.160286	0.370280
C207	C	0.479645	0.208083	0.383054
H208	H	0.518344	0.208053	0.397404
H209	H	0.473899	0.232386	0.348716
H210	H	0.452749	0.222461	0.413370
O211	O	0.701819	-0.430187	0.000083
C212	C	0.741053	-0.402488	0.000077
H213	H	0.728484	-0.364768	0.015778
H214	H	0.771731	-0.421302	0.024170
H215	H	0.754670	-0.398998	-0.039720
H216	H	0.510471	0.121919	0.865958
H217	H	0.510433	0.121951	0.228896
O218	O	0.340296	-0.022361	0.000120
C219	C	0.311512	-0.025296	0.043097
H220	H	0.298674	0.012900	0.057416
H221	H	0.278637	-0.044317	0.033444
H222	H	0.333948	-0.046845	0.073184
H223	H	0.630597	0.001843	0.228868
O224	O	0.078452	0.193180	0.000012
C225	C	0.106150	0.232414	0.000017
H226	H	0.143872	0.219846	-0.015684
H227	H	0.087338	0.263093	-0.024077
H228	H	0.109638	0.246031	0.039813
O229	O	0.480962	-0.684024	0.000045
C230	C	0.441727	-0.711721	0.000030
H231	H	0.454289	-0.749441	0.015735
H232	H	0.411041	-0.692904	0.024115
H233	H	0.428123	-0.715213	-0.039770
H234	H	0.663725	-0.031269	0.530995
O235	O	0.486205	-0.168206	0.000025
C236	C	0.447637	-0.129775	0.000037
H237	H	0.460930	-0.095619	-0.015658
H238	H	0.416665	-0.140080	-0.024058
H239	H	0.434128	-0.122549	0.039835
O240	O	0.701235	-0.482094	0.000139
C241	C	0.704164	-0.453288	0.043098
H242	H	0.678990	-0.465023	0.073127
H243	H	0.743155	-0.458104	0.057523
H244	H	0.692718	-0.413444	0.033384
H245	H	0.446777	-0.391080	0.000011
H246	H	0.023514	0.185643	0.000042
O247	O	0.700222	-0.581520	-0.000044
C248	C	0.702557	-0.611050	-0.043006
H249	H	0.677703	-0.592398	-0.073036
H250	H	0.741539	-0.617009	-0.057426
H251	H	0.690319	-0.647622	-0.033296
H252	H	0.494146	-0.073812	0.000057
H253	H	0.663726	-0.031271	0.625730
H254	H	0.663720	-0.031258	0.374345
O255	O	0.415670	0.152462	0.000043
C256	C	0.377238	0.191029	0.000028
H257	H	0.343086	0.177741	0.015738
H258	H	0.387546	0.222010	0.024108
H259	H	0.370004	0.204522	-0.039773
H260	H	0.630595	0.001859	0.134142
H261	H	0.663722	-0.031266	0.469068
O262	O	0.635850	-0.003426	0.767182
C263	C	0.665087	-0.032626	0.801426
H264	H	0.645274	-0.033032	0.838651
H265	H	0.672751	-0.071283	0.786342
H266	H	0.700876	-0.017177	0.806974
H267	H	-0.067947	0.184708	0.000046
H268	H	0.630630	0.001820	0.865951
H269	H	0.510457	0.121917	0.771232
H270	H	0.477335	0.155012	0.625747
H271	H	0.117558	-0.061861	0.000088
H272	H	-0.293777	0.138273	0.000051
