data_functionalizedCrystal
_audit_creation_method	'MofGen! by Chris Wilmer'
_symmetry_space_group_name_H-M	'P1'
_symmetry_Int_Tables_number	1
_symmetry_cell_setting	triclinic
loop_
_symmetry_equiv_pos_as_xyz
  x,y,z
_cell_length_a	15.538191
_cell_length_b	14.853566
_cell_length_c	13.330367
_cell_angle_alpha	89.995295
_cell_angle_beta	89.997411
_cell_angle_gamma	65.453254
loop_
_atom_site_label
_atom_site_type_symbol
_atom_site_fract_x
_atom_site_fract_y
_atom_site_fract_z
O1	O	0.122929	1.155996	-0.083349
O2	O	0.137574	0.888726	-0.083365
O3	O	-0.006810	1.074387	-0.083359
O4	O	0.267313	0.970334	-0.083356
O5	O	-0.006813	1.074368	0.083488
O6	O	0.137571	0.888707	0.083482
O7	O	0.122925	1.155977	0.083498
Cu8	Cu	0.130248	1.022340	0.098724
Cu9	Cu	0.130252	1.022362	-0.098592
O10	O	0.267310	0.970315	0.083492
C11	C	0.136909	0.855345	0.000056
C12	C	0.134921	0.755915	0.000050
C13	C	0.126515	0.335502	-0.090881
C14	C	0.126512	0.335502	0.091022
C15	C	0.128379	0.428923	0.091019
C16	C	0.129315	0.475637	0.000065
C17	C	0.128385	0.428930	-0.090887
C18	C	0.129319	0.475633	0.181969
C19	C	0.131187	0.569059	0.181970
C20	C	0.132116	0.615778	0.091014
C21	C	0.131185	0.569065	0.000059
C22	C	0.132121	0.615779	-0.090895
C23	C	0.131183	0.569072	-0.181852
C24	C	0.129314	0.475649	-0.181842
C25	C	0.133985	0.709201	0.091005
C26	C	0.133991	0.709208	-0.090901
C27	C	-0.041893	1.085264	0.000062
C28	C	-0.146424	1.117692	0.000054
C29	C	-0.434635	0.795531	0.000057
C30	C	-0.532861	0.826025	0.000061
C31	C	-0.555080	0.997543	0.000070
C32	C	-0.456854	0.967064	0.000061
C33	C	-0.396639	0.866057	0.000056
C34	C	-0.418858	1.037590	0.000060
C35	C	-0.320640	1.007113	0.000057
C36	C	-0.260419	0.906110	0.000054
C37	C	-0.298421	0.835580	0.000052
C38	C	-0.479075	1.138597	0.000073
C39	C	-0.441079	1.209123	0.000072
C40	C	-0.342860	1.178646	0.000061
C41	C	-0.282638	1.077643	0.000059
C42	C	-0.304858	1.249176	0.000063
C43	C	-0.206640	1.218699	0.000060
C44	C	-0.184421	1.047166	0.000055
C45	C	0.302393	0.959438	0.000069
C46	C	0.406924	0.927011	0.000070
N47	N	0.130245	1.022331	0.237506
C48	C	0.123590	1.189357	0.000074
C49	C	0.125578	1.288788	0.000074
N50	N	0.130248	1.022381	-0.237373
C51	C	0.194160	0.940157	0.710126
C52	C	0.066336	1.104594	0.710099
C53	C	0.066333	1.104585	0.605081
C54	C	0.130246	1.022361	0.552580
C55	C	0.194161	0.940147	0.605098
C56	C	0.002425	1.186802	0.552556
C57	C	0.002421	1.186797	0.447531
C58	C	0.066329	1.104569	0.395028
C59	C	0.130247	1.022351	0.447552
C60	C	0.194159	0.940127	0.395052
C61	C	0.258073	0.857905	0.447574
C62	C	0.258070	0.857919	0.552595
C63	C	0.066332	1.104555	0.290007
C64	C	0.194160	0.940116	0.290023
H65	H	0.134758	0.747222	0.165060
H66	H	-0.490119	1.291363	0.000081
O67	O	-0.154481	0.873224	0.000054
H68	H	-0.133374	0.902207	-0.067953
O69	O	-0.369677	0.686586	0.000053
H70	H	-0.383201	0.651313	-0.067949
H71	H	-0.353899	1.331416	0.000078
O72	O	0.326992	0.769211	0.390946
H73	H	0.316243	0.783019	0.309096
H74	H	-0.249390	0.753330	0.000040
H75	H	0.014299	1.171501	0.247248
O76	O	0.263105	0.851485	0.766766
H77	H	0.250976	0.785174	0.746628
H78	H	0.014305	1.171542	0.752849
O79	O	-0.066524	1.275470	0.390891
H80	H	-0.055789	1.261652	0.309042
O81	O	-0.066504	1.275480	0.609182
H82	H	-0.054362	1.341781	0.589023
O83	O	-0.573847	0.749954	0.000053
H84	H	-0.515471	0.674600	0.000040
H85	H	-0.559050	1.163408	0.000067
O86	O	-0.620027	1.106484	0.000079
H87	H	-0.694708	1.115831	0.000078
H88	H	-0.175703	1.276129	0.000060
O89	O	0.126016	0.284650	0.188962
H90	H	0.061220	0.270791	0.193542
H91	H	0.310107	0.790977	0.595365
H92	H	-0.135389	0.964916	0.000043
O93	O	0.135004	0.759591	-0.189004
H94	H	0.134044	0.711412	-0.252243
O95	O	0.128308	0.425275	-0.279941
H96	H	0.191591	0.353697	-0.284291
O97	O	0.125500	0.285141	-0.188985
H98	H	0.188775	0.213559	-0.193348
O99	O	0.132181	0.619471	-0.279948
H100	H	0.197155	0.633022	-0.284298
H101	H	0.128563	0.437589	0.256019
H102	H	0.246202	0.873157	0.247284
H103	H	0.131949	0.607081	0.256032
