data_functionalizedCrystal
_audit_creation_method	'MofGen! by Chris Wilmer'
_symmetry_space_group_name_H-M	'P1'
_symmetry_Int_Tables_number	1
_symmetry_cell_setting	triclinic
loop_
_symmetry_equiv_pos_as_xyz
  x,y,z
_cell_length_a	12.837939
_cell_length_b	9.130307
_cell_length_c	12.811415
_cell_angle_alpha	95.434161
_cell_angle_beta	90.588266
_cell_angle_gamma	89.999195
loop_
_atom_site_label
_atom_site_type_symbol
_atom_site_fract_x
_atom_site_fract_y
_atom_site_fract_z
O1	O	-1.376627	0.158037	0.272971
O2	O	-1.074763	0.156253	0.259488
O3	O	-1.233290	0.136945	0.114197
O4	O	-1.218101	0.177345	0.418262
O5	O	-1.233284	-0.106655	0.114195
O6	O	-1.074758	-0.087347	0.259486
O7	O	-1.376622	-0.085562	0.272969
Cu8	Cu	-1.225689	-0.108697	0.266227
Cu9	Cu	-1.225696	0.179387	0.266230
O10	O	-1.218095	-0.066254	0.418260
C11	C	-1.036120	0.033849	0.254931
C12	C	-0.920985	0.032046	0.241346
N13	N	-1.225693	-0.311320	0.266226
C14	C	-0.680731	0.053725	0.404676
C15	C	-0.572550	0.052031	0.391916
C16	C	-0.596440	0.026955	0.203066
C17	C	-0.704621	0.028648	0.215826
C18	C	-0.746762	0.042036	0.316634
C19	C	-0.854945	0.043740	0.329394
C20	C	-0.878833	0.018654	0.140544
C21	C	-0.770652	0.016960	0.127784
C22	C	-1.366125	-0.328401	0.137617
C23	C	-1.436348	-0.413608	0.073317
C24	C	-1.436359	-0.566941	0.073317
C25	C	-1.366136	-0.635071	0.137623
C26	C	-1.295913	-0.549864	0.201923
C27	C	-1.295913	-0.396528	0.201918
C28	C	-1.155477	-0.532784	0.330524
C29	C	-1.155470	-0.379450	0.330531
C30	C	-1.085255	-0.600914	0.394830
C31	C	-1.015035	-0.515706	0.459137
C32	C	-1.015028	-0.362363	0.459135
C33	C	-1.085247	-0.294243	0.394832
C34	C	-0.415265	0.036843	0.277526
C35	C	-0.530400	0.038649	0.291114
C36	C	-1.232436	0.009941	0.075006
C37	C	-1.229887	-0.005565	-0.041767
N38	N	-1.225701	0.382009	0.266224
C39	C	-1.225085	0.230900	-0.261184
C40	C	-1.222691	0.216338	-0.370902
C41	C	-1.222696	-0.049250	-0.370924
C42	C	-1.225091	-0.034687	-0.261206
C43	C	-1.226287	0.105392	-0.206339
C44	C	-1.228689	0.119953	-0.096619
C45	C	-1.228687	-0.145634	-0.096643
C46	C	-1.226292	-0.160196	-0.206361
C47	C	-1.218949	0.060753	0.457451
C48	C	-1.221498	0.076268	0.574224
H49	H	-0.889254	0.054639	0.411477
H50	H	-0.932608	0.009146	0.068854
F51	F	-1.225011	-0.309270	-0.264765
H52	H	-1.229669	-0.247832	-0.051977
F53	F	-1.511093	-0.657626	0.004876
H54	H	-1.221709	0.318541	-0.415552
F55	F	-1.085261	-0.764106	0.394825
H56	H	-1.085252	-0.169391	0.394828
F57	F	-0.940302	-0.588222	0.527562
H58	H	-1.366133	-0.203548	0.137620
F59	F	-0.725583	0.067991	0.511962
F60	F	-0.725791	0.002708	0.020502
F61	F	-1.511078	-0.341093	0.004877
F62	F	-0.940280	-0.271692	0.527569
F63	F	-1.366138	-0.798264	0.137608
H64	H	-0.518790	0.061545	0.463609
H65	H	-1.229666	0.234013	-0.051948
H66	H	-0.562109	0.015934	0.120992
H67	H	-1.226068	0.344959	-0.216511
H68	H	-1.221714	-0.163296	-0.415615
