data_functionalizedCrystal
_audit_creation_method	'MofGen! by Chris Wilmer'
_symmetry_space_group_name_H-M	'P1'
_symmetry_Int_Tables_number	1
_symmetry_cell_setting	triclinic
loop_
_symmetry_equiv_pos_as_xyz
  x,y,z
_cell_length_a	19.805399
_cell_length_b	19.805407
_cell_length_c	19.805405
_cell_angle_alpha	90.026410
_cell_angle_beta	90.029301
_cell_angle_gamma	90.019573
loop_
_atom_site_label
_atom_site_type_symbol
_atom_site_fract_x
_atom_site_fract_y
_atom_site_fract_z
Zn1	Zn	-0.382712	-1.034736	0.269479
Zn2	Zn	-0.132712	-0.784736	0.519479
Zn3	Zn	0.117288	-0.534736	0.769479
Zn4	Zn	0.367288	-0.284736	1.019479
Zn5	Zn	-0.269520	-1.034651	0.382667
Zn6	Zn	-0.019520	-0.784651	0.632667
Zn7	Zn	0.230480	-0.534651	0.882667
Zn8	Zn	0.480480	-0.284651	1.132667
Zn9	Zn	-0.269536	-0.921550	0.269498
Zn10	Zn	-0.019536	-0.671550	0.519498
Zn11	Zn	0.230464	-0.421550	0.769498
Zn12	Zn	0.480464	-0.171550	1.019498
Zn13	Zn	-0.382667	-0.921514	0.382631
Zn14	Zn	-0.132667	-0.671514	0.632631
Zn15	Zn	0.117333	-0.421514	0.882631
Zn16	Zn	0.367333	-0.171514	1.132631
O17	O	-0.326109	-0.978113	0.326069
O18	O	-0.076109	-0.728113	0.576069
O19	O	0.173891	-0.478113	0.826069
O20	O	0.423891	-0.228113	1.076069
O21	O	-0.367708	-1.129441	0.284501
O22	O	-0.117708	-0.879441	0.534501
O23	O	0.132292	-0.629441	0.784501
O24	O	0.382292	-0.379441	1.034501
O25	O	-0.174805	-1.019627	0.367678
O26	O	0.075195	-0.769627	0.617678
O27	O	0.325195	-0.519627	0.867678
O28	O	0.575195	-0.269627	1.117678
O29	O	-0.284575	-0.936616	0.174778
O30	O	-0.034575	-0.686616	0.424778
O31	O	0.215425	-0.436616	0.674778
O32	O	0.465425	-0.186616	0.924778
O33	O	-0.284547	-1.129378	0.367660
O34	O	-0.034547	-0.879378	0.617660
O35	O	0.215453	-0.629378	0.867660
O36	O	0.465453	-0.379378	1.117660
O37	O	-0.367724	-1.019772	0.174765
O38	O	-0.117724	-0.769772	0.424765
O39	O	0.132276	-0.519772	0.674765
O40	O	0.382276	-0.269772	0.924765
O41	O	-0.174817	-0.936533	0.284533
O42	O	0.075183	-0.686533	0.534533
O43	O	0.325183	-0.436533	0.784533
O44	O	0.575183	-0.186533	1.034533
O45	O	-0.284531	-0.826829	0.284498
O46	O	-0.034531	-0.576829	0.534498
O47	O	0.215469	-0.326829	0.784498
O48	O	0.465469	-0.076829	1.034498
O49	O	-0.477389	-0.936553	0.367598
O50	O	-0.227389	-0.686553	0.617598
O51	O	0.022611	-0.436553	0.867598
O52	O	0.272611	-0.186553	1.117598
O53	O	-0.367648	-0.826802	0.367617
O54	O	-0.117648	-0.576802	0.617617
O55	O	0.132352	-0.326802	0.867617
O56	O	0.382352	-0.076802	1.117617
O57	O	-0.477422	-1.019737	0.284466
O58	O	-0.227422	-0.769737	0.534466
O59	O	0.022578	-0.519737	0.784466
O60	O	0.272578	-0.269737	1.034466
O61	O	-0.284503	-1.019592	0.477379
O62	O	-0.034503	-0.769592	0.727379
O63	O	0.215497	-0.519592	0.977379
O64	O	0.465497	-0.269592	1.227379
O65	O	-0.367632	-0.936471	0.477353
O66	O	-0.117632	-0.686471	0.727353
O67	O	0.132368	-0.436471	0.977353
O68	O	0.382368	-0.186471	1.227353
C69	C	-0.326087	-0.802257	0.326056
C70	C	-0.076087	-0.552257	0.576056
C71	C	0.173913	-0.302257	0.826056
C72	C	0.423913	-0.052257	1.076056
C73	C	-0.326093	-0.727025	0.326067
C74	C	-0.076093	-0.477025	0.576067
C75	C	0.173907	-0.227025	0.826067
C76	C	0.423907	0.022975	1.076067
C77	C	-0.326076	-0.978036	0.501925
C78	C	-0.076076	-0.728036	0.751925
C79	C	0.173924	-0.478036	1.001925
C80	C	0.423924	-0.228036	1.251925
C81	C	-0.326084	-0.978066	0.577157
C82	C	-0.076084	-0.728066	0.827157
C83	C	0.173916	-0.478066	1.077157
C84	C	0.423916	-0.228066	1.327157
C85	C	-0.502651	-0.978151	0.326026
C86	C	-0.252651	-0.728151	0.576026
C87	C	-0.002651	-0.478151	0.826026
C88	C	0.247349	-0.228151	1.076026
C89	C	-0.577883	-0.978167	0.326008
C90	C	-0.327883	-0.728167	0.576008
C91	C	-0.077883	-0.478167	0.826008
C92	C	0.172117	-0.228167	1.076008
C93	C	-0.613246	-1.021481	0.282719
C94	C	-0.363246	-0.771481	0.532719
C95	C	-0.113246	-0.521481	0.782719
C96	C	0.136754	-0.271481	1.032719
C97	C	-0.683934	-1.021488	0.282699
C98	C	-0.433934	-0.771488	0.532699
C99	C	-0.183934	-0.521488	0.782699
C100	C	0.066066	-0.271488	1.032699
C101	C	-0.719259	-0.978184	0.325973
C102	C	-0.469259	-0.728184	0.575973
C103	C	-0.219259	-0.478184	0.825973
C104	C	0.030741	-0.228184	1.075973
C105	C	-0.683892	-0.934864	0.369264
C106	C	-0.433892	-0.684864	0.619264
C107	C	-0.183892	-0.434864	0.869264
C108	C	0.066108	-0.184864	1.119264
C109	C	-0.613204	-0.934854	0.369279
C110	C	-0.363204	-0.684854	0.619279
C111	C	-0.113204	-0.434854	0.869279
C112	C	0.136796	-0.184854	1.119279
C113	C	-0.968965	-0.934902	0.369201
C114	C	-0.718965	-0.684902	0.619201
C115	C	-0.468965	-0.434902	0.869201
C116	C	-0.218965	-0.184902	1.119201
C117	C	-1.039657	-0.934917	0.369183
C118	C	-0.789657	-0.684917	0.619183
C119	C	-0.539657	-0.434917	0.869183
C120	C	-0.289657	-0.184917	1.119183
C121	C	-1.039695	-1.021536	0.282620
C122	C	-0.789695	-0.771536	0.532620
C123	C	-0.539695	-0.521536	0.782620
C124	C	-0.289695	-0.271536	1.032620
C125	C	-0.969008	-1.021527	0.282636
C126	C	-0.719008	-0.771527	0.532636
C127	C	-0.469008	-0.521527	0.782636
C128	C	-0.219008	-0.271527	1.032636
C129	C	-0.933647	-0.978205	0.325924
C130	C	-0.683647	-0.728205	0.575924
C131	C	-0.433647	-0.478205	0.825924
C132	C	-0.183647	-0.228205	1.075924
C133	C	-0.856998	-0.978197	0.325944
C134	C	-0.606998	-0.728197	0.575944
C135	C	-0.356998	-0.478197	0.825944
C136	C	-0.106998	-0.228197	1.075944
C137	C	-0.795906	-0.978194	0.325957
C138	C	-0.545906	-0.728194	0.575957
C139	C	-0.295906	-0.478194	0.825957
C140	C	-0.045906	-0.228194	1.075957
C141	C	-0.150253	-0.978114	0.326062
C142	C	0.099747	-0.728114	0.576062
C143	C	0.349747	-0.478114	0.826062
C144	C	0.599747	-0.228114	1.076062
C145	C	-0.075021	-0.978229	0.325890
C146	C	0.174979	-0.728229	0.575890
C147	C	0.424979	-0.478229	0.825890
C148	C	0.674979	-0.228229	1.075890
C149	C	-0.326131	-1.154655	0.326082
C150	C	-0.076131	-0.904655	0.576082
C151	C	0.173869	-0.654655	0.826082
C152	C	0.423869	-0.404655	1.076082
C153	C	-0.326140	-1.229887	0.326088
C154	C	-0.076140	-0.979887	0.576088
C155	C	0.173860	-0.729887	0.826088
C156	C	0.423860	-0.479887	1.076088
C157	C	-0.369302	-0.691684	0.369412
C158	C	-0.119302	-0.441684	0.619412
C159	C	0.130698	-0.191684	0.869412
C160	C	0.380698	0.058316	1.119412
C161	C	-0.369312	-0.620996	0.369413
C162	C	-0.119312	-0.370996	0.619413
C163	C	0.130688	-0.120996	0.869413
C164	C	0.380688	0.129004	1.119413
C165	C	-0.326109	-0.585649	0.326072
C166	C	-0.076109	-0.335649	0.576072
C167	C	0.173891	-0.085649	0.826072
C168	C	0.423891	0.164351	1.076072
C169	C	-0.282898	-0.620994	0.282722
C170	C	-0.032898	-0.370994	0.532722
C171	C	0.217102	-0.120994	0.782722
C172	C	0.467102	0.129006	1.032722
C173	C	-0.282892	-0.691681	0.282718
C174	C	-0.032892	-0.441681	0.532718
C175	C	0.217108	-0.191681	0.782718
C176	C	0.467108	0.058319	1.032718
C177	C	-0.282920	-0.335921	0.282737
C178	C	-0.032920	-0.085921	0.532737
C179	C	0.217080	0.164079	0.782737
C180	C	0.467080	0.414079	1.032737
C181	C	-0.282928	-0.265229	0.282746
C182	C	-0.032928	-0.015229	0.532746
C183	C	0.217072	0.234771	0.782746
C184	C	0.467072	0.484771	1.032746
C185	C	-0.369340	-0.265235	0.369432
C186	C	-0.119340	-0.015235	0.619432
C187	C	0.130660	0.234765	0.869432
C188	C	0.380660	0.484765	1.119432
C189	C	-0.369334	-0.335922	0.369428
C190	C	-0.119334	-0.085922	0.619428
C191	C	0.130666	0.164078	0.869428
C192	C	0.380666	0.414078	1.119428
C193	C	-0.326126	-0.371262	0.326076
C194	C	-0.076126	-0.121262	0.576076
C195	C	0.173874	0.128738	0.826076
C196	C	0.423874	0.378738	1.076076
C197	C	-0.326117	-0.447910	0.326074
C198	C	-0.076117	-0.197910	0.576074
C199	C	0.173883	0.052090	0.826074
C200	C	0.423883	0.302090	1.076074
C201	C	-0.326114	-0.509002	0.326076
C202	C	-0.076114	-0.259002	0.576076
C203	C	0.173886	-0.009002	0.826076
C204	C	0.423886	0.240998	1.076076
C205	C	-0.326156	-0.978207	0.149526
C206	C	-0.076156	-0.728207	0.399526
C207	C	0.173844	-0.478207	0.649526
C208	C	0.423844	-0.228207	0.899526
C209	C	-0.326177	-0.978248	0.074294
C210	C	-0.076177	-0.728248	0.324294
C211	C	0.173823	-0.478248	0.574294
C212	C	0.423823	-0.228248	0.824294
C213	C	-0.282845	-1.021389	0.612492
C214	C	-0.032845	-0.771389	0.862492
C215	C	0.217155	-0.521389	1.112492
C216	C	0.467155	-0.271389	1.362492
C217	C	-0.282860	-1.021418	0.683181
C218	C	-0.032860	-0.771418	0.933181
C219	C	0.217140	-0.521418	1.183181
C220	C	0.467140	-0.271418	1.433181
C221	C	-0.326111	-0.978119	0.718532
C222	C	-0.076111	-0.728119	0.968532
C223	C	0.173889	-0.478119	1.218532
C224	C	0.423889	-0.228119	1.468532
C225	C	-0.369356	-0.934794	0.683192
C226	C	-0.119356	-0.684794	0.933192
C227	C	0.130644	-0.434794	1.183192
C228	C	0.380644	-0.184794	1.433192
C229	C	-0.369344	-0.934769	0.612505
C230	C	-0.119344	-0.684769	0.862505
C231	C	0.130656	-0.434769	1.112505
C232	C	0.380656	-0.184769	1.362505
C233	C	-0.369406	-0.934894	0.968265
C234	C	-0.119406	-0.684894	1.218265
C235	C	0.130594	-0.434894	1.468265
C236	C	0.380594	-0.184894	1.718265
C237	C	-0.369413	-0.934921	1.038957
C238	C	-0.119413	-0.684921	1.288957
C239	C	0.130587	-0.434921	1.538957
C240	C	0.380587	-0.184921	1.788957
C241	C	-0.282922	-1.021542	1.038941
C242	C	-0.032922	-0.771542	1.288941
C243	C	0.217078	-0.521542	1.538941
C244	C	0.467078	-0.271542	1.788941
C245	C	-0.282910	-1.021517	0.968254
C246	C	-0.032910	-0.771517	1.218254
C247	C	0.217090	-0.521517	1.468254
C248	C	0.467090	-0.271517	1.718254
C249	C	-0.326157	-0.978195	0.932920
C250	C	-0.076157	-0.728195	1.182920
C251	C	0.173843	-0.478195	1.432920
C252	C	0.423843	-0.228195	1.682920
C253	C	-0.326141	-0.978166	0.856271
C254	C	-0.076141	-0.728166	1.106271
C255	C	0.173859	-0.478166	1.356271
C256	C	0.423859	-0.228166	1.606271
C257	C	-0.326124	-0.978145	0.795179
C258	C	-0.076124	-0.728145	1.045179
C259	C	0.173876	-0.478145	1.295179
C260	C	0.423876	-0.228145	1.545179
H261	H	-0.584489	-1.056747	0.247482
H262	H	-0.334489	-0.806747	0.497482
H263	H	-0.084489	-0.556747	0.747482
H264	H	0.165511	-0.306747	0.997482
Br265	Br	-0.224271	-0.573025	0.223895
Br266	Br	0.025729	-0.323025	0.473895
Br267	Br	0.275729	-0.073025	0.723895
Br268	Br	0.525729	0.176975	0.973895
Br269	Br	-0.731924	-1.080307	0.223978
Br270	Br	-0.481924	-0.830307	0.473978
Br271	Br	-0.231924	-0.580307	0.723978
Br272	Br	0.018076	-0.330307	0.973978
Br273	Br	-0.224253	-0.739645	0.223886
Br274	Br	0.025747	-0.489645	0.473886
Br275	Br	0.275747	-0.239645	0.723886
Br276	Br	0.525747	0.010355	0.973886
Br277	Br	-0.921070	-1.080303	0.223909
Br278	Br	-0.671070	-0.830303	0.473909
Br279	Br	-0.421070	-0.580303	0.723909
Br280	Br	-0.171070	-0.330303	0.973909
H281	H	-1.068495	-1.056809	0.247370
H282	H	-0.818495	-0.806809	0.497370
H283	H	-0.568495	-0.556809	0.747370
H284	H	-0.318495	-0.306809	0.997370
Br285	Br	-0.224136	-1.080148	0.564522
Br286	Br	0.025864	-0.830148	0.814522
Br287	Br	0.275864	-0.580148	1.064522
Br288	Br	0.525864	-0.330148	1.314522
Br289	Br	-0.428098	-0.876100	0.920320
Br290	Br	-0.178098	-0.626100	1.170320
Br291	Br	0.071902	-0.376100	1.420320
Br292	Br	0.321902	-0.126100	1.670320
H293	H	-0.940183	-0.899637	0.404459
H294	H	-0.690183	-0.649637	0.654459
H295	H	-0.440183	-0.399637	0.904459
H296	H	-0.190183	-0.149637	1.154459
Br297	Br	-0.224208	-1.080280	0.920280
Br298	Br	0.025792	-0.830280	1.170280
Br299	Br	0.275792	-0.580280	1.420280
Br300	Br	0.525792	-0.330280	1.670280
Br301	Br	-0.427979	-0.217271	0.428270
Br302	Br	-0.177979	0.032729	0.678270
Br303	Br	0.072021	0.282729	0.928270
Br304	Br	0.322021	0.532729	1.178270
H305	H	-1.068417	-0.899650	0.404423
H306	H	-0.818417	-0.649650	0.654423
H307	H	-0.568417	-0.399650	0.904423
H308	H	-0.318417	-0.149650	1.154423
Br309	Br	-0.427933	-0.739648	0.428240
Br310	Br	-0.177933	-0.489648	0.678240
Br311	Br	0.072067	-0.239648	0.928240
Br312	Br	0.322067	0.010352	1.178240
Br313	Br	-0.731832	-0.876088	0.427989
Br314	Br	-0.481832	-0.626088	0.677989
Br315	Br	-0.231832	-0.376088	0.927989
Br316	Br	0.018168	-0.126088	1.177989
H317	H	-0.247733	-0.364686	0.247442
H318	H	0.002267	-0.114686	0.497442
H319	H	0.252267	0.135314	0.747442
H320	H	0.502267	0.385314	0.997442
H321	H	-0.584413	-0.899576	0.404523
H322	H	-0.334413	-0.649576	0.654523
H323	H	-0.084413	-0.399576	0.904523
H324	H	0.165587	-0.149576	1.154523
Br325	Br	-0.427956	-0.573036	0.428239
Br326	Br	-0.177956	-0.323036	0.678239
Br327	Br	0.072044	-0.073036	0.928239
Br328	Br	0.322044	0.176964	1.178239
Br329	Br	-0.224179	-1.080220	0.731134
Br330	Br	0.025821	-0.830220	0.981134
Br331	Br	0.275821	-0.580220	1.231134
Br332	Br	0.525821	-0.330220	1.481134
Br333	Br	-0.224231	-1.080340	1.086898
Br334	Br	0.025769	-0.830340	1.336898
Br335	Br	0.275769	-0.580340	1.586898
Br336	Br	0.525769	-0.330340	1.836898
Br337	Br	-0.427965	-0.383890	0.428254
Br338	Br	-0.177965	-0.133890	0.678254
Br339	Br	0.072035	0.116110	0.928254
Br340	Br	0.322035	0.366110	1.178254
H341	H	-0.247747	-0.236452	0.247448
H342	H	0.002253	0.013548	0.497448
H343	H	0.252253	0.263548	0.747448
H344	H	0.502253	0.513548	0.997448
Br345	Br	-0.428061	-0.876037	0.731168
Br346	Br	-0.178061	-0.626037	0.981168
Br347	Br	0.071939	-0.376037	1.231168
Br348	Br	0.321939	-0.126037	1.481168
H349	H	-0.404639	-0.899663	1.067739
H350	H	-0.154639	-0.649663	1.317739
H351	H	0.095361	-0.399663	1.567739
H352	H	0.345361	-0.149663	1.817739
H353	H	-0.404555	-0.899492	0.583735
H354	H	-0.154555	-0.649492	0.833735
H355	H	0.095445	-0.399492	1.083735
H356	H	0.345445	-0.149492	1.333735
