data_functionalizedCrystal
_audit_creation_method	'MofGen! by Chris Wilmer'
_symmetry_space_group_name_H-M	'P1'
_symmetry_Int_Tables_number	1
_symmetry_cell_setting	triclinic
loop_
_symmetry_equiv_pos_as_xyz
  x,y,z
_cell_length_a	10.654562
_cell_length_b	10.489711
_cell_length_c	9.730223
_cell_angle_alpha	90.002341
_cell_angle_beta	89.996961
_cell_angle_gamma	84.508556
loop_
_atom_site_label
_atom_site_type_symbol
_atom_site_fract_x
_atom_site_fract_y
_atom_site_fract_z
O1	O	1.667890	0.179236	-0.114368
O2	O	1.302420	0.196289	-0.114350
O3	O	1.493490	0.002158	-0.114363
O4	O	1.476819	0.373366	-0.114355
O5	O	1.493488	0.002163	0.114217
O6	O	1.302417	0.196294	0.114230
O7	O	1.667888	0.179241	0.114212
Zn8	Zn	1.485152	0.187768	0.150513
Zn9	Zn	1.485155	0.187762	-0.150651
O10	O	1.476817	0.373371	0.114225
C11	C	1.255620	0.195036	-0.000058
C12	C	1.116176	0.191279	-0.000051
C13	C	1.050644	0.189530	0.124537
C14	C	0.919620	0.186011	0.124514
C15	C	0.919673	0.185996	-0.124696
C16	C	1.050695	0.189506	-0.124672
C17	C	1.116125	0.191304	0.249158
C18	C	1.050592	0.189556	0.373756
C19	C	0.919569	0.186036	0.373733
C20	C	0.854078	0.184265	0.249112
C21	C	1.492238	-0.045371	-0.000077
C22	C	1.488495	-0.187001	-0.000088
C23	C	1.603399	-0.369437	-0.000080
C24	C	1.546001	-0.277266	0.112623
C25	C	1.545973	-0.277294	-0.112739
C26	C	1.424365	-0.347164	0.112735
C27	C	1.424353	-0.347202	-0.112728
C28	C	1.366868	-0.255058	0.000003
C29	C	1.714687	0.180494	-0.000083
C30	C	1.854131	0.184250	-0.000099
C31	C	1.478069	0.420900	-0.000064
C32	C	1.481813	0.562530	-0.000062
N33	N	1.485159	0.187772	0.356049
N34	N	1.485158	0.187748	-0.356187
C35	C	1.569787	0.101840	0.427970
C36	C	1.569784	0.101825	0.571853
C37	C	1.400521	0.273683	0.571882
C38	C	1.400519	0.273692	0.428002
C39	C	1.654428	0.015920	0.356017
C40	C	1.739064	-0.070017	0.427937
C41	C	1.739060	-0.070033	0.571820
C42	C	1.654421	0.015889	0.643783
H43	H	1.103925	0.190988	0.475218
Cl44	Cl	0.837189	0.183830	0.530367
Cl45	Cl	1.133086	0.191702	-0.281300
H46	H	1.331606	0.343664	0.369444
H47	H	1.222811	0.194173	0.249190
Cl48	Cl	1.294129	0.381696	0.662350
Cl49	Cl	1.345005	-0.394685	0.260014
H50	H	1.703334	-0.419171	0.000026
H51	H	1.597448	-0.246299	0.207901
Cl52	Cl	0.689365	0.179805	0.249088
Cl53	Cl	0.837342	0.183761	-0.281351
Cl54	Cl	1.654441	0.015940	0.175136
Cl55	Cl	1.212435	-0.178627	0.000092
Cl56	Cl	1.845447	-0.178075	0.662233
Cl57	Cl	1.344990	-0.395071	-0.259838
Cl58	Cl	1.654412	0.015853	0.824666
Cl59	Cl	1.625434	-0.229530	-0.259843
Cl60	Cl	1.845450	-0.178039	0.337474
