data_functionalizedCrystal
_audit_creation_method	'MofGen! by Chris Wilmer'
_symmetry_space_group_name_H-M	'P1'
_symmetry_Int_Tables_number	1
_symmetry_cell_setting	triclinic
loop_
_symmetry_equiv_pos_as_xyz
  x,y,z
_cell_length_a	10.723024
_cell_length_b	10.489741
_cell_length_c	9.198806
_cell_angle_alpha	89.997101
_cell_angle_beta	89.996352
_cell_angle_gamma	84.503522
loop_
_atom_site_label
_atom_site_type_symbol
_atom_site_fract_x
_atom_site_fract_y
_atom_site_fract_z
O1	O	1.657297	0.178906	-0.120882
O2	O	2.157297	0.678906	0.379118
O3	O	1.294155	0.196031	-0.120887
O4	O	1.794155	0.696031	0.379113
O5	O	1.483989	0.001865	-0.120876
O6	O	1.983989	0.501865	0.379124
O7	O	1.467463	0.373072	-0.120893
O8	O	1.967463	0.873072	0.379107
O9	O	1.483974	0.001865	0.120909
O10	O	1.983974	0.501865	0.620909
O11	O	1.294140	0.196030	0.120898
O12	O	1.794140	0.696030	0.620898
O13	O	1.657282	0.178906	0.120903
O14	O	2.157282	0.678906	0.620903
Cu15	Cu	1.475710	0.187468	0.142977
Cu16	Cu	1.975710	0.687468	0.642977
Cu17	Cu	1.475728	0.187469	-0.142962
Cu18	Cu	1.975728	0.687469	0.357038
O19	O	1.467448	0.373071	0.120892
O20	O	1.967448	0.873071	0.620892
C21	C	1.247647	0.194785	0.000005
C22	C	1.747647	0.694785	0.500005
C23	C	1.109091	0.191056	0.000003
C24	C	1.609091	0.691056	0.500003
C25	C	1.034175	0.299701	-0.000003
C26	C	1.534175	0.799701	0.499997
C27	C	0.890969	0.295850	-0.000005
C28	C	1.390969	0.795850	0.499995
C29	C	1.482734	-0.045666	0.000016
C30	C	1.982734	0.454334	0.500016
C31	C	1.478999	-0.187293	0.000013
C32	C	1.978999	0.312707	0.500013
C33	C	1.358213	-0.255356	0.000001
C34	C	1.858213	0.244644	0.500001
C35	C	1.415264	-0.347515	0.119214
C36	C	1.915264	0.152485	0.619214
C37	C	1.415308	-0.347489	-0.119167
C38	C	1.915308	0.152511	0.380833
C39	C	1.536100	-0.277587	0.119325
C40	C	2.036100	0.222413	0.619325
C41	C	1.536126	-0.277551	-0.119163
C42	C	2.036126	0.222449	0.380837
C43	C	1.593265	-0.369683	0.000079
C44	C	2.093265	0.130317	0.500079
C45	C	1.703790	0.180152	0.000008
C46	C	2.203790	0.680152	0.500008
C47	C	1.842347	0.183881	-0.000000
C48	C	2.342347	0.683881	0.500000
C49	C	1.468704	0.420602	-0.000003
C50	C	1.968704	0.920602	0.499997
C51	C	1.472438	0.562229	-0.000010
C52	C	1.972438	1.062229	0.499990
N53	N	1.475706	0.187467	0.344091
N54	N	1.975706	0.687467	0.844091
N55	N	1.475741	0.187460	-0.344075
N56	N	1.975741	0.687460	0.155925
C57	C	1.555412	0.105583	0.416293
C58	C	2.055412	0.605583	0.916293
C59	C	1.555431	0.105578	0.583705
C60	C	2.055431	0.605578	1.083705
H61	H	1.076055	0.395567	0.000001
H62	H	1.576055	0.895567	0.500001
C63	C	1.647622	0.010867	0.667584
C64	C	2.147622	0.510867	1.167584
N65	N	1.717061	-0.060475	0.730766
N66	N	2.217061	0.439525	1.230766
H67	H	1.407503	0.257572	0.593844
H68	H	1.907503	0.757572	1.093844
H69	H	0.906715	0.090867	-0.000004
H70	H	1.406715	0.590867	0.499996
H71	H	1.587197	-0.246539	-0.219954
H72	H	2.087197	0.253461	0.280046
C73	C	1.052518	0.061540	0.000009
C74	C	1.552518	0.561540	0.500009
N75	N	1.009910	-0.036014	0.000012
N76	N	1.509910	0.463986	0.500012
H77	H	0.826593	0.388858	-0.000016
H78	H	1.326593	0.888858	0.499984
H79	H	1.364191	-0.378420	-0.219962
H80	H	1.864191	0.121580	0.280038
C81	C	1.224056	-0.188182	0.000163
C82	C	1.724056	0.311818	0.500163
N83	N	1.123012	-0.137583	0.000295
N84	N	1.623012	0.362417	0.500295
C85	C	1.346211	-0.389373	0.255366
C86	C	1.846211	0.110627	0.755366
N87	N	1.294193	-0.420898	0.357911
N88	N	1.794193	0.079102	0.857911
H89	H	1.587156	-0.246787	0.220223
H90	H	2.087156	0.253213	0.720223
C91	C	1.383530	0.282169	0.428013
C92	C	1.883530	0.782169	0.928013
N93	N	1.314100	0.353501	0.491221
N94	N	1.814100	0.853501	0.991221
H95	H	1.692663	-0.419171	0.000147
H96	H	2.192663	0.080829	0.500147
H97	H	1.623633	0.035476	0.354171
H98	H	2.123633	0.535476	0.854171
