data_functionalizedCrystal
_audit_creation_method	'MofGen! by Chris Wilmer'
_symmetry_space_group_name_H-M	'P1'
_symmetry_Int_Tables_number	1
_symmetry_cell_setting	triclinic
loop_
_symmetry_equiv_pos_as_xyz
  x,y,z
_cell_length_a	10.654544
_cell_length_b	16.992695
_cell_length_c	16.053789
_cell_angle_alpha	92.721521
_cell_angle_beta	92.866924
_cell_angle_gamma	87.576537
loop_
_atom_site_label
_atom_site_type_symbol
_atom_site_fract_x
_atom_site_fract_y
_atom_site_fract_z
O1	O	1.682388	0.113166	0.069452
O2	O	1.317816	0.123664	0.069449
O3	O	1.498640	0.004264	0.069444
O4	O	1.501564	0.232566	0.069457
O5	O	1.488580	-0.001691	-0.069416
O6	O	1.307756	0.117709	-0.069411
O7	O	1.672327	0.107211	-0.069408
Zn8	Zn	1.488444	0.111514	-0.091456
Zn9	Zn	1.501699	0.119361	0.091498
O10	O	1.491504	0.226611	-0.069403
C11	C	1.489850	-0.027946	0.000014
C12	C	1.478630	-0.115052	0.000014
C13	C	1.265921	0.119916	0.000019
C14	C	1.126279	0.117610	0.000018
C15	C	1.586881	-0.164703	0.000014
C16	C	1.576333	-0.246547	0.000022
C17	C	1.457531	-0.278737	0.000024
C18	C	1.349273	-0.229079	0.000027
C19	C	1.359823	-0.147237	0.000025
C20	C	1.413805	-0.522572	0.000035
C21	C	1.403263	-0.604421	0.000035
C22	C	1.630324	-0.621883	0.000032
C23	C	1.640863	-0.540039	0.000025
C24	C	1.532605	-0.490388	0.000032
N25	N	1.446746	-0.362395	0.000029
N26	N	1.543392	-0.406732	0.000032
C27	C	1.115286	0.111126	-0.151372
C28	C	1.044187	0.106803	-0.227064
C29	C	0.912982	0.104635	-0.227060
C30	C	0.852873	0.106788	-0.151356
C31	C	0.923972	0.111111	-0.075664
C32	C	1.055180	0.113281	-0.075676
C33	C	0.934965	0.117589	0.075723
C34	C	1.066170	0.119762	0.075721
C35	C	0.874856	0.119741	0.151427
C36	C	0.945955	0.124070	0.227121
C37	C	1.077168	0.126239	0.227114
C38	C	1.137269	0.124085	0.151413
C39	C	1.724222	0.110959	0.000024
C40	C	1.863865	0.113266	0.000031
C41	C	1.500294	0.258821	0.000029
C42	C	1.511514	0.345927	0.000034
N43	N	1.479407	0.106159	-0.216317
C44	C	1.557228	0.152312	-0.260004
C45	C	1.550923	0.148561	-0.347412
C46	C	1.466790	0.098661	-0.391130
C47	C	1.388967	0.052503	-0.347437
C48	C	1.395279	0.056250	-0.260031
C49	C	1.439234	0.082299	-0.652542
C50	C	1.432925	0.078557	-0.739954
C51	C	1.594883	0.174614	-0.739923
C52	C	1.601183	0.178361	-0.652515
C53	C	1.523364	0.132200	-0.608830
N54	N	1.460340	0.094827	-0.480475
N55	N	1.529821	0.136030	-0.519487
N56	N	1.510745	0.124710	0.216359
H57	H	1.683621	-0.138501	0.000008
O58	O	1.287868	-0.635733	-0.000108
C59	C	1.269766	-0.685651	-0.072015
H60	H	1.333721	-0.668099	-0.122283
H61	H	1.293453	-0.749327	-0.055760
C62	C	1.053054	-0.699433	-0.042878
C63	C	1.131597	-0.677871	-0.104621
H64	H	0.967824	-0.694637	-0.062990
H65	H	1.065249	-0.665805	0.005569
H66	H	1.072808	-0.752495	-0.029338
H67	H	1.111852	-0.624807	-0.118153
H68	H	1.119394	-0.711490	-0.153072
H69	H	1.364408	0.037922	-0.775548
H70	H	1.244102	0.125856	0.151401
H71	H	1.325653	-0.482156	0.000041
H72	H	1.625730	0.192951	-0.224415
H73	H	1.375869	0.044711	-0.616984
H74	H	1.664482	-0.286971	0.000020
O75	O	1.682848	0.226942	-0.610147
C76	C	1.654451	0.305457	-0.631493
H77	H	1.601468	0.305816	-0.694959
H78	H	1.593496	0.336073	-0.582305
C79	C	1.842417	0.348942	-0.557573
C80	C	1.777351	0.349382	-0.635526
H81	H	1.918226	0.376038	-0.560057
H82	H	1.861547	0.296045	-0.543189
H83	H	1.791608	0.374453	-0.516591
H84	H	1.828154	0.323862	-0.676504
H85	H	1.758232	0.402276	-0.649917
H86	H	1.614294	0.186142	-0.382978
O87	O	1.102773	0.104756	-0.300524
C88	C	1.233827	0.107578	-0.284303
H89	H	1.253759	0.135450	-0.219245
H90	H	1.277671	0.045212	-0.287905
C91	C	1.266348	0.123025	-0.429503
C92	C	1.290830	0.157264	-0.349601
H93	H	1.301513	0.153670	-0.469783
H94	H	1.178056	0.121121	-0.440433
H95	H	1.302887	0.071054	-0.432493
H96	H	1.254278	0.209229	-0.346609
H97	H	1.379118	0.159178	-0.338672
H98	H	0.768022	0.117970	0.151424
H99	H	1.658240	0.212195	-0.775501
H100	H	0.855092	0.101121	-0.288695
O101	O	1.307270	0.004096	-0.390030
C102	C	1.318336	0.010708	-0.476546
H103	H	1.359210	0.069843	-0.488461
H104	H	1.383200	-0.039123	-0.501389
C105	C	1.137387	-0.067264	-0.506762
C106	C	1.187580	0.005369	-0.521397
H107	H	1.056733	-0.070561	-0.534430
H108	H	1.129934	-0.071722	-0.448475
H109	H	1.191452	-0.108782	-0.527465
H110	H	1.133524	0.046885	-0.500685
H111	H	1.195021	0.009834	-0.579682
O112	O	1.756227	-0.508736	-0.000119
C113	C	1.763895	-0.464990	-0.072026
H114	H	1.692655	-0.486861	-0.122292
H115	H	1.742556	-0.399920	-0.055767
C116	C	1.984829	-0.448694	-0.042894
C117	C	1.897338	-0.475562	-0.104635
H118	H	2.067143	-0.455212	-0.063008
H119	H	1.979663	-0.478164	0.005553
H120	H	1.967030	-0.394471	-0.029351
H121	H	1.915127	-0.529786	-0.118169
H122	H	1.902510	-0.446101	-0.153085
H123	H	1.331909	0.018668	-0.224463
O124	O	0.887492	0.126298	0.300629
C125	C	0.804475	0.193048	0.305157
H126	H	0.835712	0.239270	0.262208
H127	H	0.705243	0.175193	0.284818
C128	C	0.767279	0.170870	0.448345
C129	C	0.805651	0.227644	0.395600
H130	H	0.767998	0.192210	0.504135
H131	H	0.823205	0.125898	0.445294
H132	H	0.684588	0.155996	0.431385
H133	H	0.888345	0.242510	0.412553
H134	H	0.749738	0.272620	0.398656
H135	H	1.135050	0.129757	0.288752
H136	H	1.252543	-0.255295	0.000033
O137	O	1.735355	-0.670225	0.000069
C138	C	1.700574	-0.749366	0.000051
H139	H	1.603469	-0.751911	0.026337
H140	H	1.698140	-0.775868	-0.066566
C141	C	1.916310	-0.793450	0.022225
C142	C	1.797048	-0.796577	0.054518
H143	H	1.975822	-0.822574	0.055819
H144	H	1.939744	-0.740133	0.022235
H145	H	1.914264	-0.815534	-0.033288
H146	H	1.799093	-0.774485	0.110026
H147	H	1.773617	-0.849892	0.054519
H148	H	1.222119	0.112902	-0.151382
O149	O	1.254538	-0.099116	-0.000012
C150	C	1.147419	-0.145075	0.000011
H151	H	1.171272	-0.207104	-0.026281
H152	H	1.116223	-0.148235	0.066630
C153	C	1.011030	-0.031034	-0.022147
C154	C	1.040324	-0.107217	-0.054446
H155	H	0.944966	-0.007680	-0.055735
H156	H	1.083197	-0.000069	-0.022159
H157	H	0.985041	-0.033678	0.033369
H158	H	1.066327	-0.104571	-0.109956
H159	H	0.968158	-0.138180	-0.054444
H160	H	0.746039	0.105013	-0.151360
