data_functionalizedCrystal
_audit_creation_method	'MofGen! by Chris Wilmer'
_symmetry_space_group_name_H-M	'P1'
_symmetry_Int_Tables_number	1
_symmetry_cell_setting	triclinic
loop_
_symmetry_equiv_pos_as_xyz
  x,y,z
_cell_length_a	15.995350
_cell_length_b	11.792254
_cell_length_c	10.268362
_cell_angle_alpha	89.995475
_cell_angle_beta	89.996947
_cell_angle_gamma	83.845486
loop_
_atom_site_label
_atom_site_type_symbol
_atom_site_fract_x
_atom_site_fract_y
_atom_site_fract_z
O1	O	0.114814	1.505943	-0.108292
O2	O	0.126630	1.175505	-0.108294
O3	O	-0.001124	1.349756	-0.108292
O4	O	0.242568	1.331691	-0.108295
O5	O	-0.001130	1.349741	0.108309
O6	O	0.126625	1.175490	0.108306
O7	O	0.114809	1.505927	0.108308
Cu8	Cu	0.120716	1.340707	0.128085
Cu9	Cu	0.120723	1.340725	-0.128071
O10	O	0.242563	1.331676	0.108306
C11	C	0.125883	1.133213	0.000006
C12	C	0.123655	1.007218	0.000005
C13	C	-0.032325	1.349002	0.000006
C14	C	-0.125286	1.346763	-0.000002
C15	C	0.121845	0.904897	-0.000001
C16	C	0.119581	0.776529	-0.000002
C17	C	-0.463070	1.338722	0.000003
C18	C	-0.416203	1.214623	-0.000484
C19	C	-0.319503	1.216863	0.000004
C20	C	-0.295491	1.342710	-0.000000
C21	C	-0.336292	1.403912	0.123688
C22	C	-0.432942	1.400794	0.123791
C23	C	-0.433282	1.403375	-0.122524
C24	C	-0.336337	1.403346	-0.124159
C25	C	-0.200783	1.344971	0.000003
C26	C	-0.557778	1.336465	0.000009
C27	C	0.273764	1.332430	0.000005
C28	C	0.366725	1.334669	0.000004
C29	C	0.115556	1.548220	0.000006
C30	C	0.117784	1.674214	-0.000002
N31	N	0.120711	1.340703	0.308251
N32	N	0.120721	1.340738	-0.308236
C33	C	0.120721	1.340719	0.573921
C34	C	0.120718	1.340707	0.426083
H35	H	-0.434960	1.165028	-0.089182
C36	C	-0.299810	1.342964	-0.247817
C37	C	-0.253128	1.409432	-0.348753
C38	C	-0.216633	1.349037	-0.472426
C39	C	-0.226819	1.222174	-0.495164
C40	C	-0.273503	1.155699	-0.394225
C41	C	-0.309998	1.216094	-0.270552
H42	H	-0.245586	1.503350	-0.331924
H43	H	-0.182075	1.398247	-0.547147
H44	H	-0.199803	1.177467	-0.586714
H45	H	-0.281045	1.061781	-0.411054
H46	H	-0.344556	1.166884	-0.195831
C47	C	-0.475955	1.523871	0.131390
C48	C	-0.534472	1.560507	0.246430
C49	C	-0.577482	1.683579	0.254038
C50	C	-0.561976	1.770015	0.146606
C51	C	-0.503456	1.733381	0.031558
C52	C	-0.460446	1.610309	0.023950
H53	H	-0.545953	1.496520	0.325965
H54	H	-0.620802	1.710697	0.339205
H55	H	-0.593815	1.861121	0.152238
H56	H	-0.491975	1.797369	-0.047977
H57	H	-0.417126	1.583191	-0.061217
C58	C	-0.282154	1.151430	0.119994
C59	C	-0.340331	1.096979	0.215673
C60	C	-0.302982	1.031547	0.335670
C61	C	-0.207457	1.020565	0.359988
C62	C	-0.149275	1.075017	0.264307
C63	C	-0.186623	1.140450	0.144309
H64	H	-0.411049	1.105107	0.197673
H65	H	-0.346053	0.991238	0.406500
H66	H	-0.179810	0.972128	0.448818
H67	H	-0.078556	1.066889	0.282306
H68	H	-0.143552	1.180759	0.073479
H69	H	-0.451450	1.356153	0.216253
H70	H	-0.320555	1.495120	-0.131630
C71	C	-0.461271	1.348571	-0.249176
C72	C	-0.395106	1.299586	-0.348908
C73	C	-0.423094	1.244767	-0.475550
C74	C	-0.517247	1.238933	-0.502459
C75	C	-0.583417	1.287919	-0.402724
C76	C	-0.555429	1.342739	-0.276082
H77	H	-0.325404	1.303903	-0.328991
H78	H	-0.374110	1.208504	-0.549381
H79	H	-0.537965	1.198352	-0.596207
H80	H	-0.653120	1.283602	-0.422641
H81	H	-0.604414	1.379002	-0.202251
C82	C	-0.475618	1.526984	-0.123657
C83	C	-0.536915	1.569103	-0.014002
C84	C	-0.579251	1.692707	-0.015119
C85	C	-0.560290	1.774193	-0.125891
C86	C	-0.498990	1.732076	-0.235555
C87	C	-0.456654	1.608471	-0.234438
H88	H	-0.550953	1.508780	0.068006
H89	H	-0.624630	1.723885	0.066062
H90	H	-0.591630	1.865693	-0.126718
H91	H	-0.484952	1.792398	-0.317562
H92	H	-0.411275	1.577294	-0.315619
H93	H	-0.436025	1.165236	0.087720
H94	H	-0.321743	1.496368	0.128284
H95	H	-0.291299	1.168754	-0.088660
H96	H	-0.308107	1.361392	0.215735
