data_functionalizedCrystal
_audit_creation_method	'MofGen! by Chris Wilmer'
_symmetry_space_group_name_H-M	'P1'
_symmetry_Int_Tables_number	1
_symmetry_cell_setting	triclinic
loop_
_symmetry_equiv_pos_as_xyz
  x,y,z
_cell_length_a	17.019383
_cell_length_b	17.038272
_cell_length_c	13.448316
_cell_angle_alpha	89.993314
_cell_angle_beta	86.117264
_cell_angle_gamma	87.246883
loop_
_atom_site_label
_atom_site_type_symbol
_atom_site_fract_x
_atom_site_fract_y
_atom_site_fract_z
O1	O	1.053359	0.099663	-0.172804
O2	O	0.824548	0.112351	-0.153232
O3	O	0.937594	-0.007808	-0.162894
O4	O	0.940314	0.219821	-0.163142
O5	O	0.937578	-0.007815	0.002491
O6	O	0.824532	0.112343	0.012153
O7	O	1.053344	0.099655	-0.007419
Cu8	Cu	0.938937	0.105999	0.017468
Cu9	Cu	0.938955	0.106007	-0.178119
O10	O	0.940298	0.219814	0.002243
C11	C	0.795119	0.111864	-0.068023
C12	C	0.707452	0.110414	-0.060524
C13	C	0.666268	0.109739	-0.147145
C14	C	0.583895	0.108390	-0.140084
C15	C	0.542708	0.107710	-0.046402
C16	C	0.583899	0.108388	0.040226
C17	C	0.666270	0.109742	0.033164
C18	C	0.294001	0.103624	-0.020570
C19	C	0.211624	0.102267	-0.013515
C20	C	0.211626	0.102271	-0.193826
C21	C	0.293999	0.103621	-0.200879
C22	C	0.335182	0.104302	-0.114252
C23	C	0.458510	0.106328	-0.039182
C24	C	0.419378	0.105690	-0.121472
C25	C	0.935112	-0.036938	-0.079990
C26	C	0.927732	-0.123725	-0.079359
C27	C	0.995492	-0.173893	-0.085154
C28	C	0.988552	-0.255438	-0.084570
C29	C	0.913853	-0.286813	-0.078183
C30	C	0.846088	-0.236638	-0.072391
C31	C	0.853028	-0.155095	-0.072982
C32	C	0.889335	-0.532551	-0.076100
C33	C	0.882400	-0.614101	-0.075506
C34	C	1.024865	-0.632895	-0.087687
C35	C	1.031799	-0.551350	-0.088271
C36	C	0.964034	-0.501182	-0.082484
C37	C	0.906758	-0.370165	-0.077583
C38	C	0.971129	-0.417832	-0.083092
C39	C	1.082773	0.100142	-0.092630
C40	C	1.170439	0.101592	-0.100136
C41	C	0.942780	0.248944	-0.080663
C42	C	0.950160	0.335731	-0.081301
N43	N	0.938929	0.105992	0.155033
N44	N	0.938968	0.106008	-0.315685
C45	C	0.989004	0.052808	0.202794
C46	C	0.989009	0.052807	0.306896
C47	C	0.938943	0.105995	0.363236
C48	C	0.888862	0.159182	0.315469
C49	C	0.888854	0.159178	0.211368
C50	C	0.888884	0.159187	0.532447
C51	C	0.888894	0.159192	0.636555
C52	C	0.989040	0.052816	0.627975
C53	C	0.989031	0.052812	0.523875
C54	C	0.938952	0.106000	0.476114
H55	H	0.550358	0.107839	0.116504
Br56	Br	1.116826	-0.700983	-0.095540
H57	H	0.550366	0.107840	-0.210621
H58	H	0.848077	0.202485	0.172483
Br59	Br	0.820914	0.231369	0.467633
Br60	Br	0.781015	-0.656680	-0.066828
H61	H	0.452915	0.106248	-0.197748
H62	H	0.845937	-0.395719	-0.072381
H63	H	1.056320	-0.148354	-0.090348
H64	H	1.029816	0.009509	0.666868
Br65	Br	1.133181	-0.508775	-0.096971
Br66	Br	0.402608	0.105407	0.087956
Br67	Br	1.056962	-0.019375	0.126342
Br68	Br	0.797368	-0.464476	-0.068252
Br69	Br	1.056965	-0.019375	0.371718
Br70	Br	0.722156	0.110654	-0.274292
Br71	Br	0.820907	0.231362	0.391927
H72	H	0.848124	0.202502	0.682422
H73	H	0.327522	0.104174	0.049969
H74	H	0.785266	-0.262190	-0.067198
H75	H	1.043730	-0.296283	-0.089286
H76	H	0.327528	0.104169	-0.277166
H77	H	0.178086	0.101718	-0.264353
H78	H	0.178091	0.101735	0.062777
Br79	Br	0.722164	0.110666	0.150726
Br80	Br	0.761065	-0.087007	-0.065125
H81	H	1.031950	-0.392283	-0.088313
H82	H	1.029803	0.009507	0.478002
