data_functionalizedCrystal
_audit_creation_method	'MofGen! by Chris Wilmer'
_symmetry_space_group_name_H-M	'P1'
_symmetry_Int_Tables_number	1
_symmetry_cell_setting	triclinic
loop_
_symmetry_equiv_pos_as_xyz
  x,y,z
_cell_length_a	10.489741
_cell_length_b	16.992695
_cell_length_c	8.965430
_cell_angle_alpha	89.991796
_cell_angle_beta	90.000479
_cell_angle_gamma	92.396302
loop_
_atom_site_label
_atom_site_type_symbol
_atom_site_fract_x
_atom_site_fract_y
_atom_site_fract_z
O1	O	1.703681	-0.110692	0.123948
O2	O	1.333389	-0.121082	0.123972
O3	O	1.517050	-0.001736	0.123948
O4	O	1.520019	-0.230038	0.123972
O5	O	1.517038	-0.001725	-0.124130
O6	O	1.333377	-0.121071	-0.124107
O7	O	1.703669	-0.110681	-0.124130
Cu8	Cu	1.518522	-0.115875	-0.146770
Cu9	Cu	1.518536	-0.115888	0.146612
O10	O	1.520007	-0.230027	-0.124107
C11	C	1.285783	-0.120292	-0.000065
C12	C	1.143949	-0.117944	-0.000056
C13	C	1.513225	0.027504	-0.000091
C14	C	1.501830	0.114612	-0.000090
N15	N	1.518521	-0.115865	-0.353119
C16	C	1.069203	-0.042007	-0.000078
C17	C	0.980203	-0.077885	0.122238
C18	C	0.980226	-0.077892	-0.122348
C19	C	1.056817	-0.153852	0.122361
C20	C	1.056850	-0.153849	-0.122335
C21	C	0.967882	-0.189781	0.000011
C22	C	1.751275	-0.111471	-0.000091
C23	C	1.893108	-0.113819	-0.000089
C24	C	1.523832	-0.259267	-0.000065
C25	C	1.535228	-0.346375	-0.000056
C26	C	1.611779	0.164232	-0.000098
C27	C	1.601064	0.246079	-0.000083
C28	C	1.480399	0.278305	-0.000071
C29	C	1.370442	0.228679	-0.000058
C30	C	1.381158	0.146833	-0.000062
C31	C	1.435986	0.522153	-0.000047
C32	C	1.425278	0.604005	-0.000048
C33	C	1.655902	0.621400	-0.000070
C34	C	1.666608	0.539552	-0.000083
C35	C	1.556650	0.489933	-0.000063
N36	N	1.469444	0.361966	-0.000060
N37	N	1.567606	0.406274	-0.000062
C38	C	1.602718	-0.060236	-0.549800
C39	C	1.635712	-0.131057	-0.450318
C40	C	1.485584	-0.045050	-0.450394
C41	C	1.551602	-0.186749	-0.549746
C42	C	1.401418	-0.100695	-0.549831
C43	C	1.434370	-0.171567	-0.450393
N44	N	1.518546	-0.115892	0.352961
H45	H	1.113462	0.020417	0.000069
H46	H	1.690597	0.286477	-0.000093
Cl47	Cl	1.108725	-0.203427	0.282201
Cl48	Cl	1.788616	-0.150881	-0.382789
Cl49	Cl	1.712713	0.012329	-0.617197
H50	H	0.946398	-0.045759	0.225644
Cl51	Cl	1.442546	0.047429	-0.383024
Cl52	Cl	1.109094	-0.203408	-0.281993
Cl53	Cl	1.242929	0.084454	-0.000045
H54	H	0.923894	-0.252272	0.000084
Cl55	Cl	1.763480	0.123728	-0.000129
Cl56	Cl	0.928077	-0.028260	-0.282007
H57	H	1.579578	-0.246662	-0.593205
H58	H	1.346450	0.481763	-0.000031
Cl59	Cl	1.818307	0.499046	-0.000051
H60	H	1.363179	-0.218673	-0.407021
Cl61	Cl	1.794125	0.683782	-0.000092
H62	H	1.327013	0.630240	-0.000061
H63	H	1.272193	0.254924	-0.000038
Cl64	Cl	1.248546	-0.080824	-0.617374
