data_functionalizedCrystal
_audit_creation_method	'MofGen! by Chris Wilmer'
_symmetry_space_group_name_H-M	'P1'
_symmetry_Int_Tables_number	1
_symmetry_cell_setting	triclinic
loop_
_symmetry_equiv_pos_as_xyz
  x,y,z
_cell_length_a	18.101398
_cell_length_b	18.101397
_cell_length_c	13.897441
_cell_angle_alpha	89.968764
_cell_angle_beta	89.989505
_cell_angle_gamma	90.015323
loop_
_atom_site_label
_atom_site_type_symbol
_atom_site_fract_x
_atom_site_fract_y
_atom_site_fract_z
Zn1	Zn	1.132185	-0.294901	-0.545162
Zn2	Zn	1.132104	-0.418754	-0.383859
Zn3	Zn	1.008342	-0.294922	-0.383903
Zn4	Zn	1.008319	-0.418696	-0.545134
O5	O	1.070237	-0.356818	-0.464514
O6	O	1.235807	-0.311346	-0.523758
O7	O	1.115662	-0.402361	-0.248883
O8	O	1.024814	-0.191286	-0.405324
O9	O	1.235747	-0.402341	-0.405249
O10	O	1.115800	-0.191271	-0.523801
O11	O	1.024735	-0.311382	-0.248915
O12	O	0.904706	-0.311325	-0.405298
O13	O	1.024774	-0.402241	-0.680119
O14	O	0.904689	-0.402261	-0.523753
O15	O	1.115778	-0.311289	-0.680140
O16	O	1.115640	-0.522380	-0.405222
O17	O	1.024696	-0.522336	-0.523710
C18	C	0.877827	-0.356789	-0.464528
C19	C	0.795513	-0.356794	-0.464556
C20	C	0.496422	-0.356838	-0.464516
C21	C	0.527761	-0.414329	-0.538677
C22	C	0.613379	-0.414149	-0.538982
C23	C	0.644804	-0.356817	-0.464536
C24	C	0.613735	-0.278814	-0.492315
C25	C	0.528090	-0.279159	-0.492843
C26	C	0.527972	-0.376663	-0.362397
C27	C	0.613622	-0.378374	-0.362942
C28	C	0.728664	-0.356800	-0.464546
C29	C	0.412562	-0.356849	-0.464509
C30	C	1.070176	-0.549229	-0.464479
C31	C	1.070218	-0.631543	-0.464497
C32	C	1.070263	-0.782251	-0.464530
C33	C	1.127539	-0.813601	-0.390052
C34	C	1.127396	-0.899220	-0.389778
C35	C	1.070308	-0.930634	-0.464562
C36	C	0.992206	-0.899612	-0.437217
C37	C	0.992512	-0.813968	-0.436657
C38	C	1.090416	-0.813743	-0.566546
C39	C	1.092164	-0.899393	-0.566021
C40	C	1.070329	-1.014493	-0.464582
C41	C	1.070237	-0.698392	-0.464507
C42	C	1.263399	-0.356848	-0.464501
C43	C	1.345713	-0.356861	-0.464496
C44	C	1.070283	-0.356756	-0.716108
C45	C	1.070302	-0.356730	-0.823322
C46	C	1.070319	-0.163656	-0.464571
C47	C	1.070353	-0.081342	-0.464595
C48	C	1.070317	-0.356709	-0.910391
C49	C	1.070338	-0.356675	-1.019624
C50	C	1.070235	-0.356827	-0.213900
C51	C	1.070359	-0.356645	-0.106687
H52	H	1.185304	-0.920192	-0.406857
H53	H	1.114054	-0.919763	-0.314197
H54	H	0.633938	-0.435773	-0.341991
H55	H	0.635014	-0.339541	-0.304719
N56	N	1.110064	-0.785161	-0.290496
H57	H	1.058744	-0.801448	-0.271390
H58	H	1.147155	-0.805565	-0.243158
H59	H	0.948373	-0.793231	-0.488559
H60	H	0.974871	-0.921119	-0.363480
H61	H	0.975459	-0.794048	-0.362093
N62	N	0.642149	-0.256141	-0.590135
H63	H	0.621847	-0.205881	-0.607370
H64	H	0.697891	-0.253989	-0.588708
H65	H	0.507157	-0.472362	-0.521462
N66	N	1.164554	-0.785072	-0.599569
H67	H	1.185828	-0.751372	-0.548727
H68	H	1.199170	-0.828004	-0.610501
N69	N	1.204467	-0.786253	-0.412390
H70	H	1.240355	-0.807010	-0.363753
H71	H	1.219131	-0.802912	-0.479055
H72	H	1.149641	-0.919663	-0.586645
H73	H	0.507705	-0.334786	-0.307140
N74	N	0.499271	-0.397182	-0.638327
H75	H	0.466152	-0.352334	-0.635640
H76	H	0.542322	-0.386968	-0.682621
H77	H	1.048704	-0.793464	-0.622036
H78	H	1.053520	-0.920773	-0.624473
N79	N	0.641212	-0.490766	-0.515919
H80	H	0.597845	-0.524962	-0.505463
H81	H	0.672134	-0.509537	-0.571238
N82	N	0.640532	-0.396758	-0.639205
H83	H	0.671405	-0.350289	-0.637684
H84	H	0.671485	-0.439193	-0.663674
N85	N	0.501637	-0.256816	-0.591698
H86	H	0.545611	-0.246844	-0.634527
H87	H	0.470987	-0.297995	-0.620155
N88	N	0.500621	-0.220496	-0.424422
H89	H	0.544150	-0.194524	-0.394055
H90	H	0.469697	-0.183475	-0.460948
N91	N	0.640693	-0.220529	-0.423005
H92	H	0.673384	-0.244185	-0.372812
H93	H	0.669738	-0.181897	-0.459360
N94	N	0.934147	-0.926569	-0.506863
H95	H	0.957972	-0.959227	-0.556930
H96	H	0.895420	-0.955649	-0.470731
N97	N	0.499348	-0.450709	-0.328940
H98	H	0.465633	-0.472155	-0.379648
H99	H	0.542300	-0.485274	-0.317825
