data_functionalizedCrystal
_audit_creation_method	'MofGen! by Chris Wilmer'
_symmetry_space_group_name_H-M	'P1'
_symmetry_Int_Tables_number	1
_symmetry_cell_setting	triclinic
loop_
_symmetry_equiv_pos_as_xyz
  x,y,z
_cell_length_a	15.995350
_cell_length_b	8.597340
_cell_length_c	14.472311
_cell_angle_alpha	82.302936
_cell_angle_beta	90.006054
_cell_angle_gamma	84.418396
loop_
_atom_site_label
_atom_site_type_symbol
_atom_site_fract_x
_atom_site_fract_y
_atom_site_fract_z
O1	O	0.124965	2.082400	-0.088957
O2	O	0.134555	1.625474	-0.052577
O3	O	0.007975	1.866427	-0.071762
O4	O	0.251546	1.841447	-0.069772
O5	O	0.007962	1.866406	-0.225443
O6	O	0.134542	1.625453	-0.206257
O7	O	0.124953	2.082378	-0.242637
Cu8	Cu	0.129746	1.853913	-0.238480
Cu9	Cu	0.129761	1.853939	-0.056735
O10	O	0.251533	1.841425	-0.223452
C11	C	0.133519	1.566993	-0.124762
C12	C	0.130442	1.392769	-0.110890
C13	C	-0.023235	1.865384	-0.148519
C14	C	-0.116211	1.862288	-0.148267
C15	C	-0.454049	1.851168	-0.147385
C16	C	-0.408019	1.679566	-0.133377
C17	C	-0.311303	1.682663	-0.133970
C18	C	-0.286443	1.856684	-0.147822
C19	C	-0.326836	1.941312	-0.242318
C20	C	-0.423507	1.937001	-0.242048
C21	C	-0.423821	1.940570	-0.067567
C22	C	-0.326876	1.940530	-0.066404
C23	C	-0.191720	1.859810	-0.148073
C24	C	-0.548772	1.848047	-0.147140
C25	C	0.282742	1.842468	-0.146694
C26	C	0.375718	1.845565	-0.146940
C27	C	0.125988	2.140859	-0.170451
C28	C	0.129065	2.315083	-0.184316
N29	N	0.129735	1.853907	-0.366310
C30	C	0.129746	1.853924	-0.554812
C31	C	0.062039	1.982883	-0.604281
C32	C	0.062226	1.983350	-0.711406
C33	C	0.129755	1.853941	-0.740404
C34	C	0.217515	1.889029	-0.704303
C35	C	0.217114	1.889945	-0.597255
C36	C	0.110477	1.689489	-0.581210
C37	C	0.108507	1.690602	-0.688428
C38	C	0.129766	1.853947	-0.845293
C39	C	0.129741	1.853921	-0.449923
N40	N	0.129766	1.853958	0.071094
H41	H	-0.427106	1.610987	-0.064984
H42	H	0.130234	1.381860	-0.257796
H43	H	-0.002956	1.962556	-0.736049
C44	C	0.198990	1.190863	0.002263
C45	C	0.128862	1.302630	-0.011685
H46	H	0.198016	1.135224	0.063509
H47	H	0.197706	1.118790	-0.041935
H48	H	0.248810	1.242784	-0.005311
H49	H	0.079042	1.250708	-0.004118
H50	H	0.130139	1.374713	0.032526
C51	C	0.253435	2.147045	-0.660257
C52	C	0.239680	2.051809	-0.576397
H53	H	0.267360	2.246978	-0.647381
H54	H	0.298338	2.098132	-0.692356
H55	H	0.203927	2.160634	-0.697900
H56	H	0.289191	2.038210	-0.538756
H57	H	0.194774	2.100733	-0.544283
H58	H	-0.283420	1.616139	-0.065765
H59	H	-0.300129	1.878656	0.003443
C60	C	-0.217372	2.112964	-0.067579
C61	C	-0.304715	2.111836	-0.072902
H62	H	-0.203686	2.218724	-0.071607
H63	H	-0.197039	2.055758	-0.009953
H64	H	-0.192159	2.065197	-0.117581
H65	H	-0.329928	2.159594	-0.022896
H66	H	-0.325057	2.169066	-0.130535
H67	H	-0.428177	1.611274	-0.190522
H68	H	-0.003355	1.962457	-0.576885
H69	H	-0.283992	1.615674	-0.191652
H70	H	0.269184	1.797573	-0.722477
C71	C	-0.010174	1.762768	-0.492140
C72	C	0.025807	1.643743	-0.541119
H73	H	-0.062450	1.734539	-0.467394
H74	H	0.026474	1.775502	-0.442642
H75	H	-0.018961	1.858980	-0.533172
H76	H	0.034600	1.547533	-0.500084
H77	H	-0.010849	1.630990	-0.590622
H78	H	-0.442319	1.875272	-0.302737
C79	C	0.074585	2.147455	-0.484400
C80	C	0.078670	2.146707	-0.580989
H81	H	0.084862	2.248589	-0.470022
H82	H	0.020371	2.124075	-0.463425
H83	H	0.115764	2.070220	-0.454251
H84	H	0.037487	2.223934	-0.611138
H85	H	0.132892	2.170106	-0.601974
H86	H	0.154500	1.590192	-0.707182
H87	H	-0.454725	2.062988	-0.256059
H88	H	-0.311664	2.069160	-0.255758
H89	H	0.074712	2.105390	-0.746743
C90	C	-0.353236	1.804093	-0.371704
C91	C	-0.289191	1.861942	-0.324170
H92	H	-0.329996	1.755096	-0.422237
H93	H	-0.379575	1.729143	-0.330234
H94	H	-0.393567	1.888817	-0.394891
H95	H	-0.248863	1.777216	-0.300977
H96	H	-0.262839	1.936897	-0.365647
C97	C	-0.497170	1.736796	0.016831
C98	C	-0.452152	1.864841	0.028259
H99	H	-0.514654	1.690028	0.075989
H100	H	-0.545069	1.772427	-0.021824
H101	H	-0.462309	1.661081	-0.011409
H102	H	-0.487015	1.940562	0.056493
H103	H	-0.404246	1.829212	0.066929
C104	C	-0.552741	2.110452	-0.076953
C105	C	-0.465302	2.111367	-0.080352
H106	H	-0.578351	2.215890	-0.084844
H107	H	-0.571237	2.057039	-0.125379
H108	H	-0.567936	2.057826	-0.018321
H109	H	-0.450107	2.163983	-0.138988
H110	H	-0.446800	2.164802	-0.031923
H111	H	0.268972	1.799297	-0.564103
H112	H	0.159834	1.593530	-0.548218
C113	C	0.002930	1.508787	-0.673161
C114	C	0.021339	1.654631	-0.719869
H115	H	-0.050888	1.486594	-0.692570
H116	H	0.044121	1.428545	-0.687396
H117	H	0.003057	1.512325	-0.607837
H118	H	0.021218	1.651089	-0.785193
H119	H	-0.019863	1.734893	-0.705640
H120	H	0.234606	2.007558	-0.740563
