data_functionalizedCrystal
_audit_creation_method	'MofGen! by Chris Wilmer'
_symmetry_space_group_name_H-M	'P1'
_symmetry_Int_Tables_number	1
_symmetry_cell_setting	triclinic
loop_
_symmetry_equiv_pos_as_xyz
  x,y,z
_cell_length_a	12.759401
_cell_length_b	19.121111
_cell_length_c	12.759393
_cell_angle_alpha	87.593924
_cell_angle_beta	89.979213
_cell_angle_gamma	87.529272
loop_
_atom_site_label
_atom_site_type_symbol
_atom_site_fract_x
_atom_site_fract_y
_atom_site_fract_z
Zn1	Zn	1.588323	0.279570	-0.611821
Zn2	Zn	1.580674	0.397037	-0.443622
Zn3	Zn	1.412619	0.279605	-0.436158
Zn4	Zn	1.405077	0.396985	-0.619256
O5	O	1.496673	0.338299	-0.527714
O6	O	1.734329	0.295159	-0.589520
O7	O	1.558337	0.381495	-0.295613
O8	O	1.442284	0.181316	-0.453225
O9	O	1.728710	0.381461	-0.465945
O10	O	1.571372	0.181290	-0.582283
O11	O	1.434868	0.295219	-0.290130
O12	O	1.264598	0.295169	-0.460435
O13	O	1.429430	0.381374	-0.765289
O14	O	1.259057	0.381408	-0.594956
O15	O	1.564059	0.295109	-0.759826
O16	O	1.551024	0.495314	-0.473155
O17	O	1.422013	0.495276	-0.602193
C18	C	1.223707	0.338287	-0.527693
C19	C	1.106929	0.338299	-0.527710
C20	C	0.939416	0.383176	-0.463290
C21	C	1.049141	0.383165	-0.463270
C22	C	1.054988	0.293436	-0.592168
C23	C	0.945265	0.293443	-0.592182
C24	C	1.197421	0.408150	-0.340872
C25	C	1.249358	0.453020	-0.276427
C26	C	1.209325	0.521541	-0.264488
C27	C	1.117355	0.545206	-0.317009
C28	C	1.065423	0.500340	-0.381462
C29	C	1.105456	0.431809	-0.393381
C30	C	0.796983	0.268465	-0.714582
C31	C	0.745049	0.223602	-0.779041
C32	C	0.785080	0.155080	-0.790991
C33	C	0.877053	0.131418	-0.738488
C34	C	0.928987	0.176281	-0.674029
C35	C	0.888949	0.244802	-0.662077
C36	C	1.484899	0.520779	-0.539314
C37	C	1.479958	0.598845	-0.544311
C38	C	1.544857	0.635517	-0.479532
C39	C	1.540217	0.708868	-0.484238
C40	C	1.470670	0.745546	-0.553719
C41	C	1.405768	0.708869	-0.618506
C42	C	1.410414	0.635519	-0.613804
C43	C	1.453281	0.967014	-0.571278
C44	C	1.448637	1.040369	-0.575973
C45	C	1.583088	1.040363	-0.441706
C46	C	1.587724	0.967012	-0.437006
C47	C	1.522826	0.930342	-0.501796
C48	C	1.465922	0.820522	-0.558529
C49	C	1.527580	0.855366	-0.496991
C50	C	1.770706	0.338312	-0.527736
C51	C	1.887482	0.338317	-0.527745
C52	C	1.496756	0.338232	-0.801743
C53	C	1.496792	0.338203	-0.918518
C54	C	1.508514	1.155107	-0.516106
C55	C	1.513537	1.077041	-0.511193
C56	C	1.566899	0.293278	-0.970537
C57	C	1.566918	0.293248	-1.080259
C58	C	1.426721	0.383074	-1.085935
C59	C	1.426697	0.383100	-0.976214
C60	C	1.609849	0.210383	-1.224960
C61	C	1.679972	0.165464	-1.276983
C62	C	1.783176	0.154695	-1.240705
C63	C	1.816277	0.188855	-1.152407
C64	C	1.746159	0.233780	-1.100390
C65	C	1.642942	0.244535	-1.136666
C66	C	1.383777	0.465966	-0.831512
C67	C	1.313663	0.510894	-0.779493
C68	C	1.210457	0.521670	-0.815769
C69	C	1.177359	0.487522	-0.904071
C70	C	1.247473	0.442594	-0.956090
C71	C	1.350678	0.431817	-0.919806
C72	C	1.496654	0.338316	-0.254748
C73	C	1.496835	0.338147	-0.137961
H74	H	0.892372	0.419714	-0.410820
Cl75	Cl	1.127636	0.237031	-0.673177
H76	H	0.990545	0.519608	-0.424227
H77	H	1.653012	0.137650	-1.348875
Cl78	Cl	1.615010	0.809256	-0.409650
Cl79	Cl	1.480097	0.223908	-1.270563
Cl80	Cl	1.378494	0.866638	-0.645873
Cl81	Cl	1.205862	0.399662	-1.067098
Cl82	Cl	1.787762	0.276723	-0.989395
H83	H	1.467814	0.457190	-0.801961
Cl84	Cl	1.047611	0.501070	-0.949682
Cl85	Cl	1.621812	0.754966	-0.402800
Cl86	Cl	1.361187	1.086478	-0.663314
H87	H	1.369654	0.419629	-1.132924
Cl88	Cl	1.067066	0.631365	-0.302046
H89	H	0.909650	0.075622	-0.748220
Cl90	Cl	1.632286	0.589414	-0.392172
Cl91	Cl	1.675173	0.920908	-0.349669
Cl92	Cl	0.629425	0.253352	-0.845050
Cl93	Cl	1.122322	0.578167	-0.750387
Cl94	Cl	1.274621	0.577947	-0.183472
H95	H	1.340624	0.538706	-0.707600
Cl96	Cl	1.871329	0.098226	-1.306109
H97	H	1.324256	0.433751	-0.233685
H98	H	1.357568	0.605662	-0.666556
H99	H	1.635926	1.070228	-0.388959
H100	H	1.230019	0.352353	-0.350576
H101	H	1.400436	0.937163	-0.624032
Cl102	Cl	0.746646	0.354609	-0.699555
H103	H	1.004012	0.157061	-0.631473
H104	H	1.349146	0.738738	-0.675084
H105	H	0.742790	0.118556	-0.843488
Cl106	Cl	1.946033	0.175325	-1.106817
H107	H	1.623972	0.256718	-0.923564
