data_functionalizedCrystal
_audit_creation_method	'MofGen! by Chris Wilmer'
_symmetry_space_group_name_H-M	'P1'
_symmetry_Int_Tables_number	1
_symmetry_cell_setting	triclinic
loop_
_symmetry_equiv_pos_as_xyz
  x,y,z
_cell_length_a	14.395555
_cell_length_b	14.395555
_cell_length_c	14.395555
_cell_angle_alpha	59.998317
_cell_angle_beta	89.999455
_cell_angle_gamma	59.996404
loop_
_atom_site_label
_atom_site_type_symbol
_atom_site_fract_x
_atom_site_fract_y
_atom_site_fract_z
Zr1	Zr	0.894853	1.016795	-0.121858
O2	O	0.746513	1.210611	-0.270196
O3	O	0.940336	0.822988	-0.076385
O4	O	0.940327	1.016800	-0.270186
O5	O	0.746519	1.016793	0.076479
O6	O	1.093201	1.016793	-0.270178
O7	O	0.746522	1.016800	-0.076395
O8	O	1.093217	0.670099	0.076497
O9	O	0.746504	1.363487	-0.270196
O10	O	1.073812	0.902695	-0.056985
O11	O	0.959721	0.902695	0.057097
O12	O	0.959711	1.130883	-0.171079
O13	O	0.845621	1.130883	-0.056997
Zr14	Zr	1.138666	1.016773	0.121971
Zr15	Zr	1.138670	1.016784	-0.121845
Zr16	Zr	0.894849	1.016784	0.121958
Zr17	Zr	0.894838	1.260613	-0.121858
Zr18	Zr	1.138681	0.772955	0.121971
O19	O	1.093183	1.210580	0.076498
O20	O	1.093189	1.210596	-0.270178
O21	O	0.746507	1.210596	0.076480
O22	O	1.287005	0.822957	0.270309
O23	O	1.287011	0.822972	-0.076367
O24	O	0.940330	0.822972	0.270291
O25	O	1.286999	1.016775	-0.076366
O26	O	1.093192	1.016768	0.270299
O27	O	0.940318	1.016775	0.270291
O28	O	1.286997	1.016768	0.076508
O29	O	0.940306	1.363478	-0.270186
O30	O	1.093213	0.670090	0.270298
O31	O	1.287015	0.670081	0.270309
O32	O	1.287018	0.670090	0.076507
O33	O	0.746501	1.363478	-0.076394
O34	O	0.940302	1.363469	-0.076384
O35	O	1.073808	0.902685	0.171192
O36	O	1.187898	0.902685	0.057109
O37	O	1.073797	1.130873	-0.056984
O38	O	0.959707	1.130873	0.057098
C39	C	1.016778	0.711804	0.000056
C40	C	1.016785	0.608297	0.000055
C41	C	1.078966	0.485812	-0.062150
C42	C	0.971705	0.623946	-0.107250
C43	C	1.124026	0.471574	0.045103
C44	C	0.909409	0.562105	-0.045105
C45	C	1.061808	0.409659	0.107307
C46	C	0.954482	0.547784	0.062234
C47	C	0.711782	1.016798	0.000040
C48	C	0.608276	1.016802	0.000035
C49	C	0.485474	1.141221	-0.062164
C50	C	0.454643	1.079027	-0.107241
C51	C	0.454683	1.078991	0.045103
C52	C	0.578808	0.954608	-0.045105
C53	C	0.578845	0.954590	0.107299
C54	C	0.548087	0.892305	0.062249
C55	C	1.321737	1.016770	0.000073
C56	C	1.425243	1.016766	0.000078
C57	C	1.016765	1.016798	-0.304921
C58	C	1.016767	1.016802	-0.408427
C59	C	1.016741	1.321764	0.000057
C60	C	1.016734	1.425271	0.000057
C61	C	0.954542	1.141221	-0.531225
C62	C	1.061815	1.079020	-0.562059
C63	C	0.909499	1.078998	-0.562017
C64	C	1.124103	0.954601	-0.437898
C65	C	0.971710	0.954597	-0.437859
C66	C	1.079047	0.892305	-0.468619
C67	C	1.016754	1.016770	0.305034
C68	C	1.016752	1.016766	0.408540
C69	C	1.321756	0.711791	0.000072
C70	C	1.425269	0.608279	0.000077
C71	C	1.016773	0.711791	0.305033
C72	C	1.016778	0.608279	0.408539
C73	C	1.321750	0.711777	0.305049
C74	C	1.425261	0.608260	0.408561
C75	C	0.711769	1.321791	-0.304936
C76	C	0.608257	1.425308	-0.408448
C77	C	0.711763	1.321777	0.000041
C78	C	0.608250	1.425289	0.000036
C79	C	1.016746	1.321777	-0.304920
C80	C	1.016741	1.425289	-0.408427
C81	C	1.548066	0.547712	0.062256
C82	C	1.578935	0.409595	0.107311
C83	C	1.578834	0.562013	-0.045033
C84	C	1.454774	0.471462	0.045196
C85	C	1.454677	0.623953	-0.107208
C86	C	1.485472	0.485846	-0.062179
C87	C	0.954573	0.547694	0.406922
C88	C	1.061860	0.409579	0.499949
C89	C	0.909536	0.561924	0.499948
C90	C	1.124128	0.471464	0.500204
C91	C	0.971726	0.623883	0.500189
C92	C	1.079077	0.485777	0.593233
C93	C	1.423649	0.547643	0.531356
C94	C	1.516648	0.409537	0.562155
C95	C	1.516707	0.561814	0.562194
C96	C	1.516898	0.471455	0.437997
C97	C	1.516942	0.623806	0.438040
C98	C	1.609959	0.485709	0.468765
H99	H	1.099941	0.318016	0.197990
H100	H	0.632171	0.902064	-0.083307
O101	O	0.921210	0.884997	-0.366956
H102	H	0.845727	0.953701	-0.357793
O103	O	1.517955	0.611021	0.633110
H104	H	1.440727	0.712660	0.591416
H105	H	1.459818	0.458831	-0.114794
H106	H	1.131485	0.458699	-0.114817
H107	H	1.573505	0.574781	0.114946
O108	O	1.148836	0.752837	-0.434639
H109	H	1.093998	0.735970	-0.468624
H110	H	0.460025	1.246428	-0.114845
H111	H	1.214741	0.434351	0.083202
O112	O	0.789347	1.148669	-0.632882
H113	H	0.737885	1.251930	-0.659729
H114	H	1.517556	0.317924	0.615638
O115	O	1.515661	0.745203	0.367180
H116	H	1.514515	0.783551	0.417895
O117	O	0.383744	1.148673	-0.227369
H118	H	0.356868	1.251943	-0.278851
H119	H	1.632479	0.317946	0.197997
H120	H	0.573750	0.787012	0.114855
H121	H	0.632361	0.902048	0.197974
O122	O	0.383803	1.148659	0.095576
H123	H	0.356949	1.251922	0.043774
H124	H	1.214874	0.434083	0.499384
H125	H	1.099920	1.131603	-0.615582
H126	H	0.902014	1.246428	-0.556670
O127	O	0.884990	0.583598	0.301259
H128	H	0.884939	0.661357	0.224772
O129	O	1.244309	0.885087	-0.367277
H130	H	1.243364	0.885728	-0.290498
O131	O	1.384142	0.421875	0.095821
H132	H	1.307341	0.499594	0.095509
H133	H	1.401136	0.715625	-0.197873
O134	O	1.649658	0.611348	-0.095532
H135	H	1.676497	0.635953	-0.043725
O136	O	1.112361	0.288198	0.501200
H137	H	1.060572	0.313123	0.424800
O138	O	1.148858	0.449950	0.698732
H139	H	1.237815	0.411592	0.699452
H140	H	0.933574	0.715542	0.499201
H141	H	0.818835	0.599103	0.500859
H142	H	1.343885	0.574742	0.556792
H143	H	1.516053	0.434120	0.384601
O144	O	1.715449	0.449889	0.434797
H145	H	1.766976	0.343804	0.470055
O146	O	0.921240	0.745314	-0.227387
H147	H	0.896835	0.728017	-0.287314
O148	O	0.789188	0.611684	-0.095727
H149	H	0.790115	0.533944	-0.095373
H150	H	0.901802	0.574844	0.114826
