data_functionalizedCrystal
_audit_creation_method	'MofGen! by Chris Wilmer'
_symmetry_space_group_name_H-M	'P1'
_symmetry_Int_Tables_number	1
_symmetry_cell_setting	triclinic
loop_
_symmetry_equiv_pos_as_xyz
  x,y,z
_cell_length_a	17.077402
_cell_length_b	19.077269
_cell_length_c	17.077396
_cell_angle_alpha	92.279674
_cell_angle_beta	89.972472
_cell_angle_gamma	87.726560
loop_
_atom_site_label
_atom_site_type_symbol
_atom_site_fract_x
_atom_site_fract_y
_atom_site_fract_z
Zn1	Zn	-0.360703	1.075950	-0.395606
Zn2	Zn	-0.027370	1.409283	-0.062273
Zn3	Zn	0.305964	1.742617	0.271061
Zn4	Zn	-0.491974	1.075865	-0.264346
Zn5	Zn	-0.158641	1.409199	0.068987
Zn6	Zn	0.174693	1.742532	0.402321
Zn7	Zn	-0.355458	0.958257	-0.269631
Zn8	Zn	-0.022125	1.291590	0.063702
Zn9	Zn	0.311208	1.624923	0.397036
Zn10	Zn	-0.486658	0.958227	-0.400844
Zn11	Zn	-0.153324	1.291560	-0.067511
Zn12	Zn	0.180009	1.624893	0.265823
O13	O	-0.423698	1.017075	-0.332607
O14	O	-0.090365	1.350408	0.000727
O15	O	0.242968	1.683741	0.334060
O16	O	-0.382536	1.174426	-0.373790
O17	O	-0.049203	1.507759	-0.040457
O18	O	0.284130	1.841093	0.292877
O19	O	-0.473895	1.060242	-0.155201
O20	O	-0.140562	1.393575	0.178132
O21	O	0.192772	1.726908	0.511466
O22	O	-0.246309	0.973917	-0.286361
O23	O	0.087024	1.307250	0.046972
O24	O	0.420357	1.640584	0.380305
O25	O	-0.478981	1.174364	-0.277354
O26	O	-0.145647	1.507697	0.055979
O27	O	0.187686	1.841031	0.389313
O28	O	-0.250163	1.060386	-0.378915
O29	O	0.083171	1.393719	-0.045581
O30	O	0.416504	1.727052	0.287752
O31	O	-0.373597	0.973835	-0.159084
O32	O	-0.040264	1.307168	0.174249
O33	O	0.293069	1.640502	0.507583
O34	O	-0.368442	0.859765	-0.291440
O35	O	-0.035109	1.193099	0.041893
O36	O	0.298224	1.526432	0.375226
O37	O	-0.469919	0.973866	-0.509995
O38	O	-0.136586	1.307199	-0.176662
O39	O	0.196747	1.640533	0.156672
O40	O	-0.464834	0.859743	-0.387842
O41	O	-0.131500	1.193077	-0.054509
O42	O	0.201833	1.526410	0.278824
O43	O	-0.377381	1.060357	-0.506147
O44	O	-0.044048	1.393690	-0.172813
O45	O	0.289285	1.727023	0.160520
O46	O	-0.601114	1.060213	-0.282433
O47	O	-0.267780	1.393546	0.050900
O48	O	0.065553	1.726879	0.384234
O49	O	-0.597208	0.973784	-0.382718
O50	O	-0.263874	1.307117	-0.049384
O51	O	0.069459	1.640451	0.283949
C52	C	-0.415493	0.834218	-0.340784
C53	C	-0.082159	1.167551	-0.007450
C54	C	0.251174	1.500884	0.325883
C55	C	-0.412001	0.755991	-0.344300
C56	C	-0.078668	1.089324	-0.010967
C57	C	0.254666	1.422657	0.322366
C58	C	-0.460492	0.719204	-0.295669
C59	C	-0.127159	1.052538	0.037665
C60	C	0.206174	1.385871	0.370998
C61	C	-0.457212	0.645702	-0.298984
C62	C	-0.123879	0.979035	0.034350
C63	C	0.209455	1.312368	0.367683
C64	C	-0.405436	0.608987	-0.350927
C65	C	-0.072102	0.942320	-0.017593
C66	C	0.261231	1.275654	0.315740
C67	C	-0.356942	0.645779	-0.399564
C68	C	-0.023609	0.979112	-0.066230
C69	C	0.309724	1.312445	0.267103
C70	C	-0.360227	0.719280	-0.396252
C71	C	-0.026894	1.052613	-0.062919
C72	C	0.306440	1.385947	0.270414
C73	C	-0.390239	0.389166	-0.366226
C74	C	-0.056905	0.722499	-0.032893
C75	C	0.276428	1.055832	0.300441
C76	C	-0.386956	0.315659	-0.369532
C77	C	-0.053623	0.648993	-0.036199
C78	C	0.279711	0.982326	0.297135
C79	C	-0.487227	0.315587	-0.268953
C80	C	-0.153894	0.648921	0.064381
C81	C	0.179440	0.982254	0.397714
C82	C	-0.490504	0.389090	-0.265643
C83	C	-0.157171	0.722423	0.067691
C84	C	0.176163	1.055757	0.401024
C85	C	-0.442014	0.425875	-0.314282
C86	C	-0.108680	0.759209	0.019051
C87	C	0.224653	1.092542	0.352384
N88	N	-0.402079	0.533856	-0.354314
N89	N	-0.068746	0.867189	-0.020981
N90	N	0.264587	1.200522	0.312352
N91	N	-0.445374	0.501005	-0.310898
N92	N	-0.112041	0.834339	0.022435
N93	N	0.221292	1.167672	0.355769
C94	C	-0.627643	1.017005	-0.332587
C95	C	-0.294310	1.350338	0.000747
C96	C	0.039024	1.683672	0.334080
C97	C	-0.714894	1.017039	-0.332601
C98	C	-0.381561	1.350373	0.000732
C99	C	-0.048228	1.683706	0.334065
C100	C	-0.757822	1.062039	-0.380835
C101	C	-0.424489	1.395372	-0.047502
C102	C	-0.091156	1.728706	0.285831
C103	C	-0.839804	1.062069	-0.380851
C104	C	-0.506471	1.395402	-0.047517
C105	C	-0.173137	1.728735	0.285816
C106	C	-0.878857	1.017102	-0.332627
C107	C	-0.545523	1.350435	0.000706
C108	C	-0.212190	1.683768	0.334039
C109	C	-0.835923	0.972097	-0.284391
C110	C	-0.502589	1.305430	0.048942
C111	C	-0.169256	1.638763	0.382275
C112	C	-0.753942	0.972064	-0.284381
C113	C	-0.420609	1.305398	0.048953
C114	C	-0.087276	1.638731	0.382286
C115	C	-1.006796	0.972169	-0.284415
C116	C	-0.673463	1.305502	0.048918
C117	C	-0.340129	1.638836	0.382251
C118	C	-1.088782	0.972202	-0.284425
C119	C	-0.755449	1.305536	0.048909
C120	C	-0.422115	1.638869	0.382242
C121	C	-1.092658	1.062174	-0.380885
C122	C	-0.759324	1.395507	-0.047552
C123	C	-0.425991	1.728840	0.285781
C124	C	-1.010677	1.062141	-0.380875
C125	C	-0.677344	1.395474	-0.047541
C126	C	-0.344011	1.728808	0.285792
C127	C	-0.967749	1.017137	-0.332638
C128	C	-0.634416	1.350470	0.000696
C129	C	-0.301082	1.683804	0.334029
C130	C	-0.218958	1.017164	-0.332643
C131	C	0.114375	1.350497	0.000690
C132	C	0.447709	1.683831	0.334023
C133	C	-0.131710	1.017202	-0.332659
C134	C	0.201623	1.350535	0.000675
C135	C	0.534957	1.683869	0.334008
C136	C	-0.423642	1.017117	-0.537349
C137	C	-0.090309	1.350451	-0.204016
C138	C	0.243024	1.683784	0.129318
C139	C	-0.423619	1.017135	-0.624598
C140	C	-0.090285	1.350469	-0.291265
C141	C	0.243048	1.683802	0.042068
C142	C	-0.431937	1.200646	-0.324398
C143	C	-0.098603	1.533979	0.008935
C144	C	0.234730	1.867312	0.342268
C145	C	-0.435447	1.278873	-0.320900
C146	C	-0.102114	1.612206	0.012433
C147	C	0.231219	1.945539	0.345766
C148	C	-0.375430	1.062173	-0.663586
C149	C	-0.042096	1.395506	-0.330252
C150	C	0.291237	1.728840	0.003081
C151	C	-0.375404	1.062181	-0.745566
C152	C	-0.042071	1.395515	-0.412232
C153	C	0.291263	1.728848	-0.078899
C154	C	-0.423572	1.017155	-0.788557
C155	C	-0.090238	1.350489	-0.455223
C156	C	0.243095	1.683822	-0.121890
C157	C	-0.471762	0.972113	-0.749564
C158	C	-0.138429	1.305446	-0.416230
C159	C	0.194904	1.638780	-0.082897
C160	C	-0.471784	0.972102	-0.667585
C161	C	-0.138450	1.305435	-0.334252
C162	C	0.194883	1.638768	-0.000919
C163	C	-0.471717	0.972141	-0.920433
C164	C	-0.138383	1.305475	-0.587099
C165	C	0.194950	1.638808	-0.253766
C166	C	-0.471697	0.972154	-1.002417
C167	C	-0.138363	1.305487	-0.669083
C168	C	0.194970	1.638820	-0.335750
C169	C	-0.375337	1.062221	-0.998413
C170	C	-0.042004	1.395555	-0.665080
C171	C	0.291330	1.728888	-0.331746
C172	C	-0.375358	1.062210	-0.916435
C173	C	-0.042025	1.395543	-0.583101
C174	C	0.291309	1.728876	-0.249768
C175	C	-0.423550	1.017168	-0.877447
C176	C	-0.090217	1.350501	-0.544114
C177	C	0.243117	1.683835	-0.210781
C178	C	-0.423699	1.017073	-0.128659
C179	C	-0.090366	1.350406	0.204674
C180	C	0.242968	1.683740	0.538008
C181	C	-0.423508	1.017191	-0.041404
C182	C	-0.090175	1.350524	0.291929
C183	C	0.243159	1.683858	0.625262
H184	H	-0.344787	0.285768	-0.411828
H185	H	-0.011454	0.619101	-0.078495
H186	H	0.321880	0.952435	0.254839
H187	H	-0.874753	1.098717	-0.420121
H188	H	-0.541419	1.432051	-0.086788
H189	H	-0.208086	1.765384	0.246545
Cl190	Cl	-0.952830	0.915593	-0.223771
Cl191	Cl	-0.619497	1.248927	0.109562
Cl192	Cl	-0.286164	1.582260	0.442895
Cl193	Cl	-0.532242	0.915541	-1.056462
Cl194	Cl	-0.198909	1.248874	-0.723129
Cl195	Cl	0.134424	1.582208	-0.389795
H196	H	-0.718991	0.935420	-0.245105
H197	H	-0.385657	1.268753	0.088229
H198	H	-0.052324	1.602087	0.421562
Cl199	Cl	-0.532301	0.915516	-0.871421
Cl200	Cl	-0.198968	1.248849	-0.538088
Cl201	Cl	0.134366	1.582182	-0.204755
H202	H	-0.532665	0.418978	-0.223344
H203	H	-0.199332	0.752312	0.109989
H204	H	0.134002	1.085645	0.443323
H205	H	-0.336208	1.098840	-0.628588
H206	H	-0.002875	1.432174	-0.295255
H207	H	0.330458	1.765507	0.038079
H208	H	-0.350755	0.419107	-0.405833
H209	H	-0.017422	0.752441	-0.072499
H210	H	0.315911	1.085774	0.260834
H211	H	-0.510978	0.935450	-0.784574
H212	H	-0.177645	1.268783	-0.451240
H213	H	0.155688	1.602116	-0.117907
H214	H	-0.867725	0.935481	-0.245130
H215	H	-0.534392	1.268814	0.088203
H216	H	-0.201059	1.602148	0.421536
H217	H	-0.978881	1.098760	-0.420138
H218	H	-0.645548	1.432093	-0.086804
H219	H	-0.312215	1.765427	0.246529
Cl220	Cl	-0.291857	0.599623	-0.464870
Cl221	Cl	0.041476	0.932956	-0.131536
Cl222	Cl	0.374809	1.266289	0.201797
Cl223	Cl	-0.314857	1.118834	-0.794574
Cl224	Cl	0.018476	1.452167	-0.461240
Cl225	Cl	0.351810	1.785500	-0.127907
H226	H	-0.320740	0.749230	-0.435853
H227	H	0.012594	1.082564	-0.102519
H228	H	0.345927	1.415897	0.230814
H229	H	-0.726032	1.098660	-0.420101
H230	H	-0.392698	1.431993	-0.086767
H231	H	-0.059365	1.765326	0.246566
Cl232	Cl	-0.532364	0.915479	-0.618572
Cl233	Cl	-0.199031	1.248812	-0.285239
Cl234	Cl	0.134303	1.582145	0.048094
H235	H	-1.127614	1.098817	-0.420163
H236	H	-0.794280	1.432150	-0.086829
H237	H	-0.460947	1.765484	0.246504
Cl238	Cl	-1.137876	0.915671	-0.223800
Cl239	Cl	-0.804542	1.249005	0.109533
Cl240	Cl	-0.471209	1.582338	0.442866
H241	H	-0.336140	1.098878	-0.881433
H242	H	-0.002807	1.432211	-0.548100
H243	H	0.330526	1.765544	-0.214767
Cl244	Cl	-0.548185	0.269339	-0.207812
Cl245	Cl	-0.214852	0.602672	0.125521
Cl246	Cl	0.118481	0.936006	0.458854
Cl247	Cl	-0.525585	0.765353	-0.230364
Cl248	Cl	-0.192251	1.098686	0.102969
Cl249	Cl	0.141082	1.432019	0.436303
H250	H	-0.496699	0.615753	-0.259382
H251	H	-0.163365	0.949087	0.073951
H252	H	0.169968	1.282420	0.407284
Cl253	Cl	-0.314754	1.118846	-1.047425
Cl254	Cl	0.018580	1.452179	-0.714092
Cl255	Cl	0.351913	1.785512	-0.380759
