data_functionalizedCrystal
_audit_creation_method	'MofGen! by Chris Wilmer'
_symmetry_space_group_name_H-M	'P1'
_symmetry_Int_Tables_number	1
_symmetry_cell_setting	triclinic
loop_
_symmetry_equiv_pos_as_xyz
  x,y,z
_cell_length_a	17.699083
_cell_length_b	12.837942
_cell_length_c	16.776229
_cell_angle_alpha	89.994225
_cell_angle_beta	89.998886
_cell_angle_gamma	89.055978
loop_
_atom_site_label
_atom_site_type_symbol
_atom_site_fract_x
_atom_site_fract_y
_atom_site_fract_z
O1	O	1.013707	0.131067	-0.066175
O2	O	1.513707	0.631067	0.433825
O3	O	0.794582	0.148119	-0.066201
O4	O	1.294582	0.648119	0.433799
O5	O	0.899286	-0.011297	-0.066184
O6	O	1.399286	0.488703	0.433816
O7	O	0.909003	0.290484	-0.066192
O8	O	1.409003	0.790484	0.433808
O9	O	0.899269	-0.011307	0.066393
O10	O	1.399269	0.488693	0.566393
O11	O	0.794565	0.148110	0.066376
O12	O	1.294565	0.648110	0.566376
O13	O	1.013691	0.131057	0.066401
O14	O	1.513691	0.631057	0.566401
Zn15	Zn	0.904126	0.139582	0.087438
Zn16	Zn	1.404126	0.639582	0.587438
Zn17	Zn	0.904147	0.139595	-0.087237
Zn18	Zn	1.404147	0.639595	0.412763
O19	O	0.908987	0.290474	0.066384
O20	O	1.408987	0.790474	0.566384
C21	C	0.766332	0.147503	0.000084
C22	C	1.266332	0.647503	0.500084
C23	C	0.682179	0.145670	0.000074
C24	C	1.182179	0.645670	0.500074
C25	C	0.895995	-0.049915	0.000104
C26	C	1.395995	0.450085	0.500104
C27	C	0.886204	-0.164967	0.000101
C28	C	1.386204	0.335033	0.500101
C29	C	0.640432	0.239245	0.000072
C30	C	1.140432	0.739245	0.500072
C31	C	0.561362	0.237516	0.000082
C32	C	1.061362	0.737516	0.500082
C33	C	0.524040	0.142212	0.000089
C34	C	1.024040	0.642212	0.500089
C35	C	0.565792	0.048631	0.000094
C36	C	1.065792	0.548631	0.500094
C37	C	0.644861	0.050360	0.000089
C38	C	1.144861	0.550360	0.500089
C39	C	0.246916	0.041653	0.000114
C40	C	0.746916	0.541653	0.500114
C41	C	0.167842	0.039931	0.000116
C42	C	0.667842	0.539931	0.500116
C43	C	0.163418	0.228809	0.000107
C44	C	0.663418	0.728809	0.500107
C45	C	0.242486	0.230539	0.000102
C46	C	0.742486	0.730539	0.500102
C47	C	0.284232	0.136958	0.000111
C48	C	0.784232	0.636958	0.500111
C49	C	0.369969	0.138833	0.000101
C50	C	0.869969	0.638833	0.500101
C51	C	0.438304	0.140336	0.000093
C52	C	0.938304	0.640336	0.500093
C53	C	1.003908	-0.406222	0.000099
C54	C	1.503908	0.093778	0.500099
C55	C	0.994712	-0.514324	0.000096
C56	C	1.494712	-0.014324	0.500096
C57	C	0.858617	-0.489277	0.000088
C58	C	1.358617	0.010723	0.500088
C59	C	0.867813	-0.381174	0.000091
C60	C	1.367813	0.118826	0.500091
C61	C	0.940461	-0.339651	0.000097
C62	C	1.440461	0.160349	0.500097
C63	C	0.949656	-0.231546	0.000105
C64	C	1.449656	0.268454	0.500105
C65	C	0.813561	-0.206501	0.000092
C66	C	1.313561	0.293499	0.500092
C67	C	0.804365	-0.314604	0.000089
C68	C	1.304365	0.185396	0.500089
C69	C	1.041941	0.131673	0.000115
C70	C	1.541941	0.631673	0.500115
C71	C	1.126094	0.133506	0.000119
C72	C	1.626094	0.633506	0.500119
C73	C	0.912278	0.329091	0.000095
C74	C	1.412278	0.829091	0.500095
C75	C	0.922069	0.444144	0.000092
C76	C	1.422069	0.944144	0.500092
N77	N	0.904117	0.139572	0.206649
N78	N	1.404117	0.639572	0.706649
N79	N	0.904161	0.139596	-0.206449
N80	N	1.404161	0.639596	0.293551
C81	C	0.950497	0.069012	0.248374
C82	C	1.450497	0.569012	0.748374
C83	C	0.950502	0.069011	0.331826
C84	C	1.450502	0.569011	0.831826
C85	C	0.904128	0.139576	0.373552
C86	C	1.404128	0.639576	0.873552
C87	C	0.857742	0.210141	0.331821
C88	C	1.357742	0.710141	0.831821
C89	C	0.857735	0.210136	0.248371
C90	C	1.357735	0.710136	0.748371
C91	C	0.857771	0.210161	0.668369
C92	C	1.357771	0.710161	1.168369
C93	C	0.857784	0.210163	0.751825
C94	C	1.357784	0.710163	1.251825
C95	C	0.950538	0.069036	0.751824
C96	C	1.450538	0.569036	1.251824
C97	C	0.950530	0.069031	0.668373
C98	C	1.450530	0.569031	1.168373
C99	C	0.904142	0.139591	0.626650
C100	C	1.404142	0.639591	1.126650
C101	C	0.904137	0.139590	0.536162
C102	C	1.404137	0.639590	1.036162
C103	C	0.904137	0.139583	0.464039
C104	C	1.404137	0.639583	0.964039
H105	H	0.670814	0.316852	0.000065
H106	H	1.170814	0.816852	0.500065
H107	H	0.745217	-0.348427	0.000081
H108	H	1.245217	0.151573	0.500081
H109	H	0.988263	0.011553	0.214406
H110	H	1.488263	0.511553	0.714406
O111	O	0.745120	-0.134701	0.000087
O112	O	1.245120	0.365299	0.500087
H113	H	0.763717	-0.052553	0.000086
H114	H	1.263717	0.447447	0.500086
H115	H	0.820002	0.267615	0.634404
H116	H	1.320002	0.767615	1.134404
O117	O	1.063147	-0.586123	0.000107
O118	O	1.563147	-0.086123	0.500107
H119	H	1.062225	-0.635962	-0.053931
H120	H	1.562225	-0.135962	0.446069
O121	O	0.807715	0.286245	0.203361
O122	O	1.307715	0.786245	0.703361
H123	H	0.775475	0.335322	0.246394
H124	H	1.275475	0.835322	0.746394
H125	H	0.988268	0.011554	0.365798
H126	H	1.488268	0.511554	0.865798
O127	O	1.082259	-0.361427	0.000112
O128	O	1.582259	0.138573	0.500112
H129	H	1.089708	-0.312760	-0.053920
H130	H	1.589708	0.187240	0.446080
O131	O	1.000540	-0.007093	0.623373
O132	O	1.500540	0.492907	1.123373
H133	H	0.992744	0.004761	0.558335
H134	H	1.492744	0.504761	1.058335
O135	O	1.000574	-0.007072	0.796825
O136	O	1.500574	0.492928	1.296825
H137	H	0.985118	-0.087856	0.780811
H138	H	1.485118	0.412144	1.280811
O139	O	0.807778	0.286291	0.796835
O140	O	1.307778	0.786291	1.296835
H141	H	0.775520	0.335357	0.753803
H142	H	1.275520	0.835357	1.253803
O143	O	0.525542	-0.054165	0.000108
O144	O	1.025542	0.445835	0.500108
H145	H	0.489628	-0.059477	-0.053928
H146	H	0.989628	0.440523	0.446072
O147	O	0.282737	0.333334	0.000106
O148	O	0.782737	0.833334	0.500106
H149	H	0.266495	0.378304	-0.053924
H150	H	0.766495	0.878304	0.446076
O151	O	0.807727	0.286259	0.376820
O152	O	1.307727	0.786259	0.876820
H153	H	0.815530	0.274418	0.441859
H154	H	1.315530	0.774418	0.941859
H155	H	0.129419	0.305007	0.000104
H156	H	0.629419	0.805007	0.500104
H157	H	0.799470	-0.523105	0.000075
H158	H	1.299470	-0.023105	0.500075
H159	H	0.527375	0.313714	0.000079
H160	H	1.027375	0.813714	0.500079
H161	H	0.280896	-0.034546	0.000122
H162	H	0.780896	0.465454	0.500122
O163	O	0.127586	-0.062868	0.000139
O164	O	0.627586	0.437132	0.500139
H165	H	0.143825	-0.107837	-0.053886
H166	H	0.643825	0.392163	0.446114
O167	O	0.689895	-0.050564	0.000095
O168	O	1.189895	0.449436	0.500095
H169	H	0.675788	-0.096180	-0.053941
H170	H	1.175788	0.403820	0.446059
O171	O	1.028007	-0.186752	0.000102
O172	O	1.528007	0.313248	0.500102
H173	H	1.070580	-0.251209	0.000091
H174	H	1.570580	0.248791	0.500091
