data_functionalizedCrystal
_audit_creation_method	'MofGen! by Chris Wilmer'
_symmetry_space_group_name_H-M	'P1'
_symmetry_Int_Tables_number	1
_symmetry_cell_setting	triclinic
loop_
_symmetry_equiv_pos_as_xyz
  x,y,z
_cell_length_a	19.077105
_cell_length_b	12.759394
_cell_length_c	19.076929
_cell_angle_alpha	92.271260
_cell_angle_beta	90.078300
_cell_angle_gamma	87.711291
loop_
_atom_site_label
_atom_site_type_symbol
_atom_site_fract_x
_atom_site_fract_y
_atom_site_fract_z
Zn1	Zn	1.058310	-0.508242	-0.440431
Zn2	Zn	1.062973	-0.677178	-0.322929
Zn3	Zn	0.945531	-0.494177	-0.318224
Zn4	Zn	0.940791	-0.676536	-0.435681
O5	O	1.001901	-0.589033	-0.379316
O6	O	1.157261	-0.536807	-0.428800
O7	O	1.051330	-0.647285	-0.223973
O8	O	0.960524	-0.349025	-0.334454
O9	O	1.160687	-0.660923	-0.342472
O10	O	1.043382	-0.359358	-0.424238
O11	O	0.965045	-0.512835	-0.220517
O12	O	0.846570	-0.512212	-0.329848
O13	O	0.952444	-0.659829	-0.534642
O14	O	0.843087	-0.646190	-0.416143
O15	O	1.038785	-0.536184	-0.538132
O16	O	1.046733	-0.824111	-0.337867
O17	O	0.956966	-0.823639	-0.420705
C18	C	0.819332	-0.577606	-0.371970
C19	C	0.741227	-0.572744	-0.368844
C20	C	0.702742	-0.640312	-0.412234
C21	C	0.629354	-0.635730	-0.409301
C22	C	0.594454	-0.563584	-0.362973
C23	C	0.632944	-0.496008	-0.319581
C24	C	0.706331	-0.500586	-0.322519
C25	C	0.375164	-0.542397	-0.349380
C26	C	0.301773	-0.537826	-0.346444
C27	C	0.298188	-0.677547	-0.436165
C28	C	0.371575	-0.682123	-0.439095
C29	C	0.410060	-0.614544	-0.395706
N30	N	0.519440	-0.558901	-0.359971
N31	N	0.485072	-0.619223	-0.398712
C32	C	1.001860	-0.861997	-0.379297
C33	C	1.001905	-0.978778	-0.379315
C34	C	1.095445	-0.979224	-0.293126
C35	C	1.142232	-1.034309	-0.250040
C36	C	1.142273	-1.144034	-0.250060
C37	C	1.095522	-1.198677	-0.293173
C38	C	1.048734	-1.143591	-0.336259
C39	C	1.048697	-1.033863	-0.336232
C40	C	0.955200	-1.143146	-0.422452
C41	C	0.955155	-1.033420	-0.422428
C42	C	0.908449	-1.197788	-0.465565
C43	C	0.861657	-1.142702	-0.508648
C44	C	0.861618	-1.032970	-0.508625
C45	C	0.908367	-0.978335	-0.465514
C46	C	1.185183	-0.600506	-0.386691
C47	C	1.263287	-0.605394	-0.389834
C48	C	0.994566	-0.599504	-0.562596
C49	C	0.991440	-0.603965	-0.640699
C50	C	1.001961	-0.315005	-0.379351
C51	C	1.001987	-0.198231	-0.379366
C52	C	0.969025	-0.636051	-1.080142
C53	C	0.971959	-0.631843	-1.006755
C54	C	1.018383	-0.565370	-0.971883
C55	C	1.061870	-0.503093	-1.010400
C56	C	1.058932	-0.507296	-1.083785
C57	C	1.031989	-0.545892	-0.752601
C58	C	1.034925	-0.541696	-0.679211
C59	C	0.945013	-0.670444	-0.675572
C60	C	0.942082	-0.674646	-0.748958
C61	C	0.985566	-0.612365	-0.787469
N62	N	1.021385	-0.561070	-0.896870
N63	N	0.982560	-0.616661	-0.862480
C64	C	1.009248	-0.578530	-0.196751
C65	C	1.012510	-0.573781	-0.118654
H66	H	0.731152	-0.699065	-0.449957
H67	H	0.908488	-1.287133	-0.465582
H68	H	0.406490	-0.487377	-0.314044
C69	C	0.908332	-0.857634	-0.465488
N70	N	0.908311	-0.766721	-0.465470
C71	C	1.095398	-0.858522	-0.293092
N72	N	1.095365	-0.767608	-0.293066
C73	C	1.085997	-0.468565	-0.640853
N74	N	1.124462	-0.413488	-0.611961
H75	H	0.399986	-0.740874	-0.476819
C76	C	0.748665	-0.426258	-0.274784
N77	N	0.780550	-0.370270	-0.238831
C78	C	0.810235	-1.202815	-0.556065
N79	N	0.771502	-1.248097	-0.591779
C80	C	1.112935	-0.429969	-0.972037
N81	N	1.151400	-0.374893	-0.943143
H82	H	0.823520	-0.988126	-0.543713
C83	C	0.594551	-0.416644	-0.268621
N84	N	0.565634	-0.356868	-0.230236
C85	C	1.106771	-0.438797	-1.126148
N86	N	1.142804	-0.387199	-1.158055
C87	C	1.193740	-1.204630	-0.202664
N88	N	1.232505	-1.250270	-0.166964
C89	C	0.587023	-0.710080	-0.457020
N90	N	0.555141	-0.766091	-0.492960
H91	H	0.266846	-0.732565	-0.471491
C92	C	0.917954	-0.709176	-1.118495
N93	N	0.879484	-0.764253	-1.147380
H94	H	1.095565	-1.288022	-0.293193
C95	C	0.263384	-0.458455	-0.295478
N96	N	0.234470	-0.398677	-0.257092
C97	C	1.193654	-0.974194	-0.202616
N98	N	1.232384	-0.928918	-0.166896
C99	C	0.924117	-0.700338	-0.964395
N100	N	0.888078	-0.751928	-0.932490
H101	H	0.904279	-0.728776	-0.777346
C102	C	0.897177	-0.738939	-0.633204
N103	N	0.861142	-0.790527	-0.601292
H104	H	1.067401	-0.495184	-0.783948
