data_functionalizedCrystal
_audit_creation_method	'MofGen! by Chris Wilmer'
_symmetry_space_group_name_H-M	'P1'
_symmetry_Int_Tables_number	1
_symmetry_cell_setting	triclinic
loop_
_symmetry_equiv_pos_as_xyz
  x,y,z
_cell_length_a	16.992694
_cell_length_b	13.596369
_cell_length_c	14.519709
_cell_angle_alpha	90.013196
_cell_angle_beta	92.825815
_cell_angle_gamma	90.012208
loop_
_atom_site_label
_atom_site_type_symbol
_atom_site_fract_x
_atom_site_fract_y
_atom_site_fract_z
O1	O	1.040653	-0.081699	-0.195571
O2	O	1.290653	0.168301	0.054429
O3	O	1.540653	0.418301	0.304429
O4	O	1.790653	0.668301	0.554429
O5	O	0.812365	-0.081728	-0.193425
O6	O	1.062365	0.168272	0.056575
O7	O	1.312365	0.418272	0.306575
O8	O	1.562365	0.668272	0.556575
O9	O	0.932562	-0.081685	-0.060694
O10	O	1.182562	0.168315	0.189306
O11	O	1.432562	0.418315	0.439306
O12	O	1.682562	0.668315	0.689306
O13	O	0.920456	-0.081742	-0.328302
O14	O	1.170456	0.168258	-0.078302
O15	O	1.420456	0.418258	0.171698
O16	O	1.670456	0.668258	0.421698
O17	O	0.932576	0.081898	-0.060687
O18	O	1.182576	0.331898	0.189313
O19	O	1.432576	0.581898	0.439313
O20	O	1.682576	0.831898	0.689313
O21	O	0.812379	0.081855	-0.193419
O22	O	1.062379	0.331855	0.056581
O23	O	1.312379	0.581855	0.306581
O24	O	1.562379	0.831855	0.556581
O25	O	1.040668	0.081884	-0.195564
O26	O	1.290668	0.331884	0.054436
O27	O	1.540668	0.581884	0.304436
O28	O	1.790668	0.831884	0.554436
Zn29	Zn	0.926526	0.107842	-0.194490
Zn30	Zn	1.176526	0.357842	0.055510
Zn31	Zn	1.426526	0.607842	0.305510
Zn32	Zn	1.676526	0.857842	0.555510
Zn33	Zn	0.926506	-0.107686	-0.194499
Zn34	Zn	1.176506	0.142314	0.055501
Zn35	Zn	1.426506	0.392314	0.305501
Zn36	Zn	1.676506	0.642314	0.555501
O37	O	0.920471	0.081841	-0.328296
O38	O	1.170471	0.331841	-0.078296
O39	O	1.420471	0.581841	0.171704
O40	O	1.670471	0.831841	0.421704
C41	C	0.783156	0.000060	-0.190662
C42	C	1.033156	0.250060	0.059338
C43	C	1.283156	0.500060	0.309338
C44	C	1.533156	0.750060	0.559338
C45	C	0.696100	0.000051	-0.182427
C46	C	0.946100	0.250051	0.067573
C47	C	1.196100	0.500051	0.317573
C48	C	1.446100	0.750051	0.567573
C49	C	0.645971	0.000035	-0.261887
C50	C	0.895971	0.250035	-0.011887
C51	C	1.145971	0.500035	0.238113
C52	C	1.395971	0.750035	0.488113
C53	C	0.564173	0.000050	-0.254143
C54	C	0.814173	0.250050	-0.004143
C55	C	1.064173	0.500050	0.245857
C56	C	1.314173	0.750050	0.495857
C57	C	0.532507	0.000074	-0.166939
C58	C	0.782507	0.250074	0.083061
C59	C	1.032507	0.500074	0.333061
C60	C	1.282507	0.750074	0.583061
C61	C	0.582642	0.000093	-0.087473
C62	C	0.832642	0.250093	0.162527
C63	C	1.082642	0.500093	0.412527
C64	C	1.332642	0.750093	0.662527
C65	C	0.664438	0.000085	-0.095217
C66	C	0.914438	0.250085	0.154783
C67	C	1.164438	0.500085	0.404783
C68	C	1.414438	0.750085	0.654783
C69	C	0.288864	0.000107	-0.134842
C70	C	0.538864	0.250107	0.115158
C71	C	0.788864	0.500107	0.365158
C72	C	1.038864	0.750107	0.615158
C73	C	0.207062	0.000113	-0.127103
C74	C	0.457062	0.250113	0.122897
C75	C	0.707062	0.500113	0.372897
C76	C	0.957062	0.750113	0.622897
C77	C	0.188598	0.000071	-0.293774
C78	C	0.438598	0.250071	-0.043774
C79	C	0.688598	0.500071	0.206226
C80	C	0.938598	0.750071	0.456226
C81	C	0.270397	0.000057	-0.301511
C82	C	0.520397	0.250057	-0.051511
C83	C	0.770397	0.500057	0.198489
C84	C	1.020397	0.750057	0.448489
C85	C	0.320525	0.000081	-0.222045
C86	C	0.570525	0.250081	0.027955
C87	C	0.820525	0.500081	0.277955
C88	C	1.070525	0.750081	0.527955
N89	N	0.448897	0.000087	-0.159022
N90	N	0.698897	0.250087	0.090978
N91	N	0.948897	0.500087	0.340978
N92	N	1.198897	0.750087	0.590978
N93	N	0.404133	0.000076	-0.229963
N94	N	0.654133	0.250076	0.020037
N95	N	0.904133	0.500076	0.270037
N96	N	1.154133	0.750076	0.520037
N97	N	0.926494	-0.254778	-0.194499
N98	N	1.176494	-0.004778	0.055501
N99	N	1.426494	0.245222	0.305501
N100	N	1.676494	0.495222	0.555501
C101	C	0.926496	-0.343775	-0.194500
C102	C	1.176496	-0.093775	0.055500
C103	C	1.426496	0.156225	0.305500
C104	C	1.676496	0.406225	0.555500
C105	C	0.926508	-0.455427	-0.194498
C106	C	1.176508	-0.205427	0.055502
C107	C	1.426508	0.044573	0.305502
C108	C	1.676508	0.294573	0.555502
C109	C	0.926521	-0.544417	-0.194493
C110	C	1.176521	-0.294417	0.055507
C111	C	1.426521	-0.044417	0.305507
C112	C	1.676521	0.205583	0.555507
C113	C	0.926532	-0.656076	-0.194490
C114	C	1.176532	-0.406076	0.055510
C115	C	1.426532	-0.156076	0.305510
C116	C	1.676532	0.093924	0.555510
C117	C	1.069877	0.000093	-0.198328
C118	C	1.319877	0.250093	0.051672
C119	C	1.569877	0.500093	0.301672
C120	C	1.819877	0.750093	0.551672
C121	C	1.156932	0.000097	-0.206563
C122	C	1.406932	0.250097	0.043437
C123	C	1.656932	0.500097	0.293437
C124	C	1.906932	0.750097	0.543437
C125	C	0.932005	0.000111	-0.026290
C126	C	1.182005	0.250111	0.223710
C127	C	1.432005	0.500111	0.473710
C128	C	1.682005	0.750111	0.723710
C129	C	0.930314	0.000126	0.076212
C130	C	1.180314	0.250126	0.326212
C131	C	1.430314	0.500126	0.576212
C132	C	1.680314	0.750126	0.826212
N133	N	0.926545	0.254934	-0.194484
N134	N	1.176545	0.504934	0.055516
N135	N	1.426545	0.754934	0.305516
N136	N	1.676545	1.004934	0.555516
C137	C	0.924090	0.000152	0.451555
C138	C	1.174090	0.250152	0.701555
C139	C	1.424090	0.500152	0.951555
C140	C	1.674090	0.750152	1.201555
C141	C	0.925819	0.000145	0.347123
C142	C	1.175819	0.250145	0.597123
C143	C	1.425819	0.500145	0.847123
C144	C	1.675819	0.750145	1.097123
C145	C	0.927202	0.000140	0.263887
C146	C	1.177202	0.250140	0.513887
C147	C	1.427202	0.500140	0.763887
C148	C	1.677202	0.750140	1.013887
C149	C	0.928931	0.000131	0.159448
C150	C	1.178931	0.250131	0.409448
C151	C	1.428931	0.500131	0.659448
C152	C	1.678931	0.750131	0.909448
C153	C	0.921028	0.000078	0.637301
C154	C	1.171028	0.250078	0.887301
C155	C	1.421028	0.500078	1.137301
C156	C	1.671028	0.750078	1.387301
C157	C	0.922718	0.000161	0.534798
C158	C	1.172718	0.250161	0.784798
C159	C	1.422718	0.500161	1.034798
C160	C	1.672718	0.750161	1.284798
H161	H	0.181282	0.000131	-0.056088
H162	H	0.431282	0.250131	0.193912
H163	H	0.681282	0.500131	0.443912
H164	H	0.931282	0.750131	0.693912
C165	C	0.343994	0.000127	-0.047432
C166	C	0.593994	0.250127	0.202568
C167	C	0.843994	0.500127	0.452568
C168	C	1.093994	0.750127	0.702568
H169	H	0.313417	0.000132	0.005610
H170	H	0.563417	0.250132	0.255610
H171	H	0.813417	0.500132	0.505610
H172	H	1.063417	0.750132	0.755610
H173	H	0.376298	0.057171	-0.046984
H174	H	0.626298	0.307171	0.203016
H175	H	0.876298	0.557171	0.453016
H176	H	1.126298	0.807171	0.703016
H177	H	0.376275	-0.056926	-0.046988
H178	H	0.626275	0.193074	0.203012
H179	H	0.876275	0.443074	0.453012
H180	H	1.126275	0.693074	0.703012
C181	C	0.305225	0.000045	-0.397435
C182	C	0.555225	0.250045	-0.147435
C183	C	0.805225	0.500045	0.102565
C184	C	1.055225	0.750045	0.352565
H185	H	0.263654	0.000048	-0.443651
H186	H	0.513654	0.250048	-0.193651
H187	H	0.763654	0.500048	0.056349
H188	H	1.013654	0.750048	0.306349
H189	H	0.336740	-0.057001	-0.403928
H190	H	0.586740	0.192999	-0.153928
H191	H	0.836740	0.442999	0.096072
H192	H	1.086740	0.692999	0.346072
H193	H	0.336759	0.057096	-0.403911
H194	H	0.586759	0.307096	-0.153911
H195	H	0.836759	0.557096	0.096089
H196	H	1.086759	0.807096	0.346089
H197	H	0.523361	0.000036	-0.318848
H198	H	0.773361	0.250036	-0.068848
H199	H	1.023361	0.500036	0.181152
H200	H	1.273361	0.750036	0.431152
H201	H	0.671747	0.000014	-0.332897
H202	H	0.921747	0.250014	-0.082897
H203	H	1.171747	0.500014	0.167103
H204	H	1.421747	0.750014	0.417103
C205	C	0.547811	0.000118	0.008450
C206	C	0.797811	0.250118	0.258450
C207	C	1.047811	0.500118	0.508450
C208	C	1.297811	0.750118	0.758450
H209	H	0.491916	0.000110	0.001683
H210	H	0.741916	0.250110	0.251683
H211	H	0.991916	0.500110	0.501683
H212	H	1.241916	0.750110	0.751683
H213	H	0.565021	0.057168	0.041425
H214	H	0.815021	0.307168	0.291425
H215	H	1.065021	0.557168	0.541425
H216	H	1.315021	0.807168	0.791425
H217	H	0.564999	-0.056929	0.041416
H218	H	0.814999	0.193071	0.291416
H219	H	1.064999	0.443071	0.541416
H220	H	1.314999	0.693071	0.791416
H221	H	0.147776	0.000054	-0.358470
H222	H	0.397776	0.250054	-0.108470
H223	H	0.647776	0.500054	0.141530
H224	H	0.897776	0.750054	0.391530
H225	H	0.705253	0.000098	-0.030512
H226	H	0.955253	0.250098	0.219488
H227	H	1.205253	0.500098	0.469488
H228	H	1.455253	0.750098	0.719488
