data_functionalizedCrystal
_audit_creation_method	'MofGen! by Chris Wilmer'
_symmetry_space_group_name_H-M	'P1'
_symmetry_Int_Tables_number	1
_symmetry_cell_setting	triclinic
loop_
_symmetry_equiv_pos_as_xyz
  x,y,z
_cell_length_a	16.625547
_cell_length_b	18.101396
_cell_length_c	16.625539
_cell_angle_alpha	90.027016
_cell_angle_beta	89.975178
_cell_angle_gamma	89.963039
loop_
_atom_site_label
_atom_site_type_symbol
_atom_site_fract_x
_atom_site_fract_y
_atom_site_fract_z
Zn1	Zn	1.232599	0.294829	-0.456008
Zn2	Zn	1.732599	0.794829	0.043992
Zn3	Zn	1.232468	0.418679	-0.321178
Zn4	Zn	1.732468	0.918679	0.178822
Zn5	Zn	1.097761	0.294855	-0.321179
Zn6	Zn	1.597761	0.794855	0.178821
Zn7	Zn	1.097697	0.418634	-0.455958
Zn8	Zn	1.597697	0.918634	0.044042
O9	O	1.165131	0.356749	-0.388581
O10	O	1.665131	0.856749	0.111419
O11	O	1.345414	0.311266	-0.438143
O12	O	1.845414	0.811266	0.061857
O13	O	1.214571	0.402283	-0.208346
O14	O	1.714571	0.902283	0.291654
O15	O	1.115729	0.191219	-0.339085
O16	O	1.615729	0.691219	0.160915
O17	O	1.345318	0.402258	-0.339085
O18	O	1.845318	0.902258	0.160915
O19	O	1.214794	0.191200	-0.438144
O20	O	1.714794	0.691200	0.061856
O21	O	1.115602	0.311310	-0.208346
O22	O	1.615602	0.811310	0.291654
O23	O	0.984920	0.311267	-0.339037
O24	O	1.484920	0.811267	0.160963
O25	O	1.115620	0.402181	-0.568797
O26	O	1.615620	0.902181	-0.068797
O27	O	0.984873	0.402206	-0.438059
O28	O	1.484873	0.902206	0.061941
O29	O	1.214732	0.311223	-0.568834
O30	O	1.714732	0.811223	-0.068834
O31	O	1.214509	0.522306	-0.339036
O32	O	1.714509	1.022306	0.160964
O33	O	1.115493	0.522272	-0.438058
O34	O	1.615493	1.022272	0.061942
C35	C	0.955640	0.356735	-0.388543
C36	C	1.455640	0.856735	0.111457
C37	C	0.866019	0.356747	-0.388545
C38	C	1.366019	0.856747	0.111455
C39	C	1.165002	0.549160	-0.388559
C40	C	1.665002	1.049160	0.111441
C41	C	1.165020	0.631474	-0.388577
C42	C	1.665020	1.131474	0.111423
C43	C	0.793237	0.356748	-0.388555
C44	C	1.293237	0.856748	0.111445
C45	C	0.701928	0.356752	-0.388576
C46	C	1.201928	0.856752	0.111424
C47	C	0.629152	0.356759	-0.388596
C48	C	1.129152	0.856759	0.111404
C49	C	0.537838	0.356764	-0.388615
C50	C	1.037838	0.856764	0.111385
C51	C	1.165163	0.930565	-0.388624
C52	C	1.665163	1.430565	0.111376
C53	C	1.103013	0.899250	-0.451081
C54	C	1.603013	1.399250	0.048919
C55	C	1.102728	0.813632	-0.450884
C56	C	1.602728	1.313632	0.049116
C57	C	1.165092	0.782182	-0.388602
C58	C	1.665092	1.282182	0.111398
C59	C	1.142081	0.813334	-0.303622
C60	C	1.642081	1.313334	0.196378
C61	C	1.141671	0.898979	-0.303997
C62	C	1.641671	1.398979	0.196003
C63	C	1.250464	0.898908	-0.410399
C64	C	1.750464	1.398908	0.089601
C65	C	1.249972	0.813257	-0.412261
C66	C	1.749972	1.313257	0.087739
C67	C	1.165053	0.698323	-0.388584
C68	C	1.665053	1.198323	0.111416
C69	C	1.165200	1.014424	-0.388636
C70	C	1.665200	1.514424	0.111364
C71	C	1.375440	0.356764	-0.388619
C72	C	1.875440	0.856764	0.111381
C73	C	1.465061	0.356771	-0.388636
C74	C	1.965061	0.856771	0.111364
C75	C	1.165184	0.356694	-0.598890
C76	C	1.665184	0.856694	-0.098890
C77	C	1.165206	0.356671	-0.688511
C78	C	1.665206	0.856671	-0.188511
C79	C	1.165255	1.163587	-0.388623
C80	C	1.665255	1.663587	0.111377
C81	C	1.165235	1.081273	-0.388649
C82	C	1.665235	1.581273	0.111351
C83	C	1.165243	0.356588	-1.016687
C84	C	1.665243	0.856588	-0.516687
C85	C	1.165231	0.356613	-0.925378
C86	C	1.665231	0.856613	-0.425378
C87	C	1.165225	0.356630	-0.852602
C88	C	1.665225	0.856630	-0.352602
C89	C	1.165212	0.356654	-0.761287
C90	C	1.665212	0.856654	-0.261287
C91	C	1.165125	0.356751	-0.179090
C92	C	1.665125	0.856751	0.320910
C93	C	1.165259	0.356566	-0.089469
C94	C	1.665259	0.856566	0.410531
H95	H	1.117125	0.792567	-0.513895
H96	H	1.617125	1.292567	-0.013895
C97	C	1.058738	0.784453	-0.278259
C98	C	1.558738	1.284453	0.221741
N99	N	0.995962	0.762701	-0.259161
N100	N	1.495962	1.262701	0.240839
C101	C	1.315846	0.784334	-0.355284
C102	C	1.815846	1.284334	0.144716
N103	N	1.365460	0.762550	-0.312360
N104	N	1.865460	1.262550	0.187640
C105	C	1.057432	0.926058	-0.279085
C106	C	1.557432	1.426058	0.220915
N107	N	0.993981	0.946451	-0.260323
N108	N	1.493981	1.446451	0.239677
C109	C	1.278795	0.928013	-0.492691
C110	C	1.778795	1.428013	0.007309
N111	N	1.300124	0.949935	-0.554677
N112	N	1.800124	1.449935	-0.054677
H113	H	1.296768	0.919159	-0.364909
H114	H	1.796768	1.419159	0.135091
C115	C	1.122257	0.927014	-0.536484
C116	C	1.622257	1.427014	-0.036484
N117	N	1.136751	0.947933	-0.600811
N118	N	1.636751	1.447933	-0.100811
C119	C	1.017304	0.786038	-0.431456
C120	C	1.517304	1.286038	0.068544
N121	N	0.952954	0.765254	-0.416843
N122	N	1.452954	1.265254	0.083157
C123	C	1.018113	0.928402	-0.431834
C124	C	1.518113	1.428402	0.068166
N125	N	0.954166	0.950357	-0.417333
N126	N	1.454166	1.450357	0.082667
H127	H	1.184975	0.919697	-0.255875
H128	H	1.684975	1.419697	0.244125
H129	H	1.267324	0.792894	-0.474801
H130	H	1.767324	1.292894	0.025199
C131	C	1.201312	0.785811	-0.239037
C132	C	1.701312	1.285811	0.260963
N133	N	1.245924	0.765077	-0.190392
N134	N	1.745924	1.265077	0.309608
