data_functionalizedCrystal
_audit_creation_method	'MofGen! by Chris Wilmer'
_symmetry_space_group_name_H-M	'P1'
_symmetry_Int_Tables_number	1
_symmetry_cell_setting	triclinic
loop_
_symmetry_equiv_pos_as_xyz
  x,y,z
_cell_length_a	9.065215
_cell_length_b	16.974813
_cell_length_c	8.140239
_cell_angle_alpha	86.341924
_cell_angle_beta	89.997810
_cell_angle_gamma	84.203340
loop_
_atom_site_label
_atom_site_type_symbol
_atom_site_fract_x
_atom_site_fract_y
_atom_site_fract_z
O1	O	1.957274	0.115924	-0.152003
O2	O	1.527733	0.125436	-0.153275
O3	O	1.754478	0.005662	-0.137340
O4	O	1.730529	0.235698	-0.167938
O5	O	1.754466	0.005661	0.135887
O6	O	1.527720	0.125435	0.119952
O7	O	1.957262	0.115923	0.121224
Zn8	Zn	1.742489	0.120678	0.163969
Zn9	Zn	1.742505	0.120680	-0.196020
O10	O	1.730516	0.235696	0.105289
C11	C	1.472764	0.124522	-0.016541
C12	C	1.308995	0.121790	-0.016180
C13	C	1.753561	-0.023803	0.003189
C14	C	1.750829	-0.111600	0.014857
C15	C	1.749555	-0.152841	-0.128597
C16	C	1.746979	-0.235334	-0.117629
C17	C	1.745686	-0.276585	0.036795
C18	C	1.746955	-0.235338	0.180259
C19	C	1.749521	-0.152845	0.169289
C20	C	1.738001	-0.523301	0.085573
C21	C	1.735439	-0.605800	0.096532
C22	C	1.735460	-0.605791	-0.201357
C23	C	1.738035	-0.523297	-0.212313
C24	C	1.739296	-0.482056	-0.068849
N25	N	1.743057	-0.360907	0.048009
N26	N	1.741915	-0.397735	-0.080065
C27	C	2.012230	0.116837	-0.015514
C28	C	2.176000	0.119569	-0.015885
C29	C	1.731433	0.265162	-0.035244
C30	C	1.734166	0.352958	-0.046922
N31	N	1.742489	0.120677	0.409652
N32	N	1.742518	0.120676	-0.441702
H33	H	1.745948	-0.268910	-0.234444
C34	C	1.879174	-0.068036	-0.312704
C35	C	1.750951	-0.107494	-0.298339
H36	H	1.880025	-0.040043	-0.417501
H37	H	1.880300	-0.031674	-0.228841
H38	H	1.964158	-0.105634	-0.301539
H39	H	1.665966	-0.069894	-0.309492
H40	H	1.749811	-0.143859	-0.382226
H41	H	1.734430	-0.639378	-0.318158
H42	H	1.734379	-0.639384	0.222288
H43	H	1.745894	-0.268930	0.305994
C44	C	1.737804	-0.531614	0.381120
C45	C	1.739448	-0.477980	0.243268
H46	H	1.738721	-0.503631	0.478477
H47	H	1.650809	-0.558364	0.378509
H48	H	1.822786	-0.569211	0.379873
H49	H	1.654461	-0.440386	0.244508
H50	H	1.826453	-0.451216	0.245880
C51	C	1.623520	-0.119470	0.418730
C52	C	1.750908	-0.107505	0.326973
H53	H	1.624374	-0.091481	0.516083
H54	H	1.537978	-0.100541	0.354999
H55	H	1.621831	-0.174505	0.447361
H56	H	1.752592	-0.052470	0.298332
H57	H	1.836473	-0.126431	0.390718
C58	C	1.611928	-0.490062	-0.470567
C59	C	1.739348	-0.478023	-0.382140
H60	H	1.612713	-0.462128	-0.575430
H61	H	1.610257	-0.545104	-0.484402
H62	H	1.526398	-0.471106	-0.411845
H63	H	1.824879	-0.496984	-0.440856
H64	H	1.741033	-0.422970	-0.368310
