data_functionalizedCrystal
_audit_creation_method	'MofGen! by Chris Wilmer'
_symmetry_space_group_name_H-M	'P1'
_symmetry_Int_Tables_number	1
_symmetry_cell_setting	triclinic
loop_
_symmetry_equiv_pos_as_xyz
  x,y,z
_cell_length_a	14.519709
_cell_length_b	10.654550
_cell_length_c	9.130313
_cell_angle_alpha	89.996220
_cell_angle_beta	89.995060
_cell_angle_gamma	95.917476
loop_
_atom_site_label
_atom_site_type_symbol
_atom_site_fract_x
_atom_site_fract_y
_atom_site_fract_z
O1	O	-0.129528	1.666589	-0.121898
O2	O	-0.141869	1.300991	-0.121872
O3	O	-0.001510	1.493483	-0.121899
O4	O	-0.269887	1.474097	-0.121871
O5	O	-0.001514	1.493481	0.121700
O6	O	-0.141873	1.300989	0.121727
O7	O	-0.129532	1.666586	0.121701
Cu8	Cu	-0.135703	1.483787	0.143957
Cu9	Cu	-0.135698	1.483790	-0.144127
O10	O	-0.269891	1.474094	0.121728
C11	C	-0.140965	1.254201	-0.000070
C12	C	-0.138254	1.114784	-0.000061
C13	C	-0.220895	1.034504	-0.000074
C14	C	-0.218342	0.903507	-0.000099
C15	C	-0.050500	0.933085	-0.000106
C16	C	-0.053054	1.064078	-0.000069
C17	C	-0.317797	1.017426	-0.000076
C18	C	-0.315244	0.886430	-0.000102
C19	C	-0.304253	1.474999	-0.000068
C20	C	-0.406648	1.477707	-0.000058
C21	C	-0.781596	1.487674	-0.000117
C22	C	-0.677274	1.484906	-0.000100
C23	C	-0.594125	1.482690	-0.000086
C24	C	-0.489797	1.479922	-0.000072
C25	C	0.032852	1.492579	-0.000106
C26	C	0.135247	1.489871	-0.000125
C27	C	-0.130436	1.713377	-0.000104
C28	C	-0.133147	1.852794	-0.000123
N29	N	-0.135705	1.483795	0.346579
N30	N	-0.135688	1.483793	-0.346750
C31	C	-0.073576	1.569052	0.423219
C32	C	-0.073565	1.569048	0.576556
C33	C	-0.197821	1.398527	0.576599
C34	C	-0.197827	1.398525	0.423265
C35	C	-0.001840	1.667505	0.423196
C36	C	-0.001829	1.667502	0.576532
H37	H	-0.348651	1.052786	-0.105245
C38	C	0.036641	1.151305	0.000258
C39	C	0.040077	1.227316	0.125624
C40	C	0.122698	1.307675	0.125985
H41	H	0.039227	1.203162	-0.084577
H42	H	0.087773	1.102389	0.000323
H43	H	-0.011041	1.276228	0.125545
H44	H	0.037506	1.175493	0.210478
H45	H	0.173830	1.258759	0.126050
H46	H	0.125277	1.359523	0.041145
H47	H	0.125044	1.359250	0.211050
H48	H	-0.355697	1.046392	0.101879
H49	H	-0.344531	0.840476	0.105069
H50	H	-0.024302	1.758473	0.375633
H51	H	-0.248398	1.329102	0.639054
C52	C	-0.363921	0.830552	-0.136157
C53	C	-0.396247	0.927332	-0.219355
C54	C	-0.441083	0.875907	-0.344699
H55	H	-0.414673	0.772088	-0.108030
H56	H	-0.321644	0.788497	-0.192893
H57	H	-0.438522	0.969366	-0.162630
H58	H	-0.345514	0.985803	-0.247520
H59	H	-0.398806	0.833852	-0.401434
H60	H	-0.491831	0.817443	-0.316557
H61	H	-0.463014	0.941565	-0.401170
C62	C	0.087586	1.627758	0.639659
C63	C	0.146806	1.601409	0.525178
C64	C	0.229190	1.564828	0.583276
H65	H	0.074186	1.554456	0.698220
H66	H	0.116711	1.694135	0.698149
H67	H	0.117687	1.535037	0.466713
H68	H	0.160233	1.674693	0.466607
H69	H	0.258315	1.631206	0.641767
H70	H	0.215781	1.491530	0.641838
H71	H	0.269385	1.546957	0.505612
C72	C	-0.265378	1.305894	0.340319
C73	C	-0.319793	1.231246	0.440301
C74	C	-0.382041	1.145907	0.363945
H75	H	-0.231948	1.253434	0.280496
H76	H	-0.304136	1.351109	0.280539
H77	H	-0.281040	1.186034	0.500056
H78	H	-0.353243	1.283671	0.500127
H79	H	-0.420799	1.191122	0.304165
H80	H	-0.348603	1.093456	0.304125
H81	H	-0.418975	1.095256	0.431771
C82	C	-0.022950	1.796046	0.631745
C83	C	-0.035882	1.874677	0.512223
C84	C	-0.055349	1.993091	0.563028
H85	H	0.027299	1.832422	0.689490
H86	H	-0.077649	1.786655	0.689523
H87	H	0.018811	1.884072	0.454469
H88	H	-0.086133	1.838341	0.454466
H89	H	-0.110048	1.983700	0.620806
H90	H	-0.005097	2.029455	0.620773
H91	H	-0.064134	2.046452	0.481941
H92	H	0.069045	1.646744	0.381570
C93	C	0.042065	0.878201	-0.000354
C94	C	0.092086	0.919041	-0.125658
C95	C	0.177367	0.868525	-0.125930
H96	H	0.031883	0.788692	-0.000450
H97	H	0.076175	0.905762	0.084552
H98	H	0.057983	0.891473	-0.210543
H99	H	0.102292	1.008543	-0.125589
H100	H	0.211477	0.896086	-0.041023
H101	H	0.167175	0.779017	-0.126022
H102	H	0.211320	0.896237	-0.210940
