data_functionalizedCrystal
_audit_creation_method	'MofGen! by Chris Wilmer'
_symmetry_space_group_name_H-M	'P1'
_symmetry_Int_Tables_number	1
_symmetry_cell_setting	triclinic
loop_
_symmetry_equiv_pos_as_xyz
  x,y,z
_cell_length_a	11.792254
_cell_length_b	8.559649
_cell_length_c	7.088929
_cell_angle_alpha	84.655815
_cell_angle_beta	96.246827
_cell_angle_gamma	76.988631
loop_
_atom_site_label
_atom_site_type_symbol
_atom_site_fract_x
_atom_site_fract_y
_atom_site_fract_z
O1	O	1.473788	0.235245	-0.158976
O2	O	1.973788	0.735245	0.341024
O3	O	1.141386	0.257778	-0.158979
O4	O	1.641386	0.757778	0.341021
O5	O	1.336872	0.014165	-0.158976
O6	O	1.836872	0.514165	0.341024
O7	O	1.278302	0.478858	-0.158980
O8	O	1.778302	0.978858	0.341020
O9	O	1.363003	-0.018465	0.159000
O10	O	1.863003	0.481535	0.659000
O11	O	1.167517	0.225148	0.158996
O12	O	1.667517	0.725148	0.658996
O13	O	1.499919	0.202615	0.158999
O14	O	1.999919	0.702615	0.658999
Cu15	Cu	1.336104	0.210902	0.188031
Cu16	Cu	1.836104	0.710902	0.688031
Cu17	Cu	1.305201	0.249491	-0.188012
Cu18	Cu	1.805201	0.749491	0.311988
O19	O	1.304433	0.446228	0.158996
O20	O	1.804433	0.946228	0.658996
C21	C	1.354375	-0.061641	0.000009
C22	C	1.854375	0.438359	0.500009
C23	C	1.367587	-0.238905	-0.000002
C24	C	1.867587	0.261095	0.499998
C25	C	1.112290	0.240044	0.000008
C26	C	1.612290	0.740044	0.500008
C27	C	0.986666	0.235795	0.000006
C28	C	1.486666	0.735795	0.500006
C29	C	0.884645	0.232344	-0.000002
C30	C	1.384645	0.732344	0.499998
C31	C	0.756653	0.228028	-0.000003
C32	C	1.256653	0.728028	0.499997
C33	C	1.529014	0.220350	0.000008
C34	C	2.029014	0.720350	0.500008
C35	C	1.654637	0.224599	-0.000003
C36	C	2.154637	0.724599	0.499997
C37	C	1.286928	0.522034	0.000007
C38	C	1.786928	1.022034	0.500007
C39	C	1.273716	0.699299	0.000005
C40	C	1.773716	1.199299	0.500005
N41	N	1.357848	0.183759	0.452520
N42	N	1.857848	0.683759	0.952520
N43	N	1.283467	0.276621	-0.452500
N44	N	1.783467	0.776621	0.047500
H45	H	1.183242	-0.217994	0.000010
H46	H	1.683242	0.282006	0.500010
H47	H	1.206380	0.372853	0.465852
H48	H	1.706380	0.872853	0.965852
H49	H	1.458068	-0.321623	0.000014
H50	H	1.958068	0.178377	0.500014
H51	H	1.434947	0.087532	0.534177
H52	H	1.934947	0.587532	1.034177
