data_functionalizedCrystal
_audit_creation_method	'MofGen! by Chris Wilmer'
_symmetry_space_group_name_H-M	'P1'
_symmetry_Int_Tables_number	1
_symmetry_cell_setting	triclinic
loop_
_symmetry_equiv_pos_as_xyz
  x,y,z
_cell_length_a	11.792241
_cell_length_b	16.992695
_cell_length_c	15.455450
_cell_angle_alpha	87.182305
_cell_angle_beta	92.971874
_cell_angle_gamma	92.569181
loop_
_atom_site_label
_atom_site_type_symbol
_atom_site_fract_x
_atom_site_fract_y
_atom_site_fract_z
O1	O	1.511006	-0.104431	-0.072046
O2	O	1.181570	-0.115510	-0.072066
O3	O	1.344968	0.004177	-0.072049
O4	O	1.347608	-0.224119	-0.072063
O5	O	1.354357	-0.001988	0.072210
O6	O	1.190960	-0.121675	0.072193
O7	O	1.520396	-0.110596	0.072213
Cu8	Cu	1.356535	-0.116699	0.085375
Cu9	Cu	1.345431	-0.109408	-0.085228
O10	O	1.356998	-0.230284	0.072196
C11	C	1.143917	-0.117897	0.000061
C12	C	1.017732	-0.115813	0.000053
N13	N	1.364353	-0.121826	0.205368
C14	C	1.346265	0.030322	0.000080
C15	C	1.336127	0.117409	0.000079
C16	C	0.786708	-0.111984	0.000078
C17	C	0.915267	-0.114112	0.000065
C18	C	1.558049	-0.108210	0.000084
C19	C	1.684233	-0.110293	0.000086
C20	C	1.355701	-0.256428	0.000065
C21	C	1.365838	-0.343515	0.000060
C22	C	1.433945	0.167233	0.000086
C23	C	1.424412	0.249061	0.000077
C24	C	1.317060	0.281062	0.000068
C25	C	1.219234	0.231232	0.000058
C26	C	1.228768	0.149406	0.000061
C27	C	1.277546	0.524828	0.000053
C28	C	1.268020	0.606660	0.000053
C29	C	1.473199	0.624484	0.000071
C30	C	1.482723	0.542656	0.000079
C31	C	1.384897	0.492833	0.000065
N32	N	1.307313	0.364703	0.000062
N33	N	1.394645	0.409194	0.000065
N34	N	1.337621	-0.104274	-0.205221
C35	C	1.294157	-0.075872	0.250786
C36	C	1.300099	-0.079759	0.341592
C37	C	1.376242	-0.129597	0.386978
C38	C	1.446441	-0.175556	0.341554
C39	C	1.440494	-0.171673	0.250750
C40	C	1.401872	-0.146350	0.658551
C41	C	1.407817	-0.150228	0.749362
C42	C	1.261472	-0.054432	0.749393
C43	C	1.255535	-0.050550	0.658587
C44	C	1.325730	-0.096512	0.613171
N45	N	1.382320	-0.133569	0.479796
N46	N	1.319646	-0.092543	0.520354
H47	H	1.504066	0.289625	0.000085
C48	C	1.169936	0.470033	0.000048
C49	C	1.143382	0.414529	-0.074864
C50	C	1.035765	0.359731	-0.074868
C51	C	0.954702	0.360438	0.000039
C52	C	0.981255	0.415944	0.074956
C53	C	1.088872	0.470742	0.074960
H54	H	1.203392	0.414004	-0.130320
H55	H	1.016110	0.318642	-0.130327
H56	H	0.875038	0.319873	0.000036
H57	H	0.921245	0.416469	0.130412
H58	H	1.108527	0.511832	0.130419
H59	H	1.149114	0.108839	0.000055
C60	C	1.580802	0.679290	0.000077
C61	C	1.661869	0.678585	-0.074828
C62	C	1.769478	0.733390	-0.074825
C63	C	1.796021	0.788901	0.000082
C64	C	1.714952	0.789608	0.074993
C65	C	1.607343	0.734803	0.074990
H66	H	1.642223	0.637491	-0.130284
H67	H	1.829491	0.732866	-0.130279
H68	H	1.875679	0.829471	0.000084
H69	H	1.734598	0.830702	0.130449
H70	H	1.547330	0.735326	0.130444
C71	C	1.210397	-0.021048	0.200865
C72	C	1.133179	0.029497	0.250828
C73	C	1.049414	0.084320	0.200909
C74	C	1.042868	0.088598	0.101028
C75	C	1.120089	0.038051	0.051060
C76	C	1.203854	-0.016772	0.100978
H77	H	1.138023	0.026332	0.324771
H78	H	0.992250	0.121738	0.237900
H79	H	0.980860	0.129181	0.064076
H80	H	1.115246	0.041216	-0.022883
H81	H	1.261018	-0.054190	0.063987
H82	H	1.193534	-0.009964	0.621639
C83	C	1.222885	-0.029195	0.391539
C84	C	1.230667	0.061319	0.379048
C85	C	1.153449	0.111889	0.428989
C86	C	1.068449	0.071945	0.491422
C87	C	1.060664	-0.018575	0.503916
C88	C	1.137882	-0.069145	0.453975
H89	H	1.293592	0.090893	0.332829
H90	H	1.159212	0.178898	0.419740
H91	H	1.011287	0.109380	0.528391
H92	H	0.997739	-0.048148	0.550135
H93	H	1.132118	-0.136153	0.463224
C94	C	1.552035	0.132035	0.000096
C95	C	1.591684	0.075040	0.075011
C96	C	1.709777	0.039845	0.075018
C97	C	1.788221	0.061645	0.000111
C98	C	1.748574	0.118644	-0.074809
C99	C	1.630481	0.153839	-0.074816
H100	H	1.533614	0.058900	0.130466
H101	H	1.739126	-0.002349	0.130478
H102	H	1.875641	0.035592	0.000116
H103	H	1.806644	0.134784	-0.130265
H104	H	1.601131	0.196033	-0.130277
H105	H	1.204322	-0.017013	0.786380
C106	C	1.530197	-0.230379	0.391481
C107	C	1.658687	-0.218896	0.378977
C108	C	1.742445	-0.273718	0.428904
C109	C	1.697712	-0.340023	0.491336
C110	C	1.569215	-0.351509	0.503843
C111	C	1.485457	-0.296687	0.453916
H112	H	1.691807	-0.169810	0.332758
H113	H	1.837568	-0.265215	0.419645
H114	H	1.759715	-0.380606	0.528295
H115	H	1.536095	-0.400595	0.550062
H116	H	1.390335	-0.305190	0.463175
H117	H	1.570140	0.516607	0.000087
H118	H	1.180598	0.632712	0.000060
H119	H	1.131825	0.257294	0.000045
H120	H	1.469823	-0.190815	0.786313
H121	H	1.459034	-0.183773	0.621584
H122	H	1.497652	-0.209096	0.213772
