data_functionalizedCrystal
_audit_creation_method	'MofGen! by Chris Wilmer'
_symmetry_space_group_name_H-M	'P1'
_symmetry_Int_Tables_number	1
_symmetry_cell_setting	triclinic
loop_
_symmetry_equiv_pos_as_xyz
  x,y,z
_cell_length_a	16.109302
_cell_length_b	10.654559
_cell_length_c	15.186229
_cell_angle_alpha	89.998852
_cell_angle_beta	89.994701
_cell_angle_gamma	83.975233
loop_
_atom_site_label
_atom_site_type_symbol
_atom_site_fract_x
_atom_site_fract_y
_atom_site_fract_z
O1	O	1.104094	0.161423	-0.073263
O2	O	1.604094	0.661423	0.426737
O3	O	0.862152	0.181510	-0.073256
O4	O	1.362152	0.681510	0.426744
O5	O	0.988681	-0.011348	-0.073259
O6	O	1.488681	0.488652	0.426741
O7	O	0.977564	0.354280	-0.073259
O8	O	1.477564	0.854280	0.426741
O9	O	0.988673	-0.011350	0.073198
O10	O	1.488673	0.488650	0.573198
O11	O	0.862143	0.181507	0.073202
O12	O	1.362143	0.681507	0.573202
O13	O	1.104085	0.161420	0.073194
O14	O	1.604085	0.661420	0.573194
Zn15	Zn	0.983113	0.171463	0.096451
Zn16	Zn	1.483113	0.671463	0.596451
Zn17	Zn	0.983124	0.171467	-0.096513
Zn18	Zn	1.483124	0.671467	0.403487
O19	O	0.977555	0.354277	0.073198
O20	O	1.477555	0.854277	0.573198
C21	C	0.831168	0.180695	-0.000026
C22	C	1.331168	0.680695	0.499974
C23	C	0.738858	0.178255	-0.000023
C24	C	1.238858	0.678255	0.499977
C25	C	0.526478	0.172611	0.079802
C26	C	1.026478	0.672611	0.579802
C27	C	0.439745	0.170305	0.079799
C28	C	0.939745	0.670305	0.579799
C29	C	0.439764	0.170315	-0.079877
C30	C	0.939764	0.670315	0.420123
C31	C	0.526497	0.172612	-0.079873
C32	C	1.026497	0.672612	0.420127
C33	C	0.569852	0.173766	-0.000031
C34	C	1.069852	0.673766	0.499969
C35	C	0.396385	0.169163	-0.000038
C36	C	0.896385	0.669163	0.499962
C37	C	0.302344	0.166663	-0.000042
C38	C	0.802344	0.666663	0.499958
C39	C	0.663898	0.176265	-0.000027
C40	C	1.163898	0.676265	0.499973
C41	C	0.987859	-0.058136	-0.000033
C42	C	1.487859	0.441864	0.499967
C43	C	0.985412	-0.197545	-0.000038
C44	C	1.485412	0.302455	0.499962
C45	C	0.908613	-0.248043	-0.000038
C46	C	1.408613	0.251957	0.499962
C47	C	0.906319	-0.379034	-0.000031
C48	C	1.406319	0.120966	0.499969
C49	C	1.057629	-0.409019	-0.000028
C50	C	1.557629	0.090981	0.499972
C51	C	1.059923	-0.278030	-0.000029
C52	C	1.559923	0.221970	0.499971
C53	C	0.834103	-0.167559	-0.000047
C54	C	1.334103	0.332441	0.499953
C55	C	0.757298	-0.218056	-0.000048
C56	C	1.257298	0.281944	0.499952
C57	C	0.755004	-0.349047	-0.000041
C58	C	1.255004	0.150953	0.499959
C59	C	0.829514	-0.429541	-0.000034
C60	C	1.329514	0.070459	0.499966
C61	C	1.135069	0.162235	-0.000037
C62	C	1.635069	0.662235	0.499963
C63	C	1.227379	0.164675	-0.000046
C64	C	1.727379	0.664675	0.499954
C65	C	0.978377	0.401065	-0.000031
C66	C	1.478377	0.901065	0.499969
C67	C	0.980824	0.540475	-0.000031
C68	C	1.480824	1.040475	0.499969
N69	N	0.983111	0.171460	0.228144
N70	N	1.483111	0.671460	0.728144
N71	N	0.983132	0.171460	-0.228205
N72	N	1.483132	0.671460	0.271795
C73	C	1.039158	0.086091	0.453865
C74	C	1.539158	0.586091	0.953865
C75	C	1.039160	0.086088	0.546055
C76	C	1.539160	0.586088	1.046055
C77	C	0.927079	0.256833	0.546067
C78	C	1.427079	0.756833	1.046067
C79	C	0.927073	0.256829	0.453879
C80	C	1.427073	0.756829	0.953879
C81	C	0.983117	0.171459	0.407781
C82	C	1.483117	0.671459	0.907781
C83	C	0.983126	0.171460	0.592158
C84	C	1.483126	0.671460	1.092158
C85	C	0.983128	0.171458	0.692114
C86	C	1.483128	0.671458	1.192114
C87	C	0.983114	0.171460	0.307818
C88	C	1.483114	0.671460	0.807818
H89	H	0.561775	0.173552	0.144814
H90	H	1.061775	0.673552	0.644814
H91	H	0.835962	-0.060898	-0.000054
H92	H	1.335962	0.439102	0.499946
H93	H	1.122459	-0.236914	-0.000028
H94	H	1.622459	0.263086	0.499972
F95	F	1.098804	-0.004774	0.595098
F96	F	1.598804	0.495226	1.095098
F97	F	0.867421	0.347688	0.404829
F98	F	1.367421	0.847688	0.904829
H99	H	0.404455	0.169376	-0.144882
H100	H	0.904455	0.669376	0.355118
H101	H	1.084791	0.016577	0.416334
H102	H	1.584791	0.516577	0.916334
F103	F	0.572662	0.173833	-0.164847
F104	F	1.072662	0.673833	0.335153
H105	H	0.881451	0.326340	0.583610
H106	H	1.381451	0.826340	1.083610
H107	H	0.404434	0.169365	0.144807
H108	H	0.904434	0.669365	0.644807
H109	H	0.696634	-0.152510	-0.000046
H110	H	1.196634	0.347490	0.499954
F111	F	0.827069	-0.568954	-0.000016
F112	F	1.327069	-0.068954	0.499984
F113	F	0.673263	-0.402786	-0.000033
F114	F	1.173263	0.097214	0.499967
F115	F	1.136923	-0.494689	-0.000022
F116	F	1.636923	0.005311	0.499978
