data_functionalizedCrystal
_audit_creation_method	'MofGen! by Chris Wilmer'
_symmetry_space_group_name_H-M	'P1'
_symmetry_Int_Tables_number	1
_symmetry_cell_setting	triclinic
loop_
_symmetry_equiv_pos_as_xyz
  x,y,z
_cell_length_a	15.297475
_cell_length_b	21.295417
_cell_length_c	15.296720
_cell_angle_alpha	99.639335
_cell_angle_beta	91.617114
_cell_angle_gamma	80.331503
loop_
_atom_site_label
_atom_site_type_symbol
_atom_site_fract_x
_atom_site_fract_y
_atom_site_fract_z
Zn1	Zn	1.253322	-0.489899	-0.726527
Zn2	Zn	1.278570	-0.580539	-0.580029
Zn3	Zn	1.132206	-0.454537	-0.554773
Zn4	Zn	1.106797	-0.574351	-0.701159
O5	O	1.192724	-0.524831	-0.640622
O6	O	1.379247	-0.519311	-0.728280
O7	O	1.280354	-0.551615	-0.454106
O8	O	1.148339	-0.371152	-0.577603
O9	O	1.397796	-0.585904	-0.620649
O10	O	1.237323	-0.397133	-0.703790
O11	O	1.172821	-0.459042	-0.435550
O12	O	1.006260	-0.453042	-0.553004
O13	O	1.105034	-0.575358	-0.827097
O14	O	0.987593	-0.541069	-0.660554
O15	O	1.212686	-0.513312	-0.845734
O16	O	1.255717	-0.667793	-0.596050
O17	O	1.129516	-0.663248	-0.685044
C18	C	0.965144	-0.492547	-0.601286
C19	C	0.867781	-0.478753	-0.584479
C20	C	1.192620	-0.688363	-0.640558
C21	C	1.192651	-0.758337	-0.640574
C22	C	0.554611	-0.623425	-0.760748
C23	C	0.646089	-0.636390	-0.776537
C24	C	0.701516	-0.596982	-0.728524
C25	C	0.665457	-0.544607	-0.664719
C26	C	0.573971	-0.531644	-0.648924
C27	C	0.720876	-0.505200	-0.616700
C28	C	0.684816	-0.452825	-0.552895
C29	C	0.593339	-0.439865	-0.537103
C30	C	0.537912	-0.479273	-0.585116
C31	C	0.812362	-0.518163	-0.632495
C32	C	0.831721	-0.426382	-0.520671
C33	C	0.740243	-0.413417	-0.504882
C34	C	1.238945	-0.804673	-0.706314
C35	C	1.238973	-0.870423	-0.706341
C36	C	1.192717	-0.889832	-0.640614
C37	C	1.146412	-0.843485	-0.574868
C38	C	1.146379	-0.777737	-0.574848
N39	N	1.199377	-0.984508	-0.562817
N40	N	1.199413	-1.046967	-0.562840
C41	C	1.192812	-1.087925	-0.640671
N42	N	1.186191	-1.064068	-0.718484
N43	N	1.186159	-1.001604	-0.718462
C44	C	1.192747	-0.961123	-0.640629
C45	C	1.239139	-1.205555	-0.706446
C46	C	1.239159	-1.271305	-0.706473
C47	C	1.146605	-1.244366	-0.574993
C48	C	1.146578	-1.178618	-0.574973
C49	C	1.192850	-1.159217	-0.640699
C50	C	1.421192	-0.557242	-0.680112
C51	C	1.518552	-0.571054	-0.696940
C52	C	1.153209	-0.547589	-0.869086
C53	C	1.136371	-0.557287	-0.966444
C54	C	1.192849	-0.360667	-0.640709
C55	C	1.192902	-0.290710	-0.640746
C56	C	1.313105	-0.455413	-1.279696
C57	C	1.328932	-0.446303	-1.188224
C58	C	1.280793	-0.474048	-1.132775
C59	C	1.216825	-0.510905	-1.168805
C60	C	1.201002	-0.520020	-1.260287
C61	C	1.168689	-0.538655	-1.113366
C62	C	1.104721	-0.575512	-1.149396
C63	C	1.088901	-0.584625	-1.240869
C64	C	1.137040	-0.556880	-1.296318
C65	C	1.184512	-0.529540	-1.021884
C66	C	1.072409	-0.594147	-1.002475
C67	C	1.056583	-0.603257	-1.093947
C68	C	1.232135	-0.502124	-0.413055
C69	C	1.249143	-0.492273	-0.315727
H70	H	0.776001	-0.607540	-0.741383
H71	H	1.276620	-0.788880	-0.759834
H72	H	0.675443	-0.679034	-0.828485
H73	H	0.876851	-0.394293	-0.481574
O74	O	0.994333	-0.638974	-1.128892
C75	C	0.910911	-0.610617	-1.091444
H76	H	0.910876	-0.557204	-1.065557
H77	H	0.857229	-0.615891	-1.144123
H78	H	0.897169	-0.635825	-1.034373
H79	H	1.352298	-0.432831	-1.324851
H80	H	1.276662	-0.908157	-0.759884
O81	O	1.246737	-0.493833	-0.986862
C82	C	1.312427	-0.532410	-0.943683
H83	H	1.313039	-0.585496	-0.972154
H84	H	1.380032	-0.519102	-0.954309
H85	H	1.297331	-0.523827	-0.869673
O86	O	1.101593	-1.263100	-0.511103
C87	C	1.060747	-1.208099	-0.453055
H88	H	1.051459	-1.164362	-0.488386
H89	H	0.993375	-1.216420	-0.431734
H90	H	1.104375	-1.199040	-0.392109
O91	O	0.500641	-0.661621	-0.807327
C92	C	0.412171	-0.638959	-0.779683
H93	H	0.404640	-0.585734	-0.748971
H94	H	0.366062	-0.644913	-0.839276
H95	H	0.394269	-0.667904	-0.728450
H96	H	1.033212	-0.616741	-0.957328
O97	O	0.449033	-0.466595	-0.569858
C98	C	0.414579	-0.404216	-0.587214
H99	H	0.460701	-0.389508	-0.634564
H100	H	0.346126	-0.404291	-0.618646
H101	H	0.409048	-0.368407	-0.522468
H102	H	0.563984	-0.397223	-0.485140
O103	O	1.101416	-0.862411	-0.511134
C104	C	1.036190	-0.897387	-0.551182
H105	H	1.055552	-0.918185	-0.622919
H106	H	1.030677	-0.938423	-0.513483
H107	H	0.969601	-0.863836	-0.549527
O108	O	0.705189	-0.362620	-0.442799
C109	C	0.662022	-0.385249	-0.377007
H110	H	0.690523	-0.438172	-0.376223
H111	H	0.672627	-0.355550	-0.309477
H112	H	0.588012	-0.380325	-0.392119
H113	H	0.841712	-0.560807	-0.684446
O114	O	1.026718	-0.620353	-1.275968
C115	C	0.961008	-0.581767	-1.319113
H116	H	0.989561	-0.539813	-1.338177
H117	H	0.938139	-0.612150	-1.381401
H118	H	0.902189	-0.562138	-1.272652
O119	O	1.101396	-0.732807	-0.510895
C120	C	1.060550	-0.764032	-0.452902
H121	H	1.096969	-0.815667	-0.456113
H122	H	1.063190	-0.736871	-0.382270
H123	H	0.988464	-0.764807	-0.473424
H124	H	1.276813	-1.189759	-0.759966
H125	H	1.124158	-0.564295	-1.370803
O126	O	1.101500	-1.133575	-0.511214
C127	C	1.036263	-1.092488	-0.551239
H128	H	1.018873	-1.118379	-0.619282
H129	H	0.974368	-1.079080	-0.507856
H130	H	1.062793	-1.046784	-0.558943
O131	O	1.284214	-1.316237	-0.770377
C132	C	1.325029	-1.285009	-0.828390
H133	H	1.334267	-1.235011	-0.793028
H134	H	1.392422	-1.314680	-0.849712
H135	H	1.281404	-1.280086	-0.889339
H136	H	1.293682	-0.466628	-1.058295
O137	O	1.391066	-0.410459	-1.153366
C138	C	1.430177	-0.387937	-1.221921
H139	H	1.383022	-0.387163	-1.280928
H140	H	1.444133	-0.337041	-1.197134
H141	H	1.495000	-0.421394	-1.243137
