data_functionalizedCrystal
_audit_creation_method	'MofGen! by Chris Wilmer'
_symmetry_space_group_name_H-M	'P1'
_symmetry_Int_Tables_number	1
_symmetry_cell_setting	triclinic
loop_
_symmetry_equiv_pos_as_xyz
  x,y,z
_cell_length_a	9.065218
_cell_length_b	8.559649
_cell_length_c	7.540329
_cell_angle_alpha	89.998238
_cell_angle_beta	89.996962
_cell_angle_gamma	77.397275
loop_
_atom_site_label
_atom_site_type_symbol
_atom_site_fract_x
_atom_site_fract_y
_atom_site_fract_z
O1	O	1.931006	0.233903	-0.147477
O2	O	2.264340	0.567236	0.185856
O3	O	2.597673	0.900569	0.519189
O4	O	1.499311	0.253089	-0.147479
O5	O	1.832644	0.586422	0.185854
O6	O	2.165977	0.919755	0.519188
O7	O	1.753191	0.011444	-0.147476
O8	O	2.086525	0.344777	0.185857
O9	O	2.419858	0.678111	0.519190
O10	O	1.677126	0.475547	-0.147480
O11	O	2.010459	0.808880	0.185853
O12	O	2.343792	1.142214	0.519186
O13	O	1.753178	0.011441	0.147489
O14	O	2.086511	0.344774	0.480822
O15	O	2.419845	0.678108	0.814155
O16	O	1.499298	0.253085	0.147486
O17	O	1.832631	0.586419	0.480819
O18	O	2.165964	0.919752	0.814153
O19	O	1.930993	0.233900	0.147488
O20	O	2.264327	0.567233	0.480821
O21	O	2.597660	0.900566	0.814154
Cu22	Cu	1.715144	0.243492	0.174419
Cu23	Cu	2.048478	0.576825	0.507753
Cu24	Cu	2.381811	0.910159	0.841086
Cu25	Cu	1.715160	0.243496	-0.174411
Cu26	Cu	2.048493	0.576829	0.158922
Cu27	Cu	2.381826	0.910163	0.492256
O28	O	1.677113	0.475544	0.147485
O29	O	2.010446	0.808877	0.480818
O30	O	2.343779	1.142211	0.814152
C31	C	1.444549	0.251243	0.000003
C32	C	1.777883	0.584576	0.333336
C33	C	2.111216	0.917910	0.666670
C34	C	1.281399	0.245730	0.000002
C35	C	1.614732	0.579063	0.333336
C36	C	1.948066	0.912396	0.666669
C37	C	1.758949	-0.048004	0.000003
C38	C	2.092282	0.285329	0.333336
C39	C	2.425616	0.618663	0.666670
C40	C	1.776108	-0.225136	-0.000007
C41	C	2.109441	0.108198	0.333327
C42	C	2.442774	0.441531	0.666660
C43	C	1.985755	0.235745	0.000002
C44	C	2.319088	0.569078	0.333335
C45	C	2.652421	0.902412	0.666668
C46	C	2.148905	0.241258	-0.000009
C47	C	2.482238	0.574592	0.333324
C48	C	2.815571	0.907925	0.666658
C49	C	1.671355	0.534992	0.000002
C50	C	2.004688	0.868325	0.333335
C51	C	2.338021	1.201659	0.666668
C52	C	1.654196	0.712124	-0.000000
C53	C	1.987529	1.045457	0.333333
C54	C	2.320863	1.378790	0.666667
N55	N	1.715144	0.243489	0.419768
N56	N	2.048478	0.576822	0.753101
N57	N	2.381811	0.910155	1.086435
N58	N	1.715173	0.243487	-0.419759
N59	N	2.048506	0.576820	-0.086426
N60	N	2.381840	0.910154	0.246907
H61	H	1.536695	-0.206080	0.000005
H62	H	1.870029	0.127253	0.333338
H63	H	2.203362	0.460587	0.666672
H64	H	1.893616	-0.306941	0.000008
H65	H	2.226950	0.026392	0.333341
H66	H	2.560283	0.359726	0.666675
