data_functionalizedCrystal
_audit_creation_method	'MofGen! by Chris Wilmer'
_symmetry_space_group_name_H-M	'P1'
_symmetry_Int_Tables_number	1
_symmetry_cell_setting	triclinic
loop_
_symmetry_equiv_pos_as_xyz
  x,y,z
_cell_length_a	14.519731
_cell_length_b	18.266242
_cell_length_c	14.519709
_cell_angle_alpha	89.993935
_cell_angle_beta	96.315501
_cell_angle_gamma	90.009033
loop_
_atom_site_label
_atom_site_type_symbol
_atom_site_fract_x
_atom_site_fract_y
_atom_site_fract_z
O1	O	1.223861	0.060884	-0.120985
O2	O	1.723861	0.560884	0.379015
O3	O	0.955387	0.060885	-0.135201
O4	O	1.455387	0.560885	0.364799
O5	O	1.096742	0.060878	0.006145
O6	O	1.596742	0.560878	0.506145
O7	O	1.082506	0.060891	-0.262331
O8	O	1.582506	0.560891	0.237669
O9	O	1.096718	-0.060884	0.006149
O10	O	1.596718	0.439116	0.506149
O11	O	0.955363	-0.060877	-0.135197
O12	O	1.455363	0.439123	0.364803
O13	O	1.223837	-0.060878	-0.120981
O14	O	1.723837	0.439122	0.379019
Zn15	Zn	1.089596	-0.080210	-0.128088
Zn16	Zn	1.589596	0.419790	0.371912
Zn17	Zn	1.089628	0.080217	-0.128093
Zn18	Zn	1.589628	0.580217	0.371907
O19	O	1.082482	-0.060871	-0.262326
O20	O	1.582482	0.439129	0.237674
C21	C	0.921016	0.000005	-0.134532
C22	C	1.421016	0.500005	0.365468
C23	C	0.818635	0.000005	-0.132536
C24	C	1.318635	0.500005	0.367464
C25	C	0.735491	0.000008	-0.130915
C26	C	1.235491	0.500008	0.369085
C27	C	0.631182	0.000008	-0.128888
C28	C	1.131182	0.500008	0.371112
C29	C	0.548043	0.000008	-0.127280
C30	C	1.048043	0.500008	0.372720
C31	C	0.443728	0.000009	-0.125253
C32	C	0.943728	0.500009	0.374747
N33	N	1.089581	-0.189696	-0.128084
N34	N	1.589581	0.310304	0.371916
C35	C	1.145596	-0.227997	-0.184151
C36	C	1.645596	0.272003	0.315849
C37	C	1.145612	-0.304642	-0.184149
C38	C	1.645612	0.195358	0.315851
C39	C	1.089595	-0.342983	-0.128089
C40	C	1.589595	0.157017	0.371911
C41	C	1.033576	-0.304674	-0.072010
C42	C	1.533576	0.195326	0.427990
C43	C	1.033569	-0.228031	-0.072007
C44	C	1.533569	0.271969	0.427993
N45	N	1.008816	-0.463336	-0.125431
N46	N	1.508816	0.036664	0.374569
N47	N	1.008825	-0.536144	-0.125439
N48	N	1.508825	-0.036144	0.374561
C49	C	1.089613	-0.573906	-0.128093
C50	C	1.589613	-0.073906	0.371907
N51	N	1.170393	-0.536109	-0.130756
N52	N	1.670393	-0.036109	0.369244
N53	N	1.170383	-0.463294	-0.130753
N54	N	1.670383	0.036706	0.369247
C55	C	1.089596	-0.426090	-0.128086
C56	C	1.589596	0.073910	0.371914
C57	C	1.145650	-0.695313	-0.184161
C58	C	1.645650	-0.195313	0.315839
C59	C	1.145667	-0.771959	-0.184152
C60	C	1.645667	-0.271959	0.315848
C61	C	1.033623	-0.771990	-0.072018
C62	C	1.533623	-0.271990	0.427982
C63	C	1.033614	-0.695346	-0.072022
C64	C	1.533614	-0.195346	0.427978
C65	C	1.089626	-0.657011	-0.128098
C66	C	1.589626	-0.157011	0.371902
C67	C	1.258209	0.000005	-0.121649
C68	C	1.758209	0.500005	0.378351
C69	C	1.360589	0.000009	-0.123645
C70	C	1.860589	0.500009	0.376355
C71	C	1.096067	-0.000003	0.040507
C72	C	1.596067	0.499997	0.540507
C73	C	1.094079	-0.000003	0.142889
C74	C	1.594079	0.499997	0.642889
N75	N	1.089650	0.189704	-0.128090
N76	N	1.589650	0.689704	0.371910
C77	C	1.083157	0.000012	-0.296688
C78	C	1.583157	0.500012	0.203312
C79	C	1.085146	0.000017	-0.399070
C80	C	1.585146	0.500017	0.100930
C81	C	1.086759	0.000016	0.517785
C82	C	1.586759	0.500016	1.017785
C83	C	1.088792	0.000010	0.413477
C84	C	1.588792	0.500010	0.913477
C85	C	1.090419	0.000005	0.330340
C86	C	1.590419	0.500005	0.830340
C87	C	1.092452	0.000001	0.226025
C88	C	1.592452	0.500001	0.726025
H89	H	1.191226	-0.335832	-0.229808
H90	H	1.691226	0.164168	0.270192
H91	H	0.987953	-0.196847	-0.026349
H92	H	1.487953	0.303153	0.473651
C93	C	0.972004	-0.814157	-0.010354
C94	C	1.472004	-0.314157	0.489646
H95	H	0.980026	-0.865289	-0.018389
H96	H	1.480026	-0.365289	0.481611
H97	H	0.989034	-0.801600	0.052708
H98	H	1.489034	-0.301600	0.552708
H99	H	0.908931	-0.801607	-0.027352
H100	H	1.408931	-0.301607	0.472648
H101	H	0.987968	-0.335897	-0.026365
H102	H	1.487968	0.164103	0.473635
H103	H	1.191287	-0.803142	-0.229806
H104	H	1.691287	-0.303142	0.270194
H105	H	1.191258	-0.664100	-0.229821
H106	H	1.691258	-0.164100	0.270179
C107	C	1.207215	-0.185830	-0.245821
C108	C	1.707215	0.314170	0.254179
H109	H	1.199187	-0.134697	-0.237795
H110	H	1.699187	0.365303	0.262205
H111	H	1.270284	-0.198384	-0.228833
H112	H	1.770284	0.301616	0.271167
H113	H	1.190176	-0.198385	-0.308887
H114	H	1.690176	0.301615	0.191113
H115	H	0.987996	-0.664161	-0.026369
H116	H	1.487996	-0.164161	0.473631
