data_functionalizedCrystal
_audit_creation_method	'MofGen! by Chris Wilmer'
_symmetry_space_group_name_H-M	'P1'
_symmetry_Int_Tables_number	1
_symmetry_cell_setting	triclinic
loop_
_symmetry_equiv_pos_as_xyz
  x,y,z
_cell_length_a	18.101398
_cell_length_b	29.839131
_cell_length_c	18.101390
_cell_angle_alpha	89.956564
_cell_angle_beta	89.974845
_cell_angle_gamma	90.032958
loop_
_atom_site_label
_atom_site_type_symbol
_atom_site_fract_x
_atom_site_fract_y
_atom_site_fract_z
Zn1	Zn	1.132102	-0.178863	-0.418794
Zn2	Zn	1.632102	0.321137	0.081206
Zn3	Zn	1.131989	-0.253999	-0.294930
Zn4	Zn	1.631989	0.246001	0.205070
Zn5	Zn	1.008261	-0.178881	-0.294954
Zn6	Zn	1.508261	0.321119	0.205046
Zn7	Zn	1.008203	-0.253964	-0.418717
Zn8	Zn	1.508203	0.246036	0.081283
O9	O	1.070139	-0.216427	-0.356849
O10	O	1.570139	0.283573	0.143151
O11	O	1.235720	-0.188838	-0.402385
O12	O	1.735720	0.311162	0.097615
O13	O	1.115552	-0.244057	-0.191300
O14	O	1.615552	0.255943	0.308700
O15	O	1.024760	-0.116011	-0.311424
O16	O	1.524760	0.383989	0.188576
O17	O	1.235637	-0.244039	-0.311382
O18	O	1.735637	0.255961	0.188618
O19	O	1.115746	-0.115999	-0.402409
O20	O	1.615746	0.384001	0.097591
O21	O	1.024650	-0.188868	-0.191318
O22	O	1.524650	0.311132	0.308682
O23	O	0.904620	-0.188834	-0.311350
O24	O	1.404620	0.311166	0.188650
O25	O	1.024662	-0.243980	-0.522360
O26	O	1.524662	0.256020	-0.022360
O27	O	0.904578	-0.243997	-0.402278
O28	O	1.404578	0.256003	0.097722
O29	O	1.115691	-0.188804	-0.522417
O30	O	1.615691	0.311196	-0.022417
O31	O	1.115497	-0.316862	-0.311308
O32	O	1.615497	0.183138	0.188692
O33	O	1.024552	-0.316836	-0.402254
O34	O	1.524552	0.183164	0.097746
C35	C	0.877728	-0.216414	-0.356809
C36	C	1.377728	0.283586	0.143191
C37	C	0.795414	-0.216419	-0.356809
C38	C	1.295414	0.283581	0.143191
C39	C	0.644706	-0.216428	-0.356842
C40	C	1.144706	0.283572	0.143158
C41	C	0.613354	-0.181671	-0.299728
C42	C	1.113354	0.318329	0.200272
C43	C	0.527736	-0.181540	-0.299915
C44	C	1.027736	0.318460	0.200085
C45	C	0.496323	-0.216437	-0.356874
C46	C	0.996323	0.283563	0.143126
C47	C	0.527465	-0.203795	-0.435013
C48	C	1.027465	0.296205	0.064987
C49	C	0.613110	-0.203538	-0.434664
C50	C	1.113110	0.296462	0.065336
C51	C	0.613096	-0.263916	-0.336506
C52	C	1.113096	0.236084	0.163494
C53	C	0.527445	-0.263666	-0.334804
C54	C	1.027445	0.236334	0.165196
C55	C	0.412464	-0.216443	-0.356896
C56	C	0.912464	0.283557	0.143104
C57	C	0.728565	-0.216421	-0.356825
C58	C	1.228565	0.283579	0.143175
C59	C	1.070026	-0.333149	-0.356786
C60	C	1.570026	0.166851	0.143214
C61	C	1.070045	-0.383084	-0.356784
C62	C	1.570045	0.116916	0.143216
C63	C	1.117505	-0.692686	-0.404292
C64	C	1.617505	-0.192686	0.095708
C65	C	1.117585	-0.880359	-0.404336
C66	C	1.617585	-0.380359	0.095664
O67	O	1.157826	-0.904588	-0.444683
O68	O	1.657826	-0.404588	0.055317
N69	N	1.070264	-0.903869	-0.356931
N70	N	1.570264	-0.403869	0.143069
C71	C	1.022917	-0.880458	-0.309514
C72	C	1.522917	-0.380458	0.190486
O73	O	0.982664	-0.904761	-0.269199
O74	O	1.482664	-0.404761	0.230801
C75	C	1.022833	-0.692786	-0.309474
C76	C	1.522833	-0.192786	0.190526
C77	C	1.070162	-0.669278	-0.356877
C78	C	1.570162	-0.169278	0.143123
C79	C	1.164829	-0.669178	-0.451692
C80	C	1.664829	-0.169178	0.048308
C81	C	1.164812	-0.622262	-0.451678
C82	C	1.664812	-0.122262	0.048322
C83	C	1.117469	-0.598855	-0.404263
C84	C	1.617469	-0.098855	0.095737
C85	C	1.070145	-0.622363	-0.356863
C86	C	1.570145	-0.122363	0.143137
C87	C	0.975482	-0.669376	-0.262062
C88	C	1.475482	-0.169376	0.237938
C89	C	0.975464	-0.622455	-0.262057
C90	C	1.475464	-0.122455	0.237943
C91	C	1.022794	-0.598947	-0.309461
C92	C	1.522794	-0.098947	0.190539
C93	C	1.022785	-0.552040	-0.309434
C94	C	1.522785	-0.052040	0.190566
N95	N	1.070105	-0.528529	-0.356840
N96	N	1.570105	-0.028529	0.143160
C97	C	1.117448	-0.551937	-0.404254
C98	C	1.617448	-0.051937	0.095746
C99	C	1.022965	-0.978989	-0.309538
C100	C	1.522965	-0.478989	0.190462
C101	C	1.022987	-1.025906	-0.309547
C102	C	1.522987	-0.525906	0.190453
C103	C	1.117654	-1.025804	-0.404370
C104	C	1.617654	-0.525804	0.095630
C105	C	1.117636	-0.978885	-0.404357
C106	C	1.617636	-0.478885	0.095643
C107	C	1.070286	-0.955478	-0.356943
C108	C	1.570286	-0.455478	0.143057
C109	C	1.117407	-0.453411	-0.404220
C110	C	1.617407	0.046589	0.095780
C111	C	1.117388	-0.406491	-0.404199
C112	C	1.617388	0.093509	0.095801
C113	C	1.022718	-0.406598	-0.309379
C114	C	1.522718	0.093402	0.190621
C115	C	1.022740	-0.453514	-0.309396
C116	C	1.522740	0.046486	0.190604
C117	C	1.070087	-0.476919	-0.356823
C118	C	1.570087	0.023081	0.143177
O119	O	0.982559	-0.527781	-0.269115
O120	O	1.482559	-0.027781	0.230885
O121	O	1.157683	-0.527626	-0.444575
O122	O	1.657683	-0.027626	0.055425
C123	C	1.117523	-0.739601	-0.404306
C124	C	1.617523	-0.239601	0.095694
C125	C	1.070198	-0.763109	-0.356906
C126	C	1.570198	-0.263109	0.143094
C127	C	1.022855	-0.739701	-0.309492
C128	C	1.522855	-0.239701	0.190508
C129	C	1.070220	-0.810027	-0.356915
C130	C	1.570220	-0.310027	0.143085
C131	C	1.117562	-0.833434	-0.404330
C132	C	1.617562	-0.333434	0.095670
C133	C	1.164883	-0.809924	-0.451735
C134	C	1.664883	-0.309924	0.048265
C135	C	1.164865	-0.763009	-0.451721
C136	C	1.664865	-0.263009	0.048279
C137	C	0.975535	-0.763212	-0.262086
C138	C	1.475535	-0.263212	0.237914
C139	C	0.975557	-0.810127	-0.262104
C140	C	1.475557	-0.310127	0.237896
C141	C	1.022899	-0.833535	-0.309519
C142	C	1.522899	-0.333535	0.190481
C143	C	1.263301	-0.216440	-0.356890
C144	C	1.763301	0.283560	0.143110
C145	C	1.345615	-0.216446	-0.356907
C146	C	1.845615	0.283554	0.143093
C147	C	1.070183	-0.216386	-0.550011
C148	C	1.570183	0.283614	-0.050011
C149	C	1.070201	-0.216368	-0.632325
C150	C	1.570201	0.283632	-0.132325
C151	C	1.070272	-0.099248	-0.356928
C152	C	1.570272	0.400752	0.143072
C153	C	1.070329	-0.049314	-0.356961
C154	C	1.570329	0.450686	0.143039
C155	C	1.070241	-0.216340	-0.931416
C156	C	1.570241	0.283660	-0.431416
C157	C	1.127702	-0.181747	-0.900126
C158	C	1.627702	0.318253	-0.400126
C159	C	1.127523	-0.181619	-0.814508
C160	C	1.627523	0.318381	-0.314508
C161	C	1.070222	-0.216354	-0.783033
C162	C	1.570222	0.283646	-0.283033
C163	C	0.992207	-0.203490	-0.814103
C164	C	1.492207	0.296510	-0.314103
C165	C	0.992551	-0.203230	-0.899749
C166	C	1.492551	0.296770	-0.399749
C167	C	1.090108	-0.263887	-0.899816
C168	C	1.590108	0.236113	-0.399816
C169	C	1.091821	-0.263645	-0.814166
C170	C	1.591821	0.236355	-0.314166
C171	C	1.070207	-0.216363	-0.699174
C172	C	1.570207	0.283637	-0.199174
C173	C	1.070252	-0.216331	-1.015276
C174	C	1.570252	0.283669	-0.515276
C175	C	1.070137	-0.216435	-0.164438
C176	C	1.570137	0.283565	0.335562
C177	C	1.070262	-0.216326	-0.082125
C178	C	1.570262	0.283674	0.417875
H179	H	0.506677	-0.189428	-0.241986
H180	H	1.006677	0.310572	0.258014
F181	F	0.972376	-0.478533	-0.258936
F182	F	1.472376	0.021467	0.241064
H183	H	0.984455	-1.045043	-0.270938
H184	H	1.484455	-0.545043	0.229062
F185	F	1.168009	-0.953871	-0.454810
F186	F	1.668009	-0.453871	0.045190
H187	H	1.155931	-0.387353	-0.442800
H188	H	1.655931	0.112647	0.057200
H189	H	0.975708	-0.168474	-0.919748
H190	H	1.475708	0.331526	-0.419748
H191	H	0.975058	-0.169120	-0.792674
H192	H	1.475058	0.330880	-0.292674
H193	H	0.948282	-0.227330	-0.920445
H194	H	1.448282	0.272670	-0.420445
H195	H	0.937017	-0.829263	-0.223496
H196	H	1.437017	-0.329263	0.276504
F197	F	1.167801	-0.478314	-0.454695
F198	F	1.667801	0.021686	0.045305
H199	H	0.633893	-0.189469	-0.241606
H200	H	1.133893	0.310531	0.258394
H201	H	1.048260	-0.289663	-0.920054
H202	H	1.548260	0.210337	-0.420054
F203	F	0.639612	-0.297764	-0.390864
F204	F	1.139612	0.202236	0.109136
H205	H	0.936942	-0.688508	-0.223461
H206	H	1.436942	-0.188508	0.276539
F207	F	0.500992	-0.135550	-0.317566
F208	F	1.000992	0.364450	0.182434
H209	H	0.633119	-0.168831	-0.451851
H210	H	1.133119	0.331169	0.048149
F211	F	0.641272	-0.279004	-0.263272
F212	F	1.141272	0.220996	0.236728
H213	H	1.203381	-0.688231	-0.490307
H214	H	1.703381	-0.188231	0.009693
F215	F	0.641521	-0.135937	-0.317149
F216	F	1.141521	0.364063	0.182851
F217	F	1.203140	-0.192143	-0.787051
F218	F	1.703140	0.307857	-0.287051
H219	H	0.984406	-0.959934	-0.270926
H220	H	1.484406	-0.459934	0.229074
F221	F	1.215182	-0.597249	-0.502136
F222	F	1.715182	-0.097249	-0.002136
H223	H	0.633853	-0.227763	-0.478693
H224	H	1.133853	0.272237	0.021307
H225	H	0.507122	-0.228340	-0.478746
H226	H	1.007122	0.271660	0.021254
F227	F	0.499473	-0.158933	-0.457876
F228	F	0.999473	0.341067	0.042124
F229	F	0.500835	-0.276132	-0.259638
F230	F	1.000835	0.223868	0.240362
F231	F	0.499517	-0.299307	-0.385198
F232	F	0.999517	0.200693	0.114802
H233	H	1.053012	-0.290804	-0.792737
H234	H	1.553012	0.209196	-0.292737
H235	H	1.203405	-0.743872	-0.490321
H236	H	1.703405	-0.243872	0.009679
F237	F	1.168040	-1.050724	-0.454832
F238	F	1.668040	-0.550724	0.045168
F239	F	1.163191	-0.279181	-0.928058
F240	F	1.663191	0.220819	-0.428058
H241	H	1.185742	-0.189704	-0.920732
H242	H	1.685742	0.310296	-0.420732
F243	F	0.934728	-0.235410	-0.787459
F244	F	1.434728	0.264590	-0.287459
H245	H	0.936982	-0.744157	-0.223477
H246	H	1.436982	-0.244157	0.276523
F247	F	1.166865	-0.276324	-0.787629
F248	F	1.666865	0.223676	-0.287629
F249	F	0.925066	-0.597546	-0.211592
F250	F	1.425066	-0.097546	0.288408
F251	F	1.110735	-0.135964	-0.928289
F252	F	1.610735	0.364036	-0.428289
F253	F	0.972336	-0.381678	-0.258918
F254	F	1.472336	0.118322	0.241082
H255	H	1.203433	-0.828991	-0.490339
H256	H	1.703433	-0.328991	0.009661
F257	F	1.110335	-0.135579	-0.787758
F258	F	1.610335	0.364421	-0.287758
