data_functionalizedCrystal
_audit_creation_method	'MofGen! by Chris Wilmer'
_symmetry_space_group_name_H-M	'P1'
_symmetry_Int_Tables_number	1
_symmetry_cell_setting	triclinic
loop_
_symmetry_equiv_pos_as_xyz
  x,y,z
_cell_length_a	19.077212
_cell_length_b	19.120785
_cell_length_c	19.076919
_cell_angle_alpha	90.270819
_cell_angle_beta	90.114942
_cell_angle_gamma	94.653042
loop_
_atom_site_label
_atom_site_type_symbol
_atom_site_fract_x
_atom_site_fract_y
_atom_site_fract_z
Zn1	Zn	1.047852	-0.254945	0.429244
Zn2	Zn	1.547852	0.245055	0.929244
Zn3	Zn	1.047883	-0.367491	0.306732
Zn4	Zn	1.547883	0.132509	0.806732
Zn5	Zn	0.935082	-0.254576	0.307036
Zn6	Zn	1.435082	0.245424	0.807036
Zn7	Zn	0.925318	-0.376859	0.419049
Zn8	Zn	1.425318	0.123141	0.919049
O9	O	0.989034	-0.313468	0.365515
O10	O	1.489034	0.186532	0.865515
O11	O	1.146344	-0.266109	0.417132
O12	O	1.646344	0.233891	0.917132
O13	O	1.037019	-0.348438	0.208623
O14	O	1.537019	0.151562	0.708623
O15	O	0.954115	-0.156348	0.327642
O16	O	1.454115	0.343652	0.827642
O17	O	1.146366	-0.348796	0.327123
O18	O	1.646366	0.151204	0.827123
O19	O	1.036966	-0.156619	0.417428
O20	O	1.536966	0.343381	0.917428
O21	O	0.954145	-0.265479	0.208847
O22	O	1.454145	0.234521	0.708847
O23	O	0.835299	-0.274562	0.317755
O24	O	1.335299	0.225438	0.817755
O25	O	0.937473	-0.364762	0.518551
O26	O	1.437473	0.135238	1.018551
O27	O	0.828125	-0.364403	0.400050
O28	O	1.328125	0.135597	0.900050
O29	O	1.027498	-0.275193	0.526041
O30	O	1.527498	0.224807	1.026041
O31	O	1.027551	-0.467011	0.317237
O32	O	1.527551	0.032989	0.817237
O33	O	0.937503	-0.473893	0.399755
O34	O	1.437503	0.026107	0.899755
C35	C	0.806175	-0.320460	0.357830
C36	C	1.306175	0.179540	0.857830
C37	C	0.727946	-0.323469	0.354558
C38	C	1.227946	0.176531	0.854558
C39	C	0.287600	-0.345020	0.331125
C40	C	0.787600	0.154980	0.831125
C41	C	0.361105	-0.342189	0.334194
C42	C	0.861105	0.157811	0.834194
C43	C	0.397842	-0.297799	0.382661
C44	C	0.897842	0.202201	0.882661
C45	C	0.361070	-0.256232	0.428058
C46	C	0.861070	0.243768	0.928058
C47	C	0.287567	-0.259060	0.424985
C48	C	0.787567	0.240940	0.924985
C49	C	0.617671	-0.284730	0.396881
C50	C	1.117671	0.215270	0.896881
C51	C	0.691180	-0.281907	0.399952
C52	C	1.191180	0.218093	0.899952
C53	C	0.691210	-0.367863	0.306087
C54	C	1.191210	0.132137	0.806087
C55	C	0.617705	-0.370690	0.303021
C56	C	1.117705	0.129310	0.803021
C57	C	0.580940	-0.329120	0.348415
C58	C	1.080940	0.170880	0.848415
N59	N	0.472975	-0.294906	0.385801
N60	N	0.972975	0.205094	0.885801
N61	N	0.505808	-0.332010	0.345272
N62	N	1.005808	0.167990	0.845272
C63	C	0.981489	-0.495934	0.357373
C64	C	1.481489	0.004066	0.857373
C65	C	0.978325	-0.573993	0.353915
C66	C	1.478325	-0.073993	0.853915
C67	C	0.958249	-1.015473	0.332037
C68	C	1.458249	-0.515473	0.832037
C69	C	0.961223	-0.942129	0.335286
C70	C	1.461223	-0.442129	0.835286
C71	C	1.005814	-0.905541	0.383691
C72	C	1.505814	-0.405541	0.883691
C73	C	1.047429	-0.942303	0.428855
C74	C	1.547429	-0.442303	0.928855
C75	C	1.044450	-1.015646	0.425609
C76	C	1.544450	-0.515646	0.925609
C77	C	1.016961	-0.684097	0.395834
C78	C	1.516961	-0.184097	0.895834
C79	C	1.019938	-0.610748	0.399075
C80	C	1.519938	-0.110748	0.899075
C81	C	0.933731	-0.610580	0.305506
C82	C	1.433731	-0.110580	0.805506
C83	C	0.930759	-0.683924	0.302262
C84	C	1.430759	-0.183924	0.802262
C85	C	0.972371	-0.720679	0.347428
C86	C	1.472371	-0.220679	0.847428
C87	C	1.008857	-0.830572	0.387011
C88	C	1.508857	-0.330572	0.887011
C89	C	0.969324	-0.795648	0.344111
C90	C	1.469324	-0.295648	0.844111
C91	C	1.172606	-0.306449	0.373231
C92	C	1.672606	0.193551	0.873231
C93	C	1.250834	-0.303458	0.376519
C94	C	1.750834	0.196542	0.876519
C95	C	0.981393	-0.321063	0.548457
C96	C	1.481393	0.178937	1.048457
C97	C	0.978137	-0.324300	0.626415
C98	C	1.478137	0.175700	1.126415
C99	C	0.996626	-0.130289	0.373706
C100	C	1.496626	0.369711	0.873706
C101	C	0.999861	-0.052229	0.377196
C102	C	1.499861	0.447771	0.877196
C103	C	0.996687	-0.305849	0.183290
C104	C	1.496687	0.194151	0.683290
C105	C	1.000088	-0.302410	0.105346
C106	C	1.500088	0.197590	0.605346
C107	C	1.023476	-0.279189	0.666941
C108	C	1.523476	0.220811	1.166941
C109	C	1.020408	-0.282228	0.740191
C110	C	1.520408	0.217772	1.240191
C111	C	0.972004	-0.330382	0.772914
C112	C	1.472004	0.169618	1.272914
C113	C	0.926660	-0.375495	0.732383
C114	C	1.426660	0.124505	1.232383
C115	C	0.929725	-0.372452	0.659134
C116	C	1.429725	0.127548	1.159134
C117	C	0.957809	-0.344480	0.991566
C118	C	1.457809	0.155520	1.491566
C119	C	0.954749	-0.347521	1.064820
C120	C	1.454749	0.152479	1.564820
C121	C	1.048496	-0.254252	1.072624
C122	C	1.548496	0.245748	1.572624
C123	C	1.051559	-0.251217	0.999373
C124	C	1.551559	0.248783	1.499373
C125	C	1.006213	-0.296327	0.958848
C126	C	1.506213	0.203673	1.458848
N127	N	0.968869	-0.333491	0.847787
N128	N	1.468869	0.166509	1.347787
N129	N	1.009346	-0.293214	0.883976
N130	N	1.509346	0.206786	1.383976
H131	H	0.257694	-0.381171	0.291660
H132	H	0.757694	0.118829	0.791660
H133	H	0.915330	-0.386736	1.091460
H134	H	1.415330	0.113264	1.591460
H135	H	0.927338	-0.912203	0.298514
H136	H	1.427338	-0.412203	0.798514
F137	F	0.400233	-0.386411	0.285865
F138	F	0.900233	0.113589	0.785865
F139	F	0.578614	-0.417919	0.251421
F140	F	1.078614	0.082081	0.751421
F141	F	1.068688	-0.234237	0.783319
F142	F	1.568688	0.265763	1.283319
H143	H	0.721152	-0.401705	0.269130
H144	H	1.221152	0.098295	0.769130
H145	H	1.062894	-0.239979	0.640304
H146	H	1.562894	0.260021	1.140304
H147	H	0.721089	-0.245754	0.439420
H148	H	1.221089	0.254246	0.939420
H149	H	0.390987	-0.220086	0.467518
H150	H	0.890987	0.279914	0.967518
F151	F	0.909547	-0.392491	0.948445
F152	F	1.409547	0.107509	1.448445
F153	F	0.883298	-0.722858	0.250744
F154	F	1.383298	-0.222858	0.750744
F155	F	0.578552	-0.240492	0.445198
F156	F	1.078552	0.259508	0.945198
H157	H	0.257632	-0.225214	0.461948
H158	H	0.757632	0.274786	0.961948
H159	H	1.045166	-0.800776	0.426422
H160	H	1.545166	-0.300776	0.926422
F161	F	0.910792	-1.054405	0.280514
F162	F	1.410792	-0.554405	0.780514
F163	F	0.889446	-0.571458	0.257442
F164	F	1.389446	-0.071458	0.757442
F165	F	1.096752	-0.206244	1.115759
F166	F	1.596752	0.293756	1.615759
F167	F	0.881468	-0.420464	0.616003
F168	F	1.381468	0.079536	1.116003
F169	F	0.921864	-0.834588	0.292600
F170	F	1.421864	-0.334588	0.792600
F171	F	1.103078	-0.199965	0.964553
F172	F	1.603078	0.300035	1.464553
H173	H	0.887246	-0.414701	0.759031
H174	H	1.387246	0.085299	1.259031
H175	H	1.056252	-0.580962	0.438494
H176	H	1.556252	-0.080962	0.938494
F177	F	1.061242	-0.723205	0.443909
F178	F	1.561242	-0.223205	0.943909
F179	F	1.088739	-1.054764	0.473675
F180	F	1.588739	-0.554764	0.973675
F181	F	1.094880	-0.903362	0.480377
F182	F	1.594880	-0.403362	0.980377
