data_functionalizedCrystal
_audit_creation_method	'MofGen! by Chris Wilmer'
_symmetry_space_group_name_H-M	'P1'
_symmetry_Int_Tables_number	1
_symmetry_cell_setting	triclinic
loop_
_symmetry_equiv_pos_as_xyz
  x,y,z
_cell_length_a	11.026607
_cell_length_b	15.995350
_cell_length_c	9.482900
_cell_angle_alpha	99.336743
_cell_angle_beta	78.636152
_cell_angle_gamma	96.039196
loop_
_atom_site_label
_atom_site_type_symbol
_atom_site_fract_x
_atom_site_fract_y
_atom_site_fract_z
O1	O	1.629075	0.340363	-0.120882
O2	O	1.275769	0.300437	-0.120885
O3	O	1.462080	0.199968	-0.120882
O4	O	1.442765	0.440832	-0.120885
O5	O	1.424236	0.220481	0.120910
O6	O	1.237926	0.320950	0.120907
O7	O	1.591231	0.360875	0.120910
Cu8	Cu	1.411123	0.342785	0.142986
Cu9	Cu	1.455878	0.318527	-0.142961
O10	O	1.404921	0.461344	0.120907
C11	C	1.211637	0.303328	0.000010
C12	C	1.076923	0.281371	0.000009
C13	C	1.442360	0.178909	0.000011
C14	C	1.439967	0.085597	0.000003
C15	C	1.003118	0.341997	0.000007
C16	C	0.863884	0.319305	0.000005
C17	C	1.431369	-0.253446	0.000008
C18	C	1.298767	-0.226057	-0.000536
C19	C	1.301076	-0.128960	0.000009
C20	C	1.435634	-0.085243	0.000005
C21	C	1.479470	-0.104742	0.138078
C22	C	1.476118	-0.201871	0.138193
C23	C	1.521895	-0.225142	-0.136769
C24	C	1.522149	-0.128356	-0.138594
C25	C	1.438051	0.009819	0.000008
C26	C	1.428954	-0.348507	0.000014
C27	C	1.655364	0.357984	0.000012
C28	C	1.790080	0.379940	0.000004
C29	C	1.424641	0.482403	0.000011
C30	C	1.427036	0.575714	0.000009
N31	N	1.379654	0.359848	0.344106
N32	N	1.487357	0.301459	-0.344081
C33	C	1.446587	0.323554	0.416306
C34	C	1.420413	0.337759	0.583723
H35	H	1.043008	0.410702	0.000014
H36	H	1.619870	-0.242236	-0.137701
H37	H	1.343722	0.379346	0.645846
H38	H	1.261230	-0.260983	-0.099551
C39	C	1.206620	-0.251981	0.132483
H40	H	1.248610	-0.279420	0.188352
H41	H	1.141734	-0.289748	0.100740
H42	H	1.172687	-0.202758	0.190441
H43	H	0.829962	0.448650	0.000012
H44	H	1.564039	0.259864	0.593796
C45	C	1.396330	-0.063897	0.276890
H46	H	1.334868	-0.034945	0.250997
H47	H	1.445539	-0.024684	0.332758
H48	H	1.357263	-0.106876	0.332542
C49	C	1.276064	0.416033	0.428024
H50	H	1.272068	0.418214	0.529538
H51	H	1.198882	0.392756	0.403170
H52	H	1.293350	0.471802	0.403148
C53	C	0.810013	0.226486	-0.000002
H54	H	0.723501	0.223410	-0.000014
H55	H	0.823448	0.206542	0.084313
H56	H	0.849844	0.192245	-0.084334
C57	C	1.023047	0.188556	0.000002
H58	H	0.936535	0.185480	-0.000011
H59	H	1.036482	0.168612	0.084316
H60	H	1.062878	0.154315	-0.084331
C61	C	1.252487	-0.112377	-0.133682
H62	H	1.231152	-0.165059	-0.188814
H63	H	1.315101	-0.080983	-0.192106
H64	H	1.181204	-0.080872	-0.102595
C65	C	1.210166	-0.090492	0.133953
H66	H	1.171686	-0.134214	0.188254
H67	H	1.148573	-0.064141	0.103174
H68	H	1.254166	-0.049395	0.193092
C69	C	1.550179	0.267369	0.332394
H70	H	1.588773	0.246436	0.399402
H71	H	1.610064	0.300021	0.272999
H72	H	1.515599	0.220974	0.273032
C73	C	1.389813	-0.224490	0.277613
H74	H	1.357122	-0.174349	0.333643
H75	H	1.435386	-0.249606	0.332819
H76	H	1.323664	-0.263458	0.252381
H77	H	1.572555	-0.218904	0.144455
H78	H	1.621579	-0.098912	-0.146934
H79	H	1.577522	-0.075281	0.143209
C80	C	1.485426	-0.273710	-0.278149
H81	H	1.541210	-0.255687	-0.359358
H82	H	1.403427	-0.262467	-0.282391
H83	H	1.489155	-0.332947	-0.279924
C84	C	1.479203	-0.112911	-0.276588
H85	H	1.408847	-0.080320	-0.249863
H86	H	1.457881	-0.165903	-0.330803
H87	H	1.544386	-0.082959	-0.334219
