data_functionalizedCrystal
_audit_creation_method	'MofGen! by Chris Wilmer'
_symmetry_space_group_name_H-M	'P1'
_symmetry_Int_Tables_number	1
_symmetry_cell_setting	triclinic
loop_
_symmetry_equiv_pos_as_xyz
  x,y,z
_cell_length_a	6.817900
_cell_length_b	15.300992
_cell_length_c	14.858572
_cell_angle_alpha	94.836158
_cell_angle_beta	104.524003
_cell_angle_gamma	104.175078
loop_
_atom_site_label
_atom_site_type_symbol
_atom_site_fract_x
_atom_site_fract_y
_atom_site_fract_z
V1	V	-4.041806	-0.125326	-0.290242
O2	O	-4.025461	0.005438	-0.284428
O3	O	-3.996655	-0.247939	-0.288534
O4	O	-3.998399	-0.123655	-0.416699
O5	O	-4.023705	-0.119706	-0.155375
V6	V	-4.524366	-0.109655	-0.274077
O7	O	-4.305177	-0.159702	-0.325700
O8	O	-4.711192	-0.075279	-0.238618
O9	O	-4.346310	0.012958	-0.275785
O10	O	-4.658107	-0.240420	-0.279890
O11	O	-4.659864	-0.115275	-0.408943
O12	O	-4.344566	-0.111326	-0.147619
C13	C	-3.842285	-0.277821	-0.284026
C14	C	-3.886688	-0.378061	-0.283473
C15	C	-3.863544	-0.412109	-0.198019
C16	C	-3.905287	-0.506296	-0.197502
C17	C	-3.970158	-0.566432	-0.282440
C18	C	-3.993309	-0.532378	-0.367900
C19	C	-3.951581	-0.438193	-0.368417
C20	C	-4.080274	-0.728687	-0.366818
C21	C	-4.122001	-0.822877	-0.366302
C22	C	-4.033980	-0.796789	-0.195904
C23	C	-3.992252	-0.702605	-0.196420
C24	C	-4.015402	-0.668557	-0.281881
C25	C	-3.844509	-0.119283	-0.447513
C26	C	-3.890324	-0.118728	-0.550895
C27	C	-4.058010	-0.116698	-0.929459
C28	C	-4.011346	-0.117263	-0.824131
C29	C	-3.974168	-0.117714	-0.740180
C30	C	-3.927502	-0.118277	-0.634845
C31	C	-4.164022	0.042836	-0.280289
C32	C	-4.098857	0.143074	-0.280849
C33	C	-4.161798	-0.115701	-0.116800
C34	C	-4.095221	-0.116252	-0.013417
H35	H	-3.970450	-0.410474	-0.438002
C36	C	-4.008513	-0.834233	-0.101893
C37	C	-4.140227	-0.814896	-0.036099
C38	C	-4.114748	-0.852343	0.057909
C39	C	-3.957553	-0.909127	0.086123
C40	C	-3.825828	-0.928467	0.020327
C41	C	-3.851308	-0.891020	-0.073681
H42	H	-4.256601	-0.772859	-0.056983
H43	H	-4.212260	-0.838026	0.106615
H44	H	-3.938692	-0.936848	0.155713
H45	H	-3.709454	-0.970505	0.041212
H46	H	-3.753795	-0.905337	-0.122387
C47	C	-3.792169	-0.345963	-0.104584
C48	C	-3.746248	-0.242362	-0.105144
C49	C	-3.674872	-0.176219	-0.011706
C50	C	-3.649416	-0.213676	0.082291
C51	C	-3.695338	-0.317282	0.082854
C52	C	-3.766714	-0.383426	-0.010583
H53	H	-3.765091	-0.214630	-0.174729
H54	H	-3.640878	-0.099523	-0.012123
H55	H	-3.596579	-0.164713	0.151460
H56	H	-3.676495	-0.345015	0.152440
H57	H	-3.800708	-0.460122	-0.010166
C58	C	-4.105737	-0.691234	-0.460826
C59	C	-4.262938	-0.634455	-0.489049
C60	C	-4.288389	-0.597001	-0.583054
C61	C	-4.156640	-0.616328	-0.648835
C62	C	-3.999429	-0.673110	-0.620614
C63	C	-3.973977	-0.710563	-0.526609
H64	H	-4.360476	-0.620145	-0.440352
H65	H	-4.404768	-0.554967	-0.603944
H66	H	-4.175481	-0.588603	-0.718423
H67	H	-3.901890	-0.687419	-0.669311
H68	H	-3.857598	-0.752597	-0.505718
H69	H	-4.046145	-0.581348	-0.437058
H70	H	-3.939419	-0.653643	-0.127256
H71	H	-3.886443	-0.534013	-0.127918
H72	H	-4.174820	-0.871839	-0.435466
