data_functionalizedCrystal
_audit_creation_method	'MofGen! by Chris Wilmer'
_symmetry_space_group_name_H-M	'P1'
_symmetry_Int_Tables_number	1
_symmetry_cell_setting	triclinic
loop_
_symmetry_equiv_pos_as_xyz
  x,y,z
_cell_length_a	10.654550
_cell_length_b	9.065218
_cell_length_c	7.540329
_cell_angle_alpha	90.001757
_cell_angle_beta	90.006486
_cell_angle_gamma	84.750394
loop_
_atom_site_label
_atom_site_type_symbol
_atom_site_fract_x
_atom_site_fract_y
_atom_site_fract_z
O1	O	-1.668659	-0.207233	-0.147621
O2	O	-1.303259	-0.226977	-0.147592
O3	O	-1.493512	-0.002421	-0.147603
O4	O	-1.478407	-0.431788	-0.147609
O5	O	-1.493501	-0.002418	0.147362
O6	O	-1.303248	-0.226974	0.147374
O7	O	-1.668648	-0.207230	0.147344
Cu8	Cu	-1.485947	-0.217101	0.174292
Cu9	Cu	-1.485960	-0.217105	-0.174539
O10	O	-1.478395	-0.431785	0.147356
C11	C	-1.256450	-0.225525	-0.000105
C12	C	-1.116989	-0.221188	-0.000094
C13	C	-1.715457	-0.208681	-0.000146
C14	C	-1.854918	-0.213018	-0.000168
C15	C	-1.038027	-0.353403	-0.000122
C16	C	-0.906990	-0.349319	-0.000153
C17	C	-0.933890	-0.080793	-0.000135
C18	C	-1.064925	-0.084879	-0.000092
C19	C	-1.090092	-0.489712	-0.000124
C20	C	-1.011129	-0.621938	-0.000154
C21	C	-0.880092	-0.617853	-0.000185
C22	C	-0.828018	-0.481543	-0.000186
C23	C	-1.492055	0.052559	-0.000123
C24	C	-1.487714	0.216378	-0.000131
C25	C	-1.479852	-0.486766	-0.000128
C26	C	-1.484193	-0.650585	-0.000131
N27	N	-1.485946	-0.217098	0.419640
N28	N	-1.485971	-0.217096	-0.419887
H29	H	-1.196787	-0.493053	-0.000108
H30	H	-1.129218	0.022782	-0.000074
H31	H	-1.053536	-0.732916	-0.000138
C32	C	-0.877114	0.067044	-0.000245
C33	C	-0.745459	0.042323	-0.000341
C34	C	-0.693117	0.178477	-0.000474
H35	H	-0.903945	0.121660	0.102594
H36	H	-0.904070	0.121551	-0.103141
H37	H	-0.718514	-0.012161	0.102544
H38	H	-0.718592	-0.012270	-0.103173
H39	H	-0.720073	0.232984	-0.103369
H40	H	-0.719957	0.233082	0.102368
H41	H	-0.603784	0.161722	-0.000555
H42	H	-0.815803	-0.725518	-0.000191
H43	H	-0.721318	-0.478229	-0.000183
