data_functionalizedCrystal
_audit_creation_method	'MofGen! by Chris Wilmer'
_symmetry_space_group_name_H-M	'P1'
_symmetry_Int_Tables_number	1
_symmetry_cell_setting	triclinic
loop_
_symmetry_equiv_pos_as_xyz
  x,y,z
_cell_length_a	8.597340
_cell_length_b	11.792241
_cell_length_c	7.681481
_cell_angle_alpha	95.781647
_cell_angle_beta	76.525094
_cell_angle_gamma	84.766049
loop_
_atom_site_label
_atom_site_type_symbol
_atom_site_fract_x
_atom_site_fract_y
_atom_site_fract_z
O1	O	2.101203	0.156959	-0.172360
O2	O	2.601203	0.656959	0.327640
O3	O	1.637298	0.175043	-0.101974
O4	O	2.137298	0.675043	0.398026
O5	O	1.880509	0.000779	-0.138888
O6	O	2.380509	0.500779	0.361112
O7	O	1.857991	0.331222	-0.135447
O8	O	2.357991	0.831222	0.364553
O9	O	1.910444	-0.020718	-0.436289
O10	O	2.410444	0.479282	0.063711
O11	O	1.667233	0.153545	-0.399375
O12	O	2.167233	0.653545	0.100625
O13	O	2.131137	0.135461	-0.469762
O14	O	2.631137	0.635461	0.030238
Zn15	Zn	1.903938	0.141090	-0.481787
Zn16	Zn	2.403938	0.641090	0.018213
Zn17	Zn	1.864497	0.169414	-0.089948
Zn18	Zn	2.364497	0.669414	0.410052
O19	O	1.887926	0.309724	-0.432848
O20	O	2.387926	0.809724	0.067152
C21	C	1.592875	0.163549	-0.241664
C22	C	2.092875	0.663549	0.258336
C23	C	1.415912	0.161317	-0.214814
C24	C	1.915912	0.661317	0.285186
C25	C	1.894062	-0.052254	-0.287373
C26	C	2.394062	0.447746	0.212627
C27	C	1.889829	-0.178249	-0.286729
C28	C	2.389829	0.321751	0.213271
C29	C	1.882042	-0.408924	-0.285518
C30	C	2.382042	0.091076	0.214482
C31	C	1.886368	-0.280560	-0.286191
C32	C	2.386368	0.219440	0.213809
C33	C	2.175560	0.146955	-0.330068
C34	C	2.675560	0.646955	0.169932
C35	C	2.352522	0.149187	-0.356906
C36	C	2.852522	0.649187	0.143094
C37	C	1.874373	0.362758	-0.284358
C38	C	2.374373	0.862758	0.215642
C39	C	1.878605	0.488754	-0.284991
C40	C	2.378605	0.988754	0.215009
N41	N	1.930867	0.121759	-0.749209
N42	N	2.430867	0.621759	-0.249209
N43	N	1.837581	0.188736	0.177471
N44	N	2.337581	0.688736	0.677471
H45	H	1.334791	0.169995	-0.072606
H46	H	1.834791	0.669995	0.427394
H47	H	1.742356	0.257099	-0.732879
H48	H	2.242356	0.757099	-0.232879
N49	N	2.057033	0.031209	-0.867957
N50	N	2.557033	0.531209	-0.367957
H51	H	2.053987	0.033410	-0.998232
H52	H	2.553987	0.533410	-0.498232
H53	H	2.034511	-0.046947	-0.832421
H54	H	2.534511	0.453053	-0.332421
H55	H	1.433636	0.140502	-0.499105
H56	H	1.933636	0.640502	0.000895
