data_functionalizedCrystal
_audit_creation_method	'MofGen! by Chris Wilmer'
_symmetry_space_group_name_H-M	'P1'
_symmetry_Int_Tables_number	1
_symmetry_cell_setting	triclinic
loop_
_symmetry_equiv_pos_as_xyz
  x,y,z
_cell_length_a	10.540539
_cell_length_b	10.540539
_cell_length_c	9.616153
_cell_angle_alpha	89.999906
_cell_angle_beta	89.995174
_cell_angle_gamma	84.525492
loop_
_atom_site_label
_atom_site_type_symbol
_atom_site_fract_x
_atom_site_fract_y
_atom_site_fract_z
O1	O	1.685892	0.178895	-0.115573
O2	O	1.316479	0.195751	-0.115589
O3	O	1.509614	0.002617	-0.115579
O4	O	1.492758	0.372030	-0.115583
O5	O	1.509587	0.002621	0.115712
O6	O	1.316452	0.195755	0.115702
O7	O	1.685865	0.178899	0.115718
Zn8	Zn	1.501155	0.187328	0.152433
Zn9	Zn	1.501190	0.187323	-0.152304
O10	O	1.492731	0.372034	0.115708
C11	C	1.269163	0.194489	0.000054
C12	C	1.128215	0.190707	0.000048
C13	C	0.944788	0.045790	0.000589
C14	C	1.091406	0.049624	0.000054
C15	C	1.066557	0.258600	-0.132027
C16	C	0.920013	0.253785	-0.132123
C17	C	0.919494	0.256660	0.130899
C18	C	1.066476	0.257959	0.132630
C19	C	1.508336	-0.044684	0.000064
C20	C	1.504554	-0.185632	0.000056
C21	C	1.359637	-0.369059	-0.000469
C22	C	1.363471	-0.222441	0.000052
C23	C	1.572435	-0.247288	0.132138
C24	C	1.567620	-0.393832	0.132249
C25	C	1.570519	-0.394355	-0.130772
C26	C	1.571819	-0.247373	-0.132518
C27	C	1.733182	0.180161	0.000072
C28	C	1.874130	0.183943	0.000069
C29	C	1.494008	0.419335	0.000062
C30	C	1.497790	0.560283	0.000060
N31	N	1.501140	0.187331	0.360407
N32	N	1.501215	0.187310	-0.360278
C33	C	1.397510	0.290298	0.580772
C34	C	1.397739	0.290684	0.419604
C35	C	1.633864	0.217464	0.418862
C36	C	1.633299	0.218193	0.580080
C37	C	1.473368	0.053892	0.580319
C38	C	1.470321	0.054757	0.419092
H39	H	0.872044	0.355250	-0.138119
H40	H	0.891814	0.203603	-0.230849
N41	N	1.419653	0.413785	0.631545
N42	N	1.347174	0.509213	0.596493
H43	H	1.362814	0.596426	0.632353
H44	H	1.712941	0.146204	0.619073
N45	N	1.698368	-0.453566	-0.131880
N46	N	1.771684	-0.436020	-0.033026
H47	H	1.861976	-0.477837	-0.033799
N48	N	1.289698	-0.404941	-0.119265
N49	N	1.177414	-0.358235	-0.137409
H50	H	1.128015	-0.383585	-0.221310
N51	N	1.274060	0.268156	0.369740
N52	N	1.212658	0.349499	0.295169
H53	H	1.125319	0.333661	0.259854
N54	N	1.420123	0.414881	0.371216
N55	N	1.435638	0.501543	0.456513
H56	H	1.451427	0.589269	0.422341
N57	N	1.509660	-0.195990	-0.255121
N58	N	1.548860	-0.232853	-0.372380
H59	H	1.504972	-0.196543	-0.458970
N60	N	0.906911	-0.023872	-0.117545
N61	N	0.952618	-0.136414	-0.136199
H62	H	0.925859	-0.185616	-0.219627
H63	H	1.525259	-0.204686	0.230425
H64	H	1.134009	-0.003797	0.094731
H65	H	1.657654	0.315531	0.617668
H66	H	0.887936	0.211004	0.231010
H67	H	1.712918	0.144501	0.380514
H68	H	1.372683	0.031917	0.380887
H69	H	1.298585	0.272445	0.619578
H70	H	1.109157	0.211434	-0.230318
N71	N	1.513282	-0.433930	-0.256379
N72	N	1.577054	-0.504968	-0.339965
H73	H	1.536621	-0.532918	-0.428672
H74	H	1.517430	-0.422030	0.230979
H75	H	1.107427	0.208361	0.230338
N76	N	1.296454	-0.168964	-0.118703
N77	N	1.287820	-0.051270	-0.138629
H78	H	1.240483	-0.013504	-0.222501
N79	N	1.700848	-0.216959	-0.142524
N80	N	1.745533	-0.148988	-0.051697
H81	H	1.836663	-0.127502	-0.058758
N82	N	1.296001	-0.170045	0.119037
N83	N	1.352362	-0.109144	0.207558
H84	H	1.304711	-0.072138	0.291599
H85	H	1.658761	0.313702	0.378472
N86	N	1.354481	0.017956	0.631347
N87	N	1.253631	0.086526	0.606606
H88	H	1.169658	0.061161	0.642638
H89	H	1.540848	-0.025564	0.378801
N90	N	1.568210	-0.042266	0.628170
N91	N	1.582739	-0.062048	0.755600
H92	H	1.649723	-0.129952	0.789406
N93	N	0.908987	-0.024077	0.119483
N94	N	0.830970	0.027125	0.205218
H95	H	0.805708	-0.022205	0.289216
H96	H	1.088911	0.362208	-0.136942
N97	N	1.143780	-0.017869	-0.118926
N98	N	1.072031	-0.067947	-0.201833
H99	H	1.109018	-0.115616	-0.285870
N100	N	1.096874	0.386994	0.142624
N101	N	1.164833	0.431691	0.051783
H102	H	1.186302	0.522827	0.058830
H103	H	1.304122	-0.399265	0.093714
N104	N	0.860228	0.384487	0.132046
N105	N	0.790919	0.422861	0.231879
H106	H	0.749055	0.513134	0.232683
N107	N	1.694907	-0.453998	0.139791
N108	N	1.787010	-0.387719	0.144965
H109	H	1.876906	-0.430205	0.150301
H110	H	1.676042	-0.224933	0.137054
