data_functionalizedCrystal
_audit_creation_method	'MofGen! by Chris Wilmer'
_symmetry_space_group_name_H-M	'P1'
_symmetry_Int_Tables_number	1
_symmetry_cell_setting	triclinic
loop_
_symmetry_equiv_pos_as_xyz
  x,y,z
_cell_length_a	27.732048
_cell_length_b	27.732048
_cell_length_c	26.809956
_cell_angle_alpha	90.000636
_cell_angle_beta	90.003258
_cell_angle_gamma	82.642655
loop_
_atom_site_label
_atom_site_type_symbol
_atom_site_fract_x
_atom_site_fract_y
_atom_site_fract_z
O1	O	-0.640931	-0.057510	-0.041421
O2	O	-0.500138	-0.066256	-0.041436
O3	O	-0.574907	0.008514	-0.041419
O4	O	-0.566162	-0.132280	-0.041439
O5	O	-0.574893	0.008502	0.041541
O6	O	-0.500123	-0.066267	0.041523
O7	O	-0.640917	-0.057522	0.041539
Zn8	Zn	-0.570518	-0.061896	0.054702
Zn9	Zn	-0.570536	-0.061881	-0.054600
O10	O	-0.566147	-0.132291	0.041521
C11	C	-0.482124	-0.066078	0.000041
C12	C	-0.428469	-0.065525	0.000036
C13	C	-0.574716	0.026515	0.000062
C14	C	-0.574164	0.080170	0.000066
C15	C	-0.658931	-0.057699	0.000060
C16	C	-0.712586	-0.058252	0.000062
C17	C	-0.089654	-0.106229	0.000051
C18	C	0.112006	-0.104178	0.000056
O19	O	0.143262	-0.141398	0.000073
N20	N	0.131130	-0.059843	0.000062
C21	C	0.099835	-0.016017	0.000069
O22	O	0.120728	0.021740	0.000079
C23	C	-0.101824	-0.018068	0.000068
C24	C	-0.120944	-0.062407	0.000057
C25	C	-0.108775	-0.150563	0.000042
C26	C	-0.159187	-0.151076	0.000038
C27	C	-0.190477	-0.107253	0.000044
C28	C	-0.171356	-0.062919	0.000054
C29	C	-0.133117	0.025757	0.000079
C30	C	-0.183535	0.025240	0.000080
C31	C	-0.202655	-0.019098	0.000069
C32	C	-0.253059	-0.019609	0.000056
N33	N	-0.272183	-0.063944	0.000050
C34	C	-0.240892	-0.107766	0.000044
C35	C	0.205709	-0.014943	0.000069
C36	C	0.256124	-0.014430	0.000068
C37	C	0.268291	-0.102591	0.000056
C38	C	0.217876	-0.103104	0.000053
C39	C	0.186585	-0.059278	0.000063
C40	C	-0.346761	-0.108839	0.000036
C41	C	-0.397178	-0.109347	0.000030
C42	C	-0.409341	-0.021186	0.000044
C43	C	-0.358929	-0.020678	0.000048
C44	C	-0.327639	-0.064508	0.000045
O45	O	-0.284343	0.017592	0.000045
O46	O	-0.261794	-0.145518	0.000045
C47	C	-0.039242	-0.105716	0.000055
C48	C	-0.020120	-0.061382	0.000065
C49	C	-0.051411	-0.017560	0.000071
C50	C	0.030294	-0.060869	0.000065
C51	C	0.061585	-0.104691	0.000059
C52	C	0.042461	-0.149026	0.000053
C53	C	-0.007951	-0.149539	0.000049
C54	C	-0.032287	0.026775	0.000077
C55	C	0.018125	0.027284	0.000080
C56	C	0.049416	-0.016538	0.000074
C57	C	-0.566338	-0.150292	0.000039
C58	C	-0.566891	-0.203947	0.000031
N59	N	-0.570509	-0.061906	0.129298
C60	C	-0.614867	0.418985	0.000045
C61	C	-0.612816	0.620645	0.000038
O62	O	-0.650037	0.651900	0.000021
N63	N	-0.568481	0.639768	0.000034
C64	C	-0.524656	0.608474	0.000028
O65	O	-0.486899	0.629367	0.000019
C66	C	-0.526707	0.406815	0.000031
C67	C	-0.571045	0.387694	0.000041
C68	C	-0.659202	0.399864	0.000054
C69	C	-0.659714	0.349452	0.000059
C70	C	-0.615892	0.318161	0.000054
C71	C	-0.571557	0.337282	0.000045
C72	C	-0.482882	0.375521	0.000022
C73	C	-0.483399	0.325104	0.000021
C74	C	-0.527737	0.305983	0.000031
C75	C	-0.528247	0.255580	0.000045
N76	N	-0.572583	0.236456	0.000050
C77	C	-0.616405	0.267747	0.000054
C78	C	-0.523582	0.714348	0.000027
C79	C	-0.523069	0.764762	0.000027
C80	C	-0.611230	0.776930	0.000036
C81	C	-0.611742	0.726514	0.000040
C82	C	-0.567917	0.695224	0.000031
C83	C	-0.617477	0.161878	0.000064
C84	C	-0.617986	0.111461	0.000071
C85	C	-0.529825	0.099298	0.000059
C86	C	-0.529316	0.149710	0.000055
C87	C	-0.573147	0.180999	0.000056
O88	O	-0.491047	0.224296	0.000057
O89	O	-0.654156	0.246844	0.000053
C90	C	-0.614355	0.469397	0.000041
C91	C	-0.570021	0.488518	0.000032
C92	C	-0.526198	0.457228	0.000027
C93	C	-0.569508	0.538933	0.000032
C94	C	-0.613330	0.570223	0.000036
C95	C	-0.657665	0.551100	0.000041
C96	C	-0.658177	0.500688	0.000045
C97	C	-0.481863	0.476351	0.000023
C98	C	-0.481355	0.526764	0.000019
C99	C	-0.525177	0.558054	0.000023
N100	N	-0.570549	-0.061867	-0.129196
C101	C	-0.603640	-0.028781	0.473932
C102	C	-0.603652	-0.028774	0.682810
O103	O	-0.631801	-0.000613	0.709820
N104	N	-0.570539	-0.061870	0.708925
C105	C	-0.537419	-0.094969	0.682818
O106	O	-0.509252	-0.123116	0.709824
C107	C	-0.537406	-0.094974	0.473941
C108	C	-0.570524	-0.061878	0.447829
C109	C	-0.636755	0.004312	0.447819
C110	C	-0.636754	0.004308	0.395603
C111	C	-0.603637	-0.028789	0.369500
C112	C	-0.570522	-0.061882	0.395612
C113	C	-0.504284	-0.128070	0.447835
C114	C	-0.504283	-0.128067	0.395613
C115	C	-0.537401	-0.094972	0.369500
C116	C	-0.537405	-0.094983	0.317293
N117	N	-0.570517	-0.061887	0.291177
C118	C	-0.603633	-0.028790	0.317281
C119	C	-0.537429	-0.094965	0.792481
C120	C	-0.537433	-0.094964	0.844700
C121	C	-0.603665	-0.028768	0.844689
C122	C	-0.603663	-0.028772	0.792469
C123	C	-0.570542	-0.061868	0.766366
C124	C	-0.603628	-0.028801	0.207623
C125	C	-0.603625	-0.028809	0.155402
C126	C	-0.537392	-0.095003	0.155418
C127	C	-0.537396	-0.094997	0.207635
C128	C	-0.570516	-0.061892	0.233735
O129	O	-0.509266	-0.123126	0.290250
O130	O	-0.631789	-0.000640	0.290266
C131	C	-0.603642	-0.028777	0.526149
C132	C	-0.570527	-0.061870	0.552261
C133	C	-0.537410	-0.094968	0.526158
C134	C	-0.570531	-0.061870	0.604480
C135	C	-0.603647	-0.028773	0.630584
C136	C	-0.636759	0.004324	0.604468
C137	C	-0.636758	0.004320	0.552252
C138	C	-0.504298	-0.128064	0.552273
C139	C	-0.504303	-0.128058	0.604489
C140	C	-0.537419	-0.094961	0.630593
H141	H	-0.412743	-0.145454	0.000021
H142	H	-0.321291	-0.144530	0.000035
H143	H	-0.477330	-0.155015	0.531024
H144	H	-0.487892	0.688875	0.000020
H145	H	-0.174750	-0.187180	0.000029
O146	O	-0.700247	0.581481	0.000132
C147	C	-0.775447	0.607304	0.043097
C148	C	-0.727240	0.572876	0.043066
H149	H	-0.797289	0.600352	0.077799
H150	H	-0.767488	0.646629	0.043124
H151	H	-0.797270	0.600396	0.008364
H152	H	-0.705394	0.579740	0.077792
H153	H	-0.735234	0.533562	0.043012
H154	H	-0.477317	-0.155019	0.469089
H155	H	-0.647846	0.710950	0.000047
H156	H	0.202311	-0.139207	0.000047
H157	H	-0.663720	0.031258	0.374345
O158	O	-0.439798	0.394063	-0.000079
C159	C	-0.364288	0.399040	-0.043065
C160	C	-0.413072	0.378021	-0.043017
H161	H	-0.342661	0.386070	-0.077771
H162	H	-0.371409	0.440449	-0.043098
H163	H	-0.342664	0.386131	-0.008336
H164	H	-0.434721	0.390893	-0.077740
H165	H	-0.405916	0.336614	-0.042958
O166	O	-0.340327	0.022378	-0.000034
C167	C	-0.290442	0.074116	-0.042978
C168	C	-0.311481	0.025343	-0.042960
H169	H	-0.267108	0.076525	-0.077674
H170	H	-0.321448	0.105369	-0.043008
H171	H	-0.267167	0.076546	-0.008239
H172	H	-0.334750	0.022865	-0.077693
H173	H	-0.280452	-0.005887	-0.042903
H174	H	-0.446177	0.450879	0.000018
O175	O	-0.078452	-0.193180	0.000012
C176	C	-0.071721	-0.280677	0.000020
C177	C	-0.106113	-0.232445	0.000048
H178	H	-0.094071	-0.312435	0.000060
H179	H	-0.047828	-0.282671	-0.034708
H180	H	-0.047799	-0.282627	0.034728
H181	H	-0.130065	-0.230462	-0.034637
H182	H	-0.129973	-0.230471	0.034799
H183	H	0.293777	-0.138273	0.000051
H184	H	0.271687	0.021674	0.000069
O185	O	0.175386	0.027676	0.000053
C186	C	0.168651	0.115173	0.000092
C187	C	0.203044	0.066943	0.000100
H188	H	0.190999	0.146932	0.000140
H189	H	0.144750	0.117178	-0.034634
H190	H	0.144737	0.117111	0.034802
H191	H	0.226989	0.064972	-0.034587
H192	H	0.226912	0.064958	0.034850
O193	O	-0.487245	0.068918	0.000140
C194	C	-0.412026	0.043101	0.043081
C195	C	-0.460235	0.077527	0.043063
H196	H	-0.390170	0.050056	0.077775
H197	H	-0.419982	0.003775	0.043114
H198	H	-0.390219	0.050009	0.008340
H199	H	-0.482066	0.070662	0.077798
H200	H	-0.452244	0.116841	0.043004
H201	H	0.033688	0.063392	0.000085
O202	O	-0.439723	0.021393	-0.000038
C203	C	-0.465545	0.096606	-0.042985
C204	C	-0.431117	0.048399	-0.042963
H205	H	-0.458592	0.118458	-0.077680
H206	H	-0.504870	0.088646	-0.043019
H207	H	-0.458638	0.118417	-0.008245
H208	H	-0.437980	0.026563	-0.077697
H209	H	-0.391803	0.056393	-0.042903
O210	O	0.072930	-0.191552	0.000069
C211	C	0.155995	-0.229821	0.000040
C212	C	0.121541	-0.181630	0.000030
H213	H	0.195304	-0.221816	-0.000002
H214	H	0.149124	-0.251670	0.034763
H215	H	0.149058	-0.251657	-0.034673
H216	H	0.128458	-0.159754	0.034720
H217	H	0.128419	-0.159817	-0.034716
O218	O	-0.635847	0.003376	0.232895
C219	C	-0.701519	0.069051	0.227358
C220	C	-0.665065	0.032632	0.198676
H221	H	-0.725145	0.092721	0.199704
H222	H	-0.725547	0.048378	0.251792
H223	H	-0.680826	0.093039	0.251819
H224	H	-0.685719	0.008635	0.174188
H225	H	-0.641038	0.053336	0.174274
H226	H	-0.117558	0.061861	0.000088
H227	H	-0.057760	0.062462	0.000083
H228	H	-0.023514	-0.185643	0.000042
O229	O	-0.213861	0.067857	0.000065
C230	C	-0.220604	0.155355	0.000110
C231	C	-0.186206	0.107127	0.000117
H232	H	-0.198259	0.187117	0.000163
H233	H	-0.244502	0.157359	-0.034619
H234	H	-0.244521	0.157288	0.034818
H235	H	-0.162259	0.105161	-0.034567
H236	H	-0.162341	0.105143	0.034869
H237	H	-0.654093	0.095896	0.000080
O238	O	-0.660097	0.192199	0.000089
C239	C	-0.747594	0.198933	0.000076
C240	C	-0.699364	0.164540	0.000055
H241	H	-0.779354	0.176584	0.000038
H242	H	-0.749588	0.222832	0.034801
H243	H	-0.749544	0.222848	-0.034635
H244	H	-0.697382	0.140593	0.034743
H245	H	-0.697390	0.140673	-0.034693
H246	H	-0.695819	0.333889	0.000065
H247	H	-0.663722	0.031266	0.469068
O248	O	-0.440838	0.294689	-0.000074
C249	C	-0.390271	0.230687	-0.043042
C250	C	-0.438482	0.265110	-0.043003
H251	H	-0.388355	0.206757	-0.077741
H252	H	-0.358478	0.252993	-0.043081
H253	H	-0.388304	0.206804	-0.008306
H254	H	-0.440496	0.289001	-0.077733
H255	H	-0.470252	0.242776	-0.042938
H256	H	-0.630630	-0.001822	0.771211
O257	O	-0.701819	0.430187	0.000083
C258	C	-0.789315	0.436917	0.000072
C259	C	-0.741084	0.402526	0.000046
H260	H	-0.821074	0.414567	0.000032
H261	H	-0.791309	0.460813	0.034800
H262	H	-0.791267	0.460837	-0.034637
H263	H	-0.739100	0.378576	0.034731
H264	H	-0.739110	0.378663	-0.034705
O265	O	-0.653831	0.807281	-0.000029
C266	C	-0.729010	0.833136	-0.043028
C267	C	-0.680790	0.798726	-0.043004
H268	H	-0.750815	0.826238	-0.077775
H269	H	-0.750882	0.826224	-0.008333
H270	H	-0.721011	0.872447	-0.043006
H271	H	-0.688745	0.759402	-0.043044
H272	H	-0.658932	0.805679	-0.077696
H273	H	-0.630630	-0.001820	0.865951
O274	O	-0.505180	-0.127163	0.232926
C275	C	-0.439498	-0.192831	0.227420
C276	C	-0.475956	-0.156428	0.198721
H277	H	-0.415868	-0.216508	0.199778
H278	H	-0.415475	-0.172145	0.251849
H279	H	-0.460188	-0.216814	0.251887
H280	H	-0.455305	-0.132435	0.174227
H281	H	-0.499978	-0.177144	0.174323
H282	H	-0.493213	0.165279	0.000061
O283	O	-0.668882	0.036457	0.629908
C284	C	-0.698245	0.065772	0.710357
C285	C	-0.661838	0.029363	0.681606
H286	H	-0.692570	0.060042	0.752159
H287	H	-0.692237	0.104457	0.700129
H288	H	-0.736909	0.059747	0.700061
H289	H	-0.623160	0.035343	0.691886
H290	H	-0.667889	-0.009309	0.691836
H291	H	-0.694282	0.485125	0.000053
O292	O	-0.505219	-0.127135	0.869986
C293	C	-0.439543	-0.192809	0.864472
C294	C	-0.475995	-0.156396	0.835777
H295	H	-0.415913	-0.216482	0.836826
H296	H	-0.415520	-0.172130	0.888908
H297	H	-0.460238	-0.216794	0.888931
H298	H	-0.455340	-0.132401	0.811291
H299	H	-0.500018	-0.177104	0.811372
O300	O	-0.479956	0.783252	0.000001
C301	C	-0.392567	0.765849	0.000018
C302	C	-0.441359	0.744847	0.000039
H303	H	-0.361349	0.734809	0.000059
H304	H	-0.390094	0.789129	-0.034710
H305	H	-0.390140	0.789164	0.034727
H306	H	-0.443820	0.721510	-0.034646
H307	H	-0.443812	0.721595	0.034790
H308	H	-0.445246	0.542327	0.000015
H309	H	-0.630595	-0.001859	0.134142
H310	H	-0.663725	0.031269	0.530995
O311	O	-0.505323	-0.127142	0.767075
C312	C	-0.494534	-0.193264	0.708158
C313	C	-0.530944	-0.156840	0.736886
H314	H	-0.515235	-0.217291	0.683751
H315	H	-0.470542	-0.172596	0.683679
H316	H	-0.470865	-0.216895	0.735810
H317	H	-0.554645	-0.133200	0.709270
H318	H	-0.554903	-0.177539	0.761373
O319	O	-0.472091	-0.160267	0.370335
C320	C	-0.406376	-0.225901	0.375862
C321	C	-0.442813	-0.189469	0.404550
H322	H	-0.382689	-0.249513	0.403513
H323	H	-0.427035	-0.249944	0.351428
H324	H	-0.382407	-0.205189	0.351402
H325	H	-0.466791	-0.210141	0.429038
H326	H	-0.422124	-0.165426	0.428952
O327	O	-0.472083	-0.160228	0.629775
C328	C	-0.406403	-0.225898	0.624261
C329	C	-0.442860	-0.189489	0.595566
H330	H	-0.382773	-0.249571	0.596615
H331	H	-0.382379	-0.205215	0.648693
H332	H	-0.427094	-0.249883	0.648724
H333	H	-0.422208	-0.165494	0.571076
H334	H	-0.466883	-0.210202	0.571165
H335	H	-0.510430	-0.121952	0.134157
