data_functionalizedCrystal
_audit_creation_method	'MofGen! by Chris Wilmer'
_symmetry_space_group_name_H-M	'P1'
_symmetry_Int_Tables_number	1
_symmetry_cell_setting	triclinic
loop_
_symmetry_equiv_pos_as_xyz
  x,y,z
_cell_length_a	10.723024
_cell_length_b	8.140239
_cell_length_c	9.065218
_cell_angle_alpha	90.001686
_cell_angle_beta	95.258123
_cell_angle_gamma	89.997577
loop_
_atom_site_label
_atom_site_type_symbol
_atom_site_fract_x
_atom_site_fract_y
_atom_site_fract_z
O1	O	1.658026	-0.136596	-0.206940
O2	O	1.294954	-0.136601	-0.226748
O3	O	1.483995	-0.136595	-0.002159
O4	O	1.468985	-0.136602	-0.431529
O5	O	1.483984	0.136632	-0.002156
O6	O	1.294944	0.136627	-0.226745
O7	O	1.658015	0.136631	-0.206937
Zn8	Zn	1.476478	0.180010	-0.216841
Zn9	Zn	1.476492	-0.179979	-0.216844
O10	O	1.468975	0.136626	-0.431526
C11	C	1.248443	0.000012	-0.225305
C12	C	1.109872	0.000010	-0.220992
N13	N	1.476477	0.425692	-0.216837
N14	N	1.476502	-0.425661	-0.216836
C15	C	1.035399	0.000007	-0.346660
C16	C	0.892178	0.000005	-0.342206
C17	C	1.704526	0.000015	-0.208380
C18	C	1.843098	0.000006	-0.212693
C19	C	1.482547	0.000016	0.052821
C20	C	1.478234	0.000008	0.216639
C21	C	1.470423	0.000011	-0.486506
C22	C	1.474736	0.000008	-0.650324
H23	H	0.828182	-0.000004	-0.449788
O24	O	1.059395	-0.000281	-0.088734
C25	C	0.927649	-0.141784	0.071420
C26	C	0.984749	-0.141676	-0.078402
H27	H	0.867264	-0.256072	0.079810
H28	H	1.005945	-0.141889	0.165407
H29	H	0.867393	-0.027387	0.079919
H30	H	1.044992	-0.256054	-0.087045
H31	H	0.906392	-0.141485	-0.172316
O32	O	0.919299	0.000226	-0.084235
C33	C	0.982256	0.141826	0.143930
C34	C	0.895856	0.141765	-0.001473
H35	H	0.963352	0.256265	0.210870
H36	H	0.963304	0.027560	0.211074
H37	H	1.084152	0.141744	0.117434
H38	H	0.793930	0.141904	0.024889
H39	H	0.914916	0.256021	-0.068575
O40	O	1.085756	0.000297	-0.478993
C41	C	1.102944	0.141793	-0.709729
C42	C	1.045863	0.141688	-0.559895
H43	H	1.070692	0.256077	-0.775193
H44	H	1.209475	0.141902	-0.689843
H45	H	1.070851	0.027392	-0.775121
H46	H	1.077859	0.256069	-0.494425
H47	H	0.939339	0.141493	-0.579886
