data_functionalizedCrystal
_audit_creation_method	'MofGen! by Chris Wilmer'
_symmetry_space_group_name_H-M	'P1'
_symmetry_Int_Tables_number	1
_symmetry_cell_setting	triclinic
loop_
_symmetry_equiv_pos_as_xyz
  x,y,z
_cell_length_a	27.732048
_cell_length_b	14.853567
_cell_length_c	13.330367
_cell_angle_alpha	90.008763
_cell_angle_beta	89.998669
_cell_angle_gamma	83.138792
loop_
_atom_site_label
_atom_site_type_symbol
_atom_site_fract_x
_atom_site_fract_y
_atom_site_fract_z
O1	O	-0.641431	-0.107257	0.083287
O2	O	-0.141431	0.392743	0.583287
O3	O	-0.500714	-0.123567	0.083316
O4	O	-0.000714	0.376433	0.583316
O5	O	-0.574831	0.015879	0.083303
O6	O	-0.074831	0.515879	0.583303
O7	O	-0.567314	-0.246703	0.083299
O8	O	-0.067314	0.253297	0.583299
O9	O	-0.574820	0.015857	-0.083544
O10	O	-0.074820	0.515857	0.416456
O11	O	-0.500703	-0.123590	-0.083531
O12	O	-0.000703	0.376410	0.416469
O13	O	-0.641420	-0.107279	-0.083560
O14	O	-0.141420	0.392721	0.416440
Cu15	Cu	-0.571060	-0.115436	-0.098780
Cu16	Cu	-0.071060	0.384564	0.401220
Cu17	Cu	-0.571074	-0.115410	0.098536
Cu18	Cu	-0.071074	0.384590	0.598536
O19	O	-0.567303	-0.246725	-0.083548
O20	O	-0.067303	0.253275	0.416452
C21	C	-0.482700	-0.123236	-0.000104
C22	C	0.017300	0.376764	0.499896
C23	C	-0.429040	-0.122205	-0.000092
C24	C	0.070960	0.377795	0.499908
C25	C	-0.574485	0.049451	-0.000117
C26	C	-0.074485	0.549451	0.499883
C27	C	-0.573464	0.149518	-0.000108
C28	C	-0.073464	0.649518	0.499892
C29	C	-0.659434	-0.107610	-0.000139
C30	C	-0.159434	0.392390	0.499861
C31	C	-0.713094	-0.108641	-0.000143
C32	C	-0.213094	0.391359	0.499857
C33	C	-0.090580	-0.198118	-0.000137
C34	C	0.409420	0.301882	0.499863
C35	C	0.111097	-0.194293	-0.000146
C36	C	0.611097	0.305707	0.499854
O37	O	0.142028	-0.263710	-0.000191
O38	O	0.642028	0.236290	0.499809
N39	N	0.130608	-0.111607	-0.000143
N40	N	0.630608	0.388393	0.499857
C41	C	0.099695	-0.029872	-0.000144
C42	C	0.599695	0.470128	0.499856
O43	O	0.120918	0.040545	-0.000152
O44	O	0.620918	0.540545	0.499848
C45	C	-0.101981	-0.033698	-0.000142
C46	C	0.398019	0.466302	0.499858
C47	C	-0.121489	-0.116389	-0.000135
C48	C	0.378511	0.383611	0.499865
C49	C	-0.110088	-0.280803	-0.000131
C50	C	0.389912	0.219197	0.499869
C51	C	-0.160504	-0.281758	-0.000124
C52	C	0.339496	0.218242	0.499876
C53	C	-0.191413	-0.200029	-0.000122
C54	C	0.308587	0.299971	0.499878
C55	C	-0.171905	-0.117345	-0.000128
C56	C	0.328095	0.382655	0.499872
C57	C	-0.132893	0.048036	-0.000151
C58	C	0.367107	0.548036	0.499849
C59	C	-0.183314	0.047073	-0.000153
C60	C	0.316686	0.547073	0.499847
C61	C	-0.202822	-0.035619	-0.000146
C62	C	0.297178	0.464381	0.499854
C63	C	-0.253230	-0.036571	-0.000118
C64	C	0.246770	0.463429	0.499882
N65	N	-0.272740	-0.119257	-0.000121
N66	N	0.227260	0.380743	0.499879
C67	C	-0.241832	-0.200986	-0.000123
C68	C	0.258168	0.299014	0.499877
C69	C	0.205579	-0.027869	-0.000143
C70	C	0.705579	0.472131	0.499857
C71	C	0.255998	-0.026912	-0.000142
C72	C	0.755998	0.473088	0.499858
C73	C	0.267396	-0.191334	-0.000146
C74	C	0.767396	0.308666	0.499854
C75	C	0.216976	-0.192290	-0.000140
C76	C	0.716976	0.307710	0.499860
C77	C	0.186068	-0.110555	-0.000146
C78	C	0.686068	0.389445	0.499854
C79	C	-0.347710	-0.202986	-0.000106
C80	C	0.152290	0.297014	0.499894
C81	C	-0.398132	-0.203934	-0.000094
C82	C	0.101868	0.296066	0.499906
C83	C	-0.409526	-0.039513	-0.000096
C84	C	0.090474	0.460487	0.499904
C85	C	-0.359109	-0.038564	-0.000102
C86	C	0.140891	0.461436	0.499898
C87	C	-0.328202	-0.120308	-0.000111
C88	C	0.171798	0.379692	0.499889
O89	O	-0.284189	0.032809	-0.000085
O90	O	0.215811	0.532809	0.499915
O91	O	-0.263064	-0.271393	-0.000138
O92	O	0.236936	0.228607	0.499862
C93	C	-0.040164	-0.197163	-0.000145
C94	C	0.459836	0.302837	0.499855
C95	C	-0.020656	-0.114478	-0.000151
C96	C	0.479344	0.385522	0.499849
C97	C	-0.051564	-0.032749	-0.000149
C98	C	0.448436	0.467251	0.499851
C99	C	0.029763	-0.113522	-0.000149
C100	C	0.529763	0.386478	0.499851
C101	C	0.060672	-0.195251	-0.000151
C102	C	0.560672	0.304749	0.499849
C103	C	0.041161	-0.277936	-0.000154
C104	C	0.541161	0.222064	0.499846
C105	C	-0.009255	-0.278892	-0.000147
C106	C	0.490745	0.221108	0.499853
C107	C	-0.032054	0.049937	-0.000146
C108	C	0.467946	0.549937	0.499854
C109	C	0.018363	0.050885	-0.000152
C110	C	0.518363	0.550885	0.499848
C111	C	0.049272	-0.030844	-0.000154
C112	C	0.549272	0.469156	0.499846
C113	C	-0.567649	-0.280297	-0.000125
C114	C	-0.067649	0.219703	0.499875
C115	C	-0.568670	-0.380364	-0.000128
C116	C	-0.068670	0.119636	0.499872
N117	N	-0.571054	-0.115454	-0.237562
N118	N	-0.071054	0.384546	0.262438
C119	C	-0.525122	0.561265	-0.000117
C120	C	-0.025122	1.061265	0.499883
C121	C	-0.613175	0.583979	-0.000135
C122	C	-0.113175	1.083979	0.499865
C123	C	-0.614135	0.489961	-0.000130
C124	C	-0.114135	0.989961	0.499870
C125	C	-0.570588	0.431590	-0.000119
C126	C	-0.070588	0.931590	0.499881
C127	C	-0.526081	0.467238	-0.000115
C128	C	-0.026081	0.967238	0.499885
C129	C	-0.658641	0.454306	-0.000145
C130	C	-0.158641	0.954306	0.499855
C131	C	-0.659603	0.360282	-0.000140
C132	C	-0.159603	0.860282	0.499860
C133	C	-0.616055	0.301910	-0.000122
C134	C	-0.116055	0.801910	0.499878
C135	C	-0.571546	0.337563	-0.000117
C136	C	-0.071546	0.837563	0.499883
C137	C	-0.527999	0.279193	-0.000106
C138	C	-0.027999	0.779193	0.499894
C139	C	-0.483489	0.314844	-0.000093
C140	C	0.016511	0.814844	0.499907
C141	C	-0.482533	0.408866	-0.000097
C142	C	0.017467	0.908866	0.499903
C143	C	-0.617012	0.207888	-0.000119
C144	C	-0.117012	0.707888	0.499881
C145	C	-0.528957	0.185166	-0.000103
C146	C	-0.028957	0.685166	0.499897
C147	C	-0.600431	-0.169696	-0.710182
C148	C	-0.100431	0.330304	-0.210182
C149	C	-0.541731	-0.061088	-0.710156
C150	C	-0.041731	0.438912	-0.210156
C151	C	-0.541724	-0.061102	-0.605138
C152	C	-0.041724	0.438898	-0.105138
C153	C	-0.571071	-0.115413	-0.552636
C154	C	-0.071071	0.384587	-0.052636
C155	C	-0.600426	-0.169709	-0.605154
C156	C	-0.100426	0.330291	-0.105154
C157	C	-0.512374	-0.006799	-0.552613
C158	C	-0.012374	0.493201	-0.052613
C159	C	-0.512366	-0.006810	-0.447588
C160	C	-0.012366	0.493190	0.052412
C161	C	-0.541711	-0.061127	-0.395085
C162	C	-0.041711	0.438873	0.104915
C163	C	-0.571066	-0.115426	-0.447608
C164	C	-0.071066	0.384574	0.052392
C165	C	-0.600414	-0.169737	-0.395107
C166	C	-0.100414	0.330263	0.104893
C167	C	-0.629766	-0.224042	-0.447629
C168	C	-0.129766	0.275958	0.052371
C169	C	-0.629771	-0.224026	-0.552650
C170	C	-0.129771	0.275974	-0.052650
C171	C	-0.541707	-0.061143	-0.290063
C172	C	-0.041707	0.438857	0.209937
C173	C	-0.600409	-0.169751	-0.290079
C174	C	-0.100409	0.330249	0.209921
N175	N	-0.571083	-0.115385	0.237317
N176	N	-0.071083	0.384615	0.737317
H177	H	-0.414012	-0.271274	-0.000088
H178	H	0.085988	0.228726	0.499912
H179	H	-0.648630	0.631509	-0.000152
H180	H	-0.148630	1.131509	0.499848
H181	H	-0.488884	0.590297	-0.000103
H182	H	0.011116	1.090297	0.499897
H183	H	0.180417	0.038693	-0.000148
H184	H	0.680417	0.538693	0.499852
H185	H	-0.624328	-0.213912	-0.752949
H186	H	-0.124328	0.286088	-0.252949
H187	H	-0.493495	0.137646	-0.000091
H188	H	0.006505	0.637646	0.499909
H189	H	-0.057215	0.116492	-0.000147
H190	H	0.442785	0.616492	0.499853
H191	H	-0.624305	-0.213983	-0.247340
H192	H	-0.124305	0.286017	0.252660
H193	H	-0.517841	-0.016864	-0.752909
H194	H	-0.017841	0.483136	-0.252909
H195	H	-0.694095	0.501837	-0.000162
H196	H	-0.194095	1.001837	0.499838
H197	H	-0.176382	-0.349094	-0.000118
H198	H	0.323618	0.150906	0.499882
H199	H	0.201097	-0.259624	-0.000140
H200	H	0.701097	0.240376	0.499860
H201	H	-0.488485	0.037426	-0.595367
H202	H	0.011515	0.537426	-0.095367
H203	H	0.271876	0.040423	-0.000132
H204	H	0.771876	0.540423	0.499868
H205	H	-0.653663	-0.268258	-0.404869
H206	H	-0.153663	0.231742	0.095131
H207	H	0.034241	0.118227	-0.000150
H208	H	0.534241	0.618227	0.499850
H209	H	-0.653669	-0.268236	-0.595423
H210	H	-0.153669	0.231764	-0.095423
H211	H	-0.025133	-0.346227	-0.000142
H212	H	0.474867	0.153773	0.499858
H213	H	-0.448033	0.267307	-0.000092
H214	H	0.051967	0.767307	0.499908
H215	H	-0.446296	0.437903	-0.000087
H216	H	0.053704	0.937903	0.499913
H217	H	-0.434700	0.027028	-0.000090
H218	H	0.065300	0.527028	0.499910
H219	H	-0.343225	0.028769	-0.000093
H220	H	0.156775	0.528769	0.499907
H221	H	-0.695845	0.331263	-0.000149
H222	H	-0.195845	0.831263	0.499851
H223	H	-0.653251	0.178865	-0.000136
H224	H	-0.153251	0.678865	0.499864
H225	H	-0.488465	0.037408	-0.404833
H226	H	0.011535	0.537408	0.095167
H227	H	-0.517810	-0.016926	-0.247305
H228	H	-0.017810	0.483074	0.252695
H229	H	-0.322551	-0.269550	-0.000116
H230	H	0.177449	0.230450	0.499884
H231	H	0.292571	-0.257881	-0.000147
H232	H	0.792571	0.242119	0.499853
H233	H	-0.084927	-0.347360	-0.000137
H234	H	0.415073	0.152640	0.499863
H235	H	-0.117019	0.115372	-0.000157
H236	H	0.382981	0.615372	0.499843
H237	H	0.066336	-0.344483	-0.000152
H238	H	0.566336	0.155517	0.499848
H239	H	-0.208478	0.113633	-0.000159
H240	H	0.291522	0.613633	0.499841
