data_functionalizedCrystal
_audit_creation_method	'MofGen! by Chris Wilmer'
_symmetry_space_group_name_H-M	'P1'
_symmetry_Int_Tables_number	1
_symmetry_cell_setting	triclinic
loop_
_symmetry_equiv_pos_as_xyz
  x,y,z
_cell_length_a	18.215407
_cell_length_b	12.645330
_cell_length_c	18.215399
_cell_angle_alpha	89.976970
_cell_angle_beta	89.980167
_cell_angle_gamma	90.018140
loop_
_atom_site_label
_atom_site_type_symbol
_atom_site_fract_x
_atom_site_fract_y
_atom_site_fract_z
Zn1	Zn	1.125109	-0.422038	-0.416141
Zn2	Zn	1.625109	0.077962	0.083859
Zn3	Zn	1.125033	-0.599320	-0.293085
Zn4	Zn	1.625033	-0.099320	0.206915
Zn5	Zn	1.002041	-0.422072	-0.293088
Zn6	Zn	1.502041	0.077928	0.206912
Zn7	Zn	1.002023	-0.599261	-0.416110
Zn8	Zn	1.502023	-0.099261	0.083890
O9	O	1.063551	-0.510673	-0.354606
O10	O	1.563551	-0.010673	0.145394
O11	O	1.228083	-0.445565	-0.399829
O12	O	1.728083	0.054435	0.100171
O13	O	1.108693	-0.575847	-0.190101
O14	O	1.608693	-0.075847	0.309899
O15	O	1.018406	-0.273720	-0.309426
O16	O	1.518406	0.226280	0.190574
O17	O	1.228027	-0.575813	-0.309421
O18	O	1.728027	-0.075813	0.190579
O19	O	1.108823	-0.273695	-0.399832
O20	O	1.608823	0.226305	0.100168
O21	O	1.018332	-0.445624	-0.190104
O22	O	1.518332	0.054376	0.309896
O23	O	0.899055	-0.445566	-0.309396
O24	O	1.399055	0.054434	0.190604
O25	O	1.018374	-0.575713	-0.519099
O26	O	1.518374	-0.075713	-0.019099
O27	O	0.899041	-0.575746	-0.399780
O28	O	1.399041	-0.075746	0.100220
O29	O	1.108805	-0.445507	-0.519121
O30	O	1.608805	0.054493	-0.019121
O31	O	1.108675	-0.747659	-0.309391
O32	O	1.608675	-0.247659	0.190609
O33	O	1.018300	-0.747616	-0.399777
O34	O	1.518300	-0.247616	0.100223
C35	C	0.872345	-0.510654	-0.354585
C36	C	1.372345	-0.010654	0.145415
C37	C	0.790546	-0.510672	-0.354594
C38	C	1.290546	-0.010672	0.145406
C39	C	0.602364	-0.578563	-0.401597
C40	C	1.102364	-0.078563	0.098403
C41	C	0.525506	-0.578567	-0.401606
C42	C	1.025506	-0.078567	0.098394
C43	C	0.525490	-0.442801	-0.307631
C44	C	1.025490	0.057199	0.192369
C45	C	0.602348	-0.442793	-0.307626
C46	C	1.102348	0.057207	0.192374
C47	C	0.640783	-0.510680	-0.354608
C48	C	1.140783	-0.010680	0.145392
C49	C	0.487067	-0.510692	-0.354622
C50	C	0.987067	-0.010692	0.145378
C51	C	0.403733	-0.510695	-0.354632
C52	C	0.903733	-0.010695	0.145368
C53	C	0.724122	-0.510676	-0.354600
C54	C	1.224122	-0.010676	0.145400
C55	C	1.063498	-0.786102	-0.354596
C56	C	1.563498	-0.286102	0.145404
C57	C	1.063542	-0.903932	-0.354616
C58	C	1.563542	-0.403932	0.145384
C59	C	1.006922	-1.071513	-0.411653
C60	C	1.506922	-0.571513	0.088347
C61	C	1.006632	-0.948954	-0.411470
C62	C	1.506632	-0.448954	0.088530
C63	C	1.042549	-0.948523	-0.277058
C64	C	1.542549	-0.448523	0.222942
C65	C	1.042203	-1.071122	-0.277404
C66	C	1.542203	-0.571122	0.222596
C67	C	1.141502	-1.071022	-0.374509
C68	C	1.641502	-0.571022	0.125491
C69	C	1.141024	-0.948415	-0.376205
C70	C	1.641024	-0.448415	0.123795
C71	C	1.255504	-0.510692	-0.354628
C72	C	1.755504	-0.010692	0.145372
C73	C	1.337303	-0.510700	-0.354637
C74	C	1.837303	-0.010700	0.145363
C75	C	1.063596	-0.510600	-0.546559
C76	C	1.563596	-0.010600	-0.046559
C77	C	1.063615	-0.510568	-0.628358
C78	C	1.563615	-0.010568	-0.128358
C79	C	1.063625	-0.234167	-0.354633
C80	C	1.563625	0.265833	0.145367
C81	C	1.063657	-0.116337	-0.354644
C82	C	1.563657	0.383663	0.145356
C83	C	1.110720	-0.442707	-0.816565
C84	C	1.610720	0.057293	-0.316565
C85	C	1.110728	-0.442676	-0.893424
C86	C	1.610728	0.057324	-0.393424
C87	C	1.016563	-0.578266	-0.893389
C88	C	1.516563	-0.078266	-0.393389
C89	C	1.016551	-0.578290	-0.816532
C90	C	1.516551	-0.078290	-0.316532
C91	C	1.063634	-0.510513	-0.778122
C92	C	1.563634	-0.010513	-0.278122
C93	C	1.063654	-0.510457	-0.931838
C94	C	1.563654	-0.010457	-0.431838
C95	C	1.063663	-0.510424	-1.015172
C96	C	1.563663	-0.010424	-0.515172
C97	C	1.063624	-0.510544	-0.694783
C98	C	1.563624	-0.010544	-0.194783
C99	C	1.063549	-0.510669	-0.163400
C100	C	1.563549	-0.010669	0.336600
C101	C	1.063672	-0.510401	-0.081602
C102	C	1.563672	-0.010401	0.418398
H103	H	0.494187	-0.387531	-0.269379
H104	H	0.994187	0.112469	0.230621
H105	H	0.978203	-0.633505	-0.785230
H106	H	1.478203	-0.133505	-0.285230
H107	H	1.160652	-1.101868	-0.430103
H108	H	1.660652	-0.601868	0.069897
C109	C	1.024429	-1.111378	-0.489583
C110	C	1.524429	-0.611378	0.010417
H111	H	1.066501	-1.155707	-0.488054
H112	H	1.566501	-0.655707	0.011946
H113	H	1.033790	-1.052757	-0.520845
H114	H	1.533790	-0.552757	-0.020845
H115	H	0.983779	-1.150329	-0.507918
H116	H	1.483779	-0.650329	-0.007918
C117	C	1.162498	-0.368142	-0.774316
C118	C	1.662498	0.131858	-0.274316
H119	H	1.190536	-0.327747	-0.808223
H120	H	1.690536	0.172253	-0.308223
H121	H	1.194552	-0.408696	-0.744333
H122	H	1.694552	0.091304	-0.244333
H123	H	1.134344	-0.321959	-0.744338
H124	H	1.634344	0.178041	-0.244338
C125	C	1.162526	-0.368095	-0.935709
C126	C	1.662526	0.131905	-0.435709
H127	H	1.190567	-0.327742	-0.901823
H128	H	1.690567	0.172258	-0.401823
H129	H	1.134394	-0.321890	-0.965691
H130	H	1.634394	0.178110	-0.465691
H131	H	1.194588	-0.408648	-0.965691
H132	H	1.694588	0.091352	-0.465691
H133	H	1.019766	-0.918802	-0.468979
H134	H	1.519766	-0.418802	0.031021
C135	C	0.644611	-0.368120	-0.255935
C136	C	1.144611	0.131880	0.244065
H137	H	0.610714	-0.327700	-0.227948
H138	H	1.110714	0.172300	0.272052
H139	H	0.674613	-0.321980	-0.284139
H140	H	1.174613	0.178020	0.215861
H141	H	0.674572	-0.408619	-0.223820
H142	H	1.174572	0.091381	0.276180
H143	H	0.978232	-0.633450	-0.924672
H144	H	1.478232	-0.133450	-0.424672
H145	H	0.948921	-0.919719	-0.398309
H146	H	1.448921	-0.419719	0.101691
H147	H	0.985298	-1.099813	-0.260576
H148	H	1.485298	-0.599813	0.239424
H149	H	0.633656	-0.633839	-0.439855
H150	H	1.133656	-0.133839	0.060145
H151	H	0.949572	-1.102414	-0.398661
H152	H	1.449572	-0.602414	0.101339
H153	H	1.081734	-1.100776	-0.233479
H154	H	1.581734	-0.600776	0.266521
H155	H	0.494229	-0.633842	-0.439871
H156	H	0.994229	-0.133842	0.060129
H157	H	1.082562	-0.919362	-0.233421
H158	H	1.582562	-0.419362	0.266579
H159	H	0.986237	-0.917912	-0.259925
H160	H	1.486237	-0.417912	0.240075
H161	H	1.156855	-0.919267	-0.433284
H162	H	1.656855	-0.419267	0.066716
C163	C	1.201140	-0.907014	-0.324200
C164	C	1.701140	-0.407014	0.175800
H165	H	1.247326	-0.935140	-0.338534
H166	H	1.747326	-0.435140	0.161466
H167	H	1.190389	-0.928348	-0.275356
H168	H	1.690389	-0.428348	0.224644
H169	H	1.202799	-0.832005	-0.326635
H170	H	1.702799	-0.332005	0.173365
C171	C	1.198589	-1.110072	-0.318368
C172	C	1.698589	-0.610072	0.181632
H173	H	1.175139	-1.153794	-0.282999
H174	H	1.675139	-0.653794	0.217001
H175	H	1.220271	-1.051049	-0.294494
H176	H	1.720271	-0.551049	0.205506
H177	H	1.235561	-1.149459	-0.342963
H178	H	1.735561	-0.649459	0.157037
