data_functionalizedCrystal
_audit_creation_method	'MofGen! by Chris Wilmer'
_symmetry_space_group_name_H-M	'P1'
_symmetry_Int_Tables_number	1
_symmetry_cell_setting	triclinic
loop_
_symmetry_equiv_pos_as_xyz
  x,y,z
_cell_length_a	16.109301
_cell_length_b	23.532357
_cell_length_c	14.586319
_cell_angle_alpha	89.990687
_cell_angle_beta	89.999213
_cell_angle_gamma	83.144886
loop_
_atom_site_label
_atom_site_type_symbol
_atom_site_fract_x
_atom_site_fract_y
_atom_site_fract_z
O1	O	1.102536	0.073204	-0.076194
O2	O	1.602536	0.573204	0.423806
O3	O	0.860400	0.082314	-0.076210
O4	O	1.360400	0.582314	0.423790
O5	O	0.988791	-0.005148	-0.076182
O6	O	1.488791	0.494852	0.423818
O7	O	0.974145	0.160665	-0.076221
O8	O	1.474145	0.660665	0.423779
O9	O	0.988782	-0.005149	0.076298
O10	O	1.488782	0.494851	0.576298
O11	O	0.860391	0.082312	0.076271
O12	O	1.360391	0.582312	0.576271
O13	O	1.102527	0.073202	0.076287
O14	O	1.602527	0.573202	0.576287
Cu15	Cu	0.981458	0.077757	0.090202
Cu16	Cu	1.481458	0.577757	0.590202
Cu17	Cu	0.981469	0.077759	-0.090124
Cu18	Cu	1.481469	0.577759	0.409876
O19	O	0.974136	0.160664	0.076260
O20	O	1.474136	0.660664	0.576260
C21	C	0.829424	0.081944	0.000029
C22	C	1.329424	0.581944	0.500029
C23	C	0.737137	0.080838	0.000024
C24	C	1.237137	0.580838	0.500024
C25	C	0.988421	-0.026367	0.000061
C26	C	1.488421	0.473633	0.500061
C27	C	0.987319	-0.089589	0.000069
C28	C	1.487319	0.410411	0.500069
C29	C	0.514464	0.130163	0.000023
C30	C	1.014464	0.630163	0.500023
C31	C	0.427752	0.129119	0.000029
C32	C	0.927752	0.629119	0.500029
C33	C	0.448470	0.025349	0.000049
C34	C	0.948470	0.525349	0.500049
C35	C	0.535180	0.026394	0.000050
C36	C	1.035180	0.526394	0.500050
C37	C	0.568175	0.078802	0.000032
C38	C	1.068175	0.578802	0.500032
C39	C	0.394753	0.076714	0.000037
C40	C	0.894753	0.576714	0.500037
C41	C	0.300736	0.075581	0.000044
C42	C	0.800736	0.575581	0.500044
C43	C	0.662197	0.079935	0.000027
C44	C	1.162197	0.579935	0.500027
C45	C	0.980409	-0.481625	-0.083098
C46	C	1.480409	0.018375	0.416902
C47	C	0.979362	-0.541029	-0.083103
C48	C	1.479362	-0.041029	0.416897
O49	O	0.978796	-0.571746	-0.153791
O50	O	1.478796	-0.071746	0.346209
N51	N	0.978838	-0.570742	0.000013
N52	N	1.478838	-0.070742	0.500013
C53	C	0.979353	-0.541049	0.083140
C54	C	1.479353	-0.041049	0.583140
O55	O	0.978810	-0.571778	0.153836
O56	O	1.478810	-0.071778	0.653836
C57	C	0.980394	-0.481646	0.083144
C58	C	1.480394	0.018354	0.583144
C59	C	0.980926	-0.451936	0.000023
C60	C	1.480926	0.048064	0.500023
C61	C	0.980941	-0.451915	-0.166213
C62	C	1.480941	0.048085	0.333787
C63	C	0.981989	-0.392516	-0.166207
C64	C	1.481989	0.107484	0.333793
C65	C	0.982506	-0.362827	-0.083087
C66	C	1.482506	0.137173	0.416913
C67	C	0.981975	-0.392537	0.000028
C68	C	1.481975	0.107463	0.500028
C69	C	0.980902	-0.451954	0.166270
C70	C	1.480902	0.048046	0.666270
C71	C	0.981943	-0.392547	0.166267
C72	C	1.481943	0.107453	0.666267
C73	C	0.982475	-0.362837	0.083146
C74	C	1.482475	0.137163	0.583146
C75	C	0.983540	-0.303449	0.083154
C76	C	1.483540	0.196551	0.583154
N77	N	0.984064	-0.273735	0.000038
N78	N	1.484064	0.226265	0.500038
C79	C	0.983547	-0.303424	-0.083082
C80	C	1.483547	0.196576	0.416918
C81	C	0.977165	-0.665799	0.083124
C82	C	1.477165	-0.165799	0.583124
C83	C	0.976130	-0.725201	0.083121
C84	C	1.476130	-0.225201	0.583121
C85	C	0.976138	-0.725176	-0.083122
C86	C	1.476138	-0.225176	0.416878
C87	C	0.977179	-0.665773	-0.083118
C88	C	1.477179	-0.165773	0.416882
C89	C	0.977689	-0.636085	0.000008
C90	C	1.477689	-0.136085	0.500008
C91	C	0.985750	-0.178682	-0.083064
C92	C	1.485750	0.321318	0.416936
C93	C	0.986802	-0.119278	-0.083051
C94	C	1.486802	0.380722	0.416949
C95	C	0.986790	-0.119308	0.083192
C96	C	1.486790	0.380692	0.583192
C97	C	0.985742	-0.178707	0.083179
C98	C	1.485742	0.321293	0.583179
C99	C	0.985219	-0.208392	0.000044
C100	C	1.485219	0.291608	0.500044
O101	O	0.984103	-0.272693	0.153806
O102	O	1.484103	0.227307	0.653806
O103	O	0.984079	-0.272688	-0.153767
O104	O	1.484079	0.227312	0.346233
C105	C	1.133503	0.073572	0.000046
C106	C	1.633503	0.573572	0.500046
C107	C	1.225790	0.074678	0.000046
C108	C	1.725790	0.574678	0.500046
C109	C	0.974507	0.181883	0.000014
C110	C	1.474507	0.681883	0.500014
C111	C	0.975608	0.245105	-0.000000
C112	C	1.475608	0.745105	0.500000
N113	N	0.981457	0.077756	0.217034
N114	N	1.481457	0.577756	0.717034
N115	N	0.981477	0.077756	-0.216956
N116	N	1.481477	0.577756	0.283044
C117	C	1.038327	0.039041	0.452052
C118	C	1.538327	0.539041	0.952052
C119	C	1.038330	0.039039	0.548033
C120	C	1.538330	0.539039	1.048033
C121	C	0.924601	0.116473	0.548019
C122	C	1.424601	0.616473	1.048019
C123	C	0.924595	0.116471	0.452039
C124	C	1.424595	0.616471	0.952039
C125	C	0.981463	0.077756	0.404058
C126	C	1.481463	0.577756	0.904058
C127	C	0.981471	0.077756	0.596019
C128	C	1.481471	0.577756	1.096019
C129	C	0.981473	0.077755	0.700086
C130	C	1.481473	0.577755	1.200086
C131	C	0.981460	0.077756	0.299985
C132	C	1.481460	0.577756	0.799985
H133	H	0.541325	0.172838	0.000015
H134	H	1.041325	0.672838	0.500015
C135	C	0.985198	-0.211330	-0.174510
C136	C	1.485198	0.288670	0.325490
H137	H	0.985677	-0.185122	-0.224003
H138	H	1.485677	0.314878	0.275997
H139	H	0.936307	-0.230152	-0.177996
H140	H	1.436307	0.269848	0.322004
H141	H	1.033293	-0.238853	-0.177953
H142	H	1.533293	0.261147	0.322047
C143	C	0.412176	-0.032297	0.000058
C144	C	0.912176	0.467703	0.500058
H145	H	0.456586	-0.062737	0.000071
H146	H	0.956586	0.437263	0.500071
H147	H	0.378783	-0.034860	-0.053116
H148	H	0.878783	0.465140	0.446884
H149	H	0.378781	-0.034864	0.053237
H150	H	0.878781	0.465136	0.553237
H151	H	0.384024	0.170943	0.000023
H152	H	0.884024	0.670943	0.500023
H153	H	0.980517	-0.476081	-0.233903
H154	H	1.480517	0.023919	0.266097
H155	H	1.084632	0.007516	0.412988
H156	H	1.584632	0.507516	0.912988
H157	H	0.578914	-0.015433	0.000060
H158	H	1.078914	0.484567	0.500060
H159	H	0.987238	-0.095091	-0.150742
H160	H	1.487238	0.404909	0.349258
C161	C	0.982559	-0.359841	-0.257641
C162	C	1.482559	0.140159	0.242359
H163	H	0.982091	-0.386037	-0.307139
H164	H	1.482091	0.113963	0.192861
H165	H	1.031452	-0.341020	-0.261107
H166	H	1.531452	0.158980	0.238893
H167	H	0.934467	-0.332316	-0.261097
H168	H	1.434467	0.167684	0.238903
H169	H	0.977611	-0.641587	-0.150803
H170	H	1.477611	-0.141587	0.349197
C171	C	1.100884	-0.003545	0.600823
C172	C	1.600884	0.496455	1.100823
H173	H	1.134753	-0.026598	0.558498
H174	H	1.634753	0.473402	1.058498
H175	H	1.071186	-0.027260	0.638274
H176	H	1.571186	0.472740	1.138274
H177	H	1.135319	0.016954	0.638254
H178	H	1.635319	0.516954	1.138254
C179	C	0.975559	-0.757841	-0.174554
C180	C	1.475559	-0.257841	0.325446
H181	H	0.974853	-0.797472	-0.162646
H182	H	1.474853	-0.297472	0.337354
H183	H	1.024219	-0.752461	-0.208711
H184	H	1.524219	-0.252461	0.291289
H185	H	0.927234	-0.743747	-0.208705
H186	H	1.427234	-0.243747	0.291295
H187	H	0.975709	-0.749387	0.150807
H188	H	1.475709	-0.249387	0.650807
H189	H	0.977583	-0.641630	0.150820
H190	H	1.477583	-0.141630	0.650820
C191	C	0.980308	-0.484621	0.257705
C192	C	1.480308	0.015379	0.757705
H193	H	0.980753	-0.458422	0.307201
H194	H	1.480753	0.041578	0.807201
H195	H	1.028386	-0.512152	0.261181
H196	H	1.528386	-0.012152	0.761181
H197	H	0.931401	-0.503434	0.261153
H198	H	1.431401	-0.003434	0.761153
C199	C	0.982507	-0.359893	0.257708
C200	C	1.482507	0.140107	0.757708
H201	H	0.982047	-0.386099	0.307206
H202	H	1.482047	0.113901	0.807206
H203	H	0.934427	-0.332364	0.261164
H204	H	1.434427	0.167636	0.761164
H205	H	1.031412	-0.341079	0.261174
H206	H	1.531412	0.158921	0.761174
C207	C	0.985159	-0.211389	0.174610
C208	C	1.485159	0.288611	0.674610
H209	H	0.985613	-0.185197	0.224113
H210	H	1.485613	0.314803	0.724113
H211	H	1.033234	-0.238924	0.178073
H212	H	1.533234	0.261076	0.678073
H213	H	0.936248	-0.230199	0.178055
H214	H	1.436248	0.269801	0.678055
H215	H	0.987214	-0.095124	0.150866
H216	H	1.487214	0.404876	0.650866
C217	C	0.862031	0.159044	0.600796
C218	C	1.362031	0.659044	1.100796
H219	H	0.828151	0.182093	0.558463
H220	H	1.328151	0.682093	1.058463
H221	H	0.891712	0.182765	0.638242
H222	H	1.391712	0.682765	1.138242
H223	H	0.827608	0.138531	0.638232
H224	H	1.327608	0.638531	1.138232
H225	H	0.878285	0.147997	0.412960
H226	H	1.378285	0.647997	0.912960
