data_functionalizedCrystal
_audit_creation_method	'MofGen! by Chris Wilmer'
_symmetry_space_group_name_H-M	'P1'
_symmetry_Int_Tables_number	1
_symmetry_cell_setting	triclinic
loop_
_symmetry_equiv_pos_as_xyz
  x,y,z
_cell_length_a	16.120530
_cell_length_b	18.215404
_cell_length_c	16.120297
_cell_angle_alpha	87.128027
_cell_angle_beta	90.128140
_cell_angle_gamma	92.880662
loop_
_atom_site_label
_atom_site_type_symbol
_atom_site_fract_x
_atom_site_fract_y
_atom_site_fract_z
Zn1	Zn	1.247438	0.372844	-0.534560
Zn2	Zn	1.497438	0.622844	-0.284560
Zn3	Zn	1.747438	0.872844	-0.034560
Zn4	Zn	1.997438	1.122844	0.215440
Zn5	Zn	1.254388	0.489999	-0.395501
Zn6	Zn	1.504388	0.739999	-0.145501
Zn7	Zn	1.754388	0.989999	0.104499
Zn8	Zn	2.004388	1.239999	0.354499
Zn9	Zn	1.115429	0.360408	-0.388478
Zn10	Zn	1.365429	0.610408	-0.138478
Zn11	Zn	1.615429	0.860408	0.111522
Zn12	Zn	1.865429	1.110408	0.361522
Zn13	Zn	1.108345	0.489321	-0.527470
Zn14	Zn	1.358345	0.739321	-0.277470
Zn15	Zn	1.608345	0.989321	-0.027470
Zn16	Zn	1.858345	1.239321	0.222530
O17	O	1.181400	0.428143	-0.461502
O18	O	1.431400	0.678143	-0.211502
O19	O	1.681400	0.928143	0.038498
O20	O	1.931400	1.178143	0.288498
O21	O	1.364726	0.393873	-0.522020
O22	O	1.614726	0.643873	-0.272020
O23	O	1.864726	0.893873	-0.022020
O24	O	2.114726	1.143873	0.227980
O25	O	1.241828	0.467888	-0.278204
O26	O	1.491828	0.717888	-0.028204
O27	O	1.741828	0.967888	0.221796
O28	O	1.991828	1.217888	0.471796
O29	O	1.132996	0.259077	-0.407884
O30	O	1.382996	0.509077	-0.157884
O31	O	1.632996	0.759077	0.092116
O32	O	1.882996	1.009077	0.342116
O33	O	1.369833	0.479946	-0.419854
O34	O	1.619833	0.729946	-0.169854
O35	O	1.869833	0.979946	0.080146
O36	O	2.119833	1.229946	0.330146
O37	O	1.229983	0.268214	-0.515210
O38	O	1.479983	0.518214	-0.265210
O39	O	1.729983	0.768214	-0.015210
O40	O	1.979983	1.018214	0.234790
O41	O	1.139735	0.372678	-0.273044
O42	O	1.389735	0.622678	-0.023044
O43	O	1.639735	0.872678	0.226956
O44	O	1.889735	1.122678	0.476956
O45	O	0.998123	0.372020	-0.401010
O46	O	1.248123	0.622020	-0.151010
O47	O	1.498123	0.872020	0.098990
O48	O	1.748123	1.122020	0.348990
O49	O	1.120922	0.478791	-0.644776
O50	O	1.370922	0.728791	-0.394776
O51	O	1.620922	0.978791	-0.144776
O52	O	1.870922	1.228791	0.105224
O53	O	0.992918	0.466733	-0.503127
O54	O	1.242918	0.716733	-0.253127
O55	O	1.492918	0.966733	-0.003127
O56	O	1.742918	1.216733	0.246873
O57	O	1.223114	0.393216	-0.649985
O58	O	1.473114	0.643216	-0.399985
O59	O	1.723114	0.893216	-0.149985
O60	O	1.973114	1.143216	0.100015
O61	O	1.234959	0.592890	-0.412979
O62	O	1.484959	0.842890	-0.162979
O63	O	1.734959	1.092890	0.087021
O64	O	1.984959	1.342890	0.337021
O65	O	1.127662	0.592392	-0.509936
O66	O	1.377662	0.842392	-0.259936
O67	O	1.627662	1.092392	-0.009936
O68	O	1.877662	1.342392	0.240064
C69	C	0.965348	0.417954	-0.450537
C70	C	1.215348	0.667954	-0.200537
C71	C	1.465348	0.917954	0.049463
C72	C	1.715348	1.167954	0.299463
C73	C	0.872919	0.413614	-0.445866
C74	C	1.122919	0.663614	-0.195866
C75	C	1.372919	0.913614	0.054134
C76	C	1.622919	1.163614	0.304134
C77	C	1.181318	0.619344	-0.461470
C78	C	1.431318	0.869344	-0.211470
C79	C	1.681318	1.119344	0.038530
C80	C	1.931318	1.369344	0.288530
C81	C	1.181357	0.701146	-0.461487
C82	C	1.431357	0.951146	-0.211487
C83	C	1.681357	1.201146	0.038513
C84	C	1.931357	1.451146	0.288513
C85	C	1.170453	0.437315	-0.678396
C86	C	1.420453	0.687315	-0.428396
C87	C	1.670453	0.937315	-0.178396
C88	C	1.920453	1.187315	0.071604
C89	C	1.165788	0.441224	-0.770824
C90	C	1.415788	0.691224	-0.520824
C91	C	1.665788	0.941224	-0.270824
C92	C	1.915788	1.191224	-0.020824
C93	C	0.703689	0.405673	-0.437345
C94	C	0.953689	0.655673	-0.187345
C95	C	1.203689	0.905673	0.062655
C96	C	1.453689	1.155673	0.312655
C97	C	0.659948	0.450670	-0.485721
C98	C	0.909948	0.700670	-0.235721
C99	C	1.159948	0.950670	0.014279
C100	C	1.409948	1.200670	0.264279
C101	C	0.565783	0.446252	-0.480980
C102	C	0.815783	0.696252	-0.230980
C103	C	1.065783	0.946252	0.019020
C104	C	1.315783	1.196252	0.269020
C105	C	0.797863	0.410090	-0.442085
C106	C	1.047863	0.660090	-0.192085
C107	C	1.297863	0.910090	0.057915
C108	C	1.547863	1.160090	0.307915
C109	C	1.398296	0.438372	-0.472511
C110	C	1.648296	0.688372	-0.222511
C111	C	1.898296	0.938372	0.027489
C112	C	2.148296	1.188372	0.277489
C113	C	1.490724	0.442731	-0.477202
C114	C	1.740724	0.692731	-0.227202
C115	C	1.990724	0.942731	0.022798
C116	C	2.240724	1.192731	0.272798
C117	C	1.237350	0.889585	-0.411117
C118	C	1.487350	1.139585	-0.161117
C119	C	1.737350	1.389585	0.088883
C120	C	1.987350	1.639585	0.338883
C121	C	1.237388	0.966447	-0.411144
C122	C	1.487388	1.216447	-0.161144
C123	C	1.737388	1.466447	0.088856
C124	C	1.987388	1.716447	0.338856
C125	C	1.125571	0.965960	-0.512014
C126	C	1.375571	1.215960	-0.262014
C127	C	1.625571	1.465960	-0.012014
C128	C	1.875571	1.715960	0.237986
C129	C	1.125538	0.889100	-0.511991
C130	C	1.375538	1.139100	-0.261991
C131	C	1.625538	1.389100	-0.011991
C132	C	1.875538	1.639100	0.238009
C133	C	1.181427	0.850914	-0.461538
C134	C	1.431427	1.100914	-0.211538
C135	C	1.681427	1.350914	0.038462
C136	C	1.931427	1.600914	0.288462
C137	C	1.181497	1.004636	-0.461587
C138	C	1.431497	1.254636	-0.211587
C139	C	1.681497	1.504636	0.038413
C140	C	1.931497	1.754636	0.288413
C141	C	1.181537	1.087973	-0.461617
C142	C	1.431537	1.337973	-0.211617
C143	C	1.681537	1.587973	0.038383
C144	C	1.931537	1.837973	0.288383
C145	C	1.181388	0.767573	-0.461509
C146	C	1.431388	1.017573	-0.211509
C147	C	1.681388	1.267573	0.038491
C148	C	1.931388	1.517573	0.288491
C149	C	1.181509	1.236198	-0.461570
C150	C	1.431509	1.486198	-0.211570
C151	C	1.681509	1.736198	0.038430
C152	C	1.931509	1.986198	0.288430
C153	C	1.181567	1.154405	-0.461638
C154	C	1.431567	1.404405	-0.211638
C155	C	1.681567	1.654405	0.038362
C156	C	1.931567	1.904405	0.288362
C157	C	1.157240	0.448342	-0.940048
C158	C	1.407240	0.698342	-0.690048
C159	C	1.657240	0.948342	-0.440048
C160	C	1.907240	1.198342	-0.190048
C161	C	1.205724	0.407732	-0.983817
C162	C	1.455724	0.657732	-0.733817
C163	C	1.705724	0.907732	-0.483817
C164	C	1.955724	1.157732	-0.233817
C165	C	1.200968	0.411692	-1.077979
C166	C	1.450968	0.661692	-0.827979
C167	C	1.700968	0.911692	-0.577979
C168	C	1.950968	1.161692	-0.327979
C169	C	1.161995	0.444382	-0.845877
C170	C	1.411995	0.694382	-0.595877
C171	C	1.661995	0.944382	-0.345877
C172	C	1.911995	1.194382	-0.095877
C173	C	1.192352	0.418956	-0.245455
C174	C	1.442352	0.668956	0.004545
C175	C	1.692352	0.918956	0.254545
C176	C	1.942352	1.168956	0.504545
C177	C	1.197179	0.414848	-0.153036
C178	C	1.447179	0.664848	0.096964
C179	C	1.697179	0.914848	0.346964
C180	C	1.947179	1.164848	0.596964
H181	H	0.693220	0.492512	-0.530699
H182	H	0.943220	0.742512	-0.280699
H183	H	1.193220	0.992512	-0.030699
H184	H	1.443220	1.242512	0.219301
Br185	Br	1.049643	0.836614	-0.580431
Br186	Br	1.299643	1.086614	-0.330431
Br187	Br	1.549643	1.336614	-0.080431
Br188	Br	1.799643	1.586614	0.169569
H189	H	0.670419	0.363834	-0.392371
H190	H	0.920419	0.613834	-0.142371
H191	H	1.170419	0.863834	0.107629
H192	H	1.420419	1.113834	0.357629
H193	H	1.282859	0.858496	-0.370037
H194	H	1.532859	1.108496	-0.120037
H195	H	1.782859	1.358496	0.129963
H196	H	2.032859	1.608496	0.379963
H197	H	1.282927	0.997929	-0.370088
H198	H	1.532927	1.247929	-0.120088
H199	H	1.782927	1.497929	0.129912
H200	H	2.032927	1.747929	0.379912
H201	H	1.250803	0.369989	-0.950570
H202	H	1.500803	0.619989	-0.700570
H203	H	1.750803	0.869989	-0.450570
H204	H	2.000803	1.119989	-0.200570
H205	H	1.080067	0.997060	-0.553089
H206	H	1.330067	1.247060	-0.303089
H207	H	1.580067	1.497060	-0.053089
H208	H	1.830067	1.747060	0.196911
H209	H	1.112164	0.486081	-0.973293
H210	H	1.362164	0.736081	-0.723293
H211	H	1.612164	0.986081	-0.473293
H212	H	1.862164	1.236081	-0.223293
