data_functionalizedCrystal
_audit_creation_method	'MofGen! by Chris Wilmer'
_symmetry_space_group_name_H-M	'P1'
_symmetry_Int_Tables_number	1
_symmetry_cell_setting	triclinic
loop_
_symmetry_equiv_pos_as_xyz
  x,y,z
_cell_length_a	16.625548
_cell_length_b	16.625545
_cell_length_c	16.625539
_cell_angle_alpha	90.028107
_cell_angle_beta	90.020568
_cell_angle_gamma	90.026626
loop_
_atom_site_label
_atom_site_type_symbol
_atom_site_fract_x
_atom_site_fract_y
_atom_site_fract_z
Zn1	Zn	1.232663	-0.320977	0.455910
Zn2	Zn	1.565996	0.012356	0.789244
Zn3	Zn	1.899330	0.345689	1.122577
Zn4	Zn	1.232559	-0.455820	0.321078
Zn5	Zn	1.565892	-0.122487	0.654411
Zn6	Zn	1.899226	0.210846	0.987745
Zn7	Zn	1.097825	-0.321008	0.321091
Zn8	Zn	1.431158	0.012325	0.654424
Zn9	Zn	1.764492	0.345659	0.987758
Zn10	Zn	1.097788	-0.455774	0.455868
Zn11	Zn	1.431121	-0.122441	0.789201
Zn12	Zn	1.764455	0.210893	1.122535
O13	O	1.165209	-0.388395	0.388487
O14	O	1.498542	-0.055062	0.721820
O15	O	1.831875	0.278272	1.055154
O16	O	1.345482	-0.338871	0.438037
O17	O	1.678815	-0.005538	0.771370
O18	O	2.012148	0.327796	1.104704
O19	O	1.214658	-0.437969	0.208247
O20	O	1.547992	-0.104636	0.541581
O21	O	1.881325	0.228697	0.874914
O22	O	1.115771	-0.208171	0.338998
O23	O	1.449104	0.125162	0.672332
O24	O	1.782437	0.458495	1.005665
O25	O	1.345405	-0.437940	0.338976
O26	O	1.678739	-0.104606	0.672310
O27	O	2.012072	0.228727	1.005643
O28	O	1.214836	-0.208149	0.438050
O29	O	1.548169	0.125184	0.771383
O30	O	1.881502	0.458518	1.104716
O31	O	1.115670	-0.338923	0.208257
O32	O	1.449003	-0.005590	0.541590
O33	O	1.782336	0.327743	0.874923
O34	O	0.984988	-0.338878	0.338957
O35	O	1.318321	-0.005545	0.672290
O36	O	1.651654	0.327788	1.005624
O37	O	1.115708	-0.437861	0.568706
O38	O	1.449041	-0.104527	0.902039
O39	O	1.782374	0.228806	1.235373
O40	O	0.984961	-0.437891	0.437977
O41	O	1.318294	-0.104557	0.771310
O42	O	1.651627	0.228776	1.104644
O43	O	1.214800	-0.338826	0.568737
O44	O	1.548133	-0.005493	0.902071
O45	O	1.881466	0.327841	1.235404
O46	O	1.214622	-0.568647	0.338935
O47	O	1.547956	-0.235313	0.672268
O48	O	1.881289	0.098020	1.005602
O49	O	1.115607	-0.568613	0.437965
O50	O	1.448940	-0.235279	0.771298
O51	O	1.782273	0.098054	1.104631
C52	C	0.955718	-0.388383	0.388464
C53	C	1.289051	-0.055050	0.721798
C54	C	1.622385	0.278283	1.055131
C55	C	0.866097	-0.388398	0.388474
C56	C	1.199430	-0.055065	0.721807
C57	C	1.532764	0.278269	1.055140
C58	C	0.537921	-0.388403	0.388508
C59	C	0.871255	-0.055070	0.721842
C60	C	1.204588	0.278264	1.055175
C61	C	0.629230	-0.388399	0.388496
C62	C	0.962563	-0.055066	0.721829
C63	C	1.295896	0.278267	1.055163
C64	C	0.702006	-0.388401	0.388490
C65	C	1.035339	-0.055068	0.721824
C66	C	1.368673	0.278266	1.055157
C67	C	0.793320	-0.388396	0.388480
C68	C	1.126654	-0.055063	0.721813
C69	C	1.459987	0.278270	1.055146
C70	C	1.165121	-0.597886	0.388462
C71	C	1.498455	-0.264552	0.721795
C72	C	1.831788	0.068781	1.055128
C73	C	1.165158	-0.687507	0.388478
C74	C	1.498491	-0.354174	0.721811
C75	C	1.831824	-0.020840	1.055144
C76	C	1.165189	-0.760289	0.388494
C77	C	1.498522	-0.426956	0.721827
C78	C	1.831855	-0.093623	1.055160
C79	C	1.165236	-0.851598	0.388511
C80	C	1.498569	-0.518264	0.721845
C81	C	1.831902	-0.184931	1.055178
C82	C	1.165278	-0.924374	0.388522
C83	C	1.498611	-0.591041	0.721855
C84	C	1.831944	-0.257707	1.055188
C85	C	1.165324	-1.015688	0.388538
C86	C	1.498657	-0.682355	0.721872
C87	C	1.831990	-0.349022	1.055205
C88	C	1.375518	-0.388407	0.388510
C89	C	1.708851	-0.055074	0.721843
C90	C	2.042184	0.278260	1.055177
C91	C	1.465139	-0.388412	0.388520
C92	C	1.798472	-0.055079	0.721853
C93	C	2.131805	0.278254	1.055186
C94	C	1.165261	-0.388335	0.598796
C95	C	1.498595	-0.055001	0.932129
C96	C	1.831928	0.278332	1.265463
C97	C	1.165284	-0.388309	0.688417
C98	C	1.498617	-0.054976	1.021750
C99	C	1.831950	0.278357	1.355084
C100	C	1.165319	-0.178086	0.388530
C101	C	1.498652	0.155247	0.721863
C102	C	1.831985	0.488581	1.055197
C103	C	1.165366	-0.088465	0.388548
C104	C	1.498699	0.244869	0.721882
C105	C	1.832032	0.578202	1.055215
C106	C	1.165203	-0.388397	0.178996
C107	C	1.498536	-0.055063	0.512329
C108	C	1.831870	0.278270	0.845663
C109	C	1.165337	-0.388195	0.089375
C110	C	1.498670	-0.054862	0.422709
C111	C	1.832004	0.278472	0.756042
C112	C	1.165321	-0.388219	1.016593
C113	C	1.498654	-0.054886	1.349926
C114	C	1.831987	0.278448	1.683260
C115	C	1.165308	-0.388247	0.925284
C116	C	1.498642	-0.054913	1.258618
C117	C	1.831975	0.278420	1.591951
C118	C	1.165303	-0.388265	0.852508
C119	C	1.498636	-0.054931	1.185841
C120	C	1.831969	0.278402	1.519175
C121	C	1.165289	-0.388291	0.761194
C122	C	1.498623	-0.054958	1.094527
C123	C	1.831956	0.278376	1.427860
