data_functionalizedCrystal
_audit_creation_method	'MofGen! by Chris Wilmer'
_symmetry_space_group_name_H-M	'P1'
_symmetry_Int_Tables_number	1
_symmetry_cell_setting	triclinic
loop_
_symmetry_equiv_pos_as_xyz
  x,y,z
_cell_length_a	16.974800
_cell_length_b	14.853569
_cell_length_c	16.053802
_cell_angle_alpha	92.568019
_cell_angle_beta	91.074188
_cell_angle_gamma	83.512599
loop_
_atom_site_label
_atom_site_type_symbol
_atom_site_fract_x
_atom_site_fract_y
_atom_site_fract_z
O1	O	1.049204	0.114921	0.001488
O2	O	0.819757	0.128722	-0.014023
O3	O	0.940608	-0.009402	-0.005846
O4	O	0.928353	0.253045	-0.006690
O5	O	0.933956	-0.001830	0.132563
O6	O	0.813105	0.136293	0.124385
O7	O	1.042552	0.122493	0.139896
Zn8	Zn	0.926772	0.130595	0.154116
Zn9	Zn	0.935537	0.120620	-0.028243
O10	O	0.921701	0.260616	0.131719
C11	C	0.787068	0.131844	0.053196
C12	C	0.699573	0.129856	0.047282
C13	C	0.654846	0.133047	0.119951
C14	C	0.572637	0.131165	0.114397
C15	C	0.535155	0.126098	0.036171
C16	C	0.579888	0.122904	-0.036504
C17	C	0.662096	0.124780	-0.030949
C18	C	0.289678	0.120040	0.011465
C19	C	0.207463	0.118167	0.005914
C20	C	0.200218	0.126426	0.156816
C21	C	0.282428	0.128307	0.162365
C22	C	0.327154	0.125108	0.089690
N23	N	0.451124	0.124177	0.030491
N24	N	0.411184	0.127023	0.095370
C25	C	0.936727	-0.039205	0.063322
C26	C	0.935062	-0.139290	0.063210
C27	C	0.862492	-0.175737	0.058305
C28	C	1.006068	-0.196888	0.068002
C29	C	1.004506	-0.290924	0.067893
C30	C	0.931937	-0.327371	0.062989
C31	C	0.860929	-0.269781	0.058194
C32	C	1.075513	-0.348521	0.072680
C33	C	1.073954	-0.442563	0.072570
C34	C	1.001384	-0.479011	0.067671
C35	C	0.930373	-0.421415	0.062877
C36	C	0.857803	-0.457861	0.057973
C37	C	0.786791	-0.400267	0.053184
C38	C	0.788358	-0.306229	0.053295
C39	C	0.999817	-0.573049	0.067560
C40	C	0.856240	-0.551906	0.057861
C41	C	1.075242	0.119370	0.072675
C42	C	1.162737	0.121358	0.078584
C43	C	0.925582	0.290420	0.062550
C44	C	0.927248	0.390505	0.062656
N45	N	0.920797	0.137403	0.278572
N46	N	0.941519	0.113805	-0.152699
C47	C	0.972238	0.078652	0.325747
C48	C	0.968065	0.083422	0.412872
C49	C	0.912455	0.146949	0.452820
C50	C	0.861008	0.205702	0.405638
C51	C	0.865178	0.200927	0.318515
C52	C	0.894242	0.167783	0.712997
C53	C	0.890077	0.172556	0.800126
C54	C	0.997134	0.050274	0.807353
C55	C	1.001302	0.045508	0.720229
C56	C	0.949853	0.104258	0.673055
N57	N	0.908190	0.151828	0.541875
N58	N	0.954114	0.099374	0.584001
H59	H	0.536226	0.133749	0.173572
C60	C	0.706967	-0.440370	0.047793
N61	N	0.646845	-0.470580	0.043735
C62	C	0.338867	0.116513	-0.068481
N63	N	0.375920	0.113853	-0.128700
C64	C	0.696068	0.138621	0.206007
N65	N	0.727115	0.142814	0.270826
C66	C	1.053718	-0.014354	0.859251
N67	N	1.096337	-0.063037	0.898341
H68	H	0.823288	0.248767	0.280106
C69	C	0.799828	0.275574	0.449584
N70	N	0.753746	0.328202	0.482683
H71	H	1.009952	0.035582	0.451281
C72	C	0.776406	-0.591988	0.052466
N73	N	0.716274	-0.622177	0.048401
H74	H	1.134593	-0.318836	0.076724
C75	C	1.033414	0.008767	0.281812
N76	N	1.079491	-0.043876	0.248723
H77	H	0.312940	0.132429	0.226064
H78	H	0.163793	0.129029	0.215984
H79	H	0.804676	-0.128839	0.054410
C80	C	0.166236	0.112592	-0.080144
N81	N	0.135182	0.108395	-0.144959
C82	C	1.085889	-0.156794	0.073401
N83	N	1.146014	-0.126590	0.077472
C84	C	0.538655	0.117328	-0.122554
N85	N	0.507600	0.113131	-0.187368
H86	H	1.046584	-0.006220	0.687705
C87	C	0.828897	0.242440	0.844067
N88	N	0.782818	0.295075	0.877163
H89	H	0.730544	-0.259327	0.049395
H90	H	1.131777	-0.489450	0.076471
C91	C	0.711295	0.121272	-0.110892
N92	N	0.748351	0.118627	-0.171107
C93	C	0.837748	0.232528	0.661124
N94	N	0.795230	0.281339	0.622052
C95	C	1.077925	-0.636398	0.072826
N96	N	1.136761	-0.684112	0.076795
