data_functionalizedCrystal
_audit_creation_method	'MofGen! by Chris Wilmer'
_symmetry_space_group_name_H-M	'P1'
_symmetry_Int_Tables_number	1
_symmetry_cell_setting	triclinic
loop_
_symmetry_equiv_pos_as_xyz
  x,y,z
_cell_length_a	19.288864
_cell_length_b	23.532407
_cell_length_c	17.766277
_cell_angle_alpha	89.988964
_cell_angle_beta	89.976791
_cell_angle_gamma	82.992461
loop_
_atom_site_label
_atom_site_type_symbol
_atom_site_fract_x
_atom_site_fract_y
_atom_site_fract_z
O1	O	0.921134	0.071045	-0.062843
O2	O	1.421134	0.571045	0.437157
O3	O	0.718844	0.080629	-0.062793
O4	O	1.218844	0.580629	0.437207
O5	O	0.826089	-0.007082	-0.062806
O6	O	1.326089	0.492918	0.437194
O7	O	0.813889	0.158756	-0.062830
O8	O	1.313889	0.658756	0.437170
O9	O	0.826070	-0.007086	0.062383
O10	O	1.326070	0.492914	0.562383
O11	O	0.718825	0.080625	0.062396
O12	O	1.218825	0.580625	0.562396
O13	O	0.921115	0.071041	0.062345
O14	O	1.421115	0.571041	0.562345
Cu15	Cu	0.819968	0.075832	0.073801
Cu16	Cu	1.319968	0.575832	0.573801
Cu17	Cu	0.819991	0.075838	-0.074249
Cu18	Cu	1.319991	0.575838	0.425751
O19	O	0.813870	0.158752	0.062358
O20	O	1.313870	0.658752	0.562358
C21	C	0.692959	0.080319	-0.000192
C22	C	1.192959	0.580319	0.499808
C23	C	0.615858	0.079393	-0.000172
C24	C	1.115858	0.579393	0.499828
C25	C	0.571003	0.130858	-0.000191
C26	C	1.071003	0.630858	0.499809
C27	C	0.498559	0.129988	-0.000200
C28	C	0.998559	0.629988	0.499800
C29	C	0.470973	0.077651	-0.000203
C30	C	0.970973	0.577651	0.499797
C31	C	0.515838	0.026179	-0.000180
C32	C	1.015838	0.526179	0.499820
C33	C	0.588280	0.027050	-0.000164
C34	C	1.088280	0.527050	0.499836
C35	C	0.362844	0.036509	-0.044082
C36	C	0.862844	0.536509	0.455918
C37	C	0.290402	0.035640	-0.044102
C38	C	0.790402	0.535640	0.455898
C39	C	0.247535	0.074961	-0.000249
C40	C	0.747535	0.574961	0.499751
C41	C	0.277118	0.115162	0.043616
C42	C	0.777118	0.615162	0.543616
C43	C	0.349560	0.116033	0.043631
C44	C	0.849560	0.616033	0.543631
C45	C	0.392422	0.076700	-0.000220
C46	C	0.892422	0.576700	0.499780
C47	C	0.124127	0.125487	-0.000276
C48	C	0.624127	0.625487	0.499724
C49	C	0.051682	0.124615	-0.000279
C50	C	0.551682	0.624615	0.499721
C51	C	0.068962	0.020805	-0.000267
C52	C	0.568962	0.520805	0.499733
C53	C	0.141406	0.021678	-0.000256
C54	C	0.641406	0.521678	0.499744
C55	C	0.168984	0.074021	-0.000264
C56	C	0.668984	0.574021	0.499736
C57	C	0.825769	-0.028301	-0.000209
C58	C	1.325769	0.471699	0.499791
C59	C	0.824835	-0.091520	-0.000203
C60	C	1.324835	0.408480	0.499797
C61	C	0.882442	-0.490503	-0.000259
C62	C	1.382442	0.009497	0.499741
C63	C	0.881574	-0.549905	-0.000264
C64	C	1.381574	-0.049905	0.499736
O65	O	0.934976	-0.586539	-0.000306
O66	O	1.434976	-0.086539	0.499694
N67	N	0.817817	-0.572664	-0.000248
N68	N	1.317817	-0.072664	0.499752
C69	C	0.754923	-0.536017	-0.000234
C70	C	1.254923	-0.036017	0.499766
O71	O	0.700613	-0.560829	-0.000221
O72	O	1.200613	-0.060829	0.499779
C73	C	0.755792	-0.476616	-0.000234
C74	C	1.255792	0.023384	0.499766
C75	C	0.819553	-0.453861	-0.000242
C76	C	1.319553	0.046139	0.499758
C77	C	0.946198	-0.467748	-0.000269
C78	C	1.446198	0.032252	0.499731
C79	C	0.947065	-0.408350	-0.000262
C80	C	1.447065	0.091650	0.499738
C81	C	0.884177	-0.371707	-0.000245
C82	C	1.384177	0.128293	0.499755
C83	C	0.820420	-0.394463	-0.000236
C84	C	1.320420	0.105537	0.499764
C85	C	0.692899	-0.439970	-0.000225
C86	C	1.192899	0.060030	0.499775
C87	C	0.693773	-0.380565	-0.000225
C88	C	1.193773	0.119435	0.499775
C89	C	0.757534	-0.357810	-0.000234
C90	C	1.257534	0.142190	0.499766
C91	C	0.758399	-0.298422	-0.000212
C92	C	1.258399	0.201578	0.499788
N93	N	0.822156	-0.275664	-0.000229
N94	N	1.322156	0.224336	0.499771
C95	C	0.885045	-0.312307	-0.000245
C96	C	1.385045	0.187693	0.499755
C97	C	0.753104	-0.660763	-0.000235
C98	C	1.253104	-0.160763	0.499765
C99	C	0.752235	-0.720163	-0.000230
C100	C	1.252235	-0.220163	0.499770
C101	C	0.878886	-0.734047	-0.000262
C102	C	1.378886	-0.234047	0.499738
C103	C	0.879755	-0.674647	-0.000262
C104	C	1.379755	-0.174647	0.499738
C105	C	0.816861	-0.638005	-0.000252
C106	C	1.316861	-0.138005	0.499748
C107	C	0.886862	-0.187566	-0.000230
C108	C	1.386862	0.312434	0.499770
C109	C	0.887724	-0.128162	-0.000220
C110	C	1.387724	0.371838	0.499780
C111	C	0.761073	-0.114283	-0.000192
C112	C	1.261073	0.385717	0.499808
C113	C	0.760211	-0.173681	-0.000198
C114	C	1.260211	0.326319	0.499802
C115	C	0.823111	-0.210322	-0.000219
C116	C	1.323111	0.289678	0.499781
O117	O	0.705025	-0.261754	-0.000174
O118	O	1.205025	0.238246	0.499826
O119	O	0.939346	-0.287486	-0.000268
O120	O	1.439346	0.212514	0.499732
C121	C	0.947000	0.071351	-0.000257
C122	C	1.447000	0.571351	0.499743
C123	C	1.024101	0.072277	-0.000282
C124	C	1.524101	0.572277	0.499718
C125	C	0.814190	0.179971	-0.000240
C126	C	1.314190	0.679971	0.499760
C127	C	0.815124	0.243190	-0.000251
C128	C	1.315124	0.743190	0.499749
N129	N	0.819958	0.075828	0.177932
N130	N	1.319958	0.575828	0.677932
N131	N	0.820007	0.075837	-0.178379
N132	N	1.320007	0.575837	0.321621
C133	C	0.867461	0.037009	0.217313
C134	C	1.367461	0.537009	0.717313
C135	C	0.867465	0.037006	0.296115
C136	C	1.367465	0.537006	0.796115
C137	C	0.819973	0.075833	0.335532
C138	C	1.319973	0.575833	0.835532
C139	C	0.772460	0.114655	0.296142
C140	C	1.272460	0.614655	0.796142
C141	C	0.772453	0.114653	0.217341
C142	C	1.272453	0.614653	0.717341
C143	C	0.810514	0.127724	0.460364
C144	C	1.310514	0.627724	0.960364
C145	C	0.810526	0.127727	0.539163
C146	C	1.310526	0.627727	1.039163
C147	C	0.819991	0.075840	0.578579
C148	C	1.319991	0.575840	1.078579
C149	C	0.829459	0.023947	0.539186
C150	C	1.329459	0.523947	1.039186
C151	C	0.829452	0.023945	0.460385
C152	C	1.329452	0.523945	0.960385
C153	C	0.819975	0.075839	0.420978
C154	C	1.319975	0.575839	0.920978
C155	C	0.867501	0.037014	0.703406
C156	C	1.367501	0.537014	1.203406
C157	C	0.867501	0.037011	0.782209
C158	C	1.367501	0.537011	1.282209
C159	C	0.772499	0.114665	0.782234
C160	C	1.272499	0.614665	1.282234
C161	C	0.772496	0.114663	0.703433
C162	C	1.272496	0.614663	1.203433
C163	C	0.820001	0.075839	0.664023
C164	C	1.320001	0.575839	1.164023
H165	H	0.397741	0.004488	-0.079797
H166	H	0.897741	0.504488	0.420203
N167	N	0.230900	0.157579	0.090923
N168	N	0.730900	0.657579	0.590923
H169	H	0.196788	0.181679	0.057322
H170	H	0.696788	0.681679	0.557322
H171	H	0.204355	0.136262	0.128425
H172	H	0.704355	0.636262	0.628425
H173	H	0.938081	-0.217393	-0.000250
H174	H	1.438081	0.282607	0.499750
H175	H	0.493372	-0.016435	-0.000193
H176	H	0.993372	0.483565	0.499807
N177	N	0.039215	-0.035644	-0.000264
N178	N	0.539215	0.464356	0.499736
H179	H	0.009568	-0.038320	-0.046676
H180	H	0.509568	0.461680	0.453324
H181	H	0.078664	-0.068084	-0.000223
H182	H	0.578664	0.431916	0.499777
H183	H	0.906141	0.005394	0.185228
H184	H	1.406141	0.505394	0.685228
H185	H	0.701886	-0.630931	-0.000220
H186	H	1.201886	-0.130931	0.499780
H187	H	0.624802	-0.014860	-0.000149
H188	H	1.124802	0.485140	0.499851
N189	N	0.450171	0.185500	-0.000223
N190	N	0.950171	0.685500	0.499777
H191	H	0.459028	0.208340	-0.046635
H192	H	0.959028	0.708340	0.453365
H193	H	0.400115	0.176958	-0.000205
H194	H	0.900115	0.676958	0.499795
N195	N	0.839682	-0.032018	0.581694
N196	N	1.339682	0.467982	1.081694
H197	H	0.886407	-0.053716	0.567962
H198	H	1.386407	0.446284	1.067962
H199	H	0.838216	-0.024091	0.637575
H200	H	1.338216	0.475909	1.137575
H201	H	0.733827	0.146276	0.814328
H202	H	1.233827	0.646276	1.314328
H203	H	0.733790	0.146268	0.328239
H204	H	1.233790	0.646268	0.828239
N205	N	0.956497	-0.103620	-0.000225
N206	N	1.456497	0.396380	0.499775
H207	H	0.996203	-0.135850	-0.000239
H208	H	1.496203	0.364150	0.499761
H209	H	0.959626	-0.079267	-0.046631
H210	H	1.459626	0.420733	0.453369
H211	H	0.802821	0.169981	0.571230
H212	H	1.302821	0.669981	1.071230
H213	H	0.906181	0.005396	0.814274
H214	H	1.406181	0.505396	1.314274
N215	N	0.721260	0.156533	0.660951
N216	N	1.221260	0.656533	1.160951
H217	H	0.691172	0.181129	0.697877
H218	H	1.191172	0.681129	1.197877
H219	H	0.747669	0.181655	0.628232
H220	H	1.247669	0.681655	1.128232
H221	H	0.998986	-0.389829	-0.000272
H222	H	1.498986	0.110171	0.499728
H223	H	0.837159	-0.018307	0.428315
H224	H	1.337159	0.481693	0.928315
H225	H	0.700314	-0.738684	-0.000210
H226	H	1.200314	-0.238684	0.499790
N227	N	0.918711	-0.004863	0.338595
N228	N	1.418711	0.495137	0.838595
H229	H	0.949310	0.016843	0.371263
H230	H	1.449310	0.516843	0.871263
H231	H	0.892305	-0.030017	0.371271
H232	H	1.392305	0.469983	0.871271
N233	N	0.721221	0.156531	0.174863
N234	N	1.221221	0.656531	0.674863
H235	H	0.728426	0.150639	0.118963
H236	H	1.228426	0.650639	0.618963
H237	H	0.671995	0.150055	0.188662
H238	H	1.171995	0.650055	0.688662
N239	N	0.918733	-0.004860	0.660892
N240	N	1.418733	0.495140	1.160892
H241	H	0.948825	-0.029456	0.697801
H242	H	1.448825	0.470544	1.197801
H243	H	0.892316	-0.029981	0.628217
H244	H	1.392316	0.470019	1.128217
N245	N	0.624127	-0.464503	-0.000206
N246	N	1.124127	0.035497	0.499794
H247	H	0.584426	-0.432268	-0.000197
H248	H	1.084426	0.067732	0.499803
H249	H	0.621008	-0.488839	-0.046614
H250	H	1.121008	0.011161	0.453386
N251	N	0.003298	0.180126	-0.000240
N252	N	0.503298	0.680126	0.499760
H253	H	0.031765	0.213415	-0.000227
H254	H	0.531765	0.713415	0.499773
H255	H	-0.027137	0.182053	-0.046636
H256	H	0.472863	0.682053	0.453364
N257	N	0.800305	0.183693	0.417857
N258	N	1.300305	0.683693	0.917857
H259	H	0.838754	0.207353	0.431542
H260	H	1.338754	0.707353	0.931542
H261	H	0.801719	0.175769	0.361975
H262	H	1.301719	0.675769	0.861975
N263	N	0.600748	0.187310	-0.000205
N264	N	1.100748	0.687310	0.499795
H265	H	0.561335	0.219781	-0.000221
H266	H	1.061335	0.719781	0.499779
H267	H	0.630404	0.189937	0.046208
H268	H	1.130404	0.689937	0.546208
H269	H	0.177928	-0.020230	-0.000244
H270	H	0.677928	0.479770	0.499756
N271	N	0.381469	0.159385	0.090941
N272	N	0.881469	0.659385	0.590941
H273	H	0.343326	0.184164	0.118722
H274	H	0.843326	0.684164	0.618722
H275	H	0.414993	0.138785	0.128410
H276	H	0.914993	0.638785	0.628410
H277	H	0.931675	-0.656124	-0.000270
H278	H	1.431675	-0.156124	0.499730
N279	N	0.625936	-0.341044	-0.000218
N280	N	1.125936	0.158956	0.499782
H281	H	0.585417	-0.364477	-0.000213
H282	H	1.085417	0.135523	0.499787
H283	H	0.623525	-0.316104	0.046194
H284	H	1.123525	0.183896	0.546194
H285	H	0.146582	0.168107	-0.000271
H286	H	0.646582	0.668107	0.499729
N287	N	0.693253	-0.074746	-0.000175
N288	N	1.193253	0.425254	0.499825
H289	H	0.665423	-0.082034	-0.046578
H290	H	1.165423	0.417966	0.453422
H291	H	0.665459	-0.082066	0.046267
H292	H	1.165459	0.417934	0.546267
N293	N	0.258498	-0.007714	-0.091411
N294	N	0.758498	0.492286	0.408589
H295	H	0.296645	-0.032497	-0.119182
H296	H	0.796645	0.467503	0.380818
H297	H	0.232486	-0.032493	-0.057769
H298	H	0.732486	0.467507	0.442231
N299	N	1.014034	-0.507264	-0.000286
N300	N	1.514034	-0.007264	0.499714
H301	H	1.054548	-0.483826	-0.000291
H302	H	1.554548	0.016174	0.499709
H303	H	1.016426	-0.532216	0.046125
H304	H	1.516426	-0.032216	0.546125
H305	H	0.930094	-0.763893	-0.000279
H306	H	1.430094	-0.263893	0.499721
H307	H	0.708291	-0.192209	-0.000170
H308	H	1.208291	0.307791	0.499830
