data_functionalizedCrystal
_audit_creation_method	'MofGen! by Chris Wilmer'
_symmetry_space_group_name_H-M	'P1'
_symmetry_Int_Tables_number	1
_symmetry_cell_setting	triclinic
loop_
_symmetry_equiv_pos_as_xyz
  x,y,z
_cell_length_a	21.395362
_cell_length_b	19.121063
_cell_length_c	21.395356
_cell_angle_alpha	92.411537
_cell_angle_beta	89.957023
_cell_angle_gamma	92.485681
loop_
_atom_site_label
_atom_site_type_symbol
_atom_site_fract_x
_atom_site_fract_y
_atom_site_fract_z
Zn1	Zn	0.947237	-0.279338	-0.365202
Zn2	Zn	1.280570	0.053996	-0.031869
Zn3	Zn	1.613904	0.387329	0.301464
Zn4	Zn	0.942677	-0.396791	-0.264889
Zn5	Zn	1.276011	-0.063458	0.068445
Zn6	Zn	1.609344	0.269875	0.401778
Zn7	Zn	0.842452	-0.279389	-0.260406
Zn8	Zn	1.175785	0.053944	0.072928
Zn9	Zn	1.509119	0.387277	0.406261
Zn10	Zn	0.837958	-0.396787	-0.369593
Zn11	Zn	1.171291	-0.063454	-0.036260
Zn12	Zn	1.504624	0.269880	0.297073
O13	O	0.892581	-0.338076	-0.315023
O14	O	1.225914	-0.004743	0.018311
O15	O	1.559248	0.328590	0.351644
O16	O	1.034311	-0.294898	-0.351934
O17	O	1.367644	0.038435	-0.018601
O18	O	1.700978	0.371768	0.314733
O19	O	0.929355	-0.381241	-0.176617
O20	O	1.262688	-0.047908	0.156716
O21	O	1.596022	0.285426	0.490050
O22	O	0.860141	-0.181097	-0.270593
O23	O	1.193474	0.152237	0.062740
O24	O	1.526808	0.485570	0.396074
O25	O	1.030961	-0.381191	-0.278234
O26	O	1.364294	-0.047858	0.055099
O27	O	1.697628	0.285476	0.388432
O28	O	0.937126	-0.181059	-0.347587
O29	O	1.270460	0.152275	-0.014254
O30	O	1.603793	0.485608	0.319080
O31	O	0.855720	-0.294986	-0.173323
O32	O	1.189053	0.038347	0.160010
O33	O	1.522386	0.371680	0.493343
O34	O	0.754177	-0.294982	-0.274851
O35	O	1.087510	0.038351	0.058482
O36	O	1.420844	0.371685	0.391816
O37	O	0.852481	-0.381184	-0.456688
O38	O	1.185814	-0.047850	-0.123355
O39	O	1.519148	0.285483	0.209979
O40	O	0.750875	-0.381234	-0.355071
O41	O	1.084208	-0.047900	-0.021737
O42	O	1.417542	0.285433	0.311596
O43	O	0.932768	-0.294894	-0.453462
O44	O	1.266102	0.038439	-0.120129
O45	O	1.599435	0.371772	0.213205
O46	O	0.924997	-0.495077	-0.282492
O47	O	1.258330	-0.161743	0.050841
O48	O	1.591664	0.171590	0.384175
O49	O	0.848060	-0.495073	-0.359418
O50	O	1.181393	-0.161740	-0.026085
O51	O	1.514726	0.171593	0.307249
C52	C	0.729792	-0.338113	-0.314951
C53	C	1.063125	-0.004780	0.018382
C54	C	1.396459	0.328553	0.351715
C55	C	0.660149	-0.338146	-0.314936
C56	C	0.993483	-0.004813	0.018397
C57	C	1.326816	0.328520	0.351730
C58	C	0.625731	-0.383117	-0.356649
C59	C	0.959064	-0.049784	-0.023316
C60	C	1.292398	0.283550	0.310018
C61	C	0.560296	-0.383100	-0.356676
C62	C	0.893630	-0.049766	-0.023343
C63	C	1.226963	0.283567	0.309990
C64	C	0.529282	-0.338119	-0.314980
C65	C	0.862615	-0.004786	0.018353
C66	C	1.195949	0.328547	0.351687
C67	C	0.563709	-0.293140	-0.273264
C68	C	0.897042	0.040194	0.060069
C69	C	1.230375	0.373527	0.393403
C70	C	0.629142	-0.293153	-0.273242
C71	C	0.962476	0.040180	0.060091
C72	C	1.295809	0.373513	0.393424
C73	C	0.425773	-0.332471	-0.258360
C74	C	0.759106	0.000862	0.074973
C75	C	1.092440	0.334196	0.408307
C76	C	0.360340	-0.332463	-0.258381
C77	C	0.693674	0.000871	0.074952
C78	C	1.027007	0.334204	0.408286
C79	C	0.327463	-0.338073	-0.315047
C80	C	0.660797	-0.004740	0.018286
C81	C	0.994130	0.328593	0.351619
C82	C	0.360026	-0.343708	-0.371695
C83	C	0.693359	-0.010374	-0.038362
C84	C	1.026693	0.322959	0.294972
C85	C	0.425460	-0.343721	-0.371673
C86	C	0.758793	-0.010388	-0.038340
C87	C	1.092126	0.322946	0.294993
C88	C	0.458331	-0.338099	-0.314999
C89	C	0.791664	-0.004766	0.018334
C90	C	1.124997	0.328567	0.351668
C91	C	0.222093	-0.383028	-0.356793
C92	C	0.555426	-0.049694	-0.023460
C93	C	0.888760	0.283639	0.309874
C94	C	0.156657	-0.383006	-0.356821
C95	C	0.489991	-0.049672	-0.023488
C96	C	0.823324	0.283661	0.309845
C97	C	0.160071	-0.293049	-0.273403
C98	C	0.493404	0.040284	0.059930
C99	C	0.826737	0.373617	0.393263
C100	C	0.225505	-0.293068	-0.273381
C101	C	0.558839	0.040266	0.059953
C102	C	0.892172	0.373599	0.393286
C103	C	0.256512	-0.338061	-0.315075
C104	C	0.589846	-0.004727	0.018258
C105	C	0.923179	0.328606	0.351592
C106	C	0.885563	-0.520559	-0.321932
C107	C	1.218896	-0.187226	0.011402
C108	C	1.552230	0.146107	0.344735
C109	C	0.882618	-0.598626	-0.324908
C110	C	1.215951	-0.265293	0.008425
C111	C	1.549284	0.068040	0.341758
C112	C	0.921323	-0.635281	-0.286289
C113	C	1.254656	-0.301947	0.047044
C114	C	1.587989	0.031386	0.380378
C115	C	0.918556	-0.708633	-0.289092
C116	C	1.251890	-0.375300	0.044241
C117	C	1.585223	-0.041966	0.377574
C118	C	0.877082	-0.745330	-0.330512
C119	C	1.210415	-0.411996	0.002821
C120	C	1.543749	-0.078663	0.336154
C121	C	0.838376	-0.708670	-0.369136
C122	C	1.171709	-0.375337	-0.035803
C123	C	1.505042	-0.042003	0.297531
C124	C	0.841145	-0.635319	-0.366336
C125	C	1.174479	-0.301986	-0.033002
C126	C	1.507812	0.031348	0.300331
C127	C	0.866717	-0.966803	-0.340973
C128	C	1.200050	-0.633470	-0.007640
C129	C	1.533383	-0.300136	0.325693
C130	C	0.863949	-1.040159	-0.343770
C131	C	1.197282	-0.706826	-0.010436
C132	C	1.530615	-0.373492	0.322897
C133	C	0.944130	-1.040117	-0.263726
C134	C	1.277464	-0.706784	0.069607
C135	C	1.610797	-0.373450	0.402940
C136	C	0.946894	-0.966765	-0.260927
C137	C	1.280227	-0.633431	0.072407
C138	C	1.613560	-0.300098	0.405740
C139	C	0.908190	-0.930112	-0.299553
C140	C	1.241523	-0.596778	0.033781
C141	C	1.574857	-0.263445	0.367114
C142	C	0.874252	-0.820307	-0.333377
C143	C	1.207586	-0.486974	-0.000044
C144	C	1.540919	-0.153641	0.333289
C145	C	0.911023	-0.855135	-0.296690
C146	C	1.244357	-0.521802	0.036643
C147	C	1.577690	-0.188468	0.369976
C148	C	1.056006	-0.338039	-0.315094
C149	C	1.389339	-0.004706	0.018239
C150	C	1.722672	0.328627	0.351572
C151	C	1.125648	-0.338024	-0.315125
C152	C	1.458981	-0.004690	0.018208
C153	C	1.792314	0.328643	0.351542
C154	C	0.892632	-0.338033	-0.478444
C155	C	1.225965	-0.004699	-0.145111
C156	C	1.559299	0.328634	0.188222
C157	C	0.892654	-0.338014	-0.548085
C158	C	1.225987	-0.004681	-0.214751
C159	C	1.559320	0.328653	0.118582
C160	C	0.899644	-0.154881	-0.308100
C161	C	1.232977	0.178453	0.025233
C162	C	1.566310	0.511786	0.358567
C163	C	0.902653	-0.076814	-0.305150
C164	C	1.235987	0.256520	0.028183
C165	C	1.569320	0.589853	0.361517
C166	C	0.854323	-0.293096	-0.579073
C167	C	1.187656	0.040237	-0.245739
C168	C	1.520989	0.373570	0.087594
C169	C	0.854321	-0.293083	-0.644508
C170	C	1.187654	0.040250	-0.311174
C171	C	1.520988	0.373583	0.022159
C172	C	0.892662	-0.337981	-0.678952
C173	C	1.225995	-0.004647	-0.345619
C174	C	1.559329	0.328686	-0.012285
C175	C	0.930995	-0.382907	-0.647956
C176	C	1.264329	-0.049574	-0.314623
C177	C	1.597662	0.283759	0.018710
C178	C	0.930991	-0.382924	-0.582523
C179	C	1.264325	-0.049591	-0.249190
C180	C	1.597658	0.283743	0.084144
C181	C	0.948905	-0.343485	-0.782867
C182	C	1.282238	-0.010152	-0.449533
C183	C	1.615571	0.323182	-0.116200
C184	C	0.948910	-0.343463	-0.848299
C185	C	1.282243	-0.010130	-0.514965
C186	C	1.615577	0.323203	-0.181632
C187	C	0.892674	-0.337933	-0.880771
C188	C	1.226007	-0.004600	-0.547438
C189	C	1.559341	0.328733	-0.214104
C190	C	0.836431	-0.332410	-0.847802
C191	C	1.169765	0.000923	-0.514469
C192	C	1.503098	0.334257	-0.181136
C193	C	0.836427	-0.332427	-0.782369
C194	C	1.169761	0.000907	-0.449036
C195	C	1.503094	0.334240	-0.115702
C196	C	0.892670	-0.337968	-0.749904
C197	C	1.226004	-0.004635	-0.416571
C198	C	1.559337	0.328699	-0.083237
C199	C	0.854338	-0.292999	-0.982711
C200	C	1.187671	0.040334	-0.649378
C201	C	1.521005	0.373668	-0.316044
C202	C	0.854335	-0.292991	-1.048147
C203	C	1.187668	0.040342	-0.714814
C204	C	1.521002	0.373676	-0.381481
C205	C	0.931015	-0.382811	-1.051595
C206	C	1.264348	-0.049478	-0.718261
C207	C	1.597682	0.283855	-0.384928
C208	C	0.931012	-0.382823	-0.986160
C209	C	1.264346	-0.049490	-0.652826
C210	C	1.597679	0.283844	-0.319493
C211	C	0.892675	-0.337913	-0.951722
C212	C	1.226008	-0.004580	-0.618388
C213	C	1.559341	0.328754	-0.285055
C214	C	0.892568	-0.338069	-0.152235
C215	C	1.225902	-0.004736	0.181099
C216	C	1.559235	0.328598	0.514432
C217	C	0.892675	-0.337890	-0.082587
C218	C	1.226009	-0.004556	0.250746
C219	C	1.559342	0.328777	0.584080
H220	H	0.657166	-0.256531	-0.239274
H221	H	0.990499	0.076803	0.094059
H222	H	1.323832	0.410136	0.427392
H223	H	0.452536	-0.327899	-0.212212
H224	H	0.785870	0.005434	0.121121
H225	H	1.119203	0.338768	0.454455
Br226	Br	0.760106	-0.324897	-0.891863
Br227	Br	1.093439	0.008436	-0.558530
Br228	Br	1.426773	0.341769	-0.225196
H229	H	0.955093	-0.605407	-0.252558
H230	H	1.288426	-0.272074	0.080776
H231	H	1.621759	0.061259	0.414109
H232	H	0.823121	-0.256431	-0.954670
H233	H	1.156454	0.076902	-0.621337
H234	H	1.489787	0.410235	-0.288003
H235	H	0.830183	-1.070035	-0.377510
H236	H	1.163516	-0.736702	-0.044177
H237	H	1.496849	-0.403369	0.289157
H238	H	0.950073	-0.738474	-0.257644
H239	H	1.283407	-0.405140	0.075690
H240	H	1.616740	-0.071807	0.409023
Br241	Br	0.760102	-0.324934	-0.737628
Br242	Br	1.093436	0.008399	-0.404294
Br243	Br	1.426769	0.341732	-0.070961
Br244	Br	0.782094	-0.758472	-0.425355
Br245	Br	1.115427	-0.425138	-0.092022
Br246	Br	1.448760	-0.091805	0.241311
H247	H	0.333259	-0.348275	-0.417838
H248	H	0.666592	-0.014942	-0.084505
H249	H	0.999926	0.318392	0.248828
Br250	Br	1.003191	-0.916967	-0.204720
Br251	Br	1.336524	-0.583634	0.128614
Br252	Br	1.669857	-0.250300	0.461947
H253	H	0.975642	-1.069968	-0.232280
H254	H	1.308975	-0.736635	0.101053
H255	H	1.642308	-0.403301	0.434387
Br256	Br	0.814190	-0.917069	-0.393395
Br257	Br	1.147523	-0.583735	-0.060062
Br258	Br	1.480857	-0.250402	0.273272
H259	H	0.823117	-0.256415	-1.073376
H260	H	1.156450	0.076918	-0.740043
H261	H	1.489783	0.410251	-0.406710
Br262	Br	0.788620	-0.585573	-0.418754
Br263	Br	1.121953	-0.252239	-0.085421
Br264	Br	1.455286	0.081094	0.247913
Br265	Br	0.983044	-0.443752	-1.098333
Br266	Br	1.316377	-0.110418	-0.765000
Br267	Br	1.649711	0.222915	-0.431667
H268	H	0.944794	-0.825255	-0.262968
H269	H	1.278127	-0.491921	0.070365
H270	H	1.611461	-0.158588	0.403698
H271	H	0.840482	-0.850194	-0.367101
H272	H	1.173816	-0.516861	-0.033767
H273	H	1.507149	-0.183527	0.299566
Br274	Br	1.025231	-0.350999	-0.738804
Br275	Br	1.358564	-0.017666	-0.405471
Br276	Br	1.691898	0.315668	-0.072137
Br277	Br	0.802291	-0.232150	-0.532338
Br278	Br	1.135625	0.101184	-0.199005
Br279	Br	1.468958	0.434517	0.134328
Br280	Br	0.513576	-0.444134	-0.413292
Br281	Br	0.846909	-0.110801	-0.079958
Br282	Br	1.180242	0.222532	0.253375
H283	H	0.823109	-0.256502	-0.669743
H284	H	1.156442	0.076831	-0.336410
H285	H	1.489775	0.410164	-0.003076
H286	H	0.962227	-0.419398	-0.960929
H287	H	1.295560	-0.086065	-0.627596
H288	H	1.628894	0.247268	-0.294262
H289	H	0.994706	-0.347958	-0.875137
H290	H	1.328040	-0.014624	-0.541803
H291	H	1.661373	0.318709	-0.208470
H292	H	0.962213	-0.419463	-0.676005
H293	H	1.295546	-0.086130	-0.342672
H294	H	1.628879	0.247203	-0.009338
H295	H	0.128635	-0.419625	-0.390793
H296	H	0.461968	-0.086291	-0.057459
H297	H	0.795301	0.247042	0.275874
H298	H	0.650973	-0.419753	-0.390600
H299	H	0.984306	-0.086419	-0.057267
H300	H	1.317640	0.246914	0.276066
Br301	Br	0.264178	-0.444085	-0.413379
Br302	Br	0.597511	-0.110751	-0.080045
Br303	Br	0.930845	0.222582	0.253288
Br304	Br	0.469651	-0.351364	-0.448548
Br305	Br	0.802984	-0.018031	-0.115214
Br306	Br	1.136318	0.315302	0.218119
Br307	Br	0.117988	-0.231996	-0.216820
Br308	Br	0.451321	0.101337	0.116513
Br309	Br	0.784654	0.434670	0.449847
H310	H	0.962208	-0.419501	-0.557293
H311	H	1.295541	-0.086168	-0.223960
H312	H	1.628874	0.247166	0.109374
Br313	Br	0.316154	-0.324818	-0.181503
Br314	Br	0.649488	0.008516	0.151830
Br315	Br	0.982821	0.341849	0.485163
H316	H	0.538453	-0.256515	-0.239316
H317	H	0.871786	0.076818	0.094018
H318	H	1.205119	0.410152	0.427351
Br319	Br	0.272219	-0.232033	-0.216767
Br320	Br	0.605553	0.101300	0.116566
Br321	Br	0.938886	0.434634	0.449899
