data_functionalizedCrystal
_audit_creation_method	'MofGen! by Chris Wilmer'
_symmetry_space_group_name_H-M	'P1'
_symmetry_Int_Tables_number	1
_symmetry_cell_setting	triclinic
loop_
_symmetry_equiv_pos_as_xyz
  x,y,z
_cell_length_a	6.817900
_cell_length_b	9.582860
_cell_length_c	14.858340
_cell_angle_alpha	92.657606
_cell_angle_beta	104.519754
_cell_angle_gamma	111.206767
loop_
_atom_site_label
_atom_site_type_symbol
_atom_site_fract_x
_atom_site_fract_y
_atom_site_fract_z
V1	V	-4.078393	-0.208009	-0.289789
V2	V	-3.828393	0.041991	-0.039789
V3	V	-3.578393	0.291991	0.210211
V4	V	-3.328393	0.541991	0.460211
O5	O	-4.023831	0.009014	-0.284448
O6	O	-3.773831	0.259014	-0.034448
O7	O	-3.523831	0.509014	0.215552
O8	O	-3.273831	0.759014	0.465552
O9	O	-4.069078	-0.411503	-0.287639
O10	O	-3.819078	-0.161503	-0.037639
O11	O	-3.569078	0.088497	0.212361
O12	O	-3.319078	0.338497	0.462361
O13	O	-4.034480	-0.205241	-0.416253
O14	O	-3.784480	0.044759	-0.166253
O15	O	-3.534480	0.294759	0.083747
O16	O	-3.284480	0.544759	0.333747
O17	O	-4.058669	-0.198677	-0.154943
O18	O	-3.808669	0.051323	0.095057
O19	O	-3.558669	0.301323	0.345057
O20	O	-3.308669	0.551323	0.595057
V21	V	-4.556375	-0.182000	-0.273681
V22	V	-4.306375	0.068000	-0.023681
V23	V	-4.056375	0.318000	0.226319
V24	V	-3.806375	0.568000	0.476319
O25	O	-4.351806	-0.265063	-0.325124
O26	O	-4.101806	-0.015063	-0.075124
O27	O	-3.851806	0.234937	0.174876
O28	O	-3.601806	0.484937	0.424876
O29	O	-4.733159	-0.124946	-0.238346
O30	O	-4.483159	0.125054	0.011654
O31	O	-4.233159	0.375054	0.261654
O32	O	-3.983159	0.625054	0.511654
O33	O	-4.342483	0.021494	-0.275832
O34	O	-4.092483	0.271494	-0.025832
O35	O	-3.842483	0.521494	0.224168
O36	O	-3.592483	0.771494	0.474168
O37	O	-4.728333	-0.399023	-0.279022
O38	O	-4.478333	-0.149023	-0.029022
O39	O	-4.228333	0.100977	0.220978
O40	O	-3.978333	0.350977	0.470978
O41	O	-4.693496	-0.191333	-0.408527
O42	O	-4.443496	0.058667	-0.158527
O43	O	-4.193496	0.308667	0.091473
O44	O	-3.943496	0.558667	0.341473
O45	O	-4.377081	-0.184769	-0.147217
O46	O	-4.127081	0.065231	0.102783
O47	O	-3.877081	0.315231	0.352783
O48	O	-3.627081	0.565231	0.602783
C49	C	-3.923442	-0.461097	-0.283023
C50	C	-3.673442	-0.211097	-0.033023
C51	C	-3.423442	0.038903	0.216977
C52	C	-3.173442	0.288903	0.466977
C53	C	-3.997142	-0.627459	-0.282108
C54	C	-3.747142	-0.377459	-0.032108
C55	C	-3.497142	-0.127459	0.217892
C56	C	-3.247142	0.122541	0.467892
C57	C	-3.879307	-0.197987	-0.447083
C58	C	-3.629307	0.052013	-0.197083
C59	C	-3.379307	0.302013	0.052917
C60	C	-3.129307	0.552013	0.302917
C61	C	-3.924945	-0.197070	-0.550467
C62	C	-3.674945	0.052930	-0.300467
C63	C	-3.424945	0.302930	-0.050467
C64	C	-3.174945	0.552930	0.199533
C65	C	-3.962006	-0.196323	-0.634426
C66	C	-3.712006	0.053677	-0.384426
C67	C	-3.462006	0.303677	-0.134426
C68	C	-3.212006	0.553677	0.115574
C69	C	-4.008515	-0.195380	-0.739756
C70	C	-3.758515	0.054620	-0.489756
C71	C	-3.508515	0.304620	-0.239756
C72	C	-3.258515	0.554620	0.010244
C73	C	-4.045598	-0.194629	-0.823708
C74	C	-3.795598	0.055371	-0.573708
C75	C	-3.545598	0.305371	-0.323708
C76	C	-3.295598	0.555371	-0.073708
C77	C	-4.092112	-0.193689	-0.929045
C78	C	-3.842112	0.056311	-0.679045
C79	C	-3.592112	0.306311	-0.429045
C80	C	-3.342112	0.556311	-0.179045
C81	C	-4.151463	0.071080	-0.280444
C82	C	-3.901463	0.321080	-0.030444
C83	C	-3.651463	0.571080	0.219556
C84	C	-3.401463	0.821080	0.469556
C85	C	-4.057001	0.237440	-0.281366
C86	C	-3.807001	0.487440	-0.031366
C87	C	-3.557001	0.737440	0.218634
C88	C	-3.307001	0.987440	0.468634
C89	C	-4.195597	-0.192027	-0.116382
C90	C	-3.945597	0.057973	0.133618
C91	C	-3.695597	0.307973	0.383618
C92	C	-3.445597	0.557973	0.633618
C93	C	-4.129196	-0.192937	-0.012997
C94	C	-3.879196	0.057063	0.237003
C95	C	-3.629196	0.307063	0.487003
C96	C	-3.379196	0.557063	0.737003
