data_functionalizedCrystal
_audit_creation_method	'MofGen! by Chris Wilmer'
_symmetry_space_group_name_H-M	'P1'
_symmetry_Int_Tables_number	1
_symmetry_cell_setting	triclinic
loop_
_symmetry_equiv_pos_as_xyz
  x,y,z
_cell_length_a	12.759401
_cell_length_b	19.805405
_cell_length_c	12.759393
_cell_angle_alpha	90.036554
_cell_angle_beta	90.020938
_cell_angle_gamma	90.027935
loop_
_atom_site_label
_atom_site_type_symbol
_atom_site_fract_x
_atom_site_fract_y
_atom_site_fract_z
Zn1	Zn	1.606181	-0.269403	0.593976
Zn2	Zn	1.606036	-0.382606	0.418277
Zn3	Zn	1.430480	-0.269439	0.418311
Zn4	Zn	1.430436	-0.382558	0.593915
O5	O	1.518283	-0.326001	0.506120
O6	O	1.753183	-0.284424	0.570681
O7	O	1.582706	-0.367629	0.271261
O8	O	1.453866	-0.174718	0.441653
O9	O	1.753076	-0.367594	0.441596
O10	O	1.582953	-0.174691	0.570713
O11	O	1.453725	-0.284486	0.271285
O12	O	1.283453	-0.284440	0.441594
O13	O	1.453791	-0.367513	0.740944
O14	O	1.283420	-0.367548	0.570609
O15	O	1.582910	-0.284378	0.740989
O16	O	1.582663	-0.477316	0.441536
O17	O	1.453650	-0.477281	0.570576
C18	C	1.245316	-0.325993	0.506099
C19	C	1.128539	-0.326006	0.506115
C20	C	1.518165	-0.501858	0.506069
C21	C	1.518210	-0.577089	0.506082
C22	C	1.073688	-0.369346	0.573187
C23	C	0.963964	-0.369349	0.573208
C24	C	0.963952	-0.282669	0.439075
C25	C	1.073674	-0.282663	0.439060
C26	C	1.585453	-0.612429	0.438962
C27	C	1.585497	-0.683118	0.438985
C28	C	1.518294	-0.718465	0.506124
C29	C	1.451048	-0.683120	0.573252
C30	C	1.451010	-0.612433	0.573234
C31	C	1.451203	-0.968194	0.573330
C32	C	1.451245	-1.038886	0.573342
C33	C	1.585691	-1.038878	0.439081
C34	C	1.585652	-0.968191	0.439063
C35	C	1.518411	-0.932852	0.506194
C36	C	1.518365	-0.856204	0.506170
C37	C	1.518334	-0.795112	0.506144
C38	C	1.792316	-0.326010	0.506141
C39	C	1.909093	-0.326014	0.506150
C40	C	1.518362	-0.325936	0.780153
C41	C	1.518395	-0.325909	0.896930
C42	C	1.518430	-0.149459	0.506194
C43	C	1.518493	-0.074227	0.506225
C44	C	1.518265	-0.326017	0.233152
C45	C	1.518435	-0.325854	0.116376
C46	C	1.585633	-0.282614	0.951817
C47	C	1.585650	-0.282584	1.061541
C48	C	1.451190	-0.369151	1.061481
C49	C	1.451168	-0.369177	0.951759
H50	H	0.919309	-0.404640	0.627827
H51	H	0.919267	-0.247382	0.384480
H52	H	1.396408	-0.404432	0.907069
H53	H	1.118356	-0.404637	0.627790
C54	C	1.658595	-0.235468	1.120995
C55	C	1.635791	-0.168507	1.094301
C56	C	1.702976	-0.125081	1.149036
H57	H	1.649050	-0.241552	1.194212
H58	H	1.729190	-0.245343	1.102998
H59	H	1.565213	-0.158635	1.112305
H60	H	1.645342	-0.162401	1.021094
H61	H	1.773572	-0.134957	1.131039
H62	H	1.693426	-0.131172	1.222250
H63	H	1.687520	-0.079644	1.130925
H64	H	1.396459	-0.404380	1.106137
H65	H	1.118335	-0.247366	0.384442
H66	H	1.396334	-0.711906	0.627923
H67	H	1.640370	-0.247380	0.907178
H68	H	1.640173	-0.583654	0.384284
H69	H	1.640252	-0.711888	0.384328
C70	C	1.658733	-0.929936	0.366129
C71	C	1.717654	-0.976016	0.307372
C72	C	1.785001	-0.940802	0.240187
H73	H	1.618672	-0.902403	0.320216
H74	H	1.704529	-0.902331	0.406333
H75	H	1.671864	-1.003610	0.267170
H76	H	1.757737	-1.003551	0.353257
H77	H	1.830797	-0.913197	0.280391
H78	H	1.744931	-0.913270	0.194281
H79	H	1.824993	-0.972061	0.200319
H80	H	1.396452	-0.939426	0.627989
C81	C	1.658857	-1.077275	0.366387
C82	C	1.726211	-1.117766	0.425958
C83	C	1.793639	-1.153134	0.359034
H84	H	1.618849	-1.104958	0.320553
H85	H	1.698932	-1.046114	0.326426
H86	H	1.686140	-1.148923	0.465901
H87	H	1.766242	-1.090100	0.471790
H88	H	1.833714	-1.121973	0.319072
H89	H	1.753622	-1.180813	0.313202
H90	H	1.839353	-1.180606	0.399442
C91	C	1.378243	-1.077142	0.646362
C92	C	1.319369	-1.031066	0.705172
C93	C	1.252124	-1.066283	0.772454
H94	H	1.332406	-1.104765	0.606259
H95	H	1.418409	-1.104658	0.692230
H96	H	1.279207	-1.003562	0.659310
H97	H	1.365178	-1.003442	0.745297
H98	H	1.292289	-1.093799	0.818323
H99	H	1.206294	-1.093905	0.732343
H100	H	1.212177	-1.035026	0.812372
H101	H	1.396256	-0.583660	0.627892
