data_functionalizedCrystal
_audit_creation_method	'MofGen! by Chris Wilmer'
_symmetry_space_group_name_H-M	'P1'
_symmetry_Int_Tables_number	1
_symmetry_cell_setting	triclinic
loop_
_symmetry_equiv_pos_as_xyz
  x,y,z
_cell_length_a	23.532355
_cell_length_b	27.732025
_cell_length_c	22.010155
_cell_angle_alpha	90.018755
_cell_angle_beta	89.997414
_cell_angle_gamma	82.730483
loop_
_atom_site_label
_atom_site_type_symbol
_atom_site_fract_x
_atom_site_fract_y
_atom_site_fract_z
O1	O	0.755152	0.058553	-0.050424
O2	O	1.255152	0.558553	0.449576
O3	O	0.589266	0.067070	-0.050441
O4	O	1.089266	0.567070	0.449559
O5	O	0.677368	-0.007579	-0.050450
O6	O	1.177368	0.492421	0.449550
O7	O	0.667050	0.133202	-0.050414
O8	O	1.167050	0.633202	0.449586
O9	O	0.677352	-0.007568	0.050600
O10	O	1.177352	0.492432	0.550600
O11	O	0.589250	0.067081	0.050610
O12	O	1.089250	0.567081	0.550610
O13	O	0.755136	0.058564	0.050626
O14	O	1.255136	0.558564	0.550626
Cu15	Cu	0.672192	0.062824	0.059845
Cu16	Cu	1.172192	0.562824	0.559845
Cu17	Cu	0.672210	0.062810	-0.059659
Cu18	Cu	1.172210	0.562810	0.440341
O19	O	0.667034	0.133213	0.050636
O20	O	1.167034	0.633213	0.550636
C21	C	0.568042	0.066863	0.000082
C22	C	1.068042	0.566863	0.500082
C23	C	0.504824	0.066222	0.000075
C24	C	1.004824	0.566222	0.500075
C25	C	0.112811	0.062207	0.055182
C26	C	0.612811	0.562207	0.555182
C27	C	0.053413	0.061598	0.055184
C28	C	0.553413	0.561598	0.555184
O29	O	0.022687	0.061272	0.102029
O30	O	0.522687	0.561272	0.602029
N31	N	0.023714	0.061290	0.000101
N32	N	0.523714	0.561290	0.500101
C33	C	0.053417	0.061586	-0.054987
C34	C	0.553417	0.561586	0.445013
O35	O	0.022701	0.061268	-0.101839
O36	O	0.522701	0.561268	0.398161
C37	C	0.112814	0.062191	-0.054988
C38	C	0.612814	0.562191	0.445012
C39	C	0.142509	0.062504	0.000098
C40	C	0.642509	0.562504	0.500098
C41	C	0.142506	0.062519	0.110263
C42	C	0.642506	0.562519	0.610263
C43	C	0.201900	0.063129	0.110261
C44	C	0.701900	0.563129	0.610261
C45	C	0.231598	0.063427	0.055177
C46	C	0.731598	0.563427	0.555177
C47	C	0.201903	0.063114	0.000095
C48	C	0.701903	0.563114	0.500095
C49	C	0.142516	0.062484	-0.110076
C50	C	0.642516	0.562484	0.389924
C51	C	0.201918	0.063089	-0.110073
C52	C	0.701918	0.563089	0.389927
C53	C	0.231613	0.063402	-0.054987
C54	C	0.731613	0.563402	0.445013
C55	C	0.290995	0.064021	-0.054991
C56	C	0.790995	0.564021	0.445009
N57	N	0.320694	0.064329	0.000091
N58	N	0.820694	0.564329	0.500091
C59	C	0.290996	0.064032	0.055175
C60	C	0.790996	0.564032	0.555175
C61	C	-0.071322	0.060314	-0.054979
C62	C	0.428678	0.560314	0.445021
C63	C	-0.130719	0.059712	-0.054978
C64	C	0.369281	0.559712	0.445022
C65	C	-0.130719	0.059723	0.055192
C66	C	0.369281	0.559723	0.555192
C67	C	-0.071321	0.060328	0.055191
C68	C	0.428679	0.560328	0.555191
C69	C	-0.041623	0.060622	0.000103
C70	C	0.458377	0.560622	0.500103
C71	C	0.415727	0.065313	0.055166
C72	C	0.915727	0.565313	0.555166
C73	C	0.475126	0.065925	0.055159
C74	C	0.975126	0.565925	0.555159
C75	C	0.475121	0.065911	-0.055012
C76	C	0.975121	0.565911	0.444988
C77	C	0.415727	0.065302	-0.055005
C78	C	0.915727	0.565302	0.444995
C79	C	0.386032	0.065001	0.000089
C80	C	0.886032	0.565001	0.500089
O81	O	0.321759	0.064346	-0.101812
O82	O	0.821759	0.564346	0.398188
O83	O	0.321720	0.064344	0.102019
O84	O	0.821720	0.564344	0.602019
C85	C	0.677145	-0.025581	0.000069
C86	C	1.177145	0.474419	0.500069
C87	C	0.676499	-0.079237	0.000051
C88	C	1.176499	0.420763	0.500051
C89	C	0.671917	-0.462415	-0.054997
C90	C	1.171917	0.037585	0.445003
C91	C	0.674335	-0.260752	-0.055016
C92	C	1.174335	0.239248	0.444984
O93	O	0.674678	-0.234690	-0.101863
O94	O	1.174678	0.265310	0.398137
N95	N	0.674628	-0.235525	0.000065
N96	N	1.174628	0.264475	0.500065
C97	C	0.674321	-0.260716	0.055155
C98	C	1.174321	0.239284	0.555155
O99	O	0.674632	-0.234632	0.102004
O100	O	1.174632	0.265368	0.602004
C101	C	0.671907	-0.462378	0.055173
C102	C	1.171907	0.037622	0.555173
C103	C	0.671608	-0.487603	0.000089
C104	C	1.171608	0.012397	0.500089
C105	C	0.671618	-0.487640	-0.110077
C106	C	1.171618	0.012360	0.389923
C107	C	0.671010	-0.538052	-0.110071
C108	C	1.171010	-0.038052	0.389929
C109	C	0.670701	-0.563240	-0.054986
C110	C	1.170701	-0.063240	0.445014
C111	C	0.671000	-0.538015	0.000094
C112	C	1.171000	-0.038015	0.500094
C113	C	0.671604	-0.487569	0.110262
C114	C	1.171604	0.012431	0.610262
C115	C	0.671002	-0.537988	0.110262
C116	C	1.171002	-0.037988	0.610262
C117	C	0.670702	-0.563213	0.055178
C118	C	1.170702	-0.063213	0.555178
C119	C	0.670083	-0.613615	0.055185
C120	C	1.170083	-0.113615	0.555185
N121	N	0.669790	-0.638843	0.000104
N122	N	1.169790	-0.138843	0.500104
C123	C	0.670099	-0.613655	-0.054982
C124	C	1.170099	-0.113655	0.445018
C125	C	0.675588	-0.154840	0.055141
C126	C	1.175588	0.345160	0.555141
C127	C	0.676190	-0.104425	0.055136
C128	C	1.176190	0.395575	0.555136
C129	C	0.676205	-0.104465	-0.055035
C130	C	1.176205	0.395535	0.444965
C131	C	0.675598	-0.154881	-0.055029
C132	C	1.175598	0.345119	0.444971
C133	C	0.675294	-0.180068	0.000060
C134	C	1.175294	0.319932	0.500060
C135	C	0.668822	-0.719525	-0.054966
C136	C	1.168822	-0.219525	0.445034
C137	C	0.668212	-0.769941	-0.054956
C138	C	1.168212	-0.269941	0.445044
C139	C	0.668200	-0.769897	0.055215
C140	C	1.168200	-0.269897	0.555215
C141	C	0.668807	-0.719485	0.055205
C142	C	1.168807	-0.219485	0.555205
C143	C	0.669120	-0.694300	0.000110
C144	C	1.169120	-0.194300	0.500110
O145	O	0.669747	-0.639710	0.102007
O146	O	1.169747	-0.139710	0.602007
O147	O	0.669800	-0.639750	-0.101824
O148	O	1.169800	-0.139750	0.398176
C149	C	0.672524	-0.412003	-0.055002
C150	C	1.172524	0.087997	0.444998
C151	C	0.672823	-0.386778	0.000078
C152	C	1.172823	0.113222	0.500078
C153	C	0.672514	-0.411966	0.055163
C154	C	1.172514	0.088034	0.555163
C155	C	0.673425	-0.336363	0.000073
C156	C	1.173425	0.163637	0.500073
C157	C	0.673734	-0.311175	-0.055012
C158	C	1.173734	0.188825	0.444988
C159	C	0.673441	-0.336403	-0.110093
C160	C	1.173441	0.163597	0.389907
C161	C	0.672833	-0.386815	-0.110088
C162	C	1.172833	0.113185	0.389912
C163	C	0.672808	-0.386738	0.110244
C164	C	1.172808	0.113262	0.610244
C165	C	0.673415	-0.336326	0.110234
C166	C	1.173415	0.163674	0.610234
C167	C	0.673724	-0.311138	0.055149
C168	C	1.173724	0.188862	0.555149
C169	C	0.776360	0.058772	0.000102
C170	C	1.276360	0.558772	0.500102
C171	C	0.839578	0.059412	0.000106
C172	C	1.339578	0.559412	0.500106
C173	C	0.667257	0.151215	0.000116
C174	C	1.167257	0.651215	0.500116
C175	C	0.667903	0.204871	0.000130
C176	C	1.167903	0.704871	0.500130
N177	N	0.672182	0.062833	0.143897
N178	N	1.172182	0.562833	0.643897
N179	N	0.672224	0.062798	-0.143711
N180	N	1.172224	0.562798	0.356289
C181	C	0.711224	0.029761	0.563672
C182	C	1.211224	0.529761	1.063672
C183	C	0.711227	0.029757	0.627280
C184	C	1.211227	0.529757	1.127280
O185	O	0.744399	0.001645	0.660168
O186	O	1.244399	0.501645	1.160168
N187	N	0.672210	0.062800	0.659104
N188	N	1.172210	0.562800	1.159104
C189	C	0.633184	0.095846	0.627318
C190	C	1.133184	0.595846	1.127318
O191	O	0.599998	0.123951	0.660228
O192	O	1.099998	0.623951	1.160228
C193	C	0.633180	0.095846	0.563711
C194	C	1.133180	0.595846	1.063711
C195	C	0.672203	0.062804	0.531890
C196	C	1.172203	0.562804	1.031890
C197	C	0.750244	-0.003279	0.531851
C198	C	1.250244	0.496721	1.031851
C199	C	0.750242	-0.003275	0.468248
C200	C	1.250242	0.496725	0.968248
C201	C	0.711220	0.029769	0.436466
C202	C	1.211220	0.529769	0.936466
C203	C	0.672201	0.062808	0.468287
C204	C	1.172201	0.562808	0.968287
C205	C	0.594151	0.128889	0.531926
C206	C	1.094151	0.628889	1.031926
C207	C	0.594150	0.128886	0.468315
C208	C	1.094150	0.628886	0.968315
C209	C	0.633173	0.095844	0.436494
C210	C	1.133173	0.595844	0.936494
C211	C	0.633177	0.095856	0.372902
C212	C	1.133177	0.595856	0.872902
N213	N	0.672193	0.062813	0.341077
N214	N	1.172193	0.562813	0.841077
C215	C	0.711215	0.029769	0.372860
C216	C	1.211215	0.529769	0.872860
C217	C	0.633197	0.095841	0.760896
C218	C	1.133197	0.595841	1.260896
C219	C	0.633204	0.095843	0.824501
C220	C	1.133204	0.595843	1.324501
C221	C	0.711246	0.029754	0.824459
C222	C	1.211246	0.529754	1.324459
C223	C	0.711241	0.029755	0.760852
C224	C	1.211241	0.529755	1.260852
C225	C	0.672214	0.062798	0.729071
C226	C	1.172214	0.562798	1.229071
C227	C	0.711208	0.029781	0.239288
C228	C	1.211208	0.529781	0.739288
C229	C	0.711204	0.029789	0.175679
C230	C	1.211204	0.529789	0.675679
C231	C	0.633160	0.095876	0.175727
C232	C	1.133160	0.595876	0.675727
C233	C	0.633166	0.095870	0.239330
C234	C	1.133166	0.595870	0.739330
C235	C	0.672192	0.062818	0.271109
C236	C	1.172192	0.562818	0.771109
O237	O	0.600020	0.123953	0.339974
O238	O	1.100020	0.623953	0.839974
O239	O	0.744391	0.001665	0.339942
O240	O	1.244391	0.501665	0.839942
H241	H	0.118349	0.062229	-0.154933
H242	H	0.618349	0.562229	0.345067
H243	H	0.667946	-0.790414	0.100064
H244	H	1.167946	-0.290414	0.600064
C245	C	0.590237	0.132221	0.140755
C246	C	1.090237	0.632221	0.640755
N247	N	0.557903	0.159593	0.114412
N248	N	1.057903	0.659593	0.614412
C249	C	0.234582	0.063413	-0.170675
C250	C	0.734582	0.563413	0.329325
N251	N	0.259183	0.063659	-0.216321
N252	N	0.759183	0.563659	0.283679
C253	C	0.676549	-0.076749	-0.115629
C254	C	1.176549	0.423251	0.384371
N255	N	0.676814	-0.055873	-0.161266
N256	N	1.176814	0.444127	0.338734
C257	C	0.667902	-0.797687	-0.115556
C258	C	1.167902	-0.297687	0.384444
N259	N	0.667676	-0.818585	-0.161198
N260	N	1.167676	-0.318585	0.338802
H261	H	0.675340	-0.175343	0.100004
H262	H	1.175340	0.324657	0.600004
C263	C	-0.038661	0.060642	-0.115584
C264	C	0.461339	0.560642	0.384416
N265	N	-0.014063	0.060889	-0.161232
N266	N	0.485937	0.560889	0.338768
H267	H	0.669077	-0.699025	-0.099830
H268	H	1.169077	-0.199025	0.400170
C269	C	0.383060	0.064963	-0.115602
C270	C	0.883060	0.564963	0.384398
N271	N	0.358460	0.064704	-0.161245
N272	N	0.858460	0.564704	0.338755
H273	H	0.672589	-0.407348	-0.154943
H274	H	1.172589	0.092652	0.345057
C275	C	0.670664	-0.565691	0.170866
C276	C	1.170664	-0.065691	0.670866
N277	N	0.670408	-0.586555	0.216513
N278	N	1.170408	-0.086555	0.716513
H279	H	0.499312	0.066155	-0.099860
H280	H	0.999312	0.566155	0.400140
C281	C	0.754166	-0.006597	0.725855
C282	C	1.254166	0.493403	1.225855
N283	N	0.786497	-0.033979	0.699498
N284	N	1.286497	0.466021	1.199498
C285	C	0.670726	-0.565798	-0.170669
C286	C	1.170726	-0.065798	0.329331
N287	N	0.670530	-0.586694	-0.216315
N288	N	1.170530	-0.086694	0.283685
H289	H	0.673688	-0.315886	-0.154946
H290	H	1.173688	0.184114	0.345054
C291	C	0.234558	0.063466	0.170860
C292	C	0.734558	0.563466	0.670860
N293	N	0.259153	0.063717	0.216507
N294	N	0.759153	0.563717	0.716507
H295	H	0.671871	-0.467137	-0.154937
H296	H	1.171871	0.032863	0.345063
H297	H	0.672558	-0.407241	0.155102
H298	H	1.172558	0.092759	0.655102
H299	H	-0.154893	0.059465	-0.099835
H300	H	0.345107	0.559465	0.400165
C301	C	0.675282	-0.182624	-0.115626
C302	C	1.175282	0.317376	0.384374
N303	N	0.675048	-0.203519	-0.161270
N304	N	1.175048	0.296481	0.338730
C305	C	0.676512	-0.076683	0.115734
C306	C	1.176512	0.423317	0.615734
N307	N	0.676757	-0.055790	0.161378
N308	N	1.176757	0.444210	0.661378
C309	C	0.507788	0.066267	0.115760
C310	C	1.007788	0.566267	0.615760
N311	N	0.532386	0.066523	0.161404
N312	N	1.032386	0.566523	0.661404
C313	C	0.590280	0.132195	0.859497
C314	C	1.090280	0.632195	1.359497
N315	N	0.557945	0.159575	0.885854
N316	N	1.057945	0.659575	1.385854
H317	H	0.118332	0.062276	0.155122
H318	H	0.618332	0.562276	0.655122
C319	C	-0.038661	0.060668	0.115789
C320	C	0.461339	0.560668	0.615789
N321	N	-0.014064	0.060922	0.161435
N322	N	0.485936	0.560922	0.661435
H323	H	0.782016	-0.030182	0.442343
H324	H	1.282016	0.469818	0.942343
H325	H	0.669028	-0.698943	0.100059
H326	H	1.169028	-0.198943	0.600059
C327	C	0.383071	0.064987	0.115772
C328	C	0.883071	0.564987	0.615772
N329	N	0.358473	0.064746	0.161420
N330	N	0.858473	0.564746	0.661420
C331	C	0.671936	-0.459834	0.170861
C332	C	1.171936	0.040166	0.670861
N333	N	0.672187	-0.438945	0.216507
N334	N	1.172187	0.061055	0.716507
C335	C	0.551218	0.165234	0.566915
C336	C	1.051218	0.665234	1.066915
N337	N	0.518875	0.192611	0.593268
N338	N	1.018875	0.692611	1.093268
H339	H	-0.154910	0.059480	0.100045
H340	H	0.345090	0.559480	0.600045
H341	H	0.673653	-0.315792	0.155094
H342	H	1.173653	0.184208	0.655094
C343	C	0.754132	-0.006563	0.140680
C344	C	1.254132	0.493437	0.640680
N345	N	0.786464	-0.033944	0.114321
N346	N	1.286464	0.466056	0.614321
H347	H	0.742986	0.002866	0.265155
H348	H	1.242986	0.502866	0.765155
H349	H	0.782020	-0.030189	0.557723
H350	H	1.282020	0.469811	1.057723
C351	C	0.754167	-0.006598	0.859431
C352	C	1.254167	0.493402	1.359431
N353	N	0.786493	-0.033977	0.885774
N354	N	1.286493	0.466023	1.385774
H355	H	0.601418	0.122753	0.735023
H356	H	1.101418	0.622753	1.235023
H357	H	0.562367	0.155794	0.442442
H358	H	1.062367	0.655794	0.942442
C359	C	0.590242	0.132220	0.274335
C360	C	1.090242	0.632220	0.774335
N361	N	0.557907	0.159597	0.300696
N362	N	1.057907	0.659597	0.800696
