data_functionalizedCrystal
_audit_creation_method	'MofGen! by Chris Wilmer'
_symmetry_space_group_name_H-M	'P1'
_symmetry_Int_Tables_number	1
_symmetry_cell_setting	triclinic
loop_
_symmetry_equiv_pos_as_xyz
  x,y,z
_cell_length_a	21.295411
_cell_length_b	10.686220
_cell_length_c	10.686285
_cell_angle_alpha	89.654569
_cell_angle_beta	85.619252
_cell_angle_gamma	85.654531
loop_
_atom_site_label
_atom_site_type_symbol
_atom_site_fract_x
_atom_site_fract_y
_atom_site_fract_z
Zn1	Zn	-0.267715	-1.956210	-0.352189
Zn2	Zn	0.232285	-1.456210	0.147811
Zn3	Zn	-0.153833	-1.972189	-0.561935
Zn4	Zn	0.346167	-1.472189	-0.061935
Zn5	Zn	-0.169864	-1.746425	-0.368307
Zn6	Zn	0.330136	-1.246425	0.131693
Zn7	Zn	-0.266465	-1.762535	-0.578009
Zn8	Zn	0.233535	-1.262535	-0.078009
O9	O	-0.214469	-1.859340	-0.465110
O10	O	0.285531	-1.359340	0.034890
O11	O	-0.246422	-2.133867	-0.366539
O12	O	0.253578	-1.633867	0.133461
O13	O	-0.067871	-1.942186	-0.536268
O14	O	0.432129	-1.442186	-0.036268
O15	O	-0.190076	-1.760823	-0.190628
O16	O	0.309924	-1.260823	0.309372
O17	O	-0.162754	-2.145607	-0.520639
O18	O	0.337246	-1.645607	-0.020639
O19	O	-0.261967	-1.914952	-0.178786
O20	O	0.238033	-1.414952	0.321214
O21	O	-0.079649	-1.776318	-0.394011
O22	O	0.420351	-1.276318	0.105989
O23	O	-0.188864	-1.573025	-0.409597
O24	O	0.311136	-1.073025	0.090403
O25	O	-0.354719	-1.788281	-0.548035
O26	O	0.145281	-1.288281	-0.048035
O27	O	-0.259837	-1.584861	-0.563665
O28	O	0.240163	-1.084861	-0.063665
O29	O	-0.355637	-1.930573	-0.382126
O30	O	0.144363	-1.430573	0.117874
O31	O	-0.161542	-1.957808	-0.739608
O32	O	0.338458	-1.457808	-0.239608
O33	O	-0.244292	-1.803776	-0.751418
O34	O	0.255708	-1.303776	-0.251418
C35	C	-0.225955	-1.533428	-0.490125
C36	C	0.274045	-1.033428	0.009875
C37	C	-0.230882	-1.394004	-0.500857
C38	C	0.269118	-0.894004	-0.000857
C39	C	-0.378657	-1.859442	-0.465076
C40	C	0.121343	-1.359442	0.034924
C41	C	-0.448624	-1.859485	-0.465061
C42	C	0.051376	-1.359485	0.034939
C43	C	-0.201054	-1.884308	-0.791026
C44	C	0.298946	-1.384308	-0.291026
C45	C	-0.195332	-1.895105	-0.930446
C46	C	0.304668	-1.395105	-0.430446
C47	C	-0.481970	-1.933573	-0.378668
C48	C	0.018030	-1.433573	0.121332
C49	C	-0.547715	-1.933567	-0.378614
C50	C	-0.047715	-1.433567	0.121386
C51	C	-0.580110	-1.859488	-0.464974
C52	C	-0.080110	-1.359488	0.035026
C53	C	-0.546756	-1.785385	-0.551373
C54	C	-0.046756	-1.285385	-0.051373
C55	C	-0.481013	-1.785384	-0.551417
C56	C	0.018987	-1.285384	-0.051417
N57	N	-0.679160	-1.858273	-0.575449
N58	N	-0.179160	-1.358273	-0.075449
N59	N	-0.741613	-1.858281	-0.575403
N60	N	-0.241613	-1.358281	-0.075403
C61	C	-0.778189	-1.859486	-0.464846
C62	C	-0.278189	-1.359486	0.035154
N63	N	-0.749953	-1.860707	-0.354331
N64	N	-0.249953	-1.360707	0.145669
N65	N	-0.687495	-1.860705	-0.354378
N66	N	-0.187495	-1.360705	0.145622
C67	C	-0.651397	-1.859481	-0.464936
C68	C	-0.151397	-1.359481	0.035064
C69	C	-0.882824	-1.933572	-0.378388
C70	C	-0.382824	-1.433572	0.121612
C71	C	-0.948570	-1.933557	-0.378332
C72	C	-0.448570	-1.433557	0.121668
C73	C	-0.947609	-1.785382	-0.551102
C74	C	-0.447609	-1.285382	-0.051102
C75	C	-0.881865	-1.785390	-0.551147
C76	C	-0.381865	-1.285390	-0.051147
C77	C	-0.849476	-1.859491	-0.464791
C78	C	-0.349476	-1.359491	0.035209
C79	C	-0.050921	-1.859303	-0.465048
C80	C	0.449079	-1.359303	0.034952
C81	C	0.019039	-1.859476	-0.464691
C82	C	0.519039	-1.359476	0.035309
C83	C	-0.202939	-2.186524	-0.439998
C84	C	0.297061	-1.686524	0.060002
C85	C	-0.198026	-2.325950	-0.429297
C86	C	0.301974	-1.825950	0.070703
C87	C	-0.227949	-1.834308	-0.137919
C88	C	0.272051	-1.334308	0.362081
C89	C	-0.233693	-1.823641	0.001511
C90	C	0.266307	-1.323641	0.501511
H91	H	-0.455603	-1.993911	-0.308349
H92	H	0.044397	-1.493911	0.191651
C93	C	-0.145040	-1.988915	-0.995843
C94	C	0.354960	-1.488915	-0.495843
N95	N	-0.107161	-2.059572	-1.045102
N96	N	0.392839	-1.559572	-0.545102
C97	C	-0.845182	-1.703892	-0.646191
C98	C	-0.345182	-1.203892	-0.146191
N99	N	-0.817554	-1.642501	-0.717781
N100	N	-0.317554	-1.142501	-0.217781
C101	C	-0.582392	-1.703893	-0.646364
C102	C	-0.082392	-1.203893	-0.146364
N103	N	-0.609233	-1.642504	-0.717909
N104	N	-0.109233	-1.142504	-0.217909
C105	C	-0.584402	-2.015081	-0.283579
C106	C	-0.084402	-1.515081	0.216421
N107	N	-0.612033	-2.076481	-0.212001
N108	N	-0.112033	-1.576481	0.287999
H109	H	-0.262779	-1.345599	-0.570345
H110	H	0.237221	-0.845599	-0.070345
C111	C	-0.283981	-1.729833	-0.933096
C112	C	0.216019	-1.229833	-0.433096
N113	N	-0.321860	-1.659177	-0.883835
N114	N	0.178140	-1.159177	-0.383835
H115	H	-0.453863	-1.725047	-0.621767
H116	H	0.046137	-1.225047	-0.121767
H117	H	-0.856452	-1.993902	-0.308065
H118	H	-0.356452	-1.493902	0.191935
H119	H	-0.973986	-1.725052	-0.621406
H120	H	-0.473986	-1.225052	-0.121406
C121	C	-0.985251	-2.015061	-0.283286
C122	C	-0.485251	-1.515061	0.216714
N123	N	-1.012879	-2.076453	-0.211696
N124	N	-0.512879	-1.576453	0.288304
H125	H	-0.166127	-1.374350	-0.359821
H126	H	0.333873	-0.874350	0.140179
