data_functionalizedCrystal
_audit_creation_method	'MofGen! by Chris Wilmer'
_symmetry_space_group_name_H-M	'P1'
_symmetry_Int_Tables_number	1
_symmetry_cell_setting	triclinic
loop_
_symmetry_equiv_pos_as_xyz
  x,y,z
_cell_length_a	10.654550
_cell_length_b	13.339070
_cell_length_c	9.130313
_cell_angle_alpha	89.997998
_cell_angle_beta	89.999724
_cell_angle_gamma	100.057112
loop_
_atom_site_label
_atom_site_type_symbol
_atom_site_fract_x
_atom_site_fract_y
_atom_site_fract_z
O1	O	1.715933	0.142435	-0.121681
O2	O	1.355037	0.156005	-0.121708
O3	O	1.494066	0.001665	-0.121693
O4	O	1.576904	0.296774	-0.121696
O5	O	1.494051	0.001661	0.121906
O6	O	1.355022	0.156000	0.121891
O7	O	1.715918	0.142430	0.121917
Cu8	Cu	1.535469	0.149215	0.144147
Cu9	Cu	1.535486	0.149220	-0.143937
O10	O	1.576889	0.296769	0.121903
C11	C	1.307895	0.155006	0.000088
C12	C	1.167445	0.152025	0.000078
C13	C	1.118643	0.242897	0.000082
C14	C	0.986674	0.240090	0.000107
C15	C	0.952320	0.055530	0.000120
C16	C	1.084286	0.058338	0.000105
C17	C	1.480065	-0.036124	0.000103
C18	C	1.438355	-0.148719	0.000094
C19	C	1.762670	-0.511236	0.000119
C20	C	1.801862	-0.405448	0.000135
C21	C	1.710989	-0.341261	0.000124
C22	C	1.580916	-0.382871	0.000098
C23	C	1.541720	-0.488669	0.000093
C24	C	1.490039	-0.318694	0.000099
C25	C	1.359966	-0.360304	0.000073
C26	C	1.320776	-0.466092	0.000066
C27	C	1.411650	-0.530280	0.000077
C28	C	1.529235	-0.212896	0.000104
C29	C	1.308285	-0.190329	0.000078
C30	C	1.269093	-0.296117	0.000062
C31	C	1.763060	0.143429	0.000118
C32	C	1.903510	0.146410	0.000119
C33	C	1.590890	0.334559	0.000103
C34	C	1.632600	0.447153	0.000103
N35	N	1.535465	0.149210	0.346770
N36	N	1.535497	0.149216	-0.346560
C37	C	1.597066	0.080898	0.423428
C38	C	1.597078	0.080898	0.576765
C39	C	1.473888	0.217532	0.576771
C40	C	1.473869	0.217526	0.423437
H41	H	1.186348	0.319183	0.000071
O42	O	0.939481	0.328459	0.000040
C43	C	1.041181	0.411745	0.000053
H44	H	1.130209	0.386691	-0.046078
H45	H	1.015059	0.475472	-0.070671
H46	H	1.060513	0.440421	0.116915
H47	H	1.423700	0.273155	0.361018
H48	H	1.423740	0.273155	0.639210
O49	O	0.871360	-0.035385	0.000069
C50	C	0.744416	-0.018380	0.000115
H51	H	0.741151	0.060542	-0.046005
H52	H	0.683288	-0.078381	-0.070601
H53	H	0.706159	-0.023552	0.116986
H54	H	1.124020	-0.015666	0.000106
H55	H	1.647237	0.025271	0.639175
H56	H	1.742907	-0.255124	0.000138
O57	O	1.928153	-0.364863	0.000213
C58	C	1.943262	-0.257726	0.000179
H59	H	1.853671	-0.233580	0.046293
H60	H	2.028707	-0.224729	0.070907
H61	H	1.959626	-0.228234	-0.116687
O62	O	1.850765	-0.573731	0.000072
C63	C	1.788274	-0.676026	0.000109
H64	H	1.687987	-0.680770	-0.046027
H65	H	1.843935	-0.723445	-0.070599
H66	H	1.782369	-0.706582	0.116978
H67	H	1.214863	-0.499968	0.000056
O68	O	1.373417	-0.633029	0.000251
C69	C	1.299740	-0.662202	0.126420
H70	H	1.257819	-0.594651	0.168494
H71	H	1.219210	-0.727424	0.098025
H72	H	1.362611	-0.688121	0.214762
H73	H	1.635141	-0.179028	0.000126
H74	H	1.163185	-0.330011	0.000041
H75	H	1.234288	-0.138067	0.000077
O76	O	1.656902	0.014435	0.349178
C77	C	1.711299	-0.045842	0.449728
H78	H	1.659292	-0.047369	0.559037
H79	H	1.702287	-0.126689	0.405436
H80	H	1.816302	-0.012214	0.466016
