data_functionalizedCrystal
_audit_creation_method	'MofGen! by Chris Wilmer'
_symmetry_space_group_name_H-M	'P1'
_symmetry_Int_Tables_number	1
_symmetry_cell_setting	triclinic
loop_
_symmetry_equiv_pos_as_xyz
  x,y,z
_cell_length_a	10.654541
_cell_length_b	11.026644
_cell_length_c	10.065875
_cell_angle_alpha	79.301641
_cell_angle_beta	81.125239
_cell_angle_gamma	83.465962
loop_
_atom_site_label
_atom_site_type_symbol
_atom_site_fract_x
_atom_site_fract_y
_atom_site_fract_z
O1	O	0.512374	-1.632223	0.113527
O2	O	0.452385	-1.278414	0.113522
O3	O	0.301407	-1.463454	0.113517
O4	O	0.663352	-1.447184	0.113533
O5	O	0.330344	-1.428170	-0.113471
O6	O	0.481322	-1.243131	-0.113465
O7	O	0.541311	-1.596940	-0.113461
Zn8	Zn	0.515911	-1.414433	-0.149502
Zn9	Zn	0.477785	-1.460921	0.149564
O10	O	0.692289	-1.411900	-0.113455
C11	C	0.455786	-1.215469	0.000028
C12	C	0.422794	-1.080478	0.000026
C13	C	0.479807	-0.867917	0.000030
C14	C	0.513909	-1.007437	0.000030
C15	C	0.268818	-1.444618	0.000023
C16	C	0.128599	-1.441045	0.000026
C17	C	0.148657	-1.662309	0.000011
C18	C	0.092812	-1.771257	0.000002
C19	C	-0.038937	-1.767894	0.000006
C20	C	-0.114845	-1.655570	0.000024
C21	C	-0.059000	-1.546622	0.000034
C22	C	0.072753	-1.549998	0.000026
C23	C	-0.079059	-1.325362	0.000058
C24	C	0.052691	-1.328722	0.000044
C25	C	-0.154968	-1.213039	0.000076
C26	C	-0.099122	-1.104087	0.000076
C27	C	0.032636	-1.107455	0.000071
C28	C	0.108536	-1.219774	0.000054
C29	C	0.724878	-1.430737	0.000041
C30	C	0.865096	-1.434310	0.000048
C31	C	0.537912	-0.659885	0.000034
C32	C	0.570908	-0.794876	0.000034
N33	N	0.541933	-1.382716	-0.353607
C34	C	0.486829	-1.449877	-0.421388
C35	C	0.506868	-1.425476	-0.578554
N36	N	0.451756	-1.492648	0.353668
H37	H	0.674151	-0.835631	0.000031
H38	H	0.376569	-0.827158	0.000004
C39	C	0.624427	-1.281866	-0.431538
C40	C	0.551136	-1.194027	-0.513618
C41	C	0.627092	-1.101113	-0.585437
H42	H	0.656431	-1.242751	-0.368790
H43	H	0.693658	-1.317542	-0.487349
H44	H	0.481929	-1.158353	-0.457811
H45	H	0.519133	-1.233104	-0.576390
H46	H	0.696323	-1.136789	-0.641249
H47	H	0.659092	-1.062008	-0.522680
H48	H	0.577379	-1.041509	-0.641146
H49	H	0.255937	-1.665057	-0.000010
C50	C	-0.181509	-0.982158	0.000382
C51	C	-0.170409	-0.934408	0.117181
C52	C	-0.246304	-0.822096	0.117518
H53	H	-0.154045	-0.924806	-0.078679
H54	H	-0.267998	-0.995722	0.000468
H55	H	-0.083938	-0.920838	0.117084
H56	H	-0.197882	-0.991726	0.196262
H57	H	-0.332793	-0.835660	0.117603
H58	H	-0.218834	-0.764755	0.038451
H59	H	-0.238793	-0.789689	0.196770
C60	C	0.093493	-0.989308	0.000152
C61	C	0.225117	-1.016292	0.000174
C62	C	0.281212	-0.907487	0.000268
H63	H	0.078000	-0.930903	-0.078973
H64	H	0.057762	-0.955613	0.079348
H65	H	0.260836	-1.049969	-0.079014
H66	H	0.240646	-1.074680	0.079293
H67	H	0.245481	-0.873792	0.079465
H68	H	0.265710	-0.849089	-0.078858
H69	H	0.370522	-0.925783	0.000296
C70	C	0.403941	-1.550491	-0.343669
C71	C	0.280222	-1.524070	-0.378271
C72	C	0.203835	-1.616723	-0.306679
H73	H	0.438571	-1.628266	-0.366927
H74	H	0.401400	-1.553473	-0.248364
H75	H	0.282767	-1.521101	-0.473555
H76	H	0.245554	-1.446312	-0.355009
H77	H	0.201295	-1.619705	-0.211373
H78	H	0.238477	-1.694492	-0.329942
H79	H	0.119881	-1.598803	-0.330136
C80	C	0.368726	-1.593231	-0.568822
C81	C	0.245105	-1.566598	-0.603668
C82	C	0.168530	-1.659203	-0.532356
H83	H	0.403314	-1.670994	-0.592145
H84	H	0.366032	-1.596337	-0.473477
H85	H	0.247803	-1.563506	-0.698992
H86	H	0.210480	-1.488852	-0.580342
H87	H	0.165836	-1.662309	-0.437010
H88	H	0.203129	-1.736960	-0.555684
H89	H	0.084642	-1.641140	-0.555979
H90	H	0.617158	-1.048187	0.000027
H91	H	0.319535	-1.039742	0.000111
H92	H	0.154632	-1.862707	-0.000025
H93	H	-0.084406	-1.856610	0.000008
H94	H	-0.222124	-1.652844	0.000044
H95	H	-0.262245	-1.210309	0.000088
H96	H	0.215815	-1.222526	0.000041
H97	H	0.568877	-1.349902	-0.636873
