data_functionalizedCrystal
_audit_creation_method	'MofGen! by Chris Wilmer'
_symmetry_space_group_name_H-M	'P1'
_symmetry_Int_Tables_number	1
_symmetry_cell_setting	triclinic
loop_
_symmetry_equiv_pos_as_xyz
  x,y,z
_cell_length_a	16.959455
_cell_length_b	18.050589
_cell_length_c	16.959447
_cell_angle_alpha	90.026643
_cell_angle_beta	90.014322
_cell_angle_gamma	90.025168
loop_
_atom_site_label
_atom_site_type_symbol
_atom_site_fract_x
_atom_site_fract_y
_atom_site_fract_z
Zn1	Zn	1.208339	-0.295705	0.446929
Zn2	Zn	1.208243	-0.419907	0.314759
Zn3	Zn	1.076167	-0.295729	0.314766
Zn4	Zn	1.076113	-0.419851	0.446897
O5	O	1.142216	-0.357798	0.380838
O6	O	1.318937	-0.312194	0.429406
O7	O	1.190705	-0.403467	0.204149
O8	O	1.093763	-0.191801	0.332314
O9	O	1.318866	-0.403445	0.332301
O10	O	1.190869	-0.191784	0.429414
O11	O	1.093670	-0.312234	0.204154
O12	O	0.965549	-0.312180	0.332284
O13	O	1.093671	-0.403350	0.557512
O14	O	0.965510	-0.403373	0.429360
O15	O	1.190817	-0.312141	0.557536
O16	O	1.190653	-0.523824	0.332271
O17	O	1.093578	-0.523783	0.429353
C18	C	0.936849	-0.357774	0.380820
C19	C	0.848993	-0.357781	0.380831
C20	C	0.477513	-0.310275	0.330396
C21	C	0.477521	-0.405382	0.431325
C22	C	0.560067	-0.405371	0.431320
C23	C	0.601340	-0.357813	0.380852
C24	C	0.560067	-0.310265	0.330388
C25	C	0.601346	-0.452924	0.481777
C26	C	0.683897	-0.452916	0.481774
C27	C	0.725171	-0.405353	0.431309
C28	C	0.683893	-0.357802	0.380844
C29	C	0.725166	-0.310243	0.330375
C30	C	0.683890	-0.262689	0.279913
C31	C	0.601342	-0.262702	0.279923
C32	C	0.807720	-0.405340	0.431299
C33	C	0.807720	-0.310233	0.330367
C34	C	1.142120	-0.550750	0.380825
C35	C	1.142152	-0.633296	0.380846
C36	C	1.089414	-0.832751	0.433620
C37	C	1.070151	-0.882194	0.361493
C38	C	1.142229	-0.784426	0.380856
C39	C	1.161531	-0.882065	0.452991
C40	C	1.142303	-0.930411	0.380872
C41	C	1.122929	-0.832782	0.308691
C42	C	1.214342	-0.832648	0.400237
C43	C	1.195106	-0.882069	0.328061
C44	C	1.142185	-0.700328	0.380848
C45	C	1.142347	-1.014508	0.380872
C46	C	1.348384	-0.357823	0.380857
C47	C	1.436240	-0.357834	0.380864
C48	C	1.142249	-0.357737	0.587006
C49	C	1.142263	-0.357710	0.674863
C50	C	1.142333	-0.164092	0.380868
C51	C	1.142383	-0.081547	0.380881
C52	C	1.142228	-0.357806	0.175472
C53	C	1.142368	-0.357623	0.087615
C54	C	1.091778	-0.405121	1.046329
C55	C	1.192936	-0.310143	1.046348
C56	C	1.192915	-0.310159	0.963802
C57	C	1.142326	-0.357657	0.922516
C58	C	1.091757	-0.405139	0.963775
C59	C	1.243489	-0.262683	0.922537
C60	C	1.243470	-0.262698	0.839986
C61	C	1.192876	-0.310192	0.798698
C62	C	1.142305	-0.357676	0.839962
C63	C	1.091715	-0.405174	0.798676
C64	C	1.041139	-0.452654	0.839939
C65	C	1.041162	-0.452634	0.922488
C66	C	1.192852	-0.310212	0.716149
C67	C	1.091694	-0.405193	0.716122
H68	H	0.841323	-0.444060	0.472382
H69	H	1.009203	-0.903974	0.345115
C70	C	1.100814	-0.803660	0.226264
N71	N	1.084153	-0.781723	0.164182
C72	C	0.432118	-0.457695	0.486835
N73	N	0.397917	-0.497098	0.528650
C74	C	0.555941	-0.505237	0.537287
N75	N	0.521738	-0.544640	0.579099
C76	C	1.248577	-0.257894	1.091766
N77	N	1.290483	-0.218533	1.125978
C78	C	1.299096	-0.210461	0.794604
N79	N	1.340991	-0.171112	0.760421
C80	C	0.985530	-0.504854	0.967883
N81	N	0.943627	-0.544185	1.002078
H82	H	0.717497	-0.491637	0.522864
H83	H	0.999952	-0.491330	0.806313
C84	C	1.255485	-0.911146	0.267721
N85	N	1.300959	-0.933049	0.222270
H86	H	1.284681	-0.224017	0.956158
C87	C	1.036141	-0.457341	1.091718
N88	N	0.994234	-0.496673	1.125907
H89	H	1.050490	-0.443865	0.682513
C90	C	0.555932	-0.210399	0.224416
N91	N	0.521725	-0.171007	0.182608
C92	C	1.028988	-0.803488	0.493812
N93	N	0.983472	-0.781444	0.539144
H94	H	1.275277	-0.810871	0.416650
C95	C	1.248483	-0.257988	0.670764
N96	N	1.290386	-0.218648	0.636580
C97	C	1.183548	-0.911311	0.535395
N98	N	1.200125	-0.933335	0.597464
H99	H	0.717505	-0.223970	0.238818
C100	C	0.853114	-0.257913	0.274846
N101	N	0.887304	-0.218507	0.233027
H102	H	0.443903	-0.271555	0.289313
