data_functionalizedCrystal
_audit_creation_method	'MofGen! by Chris Wilmer'
_symmetry_space_group_name_H-M	'P1'
_symmetry_Int_Tables_number	1
_symmetry_cell_setting	triclinic
loop_
_symmetry_equiv_pos_as_xyz
  x,y,z
_cell_length_a	10.654541
_cell_length_b	14.044220
_cell_length_c	9.730217
_cell_angle_alpha	90.006091
_cell_angle_beta	90.002369
_cell_angle_gamma	88.836403
loop_
_atom_site_label
_atom_site_type_symbol
_atom_site_fract_x
_atom_site_fract_y
_atom_site_fract_z
O1	O	1.681230	0.133221	0.114252
O2	O	1.317027	0.145917	0.114264
O3	O	1.493662	0.001549	0.114245
O4	O	1.504595	0.277590	0.114271
O5	O	1.493647	0.001543	-0.114335
O6	O	1.317012	0.145911	-0.114316
O7	O	1.681216	0.133215	-0.114328
Zn8	Zn	1.499112	0.139562	-0.150614
Zn9	Zn	1.499131	0.139570	0.150550
O10	O	1.504581	0.277584	-0.114309
C11	C	1.270128	0.144983	-0.000024
C12	C	1.130404	0.142195	-0.000020
C13	C	1.488869	-0.033800	-0.000046
C14	C	1.474593	-0.139120	-0.000047
C15	C	1.119781	0.314827	0.000014
C16	C	1.048829	0.399829	0.000036
C17	C	0.917547	0.397204	0.000037
C18	C	0.857215	0.309567	0.000012
C19	C	0.928167	0.224565	-0.000011
C20	C	1.059452	0.227199	-0.000008
C21	C	0.938790	0.051935	-0.000054
C22	C	1.070072	0.054558	-0.000046
C23	C	0.878458	-0.035701	-0.000080
C24	C	0.949411	-0.120706	-0.000092
C25	C	1.080701	-0.118077	-0.000092
C26	C	1.141025	-0.030444	-0.000068
C27	C	1.448494	-0.331952	-0.000026
C28	C	1.549742	-0.388921	-0.000026
C29	C	1.535221	-0.496219	-0.000014
C30	C	1.463014	-0.224644	-0.000038
C31	C	1.728114	0.134150	-0.000037
C32	C	1.867838	0.136938	-0.000032
C33	C	1.509374	0.312933	-0.000015
C34	C	1.523649	0.418252	-0.000005
N35	N	1.499108	0.139557	-0.356151
C36	C	1.333792	0.023413	-0.356213
C37	C	1.251147	-0.034661	-0.428184
C38	C	1.251166	-0.034661	-0.572064
C39	C	1.333836	0.023421	-0.643976
C40	C	1.416480	0.081495	-0.572005
C41	C	1.416455	0.081487	-0.428122
C42	C	1.581788	0.197642	-0.571942
C43	C	1.581778	0.197639	-0.428063
C44	C	1.664458	0.255724	-0.643854
C45	C	1.747110	0.313795	-0.571883
C46	C	1.747089	0.313792	-0.427995
C47	C	1.664422	0.255713	-0.356091
N48	N	1.499143	0.139568	0.356087
H49	H	1.226677	0.316973	0.000043
H50	H	1.647330	-0.357109	0.000063
H51	H	1.183837	-0.081949	-0.369618
H52	H	1.350915	-0.363762	-0.000020
H53	H	0.900278	-0.192053	-0.000112
O54	O	1.836221	0.376438	-0.350373
H55	H	1.898671	0.331445	-0.284807
H56	H	1.333777	0.023400	-0.239059
O57	O	1.162051	-0.097311	-0.649704
H58	H	1.104574	-0.137708	-0.575535
O59	O	1.333859	0.023404	-0.799161
H60	H	1.239678	0.046101	-0.837123
O61	O	1.113896	0.494350	0.000067
H62	H	1.217105	0.481900	0.000075
H63	H	1.664461	0.255725	-0.761009
H64	H	1.814407	0.361085	-0.630445
O65	O	1.664397	0.255716	-0.200907
H66	H	1.593021	0.205580	-0.162999
O67	O	0.715618	0.306731	-0.000011
H68	H	0.678701	0.343290	0.093161
H69	H	0.859777	0.466420	0.000046
H70	H	0.771562	-0.037833	-0.000087
H71	H	1.138463	-0.187297	-0.000115
H72	H	1.247921	-0.028295	-0.000051
