data_functionalizedCrystal
_audit_creation_method	'MofGen! by Chris Wilmer'
_symmetry_space_group_name_H-M	'P1'
_symmetry_Int_Tables_number	1
_symmetry_cell_setting	triclinic
loop_
_symmetry_equiv_pos_as_xyz
  x,y,z
_cell_length_a	14.044220
_cell_length_b	14.853567
_cell_length_c	13.930277
_cell_angle_alpha	90.000757
_cell_angle_beta	89.997723
_cell_angle_gamma	91.588096
loop_
_atom_site_label
_atom_site_type_symbol
_atom_site_fract_x
_atom_site_fract_y
_atom_site_fract_z
O1	O	1.257997	-0.217372	-0.079714
O2	O	0.982017	-0.209528	-0.079738
O3	O	1.127379	-0.082805	-0.079728
O4	O	1.112635	-0.344096	-0.079724
O5	O	1.127359	-0.082800	0.079934
O6	O	0.981997	-0.209524	0.079923
O7	O	1.257976	-0.217368	0.079948
Zn8	Zn	1.119983	-0.213445	0.105286
Zn9	Zn	1.120010	-0.213451	-0.105076
O10	O	1.112615	-0.344091	0.079938
C11	C	1.126701	-0.049161	0.000100
C12	C	1.124699	0.051082	0.000091
C13	C	0.946688	-0.206092	0.000089
C14	C	0.841449	-0.195851	0.000079
N15	N	1.119972	-0.213441	0.248852
C16	C	0.648763	-0.177127	0.000098
C17	C	0.591225	-0.249765	0.000103
C18	C	0.484008	-0.239347	0.000114
C19	C	0.755990	-0.187544	0.000088
C20	C	1.293306	-0.220803	0.000118
C21	C	1.398545	-0.231045	0.000122
C22	C	1.113293	-0.377735	0.000108
C23	C	1.115295	-0.477978	0.000110
C24	C	1.029888	0.471127	0.000101
C25	C	1.202581	0.478726	0.000116
C26	C	1.204464	0.384543	0.000111
C27	C	1.119057	0.333648	0.000102
C28	C	1.031768	0.376935	0.000098
C29	C	1.291751	0.341248	0.000124
C30	C	1.293637	0.247060	0.000120
C31	C	1.208229	0.196163	0.000104
C32	C	1.120937	0.239456	0.000099
C33	C	1.035530	0.188561	0.000090
C34	C	0.948237	0.231852	0.000079
C35	C	0.946360	0.326038	0.000083
C36	C	1.210105	0.101977	0.000100
C37	C	1.037410	0.094369	0.000088
N38	N	1.120029	-0.213449	-0.248642
C39	C	1.055641	-0.269540	0.701116
C40	C	1.184405	-0.157357	0.701095
C41	C	1.184394	-0.157353	0.600599
C42	C	1.120006	-0.213445	0.550357
C43	C	1.055630	-0.269540	0.600611
C44	C	1.248775	-0.101266	0.550338
C45	C	1.248767	-0.101260	0.449836
C46	C	1.184374	-0.157348	0.399592
C47	C	1.119995	-0.213445	0.449852
C48	C	1.055608	-0.269536	0.399611
C49	C	0.991223	-0.325629	0.449869
C50	C	0.991237	-0.325627	0.550368
C51	C	1.184360	-0.157349	0.299093
C52	C	1.055596	-0.269536	0.299106
H53	H	0.617501	-0.107120	0.000102
H54	H	0.622488	-0.319778	0.000100
H55	H	0.967860	0.052936	0.000076
O56	O	0.865363	0.182273	0.000029
C57	C	0.791741	0.033796	0.000088
C58	C	0.885662	0.089839	0.000121
H59	H	0.808120	-0.040948	0.000182
H60	H	0.748788	0.050363	-0.066752
H61	H	0.748778	0.050493	0.066884
H62	H	0.928701	0.073173	-0.066630
H63	H	0.928544	0.073264	0.067005
O64	O	0.861653	0.368235	0.000123
C65	C	0.782229	0.509969	0.000079
C66	C	0.878223	0.462294	0.000051
H67	H	0.795592	0.586023	0.000000
H68	H	0.739998	0.489639	0.066910
H69	H	0.740023	0.489530	-0.066727
H70	H	0.920506	0.482708	0.066811
H71	H	0.920382	0.482625	-0.066824
H72	H	1.301202	-0.055602	0.591248
O73	O	0.992970	-0.323924	0.749890
C74	C	0.828209	-0.363437	0.780611
C75	C	0.899081	-0.301776	0.725331
H76	H	0.752285	-0.345565	0.760760
H77	H	0.839189	-0.353795	0.861082
H78	H	0.840697	-0.436651	0.760863
H79	H	0.886636	-0.228538	0.744998
H80	H	0.888084	-0.311495	0.644873
O81	O	0.945178	0.513318	0.000134
C82	C	0.865736	0.655043	0.000063
C83	C	0.961736	0.607378	0.000049
H84	H	0.879090	0.731098	-0.000026
H85	H	0.823503	0.634717	0.066894
H86	H	0.823537	0.634591	-0.066743
H87	H	1.004012	0.627805	0.066810
H88	H	1.003897	0.627705	-0.066826
O89	O	1.378346	0.204868	0.000162
C90	C	1.457783	0.063139	0.000085
C91	C	1.361784	0.110808	0.000066
H92	H	1.444425	-0.012915	-0.000013
H93	H	1.500004	0.083459	0.066922
H94	H	1.499994	0.083595	-0.066714
H95	H	1.319495	0.090377	0.066820
H96	H	1.319635	0.090487	-0.066815
O97	O	1.285514	0.528202	-0.000042
C98	C	1.383592	0.639006	-0.082711
C99	C	1.289643	0.583008	-0.082661
H100	H	1.386952	0.683344	-0.149491
H101	H	1.446340	0.591931	-0.082772
H102	H	1.387006	0.683247	-0.015858
H103	H	1.286135	0.538762	-0.149503
H104	H	1.226938	0.630134	-0.082550
H105	H	1.361284	0.382694	0.000141
O106	O	1.294831	0.059820	-0.000016
C107	C	1.397214	-0.042063	-0.082755
C108	C	1.301216	0.005606	-0.082728
H109	H	1.402417	-0.085891	-0.149630
H110	H	1.402413	-0.086033	-0.015985
H111	H	1.457919	0.010506	-0.082695
H112	H	1.240456	-0.046901	-0.082822
H113	H	1.296101	0.049593	-0.149493
H114	H	1.301191	-0.055586	0.408921
O115	O	1.246931	-0.102785	0.250422
C116	C	1.374698	0.008437	0.261011
C117	C	1.303869	-0.053302	0.316250
H118	H	1.420765	0.048446	0.314210
H119	H	1.333762	0.056857	0.213996
H120	H	1.422048	-0.034343	0.213923
H121	H	1.256501	-0.010595	0.363391
H122	H	1.344864	-0.101726	0.363205
H123	H	1.003160	-0.315209	0.258205
O124	O	1.247030	-0.102838	0.749747
C125	C	1.374681	0.008502	0.739127
C126	C	1.303829	-0.053223	0.683905
H127	H	1.420608	0.048645	0.685918
H128	H	1.422164	-0.034207	0.786148
H129	H	1.333669	0.056811	0.786207
H130	H	1.344763	-0.101543	0.636772
H131	H	1.256347	-0.010458	0.636944
O132	O	0.928716	-0.380032	0.400911
C133	C	0.871693	-0.429788	0.246084
C134	C	0.942514	-0.368118	0.301413
H135	H	0.882838	-0.420191	0.165630
H136	H	0.795732	-0.411888	0.265772
H137	H	0.884124	-0.502996	0.265899
H138	H	0.930170	-0.294891	0.281627
H139	H	1.018450	-0.386095	0.281720
H140	H	0.938819	-0.371297	0.591294
