data_functionalizedCrystal
_audit_creation_method	'MofGen! by Chris Wilmer'
_symmetry_space_group_name_H-M	'P1'
_symmetry_Int_Tables_number	1
_symmetry_cell_setting	triclinic
loop_
_symmetry_equiv_pos_as_xyz
  x,y,z
_cell_length_a	17.699077
_cell_length_b	13.262508
_cell_length_c	16.176319
_cell_angle_alpha	105.911538
_cell_angle_beta	89.993140
_cell_angle_gamma	83.880229
loop_
_atom_site_label
_atom_site_type_symbol
_atom_site_fract_x
_atom_site_fract_y
_atom_site_fract_z
O1	O	1.004673	0.132697	-0.038897
O2	O	0.784371	0.149971	-0.035017
O3	O	0.900067	-0.011467	-0.071311
O4	O	0.888976	0.294135	-0.002603
O5	O	0.900051	-0.011477	0.066180
O6	O	0.784354	0.149961	0.102474
O7	O	1.004657	0.132686	0.098594
Cu8	Cu	0.894504	0.141323	0.113088
Cu9	Cu	0.894523	0.141335	-0.049511
O10	O	0.888960	0.294124	0.134888
C11	C	0.756163	0.149348	0.033589
C12	C	0.672136	0.147494	0.033171
C13	C	0.632656	0.146615	0.107922
C14	C	0.553706	0.144857	0.107527
C15	C	0.514236	0.143985	0.032383
C16	C	0.553722	0.144861	-0.042374
C17	C	0.632672	0.146612	-0.041981
C18	C	0.235327	0.137798	-0.043964
C19	C	0.156372	0.136050	-0.044351
C20	C	0.156361	0.136043	0.105544
C21	C	0.235311	0.137794	0.105938
C22	C	0.274790	0.138664	0.031180
C23	C	0.360398	0.140569	0.031608
C24	C	0.428630	0.142087	0.031956
C25	C	0.899439	-0.050573	-0.011358
C26	C	0.897581	-0.167082	-0.037558
C27	C	0.892307	-0.495536	0.188384
C28	C	0.894046	-0.386069	0.213001
C29	C	0.894930	-0.331317	0.150364
C30	C	0.894075	-0.386043	0.063105
C31	C	0.892329	-0.495519	0.038486
C32	C	0.894953	-0.331300	0.000465
C33	C	0.894097	-0.386025	-0.086794
C34	C	0.892352	-0.495491	-0.111409
C35	C	0.891468	-0.550243	-0.048771
C36	C	0.896698	-0.221823	0.025084
C37	C	0.896720	-0.221806	-0.124814
C38	C	0.894981	-0.331273	-0.149431
C39	C	1.032864	0.133309	0.029986
C40	C	1.116891	0.135163	0.030399
C41	C	0.889588	0.333231	0.074933
C42	C	0.891446	0.449739	0.101128
N43	N	0.894496	0.141314	0.227451
N44	N	0.894537	0.141336	-0.163876
C45	C	0.945742	0.069858	0.254651
C46	C	0.945746	0.069857	0.341198
C47	C	0.894507	0.141317	0.400545
C48	C	0.843255	0.212776	0.373340
C49	C	0.843248	0.212771	0.286793
C50	C	0.843281	0.212796	0.722372
C51	C	0.843294	0.212797	0.808924
C52	C	0.945779	0.069881	0.776777
C53	C	0.945772	0.069876	0.690231
C54	C	0.894518	0.141331	0.663032
C55	C	0.894514	0.141330	0.569188
C56	C	0.894515	0.141324	0.494389
H57	H	0.521566	0.144123	0.168393
O58	O	0.995504	0.000308	0.367493
C59	C	0.982880	-0.103574	0.323015
H60	H	0.953697	-0.103400	0.260227
H61	H	1.039614	-0.155348	0.308397
H62	H	0.945122	-0.135978	0.364454
O63	O	0.891348	-0.548822	0.249145
C64	C	0.824858	-0.600070	0.242108
H65	H	0.802776	-0.612429	0.174253
H66	H	0.838353	-0.679772	0.255897
H67	H	0.779682	-0.549453	0.290483
H68	H	0.987498	0.011690	0.641912
O69	O	0.897399	-0.168596	0.109835
C70	C	0.832947	-0.093202	0.131261
H71	H	0.786667	-0.117760	0.083203
H72	H	0.810980	-0.087924	0.198735
H73	H	0.849075	-0.012959	0.129171
O74	O	0.995528	0.000313	0.803075
C75	C	0.982890	-0.103563	0.758596
H76	H	0.953715	-0.103380	0.695804
H77	H	1.039618	-0.155353	0.743983
H78	H	0.945119	-0.135953	0.800031
H79	H	0.896345	-0.242184	0.170412
O80	O	0.273550	0.138689	-0.116644
C81	C	0.221782	0.137519	-0.183055
H82	H	0.162473	0.169493	-0.153891
H83	H	0.239950	0.188957	-0.223915
H84	H	0.221063	0.053165	-0.225060
O85	O	0.894004	-0.384470	-0.234173
C86	C	0.827532	-0.435756	-0.250166
H87	H	0.782296	-0.394331	-0.198323
H88	H	0.805540	-0.432963	-0.315826
H89	H	0.841008	-0.521444	-0.249282
H90	H	0.890056	-0.639381	-0.068810
H91	H	0.664786	0.147334	0.169115
H92	H	0.894751	-0.341521	0.284047
O93	O	0.515263	0.144057	-0.115287
C94	C	0.437115	0.142299	-0.099613
H95	H	0.423295	0.175272	-0.027787
H96	H	0.402468	0.192573	-0.136177
H97	H	0.422391	0.057635	-0.122199
O98	O	0.670903	0.147517	-0.114656
C99	C	0.619141	0.146349	-0.181071
H100	H	0.559829	0.178313	-0.151912
H101	H	0.637309	0.197796	-0.221923
H102	H	0.618429	0.061997	-0.223083
O103	O	0.891384	-0.548667	-0.196155
C104	C	0.824916	-0.599958	-0.212181
H105	H	0.779671	-0.558556	-0.160342
H106	H	0.802934	-0.597137	-0.277838
H107	H	0.838393	-0.685654	-0.211321
O108	O	0.793408	0.282107	0.866515
C109	C	0.718436	0.265181	0.841570
H110	H	0.717811	0.181149	0.798892
H111	H	0.680500	0.277313	0.901225
H112	H	0.696373	0.323393	0.804426
H113	H	0.897435	-0.177226	-0.175819
H114	H	0.987470	0.011671	0.206336
O115	O	0.793535	0.282119	0.695811
C116	C	0.804526	0.266820	0.606703
H117	H	0.832541	0.183320	0.576103
H118	H	0.747246	0.278618	0.576476
H119	H	0.842676	0.326150	0.595473
H120	H	0.801532	0.270957	0.421664
H121	H	0.267443	0.138509	0.167129
H122	H	0.124208	0.135329	0.166415
H123	H	0.124238	0.135339	-0.105547
H124	H	0.801518	0.270957	0.264649
