data_functionalizedCrystal
_audit_creation_method	'MofGen! by Chris Wilmer'
_symmetry_space_group_name_H-M	'P1'
_symmetry_Int_Tables_number	1
_symmetry_cell_setting	triclinic
loop_
_symmetry_equiv_pos_as_xyz
  x,y,z
_cell_length_a	23.532407
_cell_length_b	14.185569
_cell_length_c	23.532395
_cell_angle_alpha	76.928210
_cell_angle_beta	82.846228
_cell_angle_gamma	103.075328
loop_
_atom_site_label
_atom_site_type_symbol
_atom_site_fract_x
_atom_site_fract_y
_atom_site_fract_z
O1	O	0.742282	-0.083300	0.082102
O2	O	1.242282	0.416700	0.582102
O3	O	0.576414	-0.083330	0.092110
O4	O	1.076414	0.416670	0.592110
O5	O	0.664355	-0.083303	0.004172
O6	O	1.164355	0.416697	0.504172
O7	O	0.654341	-0.083328	0.170041
O8	O	1.154341	0.416672	0.670041
O9	O	0.690334	0.083540	-0.021803
O10	O	1.190334	0.583540	0.478197
O11	O	0.602392	0.083512	0.066136
O12	O	1.102392	0.583512	0.566136
O13	O	0.768261	0.083542	0.056128
O14	O	1.268261	0.583542	0.556128
Cu15	Cu	0.687699	0.098761	0.058760
Cu16	Cu	1.187699	0.598761	0.558760
Cu17	Cu	0.656976	-0.098549	0.089478
Cu18	Cu	1.156976	0.401451	0.589478
O19	O	0.680320	0.083515	0.144066
O20	O	1.180320	0.583515	0.644066
C21	C	0.568187	0.000087	0.078869
C22	C	1.068187	0.500087	0.578869
C23	C	0.504968	0.000076	0.078105
C24	C	1.004968	0.500076	0.578105
N25	N	0.709312	0.237539	0.037154
N26	N	1.209312	0.737539	0.537154
N27	N	0.635368	-0.237327	0.111080
N28	N	1.135368	0.262673	0.611080
C29	C	0.105869	0.000115	0.125332
C30	C	0.605869	0.500115	0.625332
C31	C	0.046469	0.000121	0.124620
C32	C	0.546469	0.500121	0.624620
O33	O	0.009728	0.000151	0.168401
O34	O	0.509728	0.500151	0.668401
N35	N	0.023846	0.000127	0.072342
N36	N	0.523846	0.500127	0.572342
C37	C	0.060628	0.000137	0.020772
C38	C	0.560628	0.500137	0.520772
O39	O	0.035931	0.000144	-0.023759
O40	O	0.535931	0.500144	0.476241
C41	C	0.120027	0.000138	0.021484
C42	C	0.620027	0.500138	0.521484
C43	C	0.142645	0.000122	0.073767
C44	C	0.642645	0.500122	0.573767
C45	C	0.128487	0.000099	0.177611
C46	C	0.628487	0.500099	0.677611
C47	C	0.187882	0.000091	0.178323
C48	C	0.687882	0.500091	0.678323
C49	C	0.224658	0.000098	0.126757
C50	C	0.724658	0.500098	0.626757
C51	C	0.202040	0.000114	0.074479
C52	C	0.702040	0.500114	0.574479
C53	C	0.156808	0.000155	-0.030086
C54	C	0.656808	0.500155	0.469914
C55	C	0.216211	0.000157	-0.029370
C56	C	0.716211	0.500157	0.470630
C57	C	0.238829	0.000141	0.022912
C58	C	0.738829	0.500141	0.522912
C59	C	0.298211	0.000112	0.023626
C60	C	0.798211	0.500112	0.523626
N61	N	0.320834	0.000106	0.075904
N62	N	0.820834	0.500106	0.575904
C63	C	0.284058	0.000099	0.127469
C64	C	0.784058	0.500099	0.627469
C65	C	-0.064115	0.000137	0.019281
C66	C	0.435885	0.500137	0.519281
C67	C	-0.123514	0.000129	0.018570
C68	C	0.376486	0.500129	0.518570
C69	C	-0.137668	0.000114	0.122417
C70	C	0.362332	0.500114	0.622417
C71	C	-0.078269	0.000115	0.123129
C72	C	0.421731	0.500115	0.623129
C73	C	-0.041492	0.000131	0.071559
C74	C	0.458508	0.500131	0.571559
C75	C	0.408791	0.000081	0.128962
C76	C	0.908791	0.500081	0.628962
C77	C	0.468192	0.000069	0.129670
C78	C	0.968192	0.500069	0.629670
C79	C	0.482341	0.000089	0.025822
C80	C	0.982341	0.500089	0.525822
C81	C	0.422946	0.000096	0.025114
C82	C	0.922946	0.500096	0.525114
C83	C	0.386172	0.000095	0.076688
C84	C	0.886172	0.500095	0.576688
O85	O	0.334988	0.000087	-0.020133
O86	O	0.834988	0.500087	0.479867
O87	O	0.308765	0.000106	0.171992
O88	O	0.808765	0.500106	0.671992
C89	C	0.776488	0.000122	0.069370
C90	C	1.276488	0.500122	0.569370
C91	C	0.839706	0.000127	0.070135
C92	C	1.339706	0.500127	0.570135
C93	C	0.677091	0.000119	-0.030031
C94	C	1.177091	0.500119	0.469969
C95	C	0.676328	0.000121	-0.093249
C96	C	1.176328	0.500121	0.406751
C97	C	0.571869	0.605146	0.174533
C98	C	1.071869	1.105146	0.674533
C99	C	0.588244	0.710173	0.158171
C100	C	1.088244	1.210173	0.658171
C101	C	0.666132	0.710158	0.080330
C102	C	1.166132	1.210158	0.580330
C103	C	0.649761	0.605129	0.096684
C104	C	1.149761	1.105129	0.596684
C105	C	0.602630	0.552632	0.143787
C106	C	1.102630	1.052632	0.643787
C107	C	0.680522	0.552615	0.065938
C108	C	1.180522	1.052615	0.565938
C109	C	0.664155	0.447595	0.082293
C110	C	1.164155	0.947595	0.582293
C111	C	0.617026	0.395090	0.129394
C112	C	1.117026	0.895090	0.629394
C113	C	0.586262	0.447612	0.160142
C114	C	1.086262	0.947612	0.660142
C115	C	0.727656	0.605114	0.018838
C116	C	1.227656	1.105114	0.518838
C117	C	0.758417	0.552600	-0.011908
C118	C	1.258417	1.052600	0.488092
C119	C	0.742047	0.447578	0.004444
C120	C	1.242047	0.947578	0.504444
C121	C	0.694918	0.395073	0.051545
C122	C	1.194918	0.895073	0.551545
C123	C	0.772811	0.395056	-0.026303
C124	C	1.272811	0.895056	0.473697
C125	C	0.756443	0.290037	-0.009948
C126	C	1.256443	0.790037	0.490052
C127	C	0.678551	0.290054	0.067900
C128	C	1.178551	0.790054	0.567900
C129	C	0.667584	0.000091	0.178270
C130	C	1.167584	0.500091	0.678270
C131	C	0.668345	0.000082	0.241489
C132	C	1.168345	0.500082	0.741489
C133	C	0.657451	-0.090858	0.528895
C134	C	1.157451	0.409142	1.028895
C135	C	0.656738	-0.090860	0.469496
C136	C	1.156738	0.409140	0.969496
O137	O	0.644306	-0.168205	0.450816
O138	O	1.144306	0.331795	0.950816
N139	N	0.670546	0.000086	0.425630
N140	N	1.170546	0.500086	0.925630
C141	C	0.685062	0.091041	0.441167
C142	C	1.185062	0.591041	0.941167
O143	O	0.696741	0.168397	0.398401
O144	O	1.196741	0.668397	0.898401
C145	C	0.685772	0.091042	0.500566
C146	C	1.185772	0.591042	1.000566
C147	C	0.671969	0.000090	0.544429
C148	C	1.171969	0.500090	1.044429
C149	C	0.643649	-0.181803	0.572757
C150	C	1.143649	0.318197	1.072757
C151	C	0.644363	-0.181800	0.632152
C152	C	1.144363	0.318200	1.132152
C153	C	0.658881	-0.090852	0.647686
C154	C	1.158881	0.409148	1.147686
C155	C	0.672683	0.000093	0.603824
C156	C	1.172683	0.500093	1.103824
C157	C	0.700284	0.181996	0.516103
C158	C	1.200284	0.681996	1.016103
C159	C	0.700992	0.181990	0.575507
C160	C	1.200992	0.681990	1.075507
C161	C	0.687189	0.091037	0.619370
C162	C	1.187189	0.591037	1.119370
C163	C	0.687915	0.091044	0.678753
C164	C	1.187915	0.591044	1.178753
N165	N	0.674107	0.000097	0.722619
N166	N	1.174107	0.500097	1.222619
C167	C	0.659590	-0.090850	0.707085
C168	C	1.159590	0.409150	1.207085
C169	C	0.683571	0.091031	0.316426
C170	C	1.183571	0.591031	0.816426
C171	C	0.682866	0.091030	0.257027
C172	C	1.182866	0.591030	0.757027
C173	C	0.654540	-0.090871	0.285360
C174	C	1.154540	0.409129	0.785360
C175	C	0.655249	-0.090870	0.344759
C176	C	1.155249	0.409130	0.844759
C177	C	0.669763	0.000084	0.360291
C178	C	1.169763	0.500084	0.860291
C179	C	0.661092	-0.090837	0.831818
C180	C	1.161092	0.409163	1.331818
C181	C	0.661811	-0.090826	0.891217
C182	C	1.161811	0.409174	1.391217
C183	C	0.690133	0.091074	0.862880
C184	C	1.190133	0.591074	1.362880
C185	C	0.689418	0.091064	0.803485
C186	C	1.189418	0.591064	1.303485
C187	C	0.674894	0.000100	0.787958
C188	C	1.174894	0.500100	1.287958
O189	O	0.700339	0.168348	0.697477
O190	O	1.200339	0.668348	1.197477
O191	O	0.647906	-0.168194	0.749857
O192	O	1.147906	0.331806	1.249857
H193	H	0.486603	0.000055	0.172247
H194	H	0.986603	0.500055	0.672247
H195	H	0.098550	0.000097	0.219603
H196	H	0.598550	0.500097	0.719603
H197	H	0.533486	0.562401	0.212885
H198	H	1.033486	1.062401	0.712885
C199	C	0.588907	-0.245869	0.940296
C200	C	1.088907	0.254131	1.440296
C201	C	0.646621	-0.190822	0.939422
C202	C	1.146621	0.309178	1.439422
H203	H	0.579525	-0.307601	0.970053
H204	H	1.079525	0.192399	1.470053
H205	H	0.586416	-0.258852	0.902692
H206	H	1.086416	0.241148	1.402692
H207	H	0.561637	-0.208489	0.948745
H208	H	1.061637	0.291511	1.448745
H209	H	0.673891	-0.228200	0.930968
H210	H	1.173891	0.271800	1.430968
H211	H	0.649116	-0.177842	0.977034
H212	H	1.149116	0.322158	1.477034
H213	H	0.404527	0.000094	-0.017456
H214	H	0.904527	0.500094	0.482544
H215	H	0.644009	-0.164931	0.380470
H216	H	1.144009	0.335069	0.880470
C217	C	-0.098239	0.000102	0.225704
C218	C	0.401761	0.500102	0.725704
C219	C	-0.053408	0.000109	0.180597
C220	C	0.446592	0.500109	0.680597
H221	H	-0.082891	0.000106	0.261182
H222	H	0.417109	0.500106	0.761182
H223	H	-0.130171	-0.058078	0.232322
H224	H	0.369829	0.441922	0.732322
H225	H	-0.112052	0.058286	0.214200
H226	H	0.387948	0.558286	0.714200
H227	H	-0.039599	-0.058079	0.192099
H228	H	0.460401	0.441921	0.692099
H229	H	-0.021466	0.058295	0.173979
H230	H	0.478534	0.558295	0.673979
H231	H	0.711525	0.256059	0.480398
H232	H	1.211525	0.756059	0.980398
H233	H	0.633121	-0.255862	0.667862
H234	H	1.133121	0.244138	1.167862
C235	C	-0.143084	-0.085628	-0.056813
C236	C	0.356916	0.414372	0.443187
C237	C	-0.148371	0.000135	-0.038900
C238	C	0.351629	0.500135	0.461100
H239	H	-0.158425	-0.085615	-0.092296
H240	H	0.341575	0.414385	0.407704
H241	H	-0.164796	-0.143800	-0.026542
H242	H	0.335204	0.356200	0.473458
H243	H	-0.102443	-0.085620	-0.063760
H244	H	0.397557	0.414380	0.436240
H245	H	-0.189013	0.000123	-0.031949
H246	H	0.310987	0.500123	0.468051
H247	H	-0.126660	0.058322	-0.069179
H248	H	0.373340	0.558322	0.430821
H249	H	0.704509	0.752914	0.041980
H250	H	1.204509	1.252914	0.541980
H251	H	0.631824	-0.255867	0.560118
H252	H	1.131824	0.244133	1.060118
C253	C	0.555043	0.329492	0.256105
C254	C	1.055043	0.829492	0.756105
C255	C	0.534451	0.389890	0.211914
C256	C	1.034451	0.889890	0.711914
H257	H	0.523057	0.293853	0.288062
H258	H	1.023057	0.793853	0.788062
H259	H	0.585004	0.370455	0.270096
H260	H	1.085004	0.870455	0.770096
H261	H	0.571026	0.283196	0.240126
H262	H	1.071026	0.783196	0.740126
H263	H	0.518472	0.436192	0.227892
H264	H	1.018472	0.936192	0.727892
H265	H	0.504479	0.348924	0.197921
H266	H	1.004479	0.848924	0.697921
H267	H	-0.167622	0.000113	0.164404
H268	H	0.332378	0.500113	0.664404
H269	H	0.740983	0.690628	0.005526
H270	H	1.240983	1.190628	0.505526
C271	C	0.509595	0.699636	0.236757
C272	C	1.009595	1.199636	0.736757
C273	C	0.554421	0.767898	0.191965
C274	C	1.054421	1.267898	0.691965
H275	H	0.488713	0.735276	0.257615
H276	H	0.988713	1.235276	0.757615
H277	H	0.526798	0.658676	0.263506
H278	H	1.026798	1.158676	0.763506
H279	H	0.482869	0.658674	0.219525
H280	H	0.982869	1.158674	0.719525
H281	H	0.581150	0.808856	0.209197
H282	H	1.081150	1.308856	0.709197
H283	H	0.537218	0.808876	0.165212
H284	H	1.037218	1.308876	0.665212
H285	H	0.695392	0.165101	0.329066
H286	H	1.195392	0.665101	0.829066
C287	C	0.347152	0.085844	0.175075
C288	C	0.847152	0.585844	0.675075
C289	C	0.368376	0.000074	0.185654
C290	C	0.868376	0.500074	0.685654
H291	H	0.322203	0.085835	0.210076
H292	H	0.822203	0.585835	0.710076
H293	H	0.325173	0.085847	0.143848
H294	H	0.825173	0.585847	0.643848
H295	H	0.379686	0.144018	0.164136
H296	H	0.879686	0.644018	0.664136
H297	H	0.335841	-0.058100	0.196589
H298	H	0.835841	0.441900	0.696589
H299	H	0.390354	0.000061	0.216891
H300	H	0.890354	0.500061	0.716891
C301	C	0.233202	-0.085596	-0.104315
C302	C	0.733202	0.414404	0.395685
C303	C	0.256636	0.000165	-0.086057
C304	C	0.756636	0.500165	0.413943
H305	H	0.258160	-0.085595	-0.139308
H306	H	0.758160	0.414405	0.360692
H307	H	0.194595	-0.085581	-0.112220
H308	H	0.694595	0.414419	0.387780
H309	H	0.230967	-0.143776	-0.073802
H310	H	0.730967	0.356224	0.426198
H311	H	0.258867	0.058345	-0.116569
H312	H	0.758867	0.558345	0.383431
H313	H	0.295254	0.000158	-0.078155
H314	H	0.795254	0.500158	0.421845
C315	C	0.594886	-0.196389	0.788143
C316	C	1.094886	0.303611	1.288143
C317	C	0.645128	-0.190820	0.814751
C318	C	1.145128	0.309180	1.314751
H319	H	0.585031	-0.258115	0.777608
H320	H	1.085031	0.241885	1.277608
H321	H	0.603008	-0.142235	0.753521
H322	H	1.103008	0.357765	1.253521
H323	H	0.562542	-0.192611	0.815262
H324	H	1.062542	0.307389	1.315262
H325	H	0.677474	-0.194591	0.787630
H326	H	1.177474	0.305409	1.287630
H327	H	0.637009	-0.244990	0.849378
H328	H	1.137009	0.255010	1.349378
C329	C	-0.002467	-0.085632	-0.026816
C330	C	0.497533	0.414368	0.473184
C331	C	-0.023693	0.000135	-0.037407
C332	C	0.476307	0.500135	0.462593
H333	H	0.022488	-0.085628	-0.061812
H334	H	0.522488	0.414372	0.438188
H335	H	-0.034996	-0.143802	-0.015876
H336	H	0.465004	0.356198	0.484124
H337	H	0.019510	-0.085623	0.004418
H338	H	0.519510	0.414377	0.504418
H339	H	-0.045674	0.000122	-0.068638
H340	H	0.454326	0.500122	0.431362
H341	H	0.008841	0.058319	-0.048355
H342	H	0.508841	0.558319	0.451645
C343	C	0.789618	0.670705	-0.107872
C344	C	1.289618	1.170705	0.392128
C345	C	0.810219	0.610314	-0.063685
C346	C	1.310219	1.110314	0.436315
H347	H	0.821598	0.706329	-0.139839
H348	H	1.321598	1.206329	0.360161
H349	H	0.773646	0.717005	-0.091897
H350	H	1.273646	1.217005	0.408103
H351	H	0.759645	0.629731	-0.121853
H352	H	1.259645	1.129731	0.378147
H353	H	0.840190	0.651289	-0.049701
H354	H	1.340190	1.151289	0.450299
H355	H	0.826200	0.564009	-0.079662
H356	H	1.326200	1.064009	0.420338
C357	C	0.581210	-0.245927	0.297890
C358	C	1.081210	0.254073	0.797890
C359	C	0.638578	-0.190848	0.268281
C360	C	1.138578	0.309152	0.768281
H361	H	0.571359	-0.307647	0.287347
H362	H	1.071359	0.192353	0.787347
H363	H	0.553703	-0.208561	0.286862
H364	H	1.053703	0.291439	0.786862
H365	H	0.579664	-0.258941	0.339542
H366	H	1.079664	0.241059	0.839542
H367	H	0.640122	-0.177827	0.226629
H368	H	1.140122	0.322173	0.726629
H369	H	0.666091	-0.228222	0.279306
H370	H	1.166091	0.271778	0.779306
H371	H	0.138404	0.000169	-0.072660
H372	H	0.638404	0.500169	0.427340
H373	H	0.512294	0.000091	-0.016161
H374	H	1.012294	0.500091	0.483839
H375	H	0.640168	0.247308	0.106252
H376	H	1.140168	0.747308	0.606252
H377	H	0.811189	0.437814	-0.064651
H378	H	1.311189	0.937814	0.435349
C379	C	0.835074	0.300561	-0.088546
C380	C	1.335074	0.800561	0.411454
C381	C	0.790252	0.232305	-0.043747
C382	C	1.290252	0.732305	0.456253
H383	H	0.855944	0.264917	-0.109412
H384	H	1.355944	0.764917	0.390588
H385	H	0.861806	0.341513	-0.071322
H386	H	1.361806	0.841513	0.428678
H387	H	0.817865	0.341531	-0.115291
H388	H	1.317865	0.841531	0.384709
H389	H	0.807461	0.191339	-0.016999
H390	H	1.307461	0.691339	0.483001
H391	H	0.763515	0.191335	-0.060970
H392	H	1.263515	0.691335	0.439030
C393	C	0.665504	0.246078	0.863714
C394	C	1.165504	0.746078	1.363714
C395	C	0.706076	0.191037	0.879969
C396	C	1.206076	0.691037	1.379969
H397	H	0.675343	0.307792	0.874265
H398	H	1.175343	0.807792	1.374265
H399	H	0.626594	0.208680	0.883791
H400	H	1.126594	0.708680	1.383791
H401	H	0.667068	0.259104	0.822059
H402	H	1.167068	0.759104	1.322059
H403	H	0.704509	0.178005	0.921625
H404	H	1.204509	0.678005	1.421625
H405	H	0.744996	0.228443	0.859893
H406	H	1.244996	0.728443	1.359893
H407	H	0.603702	0.309576	0.142712
H408	H	1.103702	0.809576	0.642712
H409	H	0.206292	0.000078	0.220897
H410	H	0.706292	0.500078	0.720897
C411	C	0.710935	0.270829	0.235003
C412	C	1.210935	0.770829	0.735003
C413	C	0.698044	0.191008	0.208816
C414	C	1.198044	0.691008	0.708816
H415	H	0.720299	0.332552	0.205240
H416	H	1.220299	0.832552	0.705240
H417	H	0.743838	0.267048	0.254228
H418	H	1.243838	0.767048	0.754228
H419	H	0.677404	0.267027	0.263293
H420	H	1.177404	0.767027	0.763293
H421	H	0.731576	0.194805	0.180529
H422	H	1.231576	0.694805	0.680529
H423	H	0.665137	0.194790	0.189581
H424	H	1.165137	0.694790	0.689581
H425	H	0.712802	0.256057	0.588150
H426	H	1.212802	0.756057	1.088150
C427	C	0.656096	0.196582	0.726917
C428	C	1.156096	0.696582	1.226917
C429	C	0.704603	0.191032	0.755261
C430	C	1.204603	0.691032	1.255261
H431	H	0.665472	0.258296	0.697144
H432	H	1.165472	0.758296	1.197144
H433	H	0.622578	0.192815	0.755204
H434	H	1.122578	0.692815	1.255204
H435	H	0.647347	0.142407	0.709170
H436	H	1.147347	0.642407	1.209170
H437	H	0.713350	0.245203	0.773011
H438	H	1.213350	0.745203	1.273011
H439	H	0.738131	0.194809	0.726969
H440	H	1.238131	0.694809	1.226969
