data_functionalizedCrystal
_audit_creation_method	'MofGen! by Chris Wilmer'
_symmetry_space_group_name_H-M	'P1'
_symmetry_Int_Tables_number	1
_symmetry_cell_setting	triclinic
loop_
_symmetry_equiv_pos_as_xyz
  x,y,z
_cell_length_a	19.188930
_cell_length_b	19.288865
_cell_length_c	18.366186
_cell_angle_alpha	90.011479
_cell_angle_beta	90.022928
_cell_angle_gamma	83.140512
loop_
_atom_site_label
_atom_site_type_symbol
_atom_site_fract_x
_atom_site_fract_y
_atom_site_fract_z
O1	O	-0.926143	-0.086718	-0.060792
O2	O	-0.592809	0.246616	0.272541
O3	O	-0.259476	0.579949	0.605875
O4	O	-0.722831	-0.098391	-0.060743
O5	O	-0.389497	0.234942	0.272590
O6	O	-0.056164	0.568275	0.605923
O7	O	-0.830361	0.008575	-0.060755
O8	O	-0.497028	0.341909	0.272579
O9	O	-0.163695	0.675242	0.605912
O10	O	-0.818612	-0.193684	-0.060781
O11	O	-0.485279	0.139649	0.272553
O12	O	-0.151945	0.472982	0.605886
O13	O	-0.830343	0.008581	0.060345
O14	O	-0.497010	0.341914	0.393678
O15	O	-0.163677	0.675247	0.727011
O16	O	-0.722812	-0.098386	0.060356
O17	O	-0.389479	0.234947	0.393690
O18	O	-0.056146	0.568281	0.727023
O19	O	-0.926125	-0.086713	0.060307
O20	O	-0.592791	0.246621	0.393641
O21	O	-0.259458	0.579954	0.726974
Zn22	Zn	-0.824466	-0.092548	0.079559
Zn23	Zn	-0.491132	0.240785	0.412892
Zn24	Zn	-0.157799	0.574118	0.746226
Zn25	Zn	-0.824490	-0.092555	-0.079995
Zn26	Zn	-0.491156	0.240778	0.253339
Zn27	Zn	-0.157823	0.574111	0.586672
O28	O	-0.818594	-0.193679	0.060319
O29	O	-0.485260	0.139654	0.393652
O30	O	-0.151927	0.472987	0.726985
C31	C	-0.696811	-0.098011	-0.000187
C32	C	-0.363477	0.235323	0.333146
C33	C	-0.030144	0.568656	0.666480
C34	C	-0.619306	-0.096876	-0.000168
C35	C	-0.285973	0.236457	0.333166
C36	C	0.047361	0.569791	0.666499
C37	C	-0.829974	0.034454	-0.000203
C38	C	-0.496641	0.367788	0.333131
C39	C	-0.163308	0.701121	0.666464
C40	C	-0.828839	0.111558	-0.000196
C41	C	-0.495506	0.444891	0.333137
C42	C	-0.162173	0.778225	0.666471
C43	C	-0.952145	-0.087093	-0.000250
C44	C	-0.618811	0.246240	0.333083
C45	C	-0.285478	0.579573	0.666416
C46	C	-1.029649	-0.088228	-0.000274
C47	C	-0.696316	0.245105	0.333059
C48	C	-0.362982	0.578439	0.666392
C49	C	-0.574377	-0.159640	-0.000187
C50	C	-0.241044	0.173693	0.333146
C51	C	0.092289	0.507026	0.666479
C52	C	-0.501554	-0.158574	-0.000195
C53	C	-0.168220	0.174759	0.333138
C54	C	0.165113	0.508092	0.666471
C55	C	-0.473662	-0.094740	-0.000198
C56	C	-0.140329	0.238593	0.333135
C57	C	0.193005	0.571927	0.666469
C58	C	-0.518600	-0.031967	-0.000175
C59	C	-0.185267	0.301366	0.333159
C60	C	0.148066	0.634699	0.666492
C61	C	-0.591423	-0.033035	-0.000159
C62	C	-0.258089	0.300298	0.333174
C63	C	0.075244	0.633631	0.666507
N64	N	-0.365692	-0.045949	-0.041437
N65	N	-0.032358	0.287385	0.291897
N66	N	0.300975	0.620718	0.625230
N67	N	-0.296513	-0.044938	-0.041453
N68	N	0.036820	0.288395	0.291881
N69	N	0.370154	0.621728	0.625214
C70	C	-0.254254	-0.091519	-0.000242
C71	C	0.079080	0.241815	0.333091
C72	C	0.412413	0.575148	0.666424
N73	N	-0.283784	-0.139158	0.040975
N74	N	0.049549	0.194175	0.374309
N75	N	0.382882	0.527509	0.707642
N76	N	-0.352969	-0.140170	0.040988
N77	N	-0.019636	0.193163	0.374321
N78	N	0.313698	0.526496	0.707655
C79	C	-0.394700	-0.093575	-0.000214
C80	C	-0.061366	0.239758	0.333119
C81	C	0.271967	0.573092	0.666453
C82	C	-0.130361	-0.153132	-0.000269
C83	C	0.202973	0.180202	0.333064
C84	C	0.536306	0.513535	0.666397
C85	C	-0.057536	-0.152063	-0.000273
C86	C	0.275798	0.181271	0.333061
C87	C	0.609131	0.514604	0.666394
C88	C	-0.074584	-0.025454	-0.000259
C89	C	0.258749	0.307879	0.333074
C90	C	0.592082	0.641213	0.666407
C91	C	-0.147407	-0.026525	-0.000249
C92	C	0.185926	0.306809	0.333085
C93	C	0.519259	0.640142	0.666418
C94	C	-0.175291	-0.090365	-0.000257
C95	C	0.158043	0.242968	0.333076
C96	C	0.491376	0.576301	0.666410
C97	C	-0.818981	-0.219558	-0.000235
C98	C	-0.485648	0.113775	0.333099
C99	C	-0.152314	0.447108	0.666432
C100	C	-0.820116	-0.296662	-0.000246
C101	C	-0.486782	0.036671	0.333087
C102	C	-0.153449	0.370005	0.666420
N103	N	-0.824454	-0.092543	0.188450
N104	N	-0.491121	0.240790	0.521783
N105	N	-0.157788	0.574123	0.855117
C106	C	-0.891934	0.156250	-0.000208
C107	C	-0.558600	0.489583	0.333126
C108	C	-0.225267	0.822916	0.666459
C109	C	-0.890867	0.228697	-0.000219
C110	C	-0.557534	0.562030	0.333115
C111	C	-0.224201	0.895363	0.666448
C112	C	-0.826703	0.256449	-0.000204
C113	C	-0.493370	0.589782	0.333129
C114	C	-0.160037	0.923116	0.666463
C115	C	-0.763601	0.211748	-0.000196
C116	C	-0.430268	0.545081	0.333137
C117	C	-0.096934	0.878414	0.666470
C118	C	-0.764669	0.139302	-0.000192
C119	C	-0.431336	0.472636	0.333141
C120	C	-0.098002	0.805969	0.666474
C121	C	-0.776257	0.364742	0.042227
C122	C	-0.442923	0.698075	0.375560
C123	C	-0.109590	1.031409	0.708893
C124	C	-0.775191	0.437187	0.042227
C125	C	-0.441858	0.770520	0.375561
C126	C	-0.108525	1.103853	0.708894
C127	C	-0.823407	0.479895	-0.000219
C128	C	-0.490073	0.813228	0.333114
C129	C	-0.156740	1.146562	0.666447
C130	C	-0.872699	0.450151	-0.042657
C131	C	-0.539366	0.783485	0.290676
C132	C	-0.206033	1.116818	0.624010
C133	C	-0.873767	0.377706	-0.042653
C134	C	-0.540434	0.711039	0.290680
C135	C	-0.207101	1.044373	0.624013
C136	C	-0.825538	0.335003	-0.000209
C137	C	-0.492205	0.668337	0.333125
C138	C	-0.158872	1.001670	0.666458
C139	C	-0.885349	0.603143	-0.000244
C140	C	-0.552016	0.936476	0.333089
C141	C	-0.218683	1.269809	0.666422
C142	C	-0.884280	0.675591	-0.000260
C143	C	-0.550947	1.008924	0.333073
C144	C	-0.217614	1.342257	0.666407
C145	C	-0.757012	0.658640	-0.000230
C146	C	-0.423679	0.991973	0.333103
C147	C	-0.090345	1.325307	0.666436
C148	C	-0.758083	0.586194	-0.000222
C149	C	-0.424749	0.919527	0.333112
C150	C	-0.091416	1.252860	0.666445
C151	C	-0.822253	0.558449	-0.000225
C152	C	-0.488920	0.891783	0.333108
C153	C	-0.155587	1.225116	0.666441
N154	N	-0.824506	-0.092555	-0.188886
N155	N	-0.491173	0.240778	0.144447
N156	N	-0.157840	0.574112	0.477781
C157	C	-0.872084	-0.045202	0.226545
C158	C	-0.538751	0.288132	0.559879
C159	C	-0.205418	0.621465	0.893212
C160	C	-0.872089	-0.045199	0.302773
C161	C	-0.538756	0.288135	0.636107
C162	C	-0.205422	0.621468	0.969440
C163	C	-0.824470	-0.092549	0.340903
C164	C	-0.491136	0.240784	0.674236
C165	C	-0.157803	0.574118	1.007569
C166	C	-0.776831	-0.139894	0.302798
C167	C	-0.443497	0.193439	0.636132
C168	C	-0.110164	0.526772	0.969465
C169	C	-0.776823	-0.139891	0.226572
C170	C	-0.443490	0.193442	0.559905
C171	C	-0.110156	0.526775	0.893239
C172	C	-0.815123	-0.155836	0.461656
C173	C	-0.481790	0.177497	0.794990
C174	C	-0.148457	0.510830	1.128323
C175	C	-0.815136	-0.155840	0.537881
C176	C	-0.481803	0.177493	0.871215
C177	C	-0.148469	0.510827	1.204548
C178	C	-0.824490	-0.092558	0.576010
C179	C	-0.491156	0.240776	0.909344
C180	C	-0.157823	0.574109	1.242677
C181	C	-0.833846	-0.029269	0.537905
C182	C	-0.500512	0.304064	0.871238
C183	C	-0.167179	0.637398	1.204572
C184	C	-0.833838	-0.029266	0.461679
C185	C	-0.500505	0.304067	0.795012
C186	C	-0.167171	0.637401	1.128345
C187	C	-0.824473	-0.092557	0.423558
C188	C	-0.491139	0.240776	0.756891
C189	C	-0.157806	0.574109	1.090224
C190	C	-0.872127	-0.045209	0.696761
C191	C	-0.538794	0.288125	1.030094
C192	C	-0.205461	0.621458	1.363427
C193	C	-0.872127	-0.045205	0.772990
C194	C	-0.538793	0.288129	1.106323
C195	C	-0.205460	0.621462	1.439656
C196	C	-0.776872	-0.139907	0.773013
C197	C	-0.443539	0.193427	1.106347
C198	C	-0.110205	0.526760	1.439680
C199	C	-0.776869	-0.139905	0.696786
C200	C	-0.443536	0.193429	1.030119
C201	C	-0.110202	0.526762	1.363452
C202	C	-0.824500	-0.092556	0.658664
C203	C	-0.491167	0.240777	0.991997
C204	C	-0.157834	0.574110	1.325330
H205	H	-0.597075	-0.211624	-0.000196
H206	H	-0.263742	0.121709	0.333138
H207	H	0.069592	0.455042	0.666471
F208	F	-0.160039	-0.221075	-0.000273
F209	F	0.173295	0.112258	0.333061
F210	F	0.506628	0.445591	0.666394
F211	F	-0.843806	0.038086	0.578478
F212	F	-0.510472	0.371419	0.911812
F213	F	-0.177139	0.704753	1.245145
F214	F	-0.926224	0.346053	-0.087820
F215	F	-0.592890	0.679386	0.245513
F216	F	-0.259557	1.012719	0.578846
F217	F	-0.009719	-0.218869	-0.000290
F218	F	0.323615	0.114464	0.333044
F219	F	0.656948	0.447797	0.666377
F220	F	-0.953644	0.573613	-0.000244
F221	F	-0.620311	0.906946	0.333089
F222	F	-0.286977	1.240279	0.666422
H223	H	-0.051876	0.026521	-0.000307
H224	H	0.281458	0.359854	0.333026
H225	H	0.614791	0.693188	0.666360
H226	H	-0.910867	-0.006647	0.195509
H227	H	-0.577534	0.326687	0.528842
H228	H	-0.244200	0.660020	0.862175
H229	H	-0.495886	0.020007	-0.000187
H230	H	-0.162553	0.353340	0.333146
H231	H	0.170780	0.686674	0.666480
F232	F	-0.922818	0.005186	0.656188
F233	F	-0.589484	0.338519	0.989521
F234	F	-0.256151	0.671853	1.322854
F235	F	-0.726149	-0.190286	0.343379
F236	F	-0.392815	0.143047	0.676712
F237	F	-0.059482	0.476381	1.010045
F238	F	-0.951438	0.723156	-0.000277
F239	F	-0.618104	1.056489	0.333056
F240	F	-0.284771	1.389822	0.666390
F241	F	-0.922820	0.005189	0.813535
F242	F	-0.589486	0.338522	1.146869
F243	F	-0.256153	0.671855	1.480202
H244	H	-0.706704	0.549804	-0.000208
H245	H	-0.373371	0.883138	0.333125
H246	H	-0.040038	1.216471	0.666458
H247	H	-0.464966	-0.209686	-0.000209
H248	H	-0.131632	0.123647	0.333124
H249	H	0.201701	0.456980	0.666458
F250	F	-0.695313	0.241285	-0.000185
F251	F	-0.361980	0.574618	0.333148
F252	F	-0.028646	0.907951	0.666481
H253	H	-0.628004	0.018077	-0.000144
H254	H	-0.294671	0.351410	0.333189
H255	H	0.038662	0.684744	0.666523
F256	F	-0.195226	0.040279	-0.000232
F257	F	0.138107	0.373612	0.333102
F258	F	0.471441	0.706946	0.666435
F259	F	-0.805218	-0.223196	0.421084
F260	F	-0.471885	0.110137	0.754417
F261	F	-0.138551	0.443471	1.087751
F262	F	-0.960230	0.126727	-0.000227
F263	F	-0.626897	0.460060	0.333106
F264	F	-0.293563	0.793393	0.666440
F265	F	-0.924018	0.495599	-0.087836
F266	F	-0.590684	0.828932	0.245497
F267	F	-0.257351	1.162266	0.578830
H268	H	-0.738036	-0.178443	0.195554
H269	H	-0.404703	0.154890	0.528887
H270	H	-0.071369	0.488223	0.862221
F271	F	-0.958024	0.276270	-0.000232
F272	F	-0.624690	0.609603	0.333101
F273	F	-0.291357	0.942936	0.666434
H274	H	-0.704768	0.681235	-0.000222
H275	H	-0.371435	1.014568	0.333112
H276	H	-0.038102	1.347902	0.666445
H277	H	-0.735051	0.461398	0.076778
H278	H	-0.401718	0.794731	0.410112
H279	H	-0.068385	1.128064	0.743445
H280	H	-0.738097	-0.178458	0.804058
H281	H	-0.404764	0.154876	1.137391
H282	H	-0.071430	0.488209	1.470725
H283	H	-0.738087	-0.178457	0.665766
H284	H	-0.404753	0.154876	0.999100
H285	H	-0.071420	0.488209	1.332433
F286	F	-0.724936	0.319295	0.087409
F287	F	-0.391603	0.652628	0.420742
F288	F	-0.058270	0.985962	0.754075
F289	F	-0.805183	-0.223197	0.578429
F290	F	-0.471850	0.110137	0.911762
F291	F	-0.138517	0.443470	1.245095
F292	F	-0.697512	0.091736	-0.000180
F293	F	-0.364179	0.425069	0.333153
F294	F	-0.030846	0.758403	0.666486
H295	H	-0.910876	-0.006646	0.333796
H296	H	-0.577543	0.326687	0.667130
H297	H	-0.244210	0.660021	1.000463
F298	F	-0.843789	0.038088	0.421127
F299	F	-0.510456	0.371422	0.754460
F300	F	-0.177123	0.704755	1.087794
