data_functionalizedCrystal
_audit_creation_method	'MofGen! by Chris Wilmer'
_symmetry_space_group_name_H-M	'P1'
_symmetry_Int_Tables_number	1
_symmetry_cell_setting	triclinic
loop_
_symmetry_equiv_pos_as_xyz
  x,y,z
_cell_length_a	25.639242
_cell_length_b	19.805404
_cell_length_c	19.805399
_cell_angle_alpha	89.972890
_cell_angle_beta	89.972605
_cell_angle_gamma	90.025120
loop_
_atom_site_label
_atom_site_type_symbol
_atom_site_fract_x
_atom_site_fract_y
_atom_site_fract_z
Zn1	Zn	0.799285	-0.269560	-0.382863
Zn2	Zn	0.799214	-0.382748	-0.269676
Zn3	Zn	0.711853	-0.269569	-0.269672
Zn4	Zn	0.711820	-0.382703	-0.382807
O5	O	0.755543	-0.326145	-0.326255
O6	O	0.872441	-0.284589	-0.367873
O7	O	0.787610	-0.367757	-0.174959
O8	O	0.723495	-0.174852	-0.284709
O9	O	0.872389	-0.367748	-0.284715
O10	O	0.787731	-0.174844	-0.367870
O11	O	0.723426	-0.284606	-0.174956
O12	O	0.638684	-0.284562	-0.284655
O13	O	0.723439	-0.367672	-0.477531
O14	O	0.638660	-0.367681	-0.367775
O15	O	0.787698	-0.284545	-0.477572
O16	O	0.787578	-0.477459	-0.284661
O17	O	0.723370	-0.477426	-0.367778
C18	C	0.755477	-0.502001	-0.326228
C19	C	0.755496	-0.577233	-0.326240
C20	C	0.619701	-0.326118	-0.326209
C21	C	0.561587	-0.326123	-0.326205
C22	C	0.789105	-1.039019	-0.283070
C23	C	0.789080	-0.968330	-0.283057
C24	C	0.755612	-0.932995	-0.326290
C25	C	0.722162	-0.968351	-0.369535
C26	C	0.722184	-1.039038	-0.369544
C27	C	0.722071	-0.683278	-0.369498
C28	C	0.722052	-0.612586	-0.369487
C29	C	0.788967	-0.612570	-0.283011
C30	C	0.788989	-0.683257	-0.283020
C31	C	0.755538	-0.718607	-0.326262
C32	C	0.755564	-0.795256	-0.326274
C33	C	0.755588	-0.856348	-0.326281
C34	C	0.201220	-0.369497	-0.369494
C35	C	0.146616	-0.369502	-0.369505
O36	O	0.118376	-0.406347	-0.406271
N37	N	0.119304	-0.326164	-0.326299
C38	C	0.146600	-0.282814	-0.283084
O39	O	0.118356	-0.245952	-0.246336
C40	C	0.201203	-0.282807	-0.283077
C41	C	0.228512	-0.326152	-0.326281
C42	C	0.228529	-0.412839	-0.412695
C43	C	0.283129	-0.412835	-0.412683
C44	C	0.310421	-0.369491	-0.369470
C45	C	0.283112	-0.326149	-0.326270
C46	C	0.228498	-0.239454	-0.239867
C47	C	0.283105	-0.239451	-0.239864
C48	C	0.310414	-0.282796	-0.283068
C49	C	0.365005	-0.282801	-0.283045
N50	N	0.392316	-0.326139	-0.326251
C51	C	0.365024	-0.369483	-0.369464
C52	C	0.031929	-0.282831	-0.283102
C53	C	-0.022673	-0.282841	-0.283105
C54	C	-0.022654	-0.369528	-0.369527
C55	C	0.031950	-0.369521	-0.369520
C56	C	0.059241	-0.326169	-0.326308
C57	C	0.479689	-0.369473	-0.369435
C58	C	0.534295	-0.369468	-0.369418
C59	C	0.534271	-0.282779	-0.282999
C60	C	0.479670	-0.282787	-0.283014
C61	C	0.452381	-0.326136	-0.326237
O62	O	0.393280	-0.245973	-0.246299
O63	O	0.393275	-0.406333	-0.406212
C64	C	0.891916	-0.326172	-0.326301
C65	C	0.950030	-0.326184	-0.326321
C66	C	0.755624	-0.149602	-0.326295
C67	C	0.755659	-0.074370	-0.326313
C68	C	0.755573	-0.326102	-0.502797
C69	C	0.755585	-0.326084	-0.578029
C70	C	0.789046	-0.282798	-0.613396
C71	C	0.789051	-0.282779	-0.684085
C72	C	0.755598	-0.326049	-0.719405
C73	C	0.722134	-0.369337	-0.684033
C74	C	0.722126	-0.369352	-0.613346
C75	C	0.722163	-0.369274	-0.969107
C76	C	0.722174	-0.369256	-1.039799
C77	C	0.789089	-0.282700	-1.039845
C78	C	0.789081	-0.282716	-0.969158
C79	C	0.755615	-0.326001	-0.933793
C80	C	0.755609	-0.326020	-0.857144
C81	C	0.755607	-0.326033	-0.796052
C82	C	0.755544	-0.326139	-0.150399
C83	C	0.755633	-0.325966	-0.075167
H84	H	0.816362	-1.067784	-0.247868
H85	H	0.816300	-0.247533	-0.712877
H86	H	0.694796	-0.583817	-0.404694
H87	H	0.206273	-0.204160	-0.204684
H88	H	0.694952	-1.067821	-0.404760
H89	H	0.694909	-0.939577	-0.404734
H90	H	0.816324	-0.247483	-0.940403
H91	H	0.556527	-0.404768	-0.404600
H92	H	0.694930	-0.404493	-1.068555
H93	H	0.694873	-0.404593	-0.584552
H94	H	0.816337	-0.247453	-1.068648
H95	H	0.816289	-0.247565	-0.584643
H96	H	0.816204	-0.583780	-0.247798
H97	H	0.816314	-0.939547	-0.247845
H98	H	0.694920	-0.404529	-0.940321
H99	H	0.305359	-0.448130	-0.447866
H100	H	0.694893	-0.404566	-0.712797
H101	H	0.694829	-0.712052	-0.404703
H102	H	0.457477	-0.404771	-0.404634
H103	H	0.816245	-0.712024	-0.247817
H104	H	0.206313	-0.448136	-0.447887
H105	H	0.305323	-0.204144	-0.204679
H106	H	0.054146	-0.247530	-0.247909
H107	H	0.054181	-0.404816	-0.404702
H108	H	-0.044885	-0.404820	-0.404715
H109	H	0.457434	-0.247493	-0.247832
H110	H	-0.044903	-0.247552	-0.247918
H111	H	0.556502	-0.247491	-0.247814
