data_functionalizedCrystal
_audit_creation_method	'MofGen! by Chris Wilmer'
_symmetry_space_group_name_H-M	'P1'
_symmetry_Int_Tables_number	1
_symmetry_cell_setting	triclinic
loop_
_symmetry_equiv_pos_as_xyz
  x,y,z
_cell_length_a	10.967926
_cell_length_b	19.288857
_cell_length_c	17.766277
_cell_angle_alpha	89.991474
_cell_angle_beta	102.119897
_cell_angle_gamma	83.940252
loop_
_atom_site_label
_atom_site_type_symbol
_atom_site_fract_x
_atom_site_fract_y
_atom_site_fract_z
O1	O	1.655082	0.097406	0.152091
O2	O	2.155082	0.597406	0.652091
O3	O	1.291748	0.106733	0.104959
O4	O	1.791748	0.606733	0.604959
O5	O	1.483919	0.001007	0.129896
O6	O	1.983919	0.501007	0.629896
O7	O	1.462911	0.203132	0.127153
O8	O	1.962911	0.703132	0.627153
O9	O	1.483885	0.001002	0.255080
O10	O	1.983885	0.501002	0.755080
O11	O	1.291714	0.106728	0.230143
O12	O	1.791714	0.606728	0.730143
O13	O	1.655048	0.097400	0.277275
O14	O	2.155048	0.597400	0.777275
Cu15	Cu	1.473378	0.102064	0.265139
Cu16	Cu	1.973378	0.602064	0.765139
Cu17	Cu	1.473418	0.102070	0.117094
Cu18	Cu	1.973418	0.602070	0.617094
O19	O	1.462878	0.203127	0.252337
O20	O	1.962878	0.703127	0.752337
C21	C	1.245247	0.106052	0.161521
C22	C	1.745247	0.606052	0.661521
C23	C	1.106741	0.104023	0.143554
C24	C	1.606741	0.604023	0.643554
C25	C	1.483227	-0.024876	0.192402
C26	C	1.983227	0.475124	0.692402
C27	C	1.481203	-0.101993	0.192141
C28	C	1.981203	0.398007	0.692141
C29	C	1.480277	-0.138207	0.123781
C30	C	1.980277	0.361793	0.623781
C31	C	1.478357	-0.210666	0.123526
C32	C	1.978357	0.289334	0.623526
C33	C	1.477389	-0.246909	0.191639
C34	C	1.977389	0.253091	0.691639
C35	C	1.478308	-0.210686	0.260008
C36	C	1.978308	0.289314	0.760008
C37	C	1.480215	-0.138228	0.260259
C38	C	1.980215	0.361772	0.760259
C39	C	1.547436	-0.366688	0.253000
C40	C	2.047436	0.133312	0.753000
C41	C	1.545536	-0.439145	0.252748
C42	C	2.045536	0.060855	0.752748
C43	C	1.471501	-0.470393	0.190867
C44	C	1.971501	0.029607	0.690867
C45	C	1.399381	-0.429177	0.129228
C46	C	1.899381	0.070823	0.629228
C47	C	1.401288	-0.356719	0.129479
C48	C	1.901288	0.143281	0.629479
C49	C	1.475320	-0.325478	0.191374
C50	C	1.975320	0.174522	0.691374
C51	C	1.468491	-0.585175	0.122225
C52	C	1.968491	-0.085175	0.622225
C53	C	1.466563	-0.657634	0.121972
C54	C	1.966563	-0.157634	0.621972
C55	C	1.466527	-0.657654	0.258458
C56	C	1.966527	-0.157654	0.758458
C57	C	1.468442	-0.585196	0.258707
C58	C	1.968442	-0.085196	0.758707
C59	C	1.469430	-0.548961	0.190589
C60	C	1.969430	-0.048961	0.690589
C61	C	1.044973	0.103116	0.200393
C62	C	1.544973	0.603116	0.700393
C63	C	0.901820	0.101018	0.181825
C64	C	1.401820	0.601018	0.681825
C65	C	1.701549	0.098082	0.220711
C66	C	2.201549	0.598082	0.720711
C67	C	1.840055	0.100111	0.238672
C68	C	2.340055	0.600111	0.738672
C69	C	1.463569	0.229010	0.189830
C70	C	1.963569	0.729010	0.689830
C71	C	1.465593	0.306127	0.190086
C72	C	1.965593	0.806127	0.690086
N73	N	1.473359	0.102059	0.369267
N74	N	1.973359	0.602059	0.869267
N75	N	1.473447	0.102070	0.012968
N76	N	1.973447	0.602070	0.512968
C77	C	1.558480	0.055266	0.419700
C78	C	2.058480	0.555266	0.919700
C79	C	1.558487	0.055263	0.498502
C80	C	2.058487	0.555263	0.998502
C81	C	1.473386	0.102064	0.526871
C82	C	1.973386	0.602064	1.026871
C83	C	1.388249	0.148860	0.476427
C84	C	1.888249	0.648860	0.976427
C85	C	1.388236	0.148857	0.397625
C86	C	1.888236	0.648857	0.897625
C87	C	1.456678	0.165244	0.649536
C88	C	1.956678	0.665244	1.149536
C89	C	1.456700	0.165247	0.728338
C90	C	1.956700	0.665247	1.228338
C91	C	1.473419	0.102073	0.769922
C92	C	1.973419	0.602073	1.269922
C93	C	1.490142	0.038892	0.732698
C94	C	1.990142	0.538892	1.232698
C95	C	1.490129	0.038889	0.653896
C96	C	1.990129	0.538889	1.153896
C97	C	1.473390	0.102072	0.612317
C98	C	1.973390	0.602072	1.112317
C99	C	1.558552	0.055273	0.905802
C100	C	2.058552	0.555273	1.405802
C101	C	1.558551	0.055269	0.984605
C102	C	2.058551	0.555269	1.484605
C103	C	1.388318	0.148872	0.962528
C104	C	1.888318	0.648872	1.462528
C105	C	1.388314	0.148870	0.883726
C106	C	1.888314	0.648870	1.383726
C107	C	1.473437	0.102072	0.855368
C108	C	1.973437	0.602072	1.355368
H109	H	1.481077	-0.108709	0.068313
H110	H	1.981077	0.391291	0.568313
Br111	Br	1.674069	-0.008246	1.053054
Br112	Br	2.174069	0.491754	1.553054
Br113	Br	1.434112	0.250991	0.593125
Br114	Br	1.934112	0.750991	1.093125
Br115	Br	1.272792	0.212379	0.815275
Br116	Br	1.772792	0.712379	1.315275
Br117	Br	1.512812	-0.046852	0.603377
Br118	Br	2.012812	0.453148	1.103377
Br119	Br	1.272743	0.212372	0.514922
Br120	Br	1.772743	0.712372	1.014922
H121	H	0.893148	0.100884	0.301085
H122	H	1.393148	0.600884	0.801085
H123	H	1.477595	-0.240156	0.067856
H124	H	1.977595	0.259844	0.567856
H125	H	1.053643	0.103246	0.081146
H126	H	1.553643	0.603246	0.581146
Br127	Br	1.647955	-0.324289	0.336977
Br128	Br	2.147955	0.175711	0.836977
Br129	Br	1.272809	0.212381	1.001020
Br130	Br	1.772809	0.712381	1.501020
Br131	Br	1.298893	-0.471575	0.045242
Br132	Br	1.798893	0.028425	0.545242
H133	H	1.627789	0.017159	0.396614
H134	H	2.127789	0.517159	0.896614
H135	H	1.477516	-0.240200	0.315465
H136	H	1.977516	0.259800	0.815465
Br137	Br	1.674016	-0.008247	0.566958
Br138	Br	2.174016	0.491753	1.066958
H139	H	1.465729	-0.687163	0.313915
H140	H	1.965729	-0.187163	0.813915
H141	H	1.342563	-0.323163	0.079292
H142	H	1.842563	0.176837	0.579292
Br143	Br	1.674071	-0.008241	0.867314
Br144	Br	2.174071	0.491759	1.367314
Br145	Br	1.512849	-0.046851	0.789124
Br146	Br	2.012849	0.453149	1.289124
Br147	Br	1.469694	-0.536044	0.351486
Br148	Br	1.969694	-0.036044	0.851486
Br149	Br	1.469824	-0.535994	0.029782
Br150	Br	1.969824	-0.035994	0.529782
Br151	Br	1.133462	0.104404	0.304416
Br152	Br	1.633462	0.604404	0.804416
Br153	Br	0.813339	0.099717	0.077799
Br154	Br	1.313339	0.599717	0.577799
Br155	Br	1.434019	0.250991	0.778850
Br156	Br	1.934019	0.750991	1.278850
Br157	Br	1.465292	-0.706782	0.029187
Br158	Br	1.965292	-0.206782	0.529187
Br159	Br	1.272705	0.212365	0.329174
Br160	Br	1.772705	0.712365	0.829174
H161	H	1.604265	-0.472698	0.302935
H162	H	2.104265	0.027302	0.802935
H163	H	1.480964	-0.108743	0.315927
H164	H	1.980964	0.391257	0.815927
