data_functionalizedCrystal
_audit_creation_method	'MofGen! by Chris Wilmer'
_symmetry_space_group_name_H-M	'P1'
_symmetry_Int_Tables_number	1
_symmetry_cell_setting	triclinic
loop_
_symmetry_equiv_pos_as_xyz
  x,y,z
_cell_length_a	16.974800
_cell_length_b	16.956995
_cell_length_c	15.186229
_cell_angle_alpha	89.997115
_cell_angle_beta	93.653458
_cell_angle_gamma	79.729798
loop_
_atom_site_label
_atom_site_type_symbol
_atom_site_fract_x
_atom_site_fract_y
_atom_site_fract_z
O1	O	1.042510	0.101582	0.001096
O2	O	1.375843	0.434915	0.334430
O3	O	1.709176	0.768249	0.667763
O4	O	0.811456	0.114540	-0.015378
O5	O	1.144789	0.447874	0.317956
O6	O	1.478122	0.781207	0.651289
O7	O	0.940863	-0.008033	-0.006148
O8	O	1.274196	0.325300	0.327186
O9	O	1.607529	0.658633	0.660519
O10	O	0.913102	0.224156	-0.008134
O11	O	1.246436	0.557489	0.325200
O12	O	1.579769	0.890822	0.658533
O13	O	0.940855	-0.008035	0.140309
O14	O	1.274188	0.325298	0.473642
O15	O	1.607522	0.658632	0.806976
O16	O	0.811448	0.114539	0.131079
O17	O	1.144781	0.447872	0.464412
O18	O	1.478114	0.781205	0.797746
O19	O	1.042502	0.101580	0.147553
O20	O	1.375835	0.434914	0.480886
O21	O	1.709168	0.768247	0.814220
Zn22	Zn	0.926973	0.108059	0.162569
Zn23	Zn	1.260307	0.441393	0.495902
Zn24	Zn	1.593640	0.774726	0.829236
Zn25	Zn	0.926984	0.108062	-0.030394
Zn26	Zn	1.260317	0.441395	0.302939
Zn27	Zn	1.593650	0.774728	0.636273
O28	O	0.913094	0.224154	0.138323
O29	O	1.246428	0.557487	0.471656
O30	O	1.579761	0.890821	0.804990
C31	C	0.782025	0.114049	0.055753
C32	C	1.115358	0.447382	0.389086
C33	C	1.448692	0.780715	0.722419
C34	C	0.694344	0.112576	0.049501
C35	C	1.027678	0.445910	0.382834
C36	C	1.361011	0.779243	0.716168
C37	C	0.942280	-0.037744	0.067181
C38	C	1.275614	0.295589	0.400514
C39	C	1.608947	0.628923	0.733848
C40	C	0.946506	-0.126269	0.067479
C41	C	1.279839	0.207064	0.400813
C42	C	1.613173	0.540397	0.734146
C43	C	0.653152	0.111882	0.126400
C44	C	0.986486	0.445215	0.459733
C45	C	1.319819	0.778549	0.793066
C46	C	0.570770	0.110486	0.120528
C47	C	0.904103	0.443819	0.453862
C48	C	1.237436	0.777153	0.787195
C49	C	0.529579	0.109790	0.037758
C50	C	0.862912	0.443123	0.371091
C51	C	1.196246	0.776457	0.704424
C52	C	0.570777	0.110482	-0.039147
C53	C	0.904111	0.443816	0.294186
C54	C	1.237444	0.777149	0.627520
C55	C	0.653160	0.111873	-0.033275
C56	C	0.986493	0.445206	0.300059
C57	C	1.319826	0.778539	0.633392
C58	C	0.283193	0.105627	0.011634
C59	C	0.616527	0.438960	0.344968
C60	C	0.949860	0.772293	0.678301
C61	C	0.200805	0.104239	0.005768
C62	C	0.534138	0.437572	0.339101
C63	C	0.867471	0.770906	0.672434
C64	C	0.200803	0.104241	0.165444
C65	C	0.534136	0.437574	0.498777
C66	C	0.867469	0.770908	0.832110
C67	C	0.283186	0.105636	0.171309
C68	C	0.616519	0.438969	0.504642
C69	C	0.949853	0.772303	0.837975
C70	C	0.324378	0.106324	0.094404
C71	C	0.657711	0.439657	0.427738
C72	C	0.991044	0.772991	0.761071
N73	N	0.445370	0.108366	0.031754
N74	N	0.778703	0.441699	0.365087
N75	N	1.112037	0.775032	0.698421
N76	N	0.408586	0.107743	0.100409
N77	N	0.741920	0.441076	0.433742
N78	N	1.075253	0.774409	0.767075
C79	C	0.978119	-0.625606	0.069730
C80	C	1.311453	-0.292273	0.403063
C81	C	1.644786	0.041061	0.736397
C82	C	0.974143	-0.542426	0.069452
C83	C	1.307476	-0.209093	0.402785
C84	C	1.640809	0.124241	0.736118
C85	C	0.899497	-0.491252	0.064125
C86	C	1.232830	-0.157919	0.397459
C87	C	1.566163	0.175415	0.730792
C88	C	0.828823	-0.523261	0.059086
C89	C	1.162156	-0.189928	0.392419
C90	C	1.495490	0.143405	0.725753
C91	C	0.832801	-0.606440	0.059371
C92	C	1.166134	-0.273106	0.392704
C93	C	1.499467	0.060227	0.726037
C94	C	0.879810	-0.241457	0.062724
C95	C	1.213143	0.091877	0.396058
C96	C	1.546476	0.425210	0.729391
C97	C	0.875838	-0.158273	0.062438
C98	C	1.209171	0.175060	0.395771
C99	C	1.542504	0.508393	0.729104
C100	C	1.021158	-0.177444	0.072805
C101	C	1.354491	0.155889	0.406138
C102	C	1.687824	0.489223	0.739472
C103	C	1.025129	-0.260623	0.073084
C104	C	1.358462	0.072710	0.406417
C105	C	1.691795	0.406044	0.739750
C106	C	0.954455	-0.292625	0.068049
C107	C	1.287788	0.040708	0.401382
C108	C	1.621122	0.374041	0.734716
N109	N	0.895430	-0.406229	0.063838
N110	N	1.228763	-0.072895	0.397172
N111	N	1.562097	0.260438	0.730505
N112	N	0.958523	-0.377647	0.068343
N113	N	1.291856	-0.044314	0.401676
N114	N	1.625189	0.289020	0.735009
C115	C	1.071932	0.102072	0.076421
C116	C	1.405265	0.435405	0.409754
C117	C	1.738599	0.768739	0.743087
C118	C	1.159613	0.103544	0.082666
C119	C	1.492946	0.436878	0.416000
C120	C	1.826279	0.770211	0.749333
C121	C	0.911677	0.253865	0.064992
C122	C	1.245010	0.587198	0.398326
C123	C	1.578343	0.920531	0.731659
C124	C	0.907451	0.342390	0.064688
C125	C	1.240784	0.675723	0.398022
C126	C	1.574118	1.009057	0.731355
N127	N	0.926972	0.108057	0.294262
N128	N	1.260305	0.441391	0.627595
N129	N	1.593639	0.774724	0.960928
N130	N	0.926992	0.108057	-0.162086
N131	N	1.260325	0.441391	0.171247
N132	N	1.593659	0.774724	0.504581
C133	C	0.984291	0.053800	0.524073
C134	C	1.317624	0.387133	0.857406
C135	C	1.650957	0.720466	1.190739
C136	C	0.984293	0.053798	0.616263
C137	C	1.317626	0.387131	0.949596
C138	C	1.650960	0.720465	1.282929
C139	C	0.869667	0.162317	0.608096
C140	C	1.203001	0.495651	0.941429
C141	C	1.536334	0.828984	1.274763
C142	C	0.869662	0.162315	0.515908
C143	C	1.202995	0.495648	0.849241
C144	C	1.536328	0.828981	1.182574
C145	C	0.926978	0.108057	0.473899
C146	C	1.260311	0.441390	0.807232
C147	C	1.593644	0.774724	1.140565
C148	C	0.926986	0.108058	0.658277
C149	C	1.260319	0.441391	0.991610
C150	C	1.593653	0.774724	1.324944
C151	C	0.926988	0.108056	0.758233
C152	C	1.260322	0.441389	1.091567
C153	C	1.593655	0.774723	1.424900
C154	C	0.926975	0.108057	0.373936
C155	C	1.260308	0.441391	0.707269
C156	C	1.593641	0.774724	1.040603
H157	H	0.537237	0.109907	0.183148
H158	H	0.870571	0.443240	0.516481
H159	H	1.203904	0.776574	0.849814
H160	H	0.822987	0.206498	0.475053
H161	H	1.156320	0.539831	0.808386
H162	H	1.489654	0.873164	1.141719
H163	H	0.823003	0.206494	0.642309
H164	H	1.156336	0.539827	0.975642
H165	H	1.489669	0.873160	1.308976
H166	H	0.537235	0.109910	-0.106541
H167	H	0.870568	0.443244	0.226793
H168	H	1.203901	0.776577	0.560126
O169	O	0.327612	0.106373	-0.071311
O170	O	0.660946	0.439707	0.262022
O171	O	0.994279	0.773040	0.595355
H172	H	0.354551	0.161329	-0.073212
H173	H	0.687884	0.494662	0.260121
H174	H	1.021218	0.827996	0.593454
O175	O	0.697570	0.112642	0.215678
O176	O	1.030903	0.445975	0.549012
O177	O	1.364237	0.779308	0.882345
H178	H	0.745712	0.058954	0.222936
H179	H	1.079045	0.392287	0.556269
H180	H	1.412378	0.725621	0.889603
O181	O	1.097378	-0.142921	0.078242
O182	O	1.430711	0.190412	0.411576
O183	O	1.764044	0.523745	0.744909
H184	H	1.132984	-0.163475	0.021086
H185	H	1.466318	0.169858	0.354419
H186	H	1.799651	0.503192	0.687753
H187	H	0.686697	0.112440	-0.095894
H188	H	1.020030	0.445773	0.237440
H189	H	1.353364	0.779106	0.570773
H190	H	0.167256	0.103679	0.228055
H191	H	0.500589	0.437013	0.561388
H192	H	0.833922	0.770346	0.894721
O193	O	0.327606	0.106424	0.260582
O194	O	0.660940	0.439757	0.593915
O195	O	0.994273	0.773090	0.927249
H196	H	0.285120	0.105715	0.313070
H197	H	0.618453	0.439048	0.646403
H198	H	0.951787	0.772381	0.979737
H199	H	1.038904	-0.667267	0.074060
H200	H	1.372238	-0.333934	0.407393
H201	H	1.705571	-0.000600	0.740727
H202	H	0.167269	0.103675	-0.061638
H203	H	0.500602	0.437008	0.271696
H204	H	0.833936	0.770341	0.605029
H205	H	1.031688	-0.516373	0.073558
H206	H	1.365022	-0.183040	0.406892
H207	H	1.698355	0.150294	0.740225
O208	O	1.105644	-0.315811	0.078843
O209	O	1.438977	0.017522	0.412177
O210	O	1.772310	0.350855	0.745510
H211	H	1.139733	-0.304436	0.021588
H212	H	1.473067	0.028898	0.354922
H213	H	1.806400	0.362231	0.688255
O214	O	0.795323	-0.103073	0.056701
O215	O	1.128657	0.230261	0.390034
O216	O	1.461990	0.563594	0.723367
H217	H	0.746847	-0.139299	0.053257
H218	H	1.080180	0.194034	0.386590
H219	H	1.413514	0.527368	0.719923
H220	H	0.822262	-0.267502	0.058614
H221	H	1.155596	0.065831	0.391947
H222	H	1.488929	0.399164	0.725281
O223	O	0.748309	-0.468072	0.053343
O224	O	1.081642	-0.134739	0.386677
O225	O	1.414975	0.198595	0.720010
H226	H	0.757414	-0.404855	0.053984
H227	H	1.090747	-0.071522	0.387317
H228	H	1.424080	0.261812	0.720650
O229	O	1.046109	-0.004721	0.670383
O230	O	1.379442	0.328612	1.003716
O231	O	1.712776	0.661946	1.337049
H232	H	1.082337	0.028830	0.714965
H233	H	1.415670	0.362164	1.048299
H234	H	1.749004	0.695497	1.381632
O235	O	0.756581	-0.640965	0.053929
O236	O	1.089914	-0.307632	0.387263
O237	O	1.423248	0.025702	0.720596
H238	H	0.704006	-0.591408	0.050170
H239	H	1.037339	-0.258075	0.383503
H240	H	1.370673	0.075259	0.716836
H241	H	1.030960	0.009619	0.489871
H242	H	1.364293	0.342952	0.823205
H243	H	1.697626	0.676285	1.156538
