data_functionalizedCrystal
_audit_creation_method	'MofGen! by Chris Wilmer'
_symmetry_space_group_name_H-M	'P1'
_symmetry_Int_Tables_number	1
_symmetry_cell_setting	triclinic
loop_
_symmetry_equiv_pos_as_xyz
  x,y,z
_cell_length_a	16.120484
_cell_length_b	16.625547
_cell_length_c	16.625539
_cell_angle_alpha	89.978691
_cell_angle_beta	92.870299
_cell_angle_gamma	92.925712
loop_
_atom_site_label
_atom_site_type_symbol
_atom_site_fract_x
_atom_site_fract_y
_atom_site_fract_z
Zn1	Zn	-0.331923	1.216357	-0.472259
Zn2	Zn	-0.471343	1.209424	-0.344255
Zn3	Zn	-0.331948	1.081526	-0.337431
Zn4	Zn	-0.471297	1.074647	-0.479033
O5	O	-0.401628	1.145488	-0.408245
O6	O	-0.350427	1.328269	-0.455300
O7	O	-0.452882	1.192435	-0.230519
O8	O	-0.215278	1.105192	-0.349625
O9	O	-0.452858	1.323175	-0.361257
O10	O	-0.215260	1.204252	-0.448683
O11	O	-0.350468	1.098469	-0.225505
O12	O	-0.350424	0.967781	-0.356193
O13	O	-0.452779	1.093468	-0.590965
O14	O	-0.452803	0.962727	-0.460228
O15	O	-0.350382	1.197582	-0.585989
O16	O	-0.588003	1.185765	-0.367825
O17	O	-0.587969	1.086745	-0.466845
C18	C	-0.401612	0.935998	-0.408206
C19	C	-0.401625	0.846377	-0.408209
C20	C	-0.401626	0.773594	-0.408219
C21	C	-0.401631	0.682285	-0.408240
C22	C	-0.401638	0.609509	-0.408261
C23	C	-0.401644	0.518194	-0.408280
C24	C	-0.618236	1.134778	-0.418828
C25	C	-0.710902	1.130270	-0.423383
C26	C	-0.880564	1.122044	-0.431716
C27	C	-0.921851	1.169078	-0.384787
C28	C	-1.016256	1.164501	-0.389423
C29	C	-0.786150	1.126620	-0.427080
C30	C	-0.184173	1.156263	-0.397637
C31	C	-0.091507	1.160854	-0.393117
C32	C	-0.401573	1.145531	-0.618551
C33	C	-0.401549	1.145549	-0.708171
C34	C	-0.401645	1.355796	-0.408284
C35	C	-0.401652	1.445417	-0.408301
C36	C	-0.401531	1.145563	-0.780953
C37	C	-0.401500	1.145583	-0.872260
C38	C	-0.401470	1.145603	-0.945035
C39	C	-0.401440	1.145625	-1.036347
C40	C	-0.401622	1.145496	-0.198754
C41	C	-0.401411	1.145645	-0.109123
H42	H	-0.886296	1.212782	-0.341128
H43	H	-0.916116	1.078342	-0.475370
