data_functionalizedCrystal
_audit_creation_method	'MofGen! by Chris Wilmer'
_symmetry_space_group_name_H-M	'P1'
_symmetry_Int_Tables_number	1
_symmetry_cell_setting	triclinic
loop_
_symmetry_equiv_pos_as_xyz
  x,y,z
_cell_length_a	18.215407
_cell_length_b	18.215404
_cell_length_c	18.215399
_cell_angle_alpha	90.026844
_cell_angle_beta	90.020595
_cell_angle_gamma	90.023139
loop_
_atom_site_label
_atom_site_type_symbol
_atom_site_fract_x
_atom_site_fract_y
_atom_site_fract_z
Zn1	Zn	-1.125080	0.292993	-0.416136
Zn2	Zn	-1.124992	0.416065	-0.293073
Zn3	Zn	-1.002013	0.293016	-0.293082
Zn4	Zn	-1.001983	0.416023	-0.416096
O5	O	-1.063517	0.354524	-0.354597
O6	O	-1.228053	0.309327	-0.399825
O7	O	-1.108655	0.399769	-0.190090
O8	O	-1.018388	0.190029	-0.309427
O9	O	-1.227988	0.399747	-0.309410
O10	O	-1.108805	0.190012	-0.399834
O11	O	-1.018302	0.309366	-0.190097
O12	O	-0.899025	0.309325	-0.309387
O13	O	-1.018336	0.399675	-0.519086
O14	O	-0.899002	0.399697	-0.399765
O15	O	-1.108775	0.309286	-0.519115
O16	O	-1.108625	0.519043	-0.309371
O17	O	-1.018250	0.519012	-0.399755
C18	C	-0.872311	0.354510	-0.354573
C19	C	-0.790512	0.354521	-0.354580
C20	C	-0.602326	0.401650	-0.401579
C21	C	-0.525467	0.401652	-0.401587
C22	C	-0.525461	0.307402	-0.307618
C23	C	-0.602318	0.307397	-0.307614
C24	C	-0.640748	0.354526	-0.354593
C25	C	-0.487032	0.354532	-0.354605
C26	C	-0.403699	0.354533	-0.354614
C27	C	-0.724087	0.354524	-0.354586
C28	C	-1.063562	0.354473	-0.546550
C29	C	-1.063581	0.354452	-0.628349
C30	C	-1.063445	0.545731	-0.354574
C31	C	-1.063481	0.627529	-0.354589
C32	C	-0.255470	0.354537	-0.354618
C33	C	-0.337269	0.354536	-0.354618
C34	C	-1.110680	0.892579	-0.307636
C35	C	-1.110649	0.815720	-0.307616
C36	C	-1.016456	0.815729	-0.401652
C37	C	-1.016484	0.892586	-0.401668
C38	C	-1.063600	0.931009	-0.354661
C39	C	-1.063541	0.777293	-0.354625
C40	C	-1.063507	0.693959	-0.354603
C41	C	-1.063633	1.014348	-0.354682
C42	C	-1.063612	1.162571	-0.354647
C43	C	-1.063660	1.080772	-0.354698
C44	C	-1.110690	0.307342	-0.816559
C45	C	-1.110699	0.307321	-0.893418
C46	C	-1.016524	0.401448	-0.893376
C47	C	-1.016512	0.401465	-0.816519
C48	C	-1.063599	0.354413	-0.778112
C49	C	-1.063620	0.354375	-0.931828
C50	C	-1.063629	0.354352	-1.015162
C51	C	-1.063589	0.354435	-0.694773
C52	C	-1.063515	0.354522	-0.163391
C53	C	-1.063638	0.354336	-0.081592
H54	H	-0.494161	0.269033	-0.269368
C55	C	-0.980564	0.916202	-0.526258
C56	C	-0.964731	0.934835	-0.453364
H57	H	-0.948617	0.942289	-0.558169
H58	H	-0.973801	0.864936	-0.532974
H59	H	-1.030010	0.928755	-0.537071
H60	H	-0.915286	0.922277	-0.442549
H61	H	-0.971488	0.986112	-0.446645
C62	C	-1.120908	0.729357	-0.208610
C63	C	-1.162402	0.773478	-0.255925
H64	H	-1.152861	0.703284	-0.176693
H65	H	-1.092855	0.695474	-0.236602
H66	H	-1.088877	0.759394	-0.180438
H67	H	-1.194430	0.743441	-0.284101
H68	H	-1.190468	0.807365	-0.227930
H69	H	-0.633603	0.269018	-0.269353
C70	C	-0.974594	0.697915	-0.443387
C71	C	-0.964674	0.773491	-0.453327
H72	H	-0.942629	0.671842	-0.475295
H73	H	-0.963848	0.685363	-0.393934
H74	H	-1.024032	0.685283	-0.454205
H75	H	-0.915237	0.786123	-0.442504
H76	H	-0.975415	0.786048	-0.502792
C77	C	-0.891895	0.437285	-0.917010
C78	C	-0.964773	0.453170	-0.935594
H79	H	-0.859947	0.469216	-0.943077
H80	H	-0.885153	0.444033	-0.865740
H81	H	-0.881157	0.387834	-0.929622
H82	H	-0.975512	0.502620	-0.922978
H83	H	-0.971518	0.446428	-0.986876
H84	H	-1.149029	0.269028	-0.785291
C85	C	-1.209701	0.297077	-0.979883
C86	C	-1.162459	0.255579	-0.935684
H87	H	-1.241651	0.265129	-1.005979
H88	H	-1.237834	0.329141	-0.949901
H89	H	-1.181653	0.325094	-1.013752
H90	H	-1.190506	0.227566	-0.901811
H91	H	-1.134322	0.223502	-0.965668
H92	H	-0.978160	0.439795	-0.785214
C93	C	-1.152575	1.010392	-0.265931
C94	C	-1.162480	0.934815	-0.255979
H95	H	-1.184562	1.036463	-0.234045
H96	H	-1.103151	1.023037	-0.255098
H97	H	-1.163306	1.022930	-0.315398
H98	H	-1.151743	0.922276	-0.206513
H99	H	-1.211915	0.922164	-0.266807
C100	C	-0.626030	0.437644	-0.526133
C101	C	-0.644571	0.453444	-0.453224
H102	H	-0.652114	0.469617	-0.558018
H103	H	-0.574764	0.444394	-0.532854
H104	H	-0.638651	0.388208	-0.536974
H105	H	-0.631945	0.502880	-0.442381
H106	H	-0.695849	0.446701	-0.446500
C107	C	-0.439081	0.412008	-0.500571
C108	C	-0.483233	0.453454	-0.453234
H109	H	-0.413012	0.443991	-0.532461
H110	H	-0.405195	0.383952	-0.472594
H111	H	-0.469097	0.379981	-0.528771
H112	H	-0.453217	0.485478	-0.425030
H113	H	-0.517124	0.481523	-0.481214
