data_functionalizedCrystal
_audit_creation_method	'MofGen! by Chris Wilmer'
_symmetry_space_group_name_H-M	'P1'
_symmetry_Int_Tables_number	1
_symmetry_cell_setting	triclinic
loop_
_symmetry_equiv_pos_as_xyz
  x,y,z
_cell_length_a	14.044220
_cell_length_b	12.837942
_cell_length_c	11.892095
_cell_angle_alpha	85.697431
_cell_angle_beta	94.249598
_cell_angle_gamma	94.008909
loop_
_atom_site_label
_atom_site_type_symbol
_atom_site_fract_x
_atom_site_fract_y
_atom_site_fract_z
O1	O	-1.285971	-0.245911	-0.093880
O2	O	-1.009182	-0.236815	-0.093908
O3	O	-1.141439	-0.089893	-0.093888
O4	O	-1.153714	-0.392833	-0.093900
O5	O	-1.130409	-0.102123	0.094118
O6	O	-0.998153	-0.249045	0.094097
O7	O	-1.274942	-0.258141	0.094126
Zn8	Zn	-1.134796	-0.255535	0.123962
Zn9	Zn	-1.149328	-0.239422	-0.123744
O10	O	-1.142685	-0.405063	0.094105
C11	C	-0.967994	-0.238949	0.000091
C12	C	-0.861696	-0.227074	0.000080
C13	C	-1.131777	-0.057004	0.000114
C14	C	-1.119410	0.059217	0.000111
C15	C	-1.316130	-0.256007	0.000124
C16	C	-1.422428	-0.267882	0.000128
C17	C	-0.667072	-0.205367	0.000103
C18	C	-0.617046	-0.289584	0.000104
C19	C	-0.508751	-0.277506	0.000117
C20	C	-0.775377	-0.217443	0.000090
C21	C	-1.152347	-0.437952	0.000101
C22	C	-1.164714	-0.554172	0.000097
N23	N	-1.124886	-0.266531	0.293014
C24	C	-1.268090	0.286428	0.000103
C25	C	-1.256474	0.395628	0.000100
C26	C	-1.084564	0.386820	0.000094
C27	C	-1.096180	0.277620	0.000097
C28	C	-1.187946	0.227427	0.000103
C29	C	-1.199560	0.118225	0.000114
C30	C	-1.027652	0.109419	0.000100
C31	C	-1.016036	0.218619	0.000097
N32	N	-1.159245	-0.228418	-0.292797
C33	C	-1.228200	-0.151838	0.529678
C34	C	-1.221281	-0.159533	0.648019
C35	C	-1.104122	-0.289609	0.648039
C36	C	-1.111042	-0.281915	0.529698
C37	C	-1.173084	-0.213028	0.470522
C38	C	-1.180008	-0.205339	0.352179
C39	C	-1.062846	-0.335410	0.352201
C40	C	-1.055926	-0.343104	0.470542
H41	H	-0.655549	-0.370756	0.000096
H42	H	-1.005410	-0.399188	0.518736
O43	O	-0.621000	-0.108607	0.000055
C44	C	-0.469471	-0.008208	0.000128
C45	C	-0.521542	-0.117846	0.000162
H46	H	-0.389049	-0.015643	0.000239
H47	H	-0.494951	0.041218	-0.078575
H48	H	-0.485868	0.030967	0.078785
H49	H	-0.505168	-0.157112	-0.078441
H50	H	-0.496055	-0.167196	0.078918
H51	H	-1.321736	0.443662	0.000096
H52	H	-1.274280	0.077360	0.000123
H53	H	-1.230528	-0.149251	0.303999
H54	H	-1.266160	-0.109705	0.696181
O55	O	-1.009405	-0.395013	0.294790
C56	C	-0.971895	-0.569223	0.258660
C57	C	-1.032485	-0.501845	0.323724
H58	H	-0.990519	-0.655609	0.282047
H59	H	-0.987503	-0.551990	0.163898
H60	H	-0.892747	-0.549939	0.281925
H61	H	-1.111652	-0.521090	0.300553
H62	H	-1.016796	-0.519088	0.418470
H63	H	-1.342808	0.245560	0.000119
O64	O	-0.949833	0.052076	-0.000103
C65	C	-0.868909	-0.070044	-0.097462
C66	C	-0.957074	-0.005140	-0.097391
H67	H	-0.874744	-0.116336	-0.176098
H68	H	-0.801304	-0.015450	-0.097539
H69	H	-0.865442	-0.126455	-0.018742
H70	H	-0.960634	0.051276	-0.176097
H71	H	-1.024637	-0.059797	-0.097254
O72	O	-1.288598	-0.085094	0.472150
C73	C	-1.424943	-0.066350	0.338506
C74	C	-1.356611	-0.142048	0.403594
H75	H	-1.479936	-0.112364	0.283045
H76	H	-1.463226	-0.023975	0.401080
H77	H	-1.382204	-0.006650	0.283146
H78	H	-1.399279	-0.201809	0.458955
H79	H	-1.318326	-0.184345	0.340959
O80	O	-1.043769	-0.356526	0.705357
C81	C	-0.928310	-0.484753	0.692904
C82	C	-0.996612	-0.409002	0.627850
H83	H	-0.890181	-0.527216	0.630268
H84	H	-0.873188	-0.438804	0.748271
H85	H	-0.971055	-0.544374	0.748347
H86	H	-0.953948	-0.349364	0.572346
H87	H	-1.051736	-0.455020	0.572554
O88	O	-0.995496	0.435749	0.000134
C89	C	-0.901429	0.600087	0.000047
C90	C	-1.002352	0.544807	0.000026
H91	H	-0.906940	0.688271	-0.000065
H92	H	-0.856689	0.571416	0.078746
H93	H	-0.865943	0.581493	-0.078614
H94	H	-1.037921	0.563376	0.078634
H95	H	-1.047023	0.573483	-0.078725
H96	H	-0.941323	0.259501	0.000087
