data_functionalizedCrystal
_audit_creation_method	'MofGen! by Chris Wilmer'
_symmetry_space_group_name_H-M	'P1'
_symmetry_Int_Tables_number	1
_symmetry_cell_setting	triclinic
loop_
_symmetry_equiv_pos_as_xyz
  x,y,z
_cell_length_a	13.635800
_cell_length_b	9.514072
_cell_length_c	9.108908
_cell_angle_alpha	93.163667
_cell_angle_beta	68.235111
_cell_angle_gamma	61.156579
loop_
_atom_site_label
_atom_site_type_symbol
_atom_site_fract_x
_atom_site_fract_y
_atom_site_fract_z
V1	V	2.131798	-0.292442	-0.509549
O2	O	2.079521	-0.058041	-0.498535
O3	O	2.148852	-0.510525	-0.507328
O4	O	2.140034	-0.319577	-0.731205
O5	O	2.088401	-0.250311	-0.273109
V6	V	2.364064	-0.260667	-0.481115
O7	O	2.283258	-0.362142	-0.571921
O8	O	2.437703	-0.190966	-0.418744
O9	O	2.235406	-0.042583	-0.483336
O10	O	2.475039	-0.495067	-0.492129
O11	O	2.466160	-0.302797	-0.717556
O12	O	2.244225	-0.233531	-0.259460
V13	V	2.631798	-0.292442	-0.509549
O14	O	2.579521	-0.058041	-0.498535
O15	O	2.648852	-0.510525	-0.507328
O16	O	2.640034	-0.319577	-0.731205
O17	O	2.588401	-0.250311	-0.273109
V18	V	2.864064	-0.260667	-0.481115
O19	O	2.783258	-0.362142	-0.571921
O20	O	2.937703	-0.190966	-0.418744
O21	O	2.735406	-0.042583	-0.483336
O22	O	2.975039	-0.495067	-0.492129
O23	O	2.966160	-0.302797	-0.717556
O24	O	2.744225	-0.233531	-0.259460
C25	C	2.080339	-0.562700	-0.499616
C26	C	2.135143	-0.741190	-0.499278
C27	C	2.069089	-0.319125	-0.785190
C28	C	2.116738	-0.342754	-0.966403
C29	C	2.135591	0.009584	-0.491044
C30	C	2.070409	0.188071	-0.491393
C31	C	2.146840	-0.233987	-0.205466
C32	C	2.088809	-0.210350	-0.024251
C33	C	2.569089	-0.319125	-0.785190
C34	C	2.616738	-0.342754	-0.966403
C35	C	2.580339	-0.562700	-0.499616
C36	C	2.635143	-0.741190	-0.499278
C37	C	2.635591	0.009584	-0.491044
C38	C	2.570409	0.188071	-0.491393
C39	C	2.646840	-0.233987	-0.205466
C40	C	2.588809	-0.210350	-0.024251
C41	C	2.732951	-0.363010	-1.059858
C42	C	2.777729	-0.385190	-1.230124
C43	C	2.706295	-0.387127	-1.306934
C44	C	2.590069	-0.366864	-1.213466
C45	C	2.545290	-0.344672	-1.043201
C46	C	2.478015	-0.208401	0.052517
C47	C	2.423468	-0.186171	0.222789
C48	C	2.479720	-0.165903	0.316288
C49	C	2.590522	-0.167848	0.239509
C50	C	2.645063	-0.190065	0.069242
H51	H	1.973036	-0.735919	-0.484822
H52	H	2.435305	-0.147834	0.454926
C53	C	2.007263	-0.032789	-0.903886
C54	C	1.958099	-0.008607	-0.716639
C55	C	1.876549	0.168957	-0.596261
C56	C	1.844163	0.322340	-0.663130
C57	C	1.893327	0.298164	-0.850386
C58	C	1.974877	0.120599	-0.970764
H59	H	1.982073	-0.122155	-0.667130
H60	H	1.840154	0.186853	-0.457641
H61	H	1.783795	0.453784	-0.574019
H62	H	1.869354	0.411711	-0.899895
H63	H	2.011272	0.102704	-1.109384
C64	C	2.198289	-0.520325	-1.086777
C65	C	2.247455	-0.544512	-1.274025
C66	C	2.329004	-0.722079	-1.394398
C67	C	2.361388	-0.875458	-1.327523
C68	C	2.312222	-0.851276	-1.140266
C69	C	2.230672	-0.673709	-1.019893
H70	H	2.223483	-0.430967	-1.323538
H71	H	2.365401	-0.739979	-1.533018
H72	H	2.421756	-1.006904	-1.416631
H73	H	2.336193	-0.964821	-1.090753
H74	H	2.194276	-0.655808	-0.881272
H75	H	2.232516	-0.817202	-0.505826
H76	H	2.791135	-0.361441	-0.997343
H77	H	2.872370	-0.401693	-1.306204
H78	H	2.742772	-0.405200	-1.445576
H79	H	2.531918	-0.368446	-1.276031
H80	H	2.450659	-0.328184	-0.967123
H81	H	2.432194	-0.224900	-0.023589
H82	H	2.333248	-0.184591	0.285277
H83	H	2.636310	-0.151338	0.315662
H84	H	2.735283	-0.191659	0.006750
H85	H	2.473036	-0.735919	-0.484822
H86	H	2.732516	-0.817202	-0.505826
