data_functionalizedCrystal
_audit_creation_method	'MofGen! by Chris Wilmer'
_symmetry_space_group_name_H-M	'P1'
_symmetry_Int_Tables_number	1
_symmetry_cell_setting	triclinic
loop_
_symmetry_equiv_pos_as_xyz
  x,y,z
_cell_length_a	29.839135
_cell_length_b	29.839131
_cell_length_c	29.839135
_cell_angle_alpha	89.999332
_cell_angle_beta	89.988440
_cell_angle_gamma	90.043247
loop_
_atom_site_label
_atom_site_type_symbol
_atom_site_fract_x
_atom_site_fract_y
_atom_site_fract_z
Zn1	Zn	-0.686701	0.178970	0.254050
Zn2	Zn	-0.436701	0.428970	0.504050
Zn3	Zn	-0.186701	0.678970	0.754050
Zn4	Zn	0.063299	0.928970	1.004050
Zn5	Zn	-0.686639	0.254060	0.178920
Zn6	Zn	-0.436639	0.504060	0.428920
Zn7	Zn	-0.186639	0.754060	0.678920
Zn8	Zn	0.063361	1.004060	0.928920
Zn9	Zn	-0.611589	0.178947	0.178928
Zn10	Zn	-0.361589	0.428947	0.428928
Zn11	Zn	-0.111589	0.678947	0.678928
Zn12	Zn	0.138411	0.928947	0.928928
Zn13	Zn	-0.611532	0.254076	0.254017
Zn14	Zn	-0.361532	0.504076	0.504017
Zn15	Zn	-0.111532	0.754076	0.754017
Zn16	Zn	0.138468	1.004076	1.004017
O17	O	-0.649115	0.216513	0.216479
O18	O	-0.399115	0.466513	0.466479
O19	O	-0.149115	0.716513	0.716479
O20	O	0.100885	0.966513	0.966479
O21	O	-0.749560	0.188934	0.244095
O22	O	-0.499560	0.438934	0.494095
O23	O	-0.249560	0.688934	0.744095
O24	O	0.000440	0.938934	0.994095
O25	O	-0.676681	0.244079	0.116054
O26	O	-0.426681	0.494079	0.366054
O27	O	-0.176681	0.744079	0.616054
O28	O	0.073319	0.994079	0.866054
O29	O	-0.621603	0.116083	0.188910
O30	O	-0.371603	0.366083	0.438910
O31	O	-0.121603	0.616083	0.688910
O32	O	0.128397	0.866083	0.938910
O33	O	-0.749514	0.244102	0.188897
O34	O	-0.499514	0.494102	0.438897
O35	O	-0.249514	0.744102	0.688897
O36	O	0.000486	0.994102	0.938897
O37	O	-0.676788	0.116100	0.244102
O38	O	-0.426788	0.366100	0.494102
O39	O	-0.176788	0.616100	0.744102
O40	O	0.073212	0.866100	0.994102
O41	O	-0.621543	0.188894	0.116060
O42	O	-0.371543	0.438894	0.366060
O43	O	-0.121543	0.688894	0.616060
O44	O	0.128457	0.938894	0.866060
O45	O	-0.548715	0.188910	0.188878
O46	O	-0.298715	0.438910	0.438878
O47	O	-0.048715	0.688910	0.688878
O48	O	0.201285	0.938910	0.938878
O49	O	-0.621505	0.244130	0.316888
O50	O	-0.371505	0.494130	0.566888
O51	O	-0.121505	0.744130	0.816888
O52	O	0.128495	0.994130	1.066888
O53	O	-0.548672	0.244107	0.244045
O54	O	-0.298672	0.494107	0.494045
O55	O	-0.048672	0.744107	0.744045
O56	O	0.201328	0.994107	0.994045
O57	O	-0.676731	0.188950	0.316913
O58	O	-0.426731	0.438950	0.566913
O59	O	-0.176731	0.688950	0.816913
O60	O	0.073269	0.938950	1.066913
O61	O	-0.676625	0.316929	0.188865
O62	O	-0.426625	0.566929	0.438865
O63	O	-0.176625	0.816929	0.688865
O64	O	0.073375	1.066929	0.938865
O65	O	-0.621444	0.316941	0.244038
O66	O	-0.371444	0.566941	0.494038
O67	O	-0.121444	0.816941	0.744038
O68	O	0.128556	1.066941	0.994038
C69	C	-0.532393	0.216508	0.216459
C70	C	-0.282393	0.466508	0.466459
C71	C	-0.032393	0.716508	0.716459
C72	C	0.217607	0.966508	0.966459
C73	C	-0.482458	0.216517	0.216461
C74	C	-0.232458	0.466517	0.466461
C75	C	0.017542	0.716517	0.716461
C76	C	0.267542	0.966517	0.966461
C77	C	-0.172836	0.187825	0.245260
C78	C	0.077164	0.437825	0.495260
C79	C	0.327164	0.687825	0.745260
C80	C	0.577164	0.937825	0.995260
C81	C	0.014837	0.187826	0.245272
C82	C	0.264837	0.437826	0.495272
C83	C	0.514837	0.687826	0.745272
C84	C	0.764837	0.937826	0.995272
O85	O	0.039085	0.163423	0.269738
O86	O	0.289085	0.413423	0.519738
O87	O	0.539085	0.663423	0.769738
O88	O	0.789085	0.913423	1.019738
N89	N	0.038327	0.216505	0.216492
N90	N	0.288327	0.466505	0.466492
N91	N	0.538327	0.716505	0.716492
N92	N	0.788327	0.966505	0.966492
C93	C	0.014895	0.245185	0.187705
C94	C	0.264895	0.495185	0.437705
C95	C	0.514895	0.745185	0.687705
C96	C	0.764895	0.995185	0.937705
O97	O	0.039181	0.269575	0.163223
O98	O	0.289181	0.519575	0.413223
O99	O	0.539181	0.769575	0.663223
O100	O	0.789181	1.019575	0.913223
C101	C	-0.172777	0.245181	0.187691
C102	C	0.077223	0.495181	0.437691
C103	C	0.327223	0.745181	0.687691
C104	C	0.577223	0.995181	0.937691
C105	C	-0.196264	0.216503	0.216476
C106	C	0.053736	0.466503	0.466476
C107	C	0.303736	0.716503	0.716476
C108	C	0.553736	0.966503	0.966476
C109	C	-0.196323	0.159149	0.274043
C110	C	0.053677	0.409149	0.524043
C111	C	0.303677	0.659149	0.774043
C112	C	0.553677	0.909149	1.024043
C113	C	-0.243238	0.159150	0.274042
C114	C	0.006762	0.409150	0.524042
C115	C	0.256762	0.659150	0.774042
C116	C	0.506762	0.909150	1.024042
C117	C	-0.266666	0.187829	0.245257
C118	C	-0.016666	0.437829	0.495257
C119	C	0.233334	0.687829	0.745257
C120	C	0.483334	0.937829	0.995257
C121	C	-0.243179	0.216505	0.216475
C122	C	0.006821	0.466505	0.466475
C123	C	0.256821	0.716505	0.716475
C124	C	0.506821	0.966505	0.966475
C125	C	-0.196208	0.273858	0.158902
C126	C	0.053792	0.523858	0.408902
C127	C	0.303792	0.773858	0.658902
C128	C	0.553792	1.023858	0.908902
C129	C	-0.243129	0.273854	0.158900
C130	C	0.006871	0.523854	0.408900
C131	C	0.256871	0.773854	0.658900
C132	C	0.506871	1.023854	0.908900
C133	C	-0.266616	0.245175	0.187685
C134	C	-0.016616	0.495175	0.437685
C135	C	0.233384	0.745175	0.687685
C136	C	0.483384	0.995175	0.937685
C137	C	-0.313523	0.245185	0.187689
C138	C	-0.063523	0.495185	0.437689
C139	C	0.186477	0.745185	0.687689
C140	C	0.436477	0.995185	0.937689
N141	N	-0.337013	0.216505	0.216469
N142	N	-0.087013	0.466505	0.466469
N143	N	0.162987	0.716505	0.716469
N144	N	0.412987	0.966505	0.966469
C145	C	-0.313584	0.187827	0.245253
C146	C	-0.063584	0.437827	0.495253
C147	C	0.186416	0.687827	0.745253
C148	C	0.436416	0.937827	0.995253
C149	C	0.113426	0.245185	0.187715
C150	C	0.363426	0.495185	0.437715
C151	C	0.613426	0.745185	0.687715
C152	C	0.863426	0.995185	0.937715
C153	C	0.160344	0.245186	0.187719
C154	C	0.410344	0.495186	0.437719
C155	C	0.660344	0.745186	0.687719
C156	C	0.910344	0.995186	0.937719
C157	C	0.160283	0.187827	0.245286
C158	C	0.410283	0.437827	0.495286
C159	C	0.660283	0.687827	0.745286
C160	C	0.910283	0.937827	0.995286
C161	C	0.113364	0.187828	0.245284
C162	C	0.363364	0.437828	0.495284
C163	C	0.613364	0.687828	0.745284
C164	C	0.863364	0.937828	0.995284
C165	C	0.089936	0.216505	0.216495
C166	C	0.339936	0.466505	0.466495
C167	C	0.589936	0.716505	0.716495
C168	C	0.839936	0.966505	0.966495
C169	C	-0.412110	0.187833	0.245248
C170	C	-0.162110	0.437833	0.495248
C171	C	0.087890	0.687833	0.745248
C172	C	0.337890	0.937833	0.995248
C173	C	-0.459030	0.187839	0.245245
C174	C	-0.209030	0.437839	0.495245
C175	C	0.040970	0.687839	0.745245
C176	C	0.290970	0.937839	0.995245
C177	C	-0.458965	0.245197	0.187677
C178	C	-0.208965	0.495197	0.437677
C179	C	0.041035	0.745197	0.687677
C180	C	0.291035	0.995197	0.937677
C181	C	-0.412049	0.245193	0.187681
C182	C	-0.162049	0.495193	0.437681
C183	C	0.087951	0.745193	0.687681
C184	C	0.337951	0.995193	0.937681
C185	C	-0.388623	0.216508	0.216468
C186	C	-0.138623	0.466508	0.466468
C187	C	0.111377	0.716508	0.716468
C188	C	0.361377	0.966508	0.966468
O189	O	-0.337799	0.269571	0.163233
O190	O	-0.087799	0.519571	0.413233
O191	O	0.162201	0.769571	0.663233
O192	O	0.412201	1.019571	0.913233
O193	O	-0.337878	0.163433	0.269725
O194	O	-0.087878	0.413433	0.519725
O195	O	0.162122	0.663433	0.769725
O196	O	0.412122	0.913433	1.019725
C197	C	-0.125920	0.187823	0.245262
C198	C	0.124080	0.437823	0.495262
C199	C	0.374080	0.687823	0.745262
C200	C	0.624080	0.937823	0.995262
C201	C	-0.102433	0.216499	0.216479
C202	C	0.147567	0.466499	0.466479
C203	C	0.397567	0.716499	0.716479
C204	C	0.647567	0.966499	0.966479
C205	C	-0.125861	0.245177	0.187695
C206	C	0.124139	0.495177	0.437695
C207	C	0.374139	0.745177	0.687695
C208	C	0.624139	0.995177	0.937695
C209	C	-0.055515	0.216501	0.216483
C210	C	0.194485	0.466501	0.466483
C211	C	0.444485	0.716501	0.716483
C212	C	0.694485	0.966501	0.966483
C213	C	-0.032087	0.187823	0.245267
C214	C	0.217913	0.437823	0.495267
C215	C	0.467913	0.687823	0.745267
C216	C	0.717913	0.937823	0.995267
C217	C	-0.055576	0.159143	0.274048
C218	C	0.194424	0.409143	0.524048
C219	C	0.444424	0.659143	0.774048
C220	C	0.694424	0.909143	1.024048
C221	C	-0.102492	0.159145	0.274046
C222	C	0.147508	0.409145	0.524046
C223	C	0.397508	0.659145	0.774046
C224	C	0.647508	0.909145	1.024046
C225	C	-0.102372	0.273857	0.158915
C226	C	0.147628	0.523857	0.408915
C227	C	0.397628	0.773857	0.658915
C228	C	0.647628	1.023857	0.908915
C229	C	-0.055456	0.273853	0.158919
C230	C	0.194544	0.523853	0.408919
C231	C	0.444544	0.773853	0.658919
C232	C	0.694544	1.023853	0.908919
C233	C	-0.032028	0.245175	0.187703
C234	C	0.217972	0.495175	0.437703
C235	C	0.467972	0.745175	0.687703
C236	C	0.717972	0.995175	0.937703
C237	C	-0.649034	0.333236	0.216457
C238	C	-0.399034	0.583236	0.466457
C239	C	-0.149034	0.833236	0.716457
C240	C	0.100966	1.083236	0.966457
C241	C	-0.649040	0.383170	0.216462
C242	C	-0.399040	0.633170	0.466462
C243	C	-0.149040	0.883170	0.716462
C244	C	0.100960	1.133170	0.966462
C245	C	-0.649119	0.216544	0.333657
C246	C	-0.399119	0.466544	0.583657
C247	C	-0.149119	0.716544	0.833657
C248	C	0.100881	0.966544	1.083657
C249	C	-0.649120	0.216557	0.383592
C250	C	-0.399120	0.466557	0.633592
C251	C	-0.149120	0.716557	0.883592
C252	C	0.100880	0.966557	1.133592
C253	C	0.233707	0.216515	0.216498
C254	C	0.483707	0.466515	0.466498
C255	C	0.733707	0.716515	0.716498
C256	C	0.983707	0.966515	0.966498
C257	C	0.183772	0.216508	0.216503
C258	C	0.433772	0.466508	0.466503
C259	C	0.683772	0.716508	0.716503
C260	C	0.933772	0.966508	0.966503
C261	C	-0.649209	0.099335	0.216511
C262	C	-0.399209	0.349335	0.466511
C263	C	-0.149209	0.599335	0.716511
C264	C	0.100791	0.849335	0.966511
C265	C	-0.649249	0.049400	0.216525
C266	C	-0.399249	0.299400	0.466525
C267	C	-0.149249	0.549400	0.716525
C268	C	0.100751	0.799400	0.966525
C269	C	-0.677900	0.692795	0.187792
C270	C	-0.427900	0.942795	0.437792
C271	C	-0.177900	1.192795	0.687792
C272	C	0.072100	1.442795	0.937792
C273	C	-0.677955	0.880468	0.187810
C274	C	-0.427955	1.130468	0.437810
C275	C	-0.177955	1.380468	0.687810
C276	C	0.072045	1.630468	0.937810
O277	O	-0.702429	0.904716	0.163416
O278	O	-0.452429	1.154716	0.413416
O279	O	-0.202429	1.404716	0.663416
O280	O	0.047571	1.654716	0.913416
N281	N	-0.649208	0.903955	0.216513
N282	N	-0.399208	1.153955	0.466513
N283	N	-0.149208	1.403955	0.716513
N284	N	0.100792	1.653955	0.966513
C285	C	-0.620447	0.880522	0.245216
C286	C	-0.370447	1.130522	0.495216
C287	C	-0.120447	1.380522	0.745216
C288	C	0.129553	1.630522	0.995216
O289	O	-0.596000	0.904805	0.269633
O290	O	-0.346000	1.154805	0.519633
O291	O	-0.096000	1.404805	0.769633
O292	O	0.154000	1.654805	1.019633
C293	C	-0.620394	0.692849	0.245200
C294	C	-0.370394	0.942849	0.495200
C295	C	-0.120394	1.192849	0.745200
C296	C	0.129606	1.442849	0.995200
C297	C	-0.649140	0.669364	0.216492
C298	C	-0.399140	0.919364	0.466492
C299	C	-0.149140	1.169364	0.716492
C300	C	0.100860	1.419364	0.966492
C301	C	-0.706644	0.669309	0.159087
C302	C	-0.456644	0.919309	0.409087
C303	C	-0.206644	1.169309	0.659087
C304	C	0.043356	1.419309	0.909087
C305	C	-0.706628	0.622394	0.159081
C306	C	-0.456628	0.872394	0.409081
C307	C	-0.206628	1.122394	0.659081
C308	C	0.043372	1.372394	0.909081
C309	C	-0.677868	0.598964	0.187781
C310	C	-0.427868	0.848964	0.437781
C311	C	-0.177868	1.098964	0.687781
C312	C	0.072132	1.348964	0.937781
C313	C	-0.649124	0.622449	0.216486
C314	C	-0.399124	0.872449	0.466486
C315	C	-0.149124	1.122449	0.716486
C316	C	0.100876	1.372449	0.966486
C317	C	-0.591636	0.669417	0.273905
C318	C	-0.341636	0.919417	0.523905
C319	C	-0.091636	1.169417	0.773905
C320	C	0.158364	1.419417	1.023905
C321	C	-0.591626	0.622496	0.273899
C322	C	-0.341626	0.872496	0.523899
C323	C	-0.091626	1.122496	0.773899
C324	C	0.158374	1.372496	1.023899
C325	C	-0.620372	0.599011	0.245191
C326	C	-0.370372	0.849011	0.495191
C327	C	-0.120372	1.099011	0.745191
C328	C	0.129628	1.349011	0.995191
C329	C	-0.620349	0.552103	0.245180
C330	C	-0.370349	0.802103	0.495180
C331	C	-0.120349	1.052103	0.745180
C332	C	0.129651	1.302103	0.995180
N333	N	-0.649096	0.528616	0.216477
N334	N	-0.399096	0.778616	0.466477
N335	N	-0.149096	1.028616	0.716477
N336	N	0.100904	1.278616	0.966477
C337	C	-0.677856	0.552046	0.187777
C338	C	-0.427856	0.802046	0.437777
C339	C	-0.177856	1.052046	0.687777
C340	C	0.072144	1.302046	0.937777
C341	C	-0.620476	0.979052	0.245221
C342	C	-0.370476	1.229052	0.495221
C343	C	-0.120476	1.479052	0.745221
C344	C	0.129524	1.729052	0.995221
C345	C	-0.620489	1.025970	0.245224
C346	C	-0.370489	1.275970	0.495224
C347	C	-0.120489	1.525970	0.745224
C348	C	0.129511	1.775970	0.995224
C349	C	-0.677998	1.025913	0.187819
C350	C	-0.427998	1.275913	0.437819
C351	C	-0.177998	1.525913	0.687819
C352	C	0.072002	1.775913	0.937819
C353	C	-0.677983	0.978994	0.187814
C354	C	-0.427983	1.228994	0.437814
C355	C	-0.177983	1.478994	0.687814
C356	C	0.072017	1.728994	0.937814
C357	C	-0.649224	0.955565	0.216518
C358	C	-0.399224	1.205565	0.466518
C359	C	-0.149224	1.455565	0.716518
C360	C	0.100776	1.705565	0.966518
C361	C	-0.677820	0.453520	0.187767
C362	C	-0.427820	0.703520	0.437767
C363	C	-0.177820	0.953520	0.687767
C364	C	0.072180	1.203520	0.937767
C365	C	-0.677800	0.406600	0.187762
C366	C	-0.427800	0.656600	0.437762
C367	C	-0.177800	0.906600	0.687762
C368	C	0.072200	1.156600	0.937762
C369	C	-0.620293	0.406662	0.245169
C370	C	-0.370293	0.656662	0.495169
C371	C	-0.120293	0.906662	0.745169
C372	C	0.129707	1.156662	0.995169
C373	C	-0.620311	0.453577	0.245172
C374	C	-0.370311	0.703577	0.495172
C375	C	-0.120311	0.953577	0.745172
C376	C	0.129689	1.203577	0.995172
C377	C	-0.649078	0.477005	0.216470
C378	C	-0.399078	0.727005	0.466470
C379	C	-0.149078	0.977005	0.716470
C380	C	0.100922	1.227005	0.966470
O381	O	-0.595892	0.527825	0.269564
O382	O	-0.345892	0.777825	0.519564
O383	O	-0.095892	1.027825	0.769564
O384	O	0.154108	1.277825	1.019564
O385	O	-0.702306	0.527754	0.163370
O386	O	-0.452306	0.777754	0.413370
O387	O	-0.202306	1.027754	0.663370
O388	O	0.047694	1.277754	0.913370
C389	C	-0.677916	0.739710	0.187798
C390	C	-0.427916	0.989710	0.437798
C391	C	-0.177916	1.239710	0.687798
C392	C	0.072084	1.489710	0.937798
C393	C	-0.649172	0.763195	0.216504
C394	C	-0.399172	1.013195	0.466504
C395	C	-0.149172	1.263195	0.716504
C396	C	0.100828	1.513195	0.966504
C397	C	-0.620412	0.739765	0.245203
C398	C	-0.370412	0.989765	0.495203
C399	C	-0.120412	1.239765	0.745203
C400	C	0.129588	1.489765	0.995203
C401	C	-0.649185	0.810113	0.216507
C402	C	-0.399185	1.060113	0.466507
C403	C	-0.149185	1.310113	0.716507
C404	C	0.100815	1.560113	0.966507
C405	C	-0.677944	0.833543	0.187807
C406	C	-0.427944	1.083543	0.437807
C407	C	-0.177944	1.333543	0.687807
C408	C	0.072056	1.583543	0.937807
C409	C	-0.706692	0.810056	0.159104
C410	C	-0.456692	1.060056	0.409104
C411	C	-0.206692	1.310056	0.659104
C412	C	0.043308	1.560056	0.909104
C413	C	-0.706676	0.763140	0.159098
C414	C	-0.456676	1.013140	0.409098
C415	C	-0.206676	1.263140	0.659098
C416	C	0.043324	1.513140	0.909098
C417	C	-0.591665	0.763252	0.273906
C418	C	-0.341665	1.013252	0.523906
C419	C	-0.091665	1.263252	0.773906
C420	C	0.158335	1.513252	1.023906
C421	C	-0.591683	0.810168	0.273909
C422	C	-0.341683	1.060168	0.523909
C423	C	-0.091683	1.310168	0.773909
C424	C	0.158317	1.560168	1.023909
C425	C	-0.620443	0.833598	0.245210
C426	C	-0.370443	1.083598	0.495210
C427	C	-0.120443	1.333598	0.745210
C428	C	0.129557	1.583598	0.995210
C429	C	-0.620358	0.245254	0.740166
C430	C	-0.370358	0.495254	0.990166
C431	C	-0.120358	0.745254	1.240166
C432	C	0.129642	0.995254	1.490166
C433	C	-0.620361	0.245270	0.552493
C434	C	-0.370361	0.495270	0.802493
C435	C	-0.120361	0.745270	1.052493
C436	C	0.129639	0.995270	1.302493
O437	O	-0.595896	0.269692	0.528218
O438	O	-0.345896	0.519692	0.778218
O439	O	-0.095896	0.769692	1.028218
O440	O	0.154104	1.019692	1.278218
N441	N	-0.649115	0.216543	0.529037
N442	N	-0.399115	0.466543	0.779037
N443	N	-0.149115	0.716543	1.029037
N444	N	0.100885	0.966543	1.279037
C445	C	-0.677868	0.187808	0.552502
C446	C	-0.427868	0.437808	0.802502
C447	C	-0.177868	0.687808	1.052502
C448	C	0.072132	0.937808	1.302502
O449	O	-0.702322	0.163371	0.528245
O450	O	-0.452322	0.413371	0.778245
O451	O	-0.202322	0.663371	1.028245
O452	O	0.047678	0.913371	1.278245
C453	C	-0.677863	0.187790	0.740174
C454	C	-0.427863	0.437790	0.990174
C455	C	-0.177863	0.687790	1.240174
C456	C	0.072137	0.937790	1.490174
C457	C	-0.649110	0.216522	0.763628
C458	C	-0.399110	0.466522	1.013628
C459	C	-0.149110	0.716522	1.263628
C460	C	0.100890	0.966522	1.513628
C461	C	-0.591608	0.273984	0.763620
C462	C	-0.341608	0.523984	1.013620
C463	C	-0.091608	0.773984	1.263620
C464	C	0.158392	1.023984	1.513620
C465	C	-0.591609	0.273981	0.810535
C466	C	-0.341609	0.523981	1.060535
C467	C	-0.091609	0.773981	1.310535
C468	C	0.158391	1.023981	1.560535
C469	C	-0.620361	0.245249	0.833997
C470	C	-0.370361	0.495249	1.083997
C471	C	-0.120361	0.745249	1.333997
C472	C	0.129639	0.995249	1.583997
C473	C	-0.649111	0.216520	0.810543
C474	C	-0.399111	0.466520	1.060543
C475	C	-0.149111	0.716520	1.310543
C476	C	0.100889	0.966520	1.560543
C477	C	-0.706613	0.159053	0.763638
C478	C	-0.456613	0.409053	1.013638
C479	C	-0.206613	0.659053	1.263638
C480	C	0.043387	0.909053	1.513638
C481	C	-0.706608	0.159050	0.810559
C482	C	-0.456608	0.409050	1.060559
C483	C	-0.206608	0.659050	1.310559
C484	C	0.043392	0.909050	1.560559
C485	C	-0.677856	0.187783	0.834013
C486	C	-0.427856	0.437783	1.084013
C487	C	-0.177856	0.687783	1.334013
C488	C	0.072144	0.937783	1.584013
C489	C	-0.677865	0.187785	0.880920
C490	C	-0.427865	0.437785	1.130920
C491	C	-0.177865	0.687785	1.380920
C492	C	0.072135	0.937785	1.630920
N493	N	-0.649111	0.216512	0.904376
N494	N	-0.399111	0.466512	1.154376
N495	N	-0.149111	0.716512	1.404376
N496	N	0.100889	0.966512	1.654376
C497	C	-0.620359	0.245244	0.880915
C498	C	-0.370359	0.495244	1.130915
C499	C	-0.120359	0.745244	1.380915
C500	C	0.129641	0.995244	1.630915
C501	C	-0.677870	0.187820	0.453971
C502	C	-0.427870	0.437820	0.703971
C503	C	-0.177870	0.687820	0.953971
C504	C	0.072130	0.937820	1.203971
C505	C	-0.677872	0.187825	0.407053
C506	C	-0.427872	0.437825	0.657053
C507	C	-0.177872	0.687825	0.907053
C508	C	0.072128	0.937825	1.157053
C509	C	-0.620364	0.245287	0.407048
C510	C	-0.370364	0.495287	0.657048
C511	C	-0.120364	0.745287	0.907048
C512	C	0.129636	0.995287	1.157048
C513	C	-0.620365	0.245284	0.453966
C514	C	-0.370365	0.495284	0.703966
C515	C	-0.120365	0.745284	0.953966
C516	C	0.129635	0.995284	1.203966
C517	C	-0.649116	0.216547	0.477427
C518	C	-0.399116	0.466547	0.727427
C519	C	-0.149116	0.716547	0.977427
C520	C	0.100884	0.966547	1.227427
C521	C	-0.620364	0.245237	0.979441
C522	C	-0.370364	0.495237	1.229441
C523	C	-0.120364	0.745237	1.479441
C524	C	0.129636	0.995237	1.729441
C525	C	-0.620369	0.245233	1.026360
C526	C	-0.370369	0.495233	1.276360
C527	C	-0.120369	0.745233	1.526360
C528	C	0.129631	0.995233	1.776360
C529	C	-0.677875	0.187770	1.026362
C530	C	-0.427875	0.437770	1.276362
C531	C	-0.177875	0.687770	1.526362
C532	C	0.072125	0.937770	1.776362
C533	C	-0.677872	0.187775	0.979446
C534	C	-0.427872	0.437775	1.229446
C535	C	-0.177872	0.687775	1.479446
C536	C	0.072128	0.937775	1.729446
C537	C	-0.649112	0.216510	0.955987
C538	C	-0.399112	0.466510	1.205987
C539	C	-0.149112	0.716510	1.455987
C540	C	0.100888	0.966510	1.705987
O541	O	-0.702313	0.163373	0.905225
O542	O	-0.452313	0.413373	1.155225
O543	O	-0.202313	0.663373	1.405225
O544	O	0.047687	0.913373	1.655225
O545	O	-0.595902	0.269671	0.905180
O546	O	-0.345902	0.519671	1.155180
O547	O	-0.095902	0.769671	1.405180
O548	O	0.154098	1.019671	1.655180
C549	C	-0.620357	0.245257	0.693251
C550	C	-0.370357	0.495257	0.943251
C551	C	-0.120357	0.745257	1.193251
C552	C	0.129643	0.995257	1.443251
C553	C	-0.649108	0.216528	0.669797
C554	C	-0.399108	0.466528	0.919797
C555	C	-0.149108	0.716528	1.169797
C556	C	0.100892	0.966528	1.419797
C557	C	-0.677859	0.187795	0.693258
C558	C	-0.427859	0.437795	0.943258
C559	C	-0.177859	0.687795	1.193258
C560	C	0.072141	0.937795	1.443258
C561	C	-0.649110	0.216532	0.622879
C562	C	-0.399110	0.466532	0.872879
C563	C	-0.149110	0.716532	1.122879
C564	C	0.100890	0.966532	1.372879
C565	C	-0.620358	0.245265	0.599417
C566	C	-0.370358	0.495265	0.849417
C567	C	-0.120358	0.745265	1.099417
C568	C	0.129642	0.995265	1.349417
C569	C	-0.591604	0.273992	0.622873
C570	C	-0.341604	0.523992	0.872873
C571	C	-0.091604	0.773992	1.122873
C572	C	0.158396	1.023992	1.372873
C573	C	-0.591605	0.273989	0.669789
C574	C	-0.341605	0.523989	0.919789
C575	C	-0.091605	0.773989	1.169789
C576	C	0.158395	1.023989	1.419789
C577	C	-0.706613	0.159068	0.669802
C578	C	-0.456613	0.409068	0.919802
C579	C	-0.206613	0.659068	1.169802
C580	C	0.043387	0.909068	1.419802
C581	C	-0.706610	0.159074	0.622887
C582	C	-0.456610	0.409074	0.872887
C583	C	-0.206610	0.659074	1.122887
C584	C	0.043390	0.909074	1.372887
C585	C	-0.677858	0.187806	0.599425
C586	C	-0.427858	0.437806	0.849425
C587	C	-0.177858	0.687806	1.099425
C588	C	0.072142	0.937806	1.349425
C589	C	-0.649112	0.216498	1.099756
C590	C	-0.399112	0.466498	1.349756
C591	C	-0.149112	0.716498	1.599756
C592	C	0.100888	0.966498	1.849756
C593	C	-0.649121	0.216501	1.049822
C594	C	-0.399121	0.466501	1.299822
C595	C	-0.149121	0.716501	1.549822
C596	C	0.100879	0.966501	1.799822
H597	H	-0.262201	0.297206	0.135456
H598	H	-0.012201	0.547206	0.385456
H599	H	0.237799	0.797206	0.635456
H600	H	0.487799	1.047206	0.885456
H601	H	-0.568226	0.688530	0.297280
H602	H	-0.318226	0.938530	0.547280
H603	H	-0.068226	1.188530	0.797280
H604	H	0.181774	1.438530	1.047280
H605	H	-0.568207	0.603422	0.297275
H606	H	-0.318207	0.853422	0.547275
H607	H	-0.068207	1.103422	0.797275
H608	H	0.181793	1.353422	1.047275
H609	H	-0.177092	0.297210	0.135461
H610	H	0.072908	0.547210	0.385461
H611	H	0.322908	0.797210	0.635461
H612	H	0.572908	1.047210	0.885461
O613	O	-0.737625	0.128083	0.597591
O614	O	-0.487625	0.378083	0.847591
O615	O	-0.237625	0.628083	1.097591
O616	O	0.012375	0.878083	1.347591
H617	H	-0.757613	0.108102	0.621793
H618	H	-0.507613	0.358102	0.871793
H619	H	-0.257613	0.608102	1.121793
H620	H	-0.007613	0.858102	1.371793
H621	H	0.179366	0.164476	0.268723
H622	H	0.429366	0.414476	0.518723
H623	H	0.679366	0.664476	0.768723
H624	H	0.929366	0.914476	1.018723
H625	H	-0.392925	0.268550	0.164247
H626	H	-0.142925	0.518550	0.414247
H627	H	0.107075	0.768550	0.664247
H628	H	0.357075	1.018550	0.914247
H629	H	0.094356	0.268539	0.164270
H630	H	0.344356	0.518539	0.414270
H631	H	0.594356	0.768539	0.664270
H632	H	0.844356	1.018539	0.914270
H633	H	-0.478048	0.268547	0.164243
H634	H	-0.228048	0.518547	0.414243
H635	H	0.021952	0.768547	0.664243
H636	H	0.271952	1.018547	0.914243
O637	O	-0.737639	0.597066	0.128124
O638	O	-0.487639	0.847066	0.378124
O639	O	-0.237639	1.097066	0.628124
O640	O	0.012361	1.347066	0.878124
H641	H	-0.757642	0.621247	0.108175
H642	H	-0.507642	0.871247	0.358175
H643	H	-0.257642	1.121247	0.608175
H644	H	-0.007642	1.371247	0.858175
H645	H	-0.730083	0.744022	0.135722
H646	H	-0.480083	0.994022	0.385722
H647	H	-0.230083	1.244022	0.635722
H648	H	0.019917	1.494022	0.885722
H649	H	-0.597056	0.959979	0.268596
H650	H	-0.347056	1.209979	0.518596
H651	H	-0.097056	1.459979	0.768596
H652	H	0.152944	1.709979	1.018596
H653	H	-0.036493	0.135794	0.297486
H654	H	0.213507	0.385794	0.547486
H655	H	0.463507	0.635794	0.797486
H656	H	0.713507	0.885794	1.047486
H657	H	-0.596942	0.268632	0.960346
H658	H	-0.346942	0.518632	1.210346
H659	H	-0.096942	0.768632	1.460346
H660	H	0.153058	1.018632	1.710346
O661	O	-0.589476	1.051295	0.276183
O662	O	-0.339476	1.301295	0.526183
O663	O	-0.089476	1.551295	0.776183
O664	O	0.160524	1.801295	1.026183
H665	H	-0.594310	1.087858	0.271364
H666	H	-0.344310	1.337858	0.521364
H667	H	-0.094310	1.587858	0.771364
H668	H	0.155690	1.837858	1.021364
H669	H	-0.730027	0.135657	0.744550
H670	H	-0.480027	0.385657	0.994550
H671	H	-0.230027	0.635657	1.244550
H672	H	0.019973	0.885657	1.494550
O673	O	-0.708995	0.953669	0.156855
O674	O	-0.458995	1.203669	0.406855
O675	O	-0.208995	1.453669	0.656855
O676	O	0.041005	1.703669	0.906855
H677	H	-0.731830	0.932271	0.176987
H678	H	-0.481830	1.182271	0.426987
H679	H	-0.231830	1.432271	0.676987
H680	H	0.018170	1.682271	0.926987
O681	O	-0.268565	0.128209	0.305081
O682	O	-0.018565	0.378209	0.555081
O683	O	0.231435	0.628209	0.805081
O684	O	0.481435	0.878209	1.055081
H685	H	-0.259559	0.135971	0.340327
H686	H	-0.009559	0.385971	0.590327
H687	H	0.240441	0.635971	0.840327
H688	H	0.490441	0.885971	1.090327
O689	O	-0.560586	0.304975	0.738327
O690	O	-0.310586	0.554975	0.988327
O691	O	-0.060586	0.804975	1.238327
O692	O	0.189414	1.054975	1.488327
H693	H	-0.580668	0.327840	0.716955
H694	H	-0.330668	0.577840	0.966955
H695	H	-0.080668	0.827840	1.216955
H696	H	0.169332	1.077840	1.466955
H697	H	-0.177252	0.135793	0.297483
H698	H	0.072748	0.385793	0.547483
H699	H	0.322748	0.635793	0.797483
H700	H	0.572748	0.885793	1.047483
H701	H	-0.701415	1.044998	0.164451
H702	H	-0.451415	1.294998	0.414451
H703	H	-0.201415	1.544998	0.664451
H704	H	0.048585	1.794998	0.914451
H705	H	-0.121611	0.135792	0.297486
H706	H	0.128389	0.385792	0.547486
H707	H	0.378389	0.635792	0.797486
H708	H	0.628389	0.885792	1.047486
H709	H	-0.730066	0.688381	0.135716
H710	H	-0.480066	0.938381	0.385716
H711	H	-0.230066	1.188381	0.635716
H712	H	0.019934	1.438381	0.885716
H713	H	-0.568271	0.829286	0.297287
H714	H	-0.318271	1.079286	0.547287
H715	H	-0.068271	1.329286	0.797287
H716	H	0.181729	1.579286	1.047287
H717	H	0.094244	0.164475	0.268722
H718	H	0.344244	0.414475	0.518722
H719	H	0.594244	0.664475	0.768722
H720	H	0.844244	0.914475	1.018722
O721	O	-0.589307	0.478912	0.276134
O722	O	-0.339307	0.728912	0.526134
O723	O	-0.089307	0.978912	0.776134
O724	O	0.160693	1.228912	1.026134
H725	H	-0.569307	0.454735	0.296091
H726	H	-0.319307	0.704735	0.546091
H727	H	-0.069307	0.954735	0.796091
H728	H	0.180693	1.204735	1.046091
H729	H	-0.121442	0.297210	0.135474
H730	H	0.128558	0.547210	0.385474
H731	H	0.378558	0.797210	0.635474
H732	H	0.628558	1.047210	0.885474
H733	H	0.179463	0.268544	0.164284
H734	H	0.429463	0.518544	0.414284
H735	H	0.679463	0.768544	0.664284
H736	H	0.929463	1.018544	0.914284
O737	O	-0.030125	0.304784	0.127867
O738	O	0.219875	0.554784	0.377867
O739	O	0.469875	0.804784	0.627867
O740	O	0.719875	1.054784	0.877867
H741	H	-0.054303	0.324719	0.107849
H742	H	0.195697	0.574719	0.357849
H743	H	0.445697	0.824719	0.607849
H744	H	0.695697	1.074719	0.857849
O745	O	-0.708809	0.381269	0.156801
O746	O	-0.458809	0.631269	0.406801
O747	O	-0.208809	0.881269	0.656801
O748	O	0.041191	1.131269	0.906801
H749	H	-0.728813	0.405447	0.136850
H750	H	-0.478813	0.655447	0.386850
H751	H	-0.228813	0.905447	0.636850
H752	H	0.021187	1.155447	0.886850
H753	H	-0.701246	0.472590	0.164395
H754	H	-0.451246	0.722590	0.414395
H755	H	-0.201246	0.972590	0.664395
H756	H	0.048754	1.222590	0.914395
O757	O	-0.560633	0.737989	0.304856
O758	O	-0.310633	0.987989	0.554856
O759	O	-0.060633	1.237989	0.804856
O760	O	0.189367	1.487989	1.054856
H761	H	-0.568304	0.746985	0.340125
H762	H	-0.318304	0.996985	0.590125
H763	H	-0.068304	1.246985	0.840125
H764	H	0.181696	1.496985	1.090125
O765	O	-0.589276	0.381387	0.276126
O766	O	-0.339276	0.631387	0.526126
O767	O	-0.089276	0.881387	0.776126
O768	O	0.160724	1.131387	1.026126
H769	H	-0.594102	0.344817	0.271300
H770	H	-0.344102	0.594817	0.521300
H771	H	-0.094102	0.844817	0.771300
H772	H	0.155898	1.094817	1.021300
O773	O	-0.737721	0.835331	0.128157
O774	O	-0.487721	1.085331	0.378157
O775	O	-0.237721	1.335331	0.628157
O776	O	0.012279	1.585331	0.878157
H777	H	-0.732905	0.871900	0.132993
H778	H	-0.482905	1.121900	0.382993
H779	H	-0.232905	1.371900	0.632993
H780	H	0.017095	1.621900	0.882993
H781	H	-0.596955	0.268632	1.045454
H782	H	-0.346955	0.518632	1.295454
H783	H	-0.096955	0.768632	1.545454
H784	H	0.153045	1.018632	1.795454
O785	O	-0.560590	0.304964	0.835830
O786	O	-0.310590	0.554964	1.085830
O787	O	-0.060590	0.804964	1.335830
O788	O	0.189410	1.054964	1.585830
H789	H	-0.540595	0.324936	0.811627
H790	H	-0.290595	0.574936	1.061627
H791	H	-0.040595	0.824936	1.311627
H792	H	0.209405	1.074936	1.561627
H793	H	-0.596952	0.268680	0.473059
H794	H	-0.346952	0.518680	0.723059
H795	H	-0.096952	0.768680	0.973059
H796	H	0.153048	1.018680	1.223059
H797	H	-0.393042	0.164474	0.268688
H798	H	-0.143042	0.414474	0.518688
H799	H	0.106958	0.664474	0.768688
H800	H	0.356958	0.914474	1.018688
H801	H	-0.701285	0.164379	1.045473
H802	H	-0.451285	0.414379	1.295473
H803	H	-0.201285	0.664379	1.545473
H804	H	0.048715	0.914379	1.795473
O805	O	-0.560591	0.304977	0.695082
O806	O	-0.310591	0.554977	0.945082
O807	O	-0.060591	0.804977	1.195082
O808	O	0.189409	1.054977	1.445082
H809	H	-0.537750	0.284869	0.716453
H810	H	-0.287750	0.534869	0.966453
H811	H	-0.037750	0.784869	1.216453
H812	H	0.212250	1.034869	1.466453
O813	O	-0.589348	0.276274	0.381739
O814	O	-0.339348	0.526274	0.631739
O815	O	-0.089348	0.776274	0.881739
O816	O	0.160652	1.026274	1.131739
H817	H	-0.594180	0.271444	0.345175
H818	H	-0.344180	0.521444	0.595175
H819	H	-0.094180	0.771444	0.845175
H820	H	0.155820	1.021444	1.095175
O821	O	-0.708888	0.156840	0.381758
O822	O	-0.458888	0.406840	0.631758
O823	O	-0.208888	0.656840	0.881758
O824	O	0.041112	0.906840	1.131758
H825	H	-0.728876	0.136859	0.405959
H826	H	-0.478876	0.386859	0.655959
H827	H	-0.228876	0.636859	0.905959
H828	H	0.021124	0.886859	1.155959
H829	H	-0.701285	0.164419	0.473069
H830	H	-0.451285	0.414419	0.723069
H831	H	-0.201285	0.664419	0.973069
H832	H	0.048715	0.914419	1.223069
O833	O	-0.708883	0.156788	0.954145
O834	O	-0.458883	0.406788	1.204145
O835	O	-0.208883	0.656788	1.454145
O836	O	0.041117	0.906788	1.704145
H837	H	-0.728874	0.136807	0.978344
H838	H	-0.478874	0.386807	1.228344
H839	H	-0.228874	0.636807	1.478344
H840	H	0.021126	0.886807	1.728344
H841	H	-0.730020	0.135647	0.829658
H842	H	-0.480020	0.385647	1.079658
H843	H	-0.230020	0.635647	1.329658
H844	H	0.019980	0.885647	1.579658
H845	H	-0.568195	0.297388	0.603763
H846	H	-0.318195	0.547388	0.853763
H847	H	-0.068195	0.797388	1.103763
H848	H	0.181805	1.047388	1.353763
O849	O	-0.737629	0.128081	0.695105
O850	O	-0.487629	0.378081	0.945105
O851	O	-0.237629	0.628081	1.195105
O852	O	0.012371	0.878081	1.445105
H853	H	-0.757623	0.108111	0.670908
H854	H	-0.507623	0.358111	0.920908
H855	H	-0.257623	0.608111	1.170908
H856	H	-0.007623	0.858111	1.420908
H857	H	-0.478151	0.164485	0.268687
H858	H	-0.228151	0.414485	0.518687
H859	H	0.021849	0.664485	0.768687
H860	H	0.271849	0.914485	1.018687
