data_functionalizedCrystal
_audit_creation_method	'MofGen! by Chris Wilmer'
_symmetry_space_group_name_H-M	'P1'
_symmetry_Int_Tables_number	1
_symmetry_cell_setting	triclinic
loop_
_symmetry_equiv_pos_as_xyz
  x,y,z
_cell_length_a	27.732048
_cell_length_b	27.732048
_cell_length_c	26.809956
_cell_angle_alpha	90.000636
_cell_angle_beta	89.996742
_cell_angle_gamma	97.357345
loop_
_atom_site_label
_atom_site_type_symbol
_atom_site_fract_x
_atom_site_fract_y
_atom_site_fract_z
O1	O	0.640931	-0.057510	-0.041421
O2	O	1.140931	0.442490	0.458579
O3	O	0.500138	-0.066256	-0.041436
O4	O	1.000138	0.433744	0.458564
O5	O	0.574907	0.008514	-0.041419
O6	O	1.074907	0.508514	0.458581
O7	O	0.566162	-0.132280	-0.041439
O8	O	1.066162	0.367720	0.458561
O9	O	0.574893	0.008502	0.041541
O10	O	1.074893	0.508502	0.541541
O11	O	0.500123	-0.066267	0.041523
O12	O	1.000123	0.433733	0.541523
O13	O	0.640917	-0.057522	0.041539
O14	O	1.140917	0.442478	0.541539
Zn15	Zn	0.570518	-0.061896	0.054702
Zn16	Zn	1.070518	0.438104	0.554702
Zn17	Zn	0.570536	-0.061881	-0.054600
Zn18	Zn	1.070536	0.438119	0.445400
O19	O	0.566147	-0.132291	0.041521
O20	O	1.066147	0.367709	0.541521
C21	C	0.482124	-0.066078	0.000041
C22	C	0.982124	0.433922	0.500041
C23	C	0.428469	-0.065525	0.000036
C24	C	0.928469	0.434475	0.500036
C25	C	0.574716	0.026515	0.000062
C26	C	1.074716	0.526515	0.500062
C27	C	0.574164	0.080170	0.000066
C28	C	1.074164	0.580170	0.500066
C29	C	0.089654	-0.106229	0.000051
C30	C	0.589654	0.393771	0.500051
C31	C	-0.112006	-0.104178	0.000056
C32	C	0.387994	0.395822	0.500056
O33	O	-0.143262	-0.141398	0.000073
O34	O	0.356738	0.358602	0.500073
N35	N	-0.131130	-0.059843	0.000062
N36	N	0.368870	0.440157	0.500062
C37	C	-0.099835	-0.016017	0.000069
C38	C	0.400165	0.483983	0.500069
O39	O	-0.120728	0.021740	0.000079
O40	O	0.379272	0.521740	0.500079
C41	C	0.101824	-0.018068	0.000068
C42	C	0.601824	0.481932	0.500068
C43	C	0.120944	-0.062407	0.000057
C44	C	0.620944	0.437593	0.500057
C45	C	0.108775	-0.150563	0.000042
C46	C	0.608775	0.349437	0.500042
C47	C	0.159187	-0.151076	0.000038
C48	C	0.659187	0.348924	0.500038
C49	C	0.190477	-0.107253	0.000044
C50	C	0.690477	0.392747	0.500044
C51	C	0.171356	-0.062919	0.000054
C52	C	0.671356	0.437081	0.500054
C53	C	0.133117	0.025757	0.000079
C54	C	0.633117	0.525757	0.500079
C55	C	0.183535	0.025240	0.000080
C56	C	0.683535	0.525240	0.500080
C57	C	0.202655	-0.019098	0.000069
C58	C	0.702655	0.480902	0.500069
C59	C	0.253059	-0.019609	0.000056
C60	C	0.753059	0.480391	0.500056
N61	N	0.272183	-0.063944	0.000050
N62	N	0.772183	0.436056	0.500050
C63	C	0.240892	-0.107766	0.000044
C64	C	0.740892	0.392234	0.500044
C65	C	-0.205709	-0.014943	0.000069
C66	C	0.294291	0.485057	0.500069
C67	C	-0.256124	-0.014430	0.000068
C68	C	0.243876	0.485570	0.500068
C69	C	-0.268291	-0.102591	0.000056
C70	C	0.231709	0.397409	0.500056
C71	C	-0.217876	-0.103104	0.000053
C72	C	0.282124	0.396896	0.500053
C73	C	-0.186585	-0.059278	0.000063
C74	C	0.313415	0.440722	0.500063
C75	C	0.346761	-0.108839	0.000036
C76	C	0.846761	0.391161	0.500036
C77	C	0.397178	-0.109347	0.000030
C78	C	0.897178	0.390653	0.500030
C79	C	0.409341	-0.021186	0.000044
C80	C	0.909341	0.478814	0.500044
C81	C	0.358929	-0.020678	0.000048
C82	C	0.858929	0.479322	0.500048
C83	C	0.327639	-0.064508	0.000045
C84	C	0.827639	0.435492	0.500045
O85	O	0.284343	0.017592	0.000045
O86	O	0.784343	0.517592	0.500045
O87	O	0.261794	-0.145518	0.000045
O88	O	0.761794	0.354482	0.500045
C89	C	0.039242	-0.105716	0.000055
C90	C	0.539242	0.394284	0.500055
C91	C	0.020120	-0.061382	0.000065
C92	C	0.520120	0.438618	0.500065
C93	C	0.051411	-0.017560	0.000071
C94	C	0.551411	0.482440	0.500071
C95	C	-0.030294	-0.060869	0.000065
C96	C	0.469706	0.439131	0.500065
C97	C	-0.061585	-0.104691	0.000059
C98	C	0.438415	0.395309	0.500059
C99	C	-0.042461	-0.149026	0.000053
C100	C	0.457539	0.350974	0.500053
C101	C	0.007951	-0.149539	0.000049
C102	C	0.507951	0.350461	0.500049
C103	C	0.032287	0.026775	0.000077
C104	C	0.532287	0.526775	0.500077
C105	C	-0.018125	0.027284	0.000080
C106	C	0.481875	0.527284	0.500080
C107	C	-0.049416	-0.016538	0.000074
C108	C	0.450584	0.483462	0.500074
C109	C	0.658931	-0.057699	0.000060
C110	C	1.158931	0.442301	0.500060
C111	C	0.712586	-0.058252	0.000062
C112	C	1.212586	0.441748	0.500062
C113	C	0.566338	-0.150292	0.000039
C114	C	1.066338	0.349708	0.500039
C115	C	0.566891	-0.203947	0.000031
C116	C	1.066891	0.296053	0.500031
N117	N	0.570509	-0.061906	0.129298
N118	N	1.070509	0.438094	0.629298
C119	C	0.614867	0.418985	0.000045
C120	C	1.114867	0.918985	0.500045
C121	C	0.612816	0.620645	0.000038
C122	C	1.112816	1.120645	0.500038
O123	O	0.650037	0.651900	0.000021
O124	O	1.150037	1.151900	0.500021
N125	N	0.568481	0.639768	0.000034
N126	N	1.068481	1.139768	0.500034
C127	C	0.524656	0.608474	0.000028
C128	C	1.024656	1.108474	0.500028
O129	O	0.486899	0.629367	0.000019
O130	O	0.986899	1.129367	0.500019
C131	C	0.526707	0.406815	0.000031
C132	C	1.026707	0.906815	0.500031
C133	C	0.571045	0.387694	0.000041
C134	C	1.071045	0.887694	0.500041
C135	C	0.659202	0.399864	0.000054
C136	C	1.159202	0.899864	0.500054
C137	C	0.659714	0.349452	0.000059
C138	C	1.159714	0.849452	0.500059
C139	C	0.615892	0.318161	0.000054
C140	C	1.115892	0.818161	0.500054
C141	C	0.571557	0.337282	0.000045
C142	C	1.071557	0.837282	0.500045
C143	C	0.482882	0.375521	0.000022
C144	C	0.982882	0.875521	0.500022
C145	C	0.483399	0.325104	0.000021
C146	C	0.983399	0.825104	0.500021
C147	C	0.527737	0.305983	0.000031
C148	C	1.027737	0.805983	0.500031
C149	C	0.528247	0.255580	0.000045
C150	C	1.028247	0.755580	0.500045
N151	N	0.572583	0.236456	0.000050
N152	N	1.072583	0.736456	0.500050
C153	C	0.616405	0.267747	0.000054
C154	C	1.116405	0.767747	0.500054
C155	C	0.523582	0.714348	0.000027
C156	C	1.023582	1.214348	0.500027
C157	C	0.523069	0.764762	0.000027
C158	C	1.023069	1.264762	0.500027
C159	C	0.611230	0.776930	0.000036
C160	C	1.111230	1.276930	0.500036
C161	C	0.611742	0.726514	0.000040
C162	C	1.111742	1.226514	0.500040
C163	C	0.567917	0.695224	0.000031
C164	C	1.067917	1.195224	0.500031
C165	C	0.617477	0.161878	0.000064
C166	C	1.117477	0.661878	0.500064
C167	C	0.617986	0.111461	0.000071
C168	C	1.117986	0.611461	0.500071
C169	C	0.529825	0.099298	0.000059
C170	C	1.029825	0.599298	0.500059
C171	C	0.529316	0.149710	0.000055
C172	C	1.029316	0.649710	0.500055
C173	C	0.573147	0.180999	0.000056
C174	C	1.073147	0.680999	0.500056
O175	O	0.491047	0.224296	0.000057
O176	O	0.991047	0.724296	0.500057
O177	O	0.654156	0.246844	0.000053
O178	O	1.154156	0.746844	0.500053
C179	C	0.614355	0.469397	0.000041
C180	C	1.114355	0.969397	0.500041
C181	C	0.570021	0.488518	0.000032
C182	C	1.070021	0.988518	0.500032
C183	C	0.526198	0.457228	0.000027
C184	C	1.026198	0.957228	0.500027
C185	C	0.569508	0.538933	0.000032
C186	C	1.069508	1.038933	0.500032
C187	C	0.613330	0.570223	0.000036
C188	C	1.113330	1.070223	0.500036
C189	C	0.657665	0.551100	0.000041
C190	C	1.157665	1.051100	0.500041
C191	C	0.658177	0.500688	0.000045
C192	C	1.158177	1.000688	0.500045
C193	C	0.481863	0.476351	0.000023
C194	C	0.981863	0.976351	0.500023
C195	C	0.481355	0.526764	0.000019
C196	C	0.981355	1.026764	0.500019
C197	C	0.525177	0.558054	0.000023
C198	C	1.025177	1.058054	0.500023
N199	N	0.570549	-0.061867	-0.129196
N200	N	1.070549	0.438133	0.370804
C201	C	0.603640	-0.028781	0.473932
C202	C	1.103640	0.471219	0.973932
C203	C	0.603652	-0.028774	0.682810
C204	C	1.103652	0.471226	1.182810
O205	O	0.631801	-0.000613	0.709820
O206	O	1.131801	0.499387	1.209820
N207	N	0.570539	-0.061870	0.708925
N208	N	1.070539	0.438130	1.208925
C209	C	0.537419	-0.094969	0.682818
C210	C	1.037419	0.405031	1.182818
O211	O	0.509252	-0.123116	0.709824
O212	O	1.009252	0.376884	1.209824
C213	C	0.537406	-0.094974	0.473941
C214	C	1.037406	0.405026	0.973941
C215	C	0.570524	-0.061878	0.447829
C216	C	1.070524	0.438122	0.947829
C217	C	0.636755	0.004312	0.447819
C218	C	1.136755	0.504312	0.947819
C219	C	0.636754	0.004308	0.395603
C220	C	1.136754	0.504308	0.895603
C221	C	0.603637	-0.028789	0.369500
C222	C	1.103637	0.471211	0.869500
C223	C	0.570522	-0.061882	0.395612
C224	C	1.070522	0.438118	0.895612
C225	C	0.504284	-0.128070	0.447835
C226	C	1.004284	0.371930	0.947835
C227	C	0.504283	-0.128067	0.395613
C228	C	1.004283	0.371933	0.895613
C229	C	0.537401	-0.094972	0.369500
C230	C	1.037401	0.405028	0.869500
C231	C	0.537405	-0.094983	0.317293
C232	C	1.037405	0.405017	0.817293
N233	N	0.570517	-0.061887	0.291177
N234	N	1.070517	0.438113	0.791177
C235	C	0.603633	-0.028790	0.317281
C236	C	1.103633	0.471210	0.817281
C237	C	0.537429	-0.094965	0.792481
C238	C	1.037429	0.405035	1.292481
C239	C	0.537433	-0.094964	0.844700
C240	C	1.037433	0.405036	1.344700
C241	C	0.603665	-0.028768	0.844689
C242	C	1.103665	0.471232	1.344689
C243	C	0.603663	-0.028772	0.792469
C244	C	1.103663	0.471228	1.292469
C245	C	0.570542	-0.061868	0.766366
C246	C	1.070542	0.438132	1.266366
C247	C	0.603628	-0.028801	0.207623
C248	C	1.103628	0.471199	0.707623
C249	C	0.603625	-0.028809	0.155402
C250	C	1.103625	0.471191	0.655402
C251	C	0.537392	-0.095003	0.155418
C252	C	1.037392	0.404997	0.655418
C253	C	0.537396	-0.094997	0.207635
C254	C	1.037396	0.405003	0.707635
C255	C	0.570516	-0.061892	0.233735
C256	C	1.070516	0.438108	0.733735
O257	O	0.509266	-0.123126	0.290250
O258	O	1.009266	0.376874	0.790250
O259	O	0.631789	-0.000640	0.290266
O260	O	1.131789	0.499360	0.790266
C261	C	0.603642	-0.028777	0.526149
C262	C	1.103642	0.471223	1.026149
C263	C	0.570527	-0.061870	0.552261
C264	C	1.070527	0.438130	1.052261
C265	C	0.537410	-0.094968	0.526158
C266	C	1.037410	0.405032	1.026158
C267	C	0.570531	-0.061870	0.604480
C268	C	1.070531	0.438130	1.104480
C269	C	0.603647	-0.028773	0.630584
C270	C	1.103647	0.471227	1.130584
C271	C	0.636759	0.004324	0.604468
C272	C	1.136759	0.504324	1.104468
C273	C	0.636758	0.004320	0.552252
C274	C	1.136758	0.504320	1.052252
C275	C	0.504298	-0.128064	0.552273
C276	C	1.004298	0.371936	1.052273
C277	C	0.504303	-0.128058	0.604489
C278	C	1.004303	0.371942	1.104489
C279	C	0.537419	-0.094961	0.630593
C280	C	1.037419	0.405039	1.130593
H281	H	0.412743	-0.145454	0.000021
H282	H	0.912743	0.354546	0.500021
O283	O	-0.298671	-0.145174	-0.000035
O284	O	0.201329	0.354826	0.499965
C285	C	-0.290049	-0.172123	-0.042995
C286	C	0.209951	0.327877	0.457005
H287	H	-0.272625	-0.146475	-0.073026
H288	H	0.227375	0.353525	0.426974
H289	H	-0.325965	-0.191776	-0.057415
H290	H	0.174035	0.308224	0.442585
H291	H	-0.264584	-0.199909	-0.033282
H292	H	0.235416	0.300091	0.466718
O293	O	0.438238	0.545254	-0.000012
O294	O	0.938238	1.045254	0.499988
C295	C	0.399673	0.506819	-0.000003
C296	C	0.899673	1.006819	0.499997
H297	H	0.412970	0.472666	-0.015701
H298	H	0.912970	0.972666	0.484299
H299	H	0.368701	0.517123	-0.024098
H300	H	0.868701	1.017123	0.475902
H301	H	0.386164	0.499589	0.039794
H302	H	0.886164	0.999589	0.539794
O303	O	-0.072793	-0.191640	0.000026
O304	O	0.427207	0.308360	0.500026
C305	C	-0.045112	-0.230887	0.000032
C306	C	0.454888	0.269113	0.500032
H307	H	-0.007389	-0.218335	-0.015675
H308	H	0.492611	0.281665	0.484325
H309	H	-0.063939	-0.261564	-0.024055
H310	H	0.436061	0.238436	0.475945
H311	H	-0.041624	-0.244500	0.039830
H312	H	0.458376	0.255500	0.539830
O313	O	0.701819	0.430187	0.000083
O314	O	1.201819	0.930187	0.500083
C315	C	0.741053	0.402488	0.000077
C316	C	1.241053	0.902488	0.500077
H317	H	0.728484	0.364768	0.015778
H318	H	1.228484	0.864768	0.515778
H319	H	0.771731	0.421302	0.024170
H320	H	1.271731	0.921302	0.524170
H321	H	0.754670	0.398998	-0.039720
H322	H	1.254670	0.898998	0.460280
O323	O	0.668948	0.036398	0.473227
O324	O	1.168948	0.536398	0.973227
C325	C	0.698586	0.010716	0.503416
C326	C	1.198586	0.510716	1.003416
H327	H	0.679049	-0.027240	0.511249
H328	H	1.179049	0.472760	1.011249
H329	H	0.706396	0.030950	0.540132
H330	H	1.206396	0.530950	1.040132
H331	H	0.734279	0.007672	0.483280
H332	H	1.234279	0.507672	0.983280
H333	H	0.209009	0.060929	0.000089
H334	H	0.709009	0.560929	0.500089
O335	O	0.505332	-0.127164	0.870086
O336	O	1.005332	0.372836	1.370086
C337	C	0.530991	-0.156803	0.900298
C338	C	1.030991	0.343197	1.400298
H339	H	0.569104	-0.157358	0.884560
H340	H	1.069104	0.342642	1.384560
H341	H	0.510979	-0.195360	0.900889
H342	H	1.010979	0.304640	1.400889
H343	H	0.533637	-0.141659	0.939875
H344	H	1.033637	0.358341	1.439875
H345	H	0.630595	-0.001859	0.134142
H346	H	1.130595	0.498141	0.634142
O347	O	0.701260	0.482141	-0.000037
O348	O	1.201260	0.982141	0.499963
C349	C	0.727960	0.498176	-0.042994
C350	C	1.227960	0.998176	0.457006
H351	H	0.702029	0.508469	-0.073027
H352	H	1.202029	1.008469	0.426973
H353	H	0.748300	0.467786	-0.057414
H354	H	1.248300	0.967786	0.442586
H355	H	0.755140	0.531238	-0.033279
H356	H	1.255140	1.031238	0.466721
H357	H	0.117558	0.061861	0.000088
H358	H	0.617558	0.561861	0.500088
O359	O	0.177676	-0.194189	0.000056
O360	O	0.677676	0.305811	0.500056
C361	C	0.139240	-0.232752	0.000040
C362	C	0.639240	0.267248	0.500040
H363	H	0.105088	-0.219458	0.015746
H364	H	0.605088	0.280542	0.515746
H365	H	0.149542	-0.263732	0.024125
H366	H	0.649542	0.236268	0.524125
H367	H	0.132009	-0.246248	-0.039760
H368	H	0.632009	0.253752	0.460240
O369	O	0.635850	0.003426	0.767182
O370	O	1.135850	0.503426	1.267182
C371	C	0.665087	0.032626	0.801426
C372	C	1.165087	0.532626	1.301426
H373	H	0.645274	0.033032	0.838651
H374	H	1.145274	0.533032	1.338651
H375	H	0.672751	0.071283	0.786342
H376	H	1.172751	0.571283	1.286342
H377	H	0.700876	0.017177	0.806974
H378	H	1.200876	0.517177	1.306974
O379	O	0.472084	-0.160153	0.526897
O380	O	0.972084	0.339847	1.026897
C381	C	0.442460	-0.134482	0.496679
C382	C	0.942460	0.365518	0.996679
H383	H	0.441925	-0.096363	0.512408
H384	H	0.941925	0.403637	1.012408
H385	H	0.403895	-0.154475	0.496094
H386	H	0.903895	0.345525	0.996094
H387	H	0.457605	-0.131850	0.457101
H388	H	0.957605	0.368150	0.957101
O389	O	0.660022	0.192316	0.000134
O390	O	1.160022	0.692316	0.500134
C391	C	0.662364	0.221835	0.043105
C392	C	1.162364	0.721835	0.543105
H393	H	0.624014	0.224112	0.057421
H394	H	1.124014	0.724112	0.557421
H395	H	0.680668	0.259859	0.033443
H396	H	1.180668	0.759859	0.533443
H397	H	0.684303	0.205405	0.073196
H398	H	1.184303	0.705405	0.573196
H399	H	0.343360	0.015426	0.000049
H400	H	0.843360	0.515426	0.500049
O401	O	0.439810	0.021336	0.000074
O402	O	0.939810	0.521336	0.500074
C403	C	0.488406	0.011371	0.000059
C404	C	0.988406	0.511371	0.500059
H405	H	0.490055	-0.026587	0.015754
H406	H	0.990055	0.473413	0.515754
H407	H	0.511453	0.039318	0.024152
H408	H	1.011453	0.539318	0.524152
H409	H	0.503004	0.013323	-0.039740
H410	H	1.003004	0.513323	0.460260
O411	O	0.702755	0.330825	-0.000005
O412	O	1.202755	0.830825	0.499995
C413	C	0.705704	0.302040	-0.042977
C414	C	1.205704	0.802040	0.457023
H415	H	0.667512	0.289196	-0.057302
H416	H	1.167512	0.789196	0.442698
H417	H	0.724727	0.269169	-0.033315
H418	H	1.224727	0.769169	0.466685
H419	H	0.727256	0.324477	-0.073062
H420	H	1.227256	0.824477	0.426938
H421	H	0.083302	-0.186251	0.000038
H422	H	0.583302	0.313749	0.500038
H423	H	0.487892	0.688875	0.000020
H424	H	0.987892	1.188875	0.500020
H425	H	0.630630	-0.001820	0.865951
H426	H	1.130630	0.498180	1.365951
H427	H	0.447710	0.299629	0.000014
H428	H	0.947710	0.799629	0.500014
H429	H	0.477310	-0.155018	0.374362
H430	H	0.977310	0.344982	0.874362
H431	H	0.647846	0.710950	0.000047
H432	H	1.147846	1.210950	0.500047
H433	H	-0.202311	-0.139207	0.000047
H434	H	0.297689	0.360793	0.500047
H435	H	0.446777	0.391080	0.000011
H436	H	0.946777	0.891080	0.500011
H437	H	0.646911	0.802415	0.000040
H438	H	1.146911	1.302415	0.500040
O439	O	0.668849	0.036455	0.370149
O440	O	1.168849	0.536455	0.870149
C441	C	0.698484	0.010891	0.339830
C442	C	1.198484	0.510891	0.839830
H443	H	0.699212	-0.027200	0.355560
H444	H	1.199212	0.472800	0.855560
H445	H	0.736991	0.031018	0.339108
H446	H	1.236991	0.531018	0.839108
H447	H	0.683215	0.008183	0.300306
H448	H	1.183215	0.508183	0.800306
O449	O	0.661046	0.092864	0.000166
O450	O	1.161046	0.592864	0.500166
C451	C	0.663971	0.064060	0.043127
C452	C	1.163971	0.564060	0.543127
H453	H	0.638798	0.075799	0.073155
H454	H	1.138798	0.575799	0.573155
H455	H	0.702961	0.068873	0.057552
H456	H	1.202961	0.568873	0.557552
H457	H	0.652521	0.024216	0.033415
H458	H	1.152521	0.524216	0.533415
H459	H	0.486964	0.780325	0.000028
H460	H	0.986964	1.280325	0.500028
O461	O	0.505237	-0.127167	0.767206
O462	O	1.005237	0.372833	1.267206
C463	C	0.476009	-0.156367	0.801460
C464	C	0.976009	0.343633	1.301460
H465	H	0.495830	-0.156769	0.838679
H466	H	0.995830	0.343231	1.338679
H467	H	0.468344	-0.195025	0.786379
H468	H	0.968344	0.304975	1.286379
H469	H	0.440220	-0.140919	0.807021
H470	H	0.940220	0.359081	1.307021
O471	O	0.700247	0.581481	0.000132
O472	O	1.200247	1.081481	0.500132
C473	C	0.727192	0.572864	0.043093
C474	C	1.227192	1.072864	0.543093
H475	H	0.701542	0.555443	0.073124
H476	H	1.201542	1.055443	0.573124
H477	H	0.746843	0.608783	0.057512
H478	H	1.246843	1.108783	0.557512
H479	H	0.754981	0.547399	0.033383
H480	H	1.254981	1.047399	0.533383
O481	O	-0.274614	0.028683	0.000094
O482	O	0.225386	0.528683	0.500094
C483	C	-0.236179	0.067248	0.000088
C484	C	0.263821	0.567248	0.500088
H485	H	-0.202029	0.053953	0.015792
H486	H	0.297971	0.553953	0.515792
H487	H	-0.246487	0.098223	0.024179
H488	H	0.253513	0.598223	0.524179
H489	H	-0.228943	0.080752	-0.039709
H490	H	0.271057	0.580752	0.460291
O491	O	0.472065	-0.160237	0.473115
O492	O	0.972065	0.339763	0.973115
C493	C	0.442846	-0.189450	0.438868
C494	C	0.942846	0.310550	0.938868
H495	H	0.442456	-0.169631	0.401646
H496	H	0.942456	0.330369	0.901646
H497	H	0.404187	-0.197089	0.453953
H498	H	0.904187	0.302911	0.953953
H499	H	0.458268	-0.225254	0.433311
H500	H	0.958268	0.274746	0.933311
H501	H	0.446177	0.450879	0.000018
H502	H	0.946177	0.950879	0.500018
O503	O	0.486205	0.168206	0.000025
O504	O	0.986205	0.668206	0.500025
C505	C	0.447637	0.129775	0.000037
C506	C	0.947637	0.629775	0.500037
H507	H	0.460930	0.095619	-0.015658
H508	H	0.960930	0.595619	0.484342
H509	H	0.416665	0.140080	-0.024058
H510	H	0.916665	0.640080	0.475942
H511	H	0.434128	0.122549	0.039835
H512	H	0.934128	0.622549	0.539835
O513	O	0.635847	0.003376	0.232895
O514	O	1.135847	0.503376	0.732895
C515	C	0.665062	0.032589	0.198641
C516	C	1.165062	0.532589	0.698641
H517	H	0.665453	0.012766	0.161421
H518	H	1.165453	0.512766	0.661421
H519	H	0.703721	0.040233	0.213720
H520	H	1.203721	0.540233	0.713720
H521	H	0.649636	0.068390	0.193083
H522	H	1.149636	0.568390	0.693083
O523	O	0.505180	-0.127163	0.232926
O524	O	1.005180	0.372837	0.732926
C525	C	0.475959	-0.156384	0.198686
C526	C	0.975959	0.343616	0.698686
H527	H	0.475569	-0.136574	0.161459
H528	H	0.975569	0.363426	0.661459
H529	H	0.437300	-0.164017	0.213772
H530	H	0.937300	0.335983	0.713772
H531	H	0.491379	-0.192190	0.193139
H532	H	0.991379	0.307810	0.693139
O533	O	0.505241	-0.127104	0.129979
O534	O	1.005241	0.372896	0.629979
C535	C	0.512351	-0.120012	0.078291
C536	C	1.012351	0.379988	0.578291
H537	H	0.530712	-0.081457	0.071162
H538	H	1.030712	0.418543	0.571162
H539	H	0.475706	-0.125635	0.058446
H540	H	0.975706	0.374365	0.558446
H541	H	0.536384	-0.147209	0.063468
H542	H	1.036384	0.352791	0.563468
H543	H	0.663725	0.031269	0.530995
H544	H	1.163725	0.531269	1.030995
O545	O	-0.036615	0.070400	0.000111
O546	O	0.463385	0.570400	0.500111
C547	C	0.001820	0.108965	0.000105
C548	C	0.501820	0.608965	0.500105
H549	H	0.035971	0.095669	0.015802
H550	H	0.535971	0.595669	0.515802
H551	H	-0.008486	0.139938	0.024200
H552	H	0.491514	0.639938	0.524200
H553	H	0.009052	0.122473	-0.039692
H554	H	0.509052	0.622473	0.460308
O555	O	0.668861	0.036523	0.629854
O556	O	1.168861	0.536523	1.129854
C557	C	0.643193	0.066154	0.660069
C558	C	1.143193	0.566154	1.160069
H559	H	0.605081	0.066706	0.644330
H560	H	1.105081	0.566706	1.144330
H561	H	0.663200	0.104714	0.660666
H562	H	1.163200	0.604714	1.160666
H563	H	0.640542	0.051005	0.699643
H564	H	1.140542	0.551005	1.199643
O565	O	-0.175269	0.027601	0.000007
O566	O	0.324731	0.527601	0.500007
C567	C	-0.145749	0.029956	-0.042965
C568	C	0.354251	0.529956	0.457035
H569	H	-0.143471	-0.008390	-0.057292
H570	H	0.356529	0.491610	0.442708
H571	H	-0.107726	0.048258	-0.033302
H572	H	0.392274	0.548258	0.466698
H573	H	-0.162180	0.051903	-0.073050
H574	H	0.337820	0.551903	0.426950
O575	O	0.472083	-0.160228	0.629775
O576	O	0.972083	0.339772	1.129775
C577	C	0.442863	-0.189446	0.595531
C578	C	0.942863	0.310554	1.095531
H579	H	0.442473	-0.169631	0.558307
H580	H	0.942473	0.330369	1.058307
H581	H	0.404204	-0.197082	0.610617
H582	H	0.904204	0.302918	1.110617
H583	H	0.458284	-0.225250	0.589979
H584	H	0.958284	0.274750	1.089979
H585	H	0.023514	-0.185643	0.000042
H586	H	0.523514	0.314357	0.500042
H587	H	0.321291	-0.144530	0.000035
H588	H	0.821291	0.355470	0.500035
H589	H	0.057760	0.062462	0.000083
H590	H	0.557760	0.562462	0.500083
H591	H	0.494146	0.073812	0.000057
H592	H	0.994146	0.573812	0.500057
