data_functionalizedCrystal
_audit_creation_method	'MofGen! by Chris Wilmer'
_symmetry_space_group_name_H-M	'P1'
_symmetry_Int_Tables_number	1
_symmetry_cell_setting	triclinic
loop_
_symmetry_equiv_pos_as_xyz
  x,y,z
_cell_length_a	19.077105
_cell_length_b	12.759400
_cell_length_c	19.076919
_cell_angle_alpha	92.274856
_cell_angle_beta	90.076224
_cell_angle_gamma	87.711168
loop_
_atom_site_label
_atom_site_type_symbol
_atom_site_fract_x
_atom_site_fract_y
_atom_site_fract_z
Zn1	Zn	1.058328	-0.508276	-0.440436
Zn2	Zn	1.062987	-0.677203	-0.322935
Zn3	Zn	0.945544	-0.494202	-0.318229
Zn4	Zn	0.940808	-0.676569	-0.435688
O5	O	1.001917	-0.589062	-0.379322
O6	O	1.157278	-0.536840	-0.428806
O7	O	1.051339	-0.647302	-0.223980
O8	O	0.960537	-0.349051	-0.334457
O9	O	1.160701	-0.660950	-0.342479
O10	O	1.043399	-0.359391	-0.424243
O11	O	0.965055	-0.512852	-0.220522
O12	O	0.846583	-0.512238	-0.329853
O13	O	0.952466	-0.659870	-0.534649
O14	O	0.843104	-0.646223	-0.416150
O15	O	1.038807	-0.536225	-0.538138
O16	O	1.046747	-0.824137	-0.337875
O17	O	0.956983	-0.823671	-0.420714
C18	C	0.819347	-0.577635	-0.371976
C19	C	0.741242	-0.572772	-0.368850
C20	C	0.702758	-0.640344	-0.412241
C21	C	0.629371	-0.635761	-0.409307
C22	C	0.594468	-0.563612	-0.362979
C23	C	0.632957	-0.496033	-0.319586
C24	C	0.706344	-0.500611	-0.322524
C25	C	0.375179	-0.542424	-0.349385
C26	C	0.301787	-0.537853	-0.346449
C27	C	0.298205	-0.677581	-0.436172
C28	C	0.371593	-0.682157	-0.439102
C29	C	0.410076	-0.614574	-0.395712
N30	N	0.519454	-0.558928	-0.359977
N31	N	0.485088	-0.619253	-0.398718
C32	C	1.001876	-0.862026	-0.379306
C33	C	1.001921	-0.978807	-0.379325
C34	C	1.048709	-1.033882	-0.336242
C35	C	1.048751	-1.143610	-0.336266
C36	C	0.955212	-1.143177	-0.422456
C37	C	0.955173	-1.033452	-0.422436
C38	C	1.095457	-0.979237	-0.293132
C39	C	1.142248	-1.034313	-0.250045
C40	C	1.142290	-1.144041	-0.250068
C41	C	1.095542	-1.198693	-0.293178
C42	C	1.185199	-0.600535	-0.386697
C43	C	1.263303	-0.605424	-0.389840
C44	C	0.994588	-0.599547	-0.562603
C45	C	0.991465	-0.604015	-0.640706
C46	C	1.001976	-0.315035	-0.379355
C47	C	1.002002	-0.198260	-0.379368
C48	C	1.034949	-0.541742	-0.679216
C49	C	1.032006	-0.545935	-0.752602
C50	C	0.985583	-0.612408	-0.787477
C51	C	0.942094	-0.674683	-0.748961
C52	C	0.945034	-0.670484	-0.675576
C53	C	0.971967	-0.631866	-1.006758
C54	C	0.969032	-0.636063	-1.080148
C55	C	1.058943	-0.507313	-1.083785
C56	C	1.061882	-0.503124	-1.010398
C57	C	1.018391	-0.565395	-0.971889
N58	N	0.982575	-0.616698	-0.862489
N59	N	1.021396	-0.561099	-0.896878
C60	C	1.009257	-0.578545	-0.196756
C61	C	1.012516	-0.573790	-0.118659
H62	H	0.400006	-0.740911	-0.476826
C63	C	0.594567	-0.416667	-0.268623
C64	C	0.513845	-0.411632	-0.265385
C65	C	0.475457	-0.332267	-0.214419
C66	C	0.517791	-0.257937	-0.166690
C67	C	0.598517	-0.262970	-0.169927
C68	C	0.636905	-0.342335	-0.220893
H69	H	0.482503	-0.466657	-0.300718
H70	H	0.415698	-0.328541	-0.212024
H71	H	0.489374	-0.199186	-0.128962
H72	H	0.629859	-0.207944	-0.134594
H73	H	0.696665	-0.346060	-0.223288
H74	H	1.095426	-0.889891	-0.293106
H75	H	0.598040	-0.690786	-0.444640
C76	C	1.193762	-1.204626	-0.202679
C77	C	1.245182	-1.144515	-0.155264
C78	C	1.296653	-1.205098	-0.107871
C79	C	1.296704	-1.325792	-0.107894
C80	C	1.245282	-1.385910	-0.155312
C81	C	1.193811	-1.325328	-0.202704
H82	H	1.245145	-1.055164	-0.155245
H83	H	1.334719	-1.160593	-0.072769
H84	H	1.334806	-1.370639	-0.072811
H85	H	1.245318	-1.475262	-0.155331
H86	H	1.155745	-1.369832	-0.237806
C87	C	0.748681	-0.426282	-0.274794
C88	C	0.738370	-0.306567	-0.280266
C89	C	0.780707	-0.232231	-0.232540
C90	C	0.833354	-0.277608	-0.179341
C91	C	0.843666	-0.397329	-0.173867
C92	C	0.801330	-0.471665	-0.221594
H93	H	0.699396	-0.272971	-0.319649
H94	H	0.773072	-0.143605	-0.236592
H95	H	0.864694	-0.222580	-0.144011
H96	H	0.882641	-0.430925	-0.134484
H97	H	0.808964	-0.560290	-0.217541
H98	H	0.917075	-0.988609	-0.457518
H99	H	1.095585	-1.288042	-0.293200
H100	H	1.180314	-0.989810	-0.214950
H101	H	0.904293	-0.728803	-0.777361
C102	C	0.903787	-1.203291	-0.469870
C103	C	0.903826	-1.323985	-0.469891
C104	C	0.852399	-1.384097	-0.517304
C105	C	0.800932	-1.323516	-0.564696
C106	C	0.800891	-1.202816	-0.564677
C107	C	0.852318	-1.142703	-0.517264
H108	H	0.941927	-1.368837	-0.434807
H109	H	0.852430	-1.473448	-0.517318
H110	H	0.762863	-1.368015	-0.599794
H111	H	0.762791	-1.157964	-0.599761
H112	H	0.852288	-1.053353	-0.517250
H113	H	1.072754	-0.487616	-0.650827
H114	H	1.067417	-0.495228	-0.783954
C115	C	1.112948	-0.430002	-0.972039
C116	C	1.160781	-0.361499	-1.014399
C117	C	1.211851	-0.288381	-0.976039
C118	C	1.215089	-0.283765	-0.895319
C119	C	1.167254	-0.352270	-0.852954
C120	C	1.116184	-0.425388	-0.891314
H121	H	1.158386	-0.364914	-1.074157
H122	H	1.247261	-0.237670	-1.007401
H123	H	1.252894	-0.229639	-0.866923
H124	H	1.169650	-0.348855	-0.793196
H125	H	1.080775	-0.476099	-0.859952
H126	H	1.094350	-0.456614	-1.115147
C127	C	0.255873	-0.751909	-0.483905
C128	C	0.175151	-0.746877	-0.480680
C129	C	0.132819	-0.821205	-0.528418
C130	C	0.171210	-0.900565	-0.579381
C131	C	0.251937	-0.905599	-0.582607
C132	C	0.294269	-0.831271	-0.534869
H133	H	0.146728	-0.688127	-0.442953
H134	H	0.073060	-0.817477	-0.526030
H135	H	0.139874	-0.955587	-0.614719
H136	H	0.280360	-0.964349	-0.620334
H137	H	0.354028	-0.834999	-0.537257
C138	C	0.917985	-0.709222	-1.118513
C139	C	0.870163	-0.777745	-1.076157
C140	C	0.819132	-0.850920	-1.114523
C141	C	0.815923	-0.855571	-1.195244
C142	C	0.863747	-0.787045	-1.237604
C143	C	0.914778	-0.713871	-1.199239
H144	H	0.872536	-0.774304	-1.016398
H145	H	0.783729	-0.901647	-1.083164
H146	H	0.778147	-0.909739	-1.223644
H147	H	0.861373	-0.790486	-1.297363
H148	H	0.950180	-0.663143	-1.230597
H149	H	0.731171	-0.699099	-0.449965
C150	C	0.924120	-0.700371	-0.964419
C151	C	0.843839	-0.687361	-0.971319
C152	C	0.795984	-0.755871	-0.928983
C153	C	0.828410	-0.837391	-0.879748
C154	C	0.908696	-0.850404	-0.872846
C155	C	0.956551	-0.781894	-0.915182
H156	H	0.819831	-0.627013	-1.007768
H157	H	0.736551	-0.746237	-0.934092
H158	H	0.792985	-0.888106	-0.848408
H159	H	0.932704	-0.910753	-0.836397
H160	H	1.015984	-0.791528	-0.910072
H161	H	0.909618	-0.721182	-0.644221
H162	H	0.406503	-0.487401	-0.314049
H163	H	0.273372	-0.479088	-0.308727
