data_functionalizedCrystal
_audit_creation_method	'MofGen! by Chris Wilmer'
_symmetry_space_group_name_H-M	'P1'
_symmetry_Int_Tables_number	1
_symmetry_cell_setting	triclinic
loop_
_symmetry_equiv_pos_as_xyz
  x,y,z
_cell_length_a	19.288867
_cell_length_b	16.053789
_cell_length_c	19.288865
_cell_angle_alpha	87.098675
_cell_angle_beta	96.863342
_cell_angle_gamma	92.894766
loop_
_atom_site_label
_atom_site_type_symbol
_atom_site_fract_x
_atom_site_fract_y
_atom_site_fract_z
O1	O	0.923951	0.069410	-0.089257
O2	O	0.721691	0.069420	-0.100945
O3	O	0.828664	0.069398	0.006030
O4	O	0.816977	0.069432	-0.196232
O5	O	0.823447	-0.069462	0.011240
O6	O	0.716473	-0.069440	-0.095734
O7	O	0.918733	-0.069450	-0.084047
Zn8	Zn	0.816775	-0.091492	-0.089063
Zn9	Zn	0.823649	0.091462	-0.095928
O10	O	0.811760	-0.069428	-0.191021
C11	C	0.693206	-0.000009	-0.097963
C12	C	0.616102	-0.000007	-0.096834
C13	C	0.063380	0.075675	-0.091537
C14	C	0.135828	0.075678	-0.092595
C15	C	0.169213	-0.000014	-0.090286
C16	C	0.130146	-0.075715	-0.086902
C17	C	0.057700	-0.075716	-0.085838
C18	C	0.276361	-0.057997	-0.130478
C19	C	0.348805	-0.057993	-0.131547
C20	C	0.392658	-0.000014	-0.093565
C21	C	0.364059	0.057975	-0.054525
C22	C	0.291613	0.057974	-0.053461
C23	C	0.247767	-0.000021	-0.091440
C24	C	0.510273	0.075686	-0.098091
C25	C	0.582722	0.075686	-0.099144
C26	C	0.577038	-0.075709	-0.093458
C27	C	0.504591	-0.075707	-0.092398
C28	C	0.471212	-0.000007	-0.094718
N29	N	0.812089	-0.216353	-0.084377
C30	C	0.852442	-0.260039	-0.124761
C31	C	0.849173	-0.347446	-0.121478
C32	C	0.805547	-0.391167	-0.077816
C33	C	0.765192	-0.347475	-0.037428
C34	C	0.768465	-0.260069	-0.040707
C35	C	0.791259	-0.652579	-0.063500
C36	C	0.787987	-0.739991	-0.060225
C37	C	0.871970	-0.739956	-0.144275
C38	C	0.875236	-0.652549	-0.147553
C39	C	0.834884	-0.608865	-0.107163
N40	N	0.802203	-0.480511	-0.074462
N41	N	0.838232	-0.519522	-0.110514
C42	C	0.947218	-0.000019	-0.087028
C43	C	1.024322	-0.000016	-0.088158
C44	C	0.825679	-0.000034	0.034512
C45	C	0.824550	-0.000042	0.111616
N46	N	0.828341	0.216323	-0.100608
C47	C	0.814744	0.000006	-0.219503
C48	C	0.815874	0.000019	-0.296607
C49	C	0.887318	-0.000049	0.156312
C50	C	0.886258	-0.000035	0.228758
C51	C	0.822426	-0.000032	0.256506
C52	C	0.759650	-0.000020	0.211800
C53	C	0.760712	-0.000025	0.139355
C54	C	0.770419	-0.048669	0.366619
C55	C	0.769359	-0.048670	0.439063
C56	C	0.819147	-0.000013	0.479951
C57	C	0.870006	0.048633	0.448387
C58	C	0.871068	0.048628	0.375942
C59	C	0.821267	-0.000026	0.335060
C60	C	0.880769	-0.000004	0.603203
C61	C	0.879706	0.000014	0.675650
C62	C	0.753097	0.000021	0.658690
C63	C	0.754161	0.000011	0.586244
C64	C	0.817999	-0.000006	0.558505
H65	H	0.472788	-0.137343	-0.089649
N66	N	0.923714	0.101113	0.492477
H67	H	0.899332	0.142725	0.517548
H68	H	0.956075	0.131869	0.461444
H69	H	0.483095	0.137326	-0.099977
H70	H	0.910763	-0.616957	-0.183105
N71	N	0.686457	0.000004	0.538037
H72	H	0.682143	-0.051474	0.509542
H73	H	0.686049	0.051511	0.505705
N74	N	0.915499	-0.787064	-0.187834
H75	H	0.883798	-0.823328	-0.220551
H76	H	0.948231	-0.823279	-0.156099
H77	H	0.752458	-0.775586	-0.024670
N78	N	0.949620	-0.000021	0.573279
H79	H	0.940768	-0.000034	0.520603
H80	H	0.975135	-0.051502	0.591592
N81	N	0.379649	-0.120528	-0.173658
H82	H	0.340877	-0.157264	-0.197552
H83	H	0.412553	-0.156141	-0.141556
H84	H	0.729873	-0.088296	0.333334
H85	H	0.157332	-0.137344	-0.085022
H86	H	0.930822	0.000013	0.712041
H87	H	0.758401	-0.617023	-0.030611
N88	N	0.718142	-0.394626	0.009671
H89	H	0.722190	-0.456627	0.005620
H90	H	0.668156	-0.379352	-0.004752
H91	H	0.887963	-0.224448	-0.160319
N92	N	0.693008	-0.000037	0.091144
H93	H	0.703367	-0.000047	0.041041
H94	H	0.667109	0.051441	0.098159
N95	N	0.724945	-0.212947	0.002852
H96	H	0.696810	-0.253905	0.031009
H97	H	0.692252	-0.176678	-0.028878
N98	N	0.714502	-0.101128	0.473101
H99	H	0.721384	-0.093746	0.525199
H100	H	0.718893	-0.161812	0.463593
H101	H	0.939300	-0.000059	0.133731
H102	H	0.937372	-0.000038	0.265157
H103	H	0.912478	0.088239	0.350246
N104	N	0.684248	0.000034	0.688607
H105	H	0.693098	0.000039	0.741284
H106	H	0.654854	-0.051442	0.674183
N107	N	0.624855	0.157329	-0.102777
H108	H	0.592714	0.205280	-0.104085
H109	H	0.649276	0.160632	-0.146389
H110	H	0.707678	-0.000016	0.234397
H111	H	0.036209	0.137316	-0.093423
H112	H	0.167635	0.137317	-0.095351
N113	N	0.613036	-0.157351	-0.090960
H114	H	0.664857	-0.145867	-0.092145
H115	H	0.593367	-0.190403	-0.132582
H116	H	0.268331	0.105189	-0.021671
H117	H	0.399763	0.105190	-0.023599
H118	H	0.240661	-0.105220	-0.161404
H119	H	0.025899	-0.137355	-0.083089
N120	N	0.892731	-0.394565	-0.165000
H121	H	0.920873	-0.353605	-0.193149
H122	H	0.861012	-0.430852	-0.197679
