data_functionalizedCrystal
_audit_creation_method	'MofGen! by Chris Wilmer'
_symmetry_space_group_name_H-M	'P1'
_symmetry_Int_Tables_number	1
_symmetry_cell_setting	triclinic
loop_
_symmetry_equiv_pos_as_xyz
  x,y,z
_cell_length_a	13.897449
_cell_length_b	21.295411
_cell_length_c	13.897448
_cell_angle_alpha	89.984179
_cell_angle_beta	90.018519
_cell_angle_gamma	89.973954
loop_
_atom_site_label
_atom_site_type_symbol
_atom_site_fract_x
_atom_site_fract_y
_atom_site_fract_z
Zn1	Zn	1.474728	-0.355962	-0.384104
Zn2	Zn	1.974728	0.144038	0.115896
Zn3	Zn	1.474614	-0.250698	-0.545384
Zn4	Zn	1.974614	0.249302	-0.045384
Zn5	Zn	1.313410	-0.250704	-0.384107
Zn6	Zn	1.813410	0.249296	0.115893
Zn7	Zn	1.313399	-0.355927	-0.545361
Zn8	Zn	1.813399	0.144073	-0.045361
O9	O	1.394038	-0.303323	-0.464739
O10	O	1.894038	0.196677	0.035261
O11	O	1.609694	-0.342010	-0.405506
O12	O	2.109694	0.157990	0.094494
O13	O	1.453187	-0.162609	-0.524001
O14	O	1.953187	0.337391	-0.024001
O15	O	1.334861	-0.264684	-0.249125
O16	O	1.834861	0.235316	0.250875
O17	O	1.609611	-0.264673	-0.523998
O18	O	2.109611	0.235327	-0.023998
O19	O	1.453381	-0.342016	-0.249122
O20	O	1.953381	0.157984	0.250878
O21	O	1.334751	-0.162614	-0.405511
O22	O	1.834751	0.337386	0.094489
O23	O	1.178426	-0.264650	-0.405489
O24	O	1.678426	0.235350	0.094511
O25	O	1.334842	-0.444021	-0.523959
O26	O	1.834842	0.055979	-0.023959
O27	O	1.178419	-0.341957	-0.523961
O28	O	1.678419	0.158043	-0.023961
O29	O	1.453370	-0.444047	-0.405484
O30	O	1.953370	0.055953	0.094516
O31	O	1.453177	-0.264640	-0.680362
O32	O	1.953177	0.235360	-0.180362
O33	O	1.334732	-0.341951	-0.680345
O34	O	1.834732	0.158049	-0.180345
C35	C	1.143423	-0.303301	-0.464724
C36	C	1.643423	0.196699	0.035276
C37	C	1.036209	-0.303306	-0.464741
C38	C	1.536209	0.196694	0.035259
C39	C	0.949140	-0.303317	-0.464744
C40	C	1.449140	0.196683	0.035256
C41	C	0.839907	-0.303336	-0.464751
C42	C	1.339907	0.196664	0.035249
C43	C	1.394118	-0.467513	-0.464718
C44	C	1.894118	0.032487	0.035282
C45	C	1.394152	-0.537481	-0.464710
C46	C	1.894152	-0.037481	0.035290
C47	C	1.455867	-0.570362	-0.403017
C48	C	1.955867	-0.070362	0.096983
C49	C	1.455865	-0.636105	-0.402975
C50	C	1.955865	-0.136105	0.097025
C51	C	1.394159	-0.668964	-0.464643
C52	C	1.894159	-0.168964	0.035357
C53	C	1.332432	-0.636075	-0.526340
C54	C	1.832432	-0.136075	-0.026340
C55	C	1.332429	-0.570334	-0.526373
C56	C	1.832429	-0.070334	-0.026373
N57	N	1.386736	-0.772185	-0.549025
N58	N	1.886736	-0.272185	-0.049025
N59	N	1.386745	-0.834636	-0.548991
N60	N	1.886745	-0.334636	-0.048991
C61	C	1.394165	-0.867039	-0.464545
C62	C	1.894165	-0.367039	0.035455
N63	N	1.401595	-0.834630	-0.380134
N64	N	1.901595	-0.334630	0.119866
N65	N	1.401591	-0.772173	-0.380169
N66	N	1.901591	-0.272173	0.119831
C67	C	1.394156	-0.740249	-0.464614
C68	C	1.894156	-0.240249	0.035386
C69	C	1.455882	-0.971205	-0.402802
C70	C	1.955882	-0.471205	0.097198
C71	C	1.455874	-1.036949	-0.402759
C72	C	1.955874	-0.536949	0.097241
C73	C	1.332446	-1.036918	-0.526132
C74	C	1.832446	-0.536918	-0.026132
C75	C	1.332449	-0.971175	-0.526167
C76	C	1.832449	-0.471175	-0.026167
C77	C	1.394172	-0.938323	-0.464503
C78	C	1.894172	-0.438323	0.035497
C79	C	1.645631	-0.303345	-0.464754
C80	C	2.145631	0.196655	0.035246
C81	C	1.752844	-0.303355	-0.464761
C82	C	2.252844	0.196645	0.035239
C83	C	1.393967	-0.303305	-0.715353
C84	C	1.893967	0.196695	-0.215353
C85	C	1.394025	-0.303318	-0.822567
C86	C	1.894025	0.196682	-0.322567
C87	C	1.394013	-0.139771	-0.464689
C88	C	1.894013	0.360229	0.035311
C89	C	1.394166	-0.069803	-0.464426
C90	C	1.894166	0.430197	0.035574
C91	C	1.394127	-0.303357	-1.018862
C92	C	1.894127	0.196643	-0.518862
C93	C	1.394068	-0.303337	-0.909629
C94	C	1.894068	0.196663	-0.409629
C95	C	1.394135	-0.303355	-0.213146
C96	C	1.894135	0.196645	0.286854
C97	C	1.394176	-0.303368	-0.105932
C98	C	1.894176	0.196632	0.394068
H99	H	1.506125	-0.543618	-0.352804
H100	H	2.006125	-0.043618	0.147196
H101	H	1.282188	-0.662833	-0.576548
H102	H	1.782188	-0.162833	-0.076548
Cl103	Cl	1.254864	-0.929837	-0.603732
Cl104	Cl	1.754864	-0.429837	-0.103732
H105	H	1.282169	-0.543562	-0.576610
H106	H	1.782169	-0.043562	-0.076610
H107	H	1.506128	-1.063720	-0.352515
H108	H	2.006128	-0.563720	0.147485
Cl109	Cl	1.533436	-0.677450	-0.325393
Cl110	Cl	2.033436	-0.177450	0.174607
H111	H	1.506135	-0.944455	-0.352586
H112	H	2.006135	-0.444455	0.147414
Cl113	Cl	1.254863	-1.078220	-0.603650
Cl114	Cl	1.754863	-0.578220	-0.103650
