data_functionalizedCrystal
_audit_creation_method	'MofGen! by Chris Wilmer'
_symmetry_space_group_name_H-M	'P1'
_symmetry_Int_Tables_number	1
_symmetry_cell_setting	triclinic
loop_
_symmetry_equiv_pos_as_xyz
  x,y,z
_cell_length_a	16.120297
_cell_length_b	14.908618
_cell_length_c	14.908520
_cell_angle_alpha	89.795563
_cell_angle_beta	95.992230
_cell_angle_gamma	90.249346
loop_
_atom_site_label
_atom_site_type_symbol
_atom_site_fract_x
_atom_site_fract_y
_atom_site_fract_z
Zn1	Zn	-0.566614	-1.321184	-0.466671
Zn2	Zn	-0.233280	-0.987851	-0.133337
Zn3	Zn	0.100053	-0.654518	0.199996
Zn4	Zn	-0.434793	-1.320027	-0.610236
Zn5	Zn	-0.101460	-0.986694	-0.276902
Zn6	Zn	0.231873	-0.653360	0.056431
Zn7	Zn	-0.418797	-1.179371	-0.450384
Zn8	Zn	-0.085464	-0.846037	-0.117050
Zn9	Zn	0.247869	-0.512704	0.216283
Zn10	Zn	-0.565646	-1.162168	-0.608240
Zn11	Zn	-0.232313	-0.828835	-0.274907
Zn12	Zn	0.101020	-0.495502	0.058426
O13	O	-0.496463	-1.245688	-0.533883
O14	O	-0.163129	-0.912354	-0.200549
O15	O	0.170204	-0.579021	0.132784
O16	O	-0.556227	-1.446445	-0.493366
O17	O	-0.222893	-1.113111	-0.160033
O18	O	0.110440	-0.779778	0.173301
O19	O	-0.316047	-1.308083	-0.583050
O20	O	0.017286	-0.974750	-0.249717
O21	O	0.350619	-0.641417	0.083617
O22	O	-0.432116	-1.205866	-0.326398
O23	O	-0.098783	-0.872533	0.006935
O24	O	0.234551	-0.539199	0.340268
O25	O	-0.459379	-1.445594	-0.598843
O26	O	-0.126045	-1.112261	-0.265509
O27	O	0.207288	-0.778928	0.067824
O28	O	-0.540716	-1.310056	-0.338364
O29	O	-0.207383	-0.976723	-0.005031
O30	O	0.125951	-0.643389	0.328303
O31	O	-0.304295	-1.204744	-0.465608
O32	O	0.029038	-0.871410	-0.132274
O33	O	0.362371	-0.538077	0.201059
O34	O	-0.431178	-1.051675	-0.463673
O35	O	-0.097845	-0.718341	-0.130339
O36	O	0.235489	-0.385008	0.202994
O37	O	-0.682399	-1.176548	-0.595442
O38	O	-0.349065	-0.843214	-0.262108
O39	O	-0.015732	-0.509881	0.071225
O40	O	-0.539067	-1.039036	-0.579649
O41	O	-0.205734	-0.705703	-0.246316
O42	O	0.127599	-0.372370	0.087018
O43	O	-0.683109	-1.293376	-0.491431
O44	O	-0.349776	-0.960043	-0.158098
O45	O	-0.016443	-0.626709	0.175236
O46	O	-0.458441	-1.291403	-0.736117
O47	O	-0.125107	-0.958070	-0.402784
O48	O	0.208226	-0.624736	-0.069450
O49	O	-0.554578	-1.175425	-0.734651
O50	O	-0.221244	-0.842092	-0.401318
O51	O	0.112089	-0.508758	-0.067984
C52	C	-0.483283	-1.012837	-0.519678
C53	C	-0.149949	-0.679504	-0.186344
C54	C	0.183384	-0.346170	0.146989
C55	C	-0.477665	-0.913220	-0.513623
C56	C	-0.144331	-0.579887	-0.180290
C57	C	0.189002	-0.246553	0.153043
C58	C	-0.579319	-0.712915	-0.623185
C59	C	-0.245986	-0.379582	-0.289851
C60	C	0.087347	-0.046248	0.043482
C61	C	-0.574044	-0.619316	-0.617499
C62	C	-0.240711	-0.285982	-0.284166
C63	C	0.092623	0.047351	0.049168
C64	C	-0.461844	-0.632420	-0.496563
C65	C	-0.128510	-0.299087	-0.163230
C66	C	0.204823	0.034246	0.170104
C67	C	-0.467119	-0.726020	-0.502249
C68	C	-0.133786	-0.392686	-0.168915
C69	C	0.199548	-0.059353	0.164418
C70	C	-0.525858	-0.766263	-0.565562
C71	C	-0.192525	-0.432930	-0.232229
C72	C	0.140809	-0.099597	0.101104
C73	C	-0.531129	-0.859865	-0.571252
C74	C	-0.197795	-0.526531	-0.237918
C75	C	0.135538	-0.193198	0.095415
C76	C	-0.418933	-0.872968	-0.450312
C77	C	-0.085599	-0.539634	-0.116979
C78	C	0.247734	-0.206301	0.216355
C79	C	-0.413657	-0.779368	-0.444626
C80	C	-0.080324	-0.446035	-0.111293
C81	C	0.253009	-0.112702	0.222040
C82	C	-0.713839	-1.233172	-0.545030
C83	C	-0.380506	-0.899839	-0.211697
C84	C	-0.047172	-0.566505	0.121636
C85	C	-0.806472	-1.227839	-0.549781
C86	C	-0.473138	-0.894505	-0.216448
C87	C	-0.139805	-0.561172	0.116886
C88	C	-0.976070	-1.218070	-0.558432
C89	C	-0.642737	-0.884736	-0.225099
C90	C	-0.309403	-0.551403	0.108234
C91	C	-1.017704	-1.273499	-0.509073
C92	C	-0.684370	-0.940165	-0.175740
C93	C	-0.351037	-0.606832	0.157593
C94	C	-1.112074	-1.268063	-0.513887
C95	C	-0.778741	-0.934730	-0.180554
C96	C	-0.445407	-0.601396	0.152780
C97	C	-0.881691	-1.223504	-0.553620
C98	C	-0.548358	-0.890171	-0.220286
C99	C	-0.215024	-0.556837	0.113047
C100	C	-0.279932	-1.258210	-0.522716
C101	C	0.053402	-0.924877	-0.189383
C102	C	0.386735	-0.591543	0.143951
C103	C	-0.187297	-1.263732	-0.517722
C104	C	0.146037	-0.930399	-0.184389
C105	C	0.479370	-0.597066	0.148944
C106	C	-0.508160	-1.231445	-0.768095
C107	C	-0.174826	-0.898112	-0.434761
C108	C	0.158507	-0.564778	-0.101428
C109	C	-0.513196	-1.225433	-0.868298
C110	C	-0.179863	-0.892099	-0.534965
C111	C	0.153471	-0.558766	-0.201631
C112	C	-0.509688	-0.479448	-0.548136
C113	C	-0.176355	-0.146115	-0.214803
C114	C	0.156978	0.187219	0.118530
C115	C	-0.515307	-0.579065	-0.554191
C116	C	-0.181974	-0.245732	-0.220858
C117	C	0.151359	0.087602	0.112475
C118	C	-0.422645	-1.335015	-1.058068
C119	C	-0.089312	-1.001682	-0.724735
C120	C	0.244022	-0.668348	-0.391401
C121	C	-0.427375	-1.329369	-1.152218
C122	C	-0.094041	-0.996035	-0.818885
C123	C	0.239292	-0.662702	-0.485551
C124	C	-0.527389	-1.208499	-1.150750
C125	C	-0.194056	-0.875166	-0.817417
C126	C	0.139278	-0.541832	-0.484084
C127	C	-0.522659	-1.214145	-1.056600
C128	C	-0.189326	-0.880812	-0.723267
C129	C	0.144007	-0.547478	-0.389934
C130	C	-0.470285	-1.277404	-1.010262
C131	C	-0.136951	-0.944071	-0.676929
C132	C	0.196382	-0.610738	-0.343596
C133	C	-0.465551	-1.283046	-0.916110
C134	C	-0.132218	-0.949712	-0.582777
C135	C	0.201116	-0.616379	-0.249443
C136	C	-0.565569	-1.162181	-0.914645
C137	C	-0.232236	-0.828847	-0.581311
C138	C	0.101097	-0.495514	-0.247978
C139	C	-0.570299	-1.156534	-1.008795
C140	C	-0.236966	-0.823201	-0.675461
C141	C	0.096368	-0.489868	-0.342128
C142	C	-0.484740	-1.260009	-0.298758
C143	C	-0.151406	-0.926676	0.034575
C144	C	0.181927	-0.593342	0.367908
C145	C	-0.479744	-1.266112	-0.198562
C146	C	-0.146411	-0.932779	0.134771
C147	C	0.186923	-0.599445	0.468104
H148	H	-0.627143	-0.745682	-0.674742
H149	H	-0.293809	-0.412349	-0.341408
H150	H	0.039524	-0.079015	-0.008075
F151	F	-0.971659	-1.340876	-0.449130
F152	F	-0.638325	-1.007542	-0.115797
F153	F	-0.304992	-0.674209	0.217536
H154	H	-0.578956	-0.892629	-0.622806
H155	H	-0.245622	-0.559296	-0.289473
H156	H	0.087711	-0.225963	0.043860
F157	F	-1.022116	-1.150714	-0.618390
F158	F	-0.688783	-0.817381	-0.285057
F159	F	-0.355450	-0.484047	0.048277
F160	F	-0.409807	-1.350367	-0.866795
F161	F	-0.076473	-1.017034	-0.533461
F162	F	0.256860	-0.683701	-0.200128
F163	F	-0.366894	-1.402328	-1.008748
F164	F	-0.033560	-1.068995	-0.675415
F165	F	0.299773	-0.735661	-0.342082
F166	F	-0.583135	-1.141189	-1.200083
F167	F	-0.249802	-0.807856	-0.866749
F168	F	0.083532	-0.474522	-0.533416
F169	F	-0.362026	-0.929752	-0.388988
F170	F	-0.028692	-0.596419	-0.055655
F171	F	0.304641	-0.263085	0.277679
F172	F	-0.630947	-0.562541	-0.678827
F173	F	-0.297614	-0.229208	-0.345494
F174	F	0.035720	0.104126	-0.012160
F175	F	-0.376672	-1.390688	-1.203093
F176	F	-0.043339	-1.057354	-0.869760
F177	F	0.289995	-0.724021	-0.536427
H178	H	-0.612943	-1.105033	-1.046536
H179	H	-0.279610	-0.771700	-0.713203
H180	H	0.053724	-0.438366	-0.379870
F181	F	-0.616265	-1.100854	-0.863759
F182	F	-0.282931	-0.767521	-0.530425
F183	F	0.050402	-0.434187	-0.197092
H184	H	-0.414026	-0.599637	-0.445011
H185	H	-0.080693	-0.266304	-0.111677
H186	H	0.252640	0.067029	0.221656
H187	H	-0.365836	-0.746589	-0.393076
H188	H	-0.032503	-0.413255	-0.059743
H189	H	0.300831	-0.079922	0.273591
