data_functionalizedCrystal
_audit_creation_method	'MofGen! by Chris Wilmer'
_symmetry_space_group_name_H-M	'P1'
_symmetry_Int_Tables_number	1
_symmetry_cell_setting	triclinic
loop_
_symmetry_equiv_pos_as_xyz
  x,y,z
_cell_length_a	13.032831
_cell_length_b	19.121063
_cell_length_c	13.033109
_cell_angle_alpha	99.873837
_cell_angle_beta	76.665514
_cell_angle_gamma	85.565596
loop_
_atom_site_label
_atom_site_type_symbol
_atom_site_fract_x
_atom_site_fract_y
_atom_site_fract_z
Zn1	Zn	1.672168	-0.493728	-0.834129
Zn2	Zn	1.643819	-0.594088	-0.662147
Zn3	Zn	1.473926	-0.459568	-0.632104
Zn4	Zn	1.488838	-0.594026	-0.817187
O5	O	1.569688	-0.535352	-0.736392
O6	O	1.816233	-0.521363	-0.830978
O7	O	1.603178	-0.561973	-0.508729
O8	O	1.505846	-0.365828	-0.653421
O9	O	1.795405	-0.595097	-0.704624
O10	O	1.651494	-0.390925	-0.801847
O11	O	1.478358	-0.463142	-0.486657
O12	O	1.328078	-0.463082	-0.636993
O13	O	1.531262	-0.594991	-0.968868
O14	O	1.339034	-0.561868	-0.772973
O15	O	1.665954	-0.521303	-0.981315
O16	O	1.617638	-0.692351	-0.688196
O17	O	1.503773	-0.692306	-0.802104
C18	C	1.295227	-0.508762	-0.699885
C19	C	1.177813	-0.497406	-0.684294
C20	C	1.130899	-0.541279	-0.744529
C21	C	1.009547	-0.529543	-0.728416
C22	C	1.559279	-0.717814	-0.746599
C23	C	1.554927	-0.795885	-0.751014
C24	C	1.612225	-0.832573	-0.693846
C25	C	1.608139	-0.905930	-0.698005
C26	C	1.546748	-0.942596	-0.759327
C27	C	1.489449	-0.905903	-0.816502
C28	C	1.493541	-0.832548	-0.812348
C29	C	1.531428	-1.164080	-0.774839
C30	C	1.527337	-1.237439	-0.778986
C31	C	1.646029	-1.237462	-0.660490
C32	C	1.650112	-1.164105	-0.656337
C33	C	1.592816	-1.127419	-0.713516
C34	C	1.542568	-1.017578	-0.763577
C35	C	1.597004	-1.052439	-0.709271
C36	C	1.845220	-0.562047	-0.773042
C37	C	1.962636	-0.573423	-0.788660
C38	C	1.603433	-0.561951	-1.014921
C39	C	1.617814	-0.573285	-1.133613
C40	C	1.580169	-0.352183	-0.726173
C41	C	1.584635	-0.274128	-0.721818
C42	C	1.562466	-0.529439	-1.175609
C43	C	1.577328	-0.541153	-1.298284
C44	C	1.536137	-0.508813	-0.458952
C45	C	1.521973	-0.497300	-0.340276
H46	H	1.128138	-0.451154	-0.620799
C47	C	1.430510	-0.792191	-0.875238
N48	N	1.383035	-0.761796	-0.922612
C49	C	1.198005	-0.603764	-0.830313
N50	N	1.248547	-0.650831	-0.894926
H51	H	1.676200	-0.619496	-1.188479
C52	C	1.717615	-1.123772	-0.588847
N53	N	1.768446	-1.093392	-0.537998
C54	C	1.679757	-0.792247	-0.626383
N55	N	1.730627	-0.761876	-0.575572
C56	C	1.443085	-0.434868	-1.266165
N57	N	1.383669	-0.387844	-1.210345
H58	H	0.959875	-0.483288	-0.664917
C59	C	1.671164	-0.946283	-0.635108
N60	N	1.718636	-0.976676	-0.587729
C61	C	1.029736	-0.635910	-0.874452
N62	N	1.080276	-0.682975	-0.939068
H63	H	1.477361	-1.267293	-0.828942
C64	C	1.468461	-1.123745	-0.837800
N65	N	1.421054	-1.093366	-0.885248
C66	C	1.709054	-1.277823	-0.597601
N67	N	1.756528	-1.308224	-0.550233
H68	H	1.439468	-0.935763	-0.866436
C69	C	1.483595	-0.467004	-1.101494
N70	N	1.424192	-0.419974	-1.045672
H71	H	1.646992	-1.022584	-0.659347
H72	H	1.492581	-1.047439	-0.813503
H73	H	1.635718	-0.587367	-1.353146
