data_functionalizedCrystal
_audit_creation_method	'MofGen! by Chris Wilmer'
_symmetry_space_group_name_H-M	'P1'
_symmetry_Int_Tables_number	1
_symmetry_cell_setting	triclinic
loop_
_symmetry_equiv_pos_as_xyz
  x,y,z
_cell_length_a	15.995350
_cell_length_b	10.654550
_cell_length_c	9.130313
_cell_angle_alpha	90.000110
_cell_angle_beta	89.996588
_cell_angle_gamma	83.988639
loop_
_atom_site_label
_atom_site_type_symbol
_atom_site_fract_x
_atom_site_fract_y
_atom_site_fract_z
O1	O	-1.111921	-0.161867	-0.121671
O2	O	-0.868262	-0.181857	-0.121701
O3	O	-0.995693	0.010950	-0.121680
O4	O	-0.984489	-0.354674	-0.121692
O5	O	-0.995692	0.010945	0.121919
O6	O	-0.868260	-0.181862	0.121898
O7	O	-1.111919	-0.161873	0.121927
Cu8	Cu	-0.990089	-0.171868	0.144155
Cu9	Cu	-0.990091	-0.171862	-0.143929
O10	O	-0.984487	-0.354680	0.121906
C11	C	-0.837061	-0.181033	0.000095
C12	C	-0.744096	-0.178555	0.000083
C13	C	-1.143119	-0.162696	0.000129
C14	C	-1.236084	-0.165174	0.000130
C15	C	-0.994870	0.057735	0.000117
C16	C	-0.992409	0.197146	0.000112
C17	C	-0.406297	-0.169658	0.000114
C18	C	-0.452934	-0.032344	0.000662
C19	C	-0.549639	-0.034822	0.000103
C20	C	-0.573883	-0.174071	0.000100
C21	C	-0.533190	-0.241796	-0.139004
C22	C	-0.436535	-0.238347	-0.139110
C23	C	-0.436210	-0.241190	0.137907
C24	C	-0.533156	-0.241157	0.139736
C25	C	-0.668595	-0.176573	0.000086
C26	C	-0.311585	-0.167161	0.000117
C27	C	-0.985311	-0.401464	0.000106
C28	C	-0.987772	-0.540875	0.000101
N29	N	-0.990094	-0.171871	0.346778
C30	C	-1.067438	0.277612	0.000126
C31	C	-1.065121	0.408603	0.000115
C32	C	-0.912737	0.378648	0.000084
C33	C	-0.915055	0.247660	0.000084
C34	C	-1.155416	0.294907	0.000150
C35	C	-1.153098	0.425897	0.000140
N36	N	-0.990093	-0.171848	-0.346551
C37	C	-1.046536	-0.086525	0.423439
C38	C	-1.046533	-0.086510	0.576776
C39	C	-0.933646	-0.257198	0.576777
C40	C	-0.933644	-0.257206	0.423443
C41	C	-1.111713	0.012017	0.423440
C42	C	-1.111711	0.012032	0.576777
H43	H	-0.577758	0.018413	0.099818
C44	C	-1.189034	0.488041	-0.141932
N45	N	-1.216105	0.534850	-0.248934
H46	H	-0.547909	-0.344099	-0.144178
H47	H	-1.186246	0.468088	0.102087
H48	H	-0.853959	0.182149	0.000052
C49	C	-0.426024	0.041480	-0.133339
N50	N	-0.405752	0.097083	-0.234269
H51	H	-0.887678	-0.326691	0.361026
H52	H	-1.176054	-0.008646	0.618400
H53	H	-0.887685	-0.326675	0.639214
C54	C	-1.193263	0.247262	0.142248
N55	N	-1.221768	0.211375	0.249278
H56	H	-1.097417	0.108363	0.381821
C57	C	-1.084219	0.134901	0.641018
N58	N	-1.063507	0.227440	0.689407
C59	C	-0.427471	0.041806	0.135426
N60	N	-0.408286	0.097658	0.236932
C61	C	-0.586857	0.037583	-0.134843
N62	N	-0.614889	0.092120	-0.236492
C63	C	-0.411413	-0.171607	-0.279575
N64	N	-0.392497	-0.121331	-0.385374
H65	H	-1.172504	-0.017777	0.375888
H66	H	-0.404872	-0.339160	-0.145425
H67	H	-0.561292	-0.194753	-0.242525
H68	H	-0.415414	-0.196301	0.243344
H69	H	-0.560185	-0.191718	0.242644
H70	H	-0.549110	-0.342702	0.148136
C71	C	-0.394093	-0.377958	0.139180
N72	N	-0.362366	-0.480968	0.140129
H73	H	-0.849758	0.419794	0.000059
H74	H	-1.189828	0.266000	-0.101784
