data_functionalizedCrystal
_audit_creation_method	'MofGen! by Chris Wilmer'
_symmetry_space_group_name_H-M	'P1'
_symmetry_Int_Tables_number	1
_symmetry_cell_setting	triclinic
loop_
_symmetry_equiv_pos_as_xyz
  x,y,z
_cell_length_a	12.759395
_cell_length_b	17.637651
_cell_length_c	12.759387
_cell_angle_alpha	78.750696
_cell_angle_beta	89.980569
_cell_angle_gamma	101.219287
loop_
_atom_site_label
_atom_site_type_symbol
_atom_site_fract_x
_atom_site_fract_y
_atom_site_fract_z
Zn1	Zn	1.521699	-0.314730	-0.509300
Zn2	Zn	1.486057	-0.446967	-0.298044
Zn3	Zn	1.345987	-0.314769	-0.333630
Zn4	Zn	1.310473	-0.446907	-0.473702
O5	O	1.416054	-0.380843	-0.403669
O6	O	1.663990	-0.332280	-0.481281
O7	O	1.467422	-0.429472	-0.155732
O8	O	1.399074	-0.204123	-0.386724
O9	O	1.637803	-0.429434	-0.326072
O10	O	1.528169	-0.204094	-0.515788
O11	O	1.364513	-0.332347	-0.181877
O12	O	1.194257	-0.332289	-0.352206
O13	O	1.338546	-0.429332	-0.625457
O14	O	1.168165	-0.429370	-0.455116
O15	O	1.493733	-0.332222	-0.651610
O16	O	1.432986	-0.557600	-0.291555
O17	O	1.303985	-0.557556	-0.420610
C18	C	1.143090	-0.380828	-0.403660
C19	C	1.026310	-0.380840	-0.403676
C20	C	1.053515	-0.279837	-0.565469
C21	C	1.012254	-0.229345	-0.646371
C22	C	0.902528	-0.229360	-0.646380
C23	C	0.834061	-0.279869	-0.565477
C24	C	0.875322	-0.330361	-0.484575
C25	C	0.985051	-0.330343	-0.484576
C26	C	0.848119	-0.431358	-0.322780
C27	C	0.957843	-0.431350	-0.322773
C28	C	0.779651	-0.481868	-0.241877
C29	C	0.820911	-0.532365	-0.160977
C30	C	0.930643	-0.532349	-0.160972
C31	C	0.999104	-0.481841	-0.241871
C32	C	1.360793	-0.586266	-0.348381
C33	C	1.337248	-0.674147	-0.324763
C34	C	1.595603	-0.962807	-0.583419
C35	C	1.573445	-1.045384	-0.561208
C36	C	1.439108	-1.045522	-0.426684
C37	C	1.461258	-0.962943	-0.448879
C38	C	1.539505	-0.921592	-0.527248
C39	C	1.405160	-0.921727	-0.392709
C40	C	1.427305	-0.839156	-0.414907
C41	C	1.505546	-0.797799	-0.493275
C42	C	1.561650	-0.839020	-0.549446
C43	C	1.326908	-0.963080	-0.314345
C44	C	1.270811	-0.921865	-0.258175
C45	C	1.292960	-0.839291	-0.280368
C46	C	1.371201	-0.797934	-0.358736
C47	C	1.236857	-0.798070	-0.224196
C48	C	1.259001	-0.715498	-0.246394
C49	C	1.393346	-0.715363	-0.380934
C50	C	1.690083	-0.380860	-0.403678
C51	C	1.806858	-0.380867	-0.403682
C52	C	1.416154	-0.380766	-0.677723
C53	C	1.416197	-0.380733	-0.794509
C54	C	1.471559	-0.174618	-0.459196
C55	C	1.495212	-0.086737	-0.482858
C56	C	1.577800	-0.279619	-0.821761
C57	C	1.658620	-0.229051	-0.890251
C58	C	1.658653	-0.229022	-0.999980
C59	C	1.577856	-0.279565	-1.041221
C60	C	1.497037	-0.330134	-0.972731
C61	C	1.497014	-0.330159	-0.863000
C62	C	1.335431	-0.431242	-0.945481
C63	C	1.335400	-0.431276	-0.835750
C64	C	1.254634	-0.481786	-0.986722
C65	C	1.173817	-0.532360	-0.918231
C66	C	1.173788	-0.532387	-0.808495
C67	C	1.254580	-0.481845	-0.767260
C68	C	1.416030	-0.380863	-0.130696
C69	C	1.416250	-0.380674	-0.013971
H70	H	0.690308	-0.481874	-0.241888
H71	H	1.577789	-0.279645	-0.732413
O72	O	0.862272	-0.180339	-0.724861
C73	C	0.750740	-0.191203	-0.707530
H74	H	0.728786	-0.217022	-0.619442
H75	H	0.724951	-0.131995	-0.730730
H76	H	0.708297	-0.233373	-0.758402
O77	O	1.363030	-1.085781	-0.350679
C78	C	1.282312	-1.133530	-0.397594
H79	H	1.316014	-1.145840	-0.473941
H80	H	1.252679	-1.191625	-0.339170
H81	H	1.212972	-1.101739	-0.417607
H82	H	0.744719	-0.279870	-0.565485
O83	O	1.526868	-0.717588	-0.514850
C84	C	1.433559	-0.690035	-0.549178
H85	H	1.360279	-0.737655	-0.518367
H86	H	1.429720	-0.634823	-0.516623
H87	H	1.435226	-0.675346	-0.640301
O88	O	0.754475	-0.581341	-0.082269
C89	C	0.785933	-0.563976	0.017731
H90	H	0.833081	-0.500806	0.005895
H91	H	0.711935	-0.570745	0.071469
H92	H	0.838220	-0.606336	0.056694
O93	O	0.970644	-0.581512	-0.082464
C94	C	0.922628	-0.660338	-0.084011
H95	H	0.891404	-0.664414	-0.166839
H96	H	0.984283	-0.699384	-0.064355
H97	H	0.853371	-0.680956	-0.022092
O98	O	1.671739	-0.922600	-0.659405
C99	C	1.752421	-0.874818	-0.612493
H100	H	1.752269	-0.899741	-0.523051
H101	H	1.833523	-0.873820	-0.650828
H102	H	1.736714	-0.812257	-0.625667
O103	O	1.194732	-0.962124	-0.182171
C104	C	1.114014	-1.009873	-0.229086
H105	H	1.147716	-1.022182	-0.305433
H106	H	1.084382	-1.067968	-0.170662
H107	H	1.044674	-0.978082	-0.249099
H108	H	1.724458	-0.187840	-1.055747
O109	O	1.637537	-0.798877	-0.625716
C110	C	1.609136	-0.819023	-0.724992
H111	H	1.519106	-0.841770	-0.724108
H112	H	1.632718	-0.764685	-0.791508
H113	H	1.652618	-0.866902	-0.739638
O114	O	1.737022	-0.179844	-0.850262
C115	C	1.735311	-0.101032	-0.898312
H116	H	1.652467	-0.097018	-0.929544
H117	H	1.754862	-0.061993	-0.836667
H118	H	1.797221	-0.080357	-0.967575
O119	O	1.105690	-0.481829	-0.242059
C120	C	1.136903	-0.502246	-0.337199
H121	H	1.077308	-0.488809	-0.401368
H122	H	1.219897	-0.466588	-0.365549
H123	H	1.138743	-0.567848	-0.321613
H124	H	1.107965	-0.573558	-0.752738
H125	H	1.173141	-0.831750	-0.160395
O126	O	1.469360	-0.675065	-0.456992
C127	C	1.476850	-0.593348	-0.464555
H128	H	1.445485	-0.582134	-0.386461
H129	H	1.563969	-0.561920	-0.480190
H130	H	1.427156	-0.569911	-0.533127
H131	H	1.619118	-1.078939	-0.606969
O132	O	1.160099	-0.279832	-0.565657
C133	C	1.191303	-0.300254	-0.660797
H134	H	1.131710	-0.286811	-0.724965
H135	H	1.274302	-0.264604	-0.689148
H136	H	1.193131	-0.365858	-0.645210
O137	O	1.305402	-1.043291	-0.292593
C138	C	1.325045	-1.070922	-0.184503
H139	H	1.319870	-1.023382	-0.136749
H140	H	1.262842	-1.126198	-0.150937
H141	H	1.408303	-1.085530	-0.178420
H142	H	1.254568	-0.481866	-0.677914
O143	O	1.204440	-0.675579	-0.191705
C144	C	1.130610	-0.729782	-0.117795
H145	H	1.157865	-0.788622	-0.098365
H146	H	1.125825	-0.705966	-0.041414
H147	H	1.048439	-0.738586	-0.153838
H148	H	1.577883	-0.279531	-1.130572
H149	H	1.068012	-0.188220	-0.712239
O150	O	1.254630	-0.481905	-1.093273
C151	C	1.261239	-0.557672	-1.109524
H152	H	1.231006	-0.603225	-1.034021
H153	H	1.210089	-0.571703	-1.179145
H154	H	1.347964	-0.559358	-1.128547
H155	H	1.108034	-0.573504	-0.951820
