data_functionalizedCrystal
_audit_creation_method	'MofGen! by Chris Wilmer'
_symmetry_space_group_name_H-M	'P1'
_symmetry_Int_Tables_number	1
_symmetry_cell_setting	triclinic
loop_
_symmetry_equiv_pos_as_xyz
  x,y,z
_cell_length_a	12.759399
_cell_length_b	12.759401
_cell_length_c	12.759393
_cell_angle_alpha	89.980441
_cell_angle_beta	90.031418
_cell_angle_gamma	89.986329
loop_
_atom_site_label
_atom_site_type_symbol
_atom_site_fract_x
_atom_site_fract_y
_atom_site_fract_z
Zn1	Zn	-0.418256	-1.606249	0.594012
Zn2	Zn	-0.593975	-1.606141	0.418333
Zn3	Zn	-0.418305	-1.430551	0.418348
Zn4	Zn	-0.593888	-1.430537	0.593971
O5	O	-0.506106	-1.518370	0.506166
O6	O	-0.441582	-1.753256	0.570719
O7	O	-0.570729	-1.582809	0.271314
O8	O	-0.271278	-1.453909	0.441674
O9	O	-0.570682	-1.753177	0.441648
O10	O	-0.271242	-1.582994	0.570734
O11	O	-0.441665	-1.453804	0.271325
O12	O	-0.441581	-1.283528	0.441634
O13	O	-0.570533	-1.453886	0.740998
O14	O	-0.570581	-1.283518	0.570663
O15	O	-0.441497	-1.582980	0.741028
O16	O	-0.740985	-1.582796	0.441608
O17	O	-0.740921	-1.453781	0.570648
C18	C	-0.506077	-1.245402	0.506147
C19	C	-0.506090	-1.128626	0.506163
C20	C	-0.573366	-1.073786	0.573237
C21	C	-0.573375	-0.964062	0.573246
C22	C	-0.438830	-0.964027	0.439100
C23	C	-0.438816	-1.073749	0.439096
C24	C	-0.651048	-1.073805	0.650682
C25	C	-0.651058	-0.964081	0.650691
C26	C	-0.779073	-1.518304	0.506145
C27	C	-0.895850	-1.518371	0.506171
C28	C	-1.060327	-1.585622	0.573465
C29	C	-0.950603	-1.585557	0.573434
C30	C	-0.950827	-1.451252	0.438927
C31	C	-1.060549	-1.451323	0.438954
C32	C	-1.060196	-1.663159	0.651125
C33	C	-0.950472	-1.663094	0.651093
C34	C	-0.232073	-1.518465	0.506210
C35	C	-0.115296	-1.518506	0.506229
C36	C	-0.506000	-1.518443	0.780200
C37	C	-0.505955	-1.518475	0.896976
C38	C	-0.506127	-0.792403	0.506181
C39	C	-0.506113	-0.909180	0.506176
C40	C	-0.506136	-1.518357	0.233199
C41	C	-0.505885	-1.518529	0.116423
C42	C	-0.438760	-1.585704	0.951856
C43	C	-0.438722	-1.585729	1.061580
C44	C	-0.573083	-1.451293	1.061535
C45	C	-0.573115	-1.451263	0.951813
C46	C	-0.361190	-1.663322	0.951882
C47	C	-0.361152	-1.663347	1.061607
H48	H	-0.728301	-1.107818	0.621398
H49	H	-0.627829	-1.396515	0.907134
Br50	Br	-0.664223	-1.360080	1.135963
Br51	Br	-0.893668	-1.791917	0.602626
Br52	Br	-0.786627	-0.914407	0.614101
Br53	Br	-0.225581	-1.627045	0.902275
Br54	Br	-0.409807	-1.792110	0.895145
H55	H	-0.622012	-0.930084	0.728043
H56	H	-1.094193	-1.633978	0.728395
H57	H	-0.283842	-1.634235	1.095654
H58	H	-0.382947	-1.744718	1.091386
H59	H	-0.384027	-1.118396	0.384486
Br60	Br	-0.347531	-0.889546	0.348088
H61	H	-0.920647	-1.641235	0.732436
H62	H	-1.105301	-1.396681	0.384194
Br63	Br	-0.614889	-1.123499	0.786362
H64	H	-1.089917	-1.744561	0.629417
Br65	Br	-0.876522	-1.360082	0.347628
