data_functionalizedCrystal
_audit_creation_method	'MofGen! by Chris Wilmer'
_symmetry_space_group_name_H-M	'P1'
_symmetry_Int_Tables_number	1
_symmetry_cell_setting	triclinic
loop_
_symmetry_equiv_pos_as_xyz
  x,y,z
_cell_length_a	10.489741
_cell_length_b	14.519709
_cell_length_c	12.996460
_cell_angle_alpha	89.992910
_cell_angle_beta	89.997126
_cell_angle_gamma	84.109659
loop_
_atom_site_label
_atom_site_type_symbol
_atom_site_fract_x
_atom_site_fract_y
_atom_site_fract_z
O1	O	-1.692699	-0.130116	0.085506
O2	O	-1.359366	0.203217	0.418839
O3	O	-1.026033	0.536550	0.752172
O4	O	-1.321376	-0.142329	0.085522
O5	O	-0.988043	0.191004	0.418855
O6	O	-0.654710	0.524337	0.752189
O7	O	-1.516883	-0.002038	0.085504
O8	O	-1.183549	0.331295	0.418837
O9	O	-0.850216	0.664629	0.752171
O10	O	-1.497193	-0.270408	0.085524
O11	O	-1.163859	0.062926	0.418857
O12	O	-0.830526	0.396259	0.752190
O13	O	-1.516862	-0.002030	-0.085630
O14	O	-1.183529	0.331303	0.247704
O15	O	-0.850196	0.664637	0.581037
O16	O	-1.321356	-0.142322	-0.085612
O17	O	-0.988022	0.191012	0.247721
O18	O	-0.654689	0.524345	0.581055
O19	O	-1.692679	-0.130108	-0.085628
O20	O	-1.359345	0.203225	0.247705
O21	O	-1.026012	0.536558	0.581039
Cu22	Cu	-1.507015	-0.136214	-0.101246
Cu23	Cu	-1.173682	0.197119	0.232087
Cu24	Cu	-0.840349	0.530453	0.565421
Cu25	Cu	-1.507040	-0.136224	0.101140
Cu26	Cu	-1.173706	0.197110	0.434473
Cu27	Cu	-0.840373	0.530443	0.767806
O28	O	-1.497172	-0.270400	-0.085610
O29	O	-1.163839	0.062934	0.247723
O30	O	-0.830506	0.396267	0.581056
C31	C	-1.273844	-0.141403	-0.000043
C32	C	-0.940511	0.191930	0.333290
C33	C	-0.607177	0.525264	0.666624
C34	C	-1.132243	-0.138643	-0.000037
C35	C	-0.798910	0.194690	0.333296
C36	C	-0.465577	0.528023	0.666630
C37	C	-1.515955	0.032331	-0.000063
C38	C	-1.182622	0.365664	0.333270
C39	C	-0.849288	0.698997	0.666604
C40	C	-1.513205	0.134727	-0.000063
C41	C	-1.179872	0.468060	0.333270
C42	C	-0.846538	0.801394	0.666603
C43	C	-1.740211	-0.131035	-0.000061
C44	C	-1.406878	0.202299	0.333272
C45	C	-1.073544	0.535632	0.666606
C46	C	-1.881812	-0.133794	-0.000060
C47	C	-1.548478	0.199539	0.333273
C48	C	-1.215145	0.532872	0.666607
C49	C	-1.065034	-0.049380	-0.000053
C50	C	-0.731700	0.283953	0.333280
C51	C	-0.398367	0.617287	0.666613
C52	C	-0.972477	-0.091551	0.084326
C53	C	-0.639144	0.241782	0.417659
C54	C	-0.305811	0.575116	0.750992
C55	C	-0.972491	-0.091564	-0.084399
C56	C	-0.639158	0.241769	0.248934
C57	C	-0.305824	0.575102	0.582268
C58	C	-1.041552	-0.180851	0.084411
C59	C	-0.708219	0.152482	0.417745
C60	C	-0.374885	0.485816	0.751078
C61	C	-1.041575	-0.180852	-0.084389
C62	C	-0.708242	0.152481	0.248944
C63	C	-0.374909	0.485815	0.582278
C64	C	-0.949046	-0.223088	0.000010
C65	C	-0.615712	0.110245	0.333344
C66	C	-0.282379	0.443579	0.666677
C67	C	-1.498100	-0.304768	-0.000041
C68	C	-1.164767	0.028565	0.333292
C69	C	-0.831433	0.361898	0.666626
C70	C	-1.500850	-0.407165	-0.000034
C71	C	-1.167517	-0.073831	0.333300
C72	C	-0.834183	0.259502	0.666633
N73	N	-1.507008	-0.136207	-0.243593
N74	N	-1.173674	0.197126	0.089740
N75	N	-0.840341	0.530460	0.423074
C76	C	-1.503082	0.509678	-0.000036
C77	C	-1.169748	0.843011	0.333297
C78	C	-0.836415	1.176345	0.666630
C79	C	-1.505893	0.405355	-0.000044
C80	C	-1.172560	0.738688	0.333289
C81	C	-0.839226	1.072021	0.666623
C82	C	-1.508143	0.322206	-0.000051
C83	C	-1.174810	0.655539	0.333283
C84	C	-0.841476	0.988872	0.666616
C85	C	-1.510955	0.217876	-0.000057
C86	C	-1.177622	0.551209	0.333277
C87	C	-0.844288	0.884543	0.666610
C88	C	-1.507038	-0.136224	-0.663407
C89	C	-1.173704	0.197109	-0.330074
C90	C	-0.840371	0.530442	0.003259
C91	C	-1.507026	-0.136223	-0.546602
C92	C	-1.173692	0.197111	-0.213269
C93	C	-0.840359	0.530444	0.120065
C94	C	-1.507023	-0.136216	-0.453504
C95	C	-1.173690	0.197117	-0.120170
C96	C	-0.840357	0.530450	0.213163
C97	C	-1.507010	-0.136213	-0.336691
C98	C	-1.173677	0.197120	-0.003358
C99	C	-0.840343	0.530453	0.329975
N100	N	-1.507057	-0.136223	0.243487
N101	N	-1.173724	0.197110	0.576820
N102	N	-0.840391	0.530443	0.910153
H103	H	-1.115488	0.024000	0.000047
H104	H	-0.782155	0.357334	0.333380
H105	H	-0.448821	0.690667	0.666714
H106	H	-0.941898	-0.053776	-0.155735
H107	H	-0.608565	0.279558	0.177598
H108	H	-0.275232	0.612891	0.510932
H109	H	-0.898856	-0.296546	0.000062
H110	H	-0.565523	0.036788	0.333395
H111	H	-0.232189	0.370121	0.666728
N112	N	-1.081879	-0.230833	0.179017
N113	N	-0.748545	0.102501	0.512351
N114	N	-0.415212	0.435834	0.845684
H115	H	-1.056164	-0.197369	0.242664
H116	H	-0.722831	0.135964	0.575997
H117	H	-0.389497	0.469297	0.909331
H118	H	-1.038560	-0.296247	0.179224
H119	H	-0.705227	0.037086	0.512558
H120	H	-0.371894	0.370420	0.845891
N121	N	-0.931921	-0.041535	0.178815
N122	N	-0.598588	0.291799	0.512148
N123	N	-0.265254	0.625132	0.845482
H124	H	-0.974537	0.024081	0.178751
H125	H	-0.641204	0.357414	0.512084
H126	H	-0.307871	0.690747	0.845418
H127	H	-0.835777	-0.040636	0.178394
H128	H	-0.502444	0.292697	0.511728
H129	H	-0.169111	0.626030	0.845061
N130	N	-1.082129	-0.230863	-0.178876
N131	N	-0.748795	0.102471	0.154458
N132	N	-0.415462	0.435804	0.487791
H133	H	-1.057280	-0.197092	-0.242586
H134	H	-0.723946	0.136241	0.090747
H135	H	-0.390613	0.469575	0.424080
H136	H	-1.178070	-0.232894	-0.177739
H137	H	-0.844736	0.100439	0.155594
H138	H	-0.511403	0.433773	0.488928
