data_functionalizedCrystal
_audit_creation_method	'MofGen! by Chris Wilmer'
_symmetry_space_group_name_H-M	'P1'
_symmetry_Int_Tables_number	1
_symmetry_cell_setting	triclinic
loop_
_symmetry_equiv_pos_as_xyz
  x,y,z
_cell_length_a	21.295418
_cell_length_b	16.994747
_cell_length_c	21.295411
_cell_angle_alpha	89.994024
_cell_angle_beta	90.043738
_cell_angle_gamma	90.026880
loop_
_atom_site_label
_atom_site_type_symbol
_atom_site_fract_x
_atom_site_fract_y
_atom_site_fract_z
Zn1	Zn	0.962441	-0.313785	0.356354
Zn2	Zn	0.962379	-0.445672	0.251131
Zn3	Zn	0.857164	-0.313822	0.251064
Zn4	Zn	0.857169	-0.445687	0.356327
O5	O	0.909788	-0.379741	0.303719
O6	O	1.050522	-0.331258	0.342435
O7	O	0.948394	-0.428190	0.163032
O8	O	0.871153	-0.203436	0.265015
O9	O	1.050477	-0.428155	0.265128
O10	O	0.948499	-0.203409	0.342371
O11	O	0.871093	-0.331321	0.162984
O12	O	0.769075	-0.331336	0.264988
O13	O	0.871162	-0.428181	0.444420
O14	O	0.769079	-0.428217	0.342324
O15	O	0.948504	-0.331273	0.444440
O16	O	0.948399	-0.556055	0.265101
O17	O	0.871102	-0.556066	0.342389
C18	C	0.746237	-0.379783	0.303647
C19	C	0.676268	-0.379820	0.303631
C20	C	0.909752	-0.584681	0.303747
C21	C	0.909756	-0.674003	0.303746
Zn22	Zn	0.857182	-0.944908	0.251047
Zn23	Zn	0.962469	-0.944850	0.356327
Zn24	Zn	0.857191	-0.813080	0.356316
Zn25	Zn	0.962390	-0.812927	0.251110
O26	O	0.909808	-0.878941	0.303700
O27	O	0.871178	-1.055282	0.264990
O28	O	0.948540	-0.927410	0.444415
O29	O	0.769100	-0.830655	0.342321
O30	O	0.948532	-1.055239	0.342339
O31	O	0.769094	-0.927510	0.264980
O32	O	0.871192	-0.830599	0.444407
O33	O	0.871116	-0.702678	0.342383
O34	O	0.948398	-0.830395	0.163012
O35	O	0.948406	-0.702566	0.265088
O36	O	0.871102	-0.927361	0.162966
O37	O	1.050548	-0.927262	0.342400
O38	O	1.050490	-0.830338	0.265098
C39	C	0.643420	-0.430332	0.343839
C40	C	0.577678	-0.430313	0.343868
C41	C	0.544786	-0.379789	0.303676
C42	C	0.577642	-0.329267	0.263464
C43	C	0.643383	-0.329282	0.263442
N44	N	0.441508	-0.373615	0.248616
N45	N	0.379057	-0.373605	0.248639
C46	C	0.346711	-0.379739	0.303743
N47	N	0.379176	-0.385898	0.358823
N48	N	0.441634	-0.385912	0.358799
C49	C	0.473501	-0.379767	0.303696
C50	C	0.242578	-0.430233	0.343985
C51	C	0.176834	-0.430208	0.344015
C52	C	0.176800	-0.329166	0.263606
C53	C	0.242542	-0.329187	0.263582
C54	C	0.275427	-0.379725	0.303771
C55	C	1.073979	-0.379700	0.303792
C56	C	1.143947	-0.379683	0.303823
C57	C	0.909840	-0.379725	0.467909
C58	C	0.909863	-0.379718	0.537878
C59	C	0.909828	-0.174001	0.303687
C60	C	0.909847	-0.084679	0.303674
C61	C	0.909772	-0.379701	0.140167
C62	C	0.909872	-0.379486	0.070200
C63	C	0.950133	-0.329255	0.570756
C64	C	0.950132	-0.329221	0.636498
C65	C	0.909868	-0.379663	0.669360
C66	C	0.869589	-0.430129	0.636474
C67	C	0.869587	-0.430156	0.570733
N68	N	0.905030	-0.448668	0.772600
N69	N	0.905036	-0.448640	0.835052
C70	C	0.909872	-0.379583	0.867435
N71	N	0.914714	-0.310554	0.835007
N72	N	0.914711	-0.310583	0.772550
C73	C	0.909866	-0.379639	0.740645
C74	C	0.950143	-0.329080	0.971599
C75	C	0.950138	-0.329044	1.037342
C76	C	0.869598	-0.429959	1.037317
C77	C	0.869600	-0.429988	0.971574
C78	C	0.909876	-0.379549	0.938719
C79	C	1.073360	-0.878779	0.303759
C80	C	1.143328	-0.878733	0.303802
C81	C	0.909740	-0.878868	0.139510
C82	C	0.909711	-0.878836	0.069541
C83	C	0.745618	-0.879106	0.303642
C84	C	0.675650	-0.879176	0.303618
C85	C	0.909831	-0.879059	0.467251
C86	C	0.909684	-0.879241	0.537219
C87	C	1.176197	-0.929221	0.344037
C88	C	1.241940	-0.929193	0.344079
C89	C	1.274812	-0.878672	0.303887
C90	C	1.241938	-0.828182	0.263648
C91	C	1.176196	-0.828214	0.263604
C92	C	0.869449	-0.929307	0.036656
C93	C	0.869409	-0.929278	-0.029087
C94	C	0.909636	-0.878781	-0.061942
C95	C	0.949900	-0.828305	-0.029052
C96	C	0.949936	-0.828331	0.036689
C97	C	0.642792	-0.828777	0.343874
C98	C	0.577049	-0.828827	0.343851
C99	C	0.544166	-0.879282	0.303575
C100	C	0.577028	-0.929684	0.263314
C101	C	0.642770	-0.929629	0.263334
C102	C	0.869633	-0.828557	0.570046
C103	C	0.869483	-0.828727	0.635788
C104	C	0.909387	-0.879579	0.668702
C105	C	0.949440	-0.930269	0.635871
C106	C	0.949587	-0.930102	0.570130
H107	H	0.670191	-0.471483	0.376565
O108	O	1.144346	-0.779199	0.224430
C109	C	1.160403	-0.796353	0.161689
H110	H	1.208127	-0.826665	0.160400
H111	H	1.162670	-0.739382	0.133515
H112	H	1.123395	-0.836881	0.140418
O113	O	0.830387	-0.978357	-0.061098
C114	C	0.866224	-1.029262	-0.099114
H115	H	0.913911	-1.001381	-0.108953
H116	H	0.840558	-1.039850	-0.145348
H117	H	0.873179	-1.087716	-0.073784
O118	O	0.144759	-0.280180	0.224568
C119	C	0.079690	-0.290990	0.233214
H120	H	0.070706	-0.351889	0.253788
H121	H	0.054662	-0.285580	0.186070
H122	H	0.061083	-0.244245	0.266773
H123	H	0.269287	-0.288058	0.230836
H124	H	0.669557	-0.787687	0.376673
O125	O	0.989083	-0.779415	0.068701
C126	C	1.029785	-0.824298	0.106717
H127	H	1.007604	-0.884099	0.116555
H128	H	1.038244	-0.792176	0.152951
H129	H	1.076421	-0.832912	0.081385
H130	H	0.982924	-0.288124	0.663273
H131	H	0.490635	-0.879316	0.303562
O132	O	0.909362	-0.879727	0.732564
C133	C	0.969749	-0.859987	0.754735
H134	H	1.006018	-0.873672	0.716940
H135	H	0.980644	-0.895753	0.798702
H136	H	0.971418	-0.794576	0.766491
H137	H	0.982935	-0.288005	0.944846
H138	H	1.149441	-0.970361	0.376769
H139	H	1.328342	-0.878653	0.303930
O140	O	0.988960	-0.779338	-0.061070
C141	C	0.980281	-0.790138	-0.126145
H142	H	0.959663	-0.851025	-0.135127
H143	H	1.027418	-0.784753	-0.151121
H144	H	0.946745	-0.743372	-0.144808
H145	H	0.550302	-0.787783	0.376638
H146	H	0.837138	-0.787143	0.543256
H147	H	0.836691	-0.970430	0.063399
O148	O	1.273971	-0.779129	0.224671
C149	C	1.339043	-0.789946	0.233336
H150	H	1.348014	-0.815857	0.281899
H151	H	1.364035	-0.730845	0.229146
H152	H	1.357697	-0.831882	0.195973
H153	H	0.670128	-0.288146	0.230699
O154	O	1.273768	-0.978261	0.383233
C155	C	1.230652	-1.022860	0.418689
H156	H	1.183794	-0.990572	0.420857
H157	H	1.249646	-1.031331	0.468294
H158	H	1.223651	-1.082740	0.395588
O159	O	0.544984	-0.978671	0.224254
C160	C	0.479915	-0.967892	0.232867
H161	H	0.470964	-0.942079	0.281448
H162	H	0.454933	-1.026993	0.228588
H163	H	0.461231	-0.925890	0.195530
O164	O	0.674587	-0.978672	0.224212
C165	C	0.631460	-1.023199	0.188654
H166	H	0.584611	-1.025967	0.214426
H167	H	0.650453	-1.085333	0.181937
H168	H	0.624443	-0.994304	0.140846
H169	H	0.909601	-0.878769	-0.115473
H170	H	0.982205	-0.971373	0.543408
H171	H	0.550928	-0.471446	0.376613
O172	O	0.145020	-0.479355	0.383095
C173	C	0.188146	-0.523948	0.418569
H174	H	0.234979	-0.526639	0.392765
H175	H	0.169126	-0.586105	0.425216
H176	H	0.195208	-0.495161	0.466410
H177	H	0.836868	-0.787446	0.662510
O178	O	0.988292	-0.979621	0.667781
C179	C	1.051161	-0.962830	0.651945
H180	H	1.052741	-0.932410	0.604259
H181	H	1.079084	-1.019975	0.649704
H182	H	1.072497	-0.922529	0.689066
O183	O	0.545765	-0.280228	0.224332
C184	C	0.561743	-0.297368	0.161568
H185	H	0.609458	-0.327698	0.160217
H186	H	0.563992	-0.240388	0.133403
H187	H	0.524700	-0.337874	0.140332
O188	O	0.274624	-0.479291	0.382968
C189	C	0.339694	-0.468465	0.374334
H190	H	0.348631	-0.442546	0.325778
H191	H	0.364651	-0.527563	0.378531
H192	H	0.358416	-0.426532	0.411710
O193	O	0.989184	-0.280133	0.538878
C194	C	0.975445	-0.201522	0.554932
H195	H	0.925156	-0.197557	0.572962
H196	H	0.980876	-0.162553	0.511698
H197	H	1.009194	-0.180887	0.593118
O198	O	0.830508	-0.479241	0.668323
C199	C	0.844257	-0.557860	0.652305
H200	H	0.868453	-0.559507	0.604590
H201	H	0.798818	-0.593241	0.650035
H202	H	0.876617	-0.584407	0.689337
O203	O	0.830557	-0.479221	0.538722
C204	C	0.866388	-0.530187	0.500754
H205	H	0.914100	-0.502359	0.490934
H206	H	0.840748	-0.540784	0.454507
H207	H	0.873291	-0.588629	0.526116
H208	H	0.982930	-0.287947	1.064111
H209	H	0.836807	-0.471022	1.064072
H210	H	0.836811	-0.471084	0.944805
