data_functionalizedCrystal
_audit_creation_method	'MofGen! by Chris Wilmer'
_symmetry_space_group_name_H-M	'P1'
_symmetry_Int_Tables_number	1
_symmetry_cell_setting	triclinic
loop_
_symmetry_equiv_pos_as_xyz
  x,y,z
_cell_length_a	15.944493
_cell_length_b	14.519709
_cell_length_c	12.996460
_cell_angle_alpha	89.999966
_cell_angle_beta	89.999729
_cell_angle_gamma	96.422406
loop_
_atom_site_label
_atom_site_type_symbol
_atom_site_fract_x
_atom_site_fract_y
_atom_site_fract_z
O1	O	0.110112	-1.223651	-0.085419
O2	O	0.123079	-0.955148	-0.085449
O3	O	-0.005672	-1.096760	-0.085442
O4	O	0.238863	-1.082040	-0.085426
O5	O	-0.005679	-1.096745	0.085692
O6	O	0.123072	-0.955134	0.085685
O7	O	0.110105	-1.223636	0.085715
Cu8	Cu	0.116588	-1.089384	0.101326
Cu9	Cu	0.116596	-1.089401	-0.101060
O10	O	0.238856	-1.082025	0.085708
C11	C	0.122471	-0.920783	0.000114
C12	C	0.120660	-0.818405	0.000102
C13	C	-0.036971	-1.096151	0.000121
C14	C	-0.130222	-1.094347	0.000107
C15	C	0.110713	-1.258002	0.000150
C16	C	0.112524	-1.360380	0.000155
C17	C	-0.365861	-1.177703	0.000136
C18	C	-0.416491	-1.132759	-0.084246
C19	C	-0.300948	-1.091005	0.000120
C20	C	-0.416474	-1.132725	0.084478
C21	C	-0.465863	-1.087783	0.000136
C22	C	-0.350350	-1.046085	-0.084332
C23	C	-0.350330	-1.046063	0.084468
C24	C	-0.400926	-1.001056	0.000065
C25	C	-0.205946	-1.092863	0.000109
C26	C	-0.560862	-1.085918	0.000139
C27	C	0.270155	-1.082634	0.000143
C28	C	0.363406	-1.084438	0.000149
N29	N	0.116581	-1.089378	0.243673
C30	C	0.113994	-0.443522	0.000148
C31	C	0.115845	-0.547826	0.000135
C32	C	0.117327	-0.630960	0.000124
C33	C	0.119178	-0.735271	0.000113
N34	N	0.116596	-1.089414	-0.243407
C35	C	0.116597	-1.089400	0.663487
C36	C	0.116596	-1.089391	0.546682
C37	C	0.116590	-1.089389	0.453584
C38	C	0.116587	-1.089380	0.336771
H39	H	-0.350125	-1.252382	0.000060
Cl40	Cl	-0.305679	-0.989592	0.194604
H41	H	-0.321580	-1.009498	-0.155747
H42	H	-0.445381	-1.169379	-0.155578
H43	H	-0.445355	-1.169350	0.155812
Cl44	Cl	-0.424977	-0.885670	-0.000015
