data_functionalizedCrystal
_audit_creation_method	'MofGen! by Chris Wilmer'
_symmetry_space_group_name_H-M	'P1'
_symmetry_Int_Tables_number	1
_symmetry_cell_setting	triclinic
loop_
_symmetry_equiv_pos_as_xyz
  x,y,z
_cell_length_a	14.853567
_cell_length_b	17.699083
_cell_length_c	16.176319
_cell_angle_alpha	90.007696
_cell_angle_beta	90.004441
_cell_angle_gamma	83.458973
loop_
_atom_site_label
_atom_site_type_symbol
_atom_site_fract_x
_atom_site_fract_y
_atom_site_fract_z
O1	O	-1.196004	-0.098817	-0.068691
O2	O	-0.696004	0.401183	0.431309
O3	O	-0.933502	-0.110588	-0.068706
O4	O	-0.433502	0.389412	0.431294
O5	O	-1.072169	0.005467	-0.068691
O6	O	-0.572169	0.505467	0.431309
O7	O	-1.057337	-0.214872	-0.068706
O8	O	-0.557337	0.285128	0.431294
O9	O	-1.072150	0.005475	0.068802
O10	O	-0.572150	0.505475	0.568802
O11	O	-0.933483	-0.110581	0.068788
O12	O	-0.433483	0.389419	0.568788
O13	O	-1.195985	-0.098809	0.068802
O14	O	-0.695985	0.401191	0.568802
Cu15	Cu	-1.064732	-0.104694	0.081349
Cu16	Cu	-0.564732	0.395306	0.581349
Cu17	Cu	-1.064755	-0.104703	-0.081253
Cu18	Cu	-0.564755	0.395297	0.418747
O19	O	-1.057318	-0.214865	0.068787
O20	O	-0.557318	0.285135	0.568787
C21	C	-0.899905	-0.110051	0.000039
C22	C	-0.399905	0.389949	0.500039
C23	C	-0.799828	-0.108453	0.000034
C24	C	-0.299828	0.391547	0.500034
C25	C	-1.071628	0.033670	0.000056
C26	C	-0.571628	0.533670	0.500056
C27	C	-1.070034	0.117692	0.000056
C28	C	-0.570034	0.617692	0.500056
C29	C	-1.229582	-0.099347	0.000055
C30	C	-0.729582	0.400653	0.500055
C31	C	-1.329659	-0.100945	0.000055
C32	C	-0.829659	0.399055	0.500055
C33	C	-0.387572	-0.032757	0.000058
C34	C	0.112428	0.467243	0.500058
C35	C	-0.365784	-0.170634	0.000047
C36	C	0.134216	0.329366	0.500047
C37	C	-0.459812	-0.172136	0.000045
C38	C	0.040188	0.327864	0.500045
C39	C	-0.517725	-0.103948	0.000047
C40	C	-0.017725	0.396052	0.500047
C41	C	-0.481610	-0.034258	0.000053
C42	C	0.018390	0.465742	0.500053
C43	C	-0.495934	-0.241826	0.000031
C44	C	0.004066	0.258174	0.500031
C45	C	-0.589968	-0.243332	0.000027
C46	C	-0.089968	0.256668	0.500027
C47	C	-0.647883	-0.175143	0.000036
C48	C	-0.147883	0.324857	0.500036
C49	C	-0.611762	-0.105449	0.000042
C50	C	-0.111762	0.394551	0.500042
C51	C	-0.669675	-0.037261	0.000045
C52	C	-0.169675	0.462739	0.500045
C53	C	-0.633556	0.032433	0.000057
C54	C	-0.133556	0.532433	0.500057
C55	C	-0.539524	0.033931	0.000061
C56	C	-0.039524	0.533931	0.500061
C57	C	-0.741915	-0.176641	0.000031
C58	C	-0.241915	0.323359	0.500031
C59	C	-0.763712	-0.038762	0.000039
C60	C	-0.263712	0.461238	0.500039
C61	C	-1.057859	-0.243067	0.000039
C62	C	-0.557859	0.256933	0.500039
C63	C	-1.059453	-0.327089	0.000033
C64	C	-0.559453	0.172911	0.500033
N65	N	-1.064723	-0.104688	0.195714
N66	N	-0.564723	0.395312	0.695714
C67	C	-1.151429	0.166101	0.000062
C68	C	-0.651429	0.666101	0.500062
C69	C	-1.149925	0.245049	0.000054
C70	C	-0.649925	0.745049	0.500054
C71	C	-1.067026	0.275585	0.000047
C72	C	-0.567026	0.775585	0.500047
C73	C	-0.985625	0.227169	0.000039
C74	C	-0.485625	0.727169	0.500039
C75	C	-0.987129	0.148223	0.000041
C76	C	-0.487129	0.648223	0.500041
C77	C	-0.979555	0.545548	0.000032
C78	C	-0.479555	1.045548	0.500032
C79	C	-0.978057	0.624499	0.000033
C80	C	-0.478057	1.124499	0.500033
C81	C	-1.142352	0.642373	0.000046
C82	C	-0.642352	1.142373	0.500046
C83	C	-1.143856	0.563428	0.000047
C84	C	-0.643856	1.063428	0.500047
C85	C	-1.062455	0.515019	0.000035
C86	C	-0.562455	1.015019	0.500035
C87	C	-1.064087	0.429415	0.000041
C88	C	-0.564087	0.929415	0.500041
C89	C	-1.065394	0.361187	0.000047
C90	C	-0.565394	0.861187	0.500047
N91	N	-1.064771	-0.104704	-0.195618
N92	N	-0.564771	0.395296	0.304382
C93	C	-1.126144	-0.053319	0.238985
C94	C	-0.626144	0.446681	0.738985
C95	C	-1.126148	-0.053319	0.325532
C96	C	-0.626148	0.446681	0.825532
C97	C	-1.064736	-0.104690	0.368807
C98	C	-0.564736	0.395310	0.868807
C99	C	-1.003309	-0.156061	0.325530
C100	C	-0.503309	0.343939	0.825530
C101	C	-1.003301	-0.156058	0.238984
C102	C	-0.503301	0.343942	0.738984
C103	C	-1.003340	-0.156075	0.674558
C104	C	-0.503340	0.343925	1.174558
C105	C	-1.003354	-0.156076	0.761110
C106	C	-0.503354	0.343924	1.261110
C107	C	-1.126187	-0.053336	0.761106
C108	C	-0.626187	0.446664	1.261106
C109	C	-1.126179	-0.053333	0.674560
C110	C	-0.626179	0.446667	1.174560
C111	C	-1.064749	-0.104701	0.631291
C112	C	-0.564749	0.395299	1.131291
C113	C	-1.064744	-0.104700	0.537447
C114	C	-0.564744	0.395300	1.037447
C115	C	-1.064745	-0.104695	0.462649
C116	C	-0.564745	0.395305	0.962649
H117	H	-0.810860	0.016766	0.000045
H118	H	-0.310860	0.516766	0.500045
H119	H	-0.619367	-0.300081	0.000017
H120	H	-0.119367	0.199919	0.500017
Br121	Br	-1.256366	0.521990	0.000056
Br122	Br	-0.756366	1.021990	0.500056
Br123	Br	-0.712163	0.124970	0.000051
Br124	Br	-0.212163	0.624970	0.500051
H125	H	-0.918126	0.252037	0.000028
H126	H	-0.418126	0.752037	0.500028
H127	H	-1.218935	0.141246	0.000073
H128	H	-0.718935	0.641246	0.500073
H129	H	-0.510108	0.090673	0.000091
H130	H	-0.010108	0.590673	0.500091
Br131	Br	-1.209502	0.016399	0.384260
Br132	Br	-0.709502	0.516399	0.884260
H133	H	-0.910546	0.649358	0.000029
H134	H	-0.410546	1.149358	0.500029
H135	H	-0.318626	-0.226149	0.000038
H136	H	0.181374	0.273851	0.500038
H137	H	-0.953301	-0.197887	0.360769
H138	H	-0.453301	0.302113	0.860769
H139	H	-0.953285	-0.197886	0.203754
H140	H	-0.453285	0.302114	0.703754
Br141	Br	-0.876660	0.082522	0.000026
Br142	Br	-0.376660	0.582522	0.500026
Br143	Br	-0.338558	0.061824	0.000082
Br144	Br	0.161442	0.561824	0.500082
Br145	Br	-1.260395	0.310746	0.000062
Br146	Br	-0.760395	0.810746	0.500062
Br147	Br	-0.417336	-0.334361	0.000009
Br148	Br	0.082664	0.165639	0.500009
Br149	Br	-0.920004	-0.225801	0.819840
Br150	Br	-0.420004	0.274199	1.319840
H151	H	-0.771318	-0.233385	0.000023
H152	H	-0.271318	0.266615	0.500023
H153	H	-1.208632	0.681798	0.000052
H154	H	-0.708632	1.181798	0.500052
Br155	Br	-0.919975	-0.225788	0.615840
Br156	Br	-0.419975	0.274212	1.115840
H157	H	-0.913274	0.506142	0.000022
H158	H	-0.413274	1.006142	0.500022
H159	H	-1.176156	-0.011490	0.203756
H160	H	-0.676156	0.488510	0.703756
Br161	Br	-1.209531	0.016384	0.615833
Br162	Br	-0.709531	0.516384	1.115833
H163	H	-1.176204	-0.011507	0.796345
H164	H	-0.676204	0.488493	1.296345
