data_functionalizedCrystal
_audit_creation_method	'MofGen! by Chris Wilmer'
_symmetry_space_group_name_H-M	'P1'
_symmetry_Int_Tables_number	1
_symmetry_cell_setting	triclinic
loop_
_symmetry_equiv_pos_as_xyz
  x,y,z
_cell_length_a	14.044202
_cell_length_b	19.288865
_cell_length_c	17.766277
_cell_angle_alpha	90.011603
_cell_angle_beta	90.006688
_cell_angle_gamma	88.164474
loop_
_atom_site_label
_atom_site_type_symbol
_atom_site_fract_x
_atom_site_fract_y
_atom_site_fract_z
O1	O	-1.256999	-0.167444	-0.062573
O2	O	-0.981055	-0.161396	-0.062582
O3	O	-1.127000	-0.063802	-0.062562
O4	O	-1.111053	-0.265037	-0.062593
O5	O	-1.126975	-0.063795	0.062626
O6	O	-0.981030	-0.161389	0.062607
O7	O	-1.256973	-0.167437	0.062616
Cu8	Cu	-1.118999	-0.164412	0.074042
Cu9	Cu	-1.119029	-0.164420	-0.074008
O10	O	-1.111028	-0.265030	0.062596
C11	C	-0.945739	-0.158747	0.000011
C12	C	-0.840547	-0.150857	0.000008
C13	C	-0.590084	-0.192387	0.000009
C14	C	-0.647951	-0.136443	0.000017
C15	C	-0.755121	-0.144465	0.000012
C16	C	-0.482904	-0.184366	0.000014
C17	C	-1.126474	-0.037889	0.000034
C18	C	-1.124934	0.039314	0.000041
C19	C	-1.111554	-0.290943	-0.000002
C20	C	-1.113094	-0.368146	-0.000014
C21	C	-0.292289	-0.170084	0.000021
C22	C	-0.397482	-0.177970	0.000018
N23	N	-1.118985	-0.164406	0.178172
C24	C	-1.210568	0.078506	0.000047
C25	C	-1.209121	0.151046	0.000035
C26	C	-1.122035	0.184391	0.000032
C27	C	-1.036390	0.145190	0.000021
C28	C	-1.037839	0.072651	0.000026
C29	C	-1.053566	0.297081	0.043881
C30	C	-1.052120	0.369619	0.043881
C31	C	-1.117561	0.408124	0.000015
C32	C	-1.184463	0.374084	-0.043841
C33	C	-1.185913	0.301545	-0.043837
C34	C	-1.120454	0.263047	0.000027
C35	C	-1.201632	0.525973	0.000008
C36	C	-1.200181	0.598514	-0.000009
C37	C	-1.027447	0.592656	-0.000016
C38	C	-1.028900	0.520117	-0.000007
C39	C	-1.115995	0.486779	0.000009
N40	N	-1.119051	-0.164421	-0.178138
C41	C	-1.183630	-0.121216	0.217568
C42	C	-1.183635	-0.121213	0.296370
C43	C	-1.119005	-0.164413	0.335773
C44	C	-1.054347	-0.207606	0.296368
C45	C	-1.054337	-0.207602	0.217567
C46	C	-1.106318	-0.226885	0.460601
C47	C	-1.106335	-0.226890	0.539400
C48	C	-1.119030	-0.164423	0.578819
C49	C	-1.131729	-0.101950	0.539430
C50	C	-1.131719	-0.101946	0.460630
C51	C	-1.119008	-0.164421	0.421218
C52	C	-1.183685	-0.121226	0.703661
C53	C	-1.183684	-0.121222	0.782464
C54	C	-1.054400	-0.207621	0.782460
C55	C	-1.054397	-0.207619	0.703659
C56	C	-1.119044	-0.164422	0.664264
H57	H	-0.617006	-0.082523	-0.000028
H58	H	-1.142066	-0.051083	0.571523
H59	H	-1.001760	-0.242791	0.671580
Br60	Br	-0.641658	-0.282253	-0.000012
Br61	Br	-0.966597	-0.266221	0.164097
Br62	Br	-1.089183	-0.311678	0.407112
H63	H	-1.096001	-0.277760	0.571465
H64	H	-1.281487	0.051367	0.000057
Br65	Br	-0.909257	0.637902	-0.000028
H66	H	-1.278857	0.182962	0.000038
Br67	Br	-1.276699	0.255349	-0.103356
H68	H	-0.997641	0.397328	0.079587
H69	H	-1.001773	-0.242792	0.814542
H70	H	-1.001722	-0.242779	0.328453
Br71	Br	-1.271415	-0.062596	0.835934
Br72	Br	-1.273283	0.426332	-0.103377
Br73	Br	-1.319828	0.480725	0.000036
Br74	Br	-1.316409	0.651705	-0.000008
H75	H	-0.959168	0.488206	-0.000008
H76	H	-1.000275	0.265736	0.079605
H77	H	-0.965484	0.172344	0.000017
Br78	Br	-0.921612	0.019458	0.000015
H79	H	-1.236267	-0.086041	0.185495
Br80	Br	-1.271375	-0.062592	0.349845
H81	H	-1.142056	-0.051078	0.428562
H82	H	-1.236322	-0.086051	0.671584
