data_functionalizedCrystal
_audit_creation_method	'MofGen! by Chris Wilmer'
_symmetry_space_group_name_H-M	'P1'
_symmetry_Int_Tables_number	1
_symmetry_cell_setting	triclinic
loop_
_symmetry_equiv_pos_as_xyz
  x,y,z
_cell_length_a	8.559649
_cell_length_b	19.288864
_cell_length_c	18.366186
_cell_angle_alpha	89.971967
_cell_angle_beta	89.991101
_cell_angle_gamma	76.457457
loop_
_atom_site_label
_atom_site_type_symbol
_atom_site_fract_x
_atom_site_fract_y
_atom_site_fract_z
O1	O	2.120308	-0.023572	-0.060528
O2	O	2.620308	0.476428	0.439472
O3	O	1.654846	0.012313	-0.060546
O4	O	2.154846	0.512313	0.439454
O5	O	1.901026	-0.107459	-0.060492
O6	O	2.401026	0.392541	0.439508
O7	O	1.874127	0.096200	-0.060583
O8	O	2.374127	0.596200	0.439417
O9	O	1.900985	-0.107462	0.060608
O10	O	2.400985	0.392538	0.560608
O11	O	1.654804	0.012310	0.060553
O12	O	2.154804	0.512310	0.560553
O13	O	2.120266	-0.023575	0.060571
O14	O	2.620266	0.476425	0.560571
Zn15	Zn	1.887529	-0.005633	0.079789
Zn16	Zn	2.387529	0.494367	0.579789
Zn17	Zn	1.887583	-0.005629	-0.079764
Zn18	Zn	2.387583	0.494371	0.420236
O19	O	1.874086	0.096197	0.060517
O20	O	2.374086	0.596197	0.560517
C21	C	1.595275	0.015031	0.000002
C22	C	2.095275	0.515031	0.500002
C23	C	1.417837	0.023126	-0.000003
C24	C	1.917837	0.523126	0.499997
C25	C	1.900140	-0.133292	0.000068
C26	C	2.400140	0.366708	0.500068
C27	C	1.897542	-0.210261	0.000098
C28	C	2.397542	0.289739	0.500098
N29	N	1.887503	-0.005637	0.188680
N30	N	2.387503	0.494363	0.688680
C31	C	2.179837	-0.026293	0.000022
C32	C	2.679837	0.473707	0.500022
C33	C	2.357275	-0.034388	0.000022
C34	C	2.857275	0.465612	0.500022
C35	C	1.874972	0.122030	-0.000045
C36	C	2.374972	0.622030	0.499955
C37	C	1.877570	0.198998	-0.000079
C38	C	2.377570	0.698998	0.499921
C39	C	1.733122	0.251204	-0.000070
C40	C	2.233122	0.751204	0.499930
C41	C	1.735563	0.323524	-0.000054
C42	C	2.235563	0.823524	0.499946
C43	C	1.882460	0.343635	-0.000031
C44	C	2.382460	0.843635	0.499969
C45	C	2.026927	0.291419	-0.000044
C46	C	2.526927	0.791419	0.499956
C47	C	2.024482	0.219101	-0.000068
C48	C	2.524482	0.719101	0.499932
C49	C	1.997922	0.445881	0.042438
C50	C	2.497922	0.945881	0.542438
C51	C	2.000361	0.518199	0.042467
C52	C	2.500361	1.018199	0.542467
C53	C	1.890008	0.566688	0.000039
C54	C	2.390008	1.066688	0.500039
C55	C	1.777188	0.542854	-0.042408
C56	C	2.277188	1.042854	0.457592
C57	C	1.774742	0.470536	-0.042432
C58	C	2.274742	0.970536	0.457568
C59	C	1.885128	0.422050	-0.000006
C60	C	2.385128	0.922050	0.499994
C61	C	1.748197	0.697312	0.000065
C62	C	2.248197	1.197312	0.500065
C63	C	1.750644	0.769633	0.000077
C64	C	2.250644	1.269633	0.500077
C65	C	2.042011	0.737527	0.000093
C66	C	2.542011	1.237527	0.500093
C67	C	2.039560	0.665208	0.000074
C68	C	2.539560	1.165208	0.500074
C69	C	1.892648	0.645105	0.000063
C70	C	2.392648	1.145105	0.500063
N71	N	1.887622	-0.005631	-0.188655
N72	N	2.387622	0.494369	0.311345
C73	C	1.996547	-0.058651	0.226805
C74	C	2.496547	0.441349	0.726805
C75	C	1.996557	-0.058654	0.303033
C76	C	2.496557	0.441346	0.803033
C77	C	1.887538	-0.005633	0.341133
C78	C	2.387538	0.494367	0.841133
C79	C	1.778473	0.047385	0.302999
C80	C	2.278473	0.547385	0.802999
C81	C	1.778456	0.047383	0.226773
C82	C	2.278456	0.547383	0.726773
C83	C	1.866140	0.058767	0.461865
C84	C	2.366140	0.558767	0.961865
C85	C	1.866169	0.058769	0.538090
C86	C	2.366169	0.558769	1.038090
C87	C	1.887584	-0.005627	0.576241
C88	C	2.387584	0.494373	1.076241
C89	C	1.909003	-0.070030	0.538158
C90	C	2.409003	0.429970	1.038158
C91	C	1.908985	-0.070032	0.461931
C92	C	2.408985	0.429968	0.961931
C93	C	1.887545	-0.005625	0.423788
C94	C	2.387545	0.494375	0.923788
C95	C	1.996645	-0.058649	0.697020
C96	C	2.496645	0.441351	1.197020
C97	C	1.996644	-0.058653	0.773250
C98	C	2.496644	0.441347	1.273250
C99	C	1.778568	0.047393	0.773215
C100	C	2.278568	0.547393	1.273215
C101	C	1.778561	0.047391	0.696987
C102	C	2.278561	0.547391	1.196987
C103	C	1.887608	-0.005629	0.658894
C104	C	2.387608	0.494371	1.158894
H105	H	1.441171	-0.089821	0.000043
H106	H	1.941171	0.410179	0.500043
H107	H	2.092220	0.537599	0.077032
H108	H	2.592220	1.037599	0.577032
Cl109	Cl	1.641479	0.114043	0.649054
Cl110	Cl	2.141479	0.614043	1.149054
Cl111	Cl	1.288305	0.108717	-0.000048
Cl112	Cl	1.788305	0.608717	0.499952
Cl113	Cl	1.632928	0.440574	-0.095795
Cl114	Cl	2.132928	0.940574	0.404205
Cl115	Cl	1.638433	0.603807	-0.095742
Cl116	Cl	2.138433	1.103807	0.404258
H117	H	1.613496	0.234842	-0.000085
H118	H	2.113496	0.734842	0.499915
H119	H	1.617933	0.366037	-0.000045
H120	H	2.117933	0.866037	0.499955
H121	H	1.628572	0.680944	0.000060
H122	H	2.128572	1.180944	0.500060
H123	H	1.633012	0.812140	0.000079
H124	H	2.133012	1.312140	0.500079
H125	H	2.161618	0.753900	0.000058
H126	H	2.661618	1.253900	0.500058
Cl127	Cl	1.641362	0.114035	0.178842
Cl128	Cl	2.141362	0.614035	0.678842
H129	H	2.157185	0.622700	0.000071
H130	H	2.657185	1.122700	0.500071
Cl131	Cl	2.136677	0.384928	0.095776
Cl132	Cl	2.636677	0.884928	0.595776
H133	H	1.926440	-0.122467	0.569218
H134	H	2.426440	0.377533	1.069218
Cl135	Cl	2.211597	0.316701	-0.000021
Cl136	Cl	2.711597	0.816701	0.499979
H137	H	2.085336	-0.101824	0.195792
H138	H	2.585336	0.398176	0.695792
H139	H	2.142112	0.176593	-0.000076
H140	H	2.642112	0.676593	0.499924
H141	H	2.085357	-0.101826	0.334080
H142	H	2.585357	0.398174	0.834080
H143	H	1.926422	-0.122470	0.430927
H144	H	2.426422	0.377530	0.930927
Cl145	Cl	2.133723	-0.125305	0.649131
Cl146	Cl	2.633723	0.374695	1.149131
H147	H	1.689706	0.090555	0.334024
H148	H	2.189706	0.590555	0.834024
H149	H	2.085436	-0.101826	0.804291
H150	H	2.585436	0.398174	1.304291
Cl151	Cl	1.839366	0.139724	0.413911
Cl152	Cl	2.339366	0.639724	0.913911
H153	H	1.689796	0.090561	0.804235
H154	H	2.189796	0.590561	1.304235
H155	H	1.848738	0.111209	0.569091
H156	H	2.348738	0.611209	1.069091
