data_functionalizedCrystal
_audit_creation_method	'MofGen! by Chris Wilmer'
_symmetry_space_group_name_H-M	'P1'
_symmetry_Int_Tables_number	1
_symmetry_cell_setting	triclinic
loop_
_symmetry_equiv_pos_as_xyz
  x,y,z
_cell_length_a	11.026660
_cell_length_b	14.044220
_cell_length_c	9.482900
_cell_angle_alpha	79.811199
_cell_angle_beta	101.363893
_cell_angle_gamma	100.886856
loop_
_atom_site_label
_atom_site_type_symbol
_atom_site_fract_x
_atom_site_fract_y
_atom_site_fract_z
O1	O	1.671564	0.392546	0.120923
O2	O	2.171564	0.892546	0.620923
O3	O	1.313275	0.346500	0.120921
O4	O	1.813275	0.846500	0.620921
O5	O	1.487039	0.230622	0.120908
O6	O	1.987039	0.730622	0.620908
O7	O	1.497799	0.508424	0.120936
O8	O	1.997799	1.008424	0.620936
O9	O	1.451757	0.254281	-0.120882
O10	O	1.951757	0.754281	0.379118
O11	O	1.277993	0.370159	-0.120869
O12	O	1.777993	0.870159	0.379131
O13	O	1.636281	0.416204	-0.120867
O14	O	2.136281	0.916204	0.379133
Cu15	Cu	1.453915	0.395342	-0.142945
Cu16	Cu	1.953915	0.895342	0.357055
Cu17	Cu	1.495641	0.367363	0.142999
Cu18	Cu	1.995641	0.867363	0.642999
O19	O	1.462517	0.532082	-0.120853
O20	O	1.962517	1.032082	0.379147
C21	C	1.249504	0.349835	0.000026
C22	C	1.749504	0.849835	0.500026
C23	C	1.112049	0.324512	0.000025
C24	C	1.612049	0.824512	0.500025
C25	C	0.903747	0.368269	0.000034
C26	C	1.403747	0.868269	0.500034
C27	C	1.045813	0.394444	0.000033
C28	C	1.545813	0.894444	0.500033
C29	C	1.464690	0.206334	0.000012
C30	C	1.964690	0.706334	0.500012
C31	C	1.450646	0.098712	0.000010
C32	C	1.950646	0.598712	0.500010
C33	C	1.424974	-0.098332	0.000031
C34	C	1.924974	0.401668	0.500031
C35	C	1.524579	-0.138971	0.000036
C36	C	2.024579	0.361029	0.500036
C37	C	1.510294	-0.248613	0.000047
C38	C	2.010294	0.251387	0.500047
C39	C	1.439256	0.011319	0.000019
C40	C	1.939256	0.511319	0.500019
C41	C	1.700053	0.412869	0.000032
C42	C	2.200053	0.912869	0.500032
C43	C	1.837509	0.438191	0.000042
C44	C	2.337509	0.938191	0.500042
C45	C	1.484867	0.556370	0.000045
C46	C	1.984867	1.056370	0.500045
C47	C	1.498912	0.663991	0.000057
C48	C	1.998912	1.163991	0.500057
N49	N	1.424577	0.415021	-0.344063
N50	N	1.924577	0.915021	0.155937
C51	C	1.486978	0.373161	-0.416267
C52	C	1.986978	0.873161	0.083733
C53	C	1.462578	0.389544	-0.583683
C54	C	1.962578	0.889544	-0.083683
N55	N	1.524988	0.347677	0.344117
N56	N	2.024988	0.847677	0.844117
H57	H	1.094274	0.473690	0.000032
H58	H	1.594274	0.973690	0.500032
N59	N	1.047872	0.219541	0.000002
N60	N	1.547872	0.719541	0.500002
H61	H	0.955482	0.215719	0.000002
H62	H	1.455482	0.715719	0.500002
H63	H	1.085742	0.177576	0.089632
H64	H	1.585742	0.677576	0.589632
N65	N	0.901690	0.543159	0.000041
N66	N	1.401690	1.043159	0.500041
H67	H	0.994080	0.546978	0.000038
H68	H	1.494080	1.046978	0.500038
H69	H	0.889982	0.567583	0.089679
H70	H	1.389982	1.067583	0.589679
N71	N	1.651748	-0.075993	0.000029
N72	N	2.151748	0.424007	0.500029
H73	H	1.644062	-0.005461	0.000019
H74	H	2.144062	0.494539	0.500019
H75	H	1.685035	-0.081481	-0.089608
H76	H	2.185035	0.418519	0.410392
N77	N	0.839561	0.263305	0.000000
N78	N	1.339561	0.763305	0.500000
H79	H	0.747171	0.259486	-0.000004
H80	H	1.247171	0.759486	0.499996
H81	H	0.877426	0.221335	0.089627
H82	H	1.377426	0.721335	0.589627
N83	N	1.297813	-0.161309	0.000032
N84	N	1.797813	0.338691	0.500032
H85	H	1.305506	-0.231839	0.000036
H86	H	1.805506	0.268161	0.500036
H87	H	1.238362	-0.138298	-0.089610
H88	H	1.738362	0.361702	0.410390
N89	N	1.581642	0.309592	-0.333993
N90	N	2.081642	0.809592	0.166007
H91	H	1.585640	0.306887	-0.226059
H92	H	2.085640	0.806887	0.273941
H93	H	1.666770	0.338128	-0.360480
H94	H	2.166770	0.838128	0.139520
H95	H	1.391080	0.437509	-0.645801
H96	H	1.891080	0.937509	-0.145801
N97	N	1.619697	0.284141	-0.573612
N98	N	2.119697	0.784141	-0.073612
H99	H	1.657988	0.258459	-0.644801
H100	H	2.157988	0.758459	-0.144801
H101	H	1.576749	0.227291	-0.510475
H102	H	2.076749	0.727291	-0.010475
N103	N	1.329871	0.478553	-0.426337
N104	N	1.829871	0.978553	0.073663
H105	H	1.325862	0.481248	-0.534271
H106	H	1.825862	0.981248	-0.034271
H107	H	1.355655	0.546912	-0.399801
H108	H	1.855655	1.046912	0.100199
