data_functionalizedCrystal
_audit_creation_method	'MofGen! by Chris Wilmer'
_symmetry_space_group_name_H-M	'P1'
_symmetry_Int_Tables_number	1
_symmetry_cell_setting	triclinic
loop_
_symmetry_equiv_pos_as_xyz
  x,y,z
_cell_length_a	17.699104
_cell_length_b	17.699092
_cell_length_c	9.730223
_cell_angle_alpha	89.997288
_cell_angle_beta	89.995824
_cell_angle_gamma	83.288943
loop_
_atom_site_label
_atom_site_type_symbol
_atom_site_fract_x
_atom_site_fract_y
_atom_site_fract_z
O1	O	1.004067	0.095786	-0.114313
O2	O	0.783692	0.108222	-0.114309
O3	O	0.900102	-0.008185	-0.114308
O4	O	0.887657	0.212192	-0.114314
O5	O	0.900095	-0.008188	0.114272
O6	O	0.783684	0.108218	0.114271
O7	O	1.004060	0.095783	0.114267
Zn8	Zn	0.893871	0.102000	0.150561
Zn9	Zn	0.893881	0.102004	-0.150603
O10	O	0.887649	0.212189	0.114266
C11	C	0.755491	0.107772	-0.000018
C12	C	0.671474	0.106427	-0.000017
C13	C	0.146605	0.167170	-0.000033
C14	C	0.225548	0.168430	-0.000037
C15	C	0.274164	0.100095	-0.000035
C16	C	0.243832	0.030496	-0.000042
C17	C	0.164890	0.029238	-0.000048
C18	C	0.562198	0.035569	-0.000021
C19	C	0.641145	0.036833	-0.000011
C20	C	0.622857	0.174761	-0.000009
C21	C	0.543915	0.173503	-0.000015
C22	C	0.513590	0.103905	-0.000030
C23	C	0.427990	0.102540	-0.000028
C24	C	0.359762	0.101458	-0.000026
C25	C	0.899652	-0.036383	-0.000020
C26	C	0.898311	-0.120401	-0.000026
C27	C	0.897686	-0.159867	-0.124626
C28	C	0.896421	-0.238810	-0.124628
C29	C	0.895786	-0.278286	-0.000028
C30	C	0.896408	-0.238815	0.124582
C31	C	0.897668	-0.159872	0.124583
C32	C	0.891328	-0.557180	0.124584
C33	C	0.890071	-0.636128	0.124575
C34	C	0.890082	-0.636118	-0.124626
C35	C	0.891341	-0.557175	-0.124626
C36	C	0.891959	-0.517710	-0.000017
C37	C	0.893329	-0.432111	-0.000017
C38	C	0.894421	-0.363885	-0.000027
C39	C	1.032260	0.096232	-0.000026
C40	C	1.116278	0.097577	-0.000036
C41	C	0.888100	0.240387	-0.000025
C42	C	0.889441	0.324405	-0.000027
N43	N	0.893870	0.101997	0.356098
N44	N	0.893888	0.102001	-0.356139
C45	C	0.945434	0.050474	0.428024
C46	C	0.945441	0.050474	0.571907
C47	C	0.842318	0.153527	0.571925
C48	C	0.842308	0.153523	0.428044
H49	H	0.680728	-0.018817	-0.000012
H50	H	0.889551	-0.668268	0.226045
N51	N	0.786712	0.209098	0.649535
H52	H	0.815574	0.242579	0.709210
H53	H	0.754055	0.241686	0.582052
N54	N	0.258256	0.243492	-0.000010
H55	H	0.315642	0.233923	-0.000010
H56	H	0.240469	0.273396	-0.084741
H57	H	0.537518	-0.021102	-0.000029
H58	H	0.647557	0.231431	-0.000003
H59	H	0.107027	0.222817	-0.000024
H60	H	0.283421	-0.025143	-0.000049
N61	N	0.892031	-0.514598	-0.259015
H62	H	0.891443	-0.551578	-0.337952
H63	H	0.845654	-0.475626	-0.264439
H64	H	0.889575	-0.668259	-0.226089
H65	H	0.800314	0.195479	0.369478
H66	H	0.504335	0.229148	-0.000010
H67	H	0.140199	-0.027432	-0.000054
N68	N	0.898347	-0.117310	0.258980
H69	H	0.945768	-0.090774	0.264535
H70	H	0.851938	-0.078380	0.264459
N71	N	1.001033	-0.005100	0.350404
H72	H	1.054735	0.003549	0.375415
H73	H	0.992351	-0.058783	0.375484
N74	N	0.898378	-0.117292	-0.259018
H75	H	0.897790	-0.154275	-0.337951
H76	H	0.852001	-0.078320	-0.264448
H77	H	0.895916	-0.270940	-0.226090
H78	H	0.891846	-0.525059	0.226049
H79	H	0.895886	-0.270962	0.226034
N80	N	1.001067	-0.005087	0.649487
H81	H	1.033731	-0.037723	0.582072
H82	H	1.034467	0.023866	0.709155
