data_functionalizedCrystal
_audit_creation_method	'MofGen! by Chris Wilmer'
_symmetry_space_group_name_H-M	'P1'
_symmetry_Int_Tables_number	1
_symmetry_cell_setting	triclinic
loop_
_symmetry_equiv_pos_as_xyz
  x,y,z
_cell_length_a	19.805407
_cell_length_b	21.295417
_cell_length_c	19.805398
_cell_angle_alpha	89.968132
_cell_angle_beta	89.986879
_cell_angle_gamma	90.030507
loop_
_atom_site_label
_atom_site_type_symbol
_atom_site_fract_x
_atom_site_fract_y
_atom_site_fract_z
Zn1	Zn	1.034673	-0.250617	-0.382704
Zn2	Zn	1.534673	0.249383	0.117296
Zn3	Zn	1.034593	-0.355888	-0.269510
Zn4	Zn	1.534593	0.144112	0.230490
Zn5	Zn	0.921501	-0.250637	-0.269529
Zn6	Zn	1.421501	0.249363	0.230471
Zn7	Zn	0.921443	-0.355853	-0.382656
Zn8	Zn	1.421443	0.144147	0.117344
O9	O	0.978053	-0.303249	-0.326100
O10	O	1.478053	0.196751	0.173900
O11	O	1.129379	-0.264589	-0.367701
O12	O	1.629379	0.235411	0.132299
O13	O	1.019581	-0.341949	-0.174796
O14	O	1.519581	0.158051	0.325204
O15	O	0.936571	-0.162545	-0.284570
O16	O	1.436571	0.337455	0.215430
O17	O	1.129320	-0.341930	-0.284537
O18	O	1.629320	0.158070	0.215463
O19	O	1.019718	-0.162531	-0.367719
O20	O	1.519718	0.337469	0.132281
O21	O	0.936493	-0.264621	-0.174810
O22	O	1.436493	0.235379	0.325190
O23	O	0.826777	-0.264587	-0.284523
O24	O	1.326777	0.235413	0.215477
O25	O	0.936473	-0.341870	-0.477379
O26	O	1.436473	0.158130	0.022621
O27	O	0.826734	-0.341889	-0.367638
O28	O	1.326734	0.158111	0.132362
O29	O	1.019663	-0.264554	-0.477415
O30	O	1.519663	0.235446	0.022585
O31	O	1.019526	-0.443973	-0.284491
O32	O	1.519526	0.056027	0.215509
O33	O	0.936395	-0.443947	-0.367619
O34	O	1.436395	0.056053	0.132381
C35	C	0.802197	-0.303237	-0.326078
C36	C	1.302197	0.196763	0.173922
C37	C	0.726965	-0.303247	-0.326085
C38	C	1.226965	0.196753	0.173915
C39	C	0.691616	-0.343558	-0.369292
C40	C	1.191616	0.156442	0.130708
C41	C	0.620928	-0.343559	-0.369302
C42	C	1.120928	0.156441	0.130698
C43	C	0.585589	-0.303252	-0.326100
C44	C	1.085589	0.196748	0.173900
C45	C	0.620942	-0.262936	-0.282890
C46	C	1.120942	0.237064	0.217110
C47	C	0.691629	-0.262932	-0.282885
C48	C	1.191629	0.237068	0.217115
C49	C	0.335869	-0.262949	-0.282913
C50	C	0.835869	0.237051	0.217087
C51	C	0.265177	-0.262958	-0.282920
C52	C	0.765177	0.237042	0.217080
C53	C	0.265167	-0.343577	-0.369330
C54	C	0.765167	0.156423	0.130670
C55	C	0.335854	-0.343573	-0.369324
C56	C	0.835854	0.156427	0.130676
C57	C	0.371202	-0.303255	-0.326117
C58	C	0.871202	0.196745	0.173883
C59	C	0.447850	-0.303254	-0.326109
C60	C	0.947850	0.196746	0.173891
C61	C	0.508942	-0.303256	-0.326105
C62	C	1.008942	0.196744	0.173895
C63	C	0.977964	-0.466800	-0.326062
C64	C	1.477964	0.033200	0.173938
C65	C	0.977988	-0.536768	-0.326069
C66	C	1.477988	-0.036768	0.173931
C67	C	1.021312	-0.569628	-0.282828
C68	C	1.521312	-0.069628	0.217172
C69	C	1.021344	-0.635370	-0.282844
C70	C	1.521344	-0.135370	0.217156
C71	C	0.978039	-0.668251	-0.326092
C72	C	1.478039	-0.168251	0.173908
C73	C	0.934712	-0.635384	-0.369341
C74	C	1.434712	-0.135384	0.130659
C75	C	0.934686	-0.569643	-0.369330
C76	C	1.434686	-0.069643	0.130670
N77	N	0.918828	-0.771517	-0.331245
N78	N	1.418828	-0.271517	0.168755
N79	N	0.918854	-0.833968	-0.331252
N80	N	1.418854	-0.333968	0.168748
C81	C	0.978115	-0.866326	-0.326131
C82	C	1.478115	-0.366326	0.173869
N83	N	1.037349	-0.833872	-0.320989
N84	N	1.537349	-0.333872	0.179011
N85	N	1.037322	-0.771415	-0.320979
N86	N	1.537322	-0.271415	0.179021
C87	C	0.978062	-0.739536	-0.326110
C88	C	1.478062	-0.239536	0.173890
C89	C	1.021477	-0.970470	-0.282905
C90	C	1.521477	-0.470470	0.217095
C91	C	1.021510	-1.036214	-0.282925
C92	C	1.521510	-0.536214	0.217075
C93	C	0.934872	-1.036226	-0.369419
C94	C	1.434872	-0.536226	0.130581
C95	C	0.934845	-0.970484	-0.369402
C96	C	1.434845	-0.470484	0.130598
C97	C	0.978147	-0.937610	-0.326142
C98	C	1.478147	-0.437610	0.173858
C99	C	1.154595	-0.303261	-0.326122
C100	C	1.654595	0.196739	0.173878
C101	C	1.229827	-0.303267	-0.326132
C102	C	1.729827	0.196733	0.173868
C103	C	0.978071	-0.303206	-0.502643
C104	C	1.478071	0.196794	-0.002643
C105	C	0.978078	-0.303188	-0.577875
C106	C	1.478078	0.196812	-0.077875
C107	C	0.978160	-0.139058	-0.326152
C108	C	1.478160	0.360942	0.173848
C109	C	0.978206	-0.069090	-0.326175
C110	C	1.478206	0.430910	0.173825
C111	C	1.021449	-0.343352	-1.039656
C112	C	1.521449	0.156648	-0.539656
C113	C	1.021430	-0.343370	-0.968968
C114	C	1.521430	0.156630	-0.468968
C115	C	0.978162	-0.303117	-0.933637
C116	C	1.478162	0.196883	-0.433637
C117	C	0.934905	-0.262849	-0.968998
C118	C	1.434905	0.237151	-0.468998
C119	C	0.934921	-0.262836	-1.039685
C120	C	1.434921	0.237164	-0.539685
C121	C	0.934840	-0.262903	-0.683924
C122	C	1.434840	0.237097	-0.183924
C123	C	0.934829	-0.262918	-0.613232
C124	C	1.434829	0.237082	-0.113232
C125	C	1.021349	-0.343437	-0.613207
C126	C	1.521349	0.156563	-0.113207
C127	C	1.021365	-0.343423	-0.683894
C128	C	1.521365	0.156577	-0.183894
C129	C	0.978106	-0.303158	-0.719249
C130	C	1.478106	0.196842	-0.219249
C131	C	0.978126	-0.303141	-0.795898
C132	C	1.478126	0.196859	-0.295898
C133	C	0.978145	-0.303131	-0.856989
C134	C	1.478145	0.196869	-0.356989
C135	C	0.978073	-0.303246	-0.150244
C136	C	1.478073	0.196754	0.349756
C137	C	0.978197	-0.303087	-0.075012
C138	C	1.478197	0.196913	0.424988
H139	H	0.592164	-0.230113	-0.247718
H140	H	1.092164	0.269887	0.252282
H141	H	1.056626	-0.662129	-0.247632
H142	H	1.556626	-0.162129	0.252368
Br143	Br	0.876107	-1.080843	-0.428122
Br144	Br	1.376107	-0.580843	0.071878
Br145	Br	0.876043	-0.925886	-0.428088
Br146	Br	1.376043	-0.425886	0.071912
H147	H	1.056739	-0.943703	-0.247681
H148	H	1.556739	-0.443703	0.252319
H149	H	0.720409	-0.230103	-0.247704
H150	H	1.220409	0.269897	0.252296
Br151	Br	0.876096	-0.208291	-0.731897
Br152	Br	1.376096	0.291709	-0.231897
Br153	Br	0.876222	-0.208185	-1.087669
Br154	Br	1.376222	0.291815	-0.587669
H155	H	1.056794	-1.062967	-0.247714
H156	H	1.556794	-0.562967	0.252286
Br157	Br	0.383831	-0.208228	-0.224279
Br158	Br	0.883831	0.291772	0.275721
Br159	Br	0.383811	-0.398282	-0.427953
Br160	Br	0.883811	0.101718	0.072047
Br161	Br	1.080088	-0.525016	-0.224127
Br162	Br	1.580088	-0.025016	0.275873
H163	H	1.056571	-0.376225	-0.584412
H164	H	1.556571	0.123775	-0.084412
H165	H	0.899593	-0.230138	-0.584467
H166	H	1.399593	0.269862	-0.084467
H167	H	0.720384	-0.376384	-0.404470
H168	H	1.220384	0.123616	0.095530
Br169	Br	0.572957	-0.398269	-0.427945
Br170	Br	1.072957	0.101731	0.072055
Br171	Br	0.875946	-0.680006	-0.428042
Br172	Br	1.375946	-0.180006	0.071958
H173	H	0.899673	-0.230078	-0.940225
H174	H	1.399673	0.269922	-0.440225
Br175	Br	0.217193	-0.398297	-0.427967
Br176	Br	0.717193	0.101703	0.072033
H177	H	0.236406	-0.230130	-0.247740
H178	H	0.736406	0.269870	0.252260
H179	H	0.899405	-0.542888	-0.404542
H180	H	1.399405	-0.042888	0.095458
H181	H	1.056686	-0.376128	-1.068418
H182	H	1.556686	0.123872	-0.568418
H183	H	1.056642	-0.376166	-0.940184
H184	H	1.556642	0.123834	-0.440184
H185	H	1.056601	-0.376199	-0.712657
H186	H	1.556601	0.123801	-0.212657
