data_functionalizedCrystal
_audit_creation_method	'MofGen! by Chris Wilmer'
_symmetry_space_group_name_H-M	'P1'
_symmetry_Int_Tables_number	1
_symmetry_cell_setting	triclinic
loop_
_symmetry_equiv_pos_as_xyz
  x,y,z
_cell_length_a	15.995350
_cell_length_b	15.944551
_cell_length_c	15.072220
_cell_angle_alpha	89.997918
_cell_angle_beta	89.991149
_cell_angle_gamma	83.495557
loop_
_atom_site_label
_atom_site_type_symbol
_atom_site_fract_x
_atom_site_fract_y
_atom_site_fract_z
O1	O	1.111002	0.108264	-0.073709
O2	O	0.867227	0.121634	-0.073728
O3	O	0.995772	-0.007326	-0.073710
O4	O	0.982458	0.237224	-0.073727
O5	O	0.995740	-0.007319	0.073855
O6	O	0.867196	0.121641	0.073837
O7	O	1.110970	0.108271	0.073856
Zn8	Zn	0.989078	0.114957	0.097276
Zn9	Zn	0.989120	0.114948	-0.097148
O10	O	0.982426	0.237232	0.073838
C11	C	0.836017	0.121085	0.000053
C12	C	0.743066	0.119428	0.000046
C13	C	0.405318	0.113477	0.000065
C14	C	0.452747	0.021634	0.000400
C15	C	0.549438	0.023291	0.000061
C16	C	0.572879	0.116429	0.000056
C17	C	0.531813	0.161725	-0.084211
C18	C	0.435177	0.159417	-0.084275
C19	C	0.434802	0.161323	0.083534
C20	C	0.531747	0.161301	0.084642
C21	C	0.667577	0.118102	0.000048
C22	C	0.310620	0.111806	0.000067
C23	C	0.995203	-0.038616	0.000073
C24	C	0.993546	-0.131862	0.000073
C25	C	0.909908	-0.346714	0.000054
C26	C	0.948731	-0.407730	0.072816
C27	C	0.990548	-0.302588	0.000066
C28	C	0.948781	-0.407721	-0.072672
C29	C	0.987647	-0.467501	0.000055
C30	C	1.029394	-0.362376	0.072888
C31	C	1.029433	-0.362360	-0.072665
C32	C	1.068315	-0.423358	0.000114
C33	C	0.992217	-0.207586	0.000073
C34	C	0.985984	-0.562502	0.000055
C35	C	1.142181	0.108821	0.000074
C36	C	1.235131	0.110478	0.000075
C37	C	0.982995	0.268522	0.000053
C38	C	0.984652	0.361768	0.000047
N39	N	0.989055	0.114963	0.229965
N40	N	0.989149	0.114935	-0.229836
C41	C	0.989118	0.114945	0.589166
C42	C	0.920105	0.183717	0.551550
C43	C	0.920264	0.183968	0.448724
C44	C	0.989086	0.114954	0.410962
C45	C	1.076452	0.134096	0.448258
C46	C	1.076065	0.134585	0.551116
C47	C	0.971544	0.026826	0.551271
C48	C	0.969539	0.027414	0.448407
C49	C	0.989074	0.114958	0.310249
C50	C	0.989136	0.114943	0.689879
H51	H	0.433164	-0.014912	-0.059693
O52	O	0.550521	0.252364	-0.088384
H53	H	0.619629	0.254179	-0.091346
O54	O	0.903600	-0.434337	-0.154147
H55	H	0.947236	-0.478355	-0.194138
O56	O	1.096577	0.219710	0.582882
H57	H	1.096510	0.220902	0.656513
O58	O	0.884404	0.008173	0.416132
H59	H	0.884347	0.005979	0.342528
O60	O	0.410938	0.115652	-0.167706
H61	H	0.341816	0.113576	-0.168582
O62	O	1.146135	0.070768	0.584087
H63	H	1.180151	0.039700	0.526563
O64	O	0.569396	0.120043	-0.167283
H65	H	0.617312	0.067075	-0.148767
H66	H	0.914610	-0.427834	0.134325
O67	O	1.146105	0.069513	0.415858
H68	H	1.207137	0.084468	0.443152
H69	H	1.135309	-0.456521	0.000160
H70	H	0.855323	0.172563	0.423509
H71	H	1.063524	-0.342234	-0.134178
H72	H	1.092308	0.197628	0.422486
O73	O	0.934759	0.269852	0.585766
H74	H	0.945158	0.311710	0.528931
O75	O	0.833802	0.168879	0.584353
H76	H	0.839169	0.112332	0.627822
H77	H	0.931487	0.249360	0.424107
O78	O	0.888975	0.002447	0.585657
H79	H	0.837105	0.050687	0.565043
H80	H	1.063459	-0.342384	0.134469
O81	O	0.407602	0.121550	0.168146
H82	H	0.372760	0.067230	0.151646
O83	O	0.587076	-0.023863	0.080082
H84	H	0.572450	-0.090230	0.077600
O85	O	0.821252	-0.302573	0.000150
H86	H	0.811193	-0.262945	-0.060291
O87	O	1.031805	-0.043559	0.414389
H88	H	1.077863	-0.017430	0.370066
H89	H	1.021871	-0.024352	0.575596
O90	O	0.567905	0.117511	0.167226
H91	H	0.614978	0.064011	0.148118
H92	H	0.434210	-0.015075	0.060831
H93	H	0.547115	0.229220	0.089727
O94	O	0.586365	-0.024189	-0.080088
H95	H	0.535149	-0.048418	-0.118763
H96	H	0.403044	0.229038	0.084100
H97	H	0.402933	0.226847	-0.088103
