data_functionalizedCrystal
_audit_creation_method	'MofGen! by Chris Wilmer'
_symmetry_space_group_name_H-M	'P1'
_symmetry_Int_Tables_number	1
_symmetry_cell_setting	triclinic
loop_
_symmetry_equiv_pos_as_xyz
  x,y,z
_cell_length_a	17.699083
_cell_length_b	13.596369
_cell_length_c	17.699083
_cell_angle_alpha	90.006725
_cell_angle_beta	96.716985
_cell_angle_gamma	90.000190
loop_
_atom_site_label
_atom_site_type_symbol
_atom_site_fract_x
_atom_site_fract_y
_atom_site_fract_z
O1	O	1.004077	-0.081655	-0.095712
O2	O	0.783699	-0.081688	-0.108165
O3	O	0.900114	-0.081662	0.008251
O4	O	0.887662	-0.081681	-0.212128
O5	O	0.900101	0.081921	0.008256
O6	O	0.783686	0.081895	-0.108159
O7	O	1.004064	0.081927	-0.095707
Zn8	Zn	0.893873	0.107884	-0.101932
Zn9	Zn	0.893890	-0.107644	-0.101939
O10	O	0.887649	0.081902	-0.212122
C11	C	0.755495	0.000099	-0.107716
C12	C	0.671477	0.000087	-0.106377
N13	N	0.893867	0.254975	-0.101926
C14	C	0.622856	0.000082	-0.174710
C15	C	0.543913	0.000095	-0.173448
C16	C	0.513592	0.000106	-0.103852
C17	C	0.562219	0.000115	-0.035513
C18	C	0.641161	0.000109	-0.036776
C19	C	0.243856	0.000139	-0.030418
C20	C	0.164908	0.000142	-0.029160
C21	C	0.146608	0.000125	-0.167090
C22	C	0.225550	0.000119	-0.168353
C23	C	0.274170	0.000133	-0.100015
C24	C	0.359769	0.000121	-0.101384
C25	C	0.427995	0.000111	-0.102481
C26	C	0.893883	0.656266	-0.101942
C27	C	0.893877	0.544615	-0.101940
C28	C	0.893876	0.455624	-0.101935
C29	C	0.893868	0.343966	-0.101932
C30	C	1.032268	0.000138	-0.096156
C31	C	1.116286	0.000144	-0.097494
C32	C	0.899662	0.000129	0.036451
C33	C	0.898323	0.000130	0.120469
N34	N	0.893895	0.745264	-0.101942
C35	C	0.888102	0.000108	-0.240322
C36	C	0.889440	0.000101	-0.324340
C37	C	0.966656	0.000141	0.169090
C38	C	0.965394	0.000132	0.248033
C39	C	0.895798	0.000119	0.278354
C40	C	0.827459	0.000104	0.229727
C41	C	0.828722	0.000106	0.150785
C42	C	0.822364	0.000096	0.548090
C43	C	0.821106	0.000097	0.627038
C44	C	0.959036	0.000122	0.645338
C45	C	0.960299	0.000123	0.566396
C46	C	0.891961	0.000104	0.517776
C47	C	0.893330	0.000112	0.432177
C48	C	0.894427	0.000118	0.363951
H49	H	0.504328	0.000089	-0.229092
H50	H	0.250232	0.000105	-0.225025
H51	H	0.537526	0.000138	0.021154
H52	H	1.023330	0.000158	0.144409
O53	O	1.032748	0.000139	0.697778
H54	H	1.035489	-0.066538	0.734171
O55	O	0.746038	0.000075	0.659745
H56	H	0.698730	0.000052	0.612675
O57	O	0.752396	0.000095	0.262433
H58	H	0.719573	-0.066588	0.242895
H59	H	0.766718	0.000080	0.508512
H60	H	1.021038	0.000144	0.287618
O61	O	0.755021	0.000105	0.098338
H62	H	0.706413	0.000107	0.132682
O63	O	0.693602	0.000114	0.036930
H64	H	0.730000	0.066793	0.039656
O65	O	0.655559	0.000079	-0.249776
H66	H	0.608484	0.000090	-0.297079
O67	O	1.035366	0.000123	0.533697
H68	H	1.068198	0.066793	0.553247
O69	O	0.094169	0.000131	-0.240803
H70	H	0.034181	0.000152	-0.228237
H71	H	0.283434	0.000151	0.025228
O72	O	0.132201	0.000171	0.045908
H73	H	0.179271	0.000193	0.093216
