data_functionalizedCrystal
_audit_creation_method	'MofGen! by Chris Wilmer'
_symmetry_space_group_name_H-M	'P1'
_symmetry_Int_Tables_number	1
_symmetry_cell_setting	triclinic
loop_
_symmetry_equiv_pos_as_xyz
  x,y,z
_cell_length_a	29.839134
_cell_length_b	25.639242
_cell_length_c	25.639217
_cell_angle_alpha	89.918438
_cell_angle_beta	90.100538
_cell_angle_gamma	89.998458
loop_
_atom_site_label
_atom_site_type_symbol
_atom_site_fract_x
_atom_site_fract_y
_atom_site_fract_z
Zn1	Zn	0.178543	0.799650	-0.295789
Zn2	Zn	0.253781	0.799533	-0.208372
Zn3	Zn	0.178660	0.712136	-0.208353
Zn4	Zn	0.253641	0.712222	-0.295763
O5	O	0.216156	0.755885	-0.252069
O6	O	0.188533	0.872800	-0.284212
O7	O	0.243924	0.787855	-0.135204
O8	O	0.115777	0.723758	-0.219954
O9	O	0.243810	0.872714	-0.219988
O10	O	0.115691	0.788055	-0.284193
O11	O	0.188733	0.723645	-0.135190
O12	O	0.188597	0.638982	-0.219929
O13	O	0.243571	0.723904	-0.368932
O14	O	0.243685	0.639045	-0.284148
O15	O	0.188397	0.788138	-0.368951
O16	O	0.316629	0.787938	-0.219962
O17	O	0.316526	0.723790	-0.284167
C18	C	0.216138	0.620043	-0.252034
C19	C	0.216142	0.561929	-0.252031
C20	C	0.098978	0.755910	-0.252075
C21	C	0.049043	0.755921	-0.252077
C22	C	0.244888	0.201607	-0.285477
C23	C	0.244891	0.147003	-0.285485
O24	O	0.269311	0.118802	-0.313892
N25	N	0.216168	0.119646	-0.252103
C26	C	0.187438	0.146897	-0.218715
O27	O	0.163007	0.118614	-0.190323
C28	C	0.187433	0.201500	-0.218710
C29	C	0.216161	0.228854	-0.252090
C30	C	0.273614	0.228961	-0.318854
C31	C	0.273611	0.283562	-0.318845
C32	C	0.244884	0.310808	-0.285459
C33	C	0.216159	0.283454	-0.252081
C34	C	0.158701	0.228750	-0.185325
C35	C	0.158698	0.283357	-0.185323
C36	C	0.187426	0.310710	-0.218703
C37	C	0.187429	0.365302	-0.218685
N38	N	0.216152	0.392658	-0.252067
C39	C	0.244879	0.365412	-0.285453
C40	C	0.187449	0.032226	-0.218729
C41	C	0.187456	-0.022376	-0.218731
C42	C	0.244909	-0.022266	-0.285502
C43	C	0.244904	0.032337	-0.285497
C44	C	0.216172	0.059583	-0.252111
C45	C	0.244873	0.480077	-0.285431
C46	C	0.244869	0.534682	-0.285418
C47	C	0.187415	0.534567	-0.218649
C48	C	0.187420	0.479967	-0.218661
C49	C	0.216150	0.452723	-0.252056
O50	O	0.163021	0.393538	-0.190294
O51	O	0.269302	0.393701	-0.313846
C52	C	-0.260558	0.722433	-0.218643
C53	C	-0.448231	0.722436	-0.218648
O54	O	-0.472461	0.693952	-0.190222
N55	N	-0.471742	0.755913	-0.252093
C56	C	-0.448331	0.789389	-0.285542
O57	O	-0.472635	0.817860	-0.313993
C58	C	-0.260659	0.789383	-0.285539
C59	C	-0.237151	0.755908	-0.252088
C60	C	-0.237050	0.688959	-0.185196
C61	C	-0.190135	0.688961	-0.185193
C62	C	-0.166727	0.722436	-0.218638
C63	C	-0.190235	0.755909	-0.252085
C64	C	-0.237249	0.822857	-0.318990
C65	C	-0.190328	0.822851	-0.318987
C66	C	-0.166820	0.789376	-0.285536
C67	C	-0.119913	0.789386	-0.285527
N68	N	-0.096402	0.755908	-0.252082
C69	C	-0.119810	0.722434	-0.218638
C70	C	-0.546862	0.789391	-0.285540
C71	C	-0.593780	0.789393	-0.285540
C72	C	-0.593677	0.722439	-0.218647
C73	C	-0.546758	0.722440	-0.218645
C74	C	-0.523351	0.755914	-0.252095
C75	C	-0.021284	0.722440	-0.218634
C76	C	0.025636	0.722446	-0.218632
C77	C	0.025529	0.789398	-0.285527
C78	C	-0.021387	0.789394	-0.285526
C79	C	-0.044792	0.755911	-0.252078
O80	O	-0.095654	0.817851	-0.313943
O81	O	-0.095498	0.693959	-0.190199
C82	C	-0.307474	0.722431	-0.218646
C83	C	-0.330982	0.755904	-0.252094
C84	C	-0.307575	0.789379	-0.285539
C85	C	-0.377900	0.755907	-0.252094
C86	C	-0.401307	0.722432	-0.218649
C87	C	-0.377797	0.688955	-0.185204
C88	C	-0.330881	0.688956	-0.185202
C89	C	-0.331085	0.822857	-0.318984
C90	C	-0.378000	0.822853	-0.318983
C91	C	-0.401408	0.789378	-0.285539
C92	C	0.332879	0.755875	-0.252075
C93	C	0.382813	0.755918	-0.252095
C94	C	0.215955	0.756044	-0.388443
C95	C	0.215869	0.756111	-0.446557
C96	C	0.216174	0.892258	-0.252105
C97	C	0.216182	0.950372	-0.252120
C98	C	0.216324	0.755758	-0.116226
C99	C	0.216283	0.755792	-0.058112
C100	C	0.187171	0.789119	0.192918
C101	C	0.187208	0.789089	0.138314
O102	O	0.162610	0.817294	0.109939
N103	N	0.216162	0.755877	0.111161
C104	C	0.245078	0.722689	0.138616
O105	O	0.269709	0.694437	0.110507
C106	C	0.245039	0.722716	0.193219
C107	C	0.216086	0.755934	0.220369
C108	C	0.158220	0.822333	0.220067
C109	C	0.158184	0.822363	0.274668
C110	C	0.187099	0.789179	0.302119
C111	C	0.216050	0.755964	0.274969
C112	C	0.273953	0.689526	0.220673
C113	C	0.273911	0.689556	0.275280
C114	C	0.244958	0.722773	0.302429
C115	C	0.244929	0.722810	0.357020
N116	N	0.215975	0.756021	0.384173
C117	C	0.187060	0.789206	0.356722
C118	C	0.245158	0.722634	0.023945
C119	C	0.245200	0.722609	-0.030657
C120	C	0.187328	0.789008	-0.030955
C121	C	0.187289	0.789035	0.023648
C122	C	0.216204	0.755846	0.051098
C123	C	0.186986	0.789267	0.471387
C124	C	0.186954	0.789296	0.525992
C125	C	0.244824	0.722894	0.526286
C126	C	0.244858	0.722868	0.471685
C127	C	0.215936	0.756055	0.444237
O128	O	0.269513	0.694618	0.385430
O129	O	0.162429	0.817449	0.384838
H130	H	0.268264	0.556951	-0.312600
Br131	Br	0.284503	0.677536	-0.067496
Br132	Br	0.283893	-0.059254	-0.330818
Br133	Br	0.148474	-0.059492	-0.173420
H134	H	0.163377	0.816347	0.548095
Br135	Br	0.119708	0.191640	-0.140023
Br136	Br	0.313153	0.644508	0.312530
H137	H	0.268706	0.695606	0.046292
Br138	Br	-0.158565	0.868282	-0.364387
H139	H	0.164053	0.054406	-0.191539
H140	H	0.135298	0.305537	-0.158138
H141	H	0.268438	0.695824	0.449579
H142	H	0.163434	0.816290	0.449045
H143	H	0.297004	0.305828	-0.346028
H144	H	0.044774	0.695185	-0.191391
H145	H	0.164028	0.457694	-0.191479
Br146	Br	0.148430	0.571555	-0.173341
Br147	Br	0.148086	0.834045	-0.068220
H148	H	0.268367	0.695878	0.548646
H149	H	-0.612917	0.816658	-0.312773
H150	H	0.297529	0.662476	0.198577
H151	H	-0.311745	0.661697	-0.157963
H152	H	-0.040335	0.695174	-0.191398
H153	H	0.134671	0.849356	0.197723
Br154	Br	0.118886	0.867444	0.311505
Br155	Br	-0.158238	0.643523	-0.139796
H156	H	0.163712	0.816083	0.045750
Br157	Br	-0.268808	0.643520	-0.139803
H158	H	0.297007	0.206783	-0.346045
Br159	Br	0.283893	0.069455	-0.330800
Br160	Br	-0.514859	0.677007	-0.173246
Br161	Br	-0.625453	0.677009	-0.173258
H162	H	0.268267	0.457901	-0.312626
H163	H	-0.527809	0.816653	-0.312779
H164	H	-0.256383	0.850115	-0.346229
H165	H	-0.040527	0.816658	-0.312760
H166	H	0.044595	0.816654	-0.312755
H167	H	-0.397138	0.850117	-0.346222
Br168	Br	-0.409573	0.643527	-0.139813
Br169	Br	-0.299325	0.868288	-0.364382
