data_functionalizedCrystal
_audit_creation_method	'MofGen! by Chris Wilmer'
_symmetry_space_group_name_H-M	'P1'
_symmetry_Int_Tables_number	1
_symmetry_cell_setting	triclinic
loop_
_symmetry_equiv_pos_as_xyz
  x,y,z
_cell_length_a	18.215407
_cell_length_b	12.827892
_cell_length_c	18.215399
_cell_angle_alpha	89.976162
_cell_angle_beta	89.982632
_cell_angle_gamma	90.012835
loop_
_atom_site_label
_atom_site_type_symbol
_atom_site_fract_x
_atom_site_fract_y
_atom_site_fract_z
Zn1	Zn	1.125120	-0.416115	-0.416088
Zn2	Zn	1.625120	0.083885	0.083912
Zn3	Zn	1.125049	-0.590874	-0.293031
Zn4	Zn	1.625049	-0.090874	0.206969
Zn5	Zn	1.002053	-0.416140	-0.293041
Zn6	Zn	1.502053	0.083860	0.206959
Zn7	Zn	1.002039	-0.590807	-0.416061
Zn8	Zn	1.502039	-0.090807	0.083939
O9	O	1.063566	-0.503484	-0.354555
O10	O	1.563566	-0.003484	0.145445
O11	O	1.228095	-0.439315	-0.399772
O12	O	1.728095	0.060685	0.100228
O13	O	1.108710	-0.567734	-0.190048
O14	O	1.608710	-0.067734	0.309952
O15	O	1.018414	-0.269901	-0.309379
O16	O	1.518414	0.230099	0.190621
O17	O	1.228043	-0.567710	-0.309362
O18	O	1.728043	-0.067710	0.190638
O19	O	1.108831	-0.269882	-0.399782
O20	O	1.608831	0.230118	0.100218
O21	O	1.018345	-0.439358	-0.190056
O22	O	1.518345	0.060642	0.309944
O23	O	0.899067	-0.439292	-0.309353
O24	O	1.399067	0.060708	0.190647
O25	O	1.018390	-0.567595	-0.519049
O26	O	1.518390	-0.067595	-0.019049
O27	O	0.899057	-0.567619	-0.399735
O28	O	1.399057	-0.067619	0.100265
O29	O	1.108818	-0.439250	-0.519069
O30	O	1.608818	0.060750	-0.019069
O31	O	1.108696	-0.737101	-0.309336
O32	O	1.608696	-0.237101	0.190664
O33	O	1.018321	-0.737052	-0.399725
O34	O	1.518321	-0.237052	0.100275
C35	C	0.872359	-0.503452	-0.354543
C36	C	1.372359	-0.003452	0.145457
C37	C	0.790560	-0.503463	-0.354555
C38	C	1.290560	-0.003463	0.145445
C39	C	0.602393	-0.436746	-0.401705
C40	C	1.102393	0.063254	0.098295
C41	C	0.525534	-0.436755	-0.401708
C42	C	1.025534	0.063245	0.098292
C43	C	0.525490	-0.570252	-0.307419
C44	C	1.025490	-0.070252	0.192581
C45	C	0.602348	-0.570237	-0.307413
C46	C	1.102348	-0.070237	0.192587
C47	C	0.640797	-0.503485	-0.354560
C48	C	1.140797	-0.003485	0.145440
C49	C	0.487081	-0.503509	-0.354569
C50	C	0.987081	-0.003509	0.145431
C51	C	0.403747	-0.503519	-0.354571
C52	C	0.903747	-0.003519	0.145429
C53	C	0.724136	-0.503473	-0.354557
C54	C	1.224136	-0.003473	0.145443
C55	C	1.063519	-0.774994	-0.354542
C56	C	1.563519	-0.274994	0.145458
C57	C	1.063567	-0.891147	-0.354562
C58	C	1.563567	-0.391147	0.145438
C59	C	1.108341	-0.942922	-0.309883
C60	C	1.608341	-0.442922	0.190117
C61	C	1.108391	-1.062972	-0.309902
C62	C	1.608391	-0.562972	0.190098
C63	C	1.255518	-0.503517	-0.354569
C64	C	1.755518	-0.003517	0.145431
C65	C	1.337317	-0.503531	-0.354575
C66	C	1.837317	-0.003531	0.145425
C67	C	1.063610	-0.503412	-0.546508
C68	C	1.563610	-0.003412	-0.046508
C69	C	1.063629	-0.503381	-0.628307
C70	C	1.563629	-0.003381	-0.128307
C71	C	1.063632	-0.230914	-0.354585
C72	C	1.563632	0.269086	0.145415
C73	C	1.063660	-0.114761	-0.354597
C74	C	1.563660	0.385239	0.145403
C75	C	1.110732	-0.436489	-0.816513
C76	C	1.610732	0.063511	-0.316513
C77	C	1.110741	-0.436459	-0.893372
C78	C	1.610741	0.063541	-0.393372
C79	C	1.016579	-0.570112	-0.893340
C80	C	1.516579	-0.070112	-0.393340
C81	C	1.016567	-0.570136	-0.816482
C82	C	1.516567	-0.070136	-0.316482
C83	C	1.063648	-0.503327	-0.778071
C84	C	1.563648	-0.003327	-0.278071
C85	C	1.063668	-0.503272	-0.931787
C86	C	1.563668	-0.003272	-0.431787
C87	C	1.063678	-0.503239	-1.015121
C88	C	1.563678	-0.003239	-0.515121
C89	C	1.063638	-0.503357	-0.694732
C90	C	1.563638	-0.003357	-0.194732
C91	C	1.063563	-0.503480	-0.163349
C92	C	1.563563	-0.003480	0.336651
C93	C	1.063687	-0.503217	-0.081551
C94	C	1.563687	-0.003217	0.418449
H95	H	0.633696	-0.382389	-0.440093
H96	H	1.133696	0.117611	0.059907
H97	H	1.025323	-1.070244	-0.392847
H98	H	1.525323	-0.570244	0.107153
C99	C	0.483292	-0.363347	-0.453571
C100	C	0.983292	0.136653	0.046429
H101	H	0.517201	-0.323599	-0.481651
H102	H	1.017201	0.176401	0.018349
H103	H	0.453303	-0.317766	-0.425478
H104	H	0.953303	0.182234	0.074522
H105	H	0.453321	-0.403393	-0.485592
H106	H	0.953321	0.096607	0.014408
C107	C	1.011832	-0.951316	-0.406259
C108	C	1.511832	-0.451316	0.093741
H109	H	0.983739	-0.903265	-0.434291
H110	H	1.483739	-0.403265	0.065709
H111	H	0.979829	-0.993962	-0.378061
H112	H	1.479829	-0.493962	0.121939
H113	H	1.040017	-0.993829	-0.438332
H114	H	1.540017	-0.493829	0.061668
C115	C	1.160078	-0.882753	-0.258189
C116	C	1.660078	-0.382753	0.241811
H117	H	1.188179	-0.930803	-0.230164
H118	H	1.688179	-0.430803	0.269836
H119	H	1.131902	-0.840232	-0.226120
H120	H	1.631902	-0.340232	0.273880
H121	H	1.192086	-0.840115	-0.286396
H122	H	1.692086	-0.340115	0.213604
C123	C	1.162509	-0.362989	-0.774263
C124	C	1.662509	0.137011	-0.274263
H125	H	1.190545	-0.323172	-0.808168
H126	H	1.690545	0.176828	-0.308168
H127	H	1.194563	-0.402969	-0.744278
H128	H	1.694563	0.097031	-0.244278
H129	H	1.134353	-0.317461	-0.744286
H130	H	1.634353	0.182539	-0.244286
C131	C	1.162537	-0.362943	-0.935655
C132	C	1.662537	0.137057	-0.435655
H133	H	1.190576	-0.323166	-0.901769
H134	H	1.690576	0.176834	-0.401769
H135	H	1.134403	-0.317394	-0.965639
H136	H	1.634403	0.182606	-0.465639
H137	H	1.194599	-0.402921	-0.965636
H138	H	1.694599	0.097079	-0.465636
H139	H	0.978249	-0.624508	-0.924624
H140	H	1.478249	-0.124508	-0.424624
H141	H	0.978220	-0.624562	-0.785182
H142	H	1.478220	-0.124562	-0.285182
H143	H	0.494176	-0.624599	-0.269034
H144	H	0.994176	-0.124599	0.230966
H145	H	1.146721	-1.107497	-0.271650
H146	H	1.646721	-0.607497	0.228350
C147	C	0.644595	-0.643657	-0.255554
C148	C	1.144595	-0.143657	0.244446
H149	H	0.610690	-0.683425	-0.227483
H150	H	1.110690	-0.183425	0.272517
H151	H	0.674569	-0.603620	-0.223534
H152	H	1.174569	-0.103620	0.276466
H153	H	0.674584	-0.689235	-0.283657
H154	H	1.174584	-0.189235	0.216343
