data_functionalizedCrystal
_audit_creation_method	'MofGen! by Chris Wilmer'
_symmetry_space_group_name_H-M	'P1'
_symmetry_Int_Tables_number	1
_symmetry_cell_setting	triclinic
loop_
_symmetry_equiv_pos_as_xyz
  x,y,z
_cell_length_a	16.109301
_cell_length_b	10.654545
_cell_length_c	14.586319
_cell_angle_alpha	89.998553
_cell_angle_beta	89.998857
_cell_angle_gamma	83.973505
loop_
_atom_site_label
_atom_site_type_symbol
_atom_site_fract_x
_atom_site_fract_y
_atom_site_fract_z
O1	O	1.104091	0.161420	-0.076185
O2	O	0.862148	0.181508	-0.076197
O3	O	0.988682	-0.011350	-0.076190
O4	O	0.977557	0.354279	-0.076192
O5	O	0.988673	-0.011353	0.076290
O6	O	0.862140	0.181506	0.076283
O7	O	1.104082	0.161418	0.076296
Cu8	Cu	0.983110	0.171461	0.090212
Cu9	Cu	0.983120	0.171465	-0.090114
O10	O	0.977549	0.354276	0.076289
C11	C	0.831164	0.180693	0.000041
C12	C	0.738854	0.178254	0.000036
C13	C	0.430489	0.284717	0.000052
C14	C	0.517223	0.287021	0.000047
C15	C	0.535736	0.058200	0.000036
C16	C	0.449003	0.055898	0.000034
C17	C	0.396382	0.169160	0.000047
C18	C	0.569848	0.173766	0.000043
C19	C	0.663889	0.176264	0.000037
C20	C	0.302335	0.166663	0.000051
C21	C	0.987860	-0.058139	0.000048
C22	C	0.985416	-0.197549	0.000043
C23	C	0.985436	-0.197554	-0.166197
C24	C	0.984300	-0.263051	-0.249316
C25	C	0.982004	-0.394039	-0.249317
C26	C	0.980840	-0.459532	-0.166190
C27	C	0.981976	-0.394035	-0.083071
C28	C	0.984275	-0.263045	-0.083078
C29	C	0.981950	-0.394028	0.083167
C30	C	0.984252	-0.263042	0.083170
C31	C	0.980786	-0.459521	0.166294
C32	C	0.981928	-0.394025	0.249415
C33	C	0.984225	-0.263030	0.249413
C34	C	0.985388	-0.197544	0.166289
C35	C	1.135066	0.162233	0.000055
C36	C	1.227376	0.164673	0.000054
C37	C	0.978370	0.401065	0.000048
C38	C	0.980814	0.540475	0.000047
N39	N	0.983109	0.171458	0.217044
N40	N	0.983128	0.171458	-0.216946
C41	C	1.039156	0.086089	0.452054
C42	C	1.039159	0.086086	0.548035
C43	C	0.927074	0.256831	0.548038
C44	C	0.927069	0.256827	0.452058
C45	C	0.983114	0.171458	0.404069
C46	C	0.983123	0.171458	0.596029
C47	C	0.983125	0.171456	0.700097
C48	C	0.983111	0.171458	0.299995
H49	H	0.421233	-0.038208	0.000027
H50	H	0.987315	-0.090899	-0.166204
H51	H	1.084792	0.016570	0.587101
H52	H	0.987262	-0.090888	0.166279
C53	C	0.372606	0.409301	0.000056
C54	C	0.277202	0.406779	0.000057
C55	C	0.219321	0.531367	0.000058
C56	C	0.256843	0.658477	0.000058
C57	C	0.352251	0.661005	0.000056
C58	C	0.410132	0.536416	0.000056
H59	H	0.249422	0.312680	0.000058
H60	H	0.148694	0.529495	0.000059
H61	H	0.213996	0.750705	0.000058
H62	H	0.380031	0.755104	0.000056
H63	H	0.480760	0.538288	0.000055
H64	H	1.084791	0.016574	0.412983
C65	C	0.593622	-0.066382	0.000031
C66	C	0.655789	-0.096272	0.079212
C67	C	0.713675	-0.220857	0.079210
C68	C	0.709392	-0.315551	0.000026
C69	C	0.647222	-0.285663	-0.079161
C70	C	0.589337	-0.161078	-0.079159
H71	H	0.658962	-0.026172	0.137834
H72	H	0.759697	-0.242981	0.137830
H73	H	0.752242	-0.407776	0.000025
H74	H	0.644050	-0.355763	-0.137783
H75	H	0.543315	-0.138954	-0.137780
C76	C	0.865419	0.350740	0.399267
C77	C	0.803802	0.444691	0.452047
C78	C	0.742153	0.538594	0.399255
C79	C	0.742122	0.538545	0.293681
C80	C	0.803742	0.444591	0.240894
C81	C	0.865391	0.350688	0.293687
H82	H	0.803823	0.444730	0.530205
H83	H	0.696538	0.608145	0.438331
H84	H	0.696487	0.608058	0.254600
H85	H	0.803722	0.444552	0.162737
H86	H	0.911006	0.281136	0.254610
C87	C	0.980644	-0.466072	0.340843
C88	C	0.906988	-0.541826	0.363683
C89	C	0.905704	-0.613882	0.455111
C90	C	0.978076	-0.610184	0.523699
C91	C	1.051737	-0.534427	0.500861
C92	C	1.053021	-0.462371	0.409433
H93	H	0.853409	-0.544566	0.312908
H94	H	0.851174	-0.669962	0.472017
H95	H	0.977125	-0.663524	0.591380
H96	H	1.105316	-0.531687	0.551636
H97	H	1.107551	-0.406291	0.392527
C98	C	0.554740	0.414138	0.000059
C99	C	0.611821	0.447173	0.079240
C100	C	0.649335	0.574296	0.079254
C101	C	0.629768	0.668384	0.000086
C102	C	0.572685	0.635351	-0.079101
C103	C	0.535170	0.508228	-0.079115
H104	H	0.626308	0.377521	0.137851
H105	H	0.691592	0.598749	0.137873
H106	H	0.657539	0.762489	0.000095
H107	H	0.558198	0.705003	-0.137712
H108	H	0.492913	0.483775	-0.137734
H109	H	0.985246	-0.209712	-0.316996
C110	C	0.985474	-0.190986	0.340847
C111	C	0.914983	-0.086645	0.363696
C112	C	0.916232	-0.014607	0.455132
C113	C	0.987970	-0.046911	0.523719
C114	C	1.058466	-0.151257	0.500872
C115	C	1.057218	-0.223295	0.409436
H116	H	0.861873	-0.062727	0.312923
H117	H	0.864045	0.062637	0.472045
H118	H	0.988894	0.006416	0.591406
H119	H	1.111576	-0.175175	0.551646
H120	H	1.109404	-0.300540	0.392523
H121	H	0.881444	0.326339	0.587121
H122	H	0.978960	-0.566187	-0.166198
H123	H	0.981071	-0.447365	-0.317000
H124	H	0.978912	-0.566177	0.166287
