data_functionalizedCrystal
_audit_creation_method	'MofGen! by Chris Wilmer'
_symmetry_space_group_name_H-M	'P1'
_symmetry_Int_Tables_number	1
_symmetry_cell_setting	triclinic
loop_
_symmetry_equiv_pos_as_xyz
  x,y,z
_cell_length_a	12.759401
_cell_length_b	12.759400
_cell_length_c	12.759393
_cell_angle_alpha	89.970375
_cell_angle_beta	89.981756
_cell_angle_gamma	90.012209
loop_
_atom_site_label
_atom_site_type_symbol
_atom_site_fract_x
_atom_site_fract_y
_atom_site_fract_z
Zn1	Zn	1.606263	-0.418240	-0.593991
Zn2	Zn	1.606163	-0.593956	-0.418315
Zn3	Zn	1.430566	-0.418289	-0.418331
Zn4	Zn	1.430559	-0.593874	-0.593956
O5	O	1.518388	-0.506090	-0.506148
O6	O	1.753271	-0.441562	-0.570696
O7	O	1.582831	-0.570708	-0.271296
O8	O	1.453918	-0.271261	-0.441654
O9	O	1.753198	-0.570661	-0.441627
O10	O	1.583002	-0.271225	-0.570711
O11	O	1.453821	-0.441646	-0.271307
O12	O	1.283544	-0.441567	-0.441620
O13	O	1.453905	-0.570521	-0.740982
O14	O	1.283539	-0.570569	-0.570651
O15	O	1.582994	-0.441483	-0.741008
O16	O	1.582824	-0.740966	-0.441593
O17	O	1.453808	-0.740906	-0.570636
C18	C	1.245420	-0.506065	-0.506134
C19	C	1.128644	-0.506080	-0.506152
C20	C	1.073813	-0.438985	-0.573463
C21	C	0.964089	-0.439005	-0.573469
C22	C	0.964036	-0.573223	-0.438852
C23	C	1.073758	-0.573197	-0.438841
C24	C	1.128699	-0.371868	-0.640774
C25	C	1.073868	-0.304769	-0.708090
C26	C	0.964144	-0.304789	-0.708097
C27	C	0.909251	-0.371908	-0.640787
C28	C	1.518333	-0.779057	-0.506132
C29	C	1.518405	-0.895834	-0.506160
C30	C	1.585586	-0.950597	-0.573415
C31	C	1.585634	-1.060321	-0.573441
C32	C	1.451320	-1.060508	-0.438947
C33	C	1.451266	-0.950786	-0.438927
C34	C	1.652724	-0.895644	-0.640647
C35	C	1.719911	-0.950408	-0.707907
C36	C	1.719960	-1.060132	-0.707933
C37	C	1.652822	-1.115092	-0.640699
C38	C	1.792421	-0.506115	-0.506164
C39	C	1.909198	-0.506126	-0.506170
C40	C	1.518460	-0.505988	-0.780182
C41	C	1.518491	-0.505944	-0.896959
C42	C	1.518472	-0.232056	-0.506188
C43	C	1.518508	-0.115280	-0.506205
C44	C	1.451328	-0.573068	-1.061534
C45	C	1.451295	-0.573106	-0.951810
C46	C	1.585715	-0.438732	-0.951837
C47	C	1.585742	-0.438689	-1.061559
C48	C	1.384136	-0.640242	-1.116379
C49	C	1.316909	-0.707453	-1.061508
C50	C	1.316877	-0.707491	-0.951784
C51	C	1.384071	-0.640318	-0.896931
C52	C	1.518377	-0.506115	-0.233181
C53	C	1.518549	-0.505863	-0.116405
H54	H	0.919503	-0.250146	-0.762901
H55	H	1.118569	-0.250116	-0.762885
H56	H	1.384036	-0.640352	-0.807586
H57	H	0.819906	-0.371896	-0.640775
O58	O	1.384168	-0.640399	-1.222964
C59	C	1.411164	-0.741073	-1.259602
H60	H	1.393182	-0.801609	-1.196360
H61	H	1.498343	-0.743293	-1.279072
C62	C	1.369263	-0.691916	-1.436430
C63	C	1.347169	-0.766270	-1.358758
H64	H	1.329793	-0.707458	-1.497597
H65	H	1.351079	-0.624089	-1.411748
H66	H	1.441914	-0.693775	-1.452642
H67	H	1.274523	-0.764401	-1.342538
H68	H	1.365339	-0.834097	-1.383440
O69	O	1.785007	-0.897070	-0.773369
C70	C	1.762017	-0.923839	-0.878066
H71	H	1.678096	-0.954056	-0.883303
H72	H	1.818359	-0.987469	-0.905592
C73	C	1.877230	-0.789198	-0.941740
C74	C	1.774154	-0.826302	-0.948174
H75	H	1.884721	-0.729034	-0.984988
H76	H	1.892722	-0.771165	-0.871204
H77	H	1.924170	-0.842232	-0.964677
H78	H	1.727217	-0.773273	-0.925224
H79	H	1.758654	-0.844324	-1.018707
H80	H	1.218042	-0.371843	-0.640776
H81	H	1.774658	-1.104718	-0.762707
O82	O	0.910669	-0.638538	-0.373630
C83	C	0.847211	-0.706462	-0.433340
H84	H	0.880316	-0.713040	-0.516070
H85	H	0.764056	-0.674002	-0.437025
C86	C	0.804844	-0.807543	-0.280218
C87	C	0.845509	-0.815629	-0.381827
H88	H	0.803789	-0.874881	-0.248441
H89	H	0.847593	-0.761779	-0.239988
H90	H	0.735552	-0.780489	-0.283303
H91	H	0.914804	-0.842670	-0.378739
H92	H	0.802771	-0.861400	-0.422054
O93	O	1.126983	-0.638527	-0.373576
C94	C	1.100169	-0.743272	-0.396344
H95	H	1.070035	-0.748684	-0.480267
H96	H	1.036464	-0.770688	-0.339971
C97	C	1.234652	-0.806699	-0.280922
C98	C	1.197649	-0.813347	-0.384001
H99	H	1.294780	-0.849926	-0.273304
H100	H	1.252715	-0.736130	-0.265579
H101	H	1.181555	-0.829544	-0.233956
H102	H	1.250741	-0.790490	-0.430964
H103	H	1.179597	-0.883914	-0.399351
O104	O	1.251609	-0.772674	-0.898318
C105	C	1.266005	-0.758329	-0.789713
H106	H	1.300429	-0.677256	-0.774739
H107	H	1.321930	-0.820660	-0.758570
C108	C	1.117405	-0.867552	-0.751767
C109	C	1.159677	-0.767973	-0.733375
H110	H	1.051819	-0.873505	-0.717013
H111	H	1.107708	-0.877221	-0.824936
H112	H	1.164020	-0.919483	-0.725814
H113	H	1.113069	-0.716044	-0.759339
H114	H	1.169364	-0.758295	-0.660208
O115	O	1.251690	-0.772845	-1.114671
C116	C	1.274631	-0.877569	-1.087860
H117	H	1.314995	-0.879776	-1.008196
H118	H	1.328653	-0.912939	-1.149609
C119	C	1.122611	-0.938493	-1.180619
C120	C	1.172180	-0.941204	-1.082770
H121	H	1.059417	-0.977748	-1.177484
H122	H	1.107157	-0.867939	-1.198686
H123	H	1.167640	-0.967966	-1.232066
H124	H	1.127157	-0.911719	-1.031328
H125	H	1.187624	-1.011754	-1.064694
H126	H	1.640422	-0.384044	-0.907167
O127	O	1.651096	-0.373557	-1.114982
C128	C	1.718966	-0.433357	-1.178427
H129	H	1.681891	-0.512967	-1.194849
H130	H	1.796812	-0.444924	-1.136147
C131	C	1.783567	-0.277737	-1.262493
C132	C	1.738026	-0.375512	-1.282670
H133	H	1.795329	-0.242054	-1.326793
H134	H	1.737845	-0.237447	-1.219746
H135	H	1.848433	-0.287390	-1.227257
H136	H	1.673156	-0.365858	-1.317893
H137	H	1.783738	-0.415799	-1.325425
H138	H	1.396561	-0.906198	-0.384163
O139	O	1.652776	-0.789060	-0.640791
C140	C	1.726458	-0.752297	-0.714531
H141	H	1.741172	-0.815471	-0.775941
H142	H	1.803076	-0.732809	-0.672926
C143	C	1.665496	-0.575535	-0.692902
C144	C	1.683561	-0.653123	-0.768332
H145	H	1.639039	-0.514357	-0.726087
H146	H	1.615857	-0.600301	-0.643219
H147	H	1.729349	-0.559308	-0.658238
H148	H	1.619706	-0.669358	-0.802986
H149	H	1.733188	-0.628357	-0.818023
O150	O	1.386061	-1.114009	-0.373780
C151	C	1.318186	-1.177465	-0.433549
H152	H	1.355205	-1.193820	-0.513204
H153	H	1.240299	-1.135228	-0.445017
C154	C	1.253782	-1.261657	-0.277912
C155	C	1.299253	-1.281752	-0.375743
H156	H	1.242099	-1.325984	-0.242254
H157	H	1.299507	-1.218903	-0.237644
H158	H	1.188882	-1.226457	-0.287483
H159	H	1.364158	-1.316939	-0.366171
H160	H	1.253538	-1.324514	-0.416008
H161	H	1.652855	-1.204437	-0.640737
