data_functionalizedCrystal
_audit_creation_method	'MofGen! by Chris Wilmer'
_symmetry_space_group_name_H-M	'P1'
_symmetry_Int_Tables_number	1
_symmetry_cell_setting	triclinic
loop_
_symmetry_equiv_pos_as_xyz
  x,y,z
_cell_length_a	14.519709
_cell_length_b	13.330367
_cell_length_c	14.519731
_cell_angle_alpha	89.994378
_cell_angle_beta	83.684499
_cell_angle_gamma	89.998062
loop_
_atom_site_label
_atom_site_type_symbol
_atom_site_fract_x
_atom_site_fract_y
_atom_site_fract_z
O1	O	1.223881	-0.083295	0.120889
O2	O	1.723881	0.416705	0.620889
O3	O	0.955405	-0.083326	0.135126
O4	O	1.455405	0.416674	0.635126
O5	O	1.096751	-0.083301	-0.006230
O6	O	1.596751	0.416699	0.493770
O7	O	1.082535	-0.083321	0.262245
O8	O	1.582535	0.416679	0.762245
O9	O	1.096730	0.083546	-0.006233
O10	O	1.596730	0.583546	0.493767
O11	O	0.955385	0.083521	0.135123
O12	O	1.455385	0.583521	0.635123
O13	O	1.223860	0.083552	0.120886
O14	O	1.723860	0.583552	0.620886
Cu15	Cu	1.089621	0.098771	0.128004
Cu16	Cu	1.589621	0.598771	0.628004
Cu17	Cu	1.089645	-0.098545	0.128008
Cu18	Cu	1.589645	0.401455	0.628008
O19	O	1.082514	0.083527	0.262242
O20	O	1.582514	0.583527	0.762242
C21	C	0.921035	0.000094	0.134461
C22	C	1.421035	0.500094	0.634461
C23	C	0.818654	0.000082	0.132473
C24	C	1.318654	0.500082	0.632473
N25	N	1.089610	0.237552	0.128001
N26	N	1.589610	0.737552	0.628001
C27	C	1.096075	0.000123	-0.040591
C28	C	1.596075	0.500123	0.459409
C29	C	1.094079	0.000123	-0.142971
C30	C	1.594079	0.500123	0.357029
C31	C	0.443757	0.000128	0.125153
C32	C	0.943757	0.500128	0.625153
C33	C	0.548065	0.000115	0.127186
C34	C	1.048065	0.500115	0.627186
C35	C	0.631202	0.000104	0.128813
C36	C	1.131202	0.500104	0.628813
C37	C	0.735517	0.000093	0.130846
C38	C	1.235517	0.500093	0.630846
C39	C	1.258230	0.000130	0.121551
C40	C	1.758230	0.500130	0.621551
C41	C	1.360612	0.000135	0.123539
C42	C	1.860612	0.500135	0.623539
N43	N	1.089662	-0.237327	0.128004
N44	N	1.589662	0.262673	0.628004
C45	C	1.027054	0.710164	0.190575
C46	C	1.527054	1.210164	0.690575
C47	C	1.152260	0.710155	0.065433
C48	C	1.652260	1.210155	0.565433
C49	C	1.152250	0.605136	0.065430
C50	C	1.652250	1.105136	0.565430
C51	C	1.089642	0.552627	0.128002
C52	C	1.589642	1.052627	0.628002
C53	C	1.027044	0.605136	0.190576
C54	C	1.527044	1.105136	0.690576
C55	C	1.214853	0.552619	0.002863
C56	C	1.714853	1.052619	0.502863
C57	C	1.214846	0.447595	0.002859
C58	C	1.714846	0.947595	0.502859
C59	C	1.152232	0.395083	0.065427
C60	C	1.652232	0.895083	0.565427
C61	C	1.089631	0.447599	0.128003
C62	C	1.589631	0.947599	0.628003
C63	C	1.027023	0.395090	0.190574
C64	C	1.527023	0.895090	0.690574
C65	C	0.964416	0.447603	0.253147
C66	C	1.464416	0.947603	0.753147
C67	C	0.964430	0.552625	0.253144
C68	C	1.464430	1.052625	0.753144
C69	C	1.152219	0.290062	0.065429
C70	C	1.652219	0.790062	0.565429
C71	C	1.027012	0.290062	0.190575
C72	C	1.527012	0.790062	0.690575
C73	C	1.092457	0.000121	-0.226115
C74	C	1.592457	0.500121	0.273885
C75	C	1.090430	0.000113	-0.330424
C76	C	1.590430	0.500113	0.169576
C77	C	1.088822	0.000106	-0.413563
C78	C	1.588822	0.500106	0.086437
C79	C	1.086795	0.000100	-0.517878
C80	C	1.586795	0.500100	-0.017878
C81	C	1.083191	0.000101	0.296603
C82	C	1.583191	0.500101	0.796603
C83	C	1.085187	0.000094	0.398983
C84	C	1.585187	0.500094	0.898983
H85	H	0.913444	0.404838	0.304097
H86	H	1.413444	0.904838	0.804097
H87	H	1.203196	0.247310	0.014488
H88	H	1.703196	0.747310	0.514488
H89	H	1.203239	0.752911	0.014494
H90	H	1.703239	1.252911	0.514494
H91	H	0.913459	0.595388	0.304089
H92	H	1.413459	1.095388	0.804089
N93	N	1.282355	0.390955	-0.064634
N94	N	1.782355	0.890955	0.435366
H95	H	1.323241	0.347366	-0.029306
H96	H	1.823241	0.847366	0.470694
H97	H	1.321956	0.440217	-0.104258
H98	H	1.821956	0.940217	0.395742
N99	N	0.959476	0.233429	0.258057
N100	N	1.459476	0.733429	0.758057
H101	H	0.919820	0.282634	0.297691
H102	H	1.419820	0.782634	0.797691
H103	H	0.994840	0.189846	0.298912
H104	H	1.494840	0.689846	0.798912
N105	N	1.282384	0.609250	-0.064613
N106	N	1.782384	1.109250	0.435387
H107	H	1.272887	0.683749	-0.055120
H108	H	1.772887	1.183749	0.444880
H109	H	1.271627	0.590902	-0.130063
H110	H	1.771627	1.090902	0.369937
H111	H	0.976078	0.752923	0.241519
H112	H	1.476078	1.252923	0.741519
