data_functionalizedCrystal
_audit_creation_method	'MofGen! by Chris Wilmer'
_symmetry_space_group_name_H-M	'P1'
_symmetry_Int_Tables_number	1
_symmetry_cell_setting	triclinic
loop_
_symmetry_equiv_pos_as_xyz
  x,y,z
_cell_length_a	14.519731
_cell_length_b	13.596369
_cell_length_c	9.065215
_cell_angle_alpha	90.005011
_cell_angle_beta	84.351775
_cell_angle_gamma	90.005416
loop_
_atom_site_label
_atom_site_type_symbol
_atom_site_fract_x
_atom_site_fract_y
_atom_site_fract_z
O1	O	1.225272	0.081791	0.193547
O2	O	1.725272	0.581791	0.693547
O3	O	0.956964	0.081793	0.216289
O4	O	1.456964	0.581793	0.716289
O5	O	1.096666	0.081788	-0.009828
O6	O	1.596666	0.581788	0.490172
O7	O	1.085571	0.081796	0.419664
O8	O	1.585571	0.581796	0.919664
O9	O	1.096651	-0.081795	-0.009840
O10	O	1.596651	0.418205	0.490160
O11	O	0.956950	-0.081790	0.216277
O12	O	1.456950	0.418210	0.716277
O13	O	1.225258	-0.081791	0.193535
O14	O	1.725258	0.418209	0.693535
Zn15	Zn	1.091102	-0.107763	0.204904
Zn16	Zn	1.591102	0.392237	0.704904
Zn17	Zn	1.091121	0.107764	0.204920
Zn18	Zn	1.591121	0.607764	0.704920
O19	O	1.085557	-0.081787	0.419652
O20	O	1.585557	0.418213	0.919652
C21	C	0.922590	0.000001	0.215217
C22	C	1.422590	0.500001	0.715217
C23	C	0.820186	0.000002	0.212024
C24	C	1.320186	0.500002	0.712024
C25	C	0.737023	0.000006	0.209429
C26	C	1.237023	0.500006	0.709429
C27	C	0.632691	0.000006	0.206187
C28	C	1.132691	0.500006	0.706187
C29	C	0.549533	0.000006	0.203614
C30	C	1.049533	0.500006	0.703614
C31	C	0.445194	0.000008	0.200373
C32	C	0.945194	0.500008	0.700373
N33	N	1.091096	-0.254855	0.204892
N34	N	1.591096	0.245145	0.704892
C35	C	1.091119	-0.656146	0.204921
C36	C	1.591119	-0.156146	0.704921
C37	C	1.091110	-0.544495	0.204918
C38	C	1.591110	-0.044495	0.704918
C39	C	1.091108	-0.455504	0.204908
C40	C	1.591108	0.044496	0.704908
C41	C	1.091098	-0.343846	0.204903
C42	C	1.591098	0.156154	0.704903
C43	C	1.259632	0.000002	0.194607
C44	C	1.759632	0.500002	0.694607
C45	C	1.362036	0.000008	0.197800
C46	C	1.862036	0.500008	0.697800
C47	C	1.095593	-0.000003	-0.064801
C48	C	1.595593	0.499997	0.435199
C49	C	1.092407	0.000000	-0.228585
C50	C	1.592407	0.500000	0.271415
N51	N	1.091134	0.254856	0.204920
N52	N	1.591134	0.754856	0.704920
C53	C	1.086630	0.000006	0.474625
C54	C	1.586630	0.500006	0.974625
C55	C	1.089816	0.000009	0.638408
C56	C	1.589816	0.500009	1.138408
