data_functionalizedCrystal
_audit_creation_method	'MofGen! by Chris Wilmer'
_symmetry_space_group_name_H-M	'P1'
_symmetry_Int_Tables_number	1
_symmetry_cell_setting	triclinic
loop_
_symmetry_equiv_pos_as_xyz
  x,y,z
_cell_length_a	10.489763
_cell_length_b	8.965430
_cell_length_c	14.971486
_cell_angle_alpha	89.999789
_cell_angle_beta	95.918755
_cell_angle_gamma	89.998051
loop_
_atom_site_label
_atom_site_type_symbol
_atom_site_fract_x
_atom_site_fract_y
_atom_site_fract_z
O1	O	-1.692575	0.123975	0.126285
O2	O	-1.321246	0.123993	0.138109
O3	O	-1.516863	0.123973	0.002054
O4	O	-1.496958	0.123995	0.262340
O5	O	-1.516847	-0.124106	0.002063
O6	O	-1.321230	-0.124086	0.138118
O7	O	-1.692559	-0.124103	0.126294
Cu8	Cu	-1.506893	-0.146746	0.132207
Cu9	Cu	-1.506912	0.146636	0.132196
O10	O	-1.496942	-0.124084	0.262349
C11	C	-1.273717	-0.000045	0.137216
C12	C	-1.132120	-0.000038	0.134532
C13	C	-1.064983	-0.000061	0.047953
C14	C	-0.972392	0.122254	0.088840
C15	C	-0.972409	-0.122332	0.088870
C16	C	-1.041394	0.122378	0.175455
C17	C	-1.041421	-0.122319	0.175472
C18	C	-0.948857	0.000026	0.216423
N19	N	-1.506888	-0.353096	0.132214
C20	C	-1.416394	-0.450392	0.195114
C21	C	-1.531680	-0.549810	0.213219
C22	C	-1.391651	-0.549806	0.114116
C23	C	-1.622232	-0.450324	0.150360
C24	C	-1.482127	-0.450311	0.051221
C25	C	-1.597497	-0.549684	0.069293
C26	C	-0.740090	-0.000067	0.127172
C27	C	-0.881695	-0.000076	0.129815
C28	C	-1.515965	-0.000066	-0.031271
C29	C	-1.513297	-0.000065	-0.130584
N30	N	-1.506927	0.352985	0.132182
C31	C	-1.628217	-0.000071	-0.187149
C32	C	-1.625703	-0.000056	-0.280462
C33	C	-1.508268	-0.000045	-0.317210
C34	C	-1.393339	-0.000034	-0.260638
C35	C	-1.395855	-0.000039	-0.167326
C36	C	-1.388104	-0.000028	-0.455130
C37	C	-1.385588	-0.000027	-0.548449
C38	C	-1.617952	-0.000046	-0.568267
C39	C	-1.620468	-0.000050	-0.474955
C40	C	-1.505539	-0.000042	-0.418389
C41	C	-1.497840	-0.000042	0.295674
C42	C	-1.500508	-0.000033	0.394986
H43	H	-0.941809	0.225659	0.052203
O44	O	-1.284138	0.000164	-0.112466
C45	C	-1.086359	0.128755	-0.066933
C46	C	-1.212818	0.128683	-0.129126
H47	H	-1.028673	0.232667	-0.080367
H48	H	-1.028470	0.025011	-0.080399
H49	H	-1.108360	0.128683	0.006064
H50	H	-1.190933	0.128807	-0.202144
H51	H	-1.270670	0.232418	-0.115582
O52	O	-1.742407	-0.000012	-0.151604
C53	C	-1.972613	-0.000098	-0.181121
C54	C	-1.843381	-0.000139	-0.221489
H55	H	-2.054285	-0.000232	-0.237604
H56	H	-1.979691	0.103747	-0.137962
H57	H	-1.979530	-0.103895	-0.137900
H58	H	-1.836377	0.103588	-0.264751
H59	H	-1.836358	-0.104052	-0.264596
O60	O	-1.457299	-0.398044	-0.030480
C61	C	-1.533304	-0.252277	-0.160391
C62	C	-1.561619	-0.311405	-0.067890
H63	H	-1.617616	-0.182191	-0.190656
H64	H	-1.518183	-0.350188	-0.206729
H65	H	-1.443093	-0.180590	-0.152236
H66	H	-1.651840	-0.383068	-0.075959
H67	H	-1.576660	-0.213426	-0.021586
O68	O	-0.889044	-0.000093	0.301452
C69	C	-0.857810	-0.127898	0.443616
C70	C	-0.925658	-0.127939	0.347355
H71	H	-0.887366	-0.231267	0.480751
H72	H	-0.886153	-0.023617	0.480411
H73	H	-0.749597	-0.128823	0.440926
H74	H	-1.033883	-0.127068	0.349963
H75	H	-0.897211	-0.232212	0.310599
O76	O	-1.734575	0.000199	-0.439301
C77	C	-1.933987	0.128659	-0.427729
C78	C	-1.804792	0.128575	-0.468148
H79	H	-1.990805	0.232423	-0.451050
H80	H	-1.916116	0.128750	-0.351315
H81	H	-1.990723	0.024787	-0.450947
H82	H	-1.747990	0.232429	-0.444998
H83	H	-1.822753	0.128406	-0.544556
H84	H	-1.294181	-0.593507	0.098823
H85	H	-1.552650	-0.593514	0.281699
O86	O	-1.077799	0.245737	0.219202
C87	C	-1.179783	0.342064	0.344221
C88	C	-1.138649	0.202238	0.294758
H89	H	-1.228965	0.306945	0.405329
H90	H	-1.249102	0.410693	0.297072
H91	H	-1.091639	0.412083	0.366912
H92	H	-1.226716	0.132104	0.272063
H93	H	-1.069286	0.133721	0.341939
O94	O	-1.077926	-0.245833	0.219013
C95	C	-1.084517	-0.514410	0.222638
C96	C	-1.043127	-0.374641	0.173239
H97	H	-1.056375	-0.618586	0.185661
H98	H	-1.192826	-0.512718	0.224806
H99	H	-1.034909	-0.515389	0.294065
H100	H	-1.092645	-0.373570	0.101791
H101	H	-0.934807	-0.376387	0.171144
H102	H	-1.711532	-0.000048	-0.614328
H103	H	-1.719724	-0.406810	0.165735
O104	O	-0.935736	-0.245595	0.045152
C105	C	-0.760155	-0.384445	-0.005558
C106	C	-0.801509	-0.244782	0.043960
H107	H	-0.651627	-0.383850	-0.006522
H108	H	-0.808254	-0.384291	-0.077406
H109	H	-0.789973	-0.488656	0.030653
H110	H	-0.771698	-0.140497	0.007824
H111	H	-0.753420	-0.245068	0.115809
H112	H	-1.719282	-0.000064	-0.326514
H113	H	-1.294516	-0.000018	-0.409076
H114	H	-1.289962	-0.000042	-0.578365
H115	H	-1.115496	0.000087	-0.023214
O116	O	-1.325319	-0.398433	0.258743
C117	C	-1.248551	-0.390258	0.416010
C118	C	-1.351783	-0.449175	0.344043
H119	H	-1.269896	-0.431285	0.484989
H120	H	-1.248771	-0.263108	0.415074
H121	H	-1.150497	-0.432850	0.401228
H122	H	-1.449888	-0.406694	0.358776
H123	H	-1.351451	-0.576324	0.344996
O124	O	-1.688737	-0.601449	0.005718
C125	C	-1.733915	-0.746666	-0.129271
C126	C	-1.630452	-0.688111	-0.057350
H127	H	-1.686834	-0.816770	-0.180269
H128	H	-1.786206	-0.648467	-0.164869
H129	H	-1.805325	-0.818199	-0.095876
H130	H	-1.558959	-0.616603	-0.090674
H131	H	-1.578259	-0.786378	-0.021757
O132	O	-1.279341	0.000176	-0.296438
C133	C	-1.141627	0.128751	-0.390244
C134	C	-1.270787	0.128687	-0.349779
H135	H	-1.134658	0.232656	-0.433364
H136	H	-1.134613	0.025001	-0.433493
H137	H	-1.059942	0.128685	-0.333770
H138	H	-1.352547	0.128806	-0.406195
H139	H	-1.277689	0.232428	-0.306508
