data_functionalizedCrystal
_audit_creation_method	'MofGen! by Chris Wilmer'
_symmetry_space_group_name_H-M	'P1'
_symmetry_Int_Tables_number	1
_symmetry_cell_setting	triclinic
loop_
_symmetry_equiv_pos_as_xyz
  x,y,z
_cell_length_a	16.625546
_cell_length_b	16.625548
_cell_length_c	12.759393
_cell_angle_alpha	89.978332
_cell_angle_beta	89.963806
_cell_angle_gamma	90.023536
loop_
_atom_site_label
_atom_site_type_symbol
_atom_site_fract_x
_atom_site_fract_y
_atom_site_fract_z
Zn1	Zn	-0.320931	1.232689	-0.594036
Zn2	Zn	-0.455788	1.232590	-0.418342
Zn3	Zn	-0.320975	1.097848	-0.418366
Zn4	Zn	-0.455728	1.097821	-0.593974
O5	O	-0.388356	1.165237	-0.506180
O6	O	-0.338827	1.345508	-0.570746
O7	O	-0.437948	1.214686	-0.271324
O8	O	-0.208137	1.115788	-0.441705
O9	O	-0.437905	1.345435	-0.441665
O10	O	-0.208105	1.214855	-0.570769
O11	O	-0.338902	1.115692	-0.271342
O12	O	-0.338844	0.985012	-0.441645
O13	O	-0.437803	1.115742	-0.741004
O14	O	-0.437846	0.984993	-0.570663
O15	O	-0.338769	1.214829	-0.741049
O16	O	-0.568612	1.214660	-0.441604
O17	O	-0.568568	1.115646	-0.570640
C18	C	-0.388344	0.955746	-0.506150
C19	C	-0.388359	0.866125	-0.506163
C20	C	-0.388364	0.537950	-0.506208
C21	C	-0.388360	0.629258	-0.506192
C22	C	-0.388362	0.702035	-0.506184
C23	C	-0.388357	0.793349	-0.506170
C24	C	-0.597846	1.165161	-0.506136
C25	C	-0.687468	1.165202	-0.506152
C26	C	-1.015643	1.165343	-0.506262
C27	C	-0.924335	1.165301	-0.506234
C28	C	-0.851558	1.165272	-0.506206
C29	C	-0.760244	1.165231	-0.506180
C30	C	-0.178047	1.165336	-0.506247
C31	C	-0.088425	1.165378	-0.506276
C32	C	-0.388274	1.165294	-0.780213
C33	C	-0.388240	1.165318	-0.896990
C34	C	-0.388368	1.375546	-0.506210
C35	C	-0.388373	1.465167	-0.506223
C36	C	-0.336667	1.216919	-0.951878
C37	C	-0.336638	1.216939	-1.061602
C38	C	-0.439760	1.113752	-1.061541
C39	C	-0.439785	1.113730	-0.951819
C40	C	-0.285122	1.268507	-0.897049
C41	C	-0.233546	1.320114	-0.951936
C42	C	-0.233517	1.320133	-1.061661
C43	C	-0.285064	1.268546	-1.116497
C44	C	-0.388378	1.165227	-0.233212
C45	C	-0.388186	1.165360	-0.116436
H46	H	-0.285142	1.268499	-0.807706
H47	H	-0.191574	1.362109	-0.907281
H48	H	-0.191516	1.362148	-1.106347
C49	C	-0.228883	1.324757	-1.273709
C50	C	-0.285035	1.268570	-1.237108
H51	H	-0.228873	1.324777	-1.348168
H52	H	-0.176862	1.310829	-1.248916
H53	H	-0.242841	1.376774	-1.248879
H54	H	-0.271074	1.216552	-1.261933
H55	H	-0.337067	1.282494	-1.261913
H56	H	-0.481727	1.071752	-1.106198
C57	C	-0.541749	1.011771	-0.962771
C58	C	-0.496496	1.057031	-0.891478
H59	H	-0.576767	0.976775	-0.925517
H60	H	-0.506615	0.980937	-1.005563
H61	H	-0.572567	1.046909	-1.005573
H62	H	-0.465673	1.021893	-0.848681
H63	H	-0.531634	1.087867	-0.848668
