data_functionalizedCrystal
_audit_creation_method	'MofGen! by Chris Wilmer'
_symmetry_space_group_name_H-M	'P1'
_symmetry_Int_Tables_number	1
_symmetry_cell_setting	triclinic
loop_
_symmetry_equiv_pos_as_xyz
  x,y,z
_cell_length_a	12.759401
_cell_length_b	12.759400
_cell_length_c	12.759393
_cell_angle_alpha	90.029855
_cell_angle_beta	90.020459
_cell_angle_gamma	90.016209
loop_
_atom_site_label
_atom_site_type_symbol
_atom_site_fract_x
_atom_site_fract_y
_atom_site_fract_z
Zn1	Zn	1.606262	-0.418179	0.594020
Zn2	Zn	1.606154	-0.593893	0.418340
Zn3	Zn	1.430562	-0.418233	0.418355
Zn4	Zn	1.430552	-0.593821	0.593978
O5	O	1.518382	-0.506032	0.506173
O6	O	1.753268	-0.441495	0.570727
O7	O	1.582820	-0.570644	0.271321
O8	O	1.453918	-0.271205	0.441682
O9	O	1.753189	-0.570591	0.441656
O10	O	1.583003	-0.271165	0.570742
O11	O	1.453813	-0.441587	0.271332
O12	O	1.283539	-0.441518	0.441640
O13	O	1.453901	-0.570470	0.741004
O14	O	1.283532	-0.570522	0.570669
O15	O	1.582994	-0.441426	0.741036
O16	O	1.582811	-0.740904	0.441615
O17	O	1.453797	-0.740852	0.570655
C18	C	1.245415	-0.506019	0.506152
C19	C	1.128638	-0.506039	0.506168
C20	C	1.073800	-0.573313	0.573248
C21	C	0.964076	-0.573317	0.573269
C22	C	0.964038	-0.438769	0.439122
C23	C	1.073760	-0.438761	0.439107
C24	C	1.518320	-0.778999	0.506151
C25	C	1.518389	-0.895776	0.506177
C26	C	1.585642	-0.950630	0.439060
C27	C	1.585706	-1.060354	0.439093
C28	C	1.451257	-1.060360	0.573362
C29	C	1.451199	-0.950638	0.573334
C30	C	1.652832	-0.895768	0.371904
C31	C	1.720089	-0.950623	0.304781
C32	C	1.720153	-1.060347	0.304813
C33	C	1.652961	-1.115216	0.371969
C34	C	1.792416	-0.506045	0.506195
C35	C	1.909192	-0.506051	0.506204
C36	C	1.518459	-0.505934	0.780207
C37	C	1.518491	-0.505892	0.896984
C38	C	1.518474	-0.231998	0.506218
C39	C	1.518512	-0.115222	0.506237
C40	C	1.518367	-0.506053	0.233206
C41	C	1.518538	-0.505799	0.116430
C42	C	1.585693	-0.573014	1.061575
C43	C	1.585667	-0.573064	0.951851
C44	C	1.451329	-0.438674	0.951846
C45	C	1.451350	-0.438631	1.061568
H46	H	0.919343	-0.383996	0.384521
O47	O	1.785259	-0.897166	0.239586
C48	C	1.770802	-0.788559	0.253965
H49	H	1.689696	-0.773614	0.288299
H50	H	1.777944	-0.746917	0.175262
H51	H	1.833074	-0.757322	0.309958
O52	O	1.385994	-0.373487	1.114904
C53	C	1.318149	-0.433282	1.178366
H54	H	1.311635	-0.516040	1.145285
H55	H	1.237305	-0.395286	1.179601
H56	H	1.350644	-0.436871	1.261529
O57	O	1.126874	-0.373374	0.373841
C58	C	1.054912	-0.313982	0.314666
H59	H	0.976686	-0.357014	0.310959
H60	H	1.086581	-0.302671	0.231906
H61	H	1.043278	-0.234238	0.353281
H62	H	1.774924	-1.105007	0.250166
O63	O	1.650853	-0.638499	0.898682
C64	C	1.627849	-0.743200	0.925462
H65	H	1.587477	-0.745342	1.005121
H66	H	1.703660	-0.790310	0.929225
H67	H	1.573811	-0.778614	0.863698
O68	O	1.652601	-0.789184	0.371772
C69	C	1.551890	-0.752643	0.344724
H70	H	1.508516	-0.815955	0.298912
H71	H	1.559388	-0.679277	0.294323
H72	H	1.506331	-0.733147	0.419062
H73	H	1.640400	-0.627708	1.106241
H74	H	0.919432	-0.628097	0.627893
H75	H	1.653027	-1.204561	0.371998
H76	H	1.396552	-1.105043	0.628036
H77	H	1.396628	-0.383987	0.907164
O78	O	1.126948	-0.638690	0.638496
C79	C	1.055012	-0.698085	0.697689
H80	H	0.976809	-0.655061	0.701408
H81	H	1.086750	-0.709386	0.780444
H82	H	1.043307	-0.777834	0.659082
O83	O	1.385779	-0.897508	0.638569
C84	C	1.326503	-0.969455	0.697866
H85	H	1.322912	-1.047704	0.654848
H86	H	1.243709	-0.937803	0.709009
H87	H	1.364955	-0.981038	0.777688
