data_functionalizedCrystal
_audit_creation_method	'MofGen! by Chris Wilmer'
_symmetry_space_group_name_H-M	'P1'
_symmetry_Int_Tables_number	1
_symmetry_cell_setting	triclinic
loop_
_symmetry_equiv_pos_as_xyz
  x,y,z
_cell_length_a	21.295418
_cell_length_b	12.594517
_cell_length_c	12.594509
_cell_angle_alpha	90.021507
_cell_angle_beta	90.040503
_cell_angle_gamma	90.022451
loop_
_atom_site_label
_atom_site_type_symbol
_atom_site_fract_x
_atom_site_fract_y
_atom_site_fract_z
Zn1	Zn	0.962440	-0.423277	0.602435
Zn2	Zn	1.462440	0.076723	1.102435
Zn3	Zn	0.962392	-0.601282	0.424472
Zn4	Zn	1.462392	-0.101282	0.924472
Zn5	Zn	0.857169	-0.423367	0.424405
Zn6	Zn	1.357169	0.076633	0.924405
Zn7	Zn	0.857177	-0.601263	0.602344
Zn8	Zn	1.357177	-0.101263	1.102344
O9	O	0.909795	-0.512297	0.513414
O10	O	1.409795	-0.012297	1.013414
O11	O	1.050523	-0.446860	0.578894
O12	O	1.550523	0.053140	1.078894
O13	O	0.948411	-0.577727	0.275518
O14	O	1.448411	-0.077727	0.775518
O15	O	0.871151	-0.274409	0.448031
O16	O	1.371151	0.225591	0.948031
O17	O	1.050488	-0.577640	0.448146
O18	O	1.550488	-0.077640	0.948146
O19	O	0.948493	-0.274343	0.578829
O20	O	1.448493	0.225657	1.078829
O21	O	0.871104	-0.447014	0.275468
O22	O	1.371104	0.052986	0.775468
O23	O	0.769081	-0.446995	0.447943
O24	O	1.269081	0.053005	0.947943
O25	O	0.871163	-0.577607	0.751302
O26	O	1.371163	-0.077607	1.251302
O27	O	0.769086	-0.577694	0.578673
O28	O	1.269086	-0.077694	1.078673
O29	O	0.948500	-0.446841	0.751369
O30	O	1.448500	0.053159	1.251369
O31	O	0.948418	-0.750225	0.448057
O32	O	1.448418	-0.250225	0.948057
O33	O	0.871117	-0.750211	0.578739
O34	O	1.371117	-0.250211	1.078739
C35	C	0.909780	-0.788838	0.513419
C36	C	1.409780	-0.288838	1.013419
C37	C	0.909832	-0.907144	0.513456
C38	C	1.409832	-0.407144	1.013456
C39	C	0.746243	-0.512353	0.513291
C40	C	1.246243	-0.012353	1.013291
C41	C	0.676275	-0.512403	0.513264
C42	C	1.176275	-0.012403	1.013264
C43	C	0.909837	-0.512212	0.791035
C44	C	1.409837	-0.012212	1.291035
C45	C	0.909856	-0.512175	0.909341
C46	C	1.409856	-0.012175	1.409341
C47	C	0.643427	-0.580548	0.581234
C48	C	1.143427	-0.080548	1.081234
C49	C	0.577685	-0.580522	0.581282
C50	C	1.077685	-0.080522	1.081282
C51	C	0.544792	-0.512362	0.513341
C52	C	1.044792	-0.012362	1.013341
C53	C	0.577648	-0.444203	0.445366
C54	C	1.077648	0.055797	0.945366
C55	C	0.643389	-0.444224	0.445328
C56	C	1.143389	0.055776	0.945328
N57	N	0.441517	-0.504052	0.420245
N58	N	0.941517	-0.004052	0.920245
N59	N	0.379066	-0.504038	0.420284
N60	N	0.879066	-0.004038	0.920284
C61	C	0.346718	-0.512294	0.513454
C62	C	0.846718	-0.012294	1.013454
N63	N	0.379180	-0.520584	0.606584
N64	N	0.879180	-0.020584	1.106584
N65	N	0.441637	-0.520602	0.606544
N66	N	0.941637	-0.020602	1.106544
C67	C	0.473507	-0.512331	0.513375
C68	C	0.973507	-0.012331	1.013375
C69	C	0.242585	-0.580414	0.581481
C70	C	0.742585	-0.080414	1.081481
C71	C	0.176841	-0.580380	0.581531
C72	C	0.676841	-0.080380	1.081531
C73	C	0.176805	-0.444067	0.445606
C74	C	0.676805	0.055933	0.945606
C75	C	0.242547	-0.444095	0.445566
C76	C	0.742547	0.055905	0.945566
C77	C	0.275433	-0.512274	0.513502
C78	C	0.775433	-0.012274	1.013502
C79	C	1.073985	-0.512242	0.513538
C80	C	1.573985	-0.012242	1.013538
C81	C	1.143953	-0.512218	0.513590
C82	C	1.643953	-0.012218	1.013590
C83	C	0.909826	-0.234676	0.513432
C84	C	1.409826	0.265324	1.013432
C85	C	0.909840	-0.116371	0.513440
C86	C	1.409840	0.383629	1.013440
C87	C	0.951901	-0.047082	0.584586
C88	C	1.451901	0.452918	1.084586
C89	C	0.967282	0.023684	0.487494
C90	C	1.467282	0.523684	0.987494
C91	C	0.894479	0.023662	0.610537
C92	C	1.394479	0.523662	1.110537
C93	C	0.925250	-0.047163	0.416298
C94	C	1.425250	0.452837	0.916298
C95	C	0.852421	-0.047192	0.539406
C96	C	1.352421	0.452808	1.039406
C97	C	0.867779	0.023542	0.442248
C98	C	1.367779	0.523542	0.942248
C99	C	0.909788	-0.512306	0.236873
C100	C	1.409788	-0.012306	0.736873
C101	C	0.909892	-0.512042	0.118568
C102	C	1.409892	-0.012042	0.618568
C103	C	0.867819	-0.583209	1.049321
C104	C	1.367819	-0.083209	1.549321
C105	C	0.852419	-0.486152	0.978502
C106	C	1.352419	0.013848	1.478502
C107	C	0.925227	-0.609223	0.978588
C108	C	1.425227	-0.109223	1.478588
C109	C	0.894462	-0.414932	1.049307
C110	C	1.394462	0.085068	1.549307
C111	C	0.967297	-0.538069	1.049400
C112	C	1.467297	-0.038069	1.549400
C113	C	0.951919	-0.440944	0.978612
C114	C	1.451919	0.059056	1.478612
H115	H	0.670199	-0.636063	0.636555
H116	H	1.170199	-0.136063	1.136555
F117	F	0.821300	-0.661700	1.089907
F118	F	1.321300	-0.161700	1.589907
H119	H	0.269292	-0.388609	0.390212
H120	H	0.769292	0.111391	0.890212
F121	F	0.277587	-0.652970	0.653789
F122	F	0.777587	-0.152970	1.153789
H123	H	0.803857	-0.464188	0.947361
H124	H	1.303857	0.035812	1.447361
F125	F	0.821287	0.063837	0.363526
F126	F	1.321287	0.563837	0.863526
H127	H	0.150098	-0.635870	0.636886
H128	H	0.650098	-0.135870	1.136886
H129	H	0.550935	-0.636013	0.636635
H130	H	1.050935	-0.136013	1.136635
H131	H	0.881421	-0.332780	1.080242
H132	H	1.381421	0.167220	1.580242
F133	F	0.998432	-0.087621	0.663118
F134	F	1.498432	0.412379	1.163118
F135	F	0.788974	-0.087917	0.568149
F136	F	1.288974	0.412083	1.068149
H137	H	0.550862	-0.388705	0.390050
H138	H	1.050862	0.111295	0.890050
F139	F	1.030745	0.064377	0.458787
F140	F	1.530745	0.564377	0.958787
H141	H	0.670133	-0.388729	0.389979
H142	H	1.170133	0.111271	0.889979
F143	F	0.942294	-0.087651	0.308944
F144	F	1.442294	0.412349	0.808944
F145	F	0.141803	-0.371520	0.373303
F146	F	0.641803	0.128480	0.873303
H147	H	0.881491	0.054774	0.692643
H148	H	1.381491	0.554774	1.192643
F149	F	0.998405	-0.362267	0.938286
F150	F	1.498405	0.137733	1.438286
H151	H	1.015845	-0.560062	1.080563
H152	H	1.515845	-0.060062	1.580563
H153	H	0.938214	-0.691352	0.947524
H154	H	1.438214	-0.191352	1.447524
