data_functionalizedCrystal
_audit_creation_method	'MofGen! by Chris Wilmer'
_symmetry_space_group_name_H-M	'P1'
_symmetry_Int_Tables_number	1
_symmetry_cell_setting	triclinic
loop_
_symmetry_equiv_pos_as_xyz
  x,y,z
_cell_length_a	11.169417
_cell_length_b	12.645330
_cell_length_c	11.169417
_cell_angle_alpha	90.007551
_cell_angle_beta	90.000863
_cell_angle_gamma	90.018570
loop_
_atom_site_label
_atom_site_type_symbol
_atom_site_fract_x
_atom_site_fract_y
_atom_site_fract_z
Zn1	Zn	1.834676	-0.422187	0.678543
Zn2	Zn	2.334676	0.077813	1.178543
Zn3	Zn	1.834606	-0.599422	0.477860
Zn4	Zn	2.334606	-0.099422	0.977860
Zn5	Zn	1.634029	-0.422175	0.477877
Zn6	Zn	2.134029	0.077825	0.977877
Zn7	Zn	1.633944	-0.599412	0.678505
Zn8	Zn	2.133944	-0.099412	1.178505
O9	O	1.734314	-0.510799	0.578196
O10	O	2.234314	-0.010799	1.078196
O11	O	2.002617	-0.445707	0.651930
O12	O	2.502617	0.054293	1.151930
O13	O	1.808006	-0.575909	0.309913
O14	O	2.308006	-0.075909	0.809913
O15	O	1.660710	-0.273830	0.504519
O16	O	2.160710	0.226170	1.004519
O17	O	2.002565	-0.575920	0.504490
O18	O	2.502565	-0.075920	1.004490
O19	O	1.808125	-0.273839	0.651947
O20	O	2.308125	0.226161	1.151947
O21	O	1.660642	-0.445687	0.309925
O22	O	2.160642	0.054313	0.809925
O23	O	1.466068	-0.445677	0.504482
O24	O	1.966068	0.054323	1.004482
O25	O	1.660565	-0.575904	0.846459
O26	O	2.160565	-0.075904	1.346459
O27	O	1.466006	-0.575892	0.651882
O28	O	1.966006	-0.075892	1.151882
O29	O	1.808043	-0.445697	0.846487
O30	O	2.308043	0.054303	1.346487
O31	O	1.807923	-0.747768	0.504453
O32	O	2.307923	-0.247768	1.004453
O33	O	1.660498	-0.747761	0.651865
O34	O	2.160498	-0.247761	1.151865
C35	C	1.422489	-0.510783	0.578181
C36	C	1.922489	-0.010783	1.078181
C37	C	1.289089	-0.510802	0.578202
C38	C	1.789089	-0.010802	1.078202
C39	C	1.734226	-0.786229	0.578179
C40	C	2.234226	-0.286229	1.078179
C41	C	1.734299	-0.904059	0.578212
C42	C	2.234299	-0.404059	1.078212
C43	C	1.641935	-1.071663	0.671236
C44	C	2.141935	-0.571663	1.171236
C45	C	1.641463	-0.949103	0.670937
C46	C	2.141463	-0.449103	1.170937
C47	C	1.700097	-0.948620	0.451730
C48	C	2.200097	-0.448620	0.951730
C49	C	1.699533	-1.071218	0.452294
C50	C	2.199533	-0.571218	0.952294
C51	C	1.861429	-1.071155	0.610646
C52	C	2.361429	-0.571155	1.110646
C53	C	1.860649	-0.948549	0.613411
C54	C	2.360649	-0.448549	1.113411
C55	C	2.047356	-0.510816	0.578212
C56	C	2.547356	-0.010816	1.078212
C57	C	2.180756	-0.510823	0.578219
C58	C	2.680756	-0.010823	1.078219
C59	C	1.734302	-0.510801	0.891238
C60	C	2.234302	-0.010801	1.391238
C61	C	1.734297	-0.510801	1.024638
C62	C	2.234297	-0.010801	1.524638
C63	C	1.734434	-0.234294	0.578239
C64	C	2.234434	0.265706	1.078239
C65	C	1.734486	-0.116464	0.578258
C66	C	2.234486	0.383536	1.078258
C67	C	1.734311	-0.510817	1.266371
C68	C	2.234311	-0.010817	1.766371
C69	C	1.734301	-0.510803	1.132971
C70	C	2.234301	-0.010803	1.632971
H71	H	1.662857	-0.918974	0.764723
H72	H	2.162857	-0.418974	1.264723
Br73	Br	1.677256	-1.120727	0.828072
Br74	Br	2.177256	-0.620727	1.328072
Br75	Br	1.808889	-0.899995	0.333104
Br76	Br	2.308889	-0.399995	0.833104
H77	H	1.548413	-1.102559	0.650053
H78	H	2.048413	-0.602559	1.150053
H79	H	1.930381	-1.100124	0.542926
H80	H	2.430381	-0.600124	1.042926
Br81	Br	1.547043	-0.897597	0.405166
Br82	Br	2.047043	-0.397597	0.905166
H83	H	1.606738	-1.099904	0.424856
H84	H	2.106738	-0.599904	0.924856
H85	H	1.764020	-1.100855	0.380656
H86	H	2.264020	-0.600855	0.880656
H87	H	1.892635	-1.102023	0.701309
H88	H	2.392635	-0.602023	1.201309
H89	H	1.886442	-0.919423	0.706496
H90	H	2.386442	-0.419423	1.206496
Br91	Br	1.981635	-0.897425	0.508770
Br92	Br	2.481635	-0.397425	1.008770
H93	H	1.547353	-0.919864	0.649480
H94	H	2.047353	-0.419864	1.149480
