data_functionalizedCrystal
_audit_creation_method	'MofGen! by Chris Wilmer'
_symmetry_space_group_name_H-M	'P1'
_symmetry_Int_Tables_number	1
_symmetry_cell_setting	triclinic
loop_
_symmetry_equiv_pos_as_xyz
  x,y,z
_cell_length_a	19.188930
_cell_length_b	14.519709
_cell_length_c	13.596369
_cell_angle_alpha	90.006934
_cell_angle_beta	89.980792
_cell_angle_gamma	96.587538
loop_
_atom_site_label
_atom_site_type_symbol
_atom_site_fract_x
_atom_site_fract_y
_atom_site_fract_z
O1	O	0.926555	-0.115137	-0.082110
O2	O	1.426555	0.384863	0.417890
O3	O	0.723299	-0.130636	-0.082043
O4	O	1.223299	0.369364	0.417957
O5	O	0.830316	0.011385	-0.082069
O6	O	1.330316	0.511385	0.417931
O7	O	0.819538	-0.257158	-0.082083
O8	O	1.319538	0.242842	0.417917
O9	O	0.830306	0.011393	0.081514
O10	O	1.330306	0.511393	0.581514
O11	O	0.723289	-0.130629	0.081540
O12	O	1.223289	0.369371	0.581540
O13	O	0.926545	-0.115130	0.081473
O14	O	1.426545	0.384870	0.581473
Zn15	Zn	0.824915	-0.122878	0.107479
Zn16	Zn	1.324915	0.377122	0.607479
Zn17	Zn	0.824929	-0.122888	-0.108049
Zn18	Zn	1.324929	0.377112	0.391951
O19	O	0.819528	-0.257151	0.081500
O20	O	1.319528	0.242849	0.581500
C21	C	0.697281	-0.130131	-0.000242
C22	C	1.197281	0.369869	0.499758
C23	C	0.619771	-0.128624	-0.000217
C24	C	1.119771	0.371376	0.499783
N25	N	0.824911	-0.122871	0.254571
N26	N	1.324911	0.377129	0.754571
C27	C	0.829809	0.045746	-0.000277
C28	C	1.329809	0.545746	0.499723
C29	C	0.828304	0.148118	-0.000276
C30	C	1.328304	0.648118	0.499724
C31	C	0.575144	-0.211957	-0.000236
C32	C	1.075144	0.288043	0.499764
C33	C	0.502315	-0.210542	-0.000247
C34	C	1.002315	0.289458	0.499753
C35	C	0.474117	-0.125788	-0.000258
C36	C	0.974117	0.374212	0.499742
C37	C	0.518754	-0.042444	-0.000232
C38	C	1.018754	0.457556	0.499768
C39	C	0.591581	-0.043861	-0.000212
C40	C	1.091581	0.456139	0.499788
N41	N	0.365910	-0.061007	-0.055968
N42	N	0.865910	0.438993	0.444032
N43	N	0.296726	-0.059666	-0.055990
N44	N	0.796726	0.440334	0.444010
C45	C	0.254693	-0.121511	-0.000318
C46	C	0.754693	0.378489	0.499682
N47	N	0.284455	-0.184762	0.055365
N48	N	0.784455	0.315238	0.555365
N49	N	0.353645	-0.186106	0.055382
N50	N	0.853645	0.313894	0.555382
C51	C	0.395149	-0.124241	-0.000280
C52	C	0.895149	0.375759	0.499720
C53	C	0.131096	-0.203315	-0.000348
C54	C	0.631096	0.296685	0.499652
C55	C	0.058266	-0.201896	-0.000352
C56	C	0.558266	0.298104	0.499648
C57	C	0.074706	-0.033796	-0.000348
C58	C	0.574706	0.466204	0.499652
C59	C	0.147535	-0.035217	-0.000333
C60	C	0.647535	0.464783	0.499667
C61	C	0.175725	-0.119980	-0.000338
C62	C	0.675725	0.380020	0.499662
C63	C	0.952563	-0.115635	-0.000329
C64	C	1.452563	0.384365	0.499671
C65	C	1.030073	-0.117142	-0.000361
C66	C	1.530073	0.382858	0.499639
C67	C	0.820035	-0.291511	-0.000294
C68	C	1.320035	0.208489	0.499706
C69	C	0.821541	-0.393883	-0.000302
C70	C	1.321541	0.106117	0.499698
C71	C	0.822762	0.522979	-0.000300
C72	C	1.322762	1.022979	0.499700
C73	C	0.824301	0.418681	-0.000293
C74	C	1.324301	0.918681	0.499707
C75	C	0.825533	0.335552	-0.000287
C76	C	1.325533	0.835552	0.499713
C77	C	0.827072	0.231247	-0.000282
C78	C	1.327072	0.731247	0.499718
N79	N	0.824939	-0.122888	-0.255140
N80	N	1.324939	0.377112	0.244860
C81	C	0.824928	-0.122889	0.655862
C82	C	1.324928	0.377111	1.155862
C83	C	0.824921	-0.122887	0.544210
C84	C	1.324921	0.377113	1.044210
C85	C	0.824920	-0.122880	0.455220
C86	C	1.324920	0.377120	0.955220
C87	C	0.824912	-0.122877	0.343561
C88	C	1.324912	0.377123	0.843561
H89	H	0.598091	-0.280978	-0.000242
H90	H	1.098091	0.219022	0.499758
H91	H	0.627917	0.024001	-0.000196
H92	H	1.127917	0.524001	0.499804
H93	H	0.465973	-0.278404	-0.000261
H94	H	0.965973	0.221596	0.499739
Cl95	Cl	0.483306	0.064104	-0.000240
Cl96	Cl	0.983306	0.564104	0.499760
Cl97	Cl	0.166539	-0.309871	-0.000344
Cl98	Cl	0.666539	0.190129	0.499656
Cl99	Cl	0.039264	0.072753	-0.000349
Cl100	Cl	0.539264	0.572753	0.499651
H101	H	0.021931	-0.269760	-0.000363
H102	H	0.521931	0.230240	0.499637
Cl103	Cl	0.203641	0.069552	-0.000314
Cl104	Cl	0.703641	0.569552	0.499686
