data_functionalizedCrystal
_audit_creation_method	'MofGen! by Chris Wilmer'
_symmetry_space_group_name_H-M	'P1'
_symmetry_Int_Tables_number	1
_symmetry_cell_setting	triclinic
loop_
_symmetry_equiv_pos_as_xyz
  x,y,z
_cell_length_a	17.640112
_cell_length_b	17.639999
_cell_length_c	17.640968
_cell_angle_alpha	114.317495
_cell_angle_beta	87.860920
_cell_angle_gamma	92.189491
loop_
_atom_site_label
_atom_site_type_symbol
_atom_site_fract_x
_atom_site_fract_y
_atom_site_fract_z
Zn1	Zn	-1.251356	0.023074	-0.189698
Zn2	Zn	-1.251280	0.188756	-0.024070
Zn3	Zn	-1.106789	0.075312	-0.076159
Zn4	Zn	-1.148382	0.178185	-0.179117
O5	O	-1.189452	0.116332	-0.117261
O6	O	-1.354911	0.027614	-0.150355
O7	O	-1.214675	0.199993	0.081425
O8	O	-1.108592	-0.044009	-0.117448
O9	O	-1.354855	0.149340	-0.028669
O10	O	-1.214805	-0.082388	-0.200865
O11	O	-1.108518	0.116646	0.043155
O12	O	-1.008742	0.106396	-0.107188
O13	O	-1.179480	0.131323	-0.292925
O14	O	-1.039299	0.181977	-0.182831
O15	O	-1.255135	0.017364	-0.300699
O16	O	-1.255005	0.299745	-0.018409
O17	O	-1.179406	0.291978	-0.132322
C18	C	-1.221733	0.324996	-0.068579
C19	C	-1.235615	0.414246	-0.047768
C20	C	-0.997167	0.148708	-0.149514
C21	C	-0.914913	0.162574	-0.163327
C22	C	-1.221956	0.067337	-0.326772
C23	C	-1.235807	0.046459	-0.416053
C24	C	-1.382488	0.083829	-0.084882
C25	C	-1.464748	0.069978	-0.071084
C26	C	-0.564742	0.010979	-0.012337
C27	C	-0.487456	0.024022	-0.025323
C28	C	-0.519324	0.102907	-0.103880
C29	C	-0.596615	0.089867	-0.090904
C30	C	-0.619317	0.043904	-0.045131
C31	C	-0.651189	0.122791	-0.123698
C32	C	-0.728473	0.109756	-0.110719
C33	C	-0.751182	0.063797	-0.064946
C34	C	-0.696600	0.030869	-0.032152
C35	C	-0.628486	0.168760	-0.169465
C36	C	-0.683061	0.201684	-0.202259
C37	C	-0.760346	0.188644	-0.189285
C38	C	-0.783055	0.142685	-0.143512
C39	C	-0.814928	0.221573	-0.222079
C40	C	-0.892211	0.208538	-0.209100
C41	C	-0.860338	0.129650	-0.130533
C42	C	-1.084222	0.687800	-0.275601
C43	C	-1.097264	0.771670	-0.256020
C44	C	-1.176060	0.779657	-0.137497
C45	C	-1.163028	0.695786	-0.157070
C46	C	-1.117108	0.649864	-0.226123
C47	C	-1.195913	0.657849	-0.107592
C48	C	-1.182879	0.573986	-0.127161
C49	C	-1.136959	0.528060	-0.196209
C50	C	-1.104073	0.566001	-0.245692
C51	C	-1.241829	0.703774	-0.038536
C52	C	-1.274714	0.665838	0.010943
C53	C	-1.261685	0.581972	-0.008630
C54	C	-1.215765	0.536045	-0.077678
C55	C	-1.294570	0.544031	0.040853
C56	C	-1.281536	0.460167	0.021284
C57	C	-1.202730	0.452182	-0.097247
C58	C	-1.157044	0.906850	-0.166147
C59	C	-1.143172	0.817593	-0.186981
C60	C	-1.084443	0.274458	-0.689445
C61	C	-1.097472	0.254827	-0.773338
C62	C	-1.176245	0.136171	-0.781421
C63	C	-1.163219	0.155790	-0.697528
C64	C	-1.117318	0.224935	-0.651546
C65	C	-1.196095	0.106267	-0.659630
C66	C	-1.183073	0.125887	-0.575743
C67	C	-1.137176	0.195030	-0.529755
C68	C	-1.104297	0.244555	-0.567659
C69	C	-1.242000	0.037125	-0.705612
C70	C	-1.274876	-0.012398	-0.667713
C71	C	-1.261850	0.007219	-0.583827
C72	C	-1.215953	0.076362	-0.537838
C73	C	-1.294729	-0.042306	-0.545922
C74	C	-1.281708	-0.022686	-0.462035
C75	C	-1.202931	0.095982	-0.453952
C76	C	-1.157108	0.165070	0.091429
C77	C	-1.143366	0.185698	0.180681
H78	H	-0.878823	0.092207	-0.093275
H79	H	-1.165533	0.152271	-0.416518
C80	C	-0.836197	0.049456	-0.050671
N81	N	-0.900230	0.038652	-0.039921
C82	C	-1.325222	0.716362	0.086901
N83	N	-1.363266	0.754417	0.144114
C84	C	-1.122621	0.435807	-0.217736
N85	N	-1.111823	0.366322	-0.233951
H86	H	-0.936648	0.235347	-0.235805
C87	C	-0.589718	-0.039587	0.038012
N88	N	-0.608530	-0.077670	0.075935
C89	C	-1.061088	0.813395	-0.310460
N90	N	-1.033841	0.844822	-0.351463
H91	H	-1.126578	0.211006	-0.461448
H92	H	-0.443021	-0.002799	0.001378
C93	C	-0.494342	0.153463	-0.154231
N94	N	-0.475526	0.191540	-0.192159
C95	C	-1.317871	-0.077165	-0.420345
N96	N	-1.345112	-0.118199	-0.388943
H97	H	-1.331952	0.581435	0.097080
C98	C	-1.053547	0.515486	-0.321644
N99	N	-1.015485	0.477441	-0.378844
C100	C	-0.721576	-0.019698	0.018197
N101	N	-0.740389	-0.057781	0.056120
C102	C	-1.325358	-0.088461	-0.718305
N103	N	-1.363377	-0.145757	-0.756412
H104	H	-1.308314	0.429280	0.061576
H105	H	-1.332108	-0.098599	-0.583371
C106	C	-0.658079	0.252241	-0.252610
N107	N	-0.639263	0.290318	-0.290538
C108	C	-0.789943	0.272136	-0.272423
N109	N	-0.771126	0.310220	-0.310343
H110	H	-0.565555	0.179371	-0.180031
C111	C	-1.033948	0.350521	-0.638860
N112	N	-0.995920	0.407810	-0.600758
C113	C	-1.053802	0.320618	-0.517074
N114	N	-1.015774	0.377908	-0.478973
C115	C	-1.033696	0.637286	-0.351554
N116	N	-0.995634	0.599241	-0.408753
H117	H	-1.213446	0.817059	-0.081272
H118	H	-1.070698	0.295160	-0.804191
C119	C	-1.256169	0.796026	-0.017013
N120	N	-1.266972	0.865509	-0.000805
H121	H	-1.165343	0.414788	-0.153482
H122	H	-1.213620	0.079875	-0.818870
H123	H	-1.252603	0.021154	-0.773917
