data_functionalizedCrystal
_audit_creation_method	'MofGen! by Chris Wilmer'
_symmetry_space_group_name_H-M	'P1'
_symmetry_Int_Tables_number	1
_symmetry_cell_setting	triclinic
loop_
_symmetry_equiv_pos_as_xyz
  x,y,z
_cell_length_a	13.897449
_cell_length_b	18.050589
_cell_length_c	13.897441
_cell_angle_alpha	89.972127
_cell_angle_beta	89.979267
_cell_angle_gamma	90.029500
loop_
_atom_site_label
_atom_site_type_symbol
_atom_site_fract_x
_atom_site_fract_y
_atom_site_fract_z
Zn1	Zn	1.474632	-0.295610	-0.545399
Zn2	Zn	1.724632	-0.045610	-0.295399
Zn3	Zn	1.974632	0.204390	-0.045399
Zn4	Zn	2.224632	0.454390	0.204601
Zn5	Zn	1.474496	-0.419815	-0.384108
Zn6	Zn	1.724496	-0.169815	-0.134108
Zn7	Zn	1.974496	0.080185	0.115892
Zn8	Zn	2.224496	0.330185	0.365892
Zn9	Zn	1.313321	-0.295646	-0.384118
Zn10	Zn	1.563321	-0.045646	-0.134118
Zn11	Zn	1.813321	0.204354	0.115882
Zn12	Zn	2.063321	0.454354	0.365882
Zn13	Zn	1.313273	-0.419766	-0.545361
Zn14	Zn	1.563273	-0.169766	-0.295361
Zn15	Zn	1.813273	0.080234	-0.045361
Zn16	Zn	2.063273	0.330234	0.204639
O17	O	1.393931	-0.357709	-0.464747
O18	O	1.643931	-0.107709	-0.214747
O19	O	1.893931	0.142291	0.035253
O20	O	2.143931	0.392291	0.285253
O21	O	1.609596	-0.312092	-0.524016
O22	O	1.859596	-0.062092	-0.274016
O23	O	2.109596	0.187908	-0.024016
O24	O	2.359596	0.437908	0.225984
O25	O	1.453079	-0.403379	-0.249128
O26	O	1.703079	-0.153379	0.000872
O27	O	1.953079	0.096621	0.250872
O28	O	2.203079	0.346621	0.500872
O29	O	1.334796	-0.191716	-0.405532
O30	O	1.584796	0.058284	-0.155532
O31	O	1.834796	0.308284	0.094468
O32	O	2.084796	0.558284	0.344468
O33	O	1.609496	-0.403344	-0.405516
O34	O	1.859496	-0.153344	-0.155516
O35	O	2.109496	0.096656	0.094484
O36	O	2.359496	0.346656	0.344484
O37	O	1.453311	-0.191690	-0.524025
O38	O	1.703311	0.058310	-0.274025
O39	O	1.953311	0.308310	-0.024025
O40	O	2.203311	0.558310	0.225975
O41	O	1.334665	-0.312152	-0.249135
O42	O	1.584665	-0.062152	0.000865
O43	O	1.834665	0.187848	0.250865
O44	O	2.084665	0.437848	0.500865
O45	O	1.178333	-0.312105	-0.405495
O46	O	1.428333	-0.062105	-0.155495
O47	O	1.678333	0.187895	0.094505
O48	O	1.928333	0.437895	0.344505
O49	O	1.334715	-0.403261	-0.680348
O50	O	1.584715	-0.153261	-0.430348
O51	O	1.834715	0.096739	-0.180348
O52	O	2.084715	0.346739	0.069652
O53	O	1.178298	-0.403295	-0.523960
O54	O	1.428298	-0.153295	-0.273960
O55	O	1.678298	0.096705	-0.023960
O56	O	1.928298	0.346705	0.226040
O57	O	1.453264	-0.312045	-0.680376
O58	O	1.703264	-0.062045	-0.430376
O59	O	1.953264	0.187955	-0.180376
O60	O	2.203264	0.437955	0.069624
O61	O	1.453033	-0.523733	-0.405479
O62	O	1.703033	-0.273733	-0.155479
O63	O	1.953033	-0.023733	0.094521
O64	O	2.203033	0.226267	0.344521
O65	O	1.334583	-0.523697	-0.523951
O66	O	1.584583	-0.273697	-0.273951
O67	O	1.834583	-0.023697	-0.023951
O68	O	2.084583	0.226303	0.226049
C69	C	1.143316	-0.357699	-0.464725
C70	C	1.393316	-0.107699	-0.214725
C71	C	1.643316	0.142301	0.035275
C72	C	1.893316	0.392301	0.285275
C73	C	1.036102	-0.357713	-0.464738
C74	C	1.286102	-0.107713	-0.214738
C75	C	1.536102	0.142287	0.035262
C76	C	1.786102	0.392287	0.285262
C77	C	1.393814	-0.550661	-0.464731
C78	C	1.643814	-0.300661	-0.214731
C79	C	1.893814	-0.050661	0.035269
C80	C	2.143814	0.199339	0.285269
C81	C	1.393853	-0.633207	-0.464756
C82	C	1.643853	-0.383207	-0.214756
C83	C	1.893853	-0.133207	0.035244
C84	C	2.143853	0.116793	0.285244
C85	C	0.839807	-0.357716	-0.464763
C86	C	1.089807	-0.107716	-0.214763
C87	C	1.339807	0.142284	0.035237
C88	C	1.589807	0.392284	0.285237
C89	C	0.949040	-0.357712	-0.464747
C90	C	1.199040	-0.107712	-0.214747
C91	C	1.449040	0.142288	0.035253
C92	C	1.699040	0.392288	0.285253
C93	C	1.329503	-0.832665	-0.529158
C94	C	1.579503	-0.582665	-0.279158
C95	C	1.829503	-0.332665	-0.029158
C96	C	2.079503	-0.082665	0.220842
C97	C	1.305986	-0.882111	-0.441140
C98	C	1.555986	-0.632111	-0.191140
C99	C	1.805986	-0.382111	0.058860
C100	C	2.055986	-0.132111	0.308860
C101	C	1.393947	-0.784337	-0.464769
C102	C	1.643947	-0.534337	-0.214769
C103	C	1.893947	-0.284337	0.035231
C104	C	2.143947	-0.034337	0.285231
C105	C	1.417512	-0.881973	-0.552797
C106	C	1.667512	-0.631973	-0.302797
C107	C	1.917512	-0.381973	-0.052797
C108	C	2.167512	-0.131973	0.197203
C109	C	1.394037	-0.930323	-0.464789
C110	C	1.644037	-0.680323	-0.214789
C111	C	1.894037	-0.430323	0.035211
C112	C	2.144037	-0.180323	0.285211
C113	C	1.370384	-0.832696	-0.376703
C114	C	1.620384	-0.582696	-0.126703
C115	C	1.870384	-0.332696	0.123297
C116	C	2.120384	-0.082696	0.373297
C117	C	1.481951	-0.832554	-0.488420
C118	C	1.731951	-0.582554	-0.238420
C119	C	1.981951	-0.332554	0.011580
C120	C	2.231951	-0.082554	0.261580
C121	C	1.458467	-0.881977	-0.400341
C122	C	1.708467	-0.631977	-0.150341
C123	C	1.958467	-0.381977	0.099659
C124	C	2.208467	-0.131977	0.349659
C125	C	1.393893	-0.700239	-0.464758
C126	C	1.643893	-0.450239	-0.214758
C127	C	1.893893	-0.200239	0.035242
C128	C	2.143893	0.049761	0.285242
C129	C	1.394092	-1.014419	-0.464789
C130	C	1.644092	-0.764419	-0.214789
C131	C	1.894092	-0.514419	0.035211
C132	C	2.144092	-0.264419	0.285211
C133	C	1.645524	-0.357720	-0.464769
C134	C	1.895524	-0.107720	-0.214769
C135	C	2.145524	0.142280	0.035231
C136	C	2.395524	0.392280	0.285231
C137	C	1.752738	-0.357724	-0.464779
C138	C	2.002738	-0.107724	-0.214779
C139	C	2.252738	0.142276	0.035221
C140	C	2.502738	0.392276	0.285221
C141	C	1.393999	-0.357644	-0.716340
C142	C	1.643999	-0.107644	-0.466340
C143	C	1.893999	0.142356	-0.216340
C144	C	2.143999	0.392356	0.033660
C145	C	1.394028	-0.357616	-0.823554
C146	C	1.644028	-0.107616	-0.573554
C147	C	1.894028	0.142384	-0.323554
C148	C	2.144028	0.392384	-0.073554
C149	C	1.394074	-0.164004	-0.464784
C150	C	1.644074	0.085996	-0.214784
C151	C	1.894074	0.335996	0.035216
C152	C	2.144074	0.585996	0.285216
C153	C	1.394135	-0.081458	-0.464800
C154	C	1.644135	0.168542	-0.214800
C155	C	1.894135	0.418542	0.035200
C156	C	2.144135	0.668542	0.285200
C157	C	1.394055	-0.357565	-1.019849
C158	C	1.644055	-0.107565	-0.769849
C159	C	1.894055	0.142435	-0.519849
C160	C	2.144055	0.392435	-0.269849
C161	C	1.394037	-0.357595	-0.910616
C162	C	1.644037	-0.107595	-0.660616
C163	C	1.894037	0.142405	-0.410616
C164	C	2.144037	0.392405	-0.160616
C165	C	1.393918	-0.357721	-0.214132
C166	C	1.643918	-0.107721	0.035868
C167	C	1.893918	0.142279	0.285868
C168	C	2.143918	0.392279	0.535868
C169	C	1.394076	-0.357540	-0.106919
C170	C	1.644076	-0.107540	0.143081
C171	C	1.894076	0.142460	0.393081
C172	C	2.144076	0.392460	0.643081
H173	H	1.274924	-0.811012	-0.583534
H174	H	1.524924	-0.561012	-0.333534
H175	H	1.774924	-0.311012	-0.083534
H176	H	2.024924	-0.061012	0.166466
H177	H	1.231606	-0.903895	-0.421153
H178	H	1.481606	-0.653895	-0.171153
H179	H	1.731606	-0.403895	0.078847
H180	H	1.981606	-0.153895	0.328847
H181	H	1.350403	-0.811140	-0.302246
H182	H	1.600403	-0.561140	-0.052246
H183	H	1.850403	-0.311140	0.197754
H184	H	2.100403	-0.061140	0.447754
H185	H	1.556314	-0.810772	-0.508449
H186	H	1.806314	-0.560772	-0.258449
H187	H	2.056314	-0.310772	-0.008449
H188	H	2.306314	-0.060772	0.241551
F189	F	1.443515	-0.910269	-0.650090
F190	F	1.693515	-0.660269	-0.400090
F191	F	1.943515	-0.410269	-0.150090
F192	F	2.193515	-0.160269	0.099910
H193	H	1.513005	-0.903493	-0.345834
H194	H	1.763005	-0.653493	-0.095834
H195	H	2.013005	-0.403493	0.154166
H196	H	2.263005	-0.153493	0.404166
