data_functionalizedCrystal
_audit_creation_method	'MofGen! by Chris Wilmer'
_symmetry_space_group_name_H-M	'P1'
_symmetry_Int_Tables_number	1
_symmetry_cell_setting	triclinic
loop_
_symmetry_equiv_pos_as_xyz
  x,y,z
_cell_length_a	18.627245
_cell_length_b	18.627245
_cell_length_c	18.627297
_cell_angle_alpha	89.997346
_cell_angle_beta	120.002568
_cell_angle_gamma	120.000121
loop_
_atom_site_label
_atom_site_type_symbol
_atom_site_fract_x
_atom_site_fract_y
_atom_site_fract_z
O1	O	-0.633252	0.492475	-0.021371
O2	O	-0.486242	0.388080	0.021244
O3	O	-0.633246	0.388078	-0.125764
O4	O	-0.486247	0.492477	0.125637
O5	O	-0.513844	0.507481	-0.125764
O6	O	-0.366839	0.507483	0.021244
O7	O	-0.513849	0.611877	-0.021371
Zn8	Zn	-0.421386	0.578638	-0.000063
Zn9	Zn	-0.578704	0.421320	-0.000064
O10	O	-0.366845	0.611879	0.125637
C11	C	-0.644058	0.742974	-0.031083
C12	C	-0.593662	0.837671	-0.024989
C13	C	-0.601257	0.699374	-0.031685
C14	C	-0.774059	0.612973	-0.031083
C15	C	-0.862662	0.568672	-0.024990
C16	C	-0.731061	0.569570	-0.031685
C17	C	-0.644053	0.612976	-0.031075
C18	C	-0.593652	0.568677	-0.024972
C19	C	-0.731066	0.699371	-0.031693
O20	O	-1.104444	0.507480	0.021233
O21	O	-0.895661	0.611874	-0.021386
O22	O	-0.895641	0.611869	0.125623
O23	O	-1.104465	0.507485	-0.125777
O24	O	-0.895651	0.492462	0.125612
O25	O	-0.895671	0.492466	-0.021398
O26	O	-1.104454	0.388073	0.021221
Zn27	Zn	-1.000064	0.421311	-0.000090
Zn28	Zn	-1.000051	0.578635	-0.000075
O29	O	-1.104475	0.388078	-0.125788
C30	C	-0.644043	0.386976	-0.387063
C31	C	-0.593646	0.431277	-0.431364
C32	C	-0.731049	0.300578	-0.430467
C33	C	-0.644043	0.386977	-0.257063
C34	C	-0.593645	0.431278	-0.162366
C35	C	-0.731049	0.300578	-0.300663
C36	C	-0.774043	0.256976	-0.387062
C37	C	-0.862643	0.162279	-0.431360
C38	C	-0.601246	0.430381	-0.300665
C39	C	-0.356051	0.256974	0.030927
C40	C	-0.406449	0.162277	0.024828
C41	C	-0.269046	0.300575	0.031532
C42	C	-0.356047	0.386977	0.030933
C43	C	-0.406441	0.431279	0.024841
C44	C	-0.269042	0.430381	0.031538
C45	C	-0.226050	0.386975	0.030926
C46	C	-0.137452	0.431275	0.024827
C47	C	-0.398845	0.300577	0.031539
O48	O	-0.366847	1.125676	0.021233
O49	O	-0.513858	0.874273	-0.021387
O50	O	-0.366860	1.021261	0.125623
O51	O	-0.513844	0.978688	-0.125777
O52	O	-0.486268	1.021258	0.125614
O53	O	-0.633266	0.874271	-0.021396
O54	O	-0.486254	1.125673	0.021225
Zn55	Zn	-0.578719	0.999972	-0.000087
Zn56	Zn	-0.421394	0.999975	-0.000075
O57	O	-0.633252	0.978686	-0.125785
O58	O	-1.104442	-0.125719	-0.492549
O59	O	-0.895644	0.125679	-0.388159
O60	O	-0.895638	-0.021317	-0.388147
O61	O	-1.104448	0.021277	-0.492561
O62	O	-0.895641	-0.021321	-0.507550
O63	O	-0.895648	0.125676	-0.507563
O64	O	-1.104445	-0.125723	-0.611952
Zn65	Zn	-1.000047	-0.000024	-0.578715
Zn66	Zn	-1.000042	-0.000019	-0.421396
O67	O	-1.104451	0.021274	-0.611965
O68	O	-0.486241	0.492482	-0.611961
O69	O	-0.633246	0.388078	-0.507566
O70	O	-0.486239	0.388083	-0.507556
O71	O	-0.633249	0.492478	-0.611971
O72	O	-0.366839	0.507483	-0.388154
O73	O	-0.513846	0.507479	-0.388165
O74	O	-0.366841	0.611883	-0.492559
Zn75	Zn	-0.421386	0.578638	-0.421404
Zn76	Zn	-0.578701	0.421323	-0.578721
O77	O	-0.513849	0.611878	-0.492569
C78	C	-0.226046	0.742983	0.386934
C79	C	-0.137446	0.837680	0.431232
C80	C	-0.269040	0.699382	0.430339
C81	C	-0.356047	0.612982	0.256935
C82	C	-0.406445	0.568680	0.162239
C83	C	-0.398843	0.569578	0.300539
C84	C	-0.356045	0.612983	0.386937
C85	C	-0.406441	0.568684	0.431238
C86	C	-0.269041	0.699381	0.300535
C87	C	-0.644022	0.612952	0.386910
C88	C	-0.593625	0.568648	0.431205
C89	C	-0.601217	0.699351	0.430319
C90	C	-0.774030	0.612961	0.256916
C91	C	-0.862639	0.568665	0.162219
C92	C	-0.731028	0.699360	0.300521
C93	C	-0.644014	0.742957	0.386919
C94	C	-0.593609	0.837654	0.431223
C95	C	-0.731035	0.569552	0.300512
C96	C	-1.356102	0.256991	-0.387085
C97	C	-1.406507	0.162294	-0.431390
C98	C	-1.398899	0.300598	-0.430484
C99	C	-1.226086	0.386987	-0.257081
C100	C	-1.137476	0.431282	-0.162384
C101	C	-1.269079	0.430396	-0.300677
C102	C	-1.356093	0.386996	-0.387075
C103	C	-1.406489	0.431302	-0.431368
C104	C	-1.269088	0.300588	-0.300687
C105	C	-0.356107	1.030898	0.386903
C106	C	-0.406513	1.024792	0.431195
C107	C	-0.269105	1.031494	0.430309
C108	C	-0.356086	1.030926	0.256913
C109	C	-0.406469	1.024850	0.162219
C110	C	-0.269084	1.031522	0.300517
C111	C	-0.226103	1.030895	0.386911
C112	C	-0.137508	1.024787	0.431212
C113	C	-0.398891	1.031525	0.300508
O114	O	-0.486188	1.125660	0.492441
O115	O	-0.633210	0.874261	0.388029
O116	O	-0.486211	1.021258	0.388024
O117	O	-0.633187	0.978663	0.492446
O118	O	-0.366804	1.021247	0.507419
O119	O	-0.513802	0.874250	0.507424
O120	O	-0.366781	1.125649	0.611836
Zn121	Zn	-0.421333	0.999948	0.578587
Zn122	Zn	-0.578657	0.999962	0.421278
O123	O	-0.513779	0.978652	0.611841
C124	C	-0.774015	0.969045	-0.387075
C125	C	-0.862614	0.975147	-0.431378
C126	C	-0.731009	0.968453	-0.430472
C127	C	-0.644027	0.969021	-0.257075
C128	C	-0.593644	0.975096	-0.162382
C129	C	-0.601219	0.968428	-0.300669
C130	C	-0.644003	0.969055	-0.387064
C131	C	-0.593594	0.975168	-0.431354
C132	C	-0.731033	0.968418	-0.300681
H133	H	-0.531232	0.734390	-0.032642
H134	H	-0.767044	0.734382	-0.032668
H135	H	-0.767026	0.967433	-0.265683
C136	C	-0.779023	0.474873	-0.033121
C137	C	-0.807856	0.421878	-0.108740
C138	C	-0.852028	0.334644	-0.110086
H139	H	-0.837144	0.455035	-0.033434
H140	H	-0.731295	0.471483	0.017572
H141	H	-0.855582	0.425264	-0.159419
H142	H	-0.749754	0.441688	-0.108443
H143	H	-0.804299	0.331254	-0.059393
H144	H	-0.910144	0.314816	-0.110396
H145	H	-0.871588	0.298678	-0.161387
C146	C	-1.492388	0.253829	-0.525076
C147	C	-1.571923	0.178624	-0.529756
C148	C	-1.658064	0.135530	-0.616872
H149	H	-1.477385	0.237279	-0.561270
H150	H	-1.511886	0.292163	-0.544799
H151	H	-1.552428	0.140297	-0.510045
H152	H	-1.586957	0.195149	-0.493581
H153	H	-1.677562	0.173864	-0.636595
H154	H	-1.643050	0.118986	-0.653058
H155	H	-1.712041	0.084503	-0.620058
H156	H	-0.767019	0.265571	-0.265649
H157	H	-0.767031	0.265576	-0.501456
H158	H	-1.233078	0.501389	-0.265668
H159	H	-0.531216	0.501362	-0.265655
C160	C	-1.221301	0.253761	-0.254068
C161	C	-1.291837	0.178530	-0.249773
C162	C	-1.247856	0.135370	-0.206841
H163	H	-1.163229	0.292020	-0.196235
H164	H	-1.201707	0.237242	-0.285705
H165	H	-1.311416	0.195051	-0.218135
H166	H	-1.349912	0.140251	-0.307593
H167	H	-1.228262	0.118851	-0.238478
H168	H	-1.189784	0.173636	-0.149011
H169	H	-1.295710	0.084317	-0.203929
H170	H	-0.531203	0.967455	-0.265655
H171	H	-0.233062	0.501370	0.032515
C172	C	-0.221003	0.745913	0.525059
C173	C	-0.192156	0.699108	0.578020
C174	C	-0.147901	0.741932	0.665280
H175	H	-0.268661	0.748906	0.528532
H176	H	-0.162877	0.803720	0.544858
H177	H	-0.250275	0.641317	0.558226
H178	H	-0.144488	0.696113	0.574574
H179	H	-0.089774	0.799739	0.685080
H180	H	-0.195564	0.744922	0.668744
H181	H	-0.128314	0.710186	0.701227
H182	H	-0.233064	0.265567	0.032513
H183	H	-0.468853	0.265570	0.032522
H184	H	-0.233100	1.032504	0.265512
C185	C	-0.492077	0.474868	0.253897
C186	C	-0.469463	0.421851	0.229757
C187	C	-0.555319	0.334603	0.186809
H188	H	-0.546220	0.471390	0.202780
H189	H	-0.511502	0.455118	0.292267
H190	H	-0.450051	0.441595	0.191389
H191	H	-0.415333	0.425302	0.280858
H192	H	-0.574744	0.314853	0.225179
H193	H	-0.609457	0.331135	0.135695
H194	H	-0.539984	0.298619	0.170432
H195	H	-0.233131	1.032462	0.501297
H196	H	-0.468913	1.032489	0.265497
C197	C	-0.779166	0.967028	-0.525168
C198	C	-0.878956	0.891418	-0.578174
C199	C	-0.923350	0.890079	-0.665408
H200	H	-0.741193	0.966710	-0.544997
H201	H	-0.779580	1.017725	-0.528558
H202	H	-0.878537	0.840735	-0.574789
H203	H	-0.916956	0.891720	-0.558373
H204	H	-0.923764	0.940776	-0.668798
H205	H	-0.885369	0.889764	-0.685228
H206	H	-0.991065	0.838784	-0.701382
H207	H	-0.233054	0.734388	0.265533
C208	C	-0.779170	0.745942	0.253892
C209	C	-0.878934	0.699167	0.229774
C210	C	-0.923307	0.742061	0.186841
H211	H	-0.779643	0.748977	0.202767
H212	H	-0.741127	0.803734	0.292265
H213	H	-0.916967	0.641391	0.191403
H214	H	-0.878490	0.696131	0.280883
H215	H	-0.885264	0.799853	0.225214
H216	H	-0.923773	0.745093	0.135719
H217	H	-0.990998	0.710335	0.170478
C218	C	-0.507698	0.746087	0.524897
C219	C	-0.428186	0.750412	0.529535
C220	C	-0.342005	0.793489	0.616633
H221	H	-0.522656	0.714556	0.561123
H222	H	-0.488205	0.803919	0.544603
H223	H	-0.447676	0.692591	0.509840
H224	H	-0.413197	0.781950	0.493328
H225	H	-0.322512	0.851320	0.636338
H226	H	-0.356973	0.761953	0.652851
H227	H	-0.288043	0.796436	0.619790
H228	H	-0.766975	0.498586	0.265483
