data_functionalizedCrystal
_audit_creation_method	'MofGen! by Chris Wilmer'
_symmetry_space_group_name_H-M	'P1'
_symmetry_Int_Tables_number	1
_symmetry_cell_setting	triclinic
loop_
_symmetry_equiv_pos_as_xyz
  x,y,z
_cell_length_a	7.540329
_cell_length_b	14.971486
_cell_length_c	14.971486
_cell_angle_alpha	83.614129
_cell_angle_beta	89.996199
_cell_angle_gamma	90.001997
loop_
_atom_site_label
_atom_site_type_symbol
_atom_site_fract_x
_atom_site_fract_y
_atom_site_fract_z
O1	O	0.147279	-1.186943	-0.116561
O2	O	0.647279	-0.686943	0.383439
O3	O	0.147328	-0.926543	-0.130520
O4	O	0.647328	-0.426543	0.369480
O5	O	0.147290	-1.063722	0.006659
O6	O	0.647290	-0.563722	0.506659
O7	O	0.147317	-1.049763	-0.253741
O8	O	0.647317	-0.549763	0.246259
O9	O	-0.147675	-1.063714	0.006661
O10	O	0.352325	-0.563714	0.506661
O11	O	-0.147637	-0.926535	-0.130519
O12	O	0.352363	-0.426535	0.369481
O13	O	-0.147686	-1.186935	-0.116560
O14	O	0.352314	-0.686935	0.383440
Cu15	Cu	-0.174594	-1.056734	-0.123539
Cu16	Cu	0.325406	-0.556734	0.376461
Cu17	Cu	0.174236	-1.056744	-0.123541
Cu18	Cu	0.674236	-0.556744	0.376459
O19	O	-0.147648	-1.049755	-0.253739
O20	O	0.352352	-0.549755	0.246261
C21	C	-0.000149	-0.893214	-0.129895
C22	C	0.499851	-0.393214	0.370105
C23	C	-0.000131	-0.793917	-0.128024
C24	C	0.499869	-0.293917	0.371976
C25	C	-0.000192	-1.063094	0.039985
C26	C	0.499808	-0.563094	0.539985
C27	C	-0.000190	-1.061223	0.139282
C28	C	0.499810	-0.561223	0.639282
N29	N	-0.419943	-1.056734	-0.123537
N30	N	0.080057	-0.556734	0.376463
N31	N	0.419585	-1.056751	-0.123536
N32	N	0.919585	-0.556751	0.376464
C33	C	-0.000205	-1.220263	-0.117185
C34	C	0.499795	-0.720263	0.382815
C35	C	-0.000212	-1.319561	-0.119056
C36	C	0.499788	-0.819561	0.380944
C37	C	-0.000124	-0.736692	-0.208614
C38	C	0.499876	-0.236692	0.291386
C39	C	-0.000151	-0.643392	-0.206850
C40	C	0.499849	-0.143392	0.293150
C41	C	-0.000171	-0.607320	-0.124497
C42	C	0.499829	-0.107320	0.375503
C43	C	-0.000183	-0.664552	-0.043902
C44	C	0.499817	-0.164552	0.456098
C45	C	-0.000169	-0.757850	-0.045666
C46	C	0.499831	-0.257850	0.454334
C47	C	-0.000207	-0.470090	-0.040231
C48	C	0.499793	0.029910	0.459769
C49	C	-0.000218	-0.376786	-0.038466
C50	C	0.499782	0.123214	0.461534
C51	C	-0.000190	-0.355632	-0.201415
C52	C	0.499810	0.144368	0.298585
C53	C	-0.000176	-0.448930	-0.203179
C54	C	0.499824	0.051070	0.296821
C55	C	-0.000184	-0.506156	-0.122584
C56	C	0.499816	-0.006156	0.377416
C57	C	-0.000162	-1.050384	-0.287065
C58	C	0.499838	-0.550384	0.212935
C59	C	-0.000152	-1.052254	-0.386362
C60	C	0.499848	-0.552254	0.113638
C61	C	-0.000207	-1.141812	0.196507
C62	C	0.499793	-0.641812	0.696507
C63	C	-0.000188	-1.140049	0.289807
C64	C	0.499812	-0.640049	0.789807
C65	C	-0.000167	-1.057696	0.325879
C66	C	0.499833	-0.557696	0.825879
C67	C	-0.000145	-0.977101	0.268646
C68	C	0.499855	-0.477101	0.768646
C69	C	-0.000151	-0.978865	0.175349
C70	C	0.499849	-0.478865	0.675349
C71	C	-0.000138	-0.973430	0.463109
C72	C	0.499862	-0.473430	0.963109
C73	C	-0.000136	-0.971665	0.556413
C74	C	0.499864	-0.471665	1.056413
C75	C	-0.000176	-1.134614	0.577567
C76	C	0.499824	-0.634614	1.077567
C77	C	-0.000181	-1.136378	0.484269
C78	C	0.499819	-0.636378	0.984269
C79	C	-0.000163	-1.055782	0.427043
C80	C	0.499837	-0.555782	0.927043
H81	H	-0.000144	-0.596802	-0.272474
H82	H	0.499856	-0.096802	0.227526
H83	H	-0.000137	-0.913240	0.128756
H84	H	0.499863	-0.413240	0.628756
H85	H	-0.000212	-1.203437	0.454903
H86	H	0.499788	-0.703437	0.954903
C87	C	-0.000097	-0.776367	-0.299201
C88	C	0.499903	-0.276367	0.200799
H89	H	-0.000072	-0.840128	-0.288712
H90	H	0.499928	-0.340128	0.211288
H91	H	-0.102954	-0.756736	-0.332389
H92	H	0.397046	-0.256736	0.167611
H93	H	0.102781	-0.756723	-0.332385
H94	H	0.602781	-0.256723	0.167615
C95	C	-0.000121	-0.884776	0.400162
C96	C	0.499879	-0.384776	0.900162
H97	H	-0.000125	-0.835476	0.435006
H98	H	0.499875	-0.335476	0.935006
H99	H	0.102736	-0.882078	0.363320
H100	H	0.602736	-0.382078	0.863320
H101	H	-0.102998	-0.882077	0.363334
H102	H	0.397002	-0.382077	0.863334
H103	H	-0.000173	-0.804443	0.019958
H104	H	0.499827	-0.304443	0.519958
C105	C	-0.000158	-0.488608	-0.293765
C106	C	0.499842	0.011392	0.206235
H107	H	-0.000173	-0.441166	-0.341513
H108	H	0.499827	0.058834	0.158487
H109	H	0.102705	-0.524561	-0.297841
H110	H	0.602705	-0.024561	0.202159
H111	H	-0.103030	-0.524567	-0.297834
H112	H	0.396970	-0.024567	0.202166
C113	C	-0.000265	-0.337103	0.052117
C114	C	0.499735	0.162897	0.552117
H115	H	-0.000255	-0.273342	0.041622
H116	H	0.499745	0.226658	0.541622
H117	H	-0.103138	-0.356742	0.085298
H118	H	0.396862	0.143258	0.585298
H119	H	0.102597	-0.356732	0.085312
H120	H	0.602597	0.143268	0.585312
H121	H	-0.000191	-0.309033	-0.267039
H122	H	0.499809	0.190967	0.232961
C123	C	-0.000071	-0.881079	0.596092
C124	C	0.499929	-0.381079	1.096092
H125	H	-0.000027	-0.833332	0.548649
H126	H	0.499973	-0.333332	1.048649
H127	H	-0.102921	-0.876988	0.632055
H128	H	0.397079	-0.376988	1.132055
H129	H	0.102814	-0.877026	0.632040
H130	H	0.602814	-0.377026	1.132040
H131	H	-0.000217	-0.516682	0.025399
H132	H	0.499783	-0.016682	0.525399
C133	C	-0.000230	-1.232402	0.156836
C134	C	0.499770	-0.732402	0.656836
H135	H	-0.000221	-1.280145	0.204283
H136	H	0.499779	-0.780145	0.704283
H137	H	-0.103092	-1.236477	0.120884
H138	H	0.396908	-0.736477	0.620884
H139	H	0.102642	-1.236479	0.120877
H140	H	0.602642	-0.736479	0.620877
H141	H	-0.000224	-0.635175	0.023152
H142	H	0.499776	-0.135175	0.523152
H143	H	-0.000206	-1.205673	0.336396
H144	H	0.499794	-0.705673	0.836396
H145	H	-0.000185	-1.200238	0.624165
H146	H	0.499815	-0.700238	1.124165
H147	H	-0.000116	-0.910047	0.298024
H148	H	0.499884	-0.410047	0.798024
