data_functionalizedCrystal
_audit_creation_method	'MofGen! by Chris Wilmer'
_symmetry_space_group_name_H-M	'P1'
_symmetry_Int_Tables_number	1
_symmetry_cell_setting	triclinic
loop_
_symmetry_equiv_pos_as_xyz
  x,y,z
_cell_length_a	27.732064
_cell_length_b	27.731996
_cell_length_c	22.010155
_cell_angle_alpha	89.998256
_cell_angle_beta	89.999243
_cell_angle_gamma	82.635407
loop_
_atom_site_label
_atom_site_type_symbol
_atom_site_fract_x
_atom_site_fract_y
_atom_site_fract_z
O1	O	0.640915	0.057550	-0.050424
O2	O	0.974248	0.390883	0.282909
O3	O	1.307581	0.724217	0.616242
O4	O	0.500121	0.066287	-0.050451
O5	O	0.833454	0.399621	0.282883
O6	O	1.166787	0.732954	0.616216
O7	O	0.574904	-0.008480	-0.050424
O8	O	0.908237	0.324854	0.282910
O9	O	1.241570	0.658187	0.616243
O10	O	0.566132	0.132317	-0.050452
O11	O	0.899465	0.465650	0.282882
O12	O	1.232798	0.798984	0.616215
O13	O	0.574890	-0.008468	0.050627
O14	O	0.908223	0.324865	0.383960
O15	O	1.241557	0.658198	0.717293
O16	O	0.500107	0.066298	0.050600
O17	O	0.833441	0.399632	0.383933
O18	O	1.166774	0.732965	0.717266
O19	O	0.640901	0.057561	0.050626
O20	O	0.974234	0.390894	0.383959
O21	O	1.307568	0.724228	0.717293
Cu22	Cu	0.570503	0.061931	0.059839
Cu23	Cu	0.903836	0.395264	0.393173
Cu24	Cu	1.237170	0.728597	0.726506
Cu25	Cu	0.570519	0.061918	-0.059664
Cu26	Cu	0.903852	0.395251	0.273669
Cu27	Cu	1.237186	0.728584	0.607002
O28	O	0.566118	0.132328	0.050599
O29	O	0.899452	0.465661	0.383932
O30	O	1.232785	0.798995	0.717266
C31	C	0.482107	0.066108	0.000071
C32	C	0.815441	0.399442	0.333405
C33	C	1.148774	0.732775	0.666738
C34	C	0.428453	0.065552	0.000062
C35	C	0.761786	0.398886	0.333395
C36	C	1.095120	0.732219	0.666729
C37	C	0.051389	0.017584	0.000106
C38	C	0.384722	0.350917	0.333439
C39	C	0.718056	0.684250	0.666773
C40	C	0.253049	0.019630	0.000090
C41	C	0.586382	0.352963	0.333423
C42	C	0.919716	0.686297	0.666757
O43	O	0.284309	-0.017592	0.000120
O44	O	0.617642	0.315741	0.333453
O45	O	0.950975	0.649075	0.666787
N46	N	0.272168	0.063966	0.000078
N47	N	0.605502	0.397299	0.333412
N48	N	0.938835	0.730632	0.666745
C49	C	0.240869	0.107793	0.000075
C50	C	0.574202	0.441126	0.333408
C51	C	0.907536	0.774459	0.666742
O52	O	0.261758	0.145549	0.000071
O53	O	0.595091	0.478883	0.333404
O54	O	0.928425	0.812216	0.666738
C55	C	0.039210	0.105746	0.000096
C56	C	0.372543	0.439079	0.333429
C57	C	0.705877	0.772412	0.666762
C58	C	0.020094	0.061407	0.000101
C59	C	0.353427	0.394741	0.333434
C60	C	0.686760	0.728074	0.666768
C61	C	0.032272	-0.026751	0.000112
C62	C	0.365606	0.306582	0.333446
C63	C	0.698939	0.639916	0.666779
C64	C	-0.018140	-0.027262	0.000113
C65	C	0.315194	0.306071	0.333446
C66	C	0.648527	0.639405	0.666780
C67	C	-0.049435	0.016562	0.000108
C68	C	0.283898	0.349895	0.333441
C69	C	0.617232	0.683228	0.666774
C70	C	-0.030318	0.060896	0.000102
C71	C	0.303015	0.394230	0.333435
C72	C	0.636348	0.727563	0.666768
C73	C	0.007912	0.149572	0.000096
C74	C	0.341245	0.482906	0.333430
C75	C	0.674578	0.816239	0.666763
C76	C	-0.042506	0.149057	0.000103
C77	C	0.290828	0.482390	0.333436
C78	C	0.624161	0.815723	0.666770
C79	C	-0.061622	0.104718	0.000108
C80	C	0.271711	0.438052	0.333442
C81	C	0.605045	0.771385	0.666775
C82	C	-0.112026	0.104209	0.000097
C83	C	0.221308	0.437542	0.333430
C84	C	0.554641	0.770875	0.666764
N85	N	-0.131145	0.059873	0.000109
N86	N	0.202189	0.393207	0.333442
N87	N	0.535522	0.726540	0.666775
C88	C	-0.099849	0.016050	0.000114
C89	C	0.233484	0.349383	0.333447
C90	C	0.566817	0.682716	0.666781
C91	C	0.346743	0.108864	0.000063
C92	C	0.680076	0.442197	0.333396
C93	C	1.013410	0.775531	0.666730
C94	C	0.397158	0.109376	0.000057
C95	C	0.730491	0.442709	0.333390
C96	C	1.063824	0.776042	0.666723
C97	C	0.409334	0.021213	0.000073
C98	C	0.742668	0.354547	0.333406
C99	C	1.076001	0.687880	0.666740
C100	C	0.358919	0.020702	0.000075
C101	C	0.692252	0.354035	0.333408
C102	C	1.025585	0.687369	0.666741
C103	C	0.327624	0.064529	0.000075
C104	C	0.660957	0.397862	0.333408
C105	C	0.994291	0.731195	0.666741
C106	C	-0.205719	0.014980	0.000115
C107	C	0.127615	0.348313	0.333448
C108	C	0.460948	0.681646	0.666782
C109	C	-0.256136	0.014473	0.000113
C110	C	0.077198	0.347806	0.333446
C111	C	0.410531	0.681139	0.666780
C112	C	-0.268308	0.102635	0.000100
C113	C	0.065025	0.435968	0.333434
C114	C	0.398359	0.769302	0.666767
C115	C	-0.217895	0.103142	0.000099
C116	C	0.115438	0.436476	0.333432
C117	C	0.448771	0.769809	0.666765
C118	C	-0.186601	0.059311	0.000108
C119	C	0.146732	0.392644	0.333442
C120	C	0.480065	0.725978	0.666775
O121	O	-0.143313	0.141411	0.000074
O122	O	0.190020	0.474744	0.333407
O123	O	0.523353	0.808078	0.666741
O124	O	-0.120748	-0.021702	0.000131
O125	O	0.212585	0.311632	0.333465
O126	O	0.545919	0.644965	0.666798
C127	C	0.101801	0.018095	0.000105
C128	C	0.435134	0.351428	0.333439
C129	C	0.768468	0.684762	0.666772
C130	C	0.120918	0.062430	0.000099
C131	C	0.454251	0.395763	0.333433
C132	C	0.787584	0.729096	0.666766
C133	C	0.089623	0.106253	0.000094
C134	C	0.422956	0.439587	0.333427
C135	C	0.756289	0.772920	0.666761
C136	C	0.171332	0.062941	0.000093
C137	C	0.504666	0.396275	0.333427
C138	C	0.837999	0.729608	0.666760
C139	C	0.202628	0.019118	0.000098
C140	C	0.535961	0.352451	0.333432
C141	C	0.869294	0.685785	0.666765
C142	C	0.183508	-0.025218	0.000110
C143	C	0.516842	0.308116	0.333443
C144	C	0.850175	0.641449	0.666777
C145	C	0.133096	-0.025729	0.000111
C146	C	0.466430	0.307605	0.333444
C147	C	0.799763	0.640938	0.666777
C148	C	0.108742	0.150589	0.000083
C149	C	0.442075	0.483922	0.333416
C150	C	0.775408	0.817255	0.666749
C151	C	0.159154	0.151096	0.000081
C152	C	0.492488	0.484429	0.333415
C153	C	0.825821	0.817763	0.666748
C154	C	0.190450	0.107273	0.000086
C155	C	0.523783	0.440606	0.333420
C156	C	0.857116	0.773939	0.666753
C157	C	0.574717	-0.026481	0.000104
C158	C	0.908050	0.306852	0.333437
C159	C	1.241383	0.640185	0.666770
C160	C	0.574174	-0.080138	0.000110
C161	C	0.907507	0.253196	0.333443
C162	C	1.240841	0.586529	0.666776
C163	C	0.570767	-0.412860	-0.055003
C164	C	0.904100	-0.079527	0.278330
C165	C	1.237433	0.253806	0.611664
C166	C	0.568706	-0.614519	-0.055014
C167	C	0.902039	-0.281185	0.278319
C168	C	1.235372	0.052148	0.611652
O169	O	0.568425	-0.640595	-0.101860
O170	O	0.901758	-0.307261	0.231473
O171	O	1.235091	0.026072	0.564806
N172	N	0.568442	-0.639730	0.000068
N173	N	0.901776	-0.306396	0.333401
N174	N	1.235109	0.026937	0.666734
C175	C	0.568691	-0.614523	0.055156
C176	C	0.902024	-0.281189	0.388490
C177	C	1.235358	0.052144	0.721823
O178	O	0.568415	-0.640593	0.102007
O179	O	0.901748	-0.307259	0.435340
O180	O	1.235081	0.026074	0.768673
C181	C	0.570748	-0.412865	0.055167
C182	C	0.904082	-0.079531	0.388500
C183	C	1.237415	0.253802	0.721834
C184	C	0.571017	-0.387657	0.000081
C185	C	0.904350	-0.054324	0.333415
C186	C	1.237683	0.279010	0.666748
C187	C	0.571034	-0.387653	-0.110084
C188	C	0.904368	-0.054319	0.223249
C189	C	1.237701	0.279014	0.556582
C190	C	0.571552	-0.337241	-0.110081
C191	C	0.904885	-0.003908	0.223252
C192	C	1.238219	0.329425	0.556586
C193	C	0.571802	-0.312038	-0.054997
C194	C	0.905136	0.021295	0.278337
C195	C	1.238469	0.354629	0.611670
C196	C	0.571535	-0.337246	0.000085
C197	C	0.904868	-0.003913	0.333418
C198	C	1.238201	0.329421	0.666751
C199	C	0.570994	-0.387658	0.110255
C200	C	0.904327	-0.054325	0.443588
C201	C	1.237660	0.279009	0.776922
C202	C	0.571507	-0.337240	0.110253
C203	C	0.904840	-0.003907	0.443586
C204	C	1.238173	0.329426	0.776919
C205	C	0.571775	-0.312033	0.055167
C206	C	0.905108	0.021301	0.388500
C207	C	1.238442	0.354634	0.721834
C208	C	0.572303	-0.261631	0.055172
C209	C	0.905636	0.071702	0.388506
C210	C	1.238969	0.405035	0.721839
N211	N	0.572566	-0.236420	0.000090
N212	N	0.905899	0.096913	0.333424
N213	N	1.239233	0.430246	0.666757
C214	C	0.572316	-0.261624	-0.054994
C215	C	0.905649	0.071710	0.278339
C216	C	1.238982	0.405043	0.611673
C217	C	0.567612	-0.720396	0.055147
C218	C	0.900945	-0.387063	0.388480
C219	C	1.234278	-0.053729	0.721814
C220	C	0.567098	-0.770810	0.055145
C221	C	0.900431	-0.437477	0.388478
C222	C	1.233765	-0.104144	0.721811
C223	C	0.567112	-0.770803	-0.055026
C224	C	0.900445	-0.437470	0.278307
C225	C	1.233779	-0.104136	0.611640
C226	C	0.567629	-0.720388	-0.055023
C227	C	0.900962	-0.387055	0.278310
C228	C	1.234296	-0.053721	0.611643
C229	C	0.567875	-0.695185	0.000065
C230	C	0.901208	-0.361852	0.333398
C231	C	1.234542	-0.028518	0.666732
C232	C	0.573404	-0.155757	-0.054983
C233	C	0.906737	0.177577	0.278350
C234	C	1.240070	0.510910	0.611684
C235	C	0.573924	-0.105341	-0.054975
C236	C	0.907257	0.227992	0.278359
C237	C	1.240590	0.561326	0.611692
C238	C	0.573907	-0.105353	0.055196
C239	C	0.907241	0.227981	0.388529
C240	C	1.240574	0.561314	0.721862
C241	C	0.573390	-0.155764	0.055188
C242	C	0.906723	0.177569	0.388521
C243	C	1.240057	0.510903	0.721855
C244	C	0.573137	-0.180964	0.000094
C245	C	0.906470	0.152369	0.333427
C246	C	1.239803	0.485702	0.666760
O247	O	0.572578	-0.235524	0.101994
O248	O	0.905912	0.097810	0.435327
O249	O	1.239245	0.431143	0.768660
O250	O	0.572581	-0.235543	-0.101837
O251	O	0.905915	0.097790	0.231496
O252	O	1.239248	0.431123	0.564829
C253	C	0.570249	-0.463272	-0.055006
C254	C	0.903582	-0.129938	0.278327
C255	C	1.236915	0.203395	0.611660
C256	C	0.569981	-0.488479	0.000075
C257	C	0.903314	-0.155146	0.333408
C258	C	1.236648	0.178187	0.666741
C259	C	0.570231	-0.463276	0.055159
C260	C	0.903564	-0.129943	0.388492
C261	C	1.236898	0.203391	0.721826
C262	C	0.569467	-0.538894	0.000072
C263	C	0.902801	-0.205560	0.333406
C264	C	1.236134	0.127773	0.666739
C265	C	0.569217	-0.564097	-0.055012
C266	C	0.902551	-0.230764	0.278321
C267	C	1.235884	0.102570	0.611654
C268	C	0.569481	-0.538886	-0.110094
C269	C	0.902814	-0.205553	0.223239
C270	C	1.236147	0.127781	0.556572
C271	C	0.569999	-0.488475	-0.110091
C272	C	0.903332	-0.155142	0.223242
C273	C	1.236665	0.178192	0.556576
C274	C	0.569968	-0.488487	0.110241
C275	C	0.903301	-0.155154	0.443574
C276	C	1.236634	0.178180	0.776908
C277	C	0.569450	-0.538898	0.110233
C278	C	0.902784	-0.205565	0.443567
C279	C	1.236117	0.127768	0.776900
C280	C	0.569200	-0.564102	0.055149
C281	C	0.902534	-0.230768	0.388482
C282	C	1.235867	0.102565	0.721815
C283	C	0.658915	0.057740	0.000102
C284	C	0.992248	0.391074	0.333436
C285	C	1.325581	0.724407	0.666769
C286	C	0.712569	0.058296	0.000108
C287	C	1.045902	0.391630	0.333441
C288	C	1.379236	0.724963	0.666775
C289	C	0.566305	0.150330	0.000070
C290	C	0.899639	0.483663	0.333404
C291	C	1.232972	0.816997	0.666737
C292	C	0.566848	0.203986	0.000060
C293	C	0.900181	0.537319	0.333394
C294	C	1.233515	0.870653	0.666727
N295	N	0.570495	0.061940	0.143892
N296	N	0.903828	0.395273	0.477225
N297	N	1.237162	0.728606	0.810559
N298	N	0.570531	0.061905	-0.143717
N299	N	0.903864	0.395238	0.189617
N300	N	1.237197	0.728571	0.522950
C301	C	0.603635	0.028815	0.563683
C302	C	0.936968	0.362149	0.897017
C303	C	1.270301	0.695482	1.230350
C304	C	0.603637	0.028812	0.627291
C305	C	0.936970	0.362145	0.960624
C306	C	1.270304	0.695479	1.293958
O307	O	0.631794	0.000655	0.660193
O308	O	0.965127	0.333988	0.993526
O309	O	1.298461	0.667322	1.326859
N310	N	0.570519	0.061907	0.659099
N311	N	0.903852	0.395241	0.992432
N312	N	1.237185	0.728574	1.325766
C313	C	0.537393	0.095005	0.627296
C314	C	0.870726	0.428338	0.960630
C315	C	1.204060	0.761672	1.293963
O316	O	0.509223	0.123155	0.660192
O317	O	0.842556	0.456488	0.993526
O318	O	1.175890	0.789821	1.326859
C319	C	0.537389	0.095006	0.563690
C320	C	0.870722	0.428339	0.897023
C321	C	1.204055	0.761672	1.230357
C322	C	0.570512	0.061911	0.531885
C323	C	0.903846	0.395245	0.865218
C324	C	1.237179	0.728578	1.198552
C325	C	0.636755	-0.004277	0.531878
C326	C	0.970089	0.329057	0.865212
C327	C	1.303422	0.662390	1.198545
C328	C	0.636753	-0.004272	0.468275
C329	C	0.970087	0.329061	0.801608
C330	C	1.303420	0.662394	1.134942
C331	C	0.603631	0.028824	0.436477
C332	C	0.936964	0.362157	0.769810
C333	C	1.270298	0.695490	1.103144
C334	C	0.570511	0.061915	0.468282
C335	C	0.903844	0.395249	0.801615
C336	C	1.237177	0.728582	1.134948
C337	C	0.504261	0.128101	0.531888
C338	C	0.837594	0.461434	0.865222
C339	C	1.170928	0.794767	1.198555
C340	C	0.504259	0.128098	0.468278
C341	C	0.837593	0.461431	0.801611
C342	C	1.170926	0.794765	1.134944
C343	C	0.537383	0.095004	0.436473
C344	C	0.870716	0.428337	0.769806
C345	C	1.204050	0.761671	1.103139
C346	C	0.537386	0.095016	0.372880
C347	C	0.870720	0.428349	0.706214
C348	C	1.204053	0.761682	1.039547
N349	N	0.570505	0.061920	0.341072
N350	N	0.903838	0.395254	0.674405
N351	N	1.237171	0.728587	1.007739
C352	C	0.603627	0.028824	0.372870
C353	C	0.936960	0.362158	0.706204
C354	C	1.270294	0.695491	1.039537
C355	C	0.537404	0.095001	0.760874
C356	C	0.870737	0.428334	1.094207
C357	C	1.204070	0.761667	1.427541
C358	C	0.537410	0.095003	0.824479
C359	C	0.870743	0.428336	1.157813
C360	C	1.204076	0.761669	1.491146
C361	C	0.603653	0.028809	0.824470
C362	C	0.936987	0.362142	1.157803
C363	C	1.270320	0.695476	1.491136
C364	C	0.603649	0.028810	0.760863
C365	C	0.936982	0.362143	1.094196
C366	C	1.270316	0.695476	1.427530
C367	C	0.570522	0.061905	0.729066
C368	C	0.903855	0.395239	1.062399
C369	C	1.237188	0.728572	1.395733
C370	C	0.603621	0.028835	0.239299
C371	C	0.936954	0.362169	0.572632
C372	C	1.270288	0.695502	0.905966
C373	C	0.603618	0.028844	0.175690
C374	C	0.936951	0.362177	0.509024
C375	C	1.270284	0.695510	0.842357
C376	C	0.537372	0.095036	0.175706
C377	C	0.870706	0.428369	0.509039
C378	C	1.204039	0.761702	0.842372
C379	C	0.537377	0.095029	0.239309
C380	C	0.870711	0.428363	0.572642
C381	C	1.204044	0.761696	0.905976
C382	C	0.570503	0.061925	0.271104
C383	C	0.903837	0.395258	0.604437
C384	C	1.237170	0.728592	0.937771
O385	O	0.509242	0.123157	0.339938
O386	O	0.842576	0.456490	0.673272
O387	O	1.175909	0.789824	1.006605
O388	O	0.631788	0.000675	0.339967
O389	O	0.965121	0.334008	0.673300
O390	O	1.298454	0.667342	1.006633
H391	H	-0.293798	0.138315	0.000093
H392	H	0.039536	0.471648	0.333426
H393	H	0.372869	0.804982	0.666760
O394	O	0.312994	0.156139	0.000057
O395	O	0.646328	0.489472	0.333391
O396	O	0.979661	0.822806	0.666724
H397	H	0.289739	0.158026	0.041249
H398	H	0.623072	0.491359	0.374582
H399	H	0.956406	0.824693	0.707916
H400	H	0.630592	0.001894	0.149797
H401	H	0.963926	0.335228	0.483130
H402	H	1.297259	0.668561	0.816463
H403	H	0.343358	-0.015402	0.000080
H404	H	0.676692	0.317931	0.333413
H405	H	1.010025	0.651264	0.666746
O406	O	0.570243	-0.461313	0.169660
O407	O	0.903576	-0.127979	0.502994
O408	O	1.236910	0.205354	0.836327
H409	H	0.537519	-0.433789	0.172305
H410	H	0.870853	-0.100455	0.505638
H411	H	1.204186	0.232878	0.838971
H412	H	0.574113	-0.084823	0.100044
H413	H	0.907447	0.248510	0.433377
H414	H	1.240780	0.581843	0.766711
H415	H	0.630623	0.001860	0.850371
H416	H	0.963956	0.335193	1.183705
H417	H	1.297289	0.668526	1.517038
H418	H	0.663724	-0.031222	0.442383
H419	H	0.997057	0.302111	0.775717
H420	H	1.330391	0.635445	1.109050
O421	O	-0.197274	0.150963	0.000093
O422	O	0.136060	0.484297	0.333426
O423	O	0.469393	0.817630	0.666760
H424	H	-0.209870	0.172003	-0.041094
H425	H	0.123464	0.505336	0.292239
H426	H	0.456797	0.838669	0.625573
O427	O	0.468543	0.163814	0.566169
O428	O	0.801877	0.497148	0.899503
O429	O	1.135210	0.830481	1.232836
H430	H	0.430908	0.157919	0.553965
H431	H	0.764241	0.491252	0.887298
H432	H	1.097574	0.824586	1.220631
O433	O	0.672489	-0.039975	0.566163
O434	O	1.005823	0.293358	0.899496
O435	O	1.339156	0.626692	1.232829
H436	H	0.652335	-0.063342	0.595143
H437	H	0.985669	0.269991	0.928476
H438	H	1.319002	0.603325	1.261810
O439	O	0.468531	0.163797	0.433981
O440	O	0.801864	0.497131	0.767314
O441	O	1.135198	0.830464	1.100647
H442	H	0.445505	0.186810	0.466787
H443	H	0.778838	0.520143	0.800120
H444	H	1.112171	0.853476	1.133454
O445	O	0.570699	-0.414839	0.169669
O446	O	0.904033	-0.081506	0.503002
O447	O	1.237366	0.251828	0.836336
H448	H	0.570952	-0.388835	0.207967
H449	H	0.904286	-0.055502	0.541300
H450	H	1.237619	0.277832	0.874633
O451	O	0.028523	0.197394	0.000106
O452	O	0.361856	0.530728	0.333439
O453	O	0.695190	0.864061	0.666773
H454	H	-0.001716	0.227777	0.000116
H455	H	0.331618	0.561110	0.333449
H456	H	0.664951	0.894443	0.666782
O457	O	0.570764	-0.414834	-0.169500
O458	O	0.904097	-0.081501	0.163833
O459	O	1.237430	0.251833	0.497166
H460	H	0.537569	-0.433244	-0.172148
H461	H	0.870902	-0.099911	0.161186
H462	H	1.204235	0.233423	0.494519
O463	O	0.217269	-0.072485	0.000124
O464	O	0.550602	0.260848	0.333457
O465	O	0.883936	0.594182	0.666790
H466	H	0.240534	-0.074363	-0.041059
H467	H	0.573868	0.258971	0.292275
H468	H	0.907201	0.592304	0.625608
O469	O	0.574211	-0.078155	-0.114393
O470	O	0.907545	0.255178	0.218940
O471	O	1.240878	0.588511	0.552274
H472	H	0.574618	-0.038865	-0.105141
H473	H	0.907951	0.294468	0.228192
H474	H	1.241284	0.627802	0.561525
O475	O	0.569160	-0.566085	0.169651
O476	O	0.902493	-0.232752	0.502984
O477	O	1.235827	0.100581	0.836317
H478	H	0.569416	-0.540084	0.207951
H479	H	0.902749	-0.206751	0.541285
H480	H	1.236082	0.126582	0.874618
O481	O	0.573126	-0.182933	-0.114404
O482	O	0.906460	0.150400	0.218929
O483	O	1.239793	0.483733	0.552263
H484	H	0.573401	-0.156929	-0.152700
H485	H	0.906734	0.176405	0.180634
H486	H	1.240068	0.509738	0.513967
H487	H	0.569279	-0.559416	-0.154946
H488	H	0.902613	-0.226082	0.178387
H489	H	1.235946	0.107251	0.511721
O490	O	0.501700	0.130712	0.858782
O491	O	0.835033	0.464046	1.192115
O492	O	1.168366	0.797379	1.525448
H493	H	0.478672	0.153727	0.825978
H494	H	0.812005	0.487060	1.159311
H495	H	1.145338	0.820394	1.492644
H496	H	0.630621	0.001861	0.734971
H497	H	0.963954	0.335195	1.068305
H498	H	1.297288	0.668528	1.401638
H499	H	0.510410	0.121982	0.265205
H500	H	0.843743	0.455315	0.598538
H501	H	1.177076	0.788649	0.931872
H502	H	0.566887	-0.791331	0.100001
H503	H	0.900220	-0.457998	0.433334
H504	H	1.233554	-0.124665	0.766667
O505	O	-0.076261	0.196328	0.000100
O506	O	0.257073	0.529661	0.333433
O507	O	0.590406	0.862994	0.666766
H508	H	-0.054494	0.227241	0.000090
H509	H	0.278839	0.560574	0.333424
H510	H	0.612172	0.893908	0.666757
O511	O	0.567911	-0.693204	-0.114439
O512	O	0.901244	-0.359870	0.218895
O513	O	1.234577	-0.026537	0.552228
H514	H	0.601104	-0.674790	-0.117075
H515	H	0.934437	-0.341457	0.216258
H516	H	1.267771	-0.008124	0.549591
O517	O	0.571778	-0.310061	0.169673
O518	O	0.905111	0.023272	0.503007
O519	O	1.238444	0.356606	0.836340
H520	H	0.539053	-0.282538	0.172309
H521	H	0.872386	0.050796	0.505643
H522	H	1.205719	0.384129	0.838976
O523	O	0.573102	-0.182958	0.114599
O524	O	0.906436	0.150376	0.447932
O525	O	1.239769	0.483709	0.781266
H526	H	0.573361	-0.156960	0.152903
H527	H	0.906694	0.176373	0.486236
H528	H	1.240028	0.509707	0.819569
O529	O	0.571829	-0.310053	-0.169495
O530	O	0.905162	0.023280	0.163839
O531	O	1.238495	0.356613	0.497172
H532	H	0.571560	-0.336054	-0.207793
H533	H	0.904894	-0.002721	0.125540
H534	H	1.238227	0.330612	0.458873
H535	H	0.570217	-0.467955	-0.154947
H536	H	0.903550	-0.134622	0.178386
H537	H	1.236883	0.198711	0.511719
O538	O	0.639356	-0.006864	0.273585
O539	O	0.972690	0.326470	0.606918
O540	O	1.306023	0.659803	0.940251
H541	H	0.633495	-0.044506	0.261369
H542	H	0.966828	0.288827	0.594702
H543	H	1.300161	0.622160	0.928035
H544	H	-0.271697	-0.021635	0.000116
H545	H	0.061636	0.311699	0.333449
H546	H	0.394970	0.645032	0.666783
O547	O	0.501678	0.130705	0.726579
O548	O	0.835011	0.464039	1.059912
O549	O	1.168345	0.797372	1.393245
H550	H	0.478656	0.153719	0.759388
H551	H	0.811989	0.487052	1.092721
H552	H	1.145323	0.820386	1.426054
H553	H	0.174713	0.187204	0.000073
H554	H	0.508047	0.520538	0.333406
H555	H	0.841380	0.853871	0.666739
H556	H	0.566909	-0.791332	-0.099878
H557	H	0.900242	-0.457999	0.233455
H558	H	1.233575	-0.124665	0.566788
O559	O	0.074993	0.197860	0.000073
O560	O	0.408327	0.531193	0.333407
O561	O	0.741660	0.864527	0.666740
H562	H	0.051735	0.199747	0.041262
H563	H	0.385068	0.533080	0.374595
H564	H	0.718401	0.866414	0.707929
O565	O	0.501636	0.130720	0.141404
O566	O	0.834970	0.464053	0.474737
O567	O	1.168303	0.797386	0.808071
H568	H	0.507195	0.125151	0.091832
H569	H	0.840529	0.458485	0.425165
H570	H	1.173862	0.791818	0.758499
H571	H	-0.033699	-0.063367	0.000120
H572	H	0.299634	0.269967	0.333453
H573	H	0.632968	0.603300	0.666786
O574	O	0.567888	-0.693216	0.114567
O575	O	0.901221	-0.359883	0.447900
O576	O	1.234554	-0.026550	0.781234
H577	H	0.567625	-0.719223	0.152863
H578	H	0.900959	-0.385889	0.486196
H579	H	1.234292	-0.052556	0.819530
H580	H	-0.180245	-0.020712	0.000122
H581	H	0.153089	0.312621	0.333456
H582	H	0.486422	0.645955	0.666789
O583	O	0.066024	-0.074022	0.000117
O584	O	0.399357	0.259312	0.333450
O585	O	0.732690	0.592645	0.666783
H586	H	0.044252	-0.104931	0.000119
H587	H	0.377586	0.228402	0.333452
H588	H	0.710919	0.561736	0.666785
H589	H	0.117537	-0.061833	0.000115
H590	H	0.450870	0.271500	0.333449
H591	H	0.784204	0.604833	0.666782
O592	O	0.443092	-0.026056	0.000087
O593	O	0.776426	0.307277	0.333421
O594	O	1.109759	0.640611	0.666754
H595	H	0.481359	-0.018246	0.000089
H596	H	0.814692	0.315087	0.333422
H597	H	1.148025	0.648420	0.666755
H598	H	0.412717	0.145480	0.000044
H599	H	0.746050	0.478814	0.333377
H600	H	1.079384	0.812147	0.666711
