data_functionalizedCrystal
_audit_creation_method	'MofGen! by Chris Wilmer'
_symmetry_space_group_name_H-M	'P1'
_symmetry_Int_Tables_number	1
_symmetry_cell_setting	triclinic
loop_
_symmetry_equiv_pos_as_xyz
  x,y,z
_cell_length_a	25.639242
_cell_length_b	12.827892
_cell_length_c	12.827885
_cell_angle_alpha	89.970214
_cell_angle_beta	89.969977
_cell_angle_gamma	90.010920
loop_
_atom_site_label
_atom_site_type_symbol
_atom_site_fract_x
_atom_site_fract_y
_atom_site_fract_z
Zn1	Zn	0.799350	-0.416107	-0.591148
Zn2	Zn	1.299350	0.083893	-0.091148
Zn3	Zn	0.799297	-0.590884	-0.416409
Zn4	Zn	1.299297	-0.090884	0.083591
Zn5	Zn	0.711915	-0.416144	-0.416389
Zn6	Zn	1.211915	0.083856	0.083611
Zn7	Zn	0.711907	-0.590793	-0.591076
Zn8	Zn	1.211907	-0.090793	-0.091076
O9	O	0.755617	-0.503482	-0.503756
O10	O	1.255617	-0.003482	-0.003756
O11	O	0.872508	-0.439314	-0.568007
O12	O	1.372508	0.060686	-0.068007
O13	O	0.787687	-0.567759	-0.270170
O14	O	1.287687	-0.067759	0.229830
O15	O	0.723538	-0.269903	-0.439594
O16	O	1.223538	0.230097	0.060406
O17	O	0.872470	-0.567722	-0.439627
O18	O	1.372470	-0.067722	0.060373
O19	O	0.787777	-0.269876	-0.567988
O20	O	1.287777	0.230124	-0.067988
O21	O	0.723487	-0.439378	-0.270156
O22	O	1.223487	0.060622	0.229844
O23	O	0.638748	-0.439289	-0.439523
O24	O	1.138748	0.060711	0.060477
O25	O	0.723526	-0.567567	-0.737322
O26	O	1.223526	-0.067567	-0.237322
O27	O	0.638743	-0.567603	-0.567865
O28	O	1.138743	-0.067603	-0.067865
O29	O	0.787770	-0.439226	-0.737375
O30	O	1.287770	0.060774	-0.237375
O31	O	0.787680	-0.737108	-0.439556
O32	O	1.287680	-0.237108	0.060444
O33	O	0.723474	-0.737041	-0.567884
O34	O	1.223474	-0.237041	-0.067884
C35	C	0.619775	-0.503441	-0.503685
C36	C	1.119775	-0.003441	-0.003685
C37	C	0.561661	-0.503449	-0.503679
C38	C	1.061661	-0.003449	-0.003679
C39	C	0.755585	-0.774992	-0.503737
C40	C	1.255585	-0.274992	-0.003737
C41	C	0.755619	-0.891145	-0.503764
C42	C	1.255619	-0.391145	-0.003764
C43	C	0.787427	-0.942929	-0.440334
C44	C	1.287427	-0.442929	0.059666
C45	C	0.787463	-1.062979	-0.440361
C46	C	1.287463	-0.562979	0.059639
C47	C	0.201304	-0.570407	-0.570520
C48	C	0.701304	-0.070407	-0.070520
C49	C	0.146699	-0.570413	-0.570536
C50	C	0.646699	-0.070413	-0.070536
O51	O	0.118468	-0.627292	-0.627306
O52	O	0.618468	-0.127292	-0.127306
N53	N	0.119378	-0.503511	-0.503824
N54	N	0.619378	-0.003511	-0.003824
C55	C	0.146664	-0.436590	-0.437098
C56	C	0.646664	0.063410	0.062902
O57	O	0.118412	-0.379685	-0.380356
O58	O	0.618412	0.120315	0.119644
C59	C	0.201268	-0.436580	-0.437088
C60	C	0.701268	0.063420	0.062912
C61	C	0.228586	-0.503494	-0.503797
C62	C	0.728586	-0.003494	-0.003797
C63	C	0.228622	-0.637315	-0.637224
C64	C	0.728622	-0.137315	-0.137224
C65	C	0.283223	-0.637309	-0.637206
C66	C	0.783223	-0.137309	-0.137206
C67	C	0.310505	-0.570396	-0.570483
C68	C	0.810505	-0.070396	-0.070483
C69	C	0.283186	-0.503488	-0.503779
C70	C	0.783186	-0.003488	-0.003779
C71	C	0.228553	-0.369655	-0.370368
C72	C	0.728553	0.130345	0.129632
C73	C	0.283160	-0.369649	-0.370364
C74	C	0.783160	0.130351	0.129636
C75	C	0.310478	-0.436563	-0.437073
C76	C	0.810478	0.063437	0.062927
C77	C	0.365069	-0.436570	-0.437038
C78	C	0.865069	0.063430	0.062962
N79	N	0.392390	-0.503472	-0.503750
N80	N	0.892390	-0.003472	-0.003750
C81	C	0.365108	-0.570385	-0.570473
C82	C	0.865108	-0.070385	-0.070473
C83	C	0.031994	-0.436617	-0.437126
C84	C	0.531994	0.063383	0.062874
C85	C	-0.022609	-0.436632	-0.437131
C86	C	0.477391	0.063368	0.062869
C87	C	-0.022570	-0.570454	-0.570570
C88	C	0.477430	-0.070454	-0.070570
C89	C	0.032034	-0.570443	-0.570560
C90	C	0.532034	-0.070443	-0.070560
C91	C	0.059315	-0.503519	-0.503839
C92	C	0.559315	-0.003519	-0.003839
C93	C	0.479773	-0.570370	-0.570429
C94	C	0.979773	-0.070370	-0.070429
C95	C	0.534379	-0.570362	-0.570402
C96	C	1.034379	-0.070362	-0.070402
C97	C	0.534335	-0.436537	-0.436967
C98	C	1.034335	0.063463	0.063033
C99	C	0.479734	-0.436548	-0.436989
C100	C	0.979734	0.063452	0.063011
C101	C	0.452455	-0.503468	-0.503729
C102	C	0.952455	-0.003468	-0.003729
O103	O	0.393335	-0.379717	-0.380300
O104	O	0.893335	0.120283	0.119700
O105	O	0.393368	-0.627272	-0.627215
O106	O	0.893368	-0.127272	-0.127215
C107	C	0.891990	-0.503524	-0.503827
C108	C	1.391990	-0.003524	-0.003827
C109	C	0.950104	-0.503542	-0.503858
C110	C	1.450104	-0.003542	-0.003858
C111	C	0.755653	-0.503382	-0.776326
C112	C	1.255653	-0.003382	-0.276326
C113	C	0.755668	-0.503339	-0.892479
C114	C	1.255668	-0.003339	-0.392479
C115	C	0.755664	-0.230912	-0.503797
C116	C	1.255664	0.269088	-0.003797
C117	C	0.755685	-0.114759	-0.503815
C118	C	1.255685	0.385241	-0.003815
C119	C	0.787462	-0.439819	-0.944290
C120	C	1.287462	0.060181	-0.444290
C121	C	0.787478	-0.439774	-1.064341
C122	C	1.287478	0.060226	-0.564341
C123	C	0.755612	-0.503507	-0.232246
C124	C	1.255612	-0.003507	0.267754
C125	C	0.755698	-0.503255	-0.116093
C126	C	1.255698	-0.003255	0.383907
H127	H	0.814635	-0.898388	-0.386013
H128	H	1.314635	-0.398388	0.113987
H129	H	0.814699	-0.385396	-1.108897
H130	H	1.314699	0.114604	-0.608897
H131	H	0.728415	-0.935688	-0.558092
H132	H	1.228415	-0.435688	-0.058092
O133	O	-0.049080	-0.371692	-0.372168
O134	O	0.450920	0.128308	0.127832
C135	C	-0.035774	-0.394436	-0.267979
C136	C	0.464226	0.105564	0.232021
H137	H	0.003865	-0.434616	-0.265754
H138	H	0.503865	0.065384	0.234246
H139	H	-0.033904	-0.318966	-0.221243
H140	H	0.466096	0.181034	0.278757
H141	H	-0.066522	-0.448116	-0.232689
H142	H	0.433478	0.051884	0.267311
O143	O	0.819995	-0.375030	-0.891306
O144	O	1.319995	0.124970	-0.391306
C145	C	0.872117	-0.397870	-0.917905
C146	C	1.372117	0.102130	-0.417905
H147	H	0.873240	-0.437944	-0.997173
H148	H	1.373240	0.062056	-0.497173
H149	H	0.895577	-0.322454	-0.921553
H150	H	1.395577	0.177546	-0.421553
H151	H	0.889682	-0.451680	-0.856498
H152	H	1.389682	0.048320	-0.356498
H153	H	0.457491	-0.382063	-0.382667
H154	H	0.957491	0.117937	0.117333
O155	O	0.723134	-0.568068	-0.945536
O156	O	1.223134	-0.068068	-0.445536
C157	C	0.671012	-0.545271	-0.918900
C158	C	1.171012	-0.045271	-0.418900
H159	H	0.668367	-0.461826	-0.888836
H160	H	1.168367	0.038174	-0.388836
H161	H	0.645223	-0.554172	-0.990714
H162	H	1.145223	-0.054172	-0.490714
H163	H	0.657299	-0.601378	-0.855614
H164	H	1.157299	-0.101378	-0.355614
O165	O	0.819951	-1.116258	-0.375702
O166	O	1.319951	-0.616258	0.124298
C167	C	0.812760	-1.224260	-0.390134
C168	C	1.312760	-0.724260	0.109866
H169	H	0.795590	-1.239019	-0.470744
H170	H	1.295590	-0.739019	0.029256
H171	H	0.851925	-1.265743	-0.383231
H172	H	1.351925	-0.765743	0.116769
H173	H	0.784951	-1.255352	-0.328098
H174	H	1.284951	-0.755352	0.171902
H175	H	0.556619	-0.624855	-0.624726
H176	H	1.056619	-0.124855	-0.124726
H177	H	0.457569	-0.624860	-0.624777
H178	H	0.957569	-0.124860	-0.124777
H179	H	0.206319	-0.315169	-0.316043
H180	H	0.706319	0.184831	0.183957
H181	H	0.305461	-0.691796	-0.691530
H182	H	0.805461	-0.191796	-0.191530
H183	H	0.728479	-0.557643	-1.071544
H184	H	1.228479	-0.057643	-0.571544
H185	H	0.054203	-0.382120	-0.382786
H186	H	0.554203	0.117880	0.117214
H187	H	0.206415	-0.691804	-0.691564
H188	H	0.706415	-0.191804	-0.191564
H189	H	0.054273	-0.624929	-0.624882
H190	H	0.554273	-0.124929	-0.124882
O191	O	0.723220	-1.061761	-0.568753
O192	O	1.223220	-0.561761	-0.068753
C193	C	0.734624	-1.088240	-0.672961
C194	C	1.234624	-0.588240	-0.172961
H195	H	0.754710	-1.167482	-0.675259
H196	H	1.254710	-0.667482	-0.175259
H197	H	0.696878	-1.091886	-0.719746
H198	H	1.196878	-0.591886	-0.219746
H199	H	0.761506	-1.026765	-0.708144
H200	H	1.261506	-0.526765	-0.208144
H201	H	0.305369	-0.315144	-0.316036
H202	H	0.805369	0.184856	0.183964
O203	O	-0.049158	-0.635351	-0.635361
O204	O	0.450842	-0.135351	-0.135361
C205	C	-0.103209	-0.621019	-0.621043
C206	C	0.396791	-0.121019	-0.121043
H207	H	-0.110667	-0.540334	-0.586949
H208	H	0.389333	-0.040334	-0.086949
H209	H	-0.123939	-0.628192	-0.699309
H210	H	0.376061	-0.128192	-0.199309
H211	H	-0.118728	-0.682942	-0.565294
H212	H	0.381272	-0.182942	-0.065294
O213	O	0.560902	-0.371686	-0.372106
O214	O	1.060902	0.128314	0.127894
C215	C	0.592452	-0.431100	-0.304488
C216	C	1.092452	0.068900	0.195512
H217	H	0.600632	-0.510343	-0.341202
H218	H	1.100632	-0.010343	0.158798
H219	H	0.630851	-0.388521	-0.290562
H220	H	1.130851	0.111479	0.209438
H221	H	0.571388	-0.442480	-0.227024
H222	H	1.071388	0.057520	0.272976
