data_functionalizedCrystal
_audit_creation_method	'MofGen! by Chris Wilmer'
_symmetry_space_group_name_H-M	'P1'
_symmetry_Int_Tables_number	1
_symmetry_cell_setting	triclinic
loop_
_symmetry_equiv_pos_as_xyz
  x,y,z
_cell_length_a	19.805407
_cell_length_b	12.594516
_cell_length_c	19.805399
_cell_angle_alpha	89.977796
_cell_angle_beta	89.983114
_cell_angle_gamma	90.016053
loop_
_atom_site_label
_atom_site_type_symbol
_atom_site_fract_x
_atom_site_fract_y
_atom_site_fract_z
Zn1	Zn	1.034766	-0.423752	-0.382752
Zn2	Zn	1.034707	-0.601750	-0.269577
Zn3	Zn	0.921586	-0.423786	-0.269576
Zn4	Zn	0.921565	-0.601689	-0.382723
O5	O	0.978156	-0.512744	-0.326157
O6	O	1.129475	-0.447375	-0.367751
O7	O	1.019685	-0.578182	-0.174860
O8	O	0.936634	-0.274835	-0.284601
O9	O	1.129431	-0.578149	-0.284602
O10	O	1.019787	-0.274811	-0.367750
O11	O	0.936576	-0.447433	-0.174860
O12	O	0.826867	-0.447374	-0.284573
O13	O	0.936597	-0.578046	-0.477444
O14	O	0.826851	-0.578078	-0.367702
O15	O	1.019766	-0.447316	-0.477464
O16	O	1.019665	-0.750688	-0.284574
O17	O	0.936540	-0.750643	-0.367703
C18	C	0.802300	-0.512724	-0.326135
C19	C	0.727068	-0.512741	-0.326142
C20	C	0.978112	-0.789285	-0.326150
C21	C	0.978155	-0.907590	-0.326170
C22	C	0.691734	-0.580901	-0.369357
C23	C	0.621045	-0.580903	-0.369366
C24	C	0.585693	-0.512749	-0.326157
C25	C	0.621032	-0.444581	-0.282940
C26	C	0.691719	-0.444575	-0.282934
C27	C	0.335959	-0.444605	-0.282962
C28	C	0.265267	-0.444619	-0.282970
C29	C	0.265285	-0.580933	-0.369394
C30	C	0.335972	-0.580926	-0.369389
C31	C	0.371305	-0.512755	-0.326175
C32	C	0.447954	-0.512752	-0.326166
C33	C	0.509046	-0.512756	-0.326162
C34	C	0.932939	-0.976858	-0.371352
C35	C	0.916453	-1.047717	-0.309590
C36	C	0.994702	-1.047531	-0.387943
C37	C	0.961636	-0.976891	-0.264375
C38	C	1.039915	-0.976699	-0.342770
C39	C	1.023452	-1.047526	-0.280965
C40	C	1.154699	-0.512765	-0.326179
C41	C	1.229931	-0.512774	-0.326189
C42	C	0.978186	-0.512670	-0.502700
C43	C	0.978199	-0.512639	-0.577932
C44	C	0.978219	-0.235123	-0.326178
C45	C	0.978246	-0.116818	-0.326188
C46	C	0.934936	-0.444551	-0.613275
C47	C	0.934945	-0.444530	-0.683964
C48	C	0.978221	-0.512593	-0.719307
C49	C	1.021486	-0.580688	-0.683959
C50	C	1.021472	-0.580713	-0.613272
C51	C	1.021539	-0.580588	-0.969033
C52	C	1.021551	-0.580556	-1.039725
C53	C	0.935012	-0.444406	-1.039724
C54	C	0.934999	-0.444431	-0.969037
C55	C	0.978261	-0.512529	-0.933695
C56	C	0.978249	-0.512553	-0.857046
C57	C	0.978237	-0.512565	-0.795955
C58	C	0.978166	-0.512741	-0.150301
C59	C	0.978284	-0.512472	-0.075069
H60	H	0.720513	-0.636404	-0.404541
C61	C	1.127528	-0.970138	-0.426476
C62	C	1.110346	-0.934546	-0.361744
H63	H	1.171008	-0.944106	-0.438195
H64	H	1.127974	-1.045544	-0.427024
H65	H	1.095258	-0.944884	-0.458111
H66	H	1.142614	-0.959807	-0.330108
H67	H	1.109905	-0.859124	-0.361191
C68	C	0.541507	-0.429609	-0.191917
C69	C	0.582174	-0.369661	-0.235445
H70	H	0.517522	-0.383354	-0.162593
H71	H	0.510349	-0.470196	-0.217655
H72	H	0.569074	-0.475921	-0.165975
H73	H	0.554606	-0.323355	-0.261390
H74	H	0.613335	-0.329057	-0.209704
C75	C	1.075138	-1.200337	-0.230153
C76	C	1.075123	-1.089166	-0.229340
H77	H	1.107038	-1.226043	-0.198283
H78	H	1.031435	-1.225718	-0.218740
H79	H	1.086965	-1.224642	-0.273988
H80	H	1.063292	-1.064861	-0.185506
H81	H	1.118836	-1.063775	-0.240749
C82	C	0.684606	-0.309846	-0.197495
C83	C	0.730562	-0.369660	-0.235425
H84	H	0.708587	-0.263600	-0.168162
H85	H	0.657055	-0.269192	-0.227029
H86	H	0.657017	-0.356184	-0.171561
H87	H	0.758148	-0.323322	-0.261362
H88	H	0.758124	-0.410317	-0.205887
C89	C	0.628163	-0.715677	-0.454775
C90	C	0.582206	-0.655845	-0.416859
H91	H	0.604184	-0.761952	-0.484091
H92	H	0.655745	-0.669361	-0.480720
H93	H	0.655721	-0.756311	-0.425226
H94	H	0.554651	-0.615205	-0.446408
H95	H	0.554612	-0.702167	-0.390912
C96	C	0.816636	-0.970812	-0.405314
C97	C	0.881231	-0.934955	-0.422856
H98	H	0.784714	-0.944935	-0.437106
H99	H	0.816032	-1.046221	-0.405391
H100	H	0.805350	-0.945580	-0.361549
H101	H	0.892519	-0.960194	-0.466619
H102	H	0.881837	-0.859530	-0.422786
H103	H	0.364752	-0.636428	-0.404572
H104	H	0.899699	-0.389121	-0.584503
C105	C	1.059945	-0.641100	-0.860681
C106	C	1.069094	-0.655437	-0.930189
H107	H	1.089302	-0.687316	-0.836700
H108	H	1.069867	-0.569601	-0.849105
H109	H	1.014460	-0.656678	-0.849097
H110	H	1.114578	-0.639851	-0.941774
H111	H	1.059176	-0.726952	-0.941770
C112	C	0.828275	-1.052637	-0.226420
C113	C	0.846002	-1.089834	-0.290638
H114	H	0.784779	-1.078632	-0.214726
H115	H	0.860382	-1.076829	-0.194297
H116	H	0.827631	-0.977219	-0.226690
H117	H	0.846651	-1.165251	-0.290367
H118	H	0.813887	-1.065647	-0.322770
H119	H	1.056706	-0.636149	-0.584496
H120	H	0.947617	-0.945990	-0.212128
C121	C	0.925578	-0.301353	-0.763489
C122	C	0.887386	-0.369704	-0.722823
H123	H	0.896212	-0.255168	-0.787483
H124	H	0.955062	-0.260639	-0.735926
H125	H	0.951355	-0.341901	-0.794646
H126	H	0.861613	-0.329156	-0.691662
H127	H	0.857890	-0.410422	-0.750388
C128	C	0.849451	-0.309854	-0.976139
C129	C	0.887426	-0.369618	-0.930188
H130	H	0.820078	-0.263675	-0.952154
H131	H	0.878954	-0.269131	-1.003714
H132	H	0.823559	-0.356227	-1.003705
H133	H	0.913323	-0.323245	-0.902625
H134	H	0.857920	-0.410344	-0.902602
H135	H	0.899784	-0.388959	-1.068508
H136	H	0.236508	-0.636437	-0.404584
H137	H	0.236485	-0.389113	-0.247783
C138	C	0.966084	-1.053738	-0.505669
C139	C	1.013553	-1.089417	-0.458454
H140	H	0.977721	-1.079590	-0.549201
H141	H	0.922560	-1.079105	-0.493574
H142	H	0.965786	-0.978320	-0.506260
H143	H	1.013847	-1.164836	-0.457860
H144	H	1.057088	-1.064057	-0.470552
C145	C	1.136155	-0.632436	-1.061494
C146	C	1.069121	-0.655383	-1.078573
H147	H	1.165520	-0.678634	-1.085474
H148	H	1.146078	-0.560929	-1.073088
H149	H	1.142328	-0.642203	-1.014335
H150	H	1.062946	-0.645608	-1.125731
H151	H	1.059194	-0.726908	-1.066984
C152	C	0.328831	-0.309861	-0.197536
C153	C	0.374791	-0.369673	-0.235461
H154	H	0.352808	-0.263603	-0.168207
H155	H	0.301276	-0.269220	-0.227073
H156	H	0.301246	-0.356199	-0.171597
H157	H	0.402373	-0.323335	-0.261403
H158	H	0.402358	-0.410317	-0.205920
C159	C	1.112544	-0.595461	-0.763458
C160	C	1.069056	-0.655505	-0.722807
H161	H	1.141916	-0.641651	-0.787436
H162	H	1.086780	-0.554916	-0.794622
H163	H	1.138438	-0.549105	-0.735881
H164	H	1.043159	-0.701855	-0.750385
H165	H	1.094823	-0.696067	-0.691639
