data_functionalizedCrystal
_audit_creation_method	'MofGen! by Chris Wilmer'
_symmetry_space_group_name_H-M	'P1'
_symmetry_Int_Tables_number	1
_symmetry_cell_setting	triclinic
loop_
_symmetry_equiv_pos_as_xyz
  x,y,z
_cell_length_a	12.759401
_cell_length_b	16.625545
_cell_length_c	12.759393
_cell_angle_alpha	89.966096
_cell_angle_beta	89.980903
_cell_angle_gamma	90.025541
loop_
_atom_site_label
_atom_site_type_symbol
_atom_site_fract_x
_atom_site_fract_y
_atom_site_fract_z
Zn1	Zn	1.606176	-0.320954	-0.593981
Zn2	Zn	2.106176	0.179046	-0.093981
Zn3	Zn	1.606037	-0.455811	-0.418294
Zn4	Zn	2.106037	0.044189	0.081706
Zn5	Zn	1.430478	-0.320996	-0.418319
Zn6	Zn	1.930478	0.179004	0.081681
Zn7	Zn	1.430433	-0.455749	-0.593934
Zn8	Zn	1.930433	0.044251	-0.093934
O9	O	1.518281	-0.388378	-0.506132
O10	O	2.018281	0.111622	-0.006132
O11	O	1.753179	-0.338852	-0.570685
O12	O	2.253179	0.161148	-0.070685
O13	O	1.582709	-0.437971	-0.271276
O14	O	2.082709	0.062029	0.228724
O15	O	1.453862	-0.208158	-0.441651
O16	O	1.953862	0.291842	0.058349
O17	O	1.753077	-0.437931	-0.441609
O18	O	2.253077	0.062069	0.058391
O19	O	1.582946	-0.208128	-0.570709
O20	O	2.082946	0.291872	-0.070709
O21	O	1.453727	-0.338923	-0.271294
O22	O	1.953727	0.161077	0.228706
O23	O	1.283451	-0.338863	-0.441605
O24	O	1.783451	0.161137	0.058395
O25	O	1.453786	-0.437824	-0.740961
O26	O	1.953786	0.062176	-0.240961
O27	O	1.283418	-0.437865	-0.570628
O28	O	1.783418	0.062135	-0.070628
O29	O	1.582903	-0.338792	-0.740996
O30	O	2.082903	0.161208	-0.240996
O31	O	1.582666	-0.568635	-0.441563
O32	O	2.082666	-0.068635	0.058437
O33	O	1.453651	-0.568589	-0.570605
O34	O	1.953651	-0.068589	-0.070605
C35	C	1.245314	-0.388362	-0.506115
C36	C	1.745314	0.111638	-0.006115
C37	C	1.128537	-0.388375	-0.506132
C38	C	1.628537	0.111625	-0.006132
C39	C	1.518167	-0.597869	-0.506099
C40	C	2.018167	-0.097869	-0.006099
C41	C	1.518214	-0.687490	-0.506120
C42	C	2.018214	-0.187490	-0.006120
C43	C	0.963999	-0.336888	-0.573455
C44	C	1.463999	0.163112	-0.073455
C45	C	1.073723	-0.336877	-0.573446
C46	C	1.573723	0.163123	-0.073446
C47	C	1.073622	-0.439893	-0.438831
C48	C	1.573622	0.060107	0.061169
C49	C	0.963900	-0.439908	-0.438847
C50	C	1.463900	0.060092	0.061153
C51	C	0.909190	-0.285381	-0.640766
C52	C	1.409190	0.214619	-0.140766
C53	C	0.964097	-0.233864	-0.708068
C54	C	1.464097	0.266136	-0.208068
C55	C	1.073821	-0.233853	-0.708059
C56	C	1.573821	0.266147	-0.208059
C57	C	1.128638	-0.285359	-0.640747
C58	C	1.628638	0.214641	-0.140747
C59	C	1.518255	-0.760272	-0.506141
C60	C	2.018255	-0.260272	-0.006141
C61	C	1.518316	-0.851580	-0.506164
C62	C	2.018316	-0.351580	-0.006164
C63	C	1.518371	-0.924357	-0.506177
C64	C	2.018371	-0.424357	-0.006177
C65	C	1.518431	-1.015671	-0.506199
C66	C	2.018431	-0.515671	-0.006199
C67	C	1.792314	-0.388394	-0.506150
C68	C	2.292314	0.111606	-0.006150
C69	C	1.909091	-0.388401	-0.506157
C70	C	2.409091	0.111599	-0.006157
C71	C	1.518355	-0.388296	-0.780165
C72	C	2.018355	0.111704	-0.280165
C73	C	1.518386	-0.388262	-0.896942
C74	C	2.018386	0.111738	-0.396942
C75	C	1.518424	-0.178069	-0.506188
C76	C	2.018424	0.321931	-0.006188
C77	C	1.518485	-0.088448	-0.506212
C78	C	2.018485	0.411552	-0.006212
C79	C	1.585627	-0.336690	-0.951824
C80	C	2.085627	0.163310	-0.451824
C81	C	1.585652	-0.336661	-1.061548
C82	C	2.085652	0.163339	-0.561548
C83	C	1.451192	-0.439782	-1.061499
C84	C	1.951192	0.060218	-0.561499
C85	C	1.451163	-0.439806	-0.951777
C86	C	1.951163	0.060194	-0.451777
C87	C	1.652850	-0.285146	-0.896989
C88	C	2.152850	0.214854	-0.396989
C89	C	1.720097	-0.233571	-0.951871
C90	C	2.220097	0.266429	-0.451871
C91	C	1.720122	-0.233542	-1.061595
C92	C	2.220122	0.266458	-0.561595
C93	C	1.652900	-0.285088	-1.116438
C94	C	2.152900	0.214912	-0.616438
C95	C	1.518268	-0.388401	-0.233164
C96	C	2.018268	0.111599	0.266836
C97	C	1.518441	-0.388208	-0.116388
C98	C	2.018441	0.111792	0.383612
H99	H	0.819847	-0.285381	-0.640776
H100	H	1.319847	0.214619	-0.140776
O101	O	0.910691	-0.183862	-0.773356
O102	O	1.410691	0.316138	-0.273356
C103	C	0.802073	-0.194930	-0.758955
C104	C	1.302073	0.305070	-0.258955
H105	H	0.787041	-0.221266	-0.677816
H106	H	1.287041	0.278734	-0.177816
H107	H	0.760401	-0.134544	-0.766224
H108	H	1.260401	0.365456	-0.266224
H109	H	0.770946	-0.237927	-0.821177
H110	H	1.270946	0.262073	-0.321177
O111	O	1.127322	-0.183891	-0.773403
O112	O	1.627322	0.316109	-0.273403
C113	C	1.235920	-0.194907	-0.758944
C114	C	1.735920	0.305093	-0.258944
H115	H	1.250868	-0.257101	-0.724396
H116	H	1.750868	0.242899	-0.224396
H117	H	1.277655	-0.189500	-0.837649
H118	H	1.777655	0.310500	-0.337649
H119	H	1.267051	-0.147029	-0.703099
H120	H	1.767051	0.352971	-0.203099
O121	O	1.235224	-0.285347	-0.640548
O122	O	1.735224	0.214653	-0.140548
C123	C	1.271848	-0.264525	-0.539908
C124	C	1.771848	0.235475	-0.039908
H125	H	1.208588	-0.278253	-0.479365
H126	H	1.708588	0.221747	0.020635
H127	H	1.345232	-0.300868	-0.521143
H128	H	1.845232	0.199132	-0.021143
H129	H	1.291341	-0.197618	-0.537834
H130	H	1.791341	0.302382	-0.037834
H131	H	1.774870	-0.191541	-1.106277
H132	H	2.274870	0.308459	-0.606277
H133	H	1.118262	-0.481827	-0.384029
H134	H	1.618262	0.018173	0.115971
O135	O	0.910718	-0.489972	-0.373375
O136	O	1.410718	0.010028	0.126625
C137	C	0.982620	-0.535440	-0.313975
C138	C	1.482620	-0.035440	0.186025
H139	H	1.060844	-0.502402	-0.310393
H140	H	1.560844	-0.002402	0.189607
H141	H	0.950869	-0.543976	-0.231186
H142	H	1.450869	-0.043976	0.268814
H143	H	0.994287	-0.596708	-0.352312
H144	H	1.494287	-0.096708	0.147688
O145	O	1.652963	-0.285311	-0.790405
O146	O	2.152963	0.214689	-0.290405
C147	C	1.679870	-0.362612	-0.753762
C148	C	2.179870	0.137388	-0.253762
H149	H	1.725618	-0.395927	-0.817025
H150	H	2.225618	0.104073	-0.317025
H151	H	1.730284	-0.356877	-0.680396
H152	H	2.230284	0.143123	-0.180396
H153	H	1.605468	-0.397541	-0.734234
H154	H	2.105468	0.102459	-0.234234
H155	H	1.774820	-0.191600	-0.907212
H156	H	2.274820	0.308400	-0.407212
H157	H	1.396463	-0.481747	-1.106160
H158	H	1.896463	0.018253	-0.606160
O159	O	1.653090	-0.284984	-1.223024
O160	O	2.153090	0.215016	-0.723024
C161	C	1.726832	-0.228396	-1.259709
C162	C	2.226832	0.271604	-0.759709
H163	H	1.788204	-0.217121	-1.196486
H164	H	2.288204	0.282879	-0.696486
H165	H	1.766703	-0.252713	-1.333106
H166	H	2.266703	0.247287	-0.833106
H167	H	1.685219	-0.169596	-1.279200
H168	H	2.185219	0.330404	-0.779200
O169	O	1.385835	-0.489994	-0.898620
O170	O	1.885835	0.010006	-0.398620
C171	C	1.326508	-0.535483	-0.970544
C172	C	1.826508	-0.035483	-0.470544
H173	H	1.369547	-0.538244	-1.048767
H174	H	1.869547	-0.038244	-0.548767
H175	H	1.315280	-0.599022	-0.938821
H176	H	1.815280	-0.099022	-0.438821
H177	H	1.246724	-0.505967	-0.982201
H178	H	1.746724	-0.005967	-0.482201
