data_functionalizedCrystal
_audit_creation_method	'MofGen! by Chris Wilmer'
_symmetry_space_group_name_H-M	'P1'
_symmetry_Int_Tables_number	1
_symmetry_cell_setting	triclinic
loop_
_symmetry_equiv_pos_as_xyz
  x,y,z
_cell_length_a	21.606444
_cell_length_b	21.606444
_cell_length_c	21.606444
_cell_angle_alpha	89.998123
_cell_angle_beta	59.998557
_cell_angle_gamma	60.011779
loop_
_atom_site_label
_atom_site_type_symbol
_atom_site_fract_x
_atom_site_fract_y
_atom_site_fract_z
Zr1	Zr	0.677372	0.596388	-0.081189
O2	O	0.806469	0.497598	-0.180001
O3	O	0.548274	0.626650	-0.050905
O4	O	0.677376	0.626683	-0.180016
O5	O	0.677365	0.497564	0.050963
O6	O	0.677380	0.728533	-0.180020
O7	O	0.677367	0.497565	-0.050890
O8	O	0.446441	0.728475	0.050936
O9	O	0.908304	0.497623	-0.179993
O10	O	0.601378	0.715593	-0.037983
O11	O	0.601373	0.639583	0.038031
O12	O	0.753373	0.639621	-0.113980
O13	O	0.753368	0.563612	-0.037966
Zr14	Zr	0.677375	0.758825	0.081249
Zr15	Zr	0.677379	0.758826	-0.081195
Zr16	Zr	0.677368	0.596387	0.081255
Zr17	Zr	0.839788	0.596428	-0.081176
Zr18	Zr	0.514960	0.758786	0.081236
O19	O	0.806473	0.728563	0.050965
O20	O	0.806479	0.728564	-0.180009
O21	O	0.806463	0.497596	0.050974
O22	O	0.548278	0.857616	0.180061
O23	O	0.548284	0.857617	-0.050913
O24	O	0.548268	0.626649	0.180069
O25	O	0.677383	0.857649	-0.050903
O26	O	0.677372	0.728530	0.180076
O27	O	0.677367	0.626681	0.180080
O28	O	0.677380	0.857648	0.050950
O29	O	0.908310	0.626740	-0.179997
O30	O	0.446438	0.728474	0.180058
O31	O	0.446443	0.857591	0.180053
O32	O	0.446446	0.857592	0.050932
O33	O	0.908301	0.497622	-0.050871
O34	O	0.908307	0.626739	-0.050876
O35	O	0.601374	0.715592	0.114040
O36	O	0.601379	0.791602	0.038026
O37	O	0.753375	0.715630	-0.037971
O38	O	0.753370	0.639620	0.038044
C39	C	0.474217	0.677557	0.000014
C40	C	0.405267	0.677540	0.000008
C41	C	-0.074200	0.733760	0.056157
C42	C	-0.009392	0.733744	0.056149
C43	C	0.079096	0.677637	0.000039
C44	C	0.102776	0.621548	-0.056071
C45	C	0.037969	0.621568	-0.056066
C46	C	0.364139	0.621467	-0.056094
C47	C	0.428947	0.621450	-0.056094
C48	C	0.316778	0.733642	0.056121
C49	C	0.251971	0.733662	0.056126
C50	C	0.275656	0.677576	0.000014
C51	C	0.205383	0.677595	0.000022
C52	C	0.149368	0.677614	0.000033
C53	C	0.677365	0.474421	0.000037
C54	C	0.677362	0.405461	0.000040
C55	C	0.598022	0.412718	0.039707
C56	C	0.598025	0.347921	0.039708
C57	C	0.677368	0.275867	0.000036
C58	C	0.756713	0.268612	-0.039632
C59	C	0.756710	0.333408	-0.039627
C60	C	0.756729	0.007294	-0.039649
C61	C	0.756726	-0.057504	-0.039652
C62	C	0.598043	0.021806	0.039686
C63	C	0.598040	0.086603	0.039691
C64	C	0.677385	0.079342	0.000026
C65	C	0.677382	0.149603	0.000027
C66	C	0.677372	0.205607	0.000031
C67	C	0.880531	0.677657	0.000046
C68	C	0.949480	0.677673	0.000052
C69	C	0.677379	0.677608	-0.203163
C70	C	0.677380	0.677608	-0.272124
C71	C	0.677382	0.880793	0.000023
C72	C	0.677385	0.949752	0.000020
C73	C	0.677384	0.733718	-0.304525
C74	C	0.677378	0.733720	-0.369318
C75	C	0.677374	0.677609	-0.401712
C76	C	0.677367	0.621496	-0.369306
C77	C	0.677367	0.621498	-0.304511
C78	C	0.677367	0.621490	-0.630616
C79	C	0.677369	0.621492	-0.695417
C80	C	0.677377	0.733712	-0.695423
C81	C	0.677377	0.733714	-0.630628
C82	C	0.677366	0.677604	-0.598225
C83	C	0.677371	0.677603	-0.527968
C84	C	0.677375	0.677606	-0.471971
C85	C	0.677369	0.677605	0.203223
C86	C	0.677367	0.677605	0.272185
C87	C	0.474225	0.880743	0.000006
C88	C	0.405279	0.949685	-0.000002
C89	C	0.474212	0.677556	0.203206
C90	C	0.405260	0.677538	0.272163
C91	C	0.474220	0.880741	0.203199
C92	C	0.405272	0.949684	0.272153
C93	C	0.880527	0.474472	-0.203139
C94	C	0.949475	0.405530	-0.272092
C95	C	0.880522	0.474471	0.000054
C96	C	0.949469	0.405528	0.000062
C97	C	0.880536	0.677658	-0.203146
C98	C	0.949487	0.677675	-0.272102
C99	C	0.372900	0.942385	-0.039688
C100	C	0.308126	1.007158	-0.039711
C101	C	0.275728	1.079230	-0.000042
C102	C	0.308113	1.086528	0.039645
C103	C	0.372890	1.021756	0.039663
C104	C	0.372881	0.717206	0.344228
C105	C	0.308103	0.717187	0.409026
C106	C	0.275701	0.677504	0.401757
C107	C	0.308087	0.637831	0.329684
C108	C	0.372868	0.637846	0.264887
C109	C	0.372896	1.021743	0.264855
C110	C	0.308121	1.086527	0.329638
C111	C	0.275718	1.079251	0.401718
C112	C	0.308101	1.007184	0.409014
C113	C	0.372879	0.942401	0.344232
C114	C	0.981859	0.333471	-0.264795
C115	C	1.046655	0.268686	-0.329578
C116	C	1.079060	0.275962	-0.401658
C117	C	1.046674	0.348029	-0.408954
C118	C	0.981884	0.412812	-0.344172
C119	C	0.981854	0.412828	0.039742
C120	C	1.046646	0.348055	0.039747
C121	C	1.079047	0.275984	0.000076
C122	C	1.046658	0.268685	-0.039609
C123	C	0.981872	0.333457	-0.039618
C124	C	0.981868	0.717366	-0.264809
C125	C	1.046647	0.717397	-0.329594
C126	C	1.079047	0.677732	-0.401672
C127	C	1.046660	0.638041	-0.408964
C128	C	0.981878	0.638014	-0.344180
H129	H	0.501002	0.575756	-0.101786
Br130	Br	0.937899	0.510631	0.093585
Br131	Br	0.864389	0.323558	-0.093457
Br132	Br	1.090586	0.357978	0.093610
H133	H	0.399245	1.027710	0.071985
Br134	Br	1.166972	0.188086	0.000095
H135	H	0.281709	1.001271	0.467710
H136	H	0.533412	0.471385	0.072015
Br137	Br	-0.041535	0.809863	0.132296
H138	H	0.057256	0.575898	-0.101754
H139	H	1.073049	0.209996	-0.071908
H140	H	0.955506	0.327503	-0.071928
Br141	Br	1.090660	0.357891	-0.506783
Br142	Br	0.937911	0.771202	-0.166997
H143	H	0.677383	0.779402	-0.721810
H144	H	0.677385	0.779402	-0.604256
H145	H	1.073050	0.605747	-0.467659
H146	H	1.073010	0.749717	-0.323642
Br147	Br	0.677365	0.545335	-0.739382
H148	H	0.821340	-0.116175	-0.071958
Br149	Br	0.416836	0.771072	0.354114
H150	H	0.297498	0.779313	0.101808
H151	H	0.281725	1.145217	0.071942
H152	H	0.955517	0.471484	-0.350122
H153	H	0.677359	0.575812	-0.395683
H154	H	1.073013	0.210013	-0.323623
Br155	Br	1.166968	0.677775	-0.489588
Br156	Br	0.396292	0.545344	-0.132242
Br157	Br	0.490357	0.184389	0.093527
Br158	Br	0.937947	0.584136	-0.354092
H159	H	0.955478	0.327532	-0.206110
H160	H	0.281742	0.749495	0.467704
Br161	Br	0.416861	1.031638	0.167041
Br162	Br	-0.194289	0.809904	0.132315
H163	H	0.399232	0.883730	0.350184
H164	H	0.222971	1.132008	0.454462
H165	H	1.131816	0.223206	-0.454402
Br166	Br	0.222868	0.545406	-0.132225
H167	H	0.222981	1.131965	-0.000062
Br168	Br	0.677399	0.809869	-0.260572
Br169	Br	0.264185	1.184322	0.319719
H170	H	0.821336	0.001372	-0.071960
Br171	Br	0.677379	0.809872	-0.413289
Br172	Br	0.131880	0.809805	0.132282
H173	H	0.533419	0.353837	0.072009
H174	H	0.821316	0.209940	-0.071928
Br175	Br	0.490358	0.031659	0.093520
H176	H	0.677362	0.575809	-0.278131
Br177	Br	0.677354	0.545342	-0.586646
H178	H	0.399278	0.883707	-0.072001
Br179	Br	0.264186	0.997235	-0.093575
H180	H	0.281696	0.605523	0.323776
H181	H	0.222952	0.677498	0.454524
Br182	Br	0.416801	0.584009	0.167087
