data_functionalizedCrystal
_audit_creation_method	'MofGen! by Chris Wilmer'
_symmetry_space_group_name_H-M	'P1'
_symmetry_Int_Tables_number	1
_symmetry_cell_setting	triclinic
loop_
_symmetry_equiv_pos_as_xyz
  x,y,z
_cell_length_a	12.594517
_cell_length_b	16.625546
_cell_length_c	12.594509
_cell_angle_alpha	90.033269
_cell_angle_beta	89.978673
_cell_angle_gamma	89.977732
loop_
_atom_site_label
_atom_site_type_symbol
_atom_site_fract_x
_atom_site_fract_y
_atom_site_fract_z
Zn1	Zn	1.627220	0.320982	-0.601823
Zn2	Zn	1.960553	0.654315	-0.268489
Zn3	Zn	2.293886	0.987648	0.064844
Zn4	Zn	1.627090	0.455832	-0.423829
Zn5	Zn	1.960424	0.789165	-0.090495
Zn6	Zn	2.293757	1.122498	0.242838
Zn7	Zn	1.449223	0.321016	-0.423852
Zn8	Zn	1.782557	0.654349	-0.090518
Zn9	Zn	2.115890	0.987683	0.242815
Zn10	Zn	1.449186	0.455775	-0.601759
Zn11	Zn	1.782519	0.789109	-0.268425
Zn12	Zn	2.115852	1.122442	0.064908
O13	O	1.538180	0.388401	-0.512815
O14	O	1.871513	0.721735	-0.179482
O15	O	2.204846	1.055068	0.153851
O16	O	1.776148	0.338879	-0.578229
O17	O	2.109481	0.672212	-0.244895
O18	O	2.442815	1.005545	0.088438
O19	O	1.603458	0.437986	-0.274886
O20	O	1.936791	0.771319	0.058448
O21	O	2.270124	1.104653	0.391781
O22	O	1.472905	0.208179	-0.447496
O23	O	1.806238	0.541512	-0.114163
O24	O	2.139571	0.874846	0.219170
O25	O	1.776053	0.437952	-0.447457
O26	O	2.109387	0.771286	-0.114124
O27	O	2.442720	1.104619	0.219210
O28	O	1.603678	0.208154	-0.578251
O29	O	1.937011	0.541487	-0.244918
O30	O	2.270344	0.874820	0.088416
O31	O	1.472780	0.338938	-0.274903
O32	O	1.806113	0.672271	0.058431
O33	O	2.139446	1.005604	0.391764
O34	O	1.300273	0.338883	-0.447434
O35	O	1.633606	0.672217	-0.114101
O36	O	1.966939	1.005550	0.219233
O37	O	1.472840	0.437857	-0.750713
O38	O	1.806174	0.771190	-0.417380
O39	O	2.139507	1.104524	-0.084046
O40	O	1.300245	0.437890	-0.578142
O41	O	1.633578	0.771224	-0.244808
O42	O	1.966912	1.104557	0.088525
O43	O	1.603641	0.338824	-0.750760
O44	O	1.936975	0.672158	-0.417427
O45	O	2.270308	1.005491	-0.084093
O46	O	1.603421	0.568656	-0.447395
O47	O	1.936754	0.901990	-0.114062
O48	O	2.270088	1.235323	0.219272
O49	O	1.472715	0.568615	-0.578119
O50	O	1.806049	0.901949	-0.244786
O51	O	2.139382	1.235282	0.088547
C52	C	1.261639	0.388385	-0.512784
C53	C	1.594972	0.721718	-0.179451
C54	C	1.928305	1.055052	0.153883
C55	C	1.143333	0.388398	-0.512796
C56	C	1.476667	0.721731	-0.179463
C57	C	1.810000	1.055064	0.153871
C58	C	1.538079	0.597892	-0.512771
C59	C	1.871412	0.931225	-0.179438
C60	C	2.204746	1.264559	0.153896
C61	C	1.538133	0.687513	-0.512787
C62	C	1.871467	1.020846	-0.179454
C63	C	2.204800	1.354180	0.153879
C64	C	1.538251	0.388331	-0.790436
C65	C	1.871584	0.721664	-0.457103
C66	C	2.204918	1.054997	-0.123770
C67	C	1.538281	0.388300	-0.908742
C68	C	1.871615	0.721634	-0.575409
C69	C	2.204948	1.054967	-0.242075
C70	C	1.074064	0.334474	-0.441840
C71	C	1.407398	0.667807	-0.108506
C72	C	1.740731	1.001141	0.224827
C73	C	1.003243	0.408023	-0.415651
C74	C	1.336576	0.741356	-0.082318
C75	C	1.669909	1.074689	0.251015
C76	C	1.003356	0.314885	-0.539003
C77	C	1.336690	0.648218	-0.205669
C78	C	1.670023	0.981552	0.127664
C79	C	1.074070	0.461985	-0.486557
C80	C	1.407403	0.795318	-0.153223
C81	C	1.740736	1.128651	0.180110
C82	C	1.074190	0.368797	-0.609953
C83	C	1.407523	0.702131	-0.276620
C84	C	1.740856	1.035464	0.056713
C85	C	1.003400	0.442397	-0.583802
C86	C	1.336733	0.775730	-0.250468
C87	C	1.670066	1.109064	0.082865
C88	C	1.815801	0.388418	-0.512847
C89	C	2.149134	0.721751	-0.179514
C90	C	2.482467	1.055085	0.153819
C91	C	1.934106	0.388425	-0.512861
C92	C	2.267439	0.721758	-0.179528
C93	C	2.600773	1.055092	0.153806
C94	C	1.538310	0.178092	-0.512883
C95	C	1.871643	0.511426	-0.179550
C96	C	2.204977	0.844759	0.153783
C97	C	1.538365	0.088471	-0.512912
C98	C	1.871699	0.421804	-0.179579
C99	C	2.205032	0.755138	0.153754
C100	C	1.538319	1.015689	-0.512898
C101	C	1.871652	1.349022	-0.179565
C102	C	2.204986	1.682355	0.153768
C103	C	1.538264	0.924380	-0.512870
C104	C	1.871597	1.257714	-0.179537
C105	C	2.204931	1.591047	0.153796
C106	C	1.538225	0.851604	-0.512842
C107	C	1.871559	1.184937	-0.179509
C108	C	2.204892	1.518271	0.153824
C109	C	1.538172	0.760290	-0.512815
C110	C	1.871505	1.093623	-0.179482
C111	C	2.204839	1.426956	0.153851
C112	C	1.467161	0.442134	-0.977970
C113	C	1.800495	0.775467	-0.644636
C114	C	2.133828	1.108800	-0.311303
C115	C	1.564279	0.461835	-1.048758
C116	C	1.897612	0.795168	-0.715424
C117	C	2.230946	1.128501	-0.382091
C118	C	1.441240	0.368551	-1.048753
C119	C	1.774573	0.701884	-0.715420
C120	C	2.107906	1.035217	-0.382086
C121	C	1.635450	0.408040	-0.977972
C122	C	1.968783	0.741373	-0.644639
C123	C	2.302117	1.074707	-0.311305
C124	C	1.512345	0.314722	-0.977961
C125	C	1.845678	0.648055	-0.644628
C126	C	2.179012	0.981389	-0.311294
C127	C	1.609530	0.334395	-1.048717
C128	C	1.942863	0.667728	-0.715384
C129	C	2.276196	1.001062	-0.382051
C130	C	1.538170	0.388413	-0.236274
C131	C	1.871503	0.721747	0.097059
C132	C	2.204837	1.055080	0.430392
C133	C	1.538346	0.388216	-0.117970
C134	C	1.871679	0.721550	0.215364
C135	C	2.205013	1.054883	0.548697
H136	H	1.105092	0.288917	-0.381760
H137	H	1.438425	0.622251	-0.048427
H138	H	1.771759	0.955584	0.284906
H139	H	1.717568	0.424780	-0.947011
H140	H	2.050901	0.758113	-0.613678
H141	H	2.384234	1.091446	-0.280344
N142	N	1.115034	0.544370	-0.457086
N143	N	1.448367	0.877703	-0.123753
N144	N	1.781701	1.211037	0.209580
H145	H	1.053141	0.581693	-0.443800
H146	H	1.386474	0.915026	-0.110466
H147	H	1.719808	1.248360	0.222867
H148	H	1.159788	0.566168	-0.517074
H149	H	1.493122	0.899502	-0.183741
H150	H	1.826455	1.232835	0.149593
H151	H	0.972567	0.488063	-0.643835
H152	H	1.305901	0.821396	-0.310501
H153	H	1.639234	1.154729	0.022832
H154	H	1.586251	0.524022	-1.079855
H155	H	1.919585	0.857356	-0.746522
H156	H	2.252918	1.190689	-0.413189
H157	H	1.359146	0.351882	-1.079845
H158	H	1.692479	0.685215	-0.746512
H159	H	2.025812	1.018548	-0.413178
H160	H	1.490344	0.252552	-0.946840
H161	H	1.823678	0.585886	-0.613506
H162	H	2.157011	0.919219	-0.280173
N163	N	0.961962	0.430013	-0.306858
N164	N	1.295296	0.763346	0.026475
N165	N	1.628629	1.096679	0.359808
H166	H	0.987155	0.388983	-0.253384
H167	H	1.320488	0.722317	0.079950
H168	H	1.653821	1.055650	0.413283
H169	H	0.881789	0.430838	-0.308116
H170	H	1.215123	0.764171	0.025217
H171	H	1.548456	1.097505	0.358550
N172	N	1.115500	0.346795	-0.718723
N173	N	1.448833	0.680128	-0.385389
N174	N	1.782167	1.013461	-0.052056
H175	H	1.089824	0.291214	-0.738433
H176	H	1.423157	0.624548	-0.405099
H177	H	1.756490	0.957881	-0.071766
H178	H	1.195680	0.347515	-0.717979
H179	H	1.529014	0.680848	-0.384645
H180	H	1.862347	1.014182	-0.051312
H181	H	0.972239	0.252713	-0.561104
H182	H	1.305572	0.586046	-0.227771
H183	H	1.638905	0.919380	0.105562
H184	H	1.407064	0.487729	-0.946907
H185	H	1.740398	0.821063	-0.613573
H186	H	2.073731	1.154396	-0.280240
N187	N	1.689324	0.274053	-1.089626
N188	N	2.022657	0.607387	-0.756293
N189	N	2.355990	0.940720	-0.422959
H190	H	1.670378	0.218665	-1.062735
H191	H	2.003711	0.551998	-0.729402
H192	H	2.337044	0.885332	-0.396068
H193	H	1.762551	0.289120	-1.063728
H194	H	2.095885	0.622453	-0.730394
H195	H	2.429218	0.955786	-0.397061
