data_functionalizedCrystal
_audit_creation_method	'MofGen! by Chris Wilmer'
_symmetry_space_group_name_H-M	'P1'
_symmetry_Int_Tables_number	1
_symmetry_cell_setting	triclinic
loop_
_symmetry_equiv_pos_as_xyz
  x,y,z
_cell_length_a	17.038278
_cell_length_b	17.038272
_cell_length_c	12.996460
_cell_angle_alpha	89.993697
_cell_angle_beta	89.994454
_cell_angle_gamma	91.111028
loop_
_atom_site_label
_atom_site_type_symbol
_atom_site_fract_x
_atom_site_fract_y
_atom_site_fract_z
O1	O	1.048755	0.170529	-0.085577
O2	O	1.548755	0.670529	0.414423
O3	O	0.820944	0.167823	-0.085577
O4	O	1.320944	0.667823	0.414423
O5	O	0.933495	0.055270	-0.085569
O6	O	1.433495	0.555270	0.414431
O7	O	0.936203	0.283082	-0.085585
O8	O	1.436203	0.783082	0.414415
O9	O	0.933482	0.055262	0.085565
O10	O	1.433482	0.555262	0.585565
O11	O	0.820931	0.167815	0.085557
O12	O	1.320931	0.667815	0.585557
O13	O	1.048742	0.170521	0.085557
O14	O	1.548742	0.670521	0.585557
Cu15	Cu	0.934835	0.169168	0.101183
Cu16	Cu	1.434835	0.669168	0.601183
Cu17	Cu	0.934851	0.169176	-0.101203
Cu18	Cu	1.434851	0.669176	0.398797
O19	O	0.936190	0.283074	0.085549
O20	O	1.436190	0.783074	0.585549
C21	C	0.791645	0.165356	-0.000010
C22	C	1.291645	0.665356	0.499990
C23	C	0.704361	0.158009	-0.000010
C24	C	1.204361	0.658009	0.499990
C25	C	0.210935	0.112872	-0.000011
C26	C	0.710935	0.612872	0.499989
C27	C	0.292947	0.119781	-0.000005
C28	C	0.792947	0.619781	0.499995
C29	C	0.329347	0.194155	-0.000015
C30	C	0.829347	0.694155	0.499985
C31	C	0.283730	0.261623	-0.000020
C32	C	0.783730	0.761623	0.499980
C33	C	0.201720	0.254713	-0.000019
C34	C	0.701720	0.754713	0.499981
C35	C	0.576734	0.218567	-0.000014
C36	C	1.076734	0.718567	0.499986
C37	C	0.658751	0.225473	-0.000018
C38	C	1.158751	0.725473	0.499982
C39	C	0.667962	0.083630	-0.000001
C40	C	1.167962	0.583630	0.499999
C41	C	0.585949	0.076726	-0.000006
C42	C	1.085949	0.576726	0.499994
C43	C	0.540340	0.144194	-0.000006
C44	C	1.040340	0.644194	0.499994
C45	C	0.413176	0.201219	-0.000012
C46	C	0.913176	0.701219	0.499988
C47	C	0.456513	0.137129	-0.000001
C48	C	0.956513	0.637129	0.499999
C49	C	0.931026	0.025974	-0.000002
C50	C	1.431026	0.525974	0.499998
C51	C	0.923678	-0.061310	-0.000002
C52	C	1.423678	0.438690	0.499998
C53	C	0.991142	-0.106920	-0.000001
C54	C	1.491142	0.393080	0.499999
C55	C	0.984233	-0.188932	-0.000011
C56	C	1.484233	0.311068	0.499989
C57	C	0.909859	-0.225332	-0.000015
C58	C	1.409859	0.274668	0.499985
C59	C	0.842391	-0.179716	-0.000019
C60	C	1.342391	0.320284	0.499981
C61	C	0.849300	-0.097706	-0.000016
C62	C	1.349300	0.402294	0.499984
C63	C	0.885449	-0.472720	-0.000029
C64	C	1.385449	0.027280	0.499971
C65	C	0.878544	-0.554736	-0.000028
C66	C	1.378544	-0.054736	0.499972
C67	C	1.020387	-0.563946	-0.000022
C68	C	1.520387	-0.063946	0.499978
C69	C	1.027290	-0.481934	-0.000014
C70	C	1.527290	0.018066	0.499986
C71	C	0.959821	-0.436325	-0.000023
C72	C	1.459821	0.063675	0.499977
C73	C	0.902796	-0.309161	-0.000021
C74	C	1.402796	0.190839	0.499979
C75	C	0.966886	-0.352497	-0.000024
C76	C	1.466886	0.147503	0.499976
C77	C	1.078041	0.172988	-0.000012
C78	C	1.578041	0.672988	0.499988
C79	C	1.165325	0.180335	-0.000019
C80	C	1.665325	0.680335	0.499981
C81	C	0.938660	0.312370	-0.000020
C82	C	1.438660	0.812370	0.499980
C83	C	0.946008	0.399654	-0.000027
C84	C	1.446008	0.899654	0.499973
N85	N	0.934830	0.169161	0.243530
N86	N	1.434830	0.669161	0.743530
N87	N	0.934862	0.169177	-0.243550
N88	N	1.434862	0.669177	0.256450
C89	C	0.934850	0.169177	0.663344
C90	C	1.434850	0.669177	1.163344
C91	C	0.934842	0.169175	0.546539
C92	C	1.434842	0.669175	1.046539
C93	C	0.934840	0.169170	0.453441
C94	C	1.434840	0.669170	0.953441
C95	C	0.934832	0.169167	0.336628
C96	C	1.434832	0.669167	0.836628
H97	H	0.688384	0.286039	-0.000012
H98	H	1.188384	0.786039	0.499988
H99	H	0.181305	0.052309	-0.000009
H100	H	0.681305	0.552309	0.499991
H101	H	0.330080	0.064845	0.000006
H102	H	0.830080	0.564845	0.500006
H103	H	0.830511	-0.435595	-0.000036
H104	H	1.330511	0.064405	0.499964
H105	H	0.313374	0.322180	-0.000022
H106	H	0.813374	0.822180	0.499978
Cl107	Cl	1.069049	-0.246267	-0.000006
Cl108	Cl	1.569049	0.253733	0.499994
H109	H	0.442822	0.261775	-0.000024
H110	H	0.942822	0.761775	0.499976
H111	H	0.539609	0.273505	-0.000019
H112	H	1.039609	0.773505	0.499981
H113	H	0.781834	-0.209360	-0.000028
H114	H	1.281834	0.290640	0.499972
H115	H	0.164585	0.309649	-0.000022
H116	H	0.664585	0.809649	0.499978
Cl117	Cl	0.809300	-0.354929	-0.000031
Cl118	Cl	1.309300	0.145071	0.499969
H119	H	0.794364	-0.060571	-0.000018
H120	H	1.294364	0.439429	0.499982
Cl121	Cl	0.410751	0.043634	0.000016
Cl122	Cl	0.910751	0.543634	0.500016
Cl123	Cl	1.105199	-0.621287	-0.000013
Cl124	Cl	1.605199	-0.121287	0.499987
H125	H	1.051704	-0.077289	0.000008
H126	H	1.551704	0.422711	0.500008
H127	H	1.087852	-0.452303	-0.000010
H128	H	1.587852	0.047697	0.499990
H129	H	0.556319	0.016163	0.000002
H130	H	1.056319	0.516163	0.500002
Cl131	Cl	1.060380	-0.306735	-0.000025
Cl132	Cl	1.560380	0.193265	0.499975
H133	H	0.817978	-0.584370	-0.000014
H134	H	1.317978	-0.084370	0.499986
H135	H	0.705105	0.028701	-0.000000
H136	H	1.205105	0.528701	0.500000
