data_functionalizedCrystal
_audit_creation_method	'MofGen! by Chris Wilmer'
_symmetry_space_group_name_H-M	'P1'
_symmetry_Int_Tables_number	1
_symmetry_cell_setting	triclinic
loop_
_symmetry_equiv_pos_as_xyz
  x,y,z
_cell_length_a	14.971490
_cell_length_b	14.421503
_cell_length_c	14.971486
_cell_angle_alpha	89.995913
_cell_angle_beta	96.385112
_cell_angle_gamma	89.990024
loop_
_atom_site_label
_atom_site_type_symbol
_atom_site_fract_x
_atom_site_fract_y
_atom_site_fract_z
O1	O	-1.186948	0.077162	0.116566
O2	O	-0.926548	0.077153	0.130522
O3	O	-1.063728	0.077151	-0.006656
O4	O	-1.049769	0.077164	0.253744
O5	O	-1.063705	-0.077072	-0.006636
O6	O	-0.926526	-0.077070	0.130542
O7	O	-1.186925	-0.077061	0.116587
Cu8	Cu	-1.056723	-0.091148	0.123566
Cu9	Cu	-1.056750	0.091240	0.123542
O10	O	-1.049746	-0.077059	0.253764
C11	C	-0.893212	0.000040	0.129907
C12	C	-0.793915	0.000037	0.128035
C13	C	-0.366222	0.084121	0.119946
C14	C	-0.459522	0.084119	0.121702
C15	C	-0.506156	0.000049	0.122597
C16	C	-0.459485	-0.084024	0.121727
C17	C	-0.366187	-0.084021	0.119964
C18	C	-0.653947	-0.084026	0.125403
C19	C	-0.747251	-0.084030	0.127167
C20	C	-0.747282	0.084113	0.127141
C21	C	-0.653984	0.084117	0.125378
C22	C	-0.607320	0.000044	0.124510
N23	N	-1.056711	-0.219429	0.123583
C24	C	-0.993268	-0.469082	0.186985
C25	C	-1.074110	-0.530880	0.204433
C26	C	-1.056733	-0.408590	0.123561
C27	C	-0.975912	-0.530885	0.106134
C28	C	-1.056747	-0.591312	0.123543
C29	C	-1.137615	-0.469028	0.141050
C30	C	-1.039364	-0.469028	0.042715
C31	C	-1.120264	-0.530799	0.060129
C32	C	-1.056724	-0.303329	0.123574
C33	C	-1.056765	-0.696571	0.123529
C34	C	-0.220261	0.000052	0.117202
C35	C	-0.319558	0.000055	0.119078
C36	C	-1.063092	0.000040	-0.039971
C37	C	-1.061221	0.000041	-0.139268
N38	N	-1.056770	0.219521	0.123518
C39	C	-1.141810	0.000043	-0.196492
C40	C	-1.140047	0.000052	-0.289791
C41	C	-1.057694	0.000053	-0.325865
C42	C	-0.977099	0.000053	-0.268633
C43	C	-0.978863	0.000051	-0.175336
C44	C	-0.973428	0.000056	-0.463096
C45	C	-0.971663	0.000057	-0.556400
C46	C	-1.134612	0.000058	-0.577552
C47	C	-1.136376	0.000055	-0.484254
C48	C	-1.055780	0.000054	-0.427029
C49	C	-1.050382	0.000054	0.287079
C50	C	-1.052252	0.000060	0.386376
H51	H	-0.785217	-0.152487	0.127901
H52	H	-0.328193	-0.152476	0.119267
N53	N	-0.507099	-0.169909	0.122670
N54	N	-0.465418	-0.244963	0.121910
H55	H	-0.499042	-0.305622	0.122587
N56	N	-1.187683	-0.564589	-0.007155
N57	N	-1.249514	-0.615133	0.014666
H58	H	-1.297132	-0.638999	-0.032849
H59	H	-1.205984	-0.441971	0.155863
H60	H	-1.200236	0.000062	-0.624149
N61	N	-0.606294	-0.169912	0.124509
N62	N	-0.647938	-0.244969	0.125310
H63	H	-0.614283	-0.305626	0.124682
H64	H	-0.907558	-0.558059	0.091402
H65	H	-0.939653	-0.441983	0.240663
H66	H	-0.907798	0.000058	-0.416505
H67	H	-1.208872	0.000037	-0.167129
N68	N	-0.896542	0.000027	-0.116881
N69	N	-0.879334	-0.064985	-0.062457
H70	H	-0.821192	-0.064999	-0.021174
N71	N	-1.092543	-0.564988	0.290185
N72	N	-1.096152	-0.650373	0.303682
H73	H	-1.109163	-0.674461	0.364246
N74	N	-0.606360	0.169999	0.124478
N75	N	-0.648031	0.245056	0.125255
H76	H	-0.614397	0.305713	0.124619
H77	H	-0.904604	0.000043	-0.585767
H78	H	-1.024636	-0.441838	-0.025624
H79	H	-1.203435	0.000048	-0.454886
H80	H	-0.910045	0.000059	-0.298012
H81	H	-0.328259	0.152581	0.119223
N82	N	-0.794932	0.170002	0.128013
N83	N	-0.753284	0.245058	0.127216
H84	H	-0.786938	0.305716	0.127834
N85	N	-1.222378	0.000041	-0.348227
N86	N	-1.277111	-0.064972	-0.344880
H87	H	-1.335263	-0.064979	-0.386149
N88	N	-0.507175	0.169999	0.122583
N89	N	-0.465528	0.245055	0.121787
H90	H	-0.499182	0.305713	0.122408
