data_functionalizedCrystal
_audit_creation_method	'MofGen! by Chris Wilmer'
_symmetry_space_group_name_H-M	'P1'
_symmetry_Int_Tables_number	1
_symmetry_cell_setting	triclinic
loop_
_symmetry_equiv_pos_as_xyz
  x,y,z
_cell_length_a	14.446369
_cell_length_b	17.917603
_cell_length_c	17.917559
_cell_angle_alpha	60.139256
_cell_angle_beta	90.003555
_cell_angle_gamma	63.032965
loop_
_atom_site_label
_atom_site_type_symbol
_atom_site_fract_x
_atom_site_fract_y
_atom_site_fract_z
Zr1	Zr	0.944586	0.806815	-0.129030
O2	O	0.811761	0.951850	-0.249569
O3	O	0.978956	0.654586	-0.087378
O4	O	0.995728	0.796434	-0.242784
O5	O	0.788981	0.820699	0.023078
O6	O	1.148064	0.796427	-0.242780
O7	O	0.794990	0.810002	-0.094162
O8	O	1.118064	0.542688	0.035214
O9	O	0.818982	1.074438	-0.254916
O10	O	1.114971	0.719859	-0.075289
O11	O	0.996800	0.727847	0.012202
O12	O	1.016546	0.894854	-0.170769
O13	O	0.898374	0.902842	-0.083277
Zr14	Zr	1.177962	0.823865	0.057962
Zr15	Zr	1.187545	0.806804	-0.129023
Zr16	Zr	0.935003	0.823875	0.057955
Zr17	Zr	0.956102	1.002329	-0.137558
Zr18	Zr	1.166446	0.628350	0.066490
O19	O	1.143592	0.976093	0.016310
O20	O	1.157218	0.951835	-0.249558
O21	O	0.798135	0.976107	0.016300
O22	O	1.310787	0.678830	0.178501
O23	O	1.324413	0.654572	-0.087368
O24	O	0.965330	0.678844	0.178490
O25	O	1.333567	0.809980	-0.094146
O26	O	1.126821	0.834246	0.171716
O27	O	0.974484	0.834252	0.171712
O28	O	1.327558	0.820677	0.023094
O29	O	1.012102	1.074430	-0.254910
O30	O	1.110446	0.556249	0.183842
O31	O	1.303566	0.556241	0.183848
O32	O	1.311184	0.542680	0.035220
O33	O	0.811365	1.087999	-0.106288
O34	O	1.004485	1.087991	-0.106282
O35	O	1.106003	0.735825	0.099701
O36	O	1.224174	0.727838	0.012209
O37	O	1.125749	0.902832	-0.083270
O38	O	1.007577	0.910820	0.004221
C39	C	1.046869	0.570781	-0.024867
C40	C	1.041980	0.487780	-0.021247
C41	C	0.757369	0.815352	-0.035543
C42	C	0.654227	0.815357	-0.035546
C43	C	1.033048	0.335814	-0.014636
C44	C	1.089497	0.294861	-0.056430
C45	C	1.084527	0.210302	-0.052752
C46	C	1.038017	0.420381	-0.018313
C47	C	0.445469	0.925739	-0.095486
C48	C	0.552721	0.925789	-0.095798
C49	C	0.649590	0.754362	-0.073298
C50	C	0.541885	0.755058	-0.073732
C51	C	0.536144	0.765079	0.062254
C52	C	0.642249	0.767240	0.062009
C53	C	1.365179	0.815327	-0.035525
C54	C	1.468321	0.815323	-0.035522
C55	C	1.073261	0.794000	-0.269423
C56	C	1.077330	0.786757	-0.348803
C57	C	1.075679	1.059898	-0.046201
C58	C	1.080568	1.142900	-0.049821
C59	C	1.037766	0.857140	-0.576905
C60	C	1.084780	0.773544	-0.494160
C61	C	1.080633	0.780898	-0.413277
C62	C	1.041911	0.849787	-0.657797
C63	C	1.049287	0.836679	0.198355
C64	C	1.045218	0.843922	0.277735
C65	C	1.350774	0.570768	-0.024858
C66	C	1.449028	0.487763	-0.021234
C67	C	1.034882	0.592121	0.209022
C68	C	1.025925	0.516362	0.292022
C69	C	1.338787	0.592108	0.209031
C70	C	1.432972	0.516345	0.292035
C71	C	0.783762	1.038571	-0.280099
C72	C	0.689576	1.114334	-0.363103
C73	C	0.771774	1.059911	-0.046210
C74	C	0.673521	1.142916	-0.049834
C75	C	1.087666	1.038559	-0.280090
C76	C	1.096624	1.114317	-0.363090
C77	C	1.438166	0.444617	-0.065214
C78	C	1.530478	0.366634	-0.061827
C79	C	1.633650	0.331793	-0.014455
C80	C	1.644509	0.374946	0.029525
C81	C	1.552199	0.452933	0.026133
C82	C	1.078720	0.484950	0.376681
C83	C	1.070300	0.413779	0.454676
C84	C	1.009090	0.374015	0.448009
C85	C	0.956288	0.405434	0.363341
C86	C	0.964702	0.476609	0.285349
C87	C	1.538897	0.476597	0.285344
C88	C	1.627404	0.405420	0.363327
C89	C	1.609984	0.373987	0.448000
C90	C	1.504048	0.413743	0.454688
C91	C	1.415544	0.484924	0.376706
C92	C	0.583652	1.154092	-0.356413
C93	C	0.495146	1.225293	-0.434396
C94	C	0.512566	1.256730	-0.519069
C95	C	0.618502	1.216969	-0.525758
C96	C	0.707006	1.145774	-0.447775
C97	C	0.684383	1.186069	-0.005862
C98	C	0.592073	1.264072	-0.009270
C99	C	0.488902	1.298916	-0.056645
C100	C	0.478042	1.255759	-0.100622
C101	C	0.570351	1.177763	-0.097219
C102	C	1.157843	1.154059	-0.356395
C103	C	1.166280	1.225232	-0.434375
C104	C	1.113492	1.256668	-0.519049
C105	C	1.052270	1.216919	-0.525743
C106	C	1.043840	1.145741	-0.447764
H107	H	0.980991	0.307371	0.023905
N108	N	0.980320	0.959248	-0.590272
H109	H	0.901432	0.998031	-0.625017
H110	H	1.015654	0.997961	-0.624975
H111	H	0.793252	1.113403	-0.453232
H112	H	1.713654	0.373057	0.357865
N113	N	1.142222	0.671425	-0.480784
H114	H	1.221110	0.632640	-0.446038
H115	H	1.136995	0.680672	-0.541339
N116	N	0.744060	0.646507	-0.017958
H117	H	0.788713	0.631876	-0.057555
H118	H	0.715796	0.599330	0.008514
H119	H	1.002247	0.316060	0.511523
N120	N	1.563920	0.499465	0.073571
H121	H	1.599957	0.445784	0.140058
H122	H	1.489757	0.554165	0.064167
N123	N	1.326895	0.482184	-0.116309
H124	H	1.334039	0.443012	-0.143655
H125	H	1.291066	0.556285	-0.165637
H126	H	1.708806	0.268290	-0.011699
H127	H	1.728524	0.346567	0.068094
H128	H	0.993984	1.113391	-0.453228
N129	N	0.552284	0.988591	-0.062606
H130	H	0.482255	1.016497	-0.047644
H131	H	0.558639	1.046169	-0.111022
N132	N	0.375709	0.989002	-0.062528
H133	H	0.358235	0.946707	-0.008409
H134	H	0.306082	1.048481	-0.111985
H135	H	1.141557	0.323307	-0.094975
N136	N	0.890277	0.362535	0.356158
H137	H	0.892972	0.312676	0.418417
H138	H	0.921236	0.327216	0.324596
N139	N	1.518752	0.320101	-0.109267
H140	H	1.439383	0.354005	-0.139782
H141	H	1.549618	0.245637	-0.063922
H142	H	1.128564	0.517319	0.382127
N143	N	0.380931	0.977013	-0.190569
H144	H	0.366429	0.929031	-0.194968
H145	H	0.423560	0.997143	-0.233203
H146	H	0.642651	0.811779	0.090256
H147	H	1.329297	0.517279	0.382166
H148	H	0.569447	1.128500	-0.287475
H149	H	0.657627	0.787845	-0.144428
H150	H	1.113303	0.388207	0.523608
H151	H	0.921712	0.502174	0.216419
H152	H	0.394027	1.284141	-0.139194
N153	N	1.485268	0.379836	0.546016
H154	H	1.557414	0.328708	0.594395
H155	H	1.440168	0.348158	0.554338
H156	H	0.556539	0.964630	-0.168002
H157	H	1.553101	0.502178	0.216407
H158	H	0.497531	0.789402	-0.145567
N159	N	0.568014	0.647413	-0.019281
H160	H	0.611183	0.612223	0.044562
H161	H	0.612015	0.610942	-0.046857
H162	H	1.682060	0.316026	0.511491
H163	H	0.440491	1.314701	-0.582561
N164	N	0.603814	1.310610	0.038159
H165	H	0.573033	1.385070	-0.007149
H166	H	0.683201	1.276612	0.068684
H167	H	0.408897	1.257655	-0.428933
H168	H	0.486572	0.805080	0.094269
N169	N	0.637283	1.250879	-0.617086
H170	H	0.565136	1.302009	-0.665465
H171	H	0.676970	1.190691	-0.621403
H172	H	0.768382	1.157707	0.032721
H173	H	0.413747	1.362426	-0.059409
H174	H	1.200831	1.128476	-0.287456
H175	H	0.561491	1.142629	-0.133023
H176	H	1.216131	1.257590	-0.428907
H177	H	1.009292	1.242525	-0.594696
N178	N	0.737512	0.661012	0.125658
H179	H	0.790016	0.642487	0.092005
H180	H	0.710740	0.612624	0.151453
N181	N	0.563084	0.657413	0.121638
H182	H	0.531535	0.641219	0.085433
H183	H	0.531235	0.648831	0.173476
N184	N	1.122601	1.333428	-0.603152
H185	H	1.169397	1.353828	-0.586053
H186	H	1.047851	1.394827	-0.641849
