data_functionalizedCrystal
_audit_creation_method	'MofGen! by Chris Wilmer'
_symmetry_space_group_name_H-M	'P1'
_symmetry_Int_Tables_number	1
_symmetry_cell_setting	triclinic
loop_
_symmetry_equiv_pos_as_xyz
  x,y,z
_cell_length_a	34.571875
_cell_length_b	34.571051
_cell_length_c	34.567439
_cell_angle_alpha	60.004367
_cell_angle_beta	60.008842
_cell_angle_gamma	59.994195
loop_
_atom_site_label
_atom_site_type_symbol
_atom_site_fract_x
_atom_site_fract_y
_atom_site_fract_z
O1	O	0.053721	-0.565181	0.472559
O2	O	0.553721	-0.065181	0.972559
O3	O	0.020283	-0.440038	0.380761
O4	O	0.520283	0.059962	0.880761
O5	O	0.099534	-0.519209	0.380676
O6	O	0.599534	-0.019209	0.880676
O7	O	-0.025530	-0.486010	0.472643
O8	O	0.474470	0.013990	0.972643
O9	O	0.125831	-0.492917	0.406885
O10	O	0.625831	0.007083	0.906885
O11	O	0.046580	-0.413746	0.406969
O12	O	0.546580	0.086254	0.906969
O13	O	0.080018	-0.538889	0.498767
O14	O	0.580018	-0.038889	0.998767
Zn15	Zn	0.067475	-0.472143	0.457030
Zn16	Zn	0.567475	0.027857	0.957030
Zn17	Zn	0.032827	-0.506784	0.422498
Zn18	Zn	0.532827	-0.006784	0.922498
O19	O	0.000767	-0.459718	0.498852
O20	O	0.500767	0.040282	0.998852
N21	N	0.091122	-0.448505	0.480598
N22	N	0.591122	0.051495	0.980598
N23	N	0.009184	-0.530426	0.398930
N24	N	0.509184	-0.030426	0.898930
C25	C	0.124402	-0.415465	0.717633
C26	C	0.624402	0.084535	1.217633
C27	C	0.328327	-0.415388	0.513477
C28	C	0.828327	0.084612	1.013477
C29	C	0.124221	-0.415437	0.513630
C30	C	0.624221	0.084563	1.013630
C31	C	0.124201	-0.211364	0.513624
C32	C	0.624201	0.288636	1.013624
C33	C	0.157075	-0.309853	0.546423
C34	C	0.657075	0.190147	1.046423
C35	C	0.157084	-0.382601	0.546423
C36	C	0.657084	0.117399	1.046423
C37	C	0.175289	-0.364414	0.564591
C38	C	0.675289	0.135586	1.064591
C39	C	0.254624	-0.350722	0.522790
C40	C	0.754624	0.149278	1.022790
C41	C	0.304220	-0.367243	0.506229
C42	C	0.804220	0.132757	1.006229
C43	C	0.304249	-0.447494	0.536832
C44	C	0.804249	0.052506	1.036832
C45	C	0.254655	-0.430972	0.553394
C46	C	0.754655	0.069028	1.053394
C47	C	0.169014	-0.285043	0.497667
C48	C	0.669014	0.214957	0.997667
C49	C	0.152454	-0.235444	0.481153
C50	C	0.652454	0.264556	0.981153
C51	C	0.112020	-0.235469	0.562154
C52	C	0.612020	0.264531	1.062154
C53	C	0.128580	-0.285068	0.578668
C54	C	0.628580	0.214932	1.078668
C55	C	0.108321	-0.370634	0.558439
C56	C	0.608321	0.129366	1.058439
C57	C	0.091776	-0.387168	0.541918
C58	C	0.591776	0.112832	1.041918
C59	C	0.172754	-0.427637	0.501375
C60	C	0.672754	0.072363	1.001375
C61	C	0.189301	-0.411103	0.517891
C62	C	0.689301	0.088897	1.017891
C63	C	0.108399	-0.370649	0.643978
C64	C	0.608399	0.129351	1.143978
C65	C	0.091911	-0.387197	0.693575
C66	C	0.591911	0.112803	1.193575
C67	C	0.172928	-0.427676	0.693511
C68	C	0.672928	0.072324	1.193511
C69	C	0.189415	-0.411128	0.643912
C70	C	0.689415	0.088872	1.143912
C71	C	0.157149	-0.382613	0.619147
C72	C	0.657149	0.117387	1.119147
C73	C	0.229844	-0.382585	0.546371
C74	C	0.729844	0.117415	1.046371
C75	C	0.105624	-0.433333	0.772186
C76	C	0.605624	0.066667	1.272186
C77	C	0.382878	-0.432925	0.495007
C78	C	0.882878	0.067075	0.995007
C79	C	0.105380	-0.433313	0.495792
C80	C	0.605380	0.066687	0.995792
C81	C	0.105683	-0.156808	0.496094
C82	C	0.605683	0.343192	0.996094
C83	C	-0.023527	-0.563458	0.161535
C84	C	0.476473	-0.063458	0.661535
C85	C	-0.023851	-0.767445	0.365663
C86	C	0.476149	-0.267445	0.865663
C87	C	-0.023821	-0.563448	0.365756
C88	C	0.476179	-0.063448	0.865756
C89	C	-0.227785	-0.563229	0.365355
C90	C	0.272215	-0.063229	0.865355
C91	C	-0.129302	-0.596153	0.332678
C92	C	0.370698	-0.096153	0.832678
C93	C	-0.056593	-0.596234	0.332823
C94	C	0.443407	-0.096234	0.832823
C95	C	-0.074746	-0.614396	0.314578
C96	C	0.425254	-0.114396	0.814578
C97	C	-0.088477	-0.693710	0.356299
C98	C	0.411523	-0.193710	0.856299
C99	C	-0.071982	-0.743310	0.372851
C100	C	0.428018	-0.243310	0.872851
C101	C	0.008266	-0.743392	0.342376
C102	C	0.508266	-0.243392	0.842376
C103	C	-0.008230	-0.693794	0.325823
C104	C	0.491770	-0.193794	0.825823
C105	C	-0.154162	-0.608103	0.381422
C106	C	0.345838	-0.108103	0.881422
C107	C	-0.203757	-0.591517	0.397874
C108	C	0.296243	-0.091517	0.897874
C109	C	-0.203630	-0.551037	0.316836
C110	C	0.296370	-0.051037	0.816836
C111	C	-0.154034	-0.567623	0.300384
C112	C	0.345966	-0.067623	0.800384
C113	C	-0.068543	-0.547475	0.320829
C114	C	0.431457	-0.047475	0.820829
C115	C	-0.052041	-0.530969	0.337421
C116	C	0.447959	-0.030969	0.837421
C117	C	-0.011639	-0.611977	0.377990
C118	C	0.488361	-0.111977	0.877990
C119	C	-0.028141	-0.628485	0.361404
C120	C	0.471859	-0.128485	0.861404
C121	C	-0.068417	-0.547482	0.235199
C122	C	0.431583	-0.047482	0.735199
C123	C	-0.051814	-0.530977	0.185602
C124	C	0.448186	-0.030977	0.685602
C125	C	-0.011349	-0.611990	0.185649
C126	C	0.488651	-0.111990	0.685649
C127	C	-0.027951	-0.628493	0.235248
C128	C	0.472049	-0.128493	0.735248
C129	C	-0.056486	-0.596238	0.260022
C130	C	0.443514	-0.096238	0.760022
C131	C	-0.056602	-0.668955	0.332787
C132	C	0.443398	-0.168955	0.832787
C133	C	-0.005599	-0.544662	0.106983
C134	C	0.494401	-0.044662	0.606983
C135	C	-0.006342	-0.821999	0.384121
C136	C	0.493658	-0.321999	0.884121
C137	C	-0.005979	-0.544649	0.383673
C138	C	0.494021	-0.044649	0.883673
C139	C	-0.282336	-0.544682	0.382817
C140	C	0.217664	-0.044682	0.882817
N141	N	0.427518	-0.448428	0.480350
N142	N	0.927518	0.051572	0.980350
O143	O	0.589573	-0.456297	0.363634
O144	O	1.089573	0.043703	0.863634
O145	O	0.589761	-0.548399	0.488643
O146	O	1.089761	-0.048399	0.988643
O147	O	0.589681	-0.548188	0.409364
O148	O	1.089681	-0.048188	0.909364
O149	O	0.589654	-0.456508	0.442913
O150	O	1.089654	0.043492	0.942913
O151	O	0.510890	-0.521988	0.435708
O152	O	1.010890	-0.021988	0.935708
O153	O	0.510970	-0.522199	0.514987
O154	O	1.010970	-0.022199	1.014987
O155	O	0.510782	-0.430098	0.389978
O156	O	1.010782	0.069902	0.889978
Zn157	Zn	0.498366	-0.471989	0.456665
Zn158	Zn	0.998366	0.028011	0.956665
Zn159	Zn	0.602177	-0.506508	0.421956
Zn160	Zn	1.102177	-0.006508	0.921956
O161	O	0.510862	-0.430308	0.469257
O162	O	1.010862	0.069692	0.969257
N163	N	0.673025	-0.530068	0.398267
N164	N	1.173025	-0.030068	0.898267
N165	N	0.091092	-0.112167	0.480590
N166	N	0.591092	0.387833	0.980590
O167	O	-0.025539	0.049976	0.472612
O168	O	0.474461	0.549976	0.972612
O169	O	0.099472	0.050011	0.380491
O170	O	0.599472	0.550011	0.880491
O171	O	0.020155	0.049979	0.380751
O172	O	0.520155	0.549979	0.880751
O173	O	0.053778	0.050009	0.472352
O174	O	0.553778	0.550009	0.972352
O175	O	0.046458	-0.028818	0.407008
O176	O	0.546458	0.471182	0.907008
O177	O	0.125775	-0.028785	0.406748
O178	O	0.625775	0.471215	0.906748
O179	O	0.000764	-0.028821	0.498869
O180	O	0.500764	0.471179	0.998869
Zn181	Zn	0.067445	-0.041314	0.456977
Zn182	Zn	0.567445	0.458686	0.956977
Zn183	Zn	0.032791	0.062504	0.422382
Zn184	Zn	0.532791	0.562504	0.922382
O185	O	0.080081	-0.028788	0.498609
O186	O	0.580081	0.471212	0.998609
N187	N	0.009138	0.133358	0.398771
N188	N	0.509138	0.633358	0.898771
N189	N	0.091421	-0.448552	0.816827
N190	N	0.591421	0.051448	1.316827
O191	O	0.083469	-0.565164	0.978960
O192	O	0.583469	-0.065164	1.478960
O193	O	-0.008614	-0.440110	0.979002
O194	O	0.491386	0.059890	1.479002
O195	O	-0.008399	-0.519410	0.978978
O196	O	0.491601	-0.019410	1.478978
O197	O	0.083253	-0.485863	0.978984
O198	O	0.583253	0.014137	1.478984
O199	O	0.017837	-0.493128	0.900185
O200	O	0.517837	0.006872	1.400185
O201	O	0.017621	-0.413827	0.900208
O202	O	0.517621	0.086173	1.400208
O203	O	0.109704	-0.538881	0.900167
O204	O	0.609704	-0.038881	1.400167
Zn205	Zn	0.067828	-0.472181	0.887677
Zn206	Zn	0.567828	0.027819	1.387677
Zn207	Zn	0.033262	-0.506810	0.991491
Zn208	Zn	0.533262	-0.006810	1.491491
O209	O	0.109489	-0.459581	0.900191
O210	O	0.609489	0.040419	1.400191
N211	N	0.009668	-0.530444	1.062341
N212	N	0.509668	-0.030444	1.562341
C213	C	0.030297	-0.411123	0.381218
C214	C	0.530297	0.088877	0.881218
C215	C	0.128439	-0.509167	0.381113
C216	C	0.628439	-0.009167	0.881113
C217	C	0.070004	-0.567805	0.498310
C218	C	0.570004	-0.067805	0.998310
C219	C	-0.028138	-0.469761	0.498415
C220	C	0.471862	0.030239	0.998415
C221	C	0.550388	-0.547982	0.517564
C222	C	1.050388	-0.047982	1.017564
C223	C	0.550290	-0.547721	0.419387
C224	C	1.050290	-0.047721	0.919387
C225	C	0.550153	-0.430514	0.361058
C226	C	1.050153	0.069486	0.861058
C227	C	0.550253	-0.430775	0.459234
C228	C	1.050253	0.069225	0.959234
C229	C	0.128339	0.010714	0.380902
C230	C	0.628339	0.510714	0.880902
C231	C	0.030148	0.010577	0.381256
C232	C	0.530148	0.510577	0.881256
C233	C	-0.028136	0.010574	0.498426
C234	C	0.471864	0.510574	0.998426
C235	C	0.070089	0.010613	0.498104
C236	C	0.570089	0.510613	0.998104
C237	C	-0.008178	-0.411214	0.939610
C238	C	0.491822	0.088786	1.439610
C239	C	-0.007906	-0.509413	0.939566
C240	C	0.492094	-0.009413	1.439566
C241	C	0.109268	-0.567777	0.939558
C242	C	0.609268	-0.067777	1.439558
C243	C	0.109002	-0.469572	0.939586
C244	C	0.609002	0.030428	1.439586
H245	H	0.082121	-0.347425	0.623816
H246	H	0.582121	0.152575	1.123816
N247	N	0.176020	-0.518537	0.342860
N248	N	0.676020	-0.018537	0.842860
H249	H	0.191130	-0.495261	0.333665
H250	H	0.691130	0.004739	0.833665
H251	H	0.171596	-0.514763	0.314260
H252	H	0.671596	-0.014763	0.814260
N253	N	0.550303	-0.585875	0.409886
N254	N	1.050303	-0.085875	0.909886
H255	H	0.579537	-0.614515	0.413606
H256	H	1.079537	-0.114515	0.913606
H257	H	0.550243	-0.573542	0.376548
H258	H	1.050243	-0.073542	0.876548
H259	H	0.199204	-0.450885	0.713670
H260	H	0.699204	0.049115	1.213670
H261	H	0.550093	-0.401597	0.325157
H262	H	1.050093	0.098403	0.825157
N263	N	0.020834	-0.363508	0.343022
N264	N	0.520834	0.136492	0.843022
H265	H	0.049949	-0.363346	0.313713
H266	H	0.549949	0.136654	0.813713
H267	H	0.012842	-0.337917	0.354637
H268	H	0.512842	0.162083	0.854637
H269	H	0.077150	-0.603753	0.527142
H270	H	0.577150	-0.103753	1.027142
N271	N	0.550245	-0.392625	0.468736
N272	N	1.050245	0.107375	0.968736
H273	H	0.550288	-0.404918	0.502074
H274	H	1.050288	0.095082	1.002074
H275	H	0.521010	-0.363996	0.464990
H276	H	1.021010	0.136004	0.964990
H277	H	0.234479	-0.456922	0.572596
H278	H	0.734479	0.043078	1.072596
N279	N	-0.064922	-0.478379	0.324482
N280	N	0.435078	0.021621	0.824482
H281	H	-0.050151	-0.472816	0.339329
H282	H	0.449849	0.027184	0.839329
H283	H	-0.100502	-0.463544	0.336542
H284	H	0.399498	0.036456	0.836542
H285	H	0.550436	-0.576894	0.553469
H286	H	1.050436	-0.076894	1.053469
N287	N	0.175795	0.011016	0.342496
N288	N	0.675795	0.511016	0.842496
H289	H	0.196966	0.011092	0.354602
H290	H	0.696966	0.511092	0.854602
H291	H	0.171174	0.040291	0.313971
H292	H	0.671174	0.540291	0.813971
H293	H	0.022945	0.010574	0.352477
H294	H	0.522945	0.510574	0.852477
N295	N	-0.075687	0.010558	0.536737
N296	N	0.424313	0.510558	1.036737
H297	H	-0.096881	0.010547	0.524609
H298	H	0.403119	0.510547	1.024609
H299	H	-0.090732	0.039770	0.545887
H300	H	0.409268	0.539770	1.045887
H301	H	0.077290	0.010621	0.526881
H302	H	0.577290	0.510621	1.026881
H303	H	-0.037087	-0.375298	0.939623
H304	H	0.462913	0.124702	1.439623
H305	H	0.137795	-0.462392	0.939581
H306	H	0.637795	0.037608	1.439581
H307	H	-0.064060	-0.462687	0.527292
H308	H	0.435940	0.037313	1.027292
H309	H	-0.036687	-0.516580	0.939532
H310	H	0.463313	-0.016580	1.439532
N311	N	0.147559	-0.615353	0.939552
N312	N	0.647559	-0.115353	1.439552
H313	H	0.155492	-0.621520	0.910343
H314	H	0.655492	-0.121520	1.410343
H315	H	0.136000	-0.640960	0.968779
H316	H	0.636000	-0.140960	1.468779
N317	N	0.039327	-0.374285	0.720350
N318	N	0.539327	0.125715	1.220350
H319	H	0.024488	-0.338707	0.711731
H320	H	0.524488	0.161293	1.211731
H321	H	0.033814	-0.389123	0.755519
H322	H	0.533814	0.110877	1.255519
N323	N	0.241997	-0.424032	0.617126
N324	N	0.741997	0.075968	1.117126
H325	H	0.256841	-0.459610	0.625743
H326	H	0.756841	0.040390	1.125743
H327	H	0.256796	-0.411878	0.625752
H328	H	0.756796	0.088122	1.125752
N329	N	0.073573	-0.339887	0.589205
N330	N	0.573573	0.160113	1.089205
H331	H	0.053011	-0.357768	0.619035
H332	H	0.553011	0.142232	1.119035
H333	H	0.053005	-0.310069	0.571307
H334	H	0.553005	0.189931	1.071307
N335	N	0.039181	-0.374265	0.554876
N336	N	0.539181	0.125735	1.054876
H337	H	0.021281	-0.353703	0.575461
H338	H	0.521281	0.146297	1.075461
H339	H	0.030582	-0.404103	0.572748
H340	H	0.530582	0.095897	1.072748
H341	H	0.198991	-0.450848	0.478149
H342	H	0.698991	0.049152	0.978149
H343	H	0.229008	-0.420842	0.508101
H344	H	0.729008	0.079158	1.008101
N345	N	-0.106362	-0.770011	0.398218
N346	N	0.393638	-0.270011	0.898218
H347	H	-0.088572	-0.805201	0.407647
H348	H	0.411428	-0.305201	0.907647
H349	H	-0.123000	-0.761329	0.376472
H350	H	0.377000	-0.261329	0.876472
H351	H	0.324452	-0.486894	0.542541
H352	H	0.824452	0.013106	1.042541
H353	H	0.011532	-0.638242	0.401256
H354	H	0.511532	-0.138242	0.901256
N355	N	0.330944	-0.332872	0.480799
N356	N	0.830944	0.167128	0.980799
H357	H	0.322286	-0.308716	0.451501
H358	H	0.822286	0.191284	0.951501
H359	H	0.366120	-0.350714	0.471405
H360	H	0.866120	0.149286	0.971405
N361	N	0.227865	-0.298533	0.515214
N362	N	0.727865	0.201467	1.015214
H363	H	0.251092	-0.280856	0.497761
H364	H	0.751092	0.219144	0.997761
H365	H	0.207309	-0.293668	0.546909
H366	H	0.707309	0.206332	1.046909
H367	H	-0.018411	-0.668189	0.371171
H368	H	0.481589	-0.168189	0.871171
H369	H	0.192214	-0.305222	0.471410
H370	H	0.692214	0.194778	0.971410
H371	H	0.162174	-0.215242	0.441450
H372	H	0.662174	0.284758	0.941450
H373	H	0.088825	-0.215289	0.588411
H374	H	0.588825	0.284711	1.088411
H375	H	0.118851	-0.305270	0.618371
H376	H	0.618851	0.194730	1.118371
H377	H	-0.091654	-0.521212	0.255368
H378	H	0.408346	-0.021212	0.755368
N379	N	-0.064685	-0.478387	0.158834
N380	N	0.435315	0.021613	0.658834
H381	H	-0.085281	-0.460460	0.182056
H382	H	0.414719	0.039540	0.682056
H383	H	-0.082517	-0.469750	0.138207
H384	H	0.417483	0.030250	0.638207
H385	H	-0.018232	-0.668197	0.255455
H386	H	0.481768	-0.168197	0.755455
N387	N	0.019420	-0.646778	0.158929
N388	N	0.519420	-0.146778	0.658929
H389	H	0.001535	-0.667331	0.167525
H390	H	0.501535	-0.167331	0.667525
H391	H	0.049207	-0.667355	0.167630
H392	H	0.549207	-0.167355	0.667630
N393	N	-0.099227	-0.512691	0.290002
N394	N	0.400773	-0.012691	0.790002
H395	H	-0.104295	-0.479297	0.284925
H396	H	0.395705	0.020703	0.784925
H397	H	-0.130828	-0.517748	0.306054
H398	H	0.369172	-0.017748	0.806054
H399	H	0.017729	-0.673638	0.306677
H400	H	0.517729	-0.173638	0.806677
H401	H	0.047655	-0.763617	0.336709
H402	H	0.547655	-0.263617	0.836709
H403	H	-0.127865	-0.673490	0.361973
H404	H	0.372135	-0.173490	0.861973
H405	H	-0.223999	-0.601245	0.437568
H406	H	0.276001	-0.101245	0.937568
N407	N	-0.127484	-0.638877	0.416250
N408	N	0.372516	-0.138877	0.916250
H409	H	-0.150760	-0.643926	0.449627
H410	H	0.349240	-0.143926	0.949627
H411	H	-0.106903	-0.622798	0.411198
H412	H	0.393097	-0.122798	0.911198
H413	H	-0.223768	-0.527810	0.290539
H414	H	0.276232	-0.027810	0.790539
H415	H	-0.133793	-0.557888	0.260690
H416	H	0.366207	-0.057888	0.760690
