data_functionalizedCrystal
_audit_creation_method	'MofGen! by Chris Wilmer'
_symmetry_space_group_name_H-M	'P1'
_symmetry_Int_Tables_number	1
_symmetry_cell_setting	triclinic
loop_
_symmetry_equiv_pos_as_xyz
  x,y,z
_cell_length_a	10.654550
_cell_length_b	10.654550
_cell_length_c	9.730223
_cell_angle_alpha	89.999807
_cell_angle_beta	89.996251
_cell_angle_gamma	84.484903
loop_
_atom_site_label
_atom_site_type_symbol
_atom_site_fract_x
_atom_site_fract_y
_atom_site_fract_z
O1	O	1.667834	0.176393	-0.114399
O2	O	1.302355	0.193199	-0.114377
O3	O	1.493498	0.002057	-0.114383
O4	O	1.476692	0.367535	-0.114393
O5	O	1.493496	0.002062	0.114197
O6	O	1.302353	0.193204	0.114203
O7	O	1.667832	0.176398	0.114181
Zn8	Zn	1.485092	0.184802	0.150484
Zn9	Zn	1.485095	0.184795	-0.150680
O10	O	1.476689	0.367540	0.114187
C11	C	1.255556	0.191968	-0.000084
C12	C	1.116113	0.188276	-0.000075
C13	C	1.036627	0.300817	-0.000098
C14	C	0.905607	0.297341	-0.000122
C15	C	0.933570	0.068771	-0.000106
C16	C	1.064588	0.072249	-0.000072
C17	C	1.020482	0.432780	-0.000114
C18	C	0.889461	0.429304	-0.000137
C19	C	1.492263	-0.044739	-0.000095
C20	C	1.488571	-0.184182	-0.000100
C21	C	1.601112	-0.263668	-0.000102
C22	C	1.597636	-0.394688	-0.000112
C23	C	1.369066	-0.366725	-0.000110
C24	C	1.372544	-0.235707	-0.000110
C25	C	1.733075	-0.279813	-0.000097
C26	C	1.729599	-0.410834	-0.000107
C27	C	1.714631	0.177630	-0.000115
C28	C	1.854074	0.181321	-0.000133
C29	C	1.477925	0.414336	-0.000104
C30	C	1.481616	0.553779	-0.000109
N31	N	1.485099	0.184805	0.356020
N32	N	1.485098	0.184782	-0.356216
C33	C	1.569759	0.100197	0.427943
C34	C	1.569756	0.100181	0.571826
C35	C	1.400429	0.269395	0.571850
C36	C	1.400427	0.269403	0.427970
C37	C	1.667522	0.002506	0.427931
C38	C	1.667519	0.002491	0.571814
H39	H	0.843789	0.469187	0.098546
H40	H	1.280902	-0.170993	-0.000127
Cl41	Cl	1.808293	0.049748	0.359010
H42	H	1.784692	-0.250457	-0.095754
H43	H	1.779319	-0.452592	0.095548
Cl44	Cl	1.065775	0.512469	0.147576
Cl45	Cl	0.868786	-0.077083	-0.000102
Cl46	Cl	1.223212	-0.431509	-0.000126
Cl47	Cl	1.797930	-0.224792	0.152285
H48	H	1.331480	0.338287	0.369412
H49	H	0.847729	0.479023	-0.095806
H50	H	1.056138	0.474797	-0.098802
Cl51	Cl	1.293989	0.375740	0.662310
H52	H	1.637006	-0.088732	0.616433
H53	H	1.646080	-0.094027	0.388881
Cl54	Cl	1.816522	0.035702	0.632106
H55	H	1.769481	-0.456479	-0.098804
Cl56	Cl	1.164510	-0.069238	-0.000012
