data_functionalizedCrystal
_audit_creation_method	'MofGen! by Chris Wilmer'
_symmetry_space_group_name_H-M	'P1'
_symmetry_Int_Tables_number	1
_symmetry_cell_setting	triclinic
loop_
_symmetry_equiv_pos_as_xyz
  x,y,z
_cell_length_a	29.019771
_cell_length_b	29.019011
_cell_length_c	29.015668
_cell_angle_alpha	60.004890
_cell_angle_beta	60.009825
_cell_angle_gamma	59.993818
loop_
_atom_site_label
_atom_site_type_symbol
_atom_site_fract_x
_atom_site_fract_y
_atom_site_fract_z
O1	O	0.063866	-0.673289	0.563007
O2	O	0.024059	-0.524205	0.453633
O3	O	0.118464	-0.618532	0.453552
O4	O	-0.030540	-0.578962	0.563088
O5	O	0.149785	-0.587215	0.484789
O6	O	0.055379	-0.492888	0.484869
O7	O	0.095186	-0.641972	0.594244
Cu8	Cu	0.078143	-0.564571	0.542409
Cu9	Cu	0.041102	-0.601606	0.505468
O10	O	0.000781	-0.547645	0.594325
N11	N	0.104196	-0.538525	0.568394
N12	N	0.015054	-0.627656	0.479483
C13	C	0.143783	-0.499167	0.850823
C14	C	0.386758	-0.499111	0.607645
C15	C	0.143618	-0.499136	0.607763
C16	C	0.143598	-0.256029	0.607770
C17	C	0.182748	-0.373362	0.646852
C18	C	0.182758	-0.460025	0.646847
C19	C	0.204440	-0.438361	0.668500
C20	C	0.298958	-0.422064	0.618723
C21	C	0.358043	-0.441753	0.599006
C22	C	0.358069	-0.537354	0.635461
C23	C	0.298985	-0.517664	0.655180
C24	C	0.196983	-0.343808	0.588767
C25	C	0.177262	-0.284720	0.569090
C26	C	0.129075	-0.284743	0.665586
C27	C	0.148797	-0.343831	0.685263
C28	C	0.124666	-0.445760	0.661149
C29	C	0.104961	-0.465454	0.641458
C30	C	0.201435	-0.513678	0.593176
C31	C	0.221143	-0.493984	0.612860
C32	C	0.124738	-0.445777	0.763064
C33	C	0.105085	-0.465488	0.822151
C34	C	0.201594	-0.513722	0.822097
C35	C	0.221247	-0.494012	0.763009
C36	C	0.182817	-0.460038	0.733494
C37	C	0.269432	-0.460018	0.646809
C38	C	0.121399	-0.520450	0.915812
C39	C	0.451745	-0.520012	0.585655
C40	C	0.121177	-0.520429	0.586502
C41	C	0.121544	-0.191035	0.586883
C42	C	-0.110592	-0.666601	0.440035
C43	C	-0.023978	-0.666709	0.440231
C44	C	-0.045598	-0.688342	0.418486
C45	C	-0.061967	-0.782825	0.468184
C46	C	-0.042323	-0.841914	0.487907
C47	C	0.053280	-0.842025	0.451623
C48	C	0.033634	-0.782937	0.431899
C49	C	-0.140218	-0.680832	0.498102
C50	C	-0.199302	-0.661065	0.517690
C51	C	-0.199129	-0.612843	0.421140
C52	C	-0.140045	-0.632610	0.401552
C53	C	-0.038209	-0.608622	0.425941
C54	C	-0.018555	-0.588961	0.445716
C55	C	0.029562	-0.685470	0.494059
C56	C	0.009908	-0.705133	0.474291
C57	C	-0.038037	-0.608631	0.323917
C58	C	-0.018247	-0.588973	0.264830
C59	C	0.029955	-0.685489	0.264893
C60	C	0.010165	-0.705145	0.323981
C61	C	-0.023833	-0.666715	0.353492
C62	C	-0.023990	-0.753339	0.440182
N63	N	0.504925	-0.538487	0.568205
O64	O	0.685342	-0.543679	0.433426
O65	O	0.685533	-0.653395	0.582361
O66	O	0.685457	-0.653145	0.487904
O67	O	0.685418	-0.543929	0.527882
O68	O	0.591592	-0.621921	0.519268
O69	O	0.591667	-0.622171	0.613725
O70	O	0.591477	-0.512455	0.464790
Cu71	Cu	0.583001	-0.564462	0.542121
Cu72	Cu	0.694008	-0.601388	0.505029
O73	O	0.591553	-0.512705	0.559246
N74	N	0.772084	-0.627363	0.478939
N75	N	0.104168	-0.137853	0.568408
O76	O	-0.030538	0.042663	0.563097
O77	O	0.118403	0.042683	0.453379
O78	O	0.023918	0.042657	0.453664
O79	O	0.063947	0.042689	0.562813
O80	O	0.055242	-0.051215	0.484950
O81	O	0.149727	-0.051189	0.484666
O82	O	0.000787	-0.051210	0.594384
Cu83	Cu	0.078117	-0.059771	0.542381
Cu84	Cu	0.041072	0.051244	0.505382
O85	O	0.095272	-0.051184	0.594099
N86	N	0.015015	0.129326	0.479356
N87	N	0.104469	-0.538576	0.968995
O88	O	0.099171	-0.673268	1.149499
O89	O	-0.010519	-0.524279	1.149527
O90	O	-0.010265	-0.618748	1.149494
O91	O	0.098916	-0.578799	1.149533
O92	O	0.021008	-0.587443	1.055625
O93	O	0.020753	-0.492974	1.055659
O94	O	0.130444	-0.641963	1.055630
Cu95	Cu	0.078454	-0.564610	1.047074
Cu96	Cu	0.041470	-0.601632	1.158084
O97	O	0.130189	-0.547494	1.055664
N98	N	0.015455	-0.627672	1.236163
C99	C	0.035988	-0.489761	0.454182
C100	C	0.152897	-0.606574	0.454082
C101	C	0.083257	-0.676417	0.593694
C102	C	-0.033653	-0.559604	0.593794
C103	C	0.638623	-0.652892	0.616806
C104	C	0.638531	-0.652583	0.499833
C105	C	0.638384	-0.512957	0.430345
C106	C	0.638480	-0.513267	0.547317
C107	C	0.152789	-0.004135	0.453875
C108	C	0.035820	-0.004282	0.454266
C109	C	-0.033639	-0.004275	0.593849
C110	C	0.083370	-0.004245	0.593498
C111	C	-0.009989	-0.489856	1.102597
C112	C	-0.009667	-0.606839	1.102536
C113	C	0.129914	-0.676386	1.102561
C114	C	0.129599	-0.559396	1.102601
H115	H	0.093440	-0.418108	0.739036
N116	N	-0.055605	-0.433176	1.102603
H117	H	-0.065060	-0.425836	1.137406
H118	H	-0.090418	-0.433127	1.102573
N119	N	0.094519	-0.733144	0.639197
H120	H	0.066821	-0.751181	0.650153
H121	H	0.090052	-0.727920	0.673282
N122	N	0.175527	-0.733068	1.102563
H123	H	0.184983	-0.740416	1.067763
H124	H	0.161750	-0.763571	1.137380
H125	H	-0.043953	-0.615372	1.102487
H126	H	0.195693	-0.615009	0.419684
N127	N	0.638309	-0.467330	0.373688
H128	H	0.673085	-0.456382	0.355696
H129	H	0.603470	-0.433264	0.378993
N130	N	0.094723	-0.004224	0.638913
H131	H	0.127468	-0.039015	0.648257
H132	H	0.060038	-0.004203	0.673826
N133	N	0.024726	-0.433032	0.408681
H134	H	-0.008003	-0.425730	0.399312
H135	H	0.059444	-0.432878	0.373800
N136	N	-0.090342	-0.548441	0.639358
H137	H	-0.115539	-0.508728	0.624828
H138	H	-0.085077	-0.552980	0.673451
N139	N	-0.090292	-0.004291	0.639482
H140	H	-0.108266	0.030506	0.650404
H141	H	-0.084983	-0.039114	0.673557
H142	H	0.163899	-0.550848	1.102605
N143	N	0.042438	-0.450092	0.854037
H144	H	0.035816	-0.467730	0.895947
H145	H	0.024801	-0.464525	0.843719
N146	N	0.024448	-0.004319	0.408872
H147	H	0.028883	0.030472	0.374715
H148	H	-0.015281	-0.004356	0.423607
N149	N	0.243043	-0.550347	0.853928
H150	H	0.282818	-0.556386	0.826227
H151	H	0.237002	-0.587992	0.878443
H152	H	0.268542	-0.505632	0.738936
H153	H	0.638471	-0.478960	0.555871
N154	N	0.638687	-0.698519	0.673465
H155	H	0.638696	-0.684046	0.698697
H156	H	0.673503	-0.732603	0.668159
N157	N	0.638550	-0.698030	0.488501
H158	H	0.603781	-0.709003	0.516193
H159	H	0.673396	-0.732121	0.492929
N160	N	0.083267	-0.409127	0.697797
H161	H	0.043476	-0.403074	0.703862
H162	H	0.089327	-0.371489	0.678604
H163	H	-0.065797	-0.577331	0.398207
N164	N	0.209299	-0.003747	0.408083
H165	H	0.240040	-0.038451	0.421597
H166	H	0.216380	0.031168	0.398730
N167	N	0.042305	-0.450075	0.656882
H168	H	0.020978	-0.425577	0.681403
H169	H	0.032057	-0.485618	0.678170
N170	N	-0.124119	-0.750908	0.477117
H171	H	-0.129903	-0.726397	0.439350
H172	H	-0.138863	-0.726416	0.500155
N173	N	0.242836	-0.550311	0.556529
H174	H	0.282625	-0.556127	0.550229
H175	H	0.236556	-0.531247	0.519004
N176	N	0.066611	-0.726938	0.233068
H177	H	0.072604	-0.766717	0.260772
H178	H	0.104271	-0.720924	0.208619
N179	N	0.283797	-0.509353	0.597438
H180	H	0.301431	-0.494900	0.555051
H181	H	0.301443	-0.551740	0.611895
H182	H	0.274946	-0.548573	0.678050
H183	H	0.382082	-0.410845	0.576135
N184	N	0.389949	-0.599529	0.644479
H185	H	0.362279	-0.620586	0.665263
H186	H	0.414485	-0.614237	0.667462
H187	H	0.274901	-0.375125	0.611905
H188	H	0.188851	-0.260656	0.521790
N189	N	0.233604	-0.375662	0.547342
H190	H	0.239625	-0.347972	0.507559
H191	H	0.214419	-0.400183	0.553421
H192	H	0.101438	-0.260698	0.696864
H193	H	-0.029822	-0.541673	0.240758
N194	N	0.133442	-0.375712	0.747915
H195	H	0.108940	-0.348038	0.769262
H196	H	0.168990	-0.400225	0.758170
N197	N	-0.033902	-0.526311	0.430318
H198	H	-0.076285	-0.508601	0.444684
H199	H	-0.019360	-0.508712	0.387935
N200	N	-0.074704	-0.567183	0.355750
H201	H	-0.112384	-0.573155	0.380200
H202	H	-0.080658	-0.527421	0.328016
N203	N	0.025493	-0.767796	0.355879
H204	H	0.050030	-0.789156	0.328217
H205	H	-0.010064	-0.778022	0.380333
N206	N	0.066100	-0.726914	0.530801
H207	H	0.072127	-0.766694	0.536854
H208	H	0.046844	-0.720814	0.568429
H209	H	0.021495	-0.752433	0.485928
H210	H	0.064563	-0.758931	0.409098
H211	H	-0.073247	-0.865920	0.510699
N212	N	0.115432	-0.873954	0.442699
H213	H	0.136511	-0.846309	0.421966
H214	H	0.130163	-0.898480	0.419699
H215	H	-0.116238	-0.708516	0.529438
H216	H	-0.223112	-0.585171	0.389803
N217	N	-0.231261	-0.676406	0.580323
H218	H	-0.203637	-0.700940	0.601729
H219	H	-0.255784	-0.697659	0.590537
H220	H	-0.115923	-0.621016	0.354266
