data_functionalizedCrystal
_audit_creation_method	'MofGen! by Chris Wilmer'
_symmetry_space_group_name_H-M	'P1'
_symmetry_Int_Tables_number	1
_symmetry_cell_setting	triclinic
loop_
_symmetry_equiv_pos_as_xyz
  x,y,z
_cell_length_a	14.853566
_cell_length_b	14.853559
_cell_length_c	16.176319
_cell_angle_alpha	89.995393
_cell_angle_beta	89.995436
_cell_angle_gamma	83.632934
loop_
_atom_site_label
_atom_site_type_symbol
_atom_site_fract_x
_atom_site_fract_y
_atom_site_fract_z
O1	O	1.196365	0.117702	-0.068688
O2	O	0.933905	0.131724	-0.068701
O3	O	1.072150	-0.006517	-0.068693
O4	O	1.058121	0.255943	-0.068696
O5	O	1.072131	-0.006526	0.068800
O6	O	0.933886	0.131715	0.068792
O7	O	1.196346	0.117693	0.068805
Cu8	Cu	1.065115	0.124703	0.081353
Cu9	Cu	1.065137	0.124714	-0.081249
O10	O	1.058102	0.255934	0.068798
C11	C	0.900307	0.131085	0.000044
C12	C	0.800223	0.129181	0.000039
C13	C	0.377049	0.121135	-0.074894
C14	C	0.377050	0.121126	0.075006
C15	C	0.471084	0.122914	0.075004
C16	C	0.518105	0.123813	0.000051
C17	C	0.471092	0.122926	-0.074899
C18	C	0.518103	0.123811	0.149952
C19	C	0.612142	0.125599	0.149953
C20	C	0.659166	0.126492	0.074999
C21	C	0.612147	0.125604	0.000046
C22	C	0.659168	0.126503	-0.074906
C23	C	0.612152	0.125608	-0.149860
C24	C	0.518115	0.123819	-0.149853
C25	C	0.753203	0.128281	0.074991
C26	C	0.753210	0.128293	-0.074911
C27	C	1.071506	-0.040111	0.000052
C28	C	1.069605	-0.140195	0.000047
C29	C	1.061552	-0.563365	-0.074901
C30	C	1.061531	-0.563369	0.074999
C31	C	1.063325	-0.469336	0.075000
C32	C	1.064230	-0.422313	0.000049
C33	C	1.063343	-0.469323	-0.074902
C34	C	1.064203	-0.422318	0.149951
C35	C	1.065996	-0.328279	0.149954
C36	C	1.066908	-0.281255	0.075003
C37	C	1.066021	-0.328270	0.000048
C38	C	1.066927	-0.281247	-0.074903
C39	C	1.066047	-0.328262	-0.149859
C40	C	1.064255	-0.422299	-0.149854
C41	C	1.068700	-0.187218	0.074998
C42	C	1.068718	-0.187205	-0.074905
C43	C	1.229945	0.118332	0.000059
C44	C	1.330028	0.120236	0.000058
C45	C	1.058745	0.289528	0.000051
C46	C	1.060646	0.389612	0.000050
N47	N	1.065105	0.124695	0.195718
N48	N	1.065154	0.124714	-0.195614
C49	C	1.126339	0.063507	0.238986
C50	C	1.126343	0.063506	0.325533
C51	C	1.065118	0.124698	0.368811
C52	C	1.003878	0.185890	0.325537
C53	C	1.003870	0.185885	0.238992
C54	C	1.003909	0.185907	0.674565
C55	C	1.003924	0.185908	0.761117
C56	C	1.126382	0.063527	0.761107
C57	C	1.126374	0.063523	0.674561
C58	C	1.065131	0.124711	0.631295
C59	C	1.065126	0.124710	0.537451
C60	C	1.065127	0.124704	0.462653
H61	H	1.069460	-0.148926	-0.135940
H62	H	0.479811	0.123084	0.210975
H63	H	0.791488	0.129023	-0.135948
H64	H	0.954007	0.235710	0.203764
O65	O	1.192406	-0.002486	0.627888
H66	H	1.154393	-0.046367	0.588470
O67	O	1.192433	-0.002481	0.807770
H68	H	1.182149	0.007791	0.875222
O69	O	1.067016	-0.277542	-0.230699
H70	H	1.129230	-0.242658	-0.234283
H71	H	1.063538	-0.460586	-0.210879
H72	H	0.338765	0.120403	-0.135920
H73	H	0.954064	0.235740	0.796352
H74	H	0.954045	0.235729	0.639345
H75	H	0.954023	0.235711	0.360779
H76	H	1.176199	0.013681	0.203755
H77	H	0.791478	0.129019	0.136018
O78	O	0.662870	0.126566	-0.230703
H79	H	0.736158	0.127955	-0.218107
O80	O	0.467407	0.122866	-0.230691
H81	H	0.394116	0.121483	-0.218094
O82	O	1.192400	-0.002489	0.372190
H83	H	1.154414	-0.046391	0.411624
H84	H	0.338759	0.120400	0.136029
H85	H	1.060839	-0.601649	-0.135928
O86	O	0.662850	0.126581	0.230790
H87	H	0.614353	0.125659	0.282909
O88	O	1.060572	-0.614082	0.155838
H89	H	1.059188	-0.687372	0.143247
O90	O	1.063248	-0.473034	0.230788
H91	H	1.061875	-0.546324	0.218194
O92	O	1.066965	-0.277580	0.230797
H93	H	1.005224	-0.287671	0.266743
H94	H	1.069396	-0.148940	0.136026
