data_functionalizedCrystal
_audit_creation_method	'MofGen! by Chris Wilmer'
_symmetry_space_group_name_H-M	'P1'
_symmetry_Int_Tables_number	1
_symmetry_cell_setting	triclinic
loop_
_symmetry_equiv_pos_as_xyz
  x,y,z
_cell_length_a	14.908783
_cell_length_b	16.120444
_cell_length_c	14.908308
_cell_angle_alpha	95.986749
_cell_angle_beta	89.788727
_cell_angle_gamma	96.376156
loop_
_atom_site_label
_atom_site_type_symbol
_atom_site_fract_x
_atom_site_fract_y
_atom_site_fract_z
Zn1	Zn	1.328315	-0.293307	-0.602926
Zn2	Zn	1.828315	0.206693	-0.102926
Zn3	Zn	1.329261	-0.425029	-0.459346
Zn4	Zn	1.829261	0.074971	0.040654
Zn5	Zn	1.186681	-0.292400	-0.443851
Zn6	Zn	1.686681	0.207600	0.056149
Zn7	Zn	1.169356	-0.441087	-0.601794
Zn8	Zn	1.669356	0.058913	-0.101794
O9	O	1.253403	-0.362956	-0.526979
O10	O	1.753403	0.137044	-0.026979
O11	O	1.454636	-0.304440	-0.590838
O12	O	1.954636	0.195560	-0.090838
O13	O	1.317994	-0.400335	-0.331102
O14	O	1.817994	0.099665	0.168898
O15	O	1.212323	-0.175169	-0.458941
O16	O	1.712323	0.324831	0.041059
O17	O	1.455331	-0.401215	-0.485350
O18	O	1.955331	0.098785	0.014650
O19	O	1.316381	-0.175835	-0.575813
O20	O	1.816381	0.324165	-0.075813
O21	O	1.213241	-0.302893	-0.319717
O22	O	1.713241	0.197107	0.180283
O23	O	1.058187	-0.318464	-0.457844
O24	O	1.558187	0.181536	0.042156
O25	O	1.182796	-0.428584	-0.728133
O26	O	1.682796	0.071416	-0.228133
O27	O	1.045459	-0.427704	-0.573884
O28	O	1.545459	0.072296	-0.073884
O29	O	1.299582	-0.320011	-0.728964
O30	O	1.799582	0.179989	-0.228964
O31	O	1.301195	-0.544511	-0.484253
O32	O	1.801195	-0.044511	0.015747
O33	O	1.183713	-0.556308	-0.588909
O34	O	1.683713	-0.056308	-0.088909
C35	C	1.019102	-0.374729	-0.514060
C36	C	1.519102	0.125271	-0.014060
C37	C	0.918864	-0.379786	-0.508555
C38	C	1.418864	0.120214	-0.008555
C39	C	0.729762	-0.288675	-0.608240
C40	C	1.229762	0.211325	-0.108240
C41	C	0.635580	-0.293425	-0.603071
C42	C	1.135580	0.206575	-0.103071
C43	C	0.636317	-0.394030	-0.493044
C44	C	1.136317	0.105970	0.006956
C45	C	0.730499	-0.389280	-0.498213
C46	C	1.230499	0.110720	0.001787
C47	C	0.777218	-0.336602	-0.555814
C48	C	1.277218	0.163398	-0.055814
C49	C	0.871402	-0.331858	-0.560988
C50	C	1.371402	0.168142	-0.060988
C51	C	0.872137	-0.432458	-0.450956
C52	C	1.372137	0.067542	0.049044
C53	C	0.777955	-0.437207	-0.445787
C54	C	1.277955	0.062793	0.054213
C55	C	1.240700	-0.580837	-0.538160
C56	C	1.740700	-0.080837	-0.038160
C57	C	1.235346	-0.674045	-0.542978
C58	C	1.735346	-0.174045	-0.042978
C59	C	1.281385	-0.880361	-0.502191
C60	C	1.781385	-0.380361	-0.002191
C61	C	1.225587	-0.844692	-0.551785
C62	C	1.725587	-0.344692	-0.051785
C63	C	1.231019	-0.749735	-0.546884
C64	C	1.731019	-0.249735	-0.046884
C65	C	1.275955	-0.975326	-0.507092
C66	C	1.775955	-0.475326	-0.007092
C67	C	1.488619	-0.351138	-0.539949
C68	C	1.988619	0.148862	-0.039949
C69	C	1.588854	-0.346101	-0.545476
C70	C	2.088854	0.153899	-0.045476
C71	C	1.239151	-0.376190	-0.762183
C72	C	1.739151	0.123810	-0.262183
C73	C	1.233077	-0.381829	-0.862413
C74	C	1.733077	0.118171	-0.362413
C75	C	1.266179	-0.144223	-0.515775
C76	C	1.766179	0.355777	-0.015775
C77	C	1.271624	-0.051013	-0.511001
C78	C	1.771624	0.448987	-0.011001
C79	C	1.343273	-0.279350	-1.051622
C80	C	1.843273	0.220650	-0.551622
C81	C	1.337569	-0.284646	-1.145797
C82	C	1.837569	0.215354	-0.645797
C83	C	1.215963	-0.397712	-1.144938
C84	C	1.715963	0.102288	-0.644938
C85	C	1.221666	-0.392416	-1.050763
C86	C	1.721666	0.107584	-0.550763
C87	C	1.285324	-0.333234	-1.004109
C88	C	1.785324	0.166766	-0.504109
C89	C	1.291032	-0.327943	-0.909932
C90	C	1.791032	0.172057	-0.409932
C91	C	1.169422	-0.441004	-0.909075
C92	C	1.669422	0.058996	-0.409075
C93	C	1.163718	-0.446300	-1.003250
C94	C	1.663718	0.053700	-0.503250
C95	C	1.267655	-0.349710	-0.292690
C96	C	1.767655	0.150290	0.207310
C97	C	1.273917	-0.343826	-0.192458
C98	C	1.773917	0.156174	0.307542
H99	H	0.739904	-0.480093	-0.398887
H100	H	1.239904	0.019907	0.101113
C101	C	1.410652	-0.216707	-0.920243
C102	C	1.910652	0.283293	-0.420243
C103	C	1.360999	-0.262888	-0.858646
C104	C	1.860999	0.237112	-0.358646
H105	H	1.453842	-0.176540	-0.888580
H106	H	1.953842	0.323460	-0.388580
H107	H	1.440792	-0.253573	-0.960745
H108	H	1.940792	0.246427	-0.460745
H109	H	1.370995	-0.188678	-0.953167
H110	H	1.870995	0.311322	-0.453167
H111	H	1.400656	-0.290922	-0.825727
H112	H	1.900656	0.209078	-0.325727
H113	H	1.330858	-0.226017	-0.818128
H114	H	1.830858	0.273983	-0.318128
H115	H	1.333231	-0.839588	-0.456053
H116	H	1.833231	-0.339588	0.043947
H117	H	1.395110	-0.231166	-1.013635
H118	H	1.895110	0.268834	-0.513635
C119	C	1.044091	-0.557530	-0.992942
C120	C	1.544091	-0.057530	-0.492942
C121	C	1.093749	-0.511352	-1.054538
C122	C	1.593749	-0.011352	-0.554538
H123	H	1.000892	-0.597689	-1.024605
H124	H	1.500892	-0.097689	-0.524605
H125	H	1.083737	-0.585563	-0.960024
H126	H	1.583737	-0.085563	-0.460024
H127	H	1.013953	-0.520655	-0.952433
H128	H	1.513953	-0.020655	-0.452433
H129	H	1.123892	-0.548226	-1.095043
H130	H	1.623892	-0.048226	-0.595043
H131	H	1.054096	-0.483318	-1.087471
H132	H	1.554096	0.016682	-0.587471
H133	H	1.384755	-0.240766	-1.184478
H134	H	1.884755	0.259234	-0.684478
C135	C	1.124165	-0.483096	-0.764333
C136	C	1.624165	0.016904	-0.264333
C137	C	1.105718	-0.500238	-0.856847
C138	C	1.605718	-0.000238	-0.356847
H139	H	1.084836	-0.519663	-0.732091
H140	H	1.584836	-0.019663	-0.232091
H141	H	1.184968	-0.491455	-0.752875
H142	H	1.684968	0.008545	-0.252875
H143	H	1.115186	-0.426546	-0.745290
H144	H	1.615186	0.073454	-0.245290
H145	H	1.114703	-0.556787	-0.875892
H146	H	1.614703	-0.056787	-0.375892
H147	H	1.044900	-0.491886	-0.868310
H148	H	1.544900	0.008114	-0.368310
C149	C	0.907989	-0.463049	-0.301864
C150	C	1.407989	0.036951	0.198136
C151	C	0.924302	-0.485144	-0.393323
C152	C	1.424302	0.014856	0.106677
H153	H	0.940190	-0.495581	-0.266289
H154	H	1.440190	0.004419	0.233711
H155	H	0.927503	-0.405179	-0.286722
H156	H	1.427503	0.094821	0.213278
H157	H	0.845208	-0.473417	-0.290551
H158	H	1.345208	0.026583	0.209449
H159	H	0.987082	-0.474770	-0.404637
H160	H	1.487082	0.025230	0.095363
H161	H	0.904793	-0.543028	-0.408470
H162	H	1.404793	-0.043028	0.091530
C163	C	0.861211	-0.232887	-0.669219
C164	C	1.361211	0.267113	-0.169219
C165	C	0.922759	-0.273954	-0.624300
C166	C	1.422759	0.226046	-0.124300
H167	H	0.892917	-0.197135	-0.708301
H168	H	1.392917	0.302865	-0.208301
H169	H	0.820270	-0.273261	-0.703511
H170	H	1.320270	0.226739	-0.203511
H171	H	0.828714	-0.200403	-0.626307
H172	H	1.328714	0.299597	-0.126307
H173	H	0.955251	-0.306443	-0.667212
H174	H	1.455251	0.193557	-0.167212
H175	H	0.963715	-0.233575	-0.590006
H176	H	1.463715	0.266425	-0.090006
C177	C	0.644316	-0.193513	-0.712354
C178	C	1.144316	0.306487	-0.212354
C179	C	0.583415	-0.240748	-0.660705
C180	C	1.083415	0.259252	-0.160705
H181	H	0.612109	-0.160995	-0.747939
H182	H	1.112109	0.339005	-0.247939
H183	H	0.685284	-0.157321	-0.673486
H184	H	1.185284	0.342679	-0.173486
H185	H	0.676846	-0.230191	-0.750676
H186	H	1.176846	0.269809	-0.250676
H187	H	0.550890	-0.204069	-0.622379
H188	H	1.050890	0.295931	-0.122379
H189	H	0.542431	-0.276943	-0.699578
H190	H	1.042431	0.223057	-0.199578
C191	C	0.524589	-0.511429	-0.480293
C192	C	1.024589	-0.011429	0.019707
C193	C	0.584951	-0.451924	-0.429729
C194	C	1.084951	0.048076	0.070271
H195	H	0.492882	-0.547171	-0.441203
H196	H	0.992882	-0.047171	0.058797
H197	H	0.482857	-0.483559	-0.510771
H198	H	0.982857	0.016441	-0.010771
H199	H	0.557097	-0.543919	-0.523187
H200	H	1.057097	-0.043919	-0.023187
H201	H	0.552441	-0.419429	-0.386839
H202	H	1.052441	0.080571	0.113161
H203	H	0.626689	-0.479796	-0.399236
H204	H	1.126689	0.020204	0.100764
C205	C	1.163682	-0.984509	-0.606927
C206	C	1.663682	-0.484509	-0.106927
C207	C	1.155586	-0.899733	-0.614069
C208	C	1.655586	-0.399733	-0.114069
H209	H	1.120462	-1.018490	-0.645372
H210	H	1.620462	-0.518490	-0.145372
H211	H	1.222652	-0.996446	-0.624242
H212	H	1.722652	-0.496446	-0.124242
H213	H	1.153406	-0.996087	-0.546325
H214	H	1.653406	-0.496087	-0.046325
H215	H	1.165868	-0.888153	-0.674671
H216	H	1.665868	-0.388153	-0.174671
H217	H	1.096601	-0.887791	-0.596760
H218	H	1.596601	-0.387791	-0.096760
C219	C	1.153210	-0.456006	-1.288923
C220	C	1.653210	0.043994	-0.788923
C221	C	1.145981	-0.462748	-1.196231
C222	C	1.645981	0.037252	-0.696231
H223	H	1.110005	-0.496157	-1.320587
H224	H	1.610005	0.003843	-0.820587
H225	H	1.142376	-0.401192	-1.300723
H226	H	1.642376	0.098808	-0.800723
H227	H	1.212148	-0.466110	-1.308324
H228	H	1.712148	0.033890	-0.808324
H229	H	1.087044	-0.452637	-1.176829
H230	H	1.587044	0.047363	-0.676829
H231	H	1.156808	-0.517574	-1.184425
H232	H	1.656808	-0.017574	-0.684425
H233	H	0.767802	-0.245787	-0.655146
H234	H	1.267802	0.254213	-0.155146
