data_functionalizedCrystal
_audit_creation_method	'MofGen! by Chris Wilmer'
_symmetry_space_group_name_H-M	'P1'
_symmetry_Int_Tables_number	1
_symmetry_cell_setting	triclinic
loop_
_symmetry_equiv_pos_as_xyz
  x,y,z
_cell_length_a	6.394989
_cell_length_b	10.654550
_cell_length_c	9.730223
_cell_angle_alpha	90.000193
_cell_angle_beta	89.999740
_cell_angle_gamma	85.491307
loop_
_atom_site_label
_atom_site_type_symbol
_atom_site_fract_x
_atom_site_fract_y
_atom_site_fract_z
O1	O	-2.774464	-0.205778	-0.114272
O2	O	-2.166486	-0.216145	-0.114277
O3	O	-2.484453	-0.028370	-0.114269
O4	O	-2.456496	-0.393553	-0.114280
O5	O	-2.484450	-0.028375	0.114311
O6	O	-2.166482	-0.216150	0.114303
O7	O	-2.774460	-0.205783	0.114308
Zn8	Zn	-2.470470	-0.210967	0.150598
Zn9	Zn	-2.470475	-0.210961	-0.150566
O10	O	-2.456492	-0.393558	0.114300
C11	C	-2.482399	0.018447	0.000019
C12	C	-2.476257	0.157955	0.000014
C13	C	-2.458547	-0.440375	0.000009
C14	C	-2.464688	-0.579883	0.000005
N15	N	-2.470482	-0.210971	0.356134
C16	C	-2.088633	-0.214098	0.000020
C17	C	-1.852307	-0.207833	0.000025
N18	N	-2.470480	-0.210947	-0.356103
C19	C	-2.663471	0.235458	0.000020
C20	C	-2.657688	0.366540	0.000011
C21	C	-2.277460	0.342604	-0.000005
C22	C	-2.283245	0.211524	-0.000005
C23	C	-2.882994	0.249279	0.000035
C24	C	-2.877210	0.380361	0.000026
C25	C	-2.611315	-0.127854	0.428064
C26	C	-2.611309	-0.127838	0.571947
C27	C	-2.329632	-0.294069	0.571958
C28	C	-2.329629	-0.294077	0.428077
C29	C	-2.773946	-0.031886	0.428058
C30	C	-2.773940	-0.031870	0.571941
H31	H	-2.130797	0.148425	-0.000029
C32	C	-2.210041	-0.509531	0.616269
C33	C	-2.174810	-0.385420	0.651036
H34	H	-2.114446	-0.565926	0.665081
H35	H	-2.349642	-0.525426	0.639866
H36	H	-2.189891	-0.521417	0.520281
H37	H	-2.194975	-0.373532	0.747023
H38	H	-2.035175	-0.369520	0.627449
H39	H	-2.723181	0.059890	0.616559
H40	H	-2.738275	0.065025	0.389007
C41	C	-2.286724	-0.464306	0.266290
C42	C	-2.174816	-0.385439	0.349013
H43	H	-2.191141	-0.520707	0.217476
H44	H	-2.374312	-0.510891	0.322425
H45	H	-2.370590	-0.414801	0.202851
H46	H	-2.090962	-0.434943	0.412459
H47	H	-2.087191	-0.338849	0.292872
H48	H	-2.925631	-0.064080	0.383433
C49	C	-3.122114	-0.082240	0.512745
C50	C	-2.990666	-0.063208	0.624673
H51	H	-3.255901	-0.101591	0.545303
H52	H	-3.136944	-0.007954	0.458507
H53	H	-3.062654	-0.150099	0.458528
H54	H	-3.050119	0.004658	0.678885
H55	H	-2.975842	-0.137503	0.678934
H56	H	-2.120316	0.386236	-0.000022
H57	H	-2.968858	0.219013	-0.095618
H58	H	-2.943554	0.425303	-0.098668
C59	C	-2.978504	0.068943	0.126557
C60	C	-2.977360	0.200166	0.133265
H61	H	-3.036746	0.038625	0.208814
H62	H	-3.060580	0.046580	0.050323
H63	H	-2.838949	0.032632	0.116008
H64	H	-3.116917	0.236479	0.143804
H65	H	-2.895285	0.222541	0.209521
C66	C	-2.983012	0.566663	0.129144
C67	C	-2.988814	0.435561	0.129172
H68	H	-3.051910	0.600739	0.208871
H69	H	-2.841279	0.587453	0.129119
H70	H	-3.051948	0.600711	0.049431
H71	H	-2.919865	0.401513	0.208881
H72	H	-3.130574	0.414761	0.129211
