data_functionalizedCrystal
_audit_creation_method	'MofGen! by Chris Wilmer'
_symmetry_space_group_name_H-M	'P1'
_symmetry_Int_Tables_number	1
_symmetry_cell_setting	triclinic
loop_
_symmetry_equiv_pos_as_xyz
  x,y,z
_cell_length_a	15.944551
_cell_length_b	15.944551
_cell_length_c	15.021413
_cell_angle_alpha	89.996935
_cell_angle_beta	89.997174
_cell_angle_gamma	96.501262
loop_
_atom_site_label
_atom_site_type_symbol
_atom_site_fract_x
_atom_site_fract_y
_atom_site_fract_z
O1	O	1.114529	-0.108321	-0.073941
O2	O	0.869979	-0.121677	-0.073964
O3	O	0.998932	0.007276	-0.073944
O4	O	0.985576	-0.237274	-0.073961
O5	O	0.998912	0.007257	0.074121
O6	O	0.869959	-0.121695	0.074101
O7	O	1.114508	-0.108339	0.074123
Zn8	Zn	0.992230	-0.115020	0.097620
Zn9	Zn	0.992257	-0.114996	-0.097461
O10	O	0.985555	-0.237292	0.074103
C11	C	0.838675	-0.121132	0.000066
C12	C	0.745429	-0.119470	0.000057
N13	N	0.992218	-0.115036	0.230758
C14	C	0.998367	0.038561	0.000089
C15	C	0.996705	0.131807	0.000089
C16	C	0.530572	-0.035565	0.000081
C17	C	0.469562	-0.074518	-0.072926
C18	C	0.574703	-0.116462	0.000068
C19	C	0.469564	-0.074556	0.073054
C20	C	0.409790	-0.113551	0.000083
C21	C	0.514921	-0.155438	-0.072998
C22	C	0.514930	-0.155464	0.073047
C23	C	0.453937	-0.194476	0.000023
C24	C	0.669705	-0.118137	0.000059
C25	C	0.314789	-0.111883	0.000085
C26	C	1.145813	-0.108885	0.000092
C27	C	1.239059	-0.110547	0.000094
C28	C	0.986120	-0.268577	0.000069
C29	C	0.987782	-0.361823	0.000063
C30	C	0.912801	0.346663	0.000069
C31	C	0.951753	0.407672	0.073077
C32	C	0.993698	0.302533	0.000082
C33	C	0.951792	0.407673	-0.072903
C34	C	0.990787	0.467445	0.000071
C35	C	1.032672	0.362313	0.073150
C36	C	1.032700	0.362308	-0.072895
C37	C	1.071711	0.423298	0.000131
C38	C	0.995372	0.207530	0.000089
C39	C	0.989119	0.562446	0.000070
N40	N	0.992276	-0.114973	-0.230598
C41	C	0.932581	-0.174636	0.470432
C42	C	1.008481	-0.190943	0.529772
C43	C	0.992239	-0.115015	0.412365
C44	C	0.916360	-0.098727	0.529766
C45	C	0.992253	-0.114997	0.587789
C46	C	1.068178	-0.131360	0.470398
C47	C	0.976006	-0.039111	0.470387
C48	C	1.051962	-0.055386	0.529701
C49	C	0.992230	-0.115028	0.311307
C50	C	0.992271	-0.114984	0.688844
H51	H	0.563905	0.031573	-0.000005
N52	N	0.409999	-0.283492	-0.000034
H53	H	0.427224	-0.314306	0.054568
H54	H	0.426492	-0.313852	-0.055239
N55	N	0.831353	-0.080490	0.564312
H56	H	0.792584	-0.072761	0.512510
H57	H	0.838475	-0.027275	0.601315
H58	H	0.449461	-0.040295	-0.134642
N59	N	1.077991	0.335646	-0.154651
H60	H	1.079251	0.272463	-0.153728
H61	H	1.137656	0.364711	-0.155186
H62	H	1.132368	-0.145206	0.444430
H63	H	1.066851	0.342314	0.134941
N64	N	0.541398	-0.200717	-0.154847
H65	H	0.604643	-0.201535	-0.154361
H66	H	0.524459	-0.170358	-0.209872
N67	N	0.865820	-0.241475	0.435964
H68	H	0.893216	-0.283038	0.398039
H69	H	0.823636	-0.213958	0.399001
N70	N	1.160732	0.467226	0.000185
H71	H	1.191162	0.450746	0.055353
H72	H	1.159060	0.530354	-0.000373
N73	N	0.541559	-0.200784	0.154797
H74	H	0.525242	-0.170184	0.209919
H75	H	0.604738	-0.202057	0.153816
N76	N	0.906467	0.434300	-0.154656
H77	H	0.846451	0.406135	-0.154592
H78	H	0.936486	0.416994	-0.209749
H79	H	1.022224	-0.255126	0.555856
H80	H	1.102474	-0.004956	0.555561
N81	N	0.823860	0.302536	0.000149
H82	H	0.792983	0.319723	-0.054425
H83	H	0.793473	0.318923	0.055381
N84	N	0.442941	-0.029231	0.154809
H85	H	0.471107	0.030786	0.154744
H86	H	0.460250	-0.059250	0.209901
N87	N	0.906430	0.434292	0.154836
H88	H	0.846413	0.406129	0.154780
H89	H	0.906187	0.497605	0.154486
N90	N	0.957780	0.045881	0.435807
H91	H	0.900412	0.058127	0.457365
H92	H	0.958509	0.045348	0.368580
