data_functionalizedCrystal
_audit_creation_method	'MofGen! by Chris Wilmer'
_symmetry_space_group_name_H-M	'P1'
_symmetry_Int_Tables_number	1
_symmetry_cell_setting	triclinic
loop_
_symmetry_equiv_pos_as_xyz
  x,y,z
_cell_length_a	14.519731
_cell_length_b	14.044190
_cell_length_c	13.101039
_cell_angle_alpha	93.663707
_cell_angle_beta	86.635759
_cell_angle_gamma	88.440315
loop_
_atom_site_label
_atom_site_type_symbol
_atom_site_fract_x
_atom_site_fract_y
_atom_site_fract_z
O1	O	1.238534	0.119144	-0.085228
O2	O	1.488534	0.369144	0.164772
O3	O	1.738534	0.619144	0.414772
O4	O	1.988534	0.869144	0.664772
O5	O	0.971239	0.133757	-0.085231
O6	O	1.221239	0.383757	0.164769
O7	O	1.471239	0.633757	0.414769
O8	O	1.721239	0.883757	0.664769
O9	O	1.100870	-0.011540	-0.085210
O10	O	1.350870	0.238460	0.164790
O11	O	1.600870	0.488460	0.414790
O12	O	1.850870	0.738460	0.664790
O13	O	1.108903	0.264441	-0.085250
O14	O	1.358903	0.514441	0.164750
O15	O	1.608903	0.764441	0.414750
O16	O	1.858903	1.014441	0.664750
O17	O	1.091571	-0.001098	0.085219
O18	O	1.341571	0.248902	0.335219
O19	O	1.591571	0.498902	0.585219
O20	O	1.841571	0.748902	0.835219
O21	O	0.961940	0.144200	0.085197
O22	O	1.211940	0.394200	0.335197
O23	O	1.461940	0.644200	0.585197
O24	O	1.711940	0.894200	0.835197
O25	O	1.229235	0.129586	0.085200
O26	O	1.479235	0.379586	0.335200
O27	O	1.729235	0.629586	0.585200
O28	O	1.979235	0.879586	0.835200
Zn29	Zn	1.094111	0.138551	0.112258
Zn30	Zn	1.344111	0.388551	0.362258
Zn31	Zn	1.594111	0.638551	0.612258
Zn32	Zn	1.844111	0.888551	0.862258
Zn33	Zn	1.106363	0.124793	-0.112289
Zn34	Zn	1.356363	0.374793	0.137711
Zn35	Zn	1.606363	0.624793	0.387711
Zn36	Zn	1.856363	0.874793	0.637711
O37	O	1.099604	0.274884	0.085178
O38	O	1.349604	0.524884	0.335178
O39	O	1.599604	0.774884	0.585178
O40	O	1.849604	1.024884	0.835178
C41	C	0.932175	0.138294	-0.000017
C42	C	1.182175	0.388294	0.249983
C43	C	1.432175	0.638294	0.499983
C44	C	1.682175	0.888294	0.749983
C45	C	0.829629	0.136242	-0.000017
C46	C	1.079629	0.386242	0.249983
C47	C	1.329629	0.636242	0.499983
C48	C	1.579629	0.886242	0.749983
C49	C	0.746350	0.134574	-0.000021
C50	C	0.996350	0.384574	0.249979
C51	C	1.246350	0.634574	0.499979
C52	C	1.496350	0.884574	0.749979
C53	C	0.641874	0.132491	-0.000021
C54	C	0.891874	0.382491	0.249979
C55	C	1.141874	0.632491	0.499979
C56	C	1.391874	0.882491	0.749979
C57	C	0.558601	0.130838	-0.000021
C58	C	0.808601	0.380838	0.249979
C59	C	1.058601	0.630838	0.499979
C60	C	1.308601	0.880838	0.749979
C61	C	0.454118	0.128754	-0.000023
C62	C	0.704118	0.378754	0.249977
C63	C	0.954118	0.628754	0.499977
C64	C	1.204118	0.878754	0.749977
C65	C	1.092707	-0.041639	0.000007
C66	C	1.342707	0.208361	0.250007
C67	C	1.592707	0.458361	0.500007
C68	C	1.842707	0.708361	0.750007
C69	C	1.082227	-0.146883	0.000016
C70	C	1.332227	0.103117	0.250016
C71	C	1.582227	0.353117	0.500016
C72	C	1.832227	0.603117	0.750016
C73	C	1.137394	-0.397075	-0.000023
C74	C	1.387394	-0.147075	0.249977
C75	C	1.637394	0.102925	0.499977
C76	C	1.887394	0.352925	0.749977
C77	C	1.063084	-0.339577	-0.000017
C78	C	1.313084	-0.089577	0.249983
C79	C	1.563084	0.160423	0.499983
C80	C	1.813084	0.410423	0.749983
C81	C	1.073738	-0.232353	0.000001
C82	C	1.323738	0.017647	0.250001
C83	C	1.573738	0.267647	0.500001
C84	C	1.823738	0.517647	0.750001
C85	C	1.126742	-0.504309	-0.000042
C86	C	1.376742	-0.254309	0.249958
C87	C	1.626742	-0.004309	0.499958
C88	C	1.876742	0.245691	0.749958
C89	C	1.268299	0.125050	-0.000016
C90	C	1.518299	0.375050	0.249984
C91	C	1.768299	0.625050	0.499984
C92	C	2.018299	0.875050	0.749984
C93	C	1.370845	0.127101	-0.000023
C94	C	1.620845	0.377101	0.249977
C95	C	1.870845	0.627101	0.499977
C96	C	2.120845	0.877101	0.749977
C97	C	1.107767	0.304983	-0.000041
C98	C	1.357767	0.554983	0.249959
C99	C	1.607767	0.804983	0.499959
C100	C	1.857767	1.054983	0.749959
C101	C	1.118248	0.410226	-0.000057
C102	C	1.368248	0.660226	0.249943
C103	C	1.618248	0.910226	0.499943
C104	C	1.868248	1.160226	0.749943
N105	N	1.085755	0.147940	0.265505
N106	N	1.335755	0.397940	0.515505
N107	N	1.585755	0.647940	0.765505
N108	N	1.835755	0.897940	1.015505
N109	N	1.114725	0.115396	-0.265536
N110	N	1.364725	0.365396	-0.015536
N111	N	1.614725	0.615396	0.234464
N112	N	1.864725	0.865396	0.484464
C113	C	1.074388	0.160722	0.474545
C114	C	1.324388	0.410722	0.724545
C115	C	1.574388	0.660722	0.974545
C116	C	1.824388	0.910722	1.224545
C117	C	1.126089	0.102617	0.525430
C118	C	1.376089	0.352617	0.775430
C119	C	1.626089	0.602617	1.025430
C120	C	1.876089	0.852617	1.275430
C121	C	1.119765	0.109729	0.641747
C122	C	1.369765	0.359729	0.891747
C123	C	1.619765	0.609729	1.141747
C124	C	1.869765	0.859729	1.391747
C125	C	1.080712	0.153611	0.358218
C126	C	1.330712	0.403611	0.608218
C127	C	1.580712	0.653611	0.858218
C128	C	1.830712	0.903611	1.108218
H129	H	0.991464	-0.370880	-0.000024
H130	H	1.241464	-0.120880	0.249976
H131	H	1.491464	0.129120	0.499976
H132	H	1.741464	0.379120	0.749976
H133	H	1.209008	-0.365773	-0.000012
H134	H	1.459008	-0.115773	0.249988
H135	H	1.709008	0.134227	0.499988
H136	H	1.959008	0.384227	0.749988
H137	H	1.175102	0.047530	0.481636
H138	H	1.425102	0.297530	0.731636
H139	H	1.675102	0.547530	0.981636
H140	H	1.925102	0.797530	1.231636
H141	H	1.025380	0.215807	0.518334
H142	H	1.275380	0.465807	0.768334
H143	H	1.525380	0.715807	1.018334
H144	H	1.775380	0.965807	1.268334
