data_functionalizedCrystal
_audit_creation_method	'MofGen! by Chris Wilmer'
_symmetry_space_group_name_H-M	'P1'
_symmetry_Int_Tables_number	1
_symmetry_cell_setting	triclinic
loop_
_symmetry_equiv_pos_as_xyz
  x,y,z
_cell_length_a	15.995350
_cell_length_b	15.995300
_cell_length_c	14.472310
_cell_angle_alpha	89.985388
_cell_angle_beta	90.001162
_cell_angle_gamma	83.482091
loop_
_atom_site_label
_atom_site_type_symbol
_atom_site_fract_x
_atom_site_fract_y
_atom_site_fract_z
O1	O	0.107720	1.111023	-0.076870
O2	O	0.607720	1.611023	0.423130
O3	O	0.121092	0.867242	-0.076864
O4	O	0.621092	1.367242	0.423136
O5	O	-0.007483	0.995796	-0.076866
O6	O	0.492517	1.495796	0.423134
O7	O	0.236295	0.982468	-0.076868
O8	O	0.736295	1.482468	0.423132
O9	O	-0.007475	0.995763	0.076816
O10	O	0.492525	1.495763	0.576816
O11	O	0.121099	0.867209	0.076818
O12	O	0.621099	1.367209	0.576818
O13	O	0.107728	1.110990	0.076812
O14	O	0.607728	1.610990	0.576812
Cu15	Cu	0.114414	0.989096	0.090847
Cu16	Cu	0.614414	1.489096	0.590847
Cu17	Cu	0.114405	0.989135	-0.090899
Cu18	Cu	0.614405	1.489135	0.409101
O19	O	0.236302	0.982435	0.076814
O20	O	0.736302	1.482435	0.576814
C21	C	0.120550	0.836030	-0.000022
C22	C	0.620550	1.336030	0.499978
C23	C	0.118915	0.743077	-0.000020
C24	C	0.618915	1.243077	0.499980
C25	C	0.115896	0.572894	-0.000027
C26	C	0.615896	1.072894	0.499973
C27	C	0.207443	0.525428	-0.000026
C28	C	0.707443	1.025428	0.499974
C29	C	0.205773	0.428741	-0.000377
C30	C	0.705773	0.928741	0.499623
C31	C	0.112924	0.405337	-0.000033
C32	C	0.612924	0.905337	0.499967
C33	C	0.067499	0.446489	-0.087620
C34	C	0.567499	0.946489	0.412380
C35	C	0.069816	0.543122	-0.087691
C36	C	0.569816	1.043122	0.412309
C37	C	0.068469	0.543364	0.087080
C38	C	0.568469	1.043364	0.587080
C39	C	0.068477	0.446419	0.088229
C40	C	0.568477	0.946419	0.588229
C41	C	0.111239	0.310642	-0.000040
C42	C	0.611239	0.810642	0.499960
C43	C	0.117577	0.667590	-0.000027
C44	C	0.617577	1.167590	0.499973
C45	C	-0.038674	0.995229	-0.000027
C46	C	0.461326	1.495229	0.499973
C47	C	-0.131624	0.993577	-0.000032
C48	C	0.368376	1.493577	0.499968
C49	C	-0.469370	0.987644	-0.000029
C50	C	0.030630	1.487644	0.499971
C51	C	-0.421920	0.896090	-0.000371
C52	C	0.078080	1.396090	0.499629
C53	C	-0.325230	0.897743	-0.000025
C54	C	0.174770	1.397743	0.499975
C55	C	-0.301810	0.990587	-0.000031
C56	C	0.198190	1.490587	0.499969
C57	C	-0.342892	1.035726	0.087726
C58	C	0.157108	1.535726	0.587726
C59	C	-0.439527	1.033426	0.087800
C60	C	0.060473	1.533426	0.587800
C61	C	-0.439894	1.035355	-0.086966
C62	C	0.060106	1.535355	0.413034
C63	C	-0.342949	1.035333	-0.088126
C64	C	0.157051	1.535333	0.411874
C65	C	-0.207113	0.992255	-0.000029
C66	C	0.292887	1.492255	0.499971
C67	C	-0.564068	0.985979	-0.000025
C68	C	-0.064068	1.485979	0.499975
C69	C	0.267493	0.983003	-0.000027
C70	C	0.767493	1.483003	0.499973
C71	C	0.360443	0.984655	-0.000028
C72	C	0.860443	1.484655	0.499972
C73	C	0.108269	1.142202	-0.000032
C74	C	0.608269	1.642202	0.499968
C75	C	0.109904	1.235154	-0.000040
C76	C	0.609904	1.735154	0.499960
N77	N	0.114420	0.989075	0.218678
N78	N	0.614420	1.489075	0.718678
N79	N	0.114393	0.989163	-0.218730
N80	N	0.614393	1.489163	0.281270
C81	C	0.114402	0.989134	0.592769
C82	C	0.614402	1.489134	1.092769
C83	C	0.182969	0.920117	0.553605
C84	C	0.682969	1.420117	1.053605
C85	C	0.183219	0.920276	0.446517
C86	C	0.683219	1.420276	0.946517
C87	C	0.114411	0.989104	0.407178
C88	C	0.614411	1.489104	0.907178
C89	C	0.133477	1.076471	0.446013
C90	C	0.633477	1.576471	0.946013
C91	C	0.133964	1.076083	0.553135
C92	C	0.633964	1.576083	1.053135
C93	C	0.026565	0.971565	0.553300
C94	C	0.526565	1.471565	1.053300
C95	C	0.027152	0.969561	0.446172
C96	C	0.527152	1.469561	0.946172
C97	C	0.114414	0.989092	0.302290
C98	C	0.614414	1.489092	0.802290
C99	C	0.114400	0.989152	0.697658
C100	C	0.614400	1.489152	1.197658
H101	H	0.241306	0.400906	-0.063529
H102	H	0.741306	0.900906	0.436471
F103	F	-0.447799	0.848332	0.081205
F104	F	0.052201	1.348332	0.581205
H105	H	0.102547	0.561456	-0.153412
H106	H	0.602547	1.061456	0.346588
H107	H	0.085992	1.129045	0.579040
H108	H	0.585992	1.629045	1.079040
F109	F	-0.040129	1.037350	0.586402
F110	F	0.459871	1.537350	1.086402
H111	H	-0.457819	1.000483	0.153404
H112	H	0.042181	1.500483	0.653404
H113	H	0.002591	0.575396	-0.091433
H114	H	0.502591	1.075396	0.408567
F115	F	0.107868	0.570140	0.173880
F116	F	0.607868	1.070140	0.673880
F117	F	-0.466729	0.996243	-0.173906
F118	F	0.033271	1.496243	0.326094
F119	F	-0.288073	0.851363	-0.082250
F120	F	0.211927	1.351363	0.417750
H121	H	-0.471787	1.100643	0.091777
H122	H	0.028213	1.600643	0.591777
H123	H	0.101649	0.419066	0.153027
H124	H	0.601649	0.919066	0.653027
F125	F	0.008237	0.885558	0.413000
F126	F	0.508237	1.385558	0.913000
F127	F	-0.324446	1.124881	0.091989
F128	F	0.175554	1.624881	0.591989
H129	H	0.196804	1.092323	0.419175
H130	H	0.696804	1.592323	0.919175
H131	H	-0.315697	1.002331	-0.153046
H132	H	0.184303	1.502331	0.346954
F133	F	0.255715	0.549991	0.081738
F134	F	0.755715	1.049991	0.581738
F135	F	-0.021674	0.428062	-0.091559
F136	F	0.478326	0.928062	0.408441
H137	H	0.000784	0.431080	0.093777
H138	H	0.500784	0.931080	0.593777
F139	F	-0.305786	0.994713	0.173093
F140	F	0.194214	1.494713	0.673093
F141	F	0.108252	0.409472	-0.173141
F142	F	0.608252	0.909472	0.326859
H143	H	0.241466	0.400264	0.062395
H144	H	0.741466	0.900264	0.562395
F145	F	-0.019749	0.584916	0.088193
F146	F	0.480251	1.084916	0.588193
F147	F	-0.322882	1.123831	-0.095063
F148	F	0.177118	1.623831	0.404937
F149	F	-0.446135	0.848275	-0.082629
F150	F	0.053865	1.348275	0.417371
F151	F	0.267691	0.934586	0.588760
F152	F	0.767691	1.434586	1.088760
H153	H	0.248401	0.931495	0.420882
H154	H	0.748401	1.431495	0.920882
F155	F	-0.288792	0.851013	0.082341
F156	F	0.211208	1.351013	0.582341
H157	H	0.243683	0.545050	-0.062741
H158	H	0.743683	1.045050	0.437259
F159	F	-0.481424	1.123585	-0.087745
F160	F	0.018576	1.623585	0.412255
F161	F	0.168417	0.835381	0.412198
F162	F	0.668417	1.335381	0.912198
H163	H	0.198022	1.091565	0.578109
H164	H	0.698022	1.591565	1.078109
H165	H	0.171799	0.854965	0.579394
H166	H	0.671799	1.354965	1.079394
F167	F	0.069936	1.145206	0.412708
F168	F	0.569936	1.645206	0.912708
F169	F	0.002610	0.890088	0.588655
F170	F	0.502610	1.390088	1.088655
H171	H	-0.026262	1.016565	0.419398
H172	H	0.473738	1.516565	0.919398
