data_functionalizedCrystal
_audit_creation_method	'MofGen! by Chris Wilmer'
_symmetry_space_group_name_H-M	'P1'
_symmetry_Int_Tables_number	1
_symmetry_cell_setting	triclinic
loop_
_symmetry_equiv_pos_as_xyz
  x,y,z
_cell_length_a	23.532355
_cell_length_b	23.532353
_cell_length_c	16.098538
_cell_angle_alpha	87.300796
_cell_angle_beta	92.717066
_cell_angle_gamma	82.826995
loop_
_atom_site_label
_atom_site_type_symbol
_atom_site_fract_x
_atom_site_fract_y
_atom_site_fract_z
O1	O	-0.757828	-0.066438	-0.069191
O2	O	-0.591959	-0.076472	-0.069211
O3	O	-0.679911	0.011479	-0.069182
O4	O	-0.669876	-0.154389	-0.069219
O5	O	-0.674773	0.006362	0.069329
O6	O	-0.586821	-0.081589	0.069301
O7	O	-0.752690	-0.071556	0.069320
Zn8	Zn	-0.668940	-0.077385	0.091302
Zn9	Zn	-0.675709	-0.070642	-0.091192
O10	O	-0.664739	-0.159507	0.069292
C11	C	-0.568174	-0.078780	0.000043
C12	C	-0.504956	-0.078025	0.000036
C13	C	-0.677091	0.030137	0.000076
C14	C	-0.676337	0.093355	0.000084
N15	N	-0.664325	-0.081986	0.215850
C16	C	-0.234512	-0.071938	-0.075458
C17	C	-0.293912	-0.072651	-0.075460
O18	O	-0.327019	-0.070628	-0.139671
N19	N	-0.320817	-0.075802	0.000042
C20	C	-0.288320	-0.078233	0.075552
O21	O	-0.316659	-0.080977	0.139773
C22	C	-0.228922	-0.077515	0.075554
C23	C	-0.202019	-0.074370	0.000047
C24	C	-0.207609	-0.068793	-0.150959
C25	C	-0.148213	-0.068080	-0.150956
C26	C	-0.115720	-0.070513	-0.075451
C27	C	-0.142623	-0.073658	0.000050
C28	C	-0.196426	-0.079941	0.151063
C29	C	-0.137024	-0.079223	0.151059
C30	C	-0.110121	-0.076078	0.075552
C31	C	-0.050734	-0.075377	0.075558
N32	N	-0.023829	-0.072227	0.000055
C33	C	-0.056322	-0.069795	-0.075449
C34	C	-0.413060	-0.079739	0.075542
C35	C	-0.472457	-0.080461	0.075541
C36	C	-0.478045	-0.074879	-0.075472
C37	C	-0.418647	-0.074161	-0.075470
C38	C	-0.386155	-0.076589	0.000040
C39	C	0.068414	-0.068299	-0.075437
C40	C	0.127816	-0.067589	-0.075427
C41	C	0.133398	-0.073168	0.075585
C42	C	0.074002	-0.073881	0.075576
C43	C	0.041511	-0.071444	0.000058
O44	O	-0.017590	-0.077396	0.139736
O45	O	-0.027976	-0.067043	-0.139659
C46	C	0.223525	-0.069253	0.000068
C47	C	0.160309	-0.070021	0.000077
C48	C	-0.674409	0.488158	-0.075461
C49	C	-0.673693	0.547557	-0.075465
O50	O	-0.675684	0.580646	-0.139677
N51	N	-0.670537	0.574479	0.000036
C52	C	-0.668091	0.541997	0.075547
O53	O	-0.665341	0.570350	0.139767
C54	C	-0.668803	0.482598	0.075551
C55	C	-0.671965	0.455680	0.000044
C56	C	-0.677569	0.461240	-0.150961
C57	C	-0.678287	0.401844	-0.150957
C58	C	-0.675843	0.369367	-0.075451
C59	C	-0.672682	0.396285	0.000049
C60	C	-0.666354	0.450116	0.151061
C61	C	-0.667066	0.390713	0.151058
C62	C	-0.670227	0.363796	0.075551
C63	C	-0.670956	0.304412	0.075559
N64	N	-0.674112	0.277490	0.000057
C65	C	-0.676555	0.309968	-0.075448
C66	C	-0.666595	0.666739	0.075534
C67	C	-0.665887	0.726137	0.075532
C68	C	-0.671487	0.731694	-0.075481
C69	C	-0.672199	0.672295	-0.075478
C70	C	-0.669751	0.639817	0.000033
C71	C	-0.678062	0.185233	-0.075432
C72	C	-0.678781	0.125833	-0.075421
C73	C	-0.673178	0.120281	0.075591
C74	C	-0.672461	0.179677	0.075581
C75	C	-0.674902	0.212151	0.000062
O76	O	-0.668963	0.271286	0.139738
O77	O	-0.679298	0.281606	-0.139657
C78	C	-0.667562	0.821836	0.000034
C79	C	-0.668328	0.758620	0.000026
N80	N	-0.680329	-0.066036	-0.215740
C81	C	-0.701668	-0.044670	0.259447
C82	C	-0.698445	-0.047894	0.346635
C83	C	-0.657880	-0.088438	0.390224
C84	C	-0.620532	-0.125756	0.346621
C85	C	-0.623754	-0.122529	0.259435
C86	C	-0.646203	-0.100128	0.653470
C87	C	-0.642986	-0.103353	0.740663
C88	C	-0.720898	-0.025489	0.740671
C89	C	-0.724118	-0.022268	0.653483
C90	C	-0.686768	-0.059584	0.609887
C91	C	-0.654585	-0.091736	0.479344
C92	C	-0.690060	-0.056284	0.520769
H93	H	0.149717	-0.065030	-0.136917
H94	H	-0.234059	-0.066810	-0.212447
H95	H	-0.615792	-0.130513	0.617982
F96	F	-0.664459	0.356152	0.231429
F97	F	-0.662986	0.478751	0.231427
H98	H	0.041967	-0.066316	-0.136931
F99	F	0.167990	-0.075759	0.155938
H100	H	-0.757149	0.010746	0.617994
H101	H	-0.751305	0.004892	0.776174
H102	H	-0.593344	-0.152916	0.223939
F103	F	-0.599809	-0.146510	0.787049
F104	F	-0.225045	-0.083288	0.231430
F105	F	-0.670578	0.085706	0.155945
F106	F	-0.390020	-0.070813	-0.155834
F107	F	-0.744846	-0.001519	0.213064
F108	F	-0.682148	0.097189	-0.155789
H109	H	-0.110572	-0.081205	0.212550
H110	H	-0.680046	0.211667	-0.136927
F111	F	0.045370	-0.077236	0.155939
H112	H	-0.587501	-0.158767	0.382117
H113	H	-0.386608	-0.081723	0.137035
F114	F	-0.611414	-0.134887	0.525740
F115	F	-0.669107	0.208327	0.155942
F116	F	-0.119589	-0.064729	-0.231322
F117	F	-0.681648	0.373204	-0.231322
F118	F	-0.662532	0.754780	0.155896
F119	F	-0.512637	-0.072291	-0.155831
H120	H	-0.723086	-0.023270	0.485276
H121	H	-0.494355	-0.083031	0.137027
F122	F	-0.680170	0.495796	-0.231331
H123	H	-0.674773	0.650382	-0.136962
F124	F	-0.674084	0.766268	-0.155841
H125	H	-0.664603	0.640299	0.137028
H126	H	-0.728853	-0.017507	0.382131
