data_functionalizedCrystal
_audit_creation_method	'MofGen! by Chris Wilmer'
_symmetry_space_group_name_H-M	'P1'
_symmetry_Int_Tables_number	1
_symmetry_cell_setting	triclinic
loop_
_symmetry_equiv_pos_as_xyz
  x,y,z
_cell_length_a	13.635800
_cell_length_b	19.361512
_cell_length_c	19.551595
_cell_angle_alpha	79.423406
_cell_angle_beta	78.339497
_cell_angle_gamma	81.486387
loop_
_atom_site_label
_atom_site_type_symbol
_atom_site_fract_x
_atom_site_fract_y
_atom_site_fract_z
V1	V	1.924794	-0.218270	0.097436
O2	O	1.982553	-0.213696	-0.003914
O3	O	1.841226	-0.217179	0.192459
O4	O	1.889302	-0.313281	0.096274
O5	O	1.934145	-0.116929	0.092938
V6	V	2.175764	-0.206100	0.085273
O7	O	2.035224	-0.244965	0.124115
O8	O	2.290434	-0.179404	0.058594
O9	O	2.147730	-0.207190	-0.009750
O10	O	2.176704	-0.210673	0.186623
O11	O	2.225113	-0.307440	0.089772
O12	O	2.099654	-0.111088	0.086435
V13	V	2.424794	-0.218270	0.097436
O14	O	2.482553	-0.213696	-0.003914
O15	O	2.341226	-0.217179	0.192459
O16	O	2.389302	-0.313281	0.096274
O17	O	2.434145	-0.116929	0.092938
V18	V	2.675764	-0.206100	0.085273
O19	O	2.535224	-0.244965	0.124115
O20	O	2.790434	-0.179404	0.058594
O21	O	2.647730	-0.207190	-0.009750
O22	O	2.676704	-0.210673	0.186623
O23	O	2.725113	-0.307440	0.089772
O24	O	2.599654	-0.111088	0.086435
C25	C	1.749649	-0.213840	0.215614
C26	C	1.721890	-0.213582	0.293299
C27	C	1.703218	-0.149424	0.319585
C28	C	1.677149	-0.149172	0.392577
C29	C	1.669746	-0.213078	0.439283
C30	C	1.688424	-0.277240	0.412992
C31	C	1.714499	-0.277492	0.340001
C32	C	1.810974	-0.336426	0.092919
C33	C	1.822204	-0.414101	0.092598
C34	C	2.070975	-0.210527	-0.032901
C35	C	2.088352	-0.210790	-0.110585
C36	C	2.009651	-0.087939	0.089792
C37	C	1.988043	-0.010264	0.090110
C38	C	1.966362	0.015971	0.154292
C39	C	1.946052	0.088954	0.154598
C40	C	1.947445	0.135701	0.090719
C41	C	1.969125	0.109458	0.026529
C42	C	1.989424	0.036476	0.026224
C43	C	1.981290	0.261473	0.039897
C44	C	1.960997	0.334454	0.040204
C45	C	1.884832	0.360802	0.091655
C46	C	1.828974	0.314160	0.142811
C47	C	1.849273	0.241177	0.142506
C48	C	1.925435	0.214839	0.091042
C49	C	1.841127	0.466173	0.156174
C50	C	1.820811	0.539157	0.156478
C51	C	1.843895	0.559661	0.028406
C52	C	1.864199	0.486677	0.028104
C53	C	1.862819	0.439937	0.091990
C54	C	2.185501	-0.207465	-0.150640
C55	C	2.201850	-0.207802	-0.223618
C56	C	2.121049	-0.211478	-0.256537
C57	C	2.023886	-0.214799	-0.216475
C58	C	2.007537	-0.214455	-0.143499
C59	C	2.088647	-0.255858	-0.362806
C60	C	2.104999	-0.256207	-0.435780
C61	C	2.171467	-0.212535	-0.481620
C62	C	2.221599	-0.168525	-0.454476
C63	C	2.205251	-0.168181	-0.381500
C64	C	2.138765	-0.211851	-0.335667
C65	C	2.286349	-0.209574	-0.600806
C66	C	2.302694	-0.209907	-0.673787
C67	C	2.124728	-0.216911	-0.666640
C68	C	2.108385	-0.216572	-0.593663
C69	C	2.189200	-0.212906	-0.560749
C70	C	2.249649	-0.213840	0.215614
C71	C	2.221890	-0.213582	0.293299
C72	C	2.310974	-0.336426	0.092919
C73	C	2.322204	-0.414101	0.092598
C74	C	2.570975	-0.210527	-0.032901
C75	C	2.588352	-0.210790	-0.110585
C76	C	2.509651	-0.087939	0.089792
C77	C	2.488043	-0.010264	0.090110
C78	C	2.415901	-0.454154	0.095944
C79	C	2.426470	-0.527137	0.095633
C80	C	2.343338	-0.560066	0.091982
C81	C	2.249634	-0.520007	0.088634
C82	C	2.239069	-0.447025	0.088939
C83	C	2.685496	-0.207407	-0.150642
C84	C	2.701835	-0.207642	-0.223637
C85	C	2.621030	-0.211266	-0.256574
C86	C	2.523877	-0.214647	-0.216512
C87	C	2.507539	-0.214407	-0.143519
C88	C	2.388947	0.022647	0.093753
C89	C	2.368632	0.095632	0.094043
C90	C	2.447413	0.135705	0.090695
C91	C	2.546518	0.102789	0.087049
C92	C	2.566833	0.029806	0.086754
H93	H	1.709235	-0.097381	0.281565
H94	H	2.610656	0.135427	0.084320
H95	H	2.287930	0.122421	0.097012
N96	N	2.500820	-0.420515	0.099661
N97	N	2.491393	-0.355352	0.099929
H98	H	2.551373	-0.331596	0.102551
N99	N	2.009146	-0.219963	-0.552745
N100	N	1.939526	-0.172830	-0.566456
H101	H	1.869433	-0.175223	-0.537559
H102	H	2.428434	-0.217168	-0.110909
N103	N	2.289430	-0.123872	-0.501305
N104	N	2.303971	-0.124149	-0.566465
H105	H	2.351852	-0.092599	-0.599544
H106	H	2.634348	-0.211460	-0.316010
H107	H	2.324787	-0.009971	0.096480
N108	N	2.018033	0.382105	-0.012048
N109	N	1.999899	0.447266	-0.011772
H110	H	2.040180	0.480919	-0.048677
H111	H	1.881858	0.465318	-0.024160
H112	H	1.965235	-0.022081	0.206312
H113	H	1.928428	-0.217168	-0.110886
H114	H	1.682394	-0.329271	0.451030
H115	H	2.458091	-0.217596	-0.243340
H116	H	2.751304	-0.204457	-0.123835
H117	H	2.430856	0.195130	0.090944
H118	H	2.043318	0.240028	-0.002001
H119	H	1.970254	0.147524	-0.025483
H120	H	2.007081	0.015117	-0.026042
N121	N	2.668067	-0.003796	0.083033
N122	N	2.738390	0.031997	0.080045
H123	H	2.809892	0.008269	0.077416
H124	H	1.661941	-0.096921	0.413971
H125	H	1.729697	-0.329739	0.318606
H126	H	2.251308	-0.204478	-0.123847
H127	H	1.928393	0.110318	0.206865
H128	H	1.648512	-0.212863	0.498715
H129	H	1.803788	0.203204	0.184158
H130	H	2.351955	-0.619493	0.091734
N131	N	1.751176	0.341074	0.195368
N132	N	1.733053	0.406237	0.195632
H133	H	1.678111	0.425250	0.232750
N134	N	2.164822	-0.553722	0.084842
N135	N	2.167625	-0.585729	0.034348
H136	H	2.107763	-0.609571	0.031652
N137	N	1.839712	0.418434	0.221434
N138	N	1.820340	0.441871	0.278738
H139	H	1.819340	0.408158	0.324829
H140	H	2.058937	-0.219903	-0.693443
N141	N	1.798687	0.565947	0.222048
N142	N	1.797479	0.524205	0.279078
H143	H	1.781865	0.543125	0.325388
H144	H	1.845019	0.597721	-0.023605
H145	H	2.280961	-0.205090	-0.256237
H146	H	2.246069	-0.132345	-0.359402
H147	H	2.352153	-0.206586	-0.574008
H148	H	2.064182	-0.292046	-0.457875
N149	N	2.401939	-0.206501	-0.714695
N150	N	2.474078	-0.203226	-0.685296
H151	H	2.544172	-0.200820	-0.714187
H152	H	2.034510	-0.291417	-0.325489
H153	H	2.162768	-0.414419	0.086216
H154	H	2.780947	-0.204890	-0.256246
H155	H	2.502774	-0.559744	0.098362
N156	N	1.941357	-0.218547	-0.250109
N157	N	1.955965	-0.218854	-0.315266
H158	H	1.897676	-0.221498	-0.339022
