data_functionalizedCrystal
_audit_creation_method	'MofGen! by Chris Wilmer'
_symmetry_space_group_name_H-M	'P1'
_symmetry_Int_Tables_number	1
_symmetry_cell_setting	triclinic
loop_
_symmetry_equiv_pos_as_xyz
  x,y,z
_cell_length_a	19.077105
_cell_length_b	19.077174
_cell_length_c	18.215405
_cell_angle_alpha	92.269720
_cell_angle_beta	87.721119
_cell_angle_gamma	85.483752
loop_
_atom_site_label
_atom_site_type_symbol
_atom_site_fract_x
_atom_site_fract_y
_atom_site_fract_z
Zn1	Zn	1.093703	-0.441824	-0.357575
Zn2	Zn	1.088887	-0.323930	-0.475490
Zn3	Zn	0.971088	-0.319222	-0.347287
Zn4	Zn	0.975781	-0.437048	-0.475442
O5	O	1.032365	-0.380506	-0.413949
O6	O	1.191715	-0.430155	-0.377542
O7	O	1.069282	-0.224656	-0.454198
O8	O	0.987405	-0.335514	-0.245671
O9	O	1.188176	-0.343538	-0.464174
O10	O	1.077490	-0.425590	-0.253229
O11	O	0.982735	-0.221197	-0.360009
O12	O	0.873061	-0.330883	-0.359962
O13	O	0.995403	-0.536331	-0.464092
O14	O	0.876509	-0.417449	-0.454116
O15	O	1.082040	-0.539840	-0.377495
O16	O	1.073832	-0.338907	-0.578464
O17	O	0.990734	-0.422014	-0.578429
C18	C	0.849206	-0.373137	-0.405918
C19	C	0.770850	-0.370002	-0.402501
C20	C	0.735849	-0.413528	-0.449985
C21	C	0.662226	-0.410585	-0.446765
C22	C	0.623605	-0.364112	-0.396064
C23	C	0.658611	-0.320584	-0.348575
C24	C	0.732233	-0.323531	-0.351792
C25	C	0.403224	-0.350476	-0.381175
C26	C	0.329597	-0.347531	-0.377963
C27	C	0.333217	-0.437533	-0.476152
C28	C	0.406840	-0.440473	-0.479367
C29	C	0.441840	-0.396948	-0.431876
N30	N	0.548350	-0.361101	-0.392773
N31	N	0.517094	-0.399963	-0.435164
C32	C	1.039782	-0.564380	-0.421936
C33	C	1.042943	-0.642736	-0.425339
C34	C	0.999370	-0.677746	-0.377900
C35	C	1.002337	-0.751370	-0.381104
C36	C	1.048882	-0.789982	-0.431744
C37	C	1.092457	-0.754966	-0.479189
C38	C	1.089485	-0.681344	-0.475988
C39	C	1.062597	-1.010362	-0.446580
C40	C	1.065566	-1.083990	-0.449776
C41	C	0.975445	-1.080388	-0.351691
C42	C	0.972481	-1.006764	-0.348492
C43	C	1.016054	-0.971755	-0.395939
N44	N	1.051917	-0.865237	-0.435019
N45	N	1.013014	-0.896501	-0.392667
C46	C	1.216239	-0.387904	-0.422011
C47	C	1.294596	-0.391057	-0.425446
C48	C	1.032289	-0.380469	-0.605150
C49	C	1.032322	-0.380480	-0.686951
C50	C	1.025017	-0.197350	-0.405941
C51	C	1.021993	-0.119000	-0.402336
C52	C	1.075701	-0.337293	-0.875147
C53	C	1.075733	-0.337311	-0.952008
C54	C	0.989121	-0.423774	-0.952004
C55	C	0.989093	-0.423759	-0.875145
C56	C	1.032382	-0.380514	-0.836718
C57	C	1.032442	-0.380548	-0.990438
C58	C	1.032477	-0.380568	-1.073774
C59	C	1.032349	-0.380495	-0.753377
C60	C	1.032461	-0.380560	-0.222002
C61	C	1.032502	-0.380582	-0.140206
H62	H	0.431712	-0.315029	-0.342509
Cl63	Cl	0.934702	-0.478133	-1.000317
Cl64	Cl	1.130122	-0.282931	-0.826842
H65	H	0.767289	-0.451369	-0.491273
Cl66	Cl	0.618228	-0.465307	-0.506462
Cl67	Cl	0.455387	-0.498897	-0.543110
H68	H	0.966853	-0.779872	-0.342476
H69	H	0.627160	-0.282747	-0.307290
Cl70	Cl	0.289213	-0.492246	-0.535852
Cl71	Cl	0.281045	-0.289098	-0.314225
H72	H	1.103471	-1.115426	-0.491014
H73	H	1.111009	-0.302117	-0.983293
Cl74	Cl	0.776234	-0.268811	-0.292094
H75	H	0.953818	-0.458958	-0.843854
H76	H	0.961473	-0.646313	-0.336659
Cl77	Cl	0.913967	-0.958229	-0.284825
Cl78	Cl	0.920670	-1.124404	-0.292050
H79	H	1.124973	-0.652839	-0.514613
Cl80	Cl	1.117379	-0.966360	-0.506223
H81	H	1.130351	-0.786410	-0.520425
