data_functionalizedCrystal
_audit_creation_method	'MofGen! by Chris Wilmer'
_symmetry_space_group_name_H-M	'P1'
_symmetry_Int_Tables_number	1
_symmetry_cell_setting	triclinic
loop_
_symmetry_equiv_pos_as_xyz
  x,y,z
_cell_length_a	11.792254
_cell_length_b	14.044190
_cell_length_c	10.268362
_cell_angle_alpha	89.989939
_cell_angle_beta	89.995475
_cell_angle_gamma	88.695187
loop_
_atom_site_label
_atom_site_type_symbol
_atom_site_fract_x
_atom_site_fract_y
_atom_site_fract_z
O1	O	1.519112	0.130045	-0.108315
O2	O	1.769112	0.380045	0.141685
O3	O	2.019112	0.630045	0.391685
O4	O	2.269112	0.880045	0.641685
O5	O	1.190030	0.143429	-0.108320
O6	O	1.440030	0.393429	0.141680
O7	O	1.690030	0.643429	0.391680
O8	O	1.940030	0.893429	0.641680
O9	O	1.349627	-0.001273	-0.108292
O10	O	1.599627	0.248727	0.141708
O11	O	1.849627	0.498727	0.391708
O12	O	2.099627	0.748727	0.641708
O13	O	1.359515	0.274747	-0.108343
O14	O	1.609515	0.524747	0.141657
O15	O	1.859515	0.774747	0.391657
O16	O	2.109515	1.024747	0.641657
O17	O	1.349612	-0.001279	0.108309
O18	O	1.599612	0.248721	0.358309
O19	O	1.849612	0.498721	0.608309
O20	O	2.099612	0.748721	0.858309
O21	O	1.190014	0.143423	0.108281
O22	O	1.440014	0.393423	0.358281
O23	O	1.690014	0.643423	0.608281
O24	O	1.940014	0.893423	0.858281
O25	O	1.519097	0.130039	0.108286
O26	O	1.769097	0.380039	0.358286
O27	O	2.019097	0.630039	0.608286
O28	O	2.269097	0.880039	0.858286
Cu29	Cu	1.354554	0.136730	0.128061
Cu30	Cu	1.604554	0.386730	0.378061
Cu31	Cu	1.854554	0.636730	0.628061
Cu32	Cu	2.104554	0.886730	0.878061
Cu33	Cu	1.354573	0.136738	-0.128095
Cu34	Cu	1.604573	0.386738	0.121905
Cu35	Cu	1.854573	0.636738	0.371905
Cu36	Cu	2.104573	0.886738	0.621905
O37	O	1.359499	0.274741	0.108258
O38	O	1.609499	0.524741	0.358258
O39	O	1.859499	0.774741	0.608258
O40	O	2.109499	1.024741	0.858258
C41	C	1.147652	0.142583	-0.000019
C42	C	1.397652	0.392583	0.249981
C43	C	1.647652	0.642583	0.499981
C44	C	1.897652	0.892583	0.749981
C45	C	1.021402	0.140059	-0.000020
C46	C	1.271402	0.390059	0.249980
C47	C	1.521402	0.640059	0.499980
C48	C	1.771402	0.890059	0.749980
C49	C	0.918873	0.138009	-0.000025
C50	C	1.168873	0.388009	0.249975
C51	C	1.418873	0.638009	0.499975
C52	C	1.668873	0.888009	0.749975
C53	C	0.790246	0.135445	-0.000026
C54	C	1.040246	0.385445	0.249974
C55	C	1.290246	0.635445	0.499974
C56	C	1.540246	0.885445	0.749974
C57	C	1.345294	-0.036613	0.000012
C58	C	1.595294	0.213387	0.250012
C59	C	1.845294	0.463387	0.500012
C60	C	2.095294	0.713387	0.750012
C61	C	1.332392	-0.141906	0.000023
C62	C	1.582392	0.108094	0.250023
C63	C	1.832392	0.358094	0.500023
C64	C	2.082392	0.608094	0.750023
C65	C	1.400309	-0.391841	-0.000027
C66	C	1.650309	-0.141841	0.249973
C67	C	1.900309	0.108159	0.499973
C68	C	2.150309	0.358159	0.749973
C69	C	1.308822	-0.334686	-0.000019
C70	C	1.558822	-0.084686	0.249981
C71	C	1.808822	0.165314	0.499981
C72	C	2.058822	0.415314	0.749981
C73	C	1.321940	-0.227413	0.000005
C74	C	1.571940	0.022587	0.250005
C75	C	1.821940	0.272587	0.500005
C76	C	2.071940	0.522587	0.750005
C77	C	1.387194	-0.499123	-0.000050
C78	C	1.637194	-0.249123	0.249950
C79	C	1.887194	0.000877	0.499950
C80	C	2.137194	0.250877	0.749950
C81	C	1.561474	0.130885	-0.000017
C82	C	1.811474	0.380885	0.249983
C83	C	2.061474	0.630885	0.499983
C84	C	2.311474	0.880885	0.749983
C85	C	1.687724	0.133409	-0.000025
C86	C	1.937724	0.383409	0.249975
C87	C	2.187724	0.633409	0.499975
C88	C	2.437724	0.883409	0.749975
C89	C	1.363832	0.310081	-0.000049
C90	C	1.613832	0.560081	0.249951
C91	C	1.863832	0.810081	0.499951
C92	C	2.113832	1.060081	0.749951
C93	C	1.376735	0.415374	-0.000069
C94	C	1.626735	0.665374	0.249931
C95	C	1.876735	0.915374	0.499931
C96	C	2.126735	1.165374	0.749931
N97	N	1.354549	0.136725	0.308227
N98	N	1.604549	0.386725	0.558227
N99	N	1.854549	0.636725	0.808227
N100	N	2.104549	0.886725	1.058227
N101	N	1.354586	0.136736	-0.308261
N102	N	1.604586	0.386736	-0.058261
N103	N	1.854586	0.636736	0.191739
N104	N	2.104586	0.886736	0.441739
C105	C	1.354567	0.136736	0.573897
C106	C	1.604567	0.386736	0.823897
C107	C	1.854567	0.636736	1.073897
C108	C	2.104567	0.886736	1.323897
C109	C	1.354554	0.136732	0.426059
C110	C	1.604554	0.386732	0.676059
C111	C	1.854554	0.636732	0.926059
C112	C	2.104554	0.886732	1.176059
H113	H	1.220647	-0.366317	-0.000028
H114	H	1.470647	-0.116317	0.249972
H115	H	1.720647	0.133683	0.499972
H116	H	1.970647	0.383683	0.749972
H117	H	1.488478	-0.360211	-0.000012
H118	H	1.738478	-0.110211	0.249988
H119	H	1.988478	0.139789	0.499988
H120	H	2.238478	0.389789	0.749988
