data_functionalizedCrystal
_audit_creation_method	'MofGen! by Chris Wilmer'
_symmetry_space_group_name_H-M	'P1'
_symmetry_Int_Tables_number	1
_symmetry_cell_setting	triclinic
loop_
_symmetry_equiv_pos_as_xyz
  x,y,z
_cell_length_a	16.109302
_cell_length_b	19.188930
_cell_length_c	15.186229
_cell_angle_alpha	90.005403
_cell_angle_beta	90.007553
_cell_angle_gamma	83.303281
loop_
_atom_site_label
_atom_site_type_symbol
_atom_site_fract_x
_atom_site_fract_y
_atom_site_fract_z
O1	O	1.102836	0.089743	0.073278
O2	O	1.352836	0.339743	0.323278
O3	O	1.602836	0.589743	0.573278
O4	O	1.852836	0.839743	0.823278
O5	O	0.860737	0.100910	0.073273
O6	O	1.110737	0.350910	0.323273
O7	O	1.360737	0.600910	0.573273
O8	O	1.610737	0.850910	0.823273
O9	O	0.988773	-0.006313	0.073258
O10	O	1.238773	0.243687	0.323258
O11	O	1.488773	0.493687	0.573258
O12	O	1.738773	0.743687	0.823258
O13	O	0.974800	0.196966	0.073292
O14	O	1.224800	0.446966	0.323292
O15	O	1.474800	0.696966	0.573292
O16	O	1.724800	0.946966	0.823292
O17	O	0.988758	-0.006307	-0.073199
O18	O	1.238758	0.243693	0.176801
O19	O	1.488758	0.493693	0.426801
O20	O	1.738758	0.743693	0.676801
O21	O	0.860722	0.100917	-0.073185
O22	O	1.110722	0.350917	0.176815
O23	O	1.360722	0.600917	0.426815
O24	O	1.610722	0.850917	0.676815
O25	O	1.102821	0.089749	-0.073179
O26	O	1.352821	0.339749	0.176821
O27	O	1.602821	0.589749	0.426821
O28	O	1.852821	0.839749	0.676821
Zn29	Zn	0.981769	0.095334	-0.096435
Zn30	Zn	1.231769	0.345334	0.153565
Zn31	Zn	1.481769	0.595334	0.403565
Zn32	Zn	1.731769	0.845334	0.653565
Zn33	Zn	0.981789	0.095326	0.096529
Zn34	Zn	1.231789	0.345326	0.346529
Zn35	Zn	1.481789	0.595326	0.596529
Zn36	Zn	1.731789	0.845326	0.846529
O37	O	0.974785	0.196972	-0.073165
O38	O	1.224785	0.446972	0.176835
O39	O	1.474785	0.696972	0.426835
O40	O	1.724785	0.946972	0.676835
C41	C	0.829756	0.100461	0.000043
C42	C	1.079756	0.350461	0.250043
C43	C	1.329756	0.600461	0.500043
C44	C	1.579756	0.850461	0.750043
C45	C	0.737466	0.099105	0.000040
C46	C	0.987466	0.349105	0.250040
C47	C	1.237466	0.599105	0.500040
C48	C	1.487466	0.849105	0.750040
C49	C	0.525127	0.095971	-0.079786
C50	C	0.775127	0.345971	0.170214
C51	C	1.025127	0.595971	0.420214
C52	C	1.275127	0.845971	0.670214
C53	C	0.438411	0.094689	-0.079783
C54	C	0.688411	0.344689	0.170217
C55	C	0.938411	0.594689	0.420217
C56	C	1.188411	0.844689	0.670217
C57	C	0.438438	0.094686	0.079893
C58	C	0.688438	0.344686	0.329893
C59	C	0.938438	0.594686	0.579893
C60	C	1.188438	0.844686	0.829893
C61	C	0.525153	0.095963	0.079889
C62	C	0.775153	0.345963	0.329889
C63	C	1.025153	0.595963	0.579889
C64	C	1.275153	0.845963	0.829889
C65	C	0.568495	0.096609	0.000047
C66	C	0.818495	0.346609	0.250047
C67	C	1.068495	0.596609	0.500047
C68	C	1.318495	0.846609	0.750047
C69	C	0.395064	0.094050	0.000054
C70	C	0.645064	0.344050	0.250054
C71	C	0.895064	0.594050	0.500054
C72	C	1.145064	0.844050	0.750054
C73	C	0.301043	0.092660	0.000058
C74	C	0.551043	0.342660	0.250058
C75	C	0.801043	0.592660	0.500058
C76	C	1.051043	0.842660	0.750058
C77	C	0.662522	0.097998	0.000043
C78	C	0.912522	0.347998	0.250043
C79	C	1.162522	0.597998	0.500043
C80	C	1.412522	0.847998	0.750043
C81	C	0.988313	-0.032322	0.000027
C82	C	1.238313	0.217678	0.250027
C83	C	1.488313	0.467678	0.500027
C84	C	1.738313	0.717678	0.750027
C85	C	0.986955	-0.109830	0.000020
C86	C	1.236955	0.140170	0.250020
C87	C	1.486955	0.390170	0.500020
C88	C	1.736955	0.640170	0.750020
C89	C	1.062082	-0.154578	0.000017
C90	C	1.312082	0.095422	0.250017
C91	C	1.562082	0.345422	0.500017
C92	C	1.812082	0.595422	0.750017
C93	C	1.060806	-0.227404	0.000031
C94	C	1.310806	0.022596	0.250031
C95	C	1.560806	0.272596	0.500031
C96	C	1.810806	0.522596	0.750031
C97	C	0.984398	-0.255480	0.000030
C98	C	1.234398	-0.005480	0.250030
C99	C	1.484398	0.244520	0.500030
C100	C	1.734398	0.494520	0.750030
C101	C	0.909261	-0.210722	0.000037
C102	C	1.159261	0.039278	0.250037
C103	C	1.409261	0.289278	0.500037
C104	C	1.659261	0.539278	0.750037
C105	C	0.910539	-0.137897	0.000032
C106	C	1.160539	0.112103	0.250032
C107	C	1.410539	0.362103	0.500032
C108	C	1.660539	0.612103	0.750032
N109	N	0.925989	-0.363619	-0.049814
N110	N	1.175989	-0.113619	0.200186
N111	N	1.425989	0.136381	0.450186
N112	N	1.675989	0.386381	0.700186
N113	N	0.924779	-0.432801	-0.049810
N114	N	1.174779	-0.182801	0.200190
N115	N	1.424779	0.067199	0.450190
N116	N	1.674779	0.317199	0.700190
C117	C	0.980542	-0.474897	0.000048
C118	C	1.230542	-0.224897	0.250048
C119	C	1.480542	0.025103	0.500048
C120	C	1.730542	0.275103	0.750048
N121	N	1.037573	-0.445201	0.049892
N122	N	1.287573	-0.195201	0.299892
N123	N	1.537573	0.054799	0.549892
N124	N	1.787573	0.304799	0.799892
N125	N	1.038784	-0.376013	0.049885
N126	N	1.288784	-0.126013	0.299885
N127	N	1.538784	0.123987	0.549885
N128	N	1.788784	0.373987	0.799885
C129	C	0.983004	-0.334446	0.000036
C130	C	1.233004	-0.084446	0.250036
C131	C	1.483004	0.165554	0.500036
C132	C	1.733004	0.415554	0.750036
C133	C	1.054291	-0.598613	0.000062
C134	C	1.304291	-0.348613	0.250062
C135	C	1.554291	-0.098613	0.500062
C136	C	1.804291	0.151387	0.750062
C137	C	1.053012	-0.671441	0.000081
C138	C	1.303012	-0.421441	0.250081
C139	C	1.553012	-0.171441	0.500081
C140	C	1.803012	0.078559	0.750081
C141	C	0.901465	-0.654757	0.000079
C142	C	1.151465	-0.404757	0.250079
C143	C	1.401465	-0.154757	0.500079
C144	C	1.651465	0.095243	0.750079
C145	C	0.902746	-0.581931	0.000068
C146	C	1.152746	-0.331931	0.250068
C147	C	1.402746	-0.081931	0.500068
C148	C	1.652746	0.168069	0.750068
C149	C	0.979162	-0.553864	0.000055
C150	C	1.229162	-0.303864	0.250055
C151	C	1.479162	-0.053864	0.500055
C152	C	1.729162	0.196136	0.750055
C153	C	1.133802	0.090198	0.000052
C154	C	1.383802	0.340198	0.250052
C155	C	1.633802	0.590198	0.500052
C156	C	1.883802	0.840198	0.750052
C157	C	1.226093	0.091555	0.000061
C158	C	1.476093	0.341555	0.250061
C159	C	1.726093	0.591555	0.500061
C160	C	1.976093	0.841555	0.750061
C161	C	0.975245	0.222981	0.000068
C162	C	1.225245	0.472981	0.250068
C163	C	1.475245	0.722981	0.500068
C164	C	1.725245	0.972981	0.750068
C165	C	0.976604	0.300489	0.000082
C166	C	1.226604	0.550489	0.250082
C167	C	1.476604	0.800489	0.500082
C168	C	1.726604	1.050489	0.750082
N169	N	0.981762	0.095339	-0.228128
N170	N	1.231762	0.345339	0.021872
N171	N	1.481762	0.595339	0.271872
N172	N	1.731762	0.845339	0.521872
C173	C	1.032045	0.137687	-0.453842
C174	C	1.282045	0.387687	-0.203842
C175	C	1.532045	0.637687	0.046158
C176	C	1.782045	0.887687	0.296158
C177	C	1.032054	0.137682	-0.546032
C178	C	1.282054	0.387682	-0.296032
C179	C	1.532054	0.637682	-0.046032
C180	C	1.782054	0.887682	0.203968
C181	C	0.931518	0.052962	-0.546058
C182	C	1.181518	0.302962	-0.296058
C183	C	1.431518	0.552962	-0.046058
C184	C	1.681518	0.802962	0.203942
C185	C	0.931514	0.052963	-0.453870
C186	C	1.181514	0.302963	-0.203870
C187	C	1.431514	0.552963	0.046130
C188	C	1.681514	0.802963	0.296130
C189	C	0.981776	0.095330	-0.407764
C190	C	1.231776	0.345330	-0.157764
C191	C	1.481776	0.595330	0.092236
C192	C	1.731776	0.845330	0.342236
C193	C	0.981789	0.095323	-0.592142
C194	C	1.231789	0.345323	-0.342142
C195	C	1.481789	0.595323	-0.092142
C196	C	1.731789	0.845323	0.157858
C197	C	0.981798	0.095318	-0.692098
C198	C	1.231798	0.345318	-0.442098
C199	C	1.481798	0.595318	-0.192098
C200	C	1.731798	0.845318	0.057902
C201	C	0.981768	0.095335	-0.307802
C202	C	1.231768	0.345335	-0.057802
C203	C	1.481768	0.595335	0.192198
C204	C	1.731768	0.845335	0.442198
N205	N	0.981803	0.095315	0.228221
N206	N	1.231803	0.345315	0.478221
N207	N	1.481803	0.595315	0.728221
N208	N	1.731803	0.845315	0.978221
H209	H	0.403138	0.094161	0.144897
H210	H	0.653138	0.344161	0.394897
H211	H	0.903138	0.594161	0.644897
H212	H	1.153138	0.844161	0.894897
H213	H	0.890595	0.018469	-0.583609
H214	H	1.140595	0.268469	-0.333609
H215	H	1.390595	0.518469	-0.083609
H216	H	1.640595	0.768469	0.166391
F217	F	1.143410	-0.124711	0.000023
F218	F	1.393410	0.125289	0.250023
F219	F	1.643410	0.375289	0.500023
F220	F	1.893410	0.625289	0.750023
H221	H	0.560413	0.096497	-0.144798
H222	H	0.810413	0.346497	0.105202
H223	H	1.060413	0.596497	0.355202
H224	H	1.310413	0.846497	0.605202
H225	H	0.890577	0.018467	-0.416353
H226	H	1.140577	0.268467	-0.166353
H227	H	1.390577	0.518467	0.083647
H228	H	1.640577	0.768467	0.333647
H229	H	1.072990	0.172173	-0.583544
H230	H	1.322990	0.422173	-0.333544
H231	H	1.572990	0.672173	-0.083544
H232	H	1.822990	0.922173	0.166456
F233	F	0.392260	0.094011	-0.164752
F234	F	0.642260	0.344011	0.085248
F235	F	0.892260	0.594011	0.335248
F236	F	1.142260	0.844011	0.585248
F237	F	0.571311	0.096638	0.164863
F238	F	0.821311	0.346638	0.414863
F239	F	1.071311	0.596638	0.664863
F240	F	1.321311	0.846638	0.914863
F241	F	0.820145	-0.684632	0.000082
F242	F	1.070145	-0.434632	0.250082
F243	F	1.320145	-0.184632	0.500082
F244	F	1.570145	0.065368	0.750082
F245	F	1.140770	-0.275038	0.000030
F246	F	1.390770	-0.025038	0.250030
F247	F	1.640770	0.224962	0.500030
F248	F	1.890770	0.474962	0.750030
H249	H	0.847049	-0.233585	0.000038
H250	H	1.097049	0.016415	0.250038
H251	H	1.347049	0.266415	0.500038
H252	H	1.597049	0.516415	0.750038
F253	F	1.135618	-0.568740	0.000044
F254	F	1.385618	-0.318740	0.250044
F255	F	1.635618	-0.068740	0.500044
F256	F	1.885618	0.181260	0.750044
F257	F	0.830575	-0.090270	0.000035
F258	F	1.080575	0.159730	0.250035
F259	F	1.330575	0.409730	0.500035
F260	F	1.580575	0.659730	0.750035
F261	F	1.085544	0.182774	-0.404776
F262	F	1.335544	0.432774	-0.154776
F263	F	1.585544	0.682774	0.095224
F264	F	1.835544	0.932774	0.345224
H265	H	1.114192	-0.707875	0.000084
H266	H	1.364192	-0.457875	0.250084
H267	H	1.614192	-0.207875	0.500084
H268	H	1.864192	0.042125	0.750084
H269	H	0.841569	-0.545495	0.000065
H270	H	1.091569	-0.295495	0.250065
H271	H	1.341569	-0.045495	0.500065
H272	H	1.591569	0.204505	0.750065
