data_functionalizedCrystal
_audit_creation_method	'MofGen! by Chris Wilmer'
_symmetry_space_group_name_H-M	'P1'
_symmetry_Int_Tables_number	1
_symmetry_cell_setting	triclinic
loop_
_symmetry_equiv_pos_as_xyz
  x,y,z
_cell_length_a	15.298068
_cell_length_b	21.295417
_cell_length_c	15.296720
_cell_angle_alpha	99.639335
_cell_angle_beta	88.354818
_cell_angle_gamma	99.688570
loop_
_atom_site_label
_atom_site_type_symbol
_atom_site_fract_x
_atom_site_fract_y
_atom_site_fract_z
Zn1	Zn	1.253349	-0.187264	-0.727337
Zn2	Zn	1.753349	0.312736	-0.227337
Zn3	Zn	1.278597	-0.271807	-0.580856
Zn4	Zn	1.778597	0.228193	-0.080856
Zn5	Zn	1.132230	-0.181147	-0.555505
Zn6	Zn	1.632230	0.318853	-0.055505
Zn7	Zn	1.106821	-0.307097	-0.701874
Zn8	Zn	1.606821	0.192903	-0.201874
O9	O	1.192749	-0.236829	-0.641393
O10	O	1.692749	0.263171	-0.141393
O11	O	1.379276	-0.186270	-0.729172
O12	O	1.879276	0.313730	-0.229172
O13	O	1.280381	-0.242452	-0.454934
O14	O	1.780381	0.257548	0.045066
O15	O	1.148363	-0.093867	-0.578345
O16	O	1.648363	0.406133	-0.078345
O17	O	1.397826	-0.248383	-0.621553
O18	O	1.897826	0.251617	-0.121553
O19	O	1.237349	-0.098361	-0.704590
O20	O	1.737349	0.401639	-0.204590
O21	O	1.172846	-0.175845	-0.436308
O22	O	1.672846	0.324155	0.063692
O23	O	1.006281	-0.210064	-0.553655
O24	O	1.506281	0.289936	-0.053655
O25	O	1.105058	-0.308530	-0.827811
O26	O	1.605058	0.191470	-0.327811
O27	O	0.987614	-0.302599	-0.661192
O28	O	1.487614	0.197401	-0.161192
O29	O	1.212711	-0.220489	-0.846518
O30	O	1.712711	0.279511	-0.346518
O31	O	1.255744	-0.364580	-0.596862
O32	O	1.755744	0.135420	-0.096862
O33	O	1.129540	-0.390508	-0.685774
O34	O	1.629540	0.109492	-0.185774
C35	C	0.965164	-0.259498	-0.601910
C36	C	1.465164	0.240502	-0.101910
C37	C	0.867799	-0.269213	-0.585040
C38	C	1.367799	0.230787	-0.085040
C39	C	0.554651	-0.167547	-0.761968
C40	C	1.054651	0.332453	-0.261968
C41	C	0.646130	-0.158421	-0.777824
C42	C	1.146130	0.341579	-0.277824
C43	C	0.701551	-0.186118	-0.729629
C44	C	1.201551	0.313882	-0.229629
C45	C	0.665486	-0.222943	-0.665576
C46	C	1.165486	0.277057	-0.165576
C47	C	0.573997	-0.232074	-0.649724
C48	C	1.073997	0.267926	-0.149724
C49	C	0.720897	-0.250645	-0.617385
C50	C	1.220897	0.249355	-0.117385
C51	C	0.684832	-0.287470	-0.553332
C52	C	1.184832	0.212530	-0.053332
C53	C	0.593352	-0.296599	-0.537483
C54	C	1.093352	0.203401	-0.037483
C55	C	0.537930	-0.268902	-0.585677
C56	C	1.037930	0.231098	-0.085677
C57	C	0.812386	-0.241514	-0.633237
C58	C	1.312386	0.258486	-0.133237
C59	C	0.831732	-0.306042	-0.520993
C60	C	1.331732	0.193958	-0.020993
C61	C	0.740253	-0.315168	-0.505138
C62	C	1.240253	0.184832	-0.005138
C63	C	1.192645	-0.400385	-0.641329
C64	C	1.692645	0.099615	-0.141329
C65	C	1.192676	-0.470352	-0.641345
C66	C	1.692676	0.029648	-0.141345
C67	C	1.238972	-0.505510	-0.707115
C68	C	1.738972	-0.005510	-0.207115
C69	C	1.238999	-0.571253	-0.707142
C70	C	1.738999	-0.071253	-0.207142
C71	C	1.192742	-0.601831	-0.641385
C72	C	1.692742	-0.101831	-0.141385
C73	C	1.146436	-0.566665	-0.575609
C74	C	1.646436	-0.066665	-0.075609
C75	C	1.146403	-0.500926	-0.575589
C76	C	1.646403	-0.000926	-0.075589
N77	N	1.199402	-0.694899	-0.563593
N78	N	1.699402	-0.194899	-0.063593
N79	N	1.199438	-0.757349	-0.563615
N80	N	1.699438	-0.257349	-0.063615
C81	C	1.192837	-0.799901	-0.641442
C82	C	1.692837	-0.299901	-0.141442
N83	N	1.186216	-0.777643	-0.719251
N84	N	1.686216	-0.277643	-0.219251
N85	N	1.186185	-0.715187	-0.719228
N86	N	1.686185	-0.215187	-0.219228
C87	C	1.192772	-0.673115	-0.641400
C88	C	1.692772	-0.173115	-0.141400
C89	C	1.239165	-0.906345	-0.707247
C90	C	1.739165	-0.406345	-0.207247
C91	C	1.239186	-0.972090	-0.707274
C92	C	1.739186	-0.472090	-0.207274
C93	C	1.146629	-0.967500	-0.575734
C94	C	1.646629	-0.467500	-0.075734
C95	C	1.146602	-0.901758	-0.575714
C96	C	1.646602	-0.401758	-0.075714
C97	C	1.192875	-0.871184	-0.641470
C98	C	1.692875	-0.371184	-0.141470
C99	C	1.421222	-0.214072	-0.681030
C100	C	1.921222	0.285928	-0.181030
C101	C	1.518584	-0.204375	-0.697921
C102	C	2.018584	0.295625	-0.197921
C103	C	1.153234	-0.269128	-0.869831
C104	C	1.653234	0.230872	-0.369831
C105	C	1.136395	-0.282892	-0.967178
C106	C	1.636395	0.217108	-0.467178
C107	C	1.192874	-0.072634	-0.641480
C108	C	1.692874	0.427366	-0.141480
C109	C	1.192927	-0.002664	-0.641517
C110	C	1.692927	0.497336	-0.141517
C111	C	1.313133	-0.138342	-1.280544
C112	C	1.813133	0.361658	-0.780544
C113	C	1.328960	-0.125411	-1.189083
C114	C	1.828960	0.374589	-0.689083
C115	C	1.280820	-0.164780	-1.133602
C116	C	1.780820	0.335220	-0.633602
C117	C	1.216851	-0.217083	-1.169592
C118	C	1.716851	0.282917	-0.669592
C119	C	1.201027	-0.230019	-1.261063
C120	C	1.701027	0.269981	-0.761063
C121	C	1.168714	-0.256456	-1.114121
C122	C	1.668714	0.243544	-0.614121
C123	C	1.104745	-0.308759	-1.150111
C124	C	1.604745	0.191241	-0.650111
C125	C	1.088924	-0.321692	-1.241573
C126	C	1.588924	0.178308	-0.741573
C127	C	1.137064	-0.282323	-1.297053
C128	C	1.637064	0.217677	-0.797053
C129	C	1.184537	-0.243520	-1.022650
C130	C	1.684537	0.256480	-0.522650
C131	C	1.072431	-0.335197	-1.003169
C132	C	1.572431	0.164803	-0.503169
C133	C	1.056605	-0.348128	-1.094630
C134	C	1.556605	0.151872	-0.594630
C135	C	1.232161	-0.204605	-0.413852
C136	C	1.732161	0.295395	0.086148
C137	C	1.249170	-0.190647	-0.316535
C138	C	1.749170	0.309353	0.183465
H139	H	0.675487	-0.128440	-0.829978
H140	H	1.175487	0.371560	-0.329978
H141	H	1.124181	-0.292849	-1.371530
H142	H	1.624181	0.207151	-0.871530
F143	F	1.288214	-0.472976	-0.777102
F144	F	1.788214	0.027024	-0.277102
H145	H	1.236621	-0.200934	-0.993356
H146	H	1.736621	0.299066	-0.493356
H147	H	1.036843	-0.364285	-1.270873
H148	H	1.536843	0.135715	-0.770873
F149	F	0.554971	-0.335791	-0.469311
F150	F	1.054971	0.164209	0.030689
H151	H	1.004520	-0.390714	-1.123946
H152	H	1.504520	0.109286	-0.623946
H153	H	0.710875	-0.345152	-0.452986
H154	H	1.210875	0.154848	0.047014
H155	H	0.509518	-0.145004	-0.801206
H156	H	1.009518	0.354996	-0.301206
H157	H	1.276884	-1.000715	-0.760836
H158	H	1.776884	-0.500715	-0.260836
F159	F	1.364366	-0.096454	-1.339596
F160	F	1.864366	0.403546	-0.839596
H161	H	1.108908	-0.873129	-0.522155
H162	H	1.608908	-0.373129	-0.022155
H163	H	1.108959	-0.992398	-0.522198
H164	H	1.608959	-0.492398	-0.022198
F165	F	0.890711	-0.335524	-0.469700
F166	F	1.390711	0.164476	0.030300
F167	F	1.288280	-0.608677	-0.777143
F168	F	1.788280	-0.108677	-0.277143
H169	H	1.033233	-0.367255	-0.957996
H170	H	1.533233	0.132745	-0.457996
H171	H	1.108771	-0.591567	-0.522071
H172	H	1.608771	-0.091567	-0.022071
F173	F	1.297664	-0.151015	-1.036261
F174	F	1.797664	0.348985	-0.536261
H175	H	1.108702	-0.472299	-0.522030
H176	H	1.608702	0.027701	-0.022030
F177	F	1.288408	-0.873805	-0.777231
F178	F	1.788408	-0.373805	-0.277231
F179	F	0.798912	-0.176403	-0.746504
F180	F	1.298912	0.323597	-0.246504
F181	F	0.850760	-0.202323	-0.701404
F182	F	1.350760	0.297677	-0.201404
F183	F	0.440566	-0.278611	-0.568804
F184	F	0.940566	0.221389	-0.068804
F185	F	1.397038	-0.069749	-1.150787
F186	F	1.897038	0.430251	-0.650787
