data_functionalizedCrystal
_audit_creation_method	'MofGen! by Chris Wilmer'
_symmetry_space_group_name_H-M	'P1'
_symmetry_Int_Tables_number	1
_symmetry_cell_setting	triclinic
loop_
_symmetry_equiv_pos_as_xyz
  x,y,z
_cell_length_a	14.908571
_cell_length_b	29.839131
_cell_length_c	14.908308
_cell_angle_alpha	86.746001
_cell_angle_beta	89.824947
_cell_angle_gamma	86.730696
loop_
_atom_site_label
_atom_site_type_symbol
_atom_site_fract_x
_atom_site_fract_y
_atom_site_fract_z
Zn1	Zn	1.345180	-0.234441	0.587474
Zn2	Zn	1.845180	0.265559	1.087474
Zn3	Zn	1.353725	-0.305498	0.437082
Zn4	Zn	1.853725	0.194502	0.937082
Zn5	Zn	1.203500	-0.225812	0.428476
Zn6	Zn	1.703500	0.274188	0.928476
Zn7	Zn	1.194753	-0.304964	0.578733
Zn8	Zn	1.694753	0.195036	1.078733
O9	O	1.274290	-0.267679	0.507941
O10	O	1.774290	0.232321	1.007941
O11	O	1.472138	-0.247701	0.574784
O12	O	1.972138	0.252299	1.074784
O13	O	1.341034	-0.291539	0.310117
O14	O	1.841034	0.208461	0.810117
O15	O	1.222378	-0.164093	0.449624
O16	O	1.722378	0.335907	0.949624
O17	O	1.478416	-0.299906	0.464291
O18	O	1.978416	0.200094	0.964291
O19	O	1.326470	-0.170433	0.566439
O20	O	1.826470	0.329567	1.066439
O21	O	1.230664	-0.232995	0.303794
O22	O	1.730664	0.267005	0.803794
O23	O	1.076515	-0.232477	0.441148
O24	O	1.576515	0.267523	0.941148
O25	O	1.207471	-0.298997	0.705716
O26	O	1.707471	0.201003	1.205716
O27	O	1.070090	-0.290630	0.551542
O28	O	1.570090	0.209370	1.051542
O29	O	1.317989	-0.247183	0.712138
O30	O	1.817989	0.252817	1.212138
O31	O	1.332553	-0.368290	0.455816
O32	O	1.832553	0.131710	0.955816
O33	O	1.215757	-0.367898	0.559887
O34	O	1.715757	0.132102	1.059887
C35	C	1.040678	-0.260560	0.494463
C36	C	1.540678	0.239440	0.994463
C37	C	0.940736	-0.257525	0.488719
C38	C	1.440736	0.242475	0.988719
C39	C	0.746301	-0.312463	0.592722
C40	C	1.246301	0.187537	1.092722
C41	C	0.652397	-0.309614	0.587328
C42	C	1.152397	0.190386	1.087328
C43	C	0.659022	-0.248975	0.472541
C44	C	1.159022	0.251025	0.972541
C45	C	0.752926	-0.251825	0.477935
C46	C	1.252926	0.248175	0.977935
C47	C	0.796562	-0.283570	0.538027
C48	C	1.296562	0.216430	1.038027
C49	C	0.890468	-0.286421	0.543416
C50	C	1.390468	0.213579	1.043416
C51	C	0.897091	-0.225781	0.428634
C52	C	1.397091	0.274219	0.928634
C53	C	0.803187	-0.222932	0.423240
C54	C	1.303187	0.277068	0.923240
C55	C	1.274157	-0.384395	0.507858
C56	C	1.774157	0.115605	1.007858
C57	C	1.274181	-0.434330	0.507857
C58	C	1.774181	0.065670	1.007857
C59	C	1.328473	-0.747247	0.568848
C60	C	1.828473	-0.247247	1.068848
C61	C	1.328568	-0.934924	0.568908
C62	C	1.828568	-0.434924	1.068908
O63	O	1.374598	-0.961967	0.620701
O64	O	1.874598	-0.461967	1.120701
N65	N	1.274437	-0.955128	0.508050
N66	N	1.774437	-0.455128	1.008050
C67	C	1.220274	-0.928409	0.447176
C68	C	1.720274	-0.428409	0.947176
O69	O	1.174227	-0.949900	0.395420
O70	O	1.674227	-0.449900	0.895420
C71	C	1.220175	-0.740733	0.447122
C72	C	1.720175	-0.240733	0.947122
C73	C	1.274316	-0.720532	0.507978
C74	C	1.774316	-0.220532	1.007978
C75	C	1.382609	-0.727046	0.629700
C76	C	1.882609	-0.227046	1.129700
C77	C	1.382589	-0.680129	0.629681
C78	C	1.882589	-0.180129	1.129681
C79	C	1.328432	-0.653414	0.568811
C80	C	1.828432	-0.153414	1.068811
C81	C	1.274296	-0.673615	0.507959
C82	C	1.774296	-0.173615	1.007959
C83	C	1.166008	-0.714015	0.386253
C84	C	1.666008	-0.214015	0.886253
C85	C	1.165986	-0.667093	0.386247
C86	C	1.665986	-0.167093	0.886247
C87	C	1.220128	-0.646892	0.447103
C88	C	1.720128	-0.146892	0.947103
C89	C	1.220119	-0.599983	0.447070
C90	C	1.720119	-0.099983	0.947070
N91	N	1.274250	-0.579779	0.507928
N92	N	1.774250	-0.079779	1.007928
C93	C	1.328406	-0.606495	0.568798
C94	C	1.828406	-0.106495	1.068798
C95	C	1.220331	-1.026942	0.447208
C96	C	1.720331	-0.526942	0.947208
C97	C	1.220356	-1.073861	0.447221
C98	C	1.720356	-0.573861	0.947221
C99	C	1.328649	-1.080373	0.568953
C100	C	1.828649	-0.580373	1.068953
C101	C	1.328628	-1.033453	0.568936
C102	C	1.828628	-0.533453	1.068936
C103	C	1.274462	-1.006739	0.508066
C104	C	1.774462	-0.506739	1.008066
C105	C	1.328360	-0.507966	0.568754
C106	C	1.828360	-0.007966	1.068754
C107	C	1.328337	-0.461045	0.568727
C108	C	1.828337	0.038955	1.068727
C109	C	1.220041	-0.454537	0.446998
C110	C	1.720041	0.045463	0.946998
C111	C	1.220067	-0.501454	0.447021
C112	C	1.720067	-0.001454	0.947021
C113	C	1.274229	-0.528168	0.507906
C114	C	1.774229	-0.028168	1.007906
O115	O	1.174105	-0.572913	0.395310
O116	O	1.674105	-0.072913	0.895310
O117	O	1.374431	-0.584995	0.620560
O118	O	1.874431	-0.084995	1.120560
C119	C	1.328494	-0.794163	0.568867
C120	C	1.828494	-0.294163	1.068867
C121	C	1.274357	-0.814365	0.508015
C122	C	1.774357	-0.314365	1.008015
C123	C	1.220201	-0.787649	0.447145
C124	C	1.720201	-0.287649	0.947145
C125	C	1.274383	-0.861284	0.508028
C126	C	1.774383	-0.361284	1.008028
C127	C	1.328540	-0.887999	0.568898
C128	C	1.828540	-0.387999	1.068898
C129	C	1.382671	-0.867795	0.629756
C130	C	1.882671	-0.367795	1.129756
C131	C	1.382650	-0.820879	0.629737
C132	C	1.882650	-0.320879	1.129737
C133	C	1.166070	-0.807853	0.386287
C134	C	1.666070	-0.307853	0.886287
C135	C	1.166095	-0.854770	0.386310
C136	C	1.666095	-0.354770	0.886310
C137	C	1.220252	-0.881485	0.447180
C138	C	1.720252	-0.381485	0.947180
C139	C	1.508814	-0.274826	0.521472
C140	C	2.008814	0.225174	1.021472
C141	C	1.608754	-0.277871	0.527238
C142	C	2.108754	0.222129	1.027238
C143	C	1.260801	-0.273993	0.742464
C144	C	1.760801	0.226007	1.242464
C145	C	1.255053	-0.276684	0.842403
C146	C	1.755053	0.223316	1.342403
C147	C	1.274446	-0.150508	0.508046
C148	C	1.774446	0.349492	1.008046
C149	C	1.274513	-0.100576	0.508091
C150	C	1.774513	0.399424	1.008091
C151	C	1.287777	-0.261358	0.274334
C152	C	1.787777	0.238642	0.774334
C153	C	1.293699	-0.258546	0.174405
C154	C	1.793699	0.241454	0.674405
C155	C	1.359332	-0.227777	1.036888
C156	C	1.859332	0.272223	1.536888
C157	C	1.353934	-0.230304	1.130791
C158	C	1.853934	0.269696	1.630791
C159	C	1.238856	-0.284262	1.124111
C160	C	1.738856	0.215738	1.624111
C161	C	1.244254	-0.281735	1.030209
C162	C	1.744254	0.218265	1.530209
C163	C	1.304495	-0.253492	0.986601
C164	C	1.804495	0.246508	1.486601
C165	C	1.309897	-0.250968	0.892697
C166	C	1.809897	0.249032	1.392697
C167	C	1.194814	-0.304923	0.886019
C168	C	1.694814	0.195077	1.386019
C169	C	1.189417	-0.307450	0.979922
C170	C	1.689417	0.192550	1.479922
H171	H	0.611478	-0.333141	0.631869
H172	H	1.111478	0.166859	1.131869
O173	O	1.124440	-0.337908	1.026959
O174	O	1.624440	0.162092	1.526959
H175	H	1.162193	-0.363142	1.072041
H176	H	1.662193	0.136858	1.572041
O177	O	1.135624	-0.332648	0.831794
O178	O	1.635624	0.167352	1.331794
H179	H	1.149944	-0.368862	0.850668
H180	H	1.649944	0.131138	1.350668
H181	H	1.372747	-1.102133	0.618516
H182	H	1.872747	-0.602133	1.118516
O183	O	0.937540	-0.320656	0.608231
O184	O	1.437540	0.179344	1.108231
H185	H	0.886810	-0.340265	0.645366
H186	H	1.386810	0.159735	1.145366
O187	O	0.611925	-0.214745	0.407735
O188	O	1.111925	0.285255	0.907735
H189	H	0.629068	-0.180460	0.424320
H190	H	1.129068	0.319540	0.924320
H191	H	0.767645	-0.197084	0.374317
H192	H	1.267645	0.302916	0.874317
O193	O	1.424313	-0.197323	0.989846
O194	O	1.924313	0.302677	1.489846
H195	H	1.386564	-0.172092	0.944754
H196	H	1.886564	0.327908	1.444754
H197	H	0.781831	-0.338314	0.641647
H198	H	1.281831	0.161686	1.141647
H199	H	0.938024	-0.202255	0.384095
H200	H	1.438024	0.297745	0.884095
O201	O	1.161631	-0.425716	0.381351
O202	O	1.661631	0.074284	0.881351
H203	H	1.181170	-0.433299	0.311687
H204	H	1.681170	0.066701	0.811687
H205	H	1.426737	-0.804435	0.679292
H206	H	1.926737	-0.304435	1.179292
H207	H	1.372457	-0.529711	0.618338
H208	H	1.872457	-0.029711	1.118338
O209	O	1.386745	-0.439256	0.634357
O210	O	1.886745	0.060744	1.134357
H211	H	1.424403	-0.465718	0.676687
H212	H	1.924403	0.034282	1.176687
H213	H	1.426672	-0.663684	0.679238
H214	H	1.926672	-0.163684	1.179238
O215	O	1.161974	-1.095644	0.381567
O216	O	1.661974	-0.595644	0.881567
H217	H	1.171091	-1.132759	0.391788
H218	H	1.671091	-0.632759	0.891788
O219	O	1.441029	-0.755857	0.695355
O220	O	1.941029	-0.255857	1.195355
H221	H	1.478668	-0.733920	0.737656
H222	H	1.978668	-0.233920	1.237656
H223	H	1.121921	-0.730454	0.336698
H224	H	1.621921	-0.230454	0.836698
H225	H	1.398586	-0.209362	1.171731
H226	H	1.898586	0.290638	1.671731
O227	O	1.107704	-0.876556	0.320661
O228	O	1.607704	-0.376556	0.820661
H229	H	1.059625	-0.897631	0.358233
H230	H	1.559625	-0.397631	0.858233
O231	O	1.173871	-0.314714	1.171150
O232	O	1.673871	0.185286	1.671150
H233	H	1.179331	-0.312148	1.244894
H234	H	1.679331	0.187852	1.744894
H235	H	1.372714	-1.017009	0.618491
H236	H	1.872714	-0.517009	1.118491
H237	H	1.176221	-1.005194	0.397638
H238	H	1.676221	-0.505194	0.897638
O239	O	1.107572	-0.638278	0.320585
O240	O	1.607572	-0.138278	0.820585
H241	H	1.069940	-0.660211	0.278270
H242	H	1.569940	-0.160211	0.778270
O243	O	1.161677	-0.523247	0.381384
O244	O	1.661677	-0.023247	0.881384
H245	H	1.124012	-0.496786	0.339057
H246	H	1.624012	0.003214	0.839057
H247	H	1.426770	-0.889555	0.679316
H248	H	1.926770	-0.389555	1.179316
H249	H	1.121968	-0.786105	0.336720
H250	H	1.621968	-0.286105	0.836720
O251	O	1.374865	-0.220507	0.845656
O252	O	1.874865	0.279493	1.345656
H253	H	1.412082	-0.203046	0.896404
H254	H	1.912082	0.296954	1.396404
