data_functionalizedCrystal
_audit_creation_method	'MofGen! by Chris Wilmer'
_symmetry_space_group_name_H-M	'P1'
_symmetry_Int_Tables_number	1
_symmetry_cell_setting	triclinic
loop_
_symmetry_equiv_pos_as_xyz
  x,y,z
_cell_length_a	16.625546
_cell_length_b	11.169417
_cell_length_c	11.169417
_cell_angle_alpha	89.999137
_cell_angle_beta	90.013698
_cell_angle_gamma	89.976653
loop_
_atom_site_label
_atom_site_type_symbol
_atom_site_fract_x
_atom_site_fract_y
_atom_site_fract_z
Zn1	Zn	-0.321114	-1.834637	0.678491
Zn2	Zn	0.012219	-1.501303	1.011825
Zn3	Zn	0.345552	-1.167970	1.345158
Zn4	Zn	-0.455918	-1.834550	0.477787
Zn5	Zn	-0.122585	-1.501217	0.811120
Zn6	Zn	0.210749	-1.167883	1.144454
Zn7	Zn	-0.321105	-1.633989	0.477826
Zn8	Zn	0.012228	-1.300655	0.811159
Zn9	Zn	0.345561	-0.967322	1.144493
Zn10	Zn	-0.455911	-1.633887	0.678432
Zn11	Zn	-0.122577	-1.300554	1.011765
Zn12	Zn	0.210756	-0.967221	1.345098
O13	O	-0.388512	-1.734266	0.578134
O14	O	-0.055179	-1.400932	0.911467
O15	O	0.278155	-1.067599	1.244801
O16	O	-0.339003	-2.002575	0.651876
O17	O	-0.005670	-1.669241	0.985209
O18	O	0.327664	-1.335908	1.318543
O19	O	-0.438034	-1.807951	0.309843
O20	O	-0.104701	-1.474618	0.643176
O21	O	0.228633	-1.141284	0.976509
O22	O	-0.208274	-1.660684	0.504486
O23	O	0.125059	-1.327351	0.837819
O24	O	0.458393	-0.994017	1.171152
O25	O	-0.438043	-2.002511	0.504420
O26	O	-0.104710	-1.669178	0.837753
O27	O	0.228624	-1.335844	1.171086
O28	O	-0.208281	-1.808099	0.651914
O29	O	0.125053	-1.474766	0.985247
O30	O	0.458386	-1.141432	1.318580
O31	O	-0.338988	-1.660600	0.309871
O32	O	-0.005654	-1.327267	0.643204
O33	O	0.327679	-0.993933	0.976538
O34	O	-0.338980	-1.466026	0.504428
O35	O	-0.005647	-1.132692	0.837761
O36	O	0.327686	-0.799359	1.171095
O37	O	-0.438030	-1.660511	0.846389
O38	O	-0.104697	-1.327178	1.179723
O39	O	0.228636	-0.993844	1.513056
O40	O	-0.438021	-1.465951	0.651812
O41	O	-0.104688	-1.132618	0.985146
O42	O	0.228645	-0.799285	1.318479
O43	O	-0.338996	-1.808001	0.846433
O44	O	-0.005663	-1.474667	1.179766
O45	O	0.327671	-1.141334	1.513100
O46	O	-0.568749	-1.807853	0.504362
O47	O	-0.235416	-1.474520	0.837695
O48	O	0.097917	-1.141186	1.171029
O49	O	-0.568744	-1.660427	0.651775
O50	O	-0.235411	-1.327094	0.985108
O51	O	0.097923	-0.993760	1.318441
C52	C	-0.598003	-1.734152	0.578084
C53	C	-0.264670	-1.400819	0.911417
C54	C	0.068664	-1.067485	1.244750
C55	C	-0.687624	-1.734213	0.578102
C56	C	-0.354291	-1.400880	0.911436
C57	C	-0.020957	-1.067547	1.244769
C58	C	-0.388513	-1.734254	0.891176
C59	C	-0.055180	-1.400921	1.224510
C60	C	0.278153	-1.067587	1.557843
C61	C	-0.388514	-1.734249	1.024576
C62	C	-0.055180	-1.400916	1.357910
C63	C	0.278153	-1.067583	1.691243
C64	C	-0.388500	-1.422441	0.578119
C65	C	-0.055166	-1.089108	0.911452
C66	C	0.278167	-0.755774	1.244785
C67	C	-0.388514	-1.289041	0.578140
C68	C	-0.055181	-0.955708	0.911474
C69	C	0.278153	-0.622374	1.244807
C70	C	-1.015800	-1.734423	0.578227
C71	C	-0.682466	-1.401089	0.911561
C72	C	-0.349133	-1.067756	1.244894
C73	C	-0.924491	-1.734361	0.578196
C74	C	-0.591158	-1.401027	0.911529
C75	C	-0.257824	-1.067694	1.244863
C76	C	-0.851715	-1.734317	0.578164
C77	C	-0.518381	-1.400984	0.911498
C78	C	-0.185048	-1.067650	1.244831
C79	C	-0.760400	-1.734257	0.578134
C80	C	-0.427067	-1.400923	0.911467
C81	C	-0.093734	-1.067590	1.244801
C82	C	-0.178203	-1.734412	0.578211
C83	C	0.155130	-1.401079	0.911544
C84	C	0.488464	-1.067746	1.244877
C85	C	-0.088582	-1.734475	0.578243
C86	C	0.244751	-1.401142	0.911577
C87	C	0.578085	-1.067808	1.244910
C88	C	-0.388525	-2.047308	0.578150
C89	C	-0.055192	-1.713975	0.911484
C90	C	0.278142	-1.380641	1.244817
C91	C	-0.388530	-2.180708	0.578157
C92	C	-0.055197	-1.847375	0.911490
C93	C	0.278136	-1.514041	1.244824
C94	C	-0.388525	-1.734263	1.266309
C95	C	-0.055192	-1.400930	1.599643
C96	C	0.278141	-1.067596	1.932976
C97	C	-0.388515	-1.734252	1.132909
C98	C	-0.055182	-1.400919	1.466243
C99	C	0.278152	-1.067586	1.799576
