data_functionalizedCrystal
_audit_creation_method	'MofGen! by Chris Wilmer'
_symmetry_space_group_name_H-M	'P1'
_symmetry_Int_Tables_number	1
_symmetry_cell_setting	triclinic
loop_
_symmetry_equiv_pos_as_xyz
  x,y,z
_cell_length_a	14.908571
_cell_length_b	13.897448
_cell_length_c	14.908858
_cell_angle_alpha	86.672042
_cell_angle_beta	89.795097
_cell_angle_gamma	86.713891
loop_
_atom_site_label
_atom_site_type_symbol
_atom_site_fract_x
_atom_site_fract_y
_atom_site_fract_z
Zn1	Zn	1.345340	-0.430866	-0.587596
Zn2	Zn	1.845340	0.069134	-0.087596
Zn3	Zn	1.353921	-0.601993	-0.437233
Zn4	Zn	1.853921	-0.101993	0.062767
Zn5	Zn	1.203648	-0.431962	-0.428590
Zn6	Zn	1.703648	0.068038	0.071410
Zn7	Zn	1.194954	-0.583366	-0.578888
Zn8	Zn	1.694954	-0.083366	-0.078888
O9	O	1.274466	-0.512047	-0.508077
O10	O	1.774466	-0.012047	-0.008077
O11	O	1.472305	-0.460904	-0.574912
O12	O	1.972305	0.039096	-0.074912
O13	O	1.341217	-0.587692	-0.310259
O14	O	1.841217	-0.087692	0.189741
O15	O	1.222491	-0.296836	-0.449710
O16	O	1.722491	0.203164	0.050290
O17	O	1.478610	-0.586630	-0.464441
O18	O	1.978610	-0.086630	0.035559
O19	O	1.326591	-0.296031	-0.566531
O20	O	1.826591	0.203969	-0.066531
O21	O	1.230812	-0.462771	-0.303909
O22	O	1.730812	0.037229	0.196091
O23	O	1.076668	-0.444709	-0.441266
O24	O	1.576668	0.055291	0.058734
O25	O	1.207673	-0.554882	-0.705871
O26	O	1.707673	-0.054882	-0.205871
O27	O	1.070281	-0.555944	-0.551689
O28	O	1.570281	-0.055944	-0.051689
O29	O	1.318161	-0.442841	-0.712269
O30	O	1.818161	0.057159	-0.212269
O31	O	1.332787	-0.734503	-0.455997
O32	O	1.832787	-0.234503	0.044003
O33	O	1.215995	-0.720817	-0.560070
O34	O	1.715995	-0.220817	-0.060070
C35	C	1.040849	-0.498425	-0.494596
C36	C	1.540849	0.001575	0.005404
C37	C	0.940906	-0.492619	-0.488849
C38	C	1.440906	0.007381	0.011151
C39	C	0.746507	-0.597741	-0.592881
C40	C	1.246507	-0.097741	-0.092881
C41	C	0.652601	-0.592289	-0.587485
C42	C	1.152601	-0.092289	-0.087485
C43	C	0.659186	-0.476258	-0.472667
C44	C	1.159186	0.023742	0.027333
C45	C	0.753092	-0.481710	-0.478063
C46	C	1.253092	0.018290	0.021937
C47	C	0.796749	-0.542455	-0.538171
C48	C	1.296749	-0.042455	-0.038171
C49	C	0.890657	-0.547911	-0.543562
C50	C	1.390657	-0.047911	-0.043562
C51	C	0.897239	-0.431876	-0.428749
C52	C	1.397239	0.068124	0.071251
C53	C	0.803333	-0.426424	-0.423353
C54	C	1.303333	0.073576	0.076647
C55	C	1.274402	-0.762659	-0.508047
C56	C	1.774402	-0.262659	-0.008047
C57	C	1.274455	-0.869875	-0.508069
C58	C	1.774455	-0.369875	-0.008069
C59	C	1.274546	-1.066172	-0.508131
C60	C	1.774546	-0.566172	-0.008131
C61	C	1.274493	-0.956938	-0.508099
C62	C	1.774493	-0.456938	-0.008099
C63	C	1.508995	-0.525722	-0.521612
C64	C	2.008995	-0.025722	-0.021612
C65	C	1.608937	-0.531550	-0.527379
C66	C	2.108937	-0.031550	-0.027379
C67	C	1.260990	-0.496661	-0.742608
C68	C	1.760990	0.003339	-0.242608
C69	C	1.255247	-0.490105	-0.842551
C70	C	1.755247	0.009895	-0.342551
C71	C	1.274554	-0.260456	-0.508128
C72	C	1.774554	0.239544	-0.008128
C73	C	1.274591	-0.153243	-0.508150
C74	C	1.774591	0.346757	-0.008150
C75	C	1.189678	-0.415827	-0.980110
C76	C	1.689678	0.084173	-0.480110
C77	C	1.195070	-0.421986	-0.886204
C78	C	1.695070	0.078014	-0.386204
C79	C	1.310038	-0.552069	-0.892810
C80	C	1.810038	-0.052069	-0.392810
C81	C	1.304646	-0.545911	-0.986716
C82	C	1.804646	-0.045911	-0.486716
C83	C	1.244463	-0.477789	-1.030362
C84	C	1.744463	0.022211	-0.530362
C85	C	1.239067	-0.471636	-1.124270
C86	C	1.739067	0.028364	-0.624270
C87	C	1.354039	-0.601714	-1.130874
C88	C	1.854039	-0.101714	-0.630874
C89	C	1.359431	-0.607873	-1.036969
C90	C	1.859431	-0.107873	-0.536969
C91	C	1.287941	-0.527305	-0.274461
C92	C	1.787941	-0.027305	0.225539
C93	C	1.293858	-0.533600	-0.174529
C94	C	1.793858	-0.033600	0.325471
H95	H	0.611697	-0.637306	-0.632038
H96	H	1.111697	-0.137306	-0.132038
C97	C	0.755310	-0.359609	-0.357238
C98	C	1.255310	0.140391	0.142762
H99	H	0.798684	-0.327460	-0.325431
H100	H	1.298684	0.172540	0.174569
H101	H	0.720913	-0.396890	-0.315899
H102	H	1.220913	0.103110	0.184101
H103	H	0.716714	-0.313243	-0.389602
H104	H	1.216714	0.186757	0.110398
H105	H	1.140671	-0.360363	-1.015647
H106	H	1.640671	0.139637	-0.515647
C107	C	1.425622	-0.682808	-0.988957
C108	C	1.925622	-0.182808	-0.488957
H109	H	1.457480	-0.718826	-1.032337
H110	H	1.957480	-0.218826	-0.532337
H111	H	1.393312	-0.725227	-0.950330
H112	H	1.893312	-0.225227	-0.450330
H113	H	1.466924	-0.650596	-0.954593
H114	H	1.966924	-0.150596	-0.454593
C115	C	0.611152	-0.409457	-0.406547
C116	C	1.111152	0.090543	0.093453
H117	H	0.548030	-0.414138	-0.411166
H118	H	1.048030	0.085862	0.088834
H119	H	0.625787	-0.344689	-0.420678
H120	H	1.125787	0.155311	0.079322
H121	H	0.629998	-0.428353	-0.346992
H122	H	1.129998	0.071647	0.153008
H123	H	1.150461	-0.371528	-0.845292
H124	H	1.650461	0.128472	-0.345292
C125	C	1.414307	-0.669872	-1.186154
C126	C	1.914307	-0.169872	-0.686154
H127	H	1.402482	-0.656446	-1.248332
H128	H	1.902482	-0.156446	-0.748332
H129	H	1.402012	-0.734923	-1.169989
H130	H	1.902012	-0.234923	-0.669989
H131	H	1.475614	-0.660279	-1.174253
H132	H	1.975614	-0.160279	-0.674253
C133	C	1.172867	-0.396711	-1.172284
C134	C	1.672867	0.103289	-0.672284
H135	H	1.177493	-0.401923	-1.235408
H136	H	1.677493	0.098077	-0.735408
H137	H	1.186928	-0.333677	-1.157670
H138	H	1.686928	0.166323	-0.657670
H139	H	1.113330	-0.408324	-1.153403
H140	H	1.613330	0.091676	-0.653403
C141	C	1.376229	-0.627001	-0.844793
C142	C	1.876229	-0.127001	-0.344793
H143	H	1.408090	-0.663022	-0.888169
H144	H	1.908090	-0.163022	-0.388169
H145	H	1.343918	-0.669418	-0.806165
H146	H	1.843918	-0.169418	-0.306165
H147	H	1.417529	-0.594785	-0.810430
H148	H	1.917529	-0.094785	-0.310430
C149	C	0.952507	-0.371056	-0.368568
C150	C	1.452507	0.128944	0.131432
H151	H	1.014687	-0.382997	-0.380392
H152	H	1.514687	0.117003	0.119608
H153	H	0.940571	-0.388143	-0.307246
H154	H	1.440571	0.111857	0.192754
H155	H	0.936368	-0.304500	-0.380953
H156	H	1.436368	0.195500	0.119047
H157	H	0.926202	-0.597374	-0.592503
H158	H	1.426202	-0.097374	-0.092503
H159	H	0.782054	-0.647207	-0.641819
H160	H	1.282054	-0.147207	-0.141819
