data_functionalizedCrystal
_audit_creation_method	'MofGen! by Chris Wilmer'
_symmetry_space_group_name_H-M	'P1'
_symmetry_Int_Tables_number	1
_symmetry_cell_setting	triclinic
loop_
_symmetry_equiv_pos_as_xyz
  x,y,z
_cell_length_a	12.827893
_cell_length_b	13.032721
_cell_length_c	12.827893
_cell_angle_alpha	82.830576
_cell_angle_beta	90.003786
_cell_angle_gamma	97.204267
loop_
_atom_site_label
_atom_site_type_symbol
_atom_site_fract_x
_atom_site_fract_y
_atom_site_fract_z
Zn1	Zn	1.544592	-0.416240	0.643675
Zn2	Zn	1.522321	-0.590959	0.491110
Zn3	Zn	1.369883	-0.416222	0.468947
Zn4	Zn	1.347607	-0.590950	0.665809
O5	O	1.446101	-0.503593	0.567385
O6	O	1.687872	-0.439428	0.623450
O7	O	1.502101	-0.567776	0.341934
O8	O	1.411701	-0.269980	0.473586
O9	O	1.671510	-0.567794	0.511361
O10	O	1.540059	-0.269993	0.601959
O11	O	1.390106	-0.439398	0.325650
O12	O	1.220693	-0.439389	0.495048
O13	O	1.373736	-0.567778	0.809109
O14	O	1.204328	-0.567761	0.639682
O15	O	1.518460	-0.439420	0.792848
O16	O	1.480502	-0.737203	0.532823
O17	O	1.352140	-0.737196	0.661173
C18	C	1.174593	-0.503573	0.567363
C19	C	1.058438	-0.503589	0.567381
C20	C	0.998570	-0.567211	0.638865
C21	C	0.878517	-0.567230	0.638886
C22	C	1.411515	-0.775119	0.601828
C23	C	1.396815	-0.891279	0.616597
C24	C	1.453828	-0.943035	0.559724
C25	C	1.438636	-1.063093	0.574988
C26	C	1.718668	-0.503614	0.567409
C27	C	1.834820	-0.503623	0.567418
C28	C	1.446097	-0.503600	0.839956
C29	C	1.446096	-0.503603	0.956110
C30	C	1.480850	-0.231007	0.532831
C31	C	1.495657	-0.114847	0.518107
C32	C	1.517702	-0.440095	0.999849
C33	C	1.517702	-0.440096	1.119899
C34	C	1.446093	-0.503610	1.295877
C35	C	1.446095	-0.503607	1.179724
H36	H	0.886267	-0.449155	0.506212
H37	H	1.384786	-0.557969	1.007539
H38	H	1.036194	-0.621662	0.700053
H39	H	1.020815	-0.449130	0.506200
H40	H	0.827063	-0.621701	0.700083
Br41	Br	1.619894	-0.349476	1.182637
Br42	Br	1.553943	-0.868758	0.459740
Br43	Br	1.338536	-1.137366	0.674994
Br44	Br	1.595775	-1.040576	0.418116
Br45	Br	1.296719	-0.965556	0.716599
Br46	Br	1.343915	-0.594247	1.116996
H47	H	1.579003	-0.385718	0.948418
