data_functionalizedCrystal
_audit_creation_method	'MofGen! by Chris Wilmer'
_symmetry_space_group_name_H-M	'P1'
_symmetry_Int_Tables_number	1
_symmetry_cell_setting	triclinic
loop_
_symmetry_equiv_pos_as_xyz
  x,y,z
_cell_length_a	17.699083
_cell_length_b	16.053802
_cell_length_c	17.699092
_cell_angle_alpha	87.437934
_cell_angle_beta	83.284691
_cell_angle_gamma	92.569971
loop_
_atom_site_label
_atom_site_type_symbol
_atom_site_fract_x
_atom_site_fract_y
_atom_site_fract_z
O1	O	1.007272	0.069309	0.092524
O2	O	1.340605	0.402642	0.425857
O3	O	1.673939	0.735975	0.759191
O4	O	0.786895	0.069336	0.104975
O5	O	1.120228	0.402669	0.438308
O6	O	1.453562	0.736002	0.771642
O7	O	0.903306	0.069320	-0.011439
O8	O	1.236640	0.402653	0.321894
O9	O	1.569973	0.735986	0.655227
O10	O	0.890861	0.069325	0.208938
O11	O	1.224194	0.402658	0.542271
O12	O	1.557527	0.735992	0.875605
O13	O	0.896899	-0.069538	-0.005058
O14	O	1.230232	0.263795	0.328276
O15	O	1.563565	0.597128	0.661609
O16	O	0.780488	-0.069522	0.111356
O17	O	1.113821	0.263811	0.444690
O18	O	1.447154	0.597144	0.778023
O19	O	1.000864	-0.069549	0.098905
O20	O	1.334198	0.263784	0.432239
O21	O	1.667531	0.597117	0.765572
Zn22	Zn	0.889659	-0.091582	0.106144
Zn23	Zn	1.222992	0.241751	0.439477
Zn24	Zn	1.556325	0.575084	0.772811
Zn25	Zn	0.898101	0.091369	0.097736
Zn26	Zn	1.231434	0.424702	0.431070
Zn27	Zn	1.564767	0.758036	0.764403
O28	O	0.884453	-0.069533	0.215320
O29	O	1.217786	0.263800	0.548653
O30	O	1.551120	0.597134	0.881986
C31	C	0.755494	-0.000090	0.107719
C32	C	1.088828	0.333244	0.441053
C33	C	1.422161	0.666577	0.774386
C34	C	0.671477	-0.000079	0.106380
C35	C	1.004810	0.333254	0.439714
C36	C	1.338143	0.666587	0.773047
N37	N	0.883903	-0.216442	0.111882
N38	N	1.217236	0.116891	0.445215
N39	N	1.550569	0.450225	0.778548
C40	C	0.622858	-0.000078	0.174713
C41	C	0.956191	0.333255	0.508047
C42	C	1.289525	0.666589	0.841380
C43	C	0.543914	-0.000089	0.173452
C44	C	0.877247	0.333244	0.506785
C45	C	1.210581	0.666578	0.840118
C46	C	0.513591	-0.000095	0.103856
C47	C	0.846924	0.333238	0.437189
C48	C	1.180258	0.666572	0.770522
C49	C	0.562216	-0.000099	0.035518
C50	C	0.895549	0.333234	0.368851
C51	C	1.228883	0.666568	0.702184
C52	C	0.641158	-0.000094	0.036780
C53	C	0.974491	0.333239	0.370114
C54	C	1.307825	0.666573	0.703447
C55	C	0.243852	-0.000120	0.030423
C56	C	0.577185	0.333214	0.363757
C57	C	0.910518	0.666547	0.697090
C58	C	0.164904	-0.000122	0.029166
C59	C	0.498237	0.333211	0.362499
C60	C	0.831570	0.666545	0.695832
C61	C	0.146608	-0.000114	0.167094
C62	C	0.479941	0.333219	0.500428
C63	C	0.813275	0.666552	0.833761
C64	C	0.225550	-0.000110	0.168357
C65	C	0.558883	0.333224	0.501691
C66	C	0.892217	0.666557	0.835024
C67	C	0.274168	-0.000118	0.100020
C68	C	0.607501	0.333215	0.433353
C69	C	0.940834	0.666549	0.766686
C70	C	0.359767	-0.000108	0.101389
C71	C	0.693101	0.333226	0.434722
C72	C	1.026434	0.666559	0.768055
C73	C	0.427993	-0.000099	0.102486
C74	C	0.761326	0.333234	0.435819
C75	C	1.094660	0.666567	0.769152
C76	C	0.933454	-0.260143	0.062365
C77	C	1.266787	0.073191	0.395698
C78	C	1.600120	0.406524	0.729031
C79	C	0.929434	-0.347549	0.066385
C80	C	1.262768	-0.014216	0.399719
C81	C	1.596101	0.319118	0.733052
C82	C	0.875867	-0.391253	0.119927
C83	C	1.209200	-0.057919	0.453261
C84	C	1.542533	0.275414	0.786594
C85	C	0.826310	-0.347546	0.169446
C86	C	1.159644	-0.014213	0.502780
C87	C	1.492977	0.319121	0.836113
C88	C	0.830327	-0.260141	0.165421
C89	C	1.163660	0.073192	0.498755
C90	C	1.496993	0.406525	0.832088
C91	C	0.858323	-0.652660	0.137487
C92	C	1.191656	-0.319327	0.470820
C93	C	1.524989	0.014007	0.804154
C94	C	0.854312	-0.740071	0.141510
C95	C	1.187645	-0.406737	0.474843
C96	C	1.520978	-0.073404	0.808176
C97	C	0.957435	-0.740068	0.038447
C98	C	1.290768	-0.406734	0.371781
C99	C	1.624102	-0.073401	0.705114
C100	C	0.961450	-0.652661	0.034430
C101	C	1.294783	-0.319328	0.367764
C102	C	1.628116	0.014005	0.701097
C103	C	0.911891	-0.608962	0.083947
C104	C	1.245224	-0.275629	0.417280
C105	C	1.578557	0.057704	0.750613
N106	N	0.871759	-0.480596	0.124040
N107	N	1.205092	-0.147263	0.457373
N108	N	1.538425	0.186071	0.790707
N109	N	0.915996	-0.519621	0.079830
N110	N	1.249329	-0.186287	0.413163
N111	N	1.582663	0.147046	0.746496
C112	C	1.032265	-0.000122	0.096161
C113	C	1.365598	0.333211	0.429494
C114	C	1.698932	0.666545	0.762828
C115	C	1.116283	-0.000127	0.097500
C116	C	1.449616	0.333207	0.430833
C117	C	1.782950	0.666540	0.764166
C118	C	0.899656	-0.000108	-0.036445
C119	C	1.232989	0.333225	0.296888
C120	C	1.566322	0.666559	0.630221
C121	C	0.898315	-0.000104	-0.120463
C122	C	1.231648	0.333229	0.212870
C123	C	1.564981	0.666563	0.546203
N124	N	0.903863	0.216229	0.091993
N125	N	1.237196	0.549562	0.425326
N126	N	1.570530	0.882895	0.758659
C127	C	0.901179	0.075588	-0.163409
C128	C	1.234513	0.408922	0.169924
C129	C	1.567846	0.742255	0.503257
C130	C	0.899914	0.075590	-0.242352
C131	C	1.233248	0.408923	0.090981
C132	C	1.566581	0.742256	0.424314
C133	C	0.895790	-0.000103	-0.278349
C134	C	1.229124	0.333231	0.054985
C135	C	1.562457	0.666564	0.388318
C136	C	0.892923	-0.075801	-0.235397
C137	C	1.226257	0.257532	0.097937
C138	C	1.559590	0.590866	0.431270
C139	C	0.894183	-0.075801	-0.156454
C140	C	1.227516	0.257532	0.176879
C141	C	1.560849	0.590865	0.510212
C142	C	0.887843	-0.075802	-0.553762
C143	C	1.221176	0.257532	-0.220428
C144	C	1.554510	0.590865	0.112905
C145	C	0.886586	-0.075795	-0.632710
C146	C	1.219919	0.257538	-0.299377
C147	C	1.553253	0.590871	0.033957
C148	C	0.893574	0.075589	-0.639660
C149	C	1.226908	0.408923	-0.306326
C150	C	1.560241	0.742256	0.027007
C151	C	0.894834	0.075589	-0.560717
C152	C	1.228167	0.408922	-0.227384
C153	C	1.561501	0.742256	0.105949
C154	C	0.891963	-0.000109	-0.517772
C155	C	1.225296	0.333225	-0.184438
C156	C	1.558629	0.666558	0.148895
C157	C	0.893333	-0.000109	-0.432173
C158	C	1.226666	0.333224	-0.098839
C159	C	1.560000	0.666558	0.234494
C160	C	0.894426	-0.000103	-0.363947
C161	C	1.227759	0.333230	-0.030614
C162	C	1.561092	0.666563	0.302720
C163	C	0.888104	-0.000104	0.240326
C164	C	1.221437	0.333230	0.573659
C165	C	1.554771	0.666563	0.906992
C166	C	0.889445	-0.000102	0.324343
C167	C	1.222778	0.333231	0.657677
C168	C	1.556112	0.666565	0.991010
H169	H	0.647540	-0.000072	0.231386
H170	H	0.980874	0.333261	0.564720
H171	H	1.314207	0.666594	0.898053
Br172	Br	0.906784	0.178320	-0.114566
Br173	Br	1.240118	0.511653	0.218767
Br174	Br	1.573451	0.844986	0.552100
H175	H	0.891840	-0.137438	-0.121487
H176	H	1.225173	0.195895	0.211846
H177	H	1.558506	0.529229	0.545180
H178	H	1.005069	-0.617080	-0.009168
H179	H	1.338402	-0.283746	0.324166
H180	H	1.671735	0.049587	0.657499
H181	H	0.810688	-0.775650	0.185113
H182	H	1.144022	-0.442317	0.518446
H183	H	1.477355	-0.108984	0.851779
Br184	Br	0.309823	-0.000133	-0.062321
Br185	Br	0.643157	0.333200	0.271013
Br186	Br	0.976490	0.666534	0.604346
H187	H	0.537520	-0.000116	-0.021148
H188	H	0.870853	0.333217	0.312185
H189	H	1.204187	0.666551	0.645518
Br190	Br	0.266699	-0.000093	0.262812
Br191	Br	0.600032	0.333240	0.596145
Br192	Br	0.933366	0.666573	0.929478
Br193	Br	0.080622	-0.000104	0.259841
Br194	Br	0.413956	0.333229	0.593174
Br195	Br	0.747289	0.666563	0.926507
H196	H	0.680743	-0.000095	-0.018864
H197	H	1.014077	0.333239	0.314470
H198	H	1.347410	0.666572	0.647803
Br199	Br	0.123752	-0.000128	-0.065293
Br200	Br	0.457085	0.333205	0.268041
Br201	Br	0.790418	0.666538	0.601374
H202	H	0.504331	-0.000087	0.229095
H203	H	0.837665	0.333247	0.562429
H204	H	1.170998	0.666580	0.895762
H205	H	0.902250	0.137226	-0.277316
H206	H	1.235583	0.470559	0.056017
H207	H	1.568917	0.803893	0.389350
H208	H	0.977077	-0.224565	0.018769
H209	H	1.310410	0.108768	0.352102
H210	H	1.643744	0.442102	0.685435
Br211	Br	0.753604	-0.406855	0.242106
Br212	Br	1.086938	-0.073521	0.575440
Br213	Br	1.420271	0.259812	0.908773
Br214	Br	0.996680	-0.406860	-0.000819
Br215	Br	1.330014	-0.073527	0.332514
Br216	Br	1.663347	0.259807	0.665847
H217	H	0.997783	-0.775656	-0.001867
H218	H	1.331116	-0.442322	0.331466
H219	H	1.664450	-0.108989	0.664799
Br220	Br	0.791068	-0.593358	0.204687
Br221	Br	1.124401	-0.260025	0.538020
Br222	Br	1.457734	0.073308	0.871354
H223	H	0.789976	-0.224561	0.205742
H224	H	1.123309	0.108773	0.539076
H225	H	1.456643	0.442106	0.872409
Br226	Br	0.897471	0.178325	-0.697947
Br227	Br	1.230804	0.511658	-0.364614
Br228	Br	1.564138	0.844991	-0.031281
H229	H	0.883226	-0.137437	-0.662015
H230	H	1.216559	0.195896	-0.328682
H231	H	1.549892	0.529230	0.004652
H232	H	0.898196	0.137226	-0.531414
H233	H	1.231529	0.470559	-0.198081
H234	H	1.564862	0.803892	0.135253
H235	H	0.885520	-0.137439	-0.518806
H236	H	1.218854	0.195894	-0.185473
H237	H	1.552187	0.529227	0.147860
H238	H	0.889561	-0.137431	-0.264710
H239	H	1.222894	0.195902	0.068623
H240	H	1.556228	0.529236	0.401956
