data_functionalizedCrystal
_audit_creation_method	'MofGen! by Chris Wilmer'
_symmetry_space_group_name_H-M	'P1'
_symmetry_Int_Tables_number	1
_symmetry_cell_setting	triclinic
loop_
_symmetry_equiv_pos_as_xyz
  x,y,z
_cell_length_a	16.974800
_cell_length_b	15.625429
_cell_length_c	16.053802
_cell_angle_alpha	74.515382
_cell_angle_beta	91.074188
_cell_angle_gamma	84.971360
loop_
_atom_site_label
_atom_site_type_symbol
_atom_site_fract_x
_atom_site_fract_y
_atom_site_fract_z
O1	O	1.050839	0.113053	-0.032622
O2	O	0.821589	0.126630	-0.052229
O3	O	0.940475	-0.009249	-0.003055
O4	O	0.931953	0.248932	-0.081795
O5	O	0.933930	-0.001801	0.133106
O6	O	0.815045	0.134078	0.083933
O7	O	1.044295	0.120501	0.103540
Zn8	Zn	0.928631	0.128472	0.115355
Zn9	Zn	0.937253	0.118659	-0.064044
O10	O	0.925409	0.256380	0.054366
C11	C	0.788944	0.129701	0.014064
C12	C	0.701420	0.127745	0.008740
C13	C	0.656739	0.130885	0.080462
C14	C	0.574503	0.129033	0.075466
C15	C	0.536949	0.124049	-0.001256
C16	C	0.581637	0.120907	-0.072983
C17	C	0.663872	0.122752	-0.067984
C18	C	0.291386	0.118089	-0.024164
C19	C	0.209145	0.116246	-0.029158
C20	C	0.202017	0.124371	0.119292
C21	C	0.284253	0.126221	0.124283
C22	C	0.328934	0.123074	0.052557
N23	N	0.452891	0.122159	-0.006365
N24	N	0.412992	0.124958	0.057669
C25	C	0.936169	-0.038568	0.074958
C26	C	0.933080	-0.137026	0.104552
C27	C	0.940733	-0.481143	-0.169197
C28	C	0.937826	-0.573657	-0.141364
C29	C	0.930692	-0.565524	0.007070
C30	C	0.933603	-0.473007	-0.020750
C31	C	0.938622	-0.430824	-0.108885
C32	C	0.931492	-0.422689	0.039562
C33	C	0.934398	-0.330180	0.011743
C34	C	0.939415	-0.287989	-0.076388
C35	C	0.941529	-0.338315	-0.136704
C36	C	0.926466	-0.464873	0.127696
C37	C	0.924355	-0.414554	0.188008
C38	C	0.927267	-0.322044	0.160190
C39	C	0.932285	-0.279854	0.072059
C40	C	0.925154	-0.271719	0.220505
C41	C	0.928060	-0.179209	0.192686
C42	C	0.935191	-0.187345	0.044240
C43	C	1.076940	0.117430	0.037245
C44	C	1.164464	0.119385	0.042565
C45	C	0.929715	0.285699	-0.023648
C46	C	0.932804	0.384157	-0.053248
N47	N	0.922752	0.135169	0.237790
N48	N	0.943138	0.111955	-0.186477
C49	C	0.973357	0.077373	0.302403
C50	C	0.969252	0.082066	0.388111
C51	C	0.914546	0.144560	0.409205
C52	C	0.863935	0.202358	0.344585
C53	C	0.868037	0.197660	0.258879
C54	C	0.896629	0.165056	0.663198
C55	C	0.892533	0.169751	0.748911
C56	C	0.997849	0.049457	0.792432
C57	C	1.001949	0.044768	0.706722
C58	C	0.951336	0.102564	0.642110
N59	N	0.910350	0.149360	0.496811
N60	N	0.955528	0.097758	0.554506
H61	H	0.551055	0.116842	-0.135450
C62	C	0.713021	0.119305	-0.146881
H63	H	0.678878	0.116081	-0.193293
H64	H	0.750458	0.068185	-0.132022
H65	H	0.740038	0.171534	-0.164012
H66	H	0.538129	0.131574	0.133875
C67	C	0.832310	0.238450	0.772123
H68	H	0.802737	0.272179	0.721373
H69	H	0.859594	0.277307	0.796310
H70	H	0.797426	0.208223	0.813002
C71	C	0.919630	-0.318127	0.317446
H72	H	0.918203	-0.380429	0.325376
H73	H	0.872815	-0.294635	0.338272
H74	H	0.964476	-0.307958	0.348496
H75	H	0.855419	0.212116	0.610597
H76	H	0.939285	-0.152998	-0.027527
H77	H	0.314824	0.130276	0.186759
C78	C	0.925740	-0.123856	0.259027
H79	H	0.922342	-0.162229	0.315501
H80	H	0.880898	-0.080942	0.246147
H81	H	0.972558	-0.094257	0.256370
H82	H	0.826827	0.244723	0.206271
H83	H	0.941773	-0.212661	-0.099038
C84	C	1.033534	0.008628	0.279208
H85	H	1.063078	-0.025126	0.329969
H86	H	1.068439	0.038794	0.238325
H87	H	1.006202	-0.030211	0.255036
C88	C	0.923268	-0.566631	0.158301
H89	H	0.919966	-0.584545	0.219426
H90	H	0.969756	-0.595720	0.142300
H91	H	0.878096	-0.582402	0.132067
H92	H	1.010458	0.035004	0.440720
C93	C	1.062122	-0.023980	0.683526
H94	H	1.091669	-0.057735	0.734285
H95	H	1.097026	0.006188	0.642642
H96	H	1.034789	-0.062818	0.659354
C97	C	1.053511	-0.014120	0.863505
H98	H	1.043231	-0.002379	0.917572
H99	H	1.106934	-0.005105	0.850050
H100	H	1.044695	-0.074107	0.866753
C101	C	0.947058	-0.291908	-0.233650
H102	H	0.947898	-0.335124	-0.265590
H103	H	0.994166	-0.262645	-0.242469
H104	H	0.902506	-0.249334	-0.252701
H105	H	0.819388	0.253239	0.361764
H106	H	0.944828	-0.446796	-0.240964
C107	C	0.152864	0.127864	0.198173
H108	H	0.098509	0.126057	0.184209
H109	H	0.159682	0.181516	0.213470
H110	H	0.170071	0.078168	0.245503
H111	H	0.687309	0.134951	0.142935
H112	H	0.178571	0.112190	-0.091638
H113	H	0.926602	-0.599882	0.078830
C114	C	0.340526	0.114649	-0.103063
H115	H	0.394882	0.116456	-0.089102
H116	H	0.323300	0.164355	-0.150369
H117	H	0.333723	0.061005	-0.118389
C118	C	0.940185	-0.629011	-0.207709
H119	H	0.943606	-0.590638	-0.264179
H120	H	0.893384	-0.658629	-0.205072
H121	H	0.985043	-0.671909	-0.194811
C122	C	0.918839	-0.460962	0.284950
H123	H	0.917416	-0.523265	0.292882
H124	H	0.872027	-0.437473	0.305782
H125	H	0.963688	-0.450788	0.315993
