data_functionalizedCrystal
_audit_creation_method	'MofGen! by Chris Wilmer'
_symmetry_space_group_name_H-M	'P1'
_symmetry_Int_Tables_number	1
_symmetry_cell_setting	triclinic
loop_
_symmetry_equiv_pos_as_xyz
  x,y,z
_cell_length_a	27.732048
_cell_length_b	23.532355
_cell_length_c	26.809956
_cell_angle_alpha	90.002952
_cell_angle_beta	90.000636
_cell_angle_gamma	82.735077
loop_
_atom_site_label
_atom_site_type_symbol
_atom_site_fract_x
_atom_site_fract_y
_atom_site_fract_z
O1	O	0.058552	0.755158	0.041417
O2	O	0.067069	0.589272	0.041434
O3	O	-0.007579	0.677367	0.041415
O4	O	0.133200	0.667063	0.041435
O5	O	-0.007568	0.677351	-0.041544
O6	O	0.067080	0.589256	-0.041526
O7	O	0.058564	0.755142	-0.041542
Zn8	Zn	0.062824	0.672196	-0.054705
Zn9	Zn	0.062809	0.672218	0.054597
O10	O	0.133212	0.667047	-0.041524
C11	C	0.066862	0.568048	-0.000044
C12	C	0.066222	0.504831	-0.000038
C13	C	0.062206	0.112816	-0.045281
C14	C	0.061597	0.053418	-0.045283
O15	O	0.061271	0.022693	-0.083741
N16	N	0.061289	0.023720	-0.000062
C17	C	0.061585	0.053423	0.045164
O18	O	0.061267	0.022708	0.083628
C19	C	0.062191	0.112820	0.045166
C20	C	0.062504	0.142515	-0.000058
C21	C	0.062519	0.142511	-0.090501
C22	C	0.063129	0.201905	-0.090498
C23	C	0.063426	0.231604	-0.045276
C24	C	0.063114	0.201909	-0.000056
C25	C	0.062483	0.142523	0.090391
C26	C	0.063088	0.201925	0.090389
C27	C	0.063401	0.231620	0.045165
C28	C	0.064021	0.291002	0.045169
N29	N	0.064329	0.320701	-0.000052
C30	C	0.064031	0.291002	-0.045275
C31	C	0.060313	-0.071316	0.045158
C32	C	0.059711	-0.130713	0.045157
C33	C	0.059722	-0.130713	-0.045290
C34	C	0.060328	-0.071316	-0.045289
C35	C	0.060621	-0.041617	-0.000063
C36	C	0.065313	0.415733	-0.045267
C37	C	0.065924	0.475132	-0.045260
C38	C	0.065910	0.475127	0.045186
C39	C	0.065301	0.415733	0.045180
C40	C	0.065001	0.386038	-0.000050
O41	O	0.064345	0.321765	0.083607
O42	O	0.064344	0.321725	-0.083732
C43	C	-0.025580	0.677143	-0.000066
C44	C	-0.079236	0.676491	-0.000070
C45	C	-0.417985	0.724449	-0.000049
C46	C	-0.619648	0.722033	-0.000042
O47	O	-0.650843	0.765887	-0.000024
N48	N	-0.638844	0.669796	-0.000037
C49	C	-0.607621	0.618160	-0.000031
O50	O	-0.628575	0.573674	-0.000021
C51	C	-0.405959	0.620577	-0.000034
C52	C	-0.386766	0.672817	-0.000044
C53	C	-0.398792	0.776685	-0.000058
C54	C	-0.348379	0.777289	-0.000063
C55	C	-0.317160	0.725657	-0.000058
C56	C	-0.336353	0.673421	-0.000049
C57	C	-0.374736	0.568942	-0.000024
C58	C	-0.324318	0.569551	-0.000024
C59	C	-0.305125	0.621791	-0.000034
C60	C	-0.254721	0.622392	-0.000048
N61	N	-0.235525	0.674629	-0.000053
C62	C	-0.266744	0.726261	-0.000058
C63	C	-0.713496	0.616895	-0.000030
C64	C	-0.763912	0.616290	-0.000030
C65	C	-0.775936	0.720163	-0.000040
C66	C	-0.725520	0.720767	-0.000043
C67	C	-0.694301	0.669131	-0.000034
C68	C	-0.160873	0.727525	-0.000068
C69	C	-0.110456	0.728124	-0.000074
C70	C	-0.098436	0.624251	-0.000062
C71	C	-0.148849	0.623652	-0.000058
C72	C	-0.180067	0.675293	-0.000059
O73	O	-0.223497	0.578561	-0.000060
O74	O	-0.245780	0.770740	-0.000056
C75	C	-0.468398	0.723846	-0.000044
C76	C	-0.487591	0.671610	-0.000035
C77	C	-0.456372	0.619978	-0.000030
C78	C	-0.538007	0.671006	-0.000035
C79	C	-0.569226	0.722638	-0.000040
C80	C	-0.550030	0.774875	-0.000045
C81	C	-0.499617	0.775478	-0.000049
C82	C	-0.475568	0.567741	-0.000026
C83	C	-0.525981	0.567142	-0.000022
C84	C	-0.557200	0.618774	-0.000026
C85	C	0.151213	0.667271	-0.000042
C86	C	0.204869	0.667923	-0.000034
C87	C	0.058771	0.776366	-0.000063
C88	C	0.059411	0.839583	-0.000066
N89	N	0.062834	0.672185	-0.129301
C90	C	0.029763	0.711221	-0.473936
C91	C	0.029755	0.711235	-0.682813
O92	O	0.001640	0.744402	-0.709824
N93	N	0.062798	0.672221	-0.708928
C94	C	0.095843	0.633199	-0.682821
O95	O	0.123944	0.600011	-0.709827
C96	C	0.095848	0.633183	-0.473944
C97	C	0.062806	0.672203	-0.447832
C98	C	-0.003276	0.750238	-0.447823
C99	C	-0.003272	0.750236	-0.395607
C100	C	0.029771	0.711218	-0.369503
C101	C	0.062810	0.672201	-0.395616
C102	C	0.128890	0.594158	-0.447838
C103	C	0.128887	0.594157	-0.395615
C104	C	0.095846	0.633177	-0.369503
C105	C	0.095857	0.633181	-0.317296
N106	N	0.062815	0.672195	-0.291180
C107	C	0.029771	0.711213	-0.317284
C108	C	0.095839	0.633210	-0.792484
C109	C	0.095838	0.633215	-0.844703
C110	C	0.029750	0.711251	-0.844692
C111	C	0.029753	0.711248	-0.792472
C112	C	0.062796	0.672224	-0.766369
C113	C	0.029782	0.711207	-0.207626
C114	C	0.029791	0.711204	-0.155405
C115	C	0.095877	0.633166	-0.155421
C116	C	0.095871	0.633171	-0.207637
C117	C	0.062819	0.672194	-0.233739
O118	O	0.123954	0.600028	-0.290253
O119	O	0.001667	0.744387	-0.290270
C120	C	0.029759	0.711223	-0.526152
C121	C	0.062798	0.672206	-0.552264
C122	C	0.095841	0.633188	-0.526161
C123	C	0.062798	0.672211	-0.604483
C124	C	0.029755	0.711229	-0.630587
C125	C	-0.003288	0.750243	-0.604472
C126	C	-0.003284	0.750241	-0.552256
C127	C	0.128884	0.594174	-0.552276
C128	C	0.128878	0.594180	-0.604492
C129	C	0.095835	0.633198	-0.630596
N130	N	0.062795	0.672233	0.129193
H131	H	0.065054	0.391553	0.082005
H132	H	-0.094832	0.770666	-0.000084
H133	H	0.122781	0.601403	-0.228899
H134	H	0.122747	0.601431	-0.771235
H135	H	0.155794	0.562377	-0.374365
C136	C	0.132222	0.590245	-0.126702
C137	C	0.132220	0.590242	-0.069263
C138	C	0.168563	0.547317	-0.040543
C139	C	0.204908	0.504395	-0.069262
C140	C	0.204911	0.504396	-0.126704
C141	C	0.168568	0.547321	-0.155424
H142	H	0.105315	0.622017	-0.048001
H143	H	0.168561	0.547316	0.001979
H144	H	0.231811	0.472619	-0.048001
H145	H	0.231817	0.472621	-0.147966
H146	H	0.168571	0.547322	-0.197946
H147	H	-0.030190	0.782015	-0.530998
H148	H	-0.030192	0.782015	-0.625734
C149	C	-0.395836	0.511473	-0.000011
C150	C	-0.383933	0.468697	-0.043079
C151	C	-0.405029	0.411224	-0.043065
C152	C	-0.438028	0.396527	0.000019
C153	C	-0.449933	0.439304	0.043091
C154	C	-0.428836	0.496778	0.043077
H155	H	-0.359504	0.479575	-0.074976
H156	H	-0.396217	0.379557	-0.074950
H157	H	-0.453645	0.353982	0.000030
H158	H	-0.474362	0.428426	0.074987
H159	H	-0.437649	0.528444	0.074962
H160	H	0.155789	0.562406	-0.625750
H161	H	0.059479	-0.154905	-0.082113
H162	H	0.059464	-0.154887	0.081982
H163	H	0.065072	0.391561	-0.082098
H164	H	0.066181	0.499307	-0.082089
H165	H	-0.298901	0.527501	-0.000016
H166	H	0.063381	0.226078	-0.127324
C167	C	-0.006596	0.754167	-0.763751
C168	C	-0.061637	0.753700	-0.770937
C169	C	-0.097989	0.796620	-0.742219
C170	C	-0.079299	0.840007	-0.706315
C171	C	-0.024255	0.840477	-0.699128
C172	C	0.012097	0.797557	-0.727845
H173	H	-0.075475	0.721580	-0.797517
H174	H	-0.138736	0.796272	-0.747540
H175	H	-0.106209	0.871779	-0.685056
H176	H	-0.010418	0.872596	-0.672548
H177	H	0.052844	0.797904	-0.722524
H178	H	0.122749	0.601447	-0.865961
C179	C	-0.006559	0.754126	-0.126682
C180	C	-0.042907	0.797042	-0.155399
C181	C	-0.079256	0.839963	-0.126677
C182	C	-0.079255	0.839967	-0.069239
C183	C	-0.042905	0.797049	-0.040518
C184	C	-0.006557	0.754129	-0.069240
H185	H	-0.042909	0.797041	-0.197921
H186	H	-0.106164	0.871733	-0.147938
H187	H	-0.106163	0.871739	-0.047977
H188	H	-0.042904	0.797051	0.002004
H189	H	0.020352	0.722358	-0.047978
C190	C	0.060643	-0.038651	0.094910
C191	C	0.103039	-0.004659	0.107357
C192	C	0.103369	0.028003	0.157108
C193	C	0.061303	0.026672	0.194412
C194	C	0.018904	-0.007322	0.181965
C195	C	0.018574	-0.039983	0.132214
H196	H	0.134182	-0.003673	0.079742
H197	H	0.134756	0.053167	0.166322
H198	H	0.061547	0.050850	0.231241
H199	H	-0.012239	-0.008308	0.209581
H200	H	-0.012813	-0.065148	0.123001
H201	H	-0.073008	0.582213	-0.000060
H202	H	-0.424206	0.818733	-0.000060
H203	H	0.062276	0.118337	-0.127328
H204	H	0.155791	0.562400	-0.531026
C205	C	-0.006601	0.754169	-0.873413
C206	C	-0.043464	0.732233	-0.909314
C207	C	-0.079815	0.775145	-0.938038
C208	C	-0.079303	0.839992	-0.930860
C209	C	-0.042438	0.861931	-0.894957
C210	C	-0.006087	0.819019	-0.866233
H211	H	-0.043845	0.684226	-0.914629
H212	H	-0.107105	0.758904	-0.964616
H213	H	-0.106212	0.871758	-0.952123
H214	H	-0.042057	0.909938	-0.889642
H215	H	0.021203	0.835260	-0.839655
C216	C	-0.704410	0.778232	-0.000050
C217	C	-0.671408	0.792944	0.043028
C218	C	-0.650302	0.850412	0.043024
C219	C	-0.662198	0.893166	-0.000059
C220	C	-0.695201	0.878454	-0.043140
C221	C	-0.716307	0.820987	-0.043136
H222	H	-0.662601	0.761294	0.074924
H223	H	-0.625871	0.861302	0.074915
H224	H	-0.646574	0.935707	-0.000063
H225	H	-0.704009	0.910104	-0.075036
H226	H	-0.740739	0.810097	-0.075027
C227	C	0.060669	-0.038653	-0.095035
C228	C	0.102572	-0.053665	-0.132335
C229	C	0.102913	-0.021005	-0.182084
C230	C	0.061351	0.026667	-0.194531
C231	C	0.019445	0.041682	-0.157229
C232	C	0.019104	0.009022	-0.107481
H233	H	0.133342	-0.088957	-0.123122
H234	H	0.133935	-0.032120	-0.209696
H235	H	0.061603	0.050844	-0.231358
H236	H	-0.011325	0.076974	-0.166443
H237	H	-0.011918	0.020137	-0.079868
C238	C	0.063413	0.234592	0.140139
C239	C	0.021343	0.233268	0.177439
C240	C	0.021669	0.265934	0.227188
C241	C	0.064066	0.299925	0.239637
C242	C	0.106139	0.301251	0.202335
C243	C	0.105813	0.268585	0.152586
H244	H	-0.010044	0.208105	0.168224
H245	H	-0.009476	0.264953	0.254800
H246	H	0.064307	0.324107	0.276464
H247	H	0.137526	0.326414	0.211550
H248	H	0.136958	0.269566	0.124974
H249	H	-0.164477	0.581114	-0.000064
C250	C	0.066238	0.507805	0.094928
C251	C	0.024673	0.555484	0.107352
C252	C	0.024997	0.588165	0.157094
C253	C	0.066887	0.573167	0.194412
C254	C	0.108455	0.525486	0.181989
C255	C	0.108131	0.492805	0.132247
H256	H	-0.006339	0.566589	0.079726
H257	H	-0.005775	0.623462	0.166290
H258	H	0.067127	0.597359	0.231234
H259	H	0.139468	0.514381	0.209615
H260	H	0.138903	0.457508	0.123051
C261	C	-0.679160	0.560090	-0.000025
C262	C	-0.642848	0.546216	0.043054
C263	C	-0.608515	0.489410	0.043055
C264	C	-0.610494	0.446478	-0.000022
C265	C	-0.646807	0.460351	-0.043104
C266	C	-0.681140	0.517156	-0.043105
H267	H	-0.641382	0.577998	0.074945
H268	H	-0.581634	0.479141	0.074948
H269	H	-0.585079	0.404427	-0.000020
H270	H	-0.648273	0.428569	-0.074995
H271	H	-0.708022	0.527425	-0.074998
C272	C	-0.195208	0.784330	-0.000073
C273	C	-0.193233	0.827244	-0.043161
C274	C	-0.227568	0.884048	-0.043170
C275	C	-0.263878	0.897938	-0.000093
C276	C	-0.265855	0.855023	0.042998
C277	C	-0.231521	0.798219	0.043008
H278	H	-0.166352	0.816963	-0.075052
H279	H	-0.226104	0.915817	-0.075069
H280	H	-0.289295	0.939988	-0.000100
H281	H	-0.292736	0.865304	0.074890
H282	H	-0.232984	0.766450	0.074906
H283	H	-0.332757	0.819828	-0.000069
H284	H	0.062228	0.118356	0.127217
H285	H	-0.801363	0.762204	-0.000044
H286	H	0.155795	0.562384	-0.469092
H287	H	-0.483996	0.818017	-0.000057
H288	H	-0.575458	0.816915	-0.000051
C289	C	-0.039623	0.793153	-0.366886
C290	C	-0.094664	0.792679	-0.374071
C291	C	-0.131018	0.835596	-0.345353
C292	C	-0.112332	0.878987	-0.309450
C293	C	-0.057288	0.879462	-0.302263
C294	C	-0.020934	0.836546	-0.330981
H295	H	-0.108499	0.760557	-0.400649
H296	H	-0.171765	0.835244	-0.350673
H297	H	-0.139243	0.910757	-0.288191
H298	H	-0.043453	0.911584	-0.275684
H299	H	0.019813	0.836898	-0.325661
H300	H	-0.779534	0.573751	-0.000030
H301	H	-0.541602	0.524599	-0.000018
H302	H	-0.450153	0.525695	-0.000021
H303	H	-0.030186	0.782011	-0.469072
H304	H	0.002868	0.742982	-0.228872
