data_functionalizedCrystal
_audit_creation_method	'MofGen! by Chris Wilmer'
_symmetry_space_group_name_H-M	'P1'
_symmetry_Int_Tables_number	1
_symmetry_cell_setting	triclinic
loop_
_symmetry_equiv_pos_as_xyz
  x,y,z
_cell_length_a	17.699083
_cell_length_b	14.044190
_cell_length_c	16.776229
_cell_angle_alpha	89.988781
_cell_angle_beta	89.998886
_cell_angle_gamma	88.237396
loop_
_atom_site_label
_atom_site_type_symbol
_atom_site_fract_x
_atom_site_fract_y
_atom_site_fract_z
O1	O	1.012348	0.119850	-0.066185
O2	O	1.512348	0.619850	0.433815
O3	O	0.793046	0.135443	-0.066212
O4	O	1.293046	0.635443	0.433788
O5	O	0.899403	-0.010331	-0.066183
O6	O	1.399403	0.489669	0.433817
O7	O	0.905992	0.265624	-0.066213
O8	O	1.405992	0.765624	0.433787
O9	O	0.899387	-0.010339	0.066394
O10	O	1.399387	0.489661	0.566394
O11	O	0.793030	0.135434	0.066365
O12	O	1.293030	0.635434	0.566365
O13	O	1.012332	0.119841	0.066392
O14	O	1.512332	0.619841	0.566392
Zn15	Zn	0.902679	0.127636	0.087428
Zn16	Zn	1.402679	0.627636	0.587428
Zn17	Zn	0.902700	0.127648	-0.087248
Zn18	Zn	1.402700	0.627648	0.412752
O19	O	0.905976	0.265615	0.066363
O20	O	1.405976	0.765615	0.566363
C21	C	0.764802	0.134880	0.000073
C22	C	1.264802	0.634880	0.500073
C23	C	0.680669	0.133204	0.000064
C24	C	1.180669	0.633204	0.500064
C25	C	0.896512	-0.045643	0.000107
C26	C	1.396512	0.454357	0.500107
C27	C	0.887914	-0.150849	0.000113
C28	C	1.387914	0.349151	0.500113
C29	C	0.637952	0.218770	0.000054
C30	C	1.137952	0.718770	0.500054
C31	C	0.558900	0.217189	0.000065
C32	C	1.058900	0.717189	0.500065
C33	C	0.522565	0.130042	0.000079
C34	C	1.022565	0.630042	0.500079
C35	C	0.565288	0.044469	0.000090
C36	C	1.065288	0.544469	0.500090
C37	C	0.644339	0.046051	0.000086
C38	C	1.144339	0.546051	0.500086
C39	C	0.246485	0.038089	0.000111
C40	C	0.746485	0.538089	0.500111
C41	C	0.167428	0.036514	0.000113
C42	C	0.667428	0.536514	0.500113
C43	C	0.161045	0.209227	0.000090
C44	C	0.661045	0.709227	0.500090
C45	C	0.240096	0.210809	0.000085
C46	C	0.740096	0.710809	0.500085
C47	C	0.282812	0.125237	0.000101
C48	C	0.782812	0.625237	0.500101
C49	C	0.368529	0.126952	0.000091
C50	C	0.868529	0.626952	0.500091
C51	C	0.436849	0.128326	0.000083
C52	C	0.936849	0.628326	0.500083
C53	C	0.933175	-0.401240	0.000088
C54	C	1.433175	0.098760	0.500088
C55	C	0.872207	-0.343470	0.000086
C56	C	1.372207	0.156530	0.500086
C57	C	0.880949	-0.236286	0.000101
C58	C	1.380949	0.263714	0.500101
C59	C	0.924434	-0.508434	0.000072
C60	C	1.424434	-0.008434	0.500072
C61	C	1.040576	0.120405	0.000105
C62	C	1.540576	0.620405	0.500105
C63	C	1.124710	0.122081	0.000110
C64	C	1.624710	0.622081	0.500110
C65	C	0.908866	0.300927	0.000071
C66	C	1.408866	0.800927	0.500071
C67	C	0.917464	0.406133	0.000060
C68	C	1.417464	0.906133	0.500060
N69	N	0.902670	0.127628	0.206639
N70	N	1.402670	0.627628	0.706639
N71	N	0.902714	0.127649	-0.206459
N72	N	1.402714	0.627649	0.293541
C73	C	0.949782	0.063106	0.248369
C74	C	1.449782	0.563106	0.748369
C75	C	0.949786	0.063105	0.331821
C76	C	1.449786	0.563105	0.831821
C77	C	0.902681	0.127631	0.373542
C78	C	1.402681	0.627631	0.873542
C79	C	0.855564	0.192157	0.331806
C80	C	1.355564	0.692157	0.831806
C81	C	0.855556	0.192152	0.248355
C82	C	1.355556	0.692152	0.748355
C83	C	0.855592	0.192175	0.668353
C84	C	1.355592	0.692175	1.168353
C85	C	0.855605	0.192177	0.751810
C86	C	1.355605	0.692177	1.251810
C87	C	0.949822	0.063128	0.751819
C88	C	1.449822	0.563128	1.251819
C89	C	0.949815	0.063123	0.668368
C90	C	1.449815	0.563123	1.168368
C91	C	0.902695	0.127645	0.626640
C92	C	1.402695	0.627645	1.126640
C93	C	0.902690	0.127644	0.536151
C94	C	1.402690	0.627644	1.036151
C95	C	0.902690	0.127638	0.464029
C96	C	1.402690	0.627638	0.964029
H97	H	0.667529	0.289735	0.000042
H98	H	1.167529	0.789735	0.500042
H99	H	0.817206	0.244692	0.365780
H100	H	1.317206	0.744692	0.865780
C101	C	0.293465	-0.056034	0.000117
C102	C	0.793465	0.443966	0.500117
H103	H	0.345749	-0.042617	0.000119
H104	H	0.845749	0.457383	0.500119
H105	H	0.281818	-0.091770	-0.046112
H106	H	0.781818	0.408230	0.453888
H107	H	0.281822	-0.091779	0.046358
H108	H	0.781822	0.408221	0.546358
H109	H	0.126257	0.278904	0.000081
H110	H	0.626257	0.778904	0.500081
C111	C	0.792825	-0.385391	0.000075
C112	C	1.292825	0.114609	0.500075
H113	H	0.755722	-0.335048	0.000072
H114	H	1.255722	0.164952	0.500072
H115	H	0.786885	-0.423510	0.046302
H116	H	1.286885	0.076490	0.546302
H117	H	0.786891	-0.423471	-0.046169
H118	H	1.286891	0.076529	0.453831
C119	C	1.012552	-0.359318	0.000115
C120	C	1.512552	0.140682	0.500115
H121	H	1.049658	-0.409657	0.000112
H122	H	1.549658	0.090343	0.500112
H123	H	1.018473	-0.321238	0.046354
H124	H	1.518473	0.178762	0.546354
H125	H	1.018497	-0.321199	-0.046116
H126	H	1.518497	0.178801	0.453884
C127	C	1.001597	-0.007876	0.202483
C128	C	1.501597	0.492124	0.702483
H129	H	1.029650	-0.046309	0.239291
H130	H	1.529650	0.453691	0.739291
H131	H	1.035397	0.026162	0.169917
H132	H	1.535397	0.526162	0.669917
H133	H	0.971703	-0.047291	0.169943
H134	H	1.471703	0.452709	0.669943
H135	H	0.817192	0.244691	0.214380
H136	H	1.317192	0.744691	0.714380
H137	H	0.817227	0.244712	0.634385
H138	H	1.317227	0.744712	1.134385
H139	H	0.988174	0.010583	0.634402
H140	H	1.488174	0.510583	1.134402
C141	C	0.280060	0.306671	0.000073
C142	C	0.780060	0.806671	0.500073
H143	H	0.243297	0.357406	0.000077
H144	H	0.743297	0.857406	0.500077
H145	H	0.310766	0.310884	-0.046159
H146	H	0.810766	0.810884	0.453841
H147	H	0.310764	0.310869	0.046311
H148	H	0.810764	0.810869	0.546311
H149	H	0.988148	0.010566	0.365797
H150	H	1.488148	0.510566	0.865797
C151	C	0.525326	-0.051394	0.000105
C152	C	1.025326	0.448606	0.500105
H153	H	0.562091	-0.102128	0.000117
H154	H	1.062091	0.397872	0.500117
H155	H	0.494620	-0.055599	-0.046126
H156	H	0.994620	0.444401	0.453874
H157	H	0.494622	-0.055604	0.046345
H158	H	0.994622	0.444396	0.546345
H159	H	0.679118	-0.023626	0.000093
H160	H	1.179118	0.476374	0.500093
H161	H	0.988188	0.010588	0.785803
H162	H	1.488188	0.510588	1.285803
C163	C	0.803786	0.263153	0.797705
C164	C	1.303786	0.763153	1.297705
H165	H	0.810547	0.253919	0.853382
H166	H	1.310547	0.753919	1.353382
H167	H	0.752585	0.252935	0.784042
H168	H	1.252585	0.752935	1.284042
H169	H	0.816271	0.326397	0.784015
H170	H	1.316271	0.826397	1.284015
C171	C	0.511914	0.311312	0.000052
C172	C	1.011914	0.811312	0.500052
H173	H	0.544875	0.363440	0.000033
H174	H	1.044875	0.863440	0.500033
H175	H	0.480946	0.314287	0.046286
H176	H	0.980946	0.814287	0.546286
H177	H	0.480942	0.314285	-0.046184
H178	H	0.980942	0.814285	0.453816
H179	H	0.137847	-0.034456	0.000126
H180	H	0.637847	0.465544	0.500126
