data_functionalizedCrystal
_audit_creation_method	'MofGen! by Chris Wilmer'
_symmetry_space_group_name_H-M	'P1'
_symmetry_Int_Tables_number	1
_symmetry_cell_setting	triclinic
loop_
_symmetry_equiv_pos_as_xyz
  x,y,z
_cell_length_a	19.077105
_cell_length_b	16.625545
_cell_length_c	19.076919
_cell_angle_alpha	87.727920
_cell_angle_beta	89.923776
_cell_angle_gamma	87.721938
loop_
_atom_site_label
_atom_site_type_symbol
_atom_site_fract_x
_atom_site_fract_y
_atom_site_fract_z
Zn1	Zn	1.058264	-0.390077	0.440420
Zn2	Zn	1.062901	-0.519720	0.322913
Zn3	Zn	0.945482	-0.379275	0.318213
Zn4	Zn	0.940723	-0.519233	0.435666
O5	O	1.001842	-0.452076	0.379303
O6	O	1.157211	-0.411998	0.428789
O7	O	1.051258	-0.496772	0.223959
O8	O	0.960493	-0.267879	0.334446
O9	O	1.160618	-0.507246	0.342457
O10	O	1.043354	-0.275815	0.424231
O11	O	0.964990	-0.393588	0.220505
O12	O	0.846519	-0.393117	0.329837
O13	O	0.952383	-0.506417	0.534628
O14	O	0.843023	-0.495944	0.416129
O15	O	1.038739	-0.411526	0.538120
O16	O	1.046644	-0.632484	0.337848
O17	O	0.956880	-0.632127	0.420687
C18	C	0.819274	-0.443306	0.371957
C19	C	0.741170	-0.439574	0.368832
C20	C	0.702678	-0.491432	0.412220
C21	C	0.629291	-0.487915	0.409287
C22	C	0.594397	-0.432544	0.362960
C23	C	0.632895	-0.380681	0.319570
C24	C	0.706281	-0.384194	0.322508
C25	C	0.375110	-0.416283	0.349368
C26	C	0.301719	-0.412775	0.346432
C27	C	0.298120	-0.520009	0.436150
C28	C	0.371507	-0.523521	0.439080
C29	C	0.409999	-0.471655	0.395693
N30	N	0.519384	-0.428950	0.359959
N31	N	0.485011	-0.475246	0.398698
C32	C	1.001767	-0.661562	0.379278
C33	C	1.001798	-0.751186	0.379293
C34	C	1.001825	-0.823970	0.379308
C35	C	1.001865	-0.915281	0.379325
C36	C	1.001901	-0.988060	0.379336
C37	C	1.001941	-1.079376	0.379352
C38	C	1.185123	-0.460881	0.386678
C39	C	1.263227	-0.464633	0.389820
C40	C	0.994513	-0.460122	0.562583
C41	C	0.991389	-0.463551	0.640686
C42	C	1.001937	-0.241773	0.379344
C43	C	1.001977	-0.152155	0.379362
C44	C	1.009184	-0.444005	0.196737
C45	C	1.012444	-0.440355	0.118640
C46	C	1.034881	-0.415760	0.679199
C47	C	1.031938	-0.418978	0.752584
C48	C	0.985506	-0.469993	0.787457
C49	C	0.942010	-0.517786	0.748939
C50	C	0.944950	-0.514563	0.675554
C51	C	0.971888	-0.484926	1.006738
C52	C	0.968952	-0.488147	1.080128
C53	C	1.058880	-0.389338	1.083768
C54	C	1.061819	-0.386123	1.010382
C55	C	1.018320	-0.433913	0.971871
N56	N	0.982498	-0.473285	0.862469
N57	N	1.021325	-0.430615	0.896860
H58	H	1.072693	-0.374221	0.650811
O59	O	0.416617	-0.360345	0.302568
H60	H	0.473509	-0.372079	0.312396
O61	O	0.918862	-0.543162	1.117746
H62	H	0.931436	-0.606405	1.104133
H63	H	0.604479	-0.335593	0.281853
O64	O	0.891927	-0.572805	0.786552
H65	H	0.862173	-0.605490	0.747440
H66	H	1.094293	-0.350428	1.115132
O67	O	0.587776	-0.543995	0.455949
H68	H	0.624371	-0.583149	0.488600
O69	O	0.924938	-0.536425	0.965203
H70	H	0.892150	-0.572428	1.001782
O71	O	0.256627	-0.575990	0.482926
H72	H	0.268523	-0.565394	0.538667
O73	O	0.409143	-0.583236	0.489053
H74	H	0.370046	-0.618700	0.518737
O75	O	0.264080	-0.353045	0.296469
H76	H	0.303173	-0.317563	0.266797
O77	O	0.740312	-0.551141	0.462198
H78	H	0.774989	-0.592332	0.432033
H79	H	0.737620	-0.341962	0.287180
H80	H	1.067355	-0.380063	0.783938
O81	O	1.111902	-0.331104	0.972769
H82	H	1.141649	-0.298408	1.011879
O83	O	0.898033	-0.566097	0.634010
H84	H	0.865252	-0.602114	0.670586
