data_functionalizedCrystal
_audit_creation_method	'MofGen! by Chris Wilmer'
_symmetry_space_group_name_H-M	'P1'
_symmetry_Int_Tables_number	1
_symmetry_cell_setting	triclinic
loop_
_symmetry_equiv_pos_as_xyz
  x,y,z
_cell_length_a	17.077404
_cell_length_b	16.625545
_cell_length_c	17.077396
_cell_angle_alpha	89.972074
_cell_angle_beta	89.978556
_cell_angle_gamma	90.023805
loop_
_atom_site_label
_atom_site_type_symbol
_atom_site_fract_x
_atom_site_fract_y
_atom_site_fract_z
Zn1	Zn	1.200040	-0.321039	-0.443886
Zn2	Zn	1.533373	0.012294	-0.110553
Zn3	Zn	1.866707	0.345627	0.222780
Zn4	Zn	1.199941	-0.455882	-0.312622
Zn5	Zn	1.533274	-0.122549	0.020712
Zn6	Zn	1.866608	0.210785	0.354045
Zn7	Zn	1.068772	-0.321063	-0.312630
Zn8	Zn	1.402105	0.012270	0.020703
Zn9	Zn	1.735439	0.345604	0.354037
Zn10	Zn	1.068734	-0.455830	-0.443841
Zn11	Zn	1.402067	-0.122496	-0.110507
Zn12	Zn	1.735400	0.210837	0.222826
O13	O	1.134372	-0.388453	-0.378245
O14	O	1.467705	-0.055120	-0.044911
O15	O	1.801038	0.278213	0.288422
O16	O	1.309874	-0.338939	-0.426490
O17	O	1.643207	-0.005605	-0.093156
O18	O	1.976540	0.327728	0.240177
O19	O	1.182516	-0.438030	-0.202776
O20	O	1.515849	-0.104697	0.130558
O21	O	1.849182	0.228637	0.463891
O22	O	1.086242	-0.208227	-0.330064
O23	O	1.419576	0.125106	0.003269
O24	O	1.752909	0.458439	0.336603
O25	O	1.309801	-0.438007	-0.330050
O26	O	1.643134	-0.104674	0.003283
O27	O	1.976468	0.228660	0.336617
O28	O	1.182684	-0.208210	-0.426497
O29	O	1.516018	0.125123	-0.093164
O30	O	1.849351	0.458457	0.240169
O31	O	1.086146	-0.338979	-0.202782
O32	O	1.419480	-0.005646	0.130551
O33	O	1.752813	0.327688	0.463885
O34	O	0.958920	-0.338928	-0.330020
O35	O	1.292253	-0.005595	0.003314
O36	O	1.625587	0.327739	0.336647
O37	O	1.086177	-0.437917	-0.553694
O38	O	1.419511	-0.104584	-0.220361
O39	O	1.752844	0.228749	0.112973
O40	O	0.958892	-0.437940	-0.426420
O41	O	1.292225	-0.104607	-0.093086
O42	O	1.625559	0.228726	0.240247
O43	O	1.182647	-0.338888	-0.553727
O44	O	1.515981	-0.005554	-0.220394
O45	O	1.849314	0.327779	0.112939
O46	O	1.182479	-0.568707	-0.330006
O47	O	1.515812	-0.235374	0.003328
O48	O	1.849145	0.097959	0.336661
O49	O	1.086081	-0.568669	-0.426412
O50	O	1.419415	-0.235336	-0.093078
O51	O	1.752748	0.097998	0.240255
C52	C	0.930424	-0.388432	-0.378216
C53	C	1.263757	-0.055098	-0.044883
C54	C	1.597090	0.278235	0.288451
C55	C	0.843174	-0.388442	-0.378223
C56	C	1.176507	-0.055108	-0.044889
C57	C	1.509841	0.278225	0.288444
C58	C	0.467395	-0.336983	-0.428570
C59	C	0.800728	-0.003650	-0.095236
C60	C	1.134061	0.329683	0.238097
C61	C	0.549375	-0.336978	-0.428561
C62	C	0.882708	-0.003644	-0.095228
C63	C	1.216042	0.329689	0.238106
C64	C	0.590325	-0.388470	-0.378264
C65	C	0.923658	-0.055137	-0.044931
C66	C	1.256992	0.278196	0.288402
C67	C	0.549290	-0.439978	-0.327979
C68	C	0.882624	-0.106645	0.005354
C69	C	1.215957	0.226688	0.338688
C70	C	0.467312	-0.439988	-0.327992
C71	C	0.800645	-0.106654	0.005341
C72	C	1.133978	0.226679	0.338675
C73	C	0.720161	-0.439954	-0.327954
C74	C	1.053494	-0.106621	0.005380
C75	C	1.386827	0.226713	0.338713
C76	C	0.802145	-0.439944	-0.327939
C77	C	1.135478	-0.106610	0.005394
C78	C	1.468812	0.226723	0.338728
C79	C	0.802224	-0.336944	-0.428523
C80	C	1.135557	-0.003611	-0.095189
C81	C	1.468891	0.329723	0.238144
C82	C	0.720245	-0.336953	-0.428536
C83	C	1.053578	-0.003620	-0.095202
C84	C	1.386912	0.329713	0.238131
C85	C	0.679216	-0.388460	-0.378249
C86	C	1.012549	-0.055127	-0.044916
C87	C	1.345883	0.278206	0.288418
C88	C	1.134286	-0.597944	-0.378220
C89	C	1.467620	-0.264611	-0.044887
C90	C	1.800953	0.068722	0.288447
C91	C	1.134322	-0.687565	-0.378236
C92	C	1.467655	-0.354232	-0.044902
C93	C	1.800988	-0.020899	0.288431
C94	C	1.134352	-0.760348	-0.378251
C95	C	1.467686	-0.427015	-0.044918
C96	C	1.801019	-0.093681	0.288415
C97	C	1.134398	-0.851656	-0.378269
C98	C	1.467731	-0.518323	-0.044935
C99	C	1.801065	-0.184990	0.288398
C100	C	1.134439	-0.924433	-0.378279
C101	C	1.467772	-0.591099	-0.044945
C102	C	1.801105	-0.257766	0.288388
C103	C	1.134484	-1.015747	-0.378295
C104	C	1.467817	-0.682414	-0.044961
C105	C	1.801150	-0.349080	0.288372
C106	C	1.339116	-0.388476	-0.378274
C107	C	1.672449	-0.055143	-0.044941
C108	C	2.005783	0.278191	0.288393
C109	C	1.426366	-0.388486	-0.378286
C110	C	1.759699	-0.055152	-0.044953
C111	C	2.093032	0.278181	0.288380
C112	C	1.134419	-0.388394	-0.582989
C113	C	1.467753	-0.055061	-0.249656
C114	C	1.801086	0.278273	0.083678
C115	C	1.134439	-0.388369	-0.670239
C116	C	1.467773	-0.055035	-0.336906
C117	C	1.801106	0.278298	-0.003572
C118	C	1.134479	-0.178145	-0.378287
C119	C	1.467812	0.155189	-0.044953
C120	C	1.801145	0.488522	0.288380
C121	C	1.134524	-0.088523	-0.378305
C122	C	1.467858	0.244810	-0.044971
C123	C	1.801191	0.578143	0.288362
C124	C	1.184673	-0.336800	-0.711248
C125	C	1.518007	-0.003466	-0.377914
C126	C	1.851340	0.329867	-0.044581
C127	C	1.184683	-0.336773	-0.793228
C128	C	1.518016	-0.003439	-0.459895
C129	C	1.851349	0.329894	-0.126562
C130	C	1.134462	-0.388320	-0.834198
C131	C	1.467795	-0.054986	-0.500865
C132	C	1.801128	0.278347	-0.167532
C133	C	1.084222	-0.439891	-0.793184
C134	C	1.417556	-0.106558	-0.459850
C135	C	1.750889	0.226776	-0.126517
C136	C	1.084209	-0.439913	-0.711205
C137	C	1.417543	-0.106580	-0.377871
C138	C	1.750876	0.226753	-0.044538
C139	C	1.084254	-0.439843	-0.964054
C140	C	1.417587	-0.106509	-0.630721
C141	C	1.750921	0.226824	-0.297387
C142	C	1.084268	-0.439822	-1.046039
C143	C	1.417601	-0.106488	-0.712705
C144	C	1.750934	0.226845	-0.379372
C145	C	1.184727	-0.336702	-1.046077
C146	C	1.518060	-0.003369	-0.712744
C147	C	1.851394	0.329965	-0.379411
C148	C	1.184714	-0.336724	-0.964098
C149	C	1.518048	-0.003391	-0.630765
C150	C	1.851381	0.329942	-0.297432
C151	C	1.134476	-0.388297	-0.923089
C152	C	1.467809	-0.054964	-0.589756
C153	C	1.801142	0.278370	-0.256423
C154	C	1.134370	-0.388454	-0.174297
C155	C	1.467703	-0.055121	0.159036
C156	C	1.801036	0.278212	0.492370
C157	C	1.134501	-0.388253	-0.087047
C158	C	1.467835	-0.054919	0.246286
C159	C	1.801168	0.278414	0.579619
H160	H	0.582639	-0.481908	-0.287030
H161	H	0.915972	-0.148574	0.046304
H162	H	1.249305	0.184759	0.379637
H163	H	0.686906	-0.295020	-0.469488
H164	H	1.020239	0.038313	-0.136155
H165	H	1.353572	0.371647	0.197178
H166	H	0.433907	-0.481927	-0.287048
H167	H	0.767240	-0.148594	0.046286
H168	H	1.100574	0.184739	0.379619
H169	H	0.686757	-0.481900	-0.287008
H170	H	1.020091	-0.148566	0.046325
H171	H	1.353424	0.184767	0.379659
H172	H	1.043329	-0.481859	-0.826548
H173	H	1.376662	-0.148525	-0.493215
H174	H	1.709995	0.184808	-0.159882
H175	H	1.043296	-0.481898	-0.677816
H176	H	1.376629	-0.148565	-0.344483
H177	H	1.709963	0.184769	-0.011150
H178	H	1.225572	-0.294827	-0.677896
H179	H	1.558905	0.038507	-0.344562
H180	H	1.892238	0.371840	-0.011229
H181	H	0.582777	-0.295042	-0.469509
H182	H	0.916110	0.038291	-0.136176
H183	H	1.249444	0.371624	0.197157
H184	H	1.225590	-0.294782	-0.826614
H185	H	1.558923	0.038551	-0.493281
H186	H	1.892257	0.371885	-0.159947
H187	H	0.835634	-0.295004	-0.469467
H188	H	1.168967	0.038329	-0.136133
H189	H	1.502300	0.371663	0.197200
H190	H	0.835485	-0.481876	-0.286986
H191	H	1.168818	-0.148543	0.046348
H192	H	1.502151	0.184791	0.379681
H193	H	0.434059	-0.295047	-0.469522
H194	H	0.767392	0.038286	-0.136189
H195	H	1.100726	0.371620	0.197144
H196	H	1.225613	-0.294755	-0.930743
H197	H	1.558946	0.038579	-0.597409
H198	H	1.892280	0.371912	-0.264076
H199	H	1.225632	-0.294708	-1.079471
H200	H	1.558965	0.038625	-0.746138
H201	H	1.892299	0.371958	-0.412804
H202	H	1.043371	-0.481794	-1.079394
H203	H	1.376705	-0.148461	-0.746061
H204	H	1.710038	0.184873	-0.412728
H205	H	1.043332	-0.481826	-0.930667
H206	H	1.376665	-0.148493	-0.597334
H207	H	1.709999	0.184841	-0.264000
