data_functionalizedCrystal
_audit_creation_method	'MofGen! by Chris Wilmer'
_symmetry_space_group_name_H-M	'P1'
_symmetry_Int_Tables_number	1
_symmetry_cell_setting	triclinic
loop_
_symmetry_equiv_pos_as_xyz
  x,y,z
_cell_length_a	14.044191
_cell_length_b	14.044220
_cell_length_c	9.730217
_cell_angle_alpha	89.995579
_cell_angle_beta	90.000957
_cell_angle_gamma	93.190327
loop_
_atom_site_label
_atom_site_type_symbol
_atom_site_fract_x
_atom_site_fract_y
_atom_site_fract_z
O1	O	1.277168	0.230198	-0.114230
O2	O	1.777168	0.730198	0.385770
O3	O	1.000496	0.221885	-0.114247
O4	O	1.500496	0.721885	0.385753
O5	O	1.134679	0.087706	-0.114225
O6	O	1.634679	0.587706	0.385775
O7	O	1.142985	0.364377	-0.114252
O8	O	1.642985	0.864377	0.385748
O9	O	1.134675	0.087704	0.114355
O10	O	1.634675	0.587704	0.614355
O11	O	1.000491	0.221884	0.114333
O12	O	1.500491	0.721884	0.614333
O13	O	1.277164	0.230196	0.114350
O14	O	1.777164	0.730196	0.614350
Zn15	Zn	1.138827	0.226040	0.150634
Zn16	Zn	1.638827	0.726040	0.650634
Zn17	Zn	1.138833	0.226042	-0.150530
Zn18	Zn	1.638833	0.726042	0.349470
O19	O	1.142980	0.364376	0.114329
O20	O	1.642980	0.864376	0.614329
C21	C	0.964872	0.218248	0.000041
C22	C	1.464872	0.718248	0.500041
C23	C	0.858728	0.207401	0.000035
C24	C	1.358728	0.707401	0.500035
C25	C	0.613270	0.264501	0.000043
C26	C	1.113270	0.764501	0.500043
C27	C	0.664395	0.187585	0.000048
C28	C	1.164395	0.687585	0.500048
C29	C	0.772532	0.198613	0.000041
C30	C	1.272532	0.698613	0.500041
C31	C	0.505123	0.253474	0.000051
C32	C	1.005123	0.753474	0.500051
C33	C	1.131041	0.052083	0.000065
C34	C	1.631041	0.552083	0.500065
C35	C	1.120197	-0.054060	0.000066
C36	C	1.620197	0.445940	0.500066
C37	C	1.100370	-0.248398	0.000045
C38	C	1.600370	0.251602	0.500045
C39	C	1.177285	-0.299526	0.000046
C40	C	1.677285	0.200474	0.500046
C41	C	1.166253	-0.407663	0.000034
C42	C	1.666253	0.092337	0.500034
C43	C	1.111400	-0.140252	0.000057
C44	C	1.611400	0.359748	0.500057
C45	C	1.312788	0.233834	0.000059
C46	C	1.812788	0.733834	0.500059
C47	C	1.418931	0.244681	0.000057
C48	C	1.918931	0.744681	0.500057
C49	C	1.146618	0.399998	0.000035
C50	C	1.646618	0.899998	0.500035
C51	C	1.157463	0.506142	0.000025
C52	C	1.657463	1.006142	0.500025
N53	N	1.138830	0.226038	0.356170
N54	N	1.638830	0.726038	0.856170
N55	N	1.138837	0.226036	-0.356067
N56	N	1.638837	0.726036	0.143933
C57	C	1.257705	0.107264	0.356180
C58	C	1.757705	0.607264	0.856180
C59	C	1.317149	0.047880	0.428125
C60	C	1.817149	0.547880	0.928125
C61	C	1.317159	0.047880	0.572005
C62	C	1.817159	0.547880	1.072005
C63	C	1.257716	0.107269	0.643943
C64	C	1.757716	0.607269	1.143943
C65	C	1.198271	0.166652	0.571998
C66	C	1.698271	0.666652	1.071998
C67	C	1.198270	0.166648	0.428115
C68	C	1.698270	0.666648	0.928115
C69	C	1.079393	0.285420	0.571988
C70	C	1.579393	0.785420	1.071988
C71	C	1.079386	0.285426	0.428109
C72	C	1.579386	0.785426	0.928109
C73	C	1.019950	0.344809	0.643927
C74	C	1.519950	0.844809	1.143927
C75	C	0.960509	0.404199	0.571982
C76	C	1.460509	0.904199	1.071982
C77	C	0.960502	0.404197	0.428093
C78	C	1.460502	0.904197	0.928093
C79	C	1.019942	0.344810	0.356164
C80	C	1.519942	0.844810	0.856164
H81	H	0.626952	0.113452	-0.000041
H82	H	1.126952	0.613452	0.499959
H83	H	1.365545	-0.000475	0.369541
H84	H	1.865545	0.499525	0.869541
H85	H	0.650711	0.338628	0.000032
H86	H	1.150711	0.838628	0.500032
H87	H	1.251419	-0.262085	-0.000042
H88	H	1.751419	0.237915	0.499958
H89	H	1.026242	-0.285837	0.000038
H90	H	1.526242	0.214163	0.500038
F91	F	1.257712	0.107269	0.203050
F92	F	1.757712	0.607269	0.703050
H93	H	0.912092	0.452550	0.369523
H94	H	1.412092	0.952550	0.869523
H95	H	1.365559	-0.000479	0.630583
H96	H	1.865559	0.499521	1.130583
F97	F	1.257716	0.107256	0.797073
F98	F	1.757716	0.607256	1.297073
F99	F	0.897247	0.467391	0.648549
F100	F	1.397247	0.967391	1.148549
F101	F	1.019955	0.344804	0.797057
F102	F	1.519955	0.844804	1.297057
F103	F	1.019945	0.344807	0.203034
F104	F	1.519945	0.844807	0.703034
