data_functionalizedCrystal
_audit_creation_method	'MofGen! by Chris Wilmer'
_symmetry_space_group_name_H-M	'P1'
_symmetry_Int_Tables_number	1
_symmetry_cell_setting	triclinic
loop_
_symmetry_equiv_pos_as_xyz
  x,y,z
_cell_length_a	14.519731
_cell_length_b	14.519731
_cell_length_c	9.730217
_cell_angle_alpha	89.995761
_cell_angle_beta	89.998497
_cell_angle_gamma	83.688853
loop_
_atom_site_label
_atom_site_type_symbol
_atom_site_fract_x
_atom_site_fract_y
_atom_site_fract_z
O1	O	1.223861	0.120982	-0.114296
O2	O	0.955388	0.135198	-0.114299
O3	O	1.096732	-0.006147	-0.114285
O4	O	1.082516	0.262327	-0.114310
O5	O	1.096728	-0.006148	0.114295
O6	O	0.955383	0.135197	0.114282
O7	O	1.223856	0.120981	0.114284
Zn8	Zn	1.089619	0.128088	0.150575
Zn9	Zn	1.089625	0.128090	-0.150589
O10	O	1.082512	0.262325	0.114270
C11	C	1.096064	-0.040507	0.000006
C12	C	1.094068	-0.142887	0.000006
C13	C	0.921026	0.134531	-0.000009
C14	C	0.818645	0.132535	-0.000009
C15	C	1.092446	-0.226031	0.000003
C16	C	1.090419	-0.330340	-0.000007
C17	C	1.088811	-0.413479	-0.000016
C18	C	1.086785	-0.517795	-0.000024
C19	C	0.735501	0.130913	-0.000015
C20	C	0.631192	0.128887	-0.000015
C21	C	0.548053	0.127278	-0.000015
C22	C	0.443738	0.125252	-0.000018
C23	C	1.258218	0.121648	-0.000009
C24	C	1.360598	0.123643	-0.000017
C25	C	1.083180	0.296685	-0.000023
C26	C	1.085176	0.399066	-0.000033
N27	N	1.089622	0.128087	0.356111
N28	N	1.089629	0.128085	-0.356126
C29	C	1.214833	0.002962	0.356114
C30	C	1.277445	-0.059597	0.428056
C31	C	1.277455	-0.059598	0.571935
C32	C	1.214844	0.002966	0.643877
C33	C	1.152232	0.065526	0.571936
C34	C	1.152231	0.065521	0.428053
C35	C	1.027017	0.190644	0.571933
C36	C	1.027011	0.190651	0.428053
C37	C	0.964406	0.253208	0.643875
C38	C	0.901797	0.315773	0.571933
C39	C	0.901791	0.315772	0.428045
C40	C	0.964399	0.253210	0.356112
H41	H	1.214840	0.002964	0.238960
H42	H	0.964403	0.253207	0.238957
C43	C	0.832931	0.384587	0.651066
C44	C	0.833081	0.384732	0.809329
C45	C	0.764214	0.453548	0.888466
C46	C	0.695196	0.522219	0.809342
C47	C	0.695043	0.522076	0.651070
C48	C	0.763911	0.453260	0.571933
H49	H	0.884174	0.333896	0.867909
H50	H	0.764327	0.453654	1.005630
H51	H	0.644217	0.573160	0.867924
H52	H	0.643950	0.572912	0.592490
H53	H	0.763797	0.453154	0.454769
H54	H	0.850801	0.366712	0.369478
C55	C	1.346318	-0.128415	0.348922
C56	C	1.346340	-0.128402	0.190659
C57	C	1.415211	-0.197221	0.111534
C58	C	1.484060	-0.266053	0.190671
C59	C	1.484041	-0.266068	0.348943
C60	C	1.415170	-0.197249	0.428068
H61	H	1.295371	-0.077446	0.132069
H62	H	1.415225	-0.197209	-0.005630
H63	H	1.535043	-0.316997	0.132098
H64	H	1.535010	-0.317024	0.407533
H65	H	1.415156	-0.197261	0.545232
H66	H	1.328435	-0.110542	0.630510
H67	H	1.214848	0.002954	0.761032
H68	H	0.964413	0.253201	0.761029
