data_functionalizedCrystal
_audit_creation_method	'MofGen! by Chris Wilmer'
_symmetry_space_group_name_H-M	'P1'
_symmetry_Int_Tables_number	1
_symmetry_cell_setting	triclinic
loop_
_symmetry_equiv_pos_as_xyz
  x,y,z
_cell_length_a	26.455835
_cell_length_b	26.455273
_cell_length_c	26.451828
_cell_angle_alpha	60.005170
_cell_angle_beta	60.010757
_cell_angle_gamma	59.993435
loop_
_atom_site_label
_atom_site_type_symbol
_atom_site_fract_x
_atom_site_fract_y
_atom_site_fract_z
O1	O	0.069940	-0.738516	0.617604
O2	O	0.026299	-0.574986	0.497618
O3	O	0.129847	-0.678463	0.497546
O4	O	-0.033607	-0.635040	0.617676
O5	O	0.164197	-0.644116	0.531822
O6	O	0.060649	-0.540639	0.531894
O7	O	0.104290	-0.704170	0.651880
Cu8	Cu	0.085606	-0.619268	0.595016
Cu9	Cu	0.044984	-0.659887	0.554481
O10	O	0.000742	-0.600693	0.651952
N11	N	0.114179	-0.590703	0.623530
N12	N	0.016416	-0.688458	0.525968
C13	C	0.157553	-0.547535	0.933368
C14	C	0.424104	-0.547506	0.666656
C15	C	0.157413	-0.547503	0.666729
C16	C	0.157397	-0.280846	0.666749
C17	C	0.200330	-0.409550	0.709625
C18	C	0.200339	-0.504608	0.709615
C19	C	0.224118	-0.480848	0.733375
C20	C	0.327800	-0.462984	0.678792
C21	C	0.392611	-0.484588	0.657175
C22	C	0.392630	-0.589450	0.697162
C23	C	0.327821	-0.567844	0.718781
C24	C	0.215955	-0.377135	0.645910
C25	C	0.194327	-0.312320	0.624323
C26	C	0.141457	-0.312339	0.730169
C27	C	0.163084	-0.377154	0.751756
C28	C	0.136618	-0.488954	0.725292
C29	C	0.115007	-0.510553	0.703686
C30	C	0.220833	-0.563461	0.650740
C31	C	0.242447	-0.541861	0.672339
C32	C	0.136680	-0.488971	0.837094
C33	C	0.115112	-0.510589	0.901907
C34	C	0.220969	-0.563508	0.901868
C35	C	0.242535	-0.541892	0.837053
C36	C	0.200389	-0.504622	0.804668
C37	C	0.295409	-0.504610	0.709593
C38	C	0.132990	-0.570876	1.004655
C39	C	0.495389	-0.570440	0.642547
C40	C	0.132802	-0.570856	0.643399
C41	C	0.133212	-0.209553	0.643833
C42	C	-0.097217	-0.706972	0.506986
C43	C	-0.002040	-0.707108	0.412067
C44	C	-0.002230	-0.802124	0.507163
C45	C	-0.002214	-0.707101	0.507221
C46	C	-0.025925	-0.730827	0.483360
N47	N	0.553723	-0.590712	0.623415
O48	O	0.751638	-0.596429	0.475603
O49	O	0.751819	-0.716773	0.638980
O50	O	0.751753	-0.716500	0.535361
O51	O	0.751705	-0.596703	0.579222
O52	O	0.648791	-0.682239	0.569747
O53	O	0.648858	-0.682512	0.673366
O54	O	0.648676	-0.562169	0.509989
Cu55	Cu	0.639366	-0.619212	0.594817
Cu56	Cu	0.761130	-0.659729	0.554152
O57	O	0.648743	-0.562442	0.613609
N58	N	0.846773	-0.688230	0.525548
N59	N	0.114157	-0.151217	0.623565
O60	O	-0.033591	0.046803	0.617717
O61	O	0.129795	0.046806	0.497390
O62	O	0.026157	0.046789	0.497680
O63	O	0.070046	0.046819	0.617427
O64	O	0.060509	-0.056181	0.532004
O65	O	0.164146	-0.056164	0.531714
O66	O	0.000760	-0.056167	0.652041
Cu67	Cu	0.085590	-0.065568	0.595012
Cu68	Cu	0.044965	0.056206	0.554419
O69	O	0.104397	-0.056151	0.651751
N70	N	0.016390	0.141855	0.525867
N71	N	0.114410	-0.590756	1.062992
O72	O	0.108565	-0.738494	1.260998
O73	O	-0.011747	-0.575059	1.261012
O74	O	-0.011470	-0.678679	1.260970
O75	O	0.108287	-0.634874	1.261040
O76	O	0.022849	-0.644347	1.158004
O77	O	0.022572	-0.540726	1.158046
O78	O	0.142884	-0.704162	1.158033
Cu79	Cu	0.085861	-0.619309	1.148638
Cu80	Cu	0.045275	-0.659911	1.270406
O81	O	0.142606	-0.600541	1.158074
N82	N	0.016726	-0.688471	1.356052
C83	C	0.039385	-0.537207	0.498225
C84	C	0.167616	-0.665350	0.498136
C85	C	0.091204	-0.741950	0.651272
C86	C	-0.037027	-0.613806	0.651361
C87	C	0.700360	-0.716215	0.676756
C88	C	0.700279	-0.715877	0.548436
C89	C	0.700133	-0.562725	0.472214
C90	C	0.700218	-0.563065	0.600533
C91	C	0.167511	-0.004552	0.497940
C92	C	0.039211	-0.004699	0.498341
C93	C	-0.036999	-0.004682	0.651449
C94	C	0.091344	-0.004663	0.651090
C95	C	-0.011156	-0.537302	1.209530
C96	C	-0.010806	-0.665617	1.209458
C97	C	0.142293	-0.741918	1.209514
C98	C	0.141950	-0.613596	1.209563
H99	H	0.063231	-0.497836	0.928300
H100	H	0.214562	-0.674609	0.460411
O101	O	0.700188	-0.760720	0.537250
C102	C	0.646848	-0.739412	0.522693
H103	H	0.609567	-0.700983	0.542697
H104	H	0.628985	-0.779300	0.543348
H105	H	0.658859	-0.720724	0.470266
O106	O	-0.056280	-0.481331	1.209505
C107	C	-0.109567	-0.481338	1.209497
H108	H	-0.095838	-0.518001	1.189992
H109	H	-0.132731	-0.433872	1.179603
H110	H	-0.143220	-0.492145	1.258890
H111	H	0.100739	-0.004653	0.688708
H112	H	0.180068	-0.788855	1.209502
O113	O	0.699955	-0.517591	0.416288
C114	C	0.646610	-0.465442	0.424490
H115	H	0.609379	-0.480391	0.469836
H116	H	0.628668	-0.443283	0.384349
H117	H	0.658645	-0.430482	0.425919
H118	H	0.100526	-0.788925	0.688956
H119	H	-0.083976	-0.604550	0.689083
H120	H	0.030065	-0.490230	0.460543
H121	H	-0.048413	-0.674973	1.209396
H122	H	0.700208	-0.525435	0.609919
O123	O	0.095652	-0.452796	0.805731
C124	C	0.034795	-0.443602	0.848249
H125	H	0.034937	-0.482682	0.894442
H126	H	0.004009	-0.443258	0.829535
H127	H	0.016227	-0.397432	0.855150
O128	O	0.261994	-0.599716	0.933226
C129	C	0.322850	-0.608874	0.890705
H130	H	0.322707	-0.601629	0.844510
H131	H	0.353644	-0.658029	0.909413
H132	H	0.341408	-0.574372	0.883807
O133	O	0.700445	-0.761231	0.732758
C134	C	0.700437	-0.738933	0.771295
H135	H	0.719889	-0.699171	0.741530
H136	H	0.730369	-0.777833	0.800933
H137	H	0.651049	-0.721767	0.802582
H138	H	0.214338	-0.004265	0.460069
O139	O	0.028101	-0.004681	0.453382
C140	C	0.081256	-0.004700	0.399959
H141	H	0.110823	0.014801	0.400476
H142	H	0.066725	0.025188	0.356979
H143	H	0.109203	-0.054101	0.399222
O144	O	0.186854	-0.602354	1.209469
C145	C	0.201056	-0.552211	1.156160
H146	H	0.187456	-0.547330	1.118878
H147	H	0.252854	-0.560938	1.138268
H148	H	0.174343	-0.507819	1.168226
O149	O	0.304412	-0.556989	0.805488
C150	C	0.320056	-0.502530	0.768012
H151	H	0.277334	-0.461803	0.758319
H152	H	0.357625	-0.508323	0.722428
H153	H	0.337861	-0.493429	0.792984
H154	H	0.207047	-0.285927	0.572438
O155	O	-0.093024	-0.004564	0.696462
C156	C	-0.139706	0.048756	0.675286
H157	H	-0.118615	0.086023	0.636725
H158	H	-0.176651	0.066670	0.715191
H159	H	-0.161602	0.036692	0.656819
O160	O	0.095773	-0.452690	0.761432
C161	C	0.105076	-0.395060	0.731969
H162	H	0.154248	-0.400278	0.697711
H163	H	0.097881	-0.378465	0.768155
H164	H	0.070620	-0.359837	0.706219
O165	O	0.053104	-0.495429	0.719019
C166	C	0.026222	-0.517598	0.783937
H167	H	0.063146	-0.557572	0.804810
H168	H	-0.011977	-0.534431	0.796350
H169	H	0.005760	-0.478721	0.803146
O170	O	0.261770	-0.599554	0.614443
C171	C	0.299222	-0.566815	0.560098
H172	H	0.274173	-0.514963	0.551105
H173	H	0.309017	-0.578400	0.519263
H174	H	0.344759	-0.580609	0.565982
O175	O	0.304337	-0.556951	0.657046
C176	C	0.319962	-0.502483	0.624444
H177	H	0.283404	-0.463550	0.602526
H178	H	0.367002	-0.511008	0.586666
H179	H	0.322116	-0.488845	0.657778
H180	H	0.301449	-0.601745	0.743862
H181	H	0.418982	-0.450689	0.632093
O182	O	0.424025	-0.650899	0.706153
C183	C	0.381537	-0.683007	0.737960
H184	H	0.335344	-0.654735	0.764528
H185	H	0.400286	-0.729748	0.771785
H186	H	0.374625	-0.690502	0.703287
H187	H	0.246280	-0.403511	0.611604
O188	O	0.296413	-0.401543	0.669840
C189	C	0.338905	-0.369435	0.638002
H190	H	0.385115	-0.402703	0.645469
H191	H	0.320187	-0.330347	0.656354
H192	H	0.345774	-0.349291	0.586438
H193	H	0.150353	-0.403547	0.803641
O194	O	0.105266	-0.280961	0.771176
C195	C	0.096137	-0.323470	0.832044
H196	H	0.103382	-0.369672	0.831928
H197	H	0.046993	-0.304751	0.862832
H198	H	0.130652	-0.330360	0.850592
