data_functionalizedCrystal
_audit_creation_method	'MofGen! by Chris Wilmer'
_symmetry_space_group_name_H-M	'P1'
_symmetry_Int_Tables_number	1
_symmetry_cell_setting	triclinic
loop_
_symmetry_equiv_pos_as_xyz
  x,y,z
_cell_length_a	16.625539
_cell_length_b	13.033304
_cell_length_c	13.032318
_cell_angle_alpha	103.332818
_cell_angle_beta	97.209725
_cell_angle_gamma	97.211451
loop_
_atom_site_label
_atom_site_type_symbol
_atom_site_fract_x
_atom_site_fract_y
_atom_site_fract_z
Zn1	Zn	-0.588807	-1.570185	0.216896
Zn2	Zn	-0.434327	-1.547478	0.394573
Zn3	Zn	-0.434334	-1.392544	0.239470
Zn4	Zn	-0.549484	-1.369938	0.417035
O5	O	-0.501738	-1.470036	0.316993
O6	O	-0.584769	-1.715817	0.221617
O7	O	-0.321486	-1.526883	0.374045
O8	O	-0.471285	-1.435072	0.087806
O9	O	-0.471273	-1.699134	0.352156
O10	O	-0.584775	-1.565584	0.071221
O11	O	-0.321492	-1.413054	0.260092
O12	O	-0.433155	-1.240901	0.281872
O13	O	-0.667541	-1.396544	0.390439
O14	O	-0.517755	-1.224293	0.412328
O15	O	-0.696432	-1.543664	0.243398
O16	O	-0.433143	-1.504963	0.546222
O17	O	-0.517748	-1.374526	0.562725
C18	C	-0.471189	-1.194055	0.351988
C19	C	-0.458136	-1.075986	0.366985
C20	C	-0.508537	-1.031588	0.309183
C21	C	-0.495048	-0.909558	0.324681
C22	C	-0.712063	-1.470115	0.316906
C23	C	-0.801691	-1.470149	0.316868
C24	C	-1.129886	-1.470213	0.316743
C25	C	-1.038571	-1.470192	0.316782
C26	C	-0.965791	-1.470182	0.316806
C27	C	-0.874471	-1.470159	0.316843
C28	C	-0.292246	-1.470028	0.316997
C29	C	-0.202674	-1.470238	0.316709
C30	C	-0.471199	-1.434856	0.593018
C31	C	-0.458172	-1.419903	0.711091
C32	C	-0.532401	-0.747096	0.281858
C33	C	-0.545456	-0.865164	0.266871
C34	C	-0.508560	-1.477769	0.755447
C35	C	-0.495097	-1.462316	0.877481
C36	C	-0.532418	-1.505319	1.039895
C37	C	-0.545493	-1.520191	0.921833
H38	H	-0.561671	-1.083921	0.248219
N39	N	-0.612099	-1.596735	0.856149
N40	N	-0.598030	-1.672237	0.785623
H41	H	-0.645064	-1.726309	0.739237
H42	H	-0.441906	-0.857229	0.385643
H43	H	-0.598593	-0.917492	0.205901
H44	H	-0.405068	-1.358916	0.763461
H45	H	-0.441990	-1.401325	0.929848
H46	H	-0.561670	-1.538748	0.703080
N47	N	-0.391472	-1.010332	0.443447
N48	N	-0.380606	-0.911295	0.455923
H49	H	-0.333522	-0.864927	0.509925
