data_functionalizedCrystal
_audit_creation_method	'MofGen! by Chris Wilmer'
_symmetry_space_group_name_H-M	'P1'
_symmetry_Int_Tables_number	1
_symmetry_cell_setting	triclinic
loop_
_symmetry_equiv_pos_as_xyz
  x,y,z
_cell_length_a	21.295420
_cell_length_b	21.295417
_cell_length_c	12.645323
_cell_angle_alpha	89.966008
_cell_angle_beta	89.977363
_cell_angle_gamma	90.028757
loop_
_atom_site_label
_atom_site_type_symbol
_atom_site_fract_x
_atom_site_fract_y
_atom_site_fract_z
Zn1	Zn	0.962343	-0.250634	-0.599378
Zn2	Zn	0.962249	-0.355908	-0.422090
Zn3	Zn	0.857070	-0.250654	-0.422122
Zn4	Zn	0.857035	-0.355866	-0.599305
O5	O	0.909674	-0.303265	-0.510724
O6	O	1.050420	-0.264608	-0.575877
O7	O	0.948272	-0.341972	-0.273747
O8	O	0.871088	-0.162562	-0.445680
O9	O	1.050351	-0.341953	-0.445624
O10	O	0.948432	-0.162547	-0.575909
O11	O	0.870997	-0.264642	-0.273771
O12	O	0.768976	-0.264601	-0.445609
O13	O	0.871029	-0.341880	-0.747662
O14	O	0.768950	-0.341900	-0.575785
O15	O	0.948398	-0.264567	-0.747716
O16	O	0.948238	-0.443992	-0.445554
O17	O	0.870938	-0.443961	-0.575753
C18	C	0.746122	-0.303248	-0.510693
C19	C	0.676154	-0.303256	-0.510706
C20	C	0.176700	-0.343589	-0.578440
C21	C	0.242442	-0.343589	-0.578429
C22	C	0.275315	-0.303280	-0.510757
C23	C	0.242440	-0.262978	-0.443072
C24	C	0.176698	-0.262983	-0.443077
N25	N	0.378556	-0.248163	-0.502787
N26	N	0.441007	-0.248160	-0.502788
C27	C	0.473390	-0.303262	-0.510735
N28	N	0.440961	-0.358369	-0.518701
N29	N	0.378504	-0.358371	-0.518706
C30	C	0.346600	-0.303269	-0.510743
C31	C	0.577542	-0.343564	-0.578398
C32	C	0.643286	-0.343565	-0.578380
C33	C	0.643282	-0.262949	-0.443028
C34	C	0.577540	-0.262953	-0.443041
C35	C	0.544674	-0.303260	-0.510732
C36	C	0.909592	-0.466817	-0.510665
C37	C	0.909614	-0.536785	-0.510675
C38	C	0.949900	-0.569647	-0.442950
C39	C	0.949929	-0.635389	-0.442974
C40	C	0.909662	-0.668267	-0.510712
C41	C	0.869373	-0.635398	-0.578451
C42	C	0.869349	-0.569656	-0.578432
N43	N	0.854594	-0.771531	-0.518783
N44	N	0.854619	-0.833983	-0.518795
C45	C	0.909732	-0.866342	-0.510773
N46	N	0.964821	-0.833891	-0.502719
N47	N	0.964796	-0.771434	-0.502702
C48	C	0.909683	-0.739553	-0.510740
C49	C	0.950053	-0.970490	-0.443070
C50	C	0.950084	-1.036233	-0.443101
C51	C	0.869522	-1.036240	-0.578572
C52	C	0.869497	-0.970498	-0.578546
C53	C	0.909762	-0.937626	-0.510789
C54	C	1.073864	-0.303283	-0.510755
C55	C	1.143832	-0.303290	-0.510768
C56	C	0.909720	-0.303217	-0.787229
C57	C	0.909740	-0.303196	-0.905059
C58	C	0.909774	-0.139075	-0.510806
C59	C	0.909817	-0.069107	-0.510841
C60	C	0.860917	-0.351605	-1.072590
C61	C	0.861045	-0.351844	-0.950030
C62	C	0.976064	-0.321201	-0.949574
C63	C	0.975796	-0.321505	-1.072173
C64	C	0.892866	-0.236511	-1.072275
C65	C	0.891387	-0.236911	-0.949669
C66	C	0.909664	-0.303268	-0.235294
C67	C	0.909766	-0.303112	-0.117465
H68	H	0.670046	-0.376386	-0.633484
N69	N	0.875092	-0.413783	-0.913294
N70	N	0.925966	-0.439148	-0.937854
H71	H	0.935897	-0.482897	-0.911929
N72	N	0.543952	-0.221790	-0.373926
N73	N	0.507237	-0.243892	-0.306314
H74	H	0.483514	-0.214821	-0.257497
H75	H	0.811590	-0.340445	-1.102067
H76	H	0.269209	-0.230159	-0.387971
N77	N	0.143116	-0.384759	-0.647567
N78	N	0.106454	-0.362666	-0.715185
H79	H	0.082732	-0.391743	-0.764002
N80	N	1.023011	-0.279140	-1.109442
N81	N	1.031227	-0.271821	-1.206552
H82	H	1.064576	-0.241905	-1.232872
H83	H	0.982737	-0.662151	-0.387824
H84	H	0.990123	-0.370191	-1.100770
N85	N	0.991032	-0.536081	-0.373734
N86	N	1.027000	-0.565435	-0.313270
H87	H	1.056051	-0.541728	-0.264386
H88	H	0.836588	-0.662171	-0.633605
N89	N	0.828194	-0.536095	-0.647626
N90	N	0.792247	-0.565454	-0.708110
H91	H	0.763180	-0.541751	-0.756979
N92	N	0.991185	-0.936917	-0.373856
N93	N	1.027157	-0.966270	-0.313395
H94	H	1.056206	-0.942562	-0.264510
N95	N	0.143132	-0.221815	-0.373939
N96	N	0.172486	-0.185830	-0.313514
H97	H	0.148779	-0.156754	-0.264683
H98	H	0.982893	-1.062988	-0.387953
N99	N	0.276015	-0.384762	-0.647560
N100	N	0.246663	-0.420748	-0.707986
H101	H	0.270371	-0.449827	-0.756810
N102	N	0.543965	-0.384748	-0.647514
N103	N	0.507253	-0.424835	-0.610093
H104	H	0.483540	-0.453923	-0.658905
N105	N	0.676843	-0.221765	-0.373900
N106	N	0.647485	-0.185782	-0.313488
H107	H	0.671189	-0.156696	-0.264661
N108	N	0.937487	-0.191175	-1.108682
N109	N	0.932404	-0.134976	-1.081532
H110	H	0.963918	-0.102961	-1.107248
N111	N	0.828397	-1.069826	-0.647766
N112	N	0.828424	-1.128523	-0.647777
H113	H	0.799380	-1.152246	-0.696650
N114	N	0.828340	-0.936936	-0.647732
N115	N	0.792392	-0.966296	-0.708213
H116	H	0.763324	-0.942594	-0.757082
N117	N	0.799347	-0.337722	-0.912259
N118	N	0.770744	-0.376423	-0.855575
H119	H	0.727167	-0.366453	-0.828902
H120	H	0.871964	-0.400670	-1.103396
N121	N	1.022942	-0.278291	-0.913035
N122	N	1.007957	-0.233855	-0.853634
H123	H	1.041063	-0.203548	-0.827827
N124	N	0.994342	-0.381636	-0.911051
N125	N	0.958636	-0.411551	-0.850825
H126	H	0.971542	-0.454234	-0.823617
H127	H	0.845346	-0.220099	-1.103184
H128	H	0.842578	-0.223332	-0.920573
H129	H	0.924368	-0.198870	-0.919057
