data_functionalizedCrystal
_audit_creation_method	'MofGen! by Chris Wilmer'
_symmetry_space_group_name_H-M	'P1'
_symmetry_Int_Tables_number	1
_symmetry_cell_setting	triclinic
loop_
_symmetry_equiv_pos_as_xyz
  x,y,z
_cell_length_a	22.610064
_cell_length_b	11.026607
_cell_length_c	11.026607
_cell_angle_alpha	108.586017
_cell_angle_beta	90.006017
_cell_angle_gamma	89.985291
loop_
_atom_site_label
_atom_site_type_symbol
_atom_site_fract_x
_atom_site_fract_y
_atom_site_fract_z
O1	O	0.049183	-1.726749	-0.533614
O2	O	0.049184	-1.360170	-0.472850
O3	O	0.049182	-1.513078	-0.319942
O4	O	0.049186	-1.573841	-0.686522
O5	O	-0.049188	-1.513027	-0.319952
O6	O	-0.049185	-1.360119	-0.472860
O7	O	-0.049186	-1.726699	-0.533624
Zn8	Zn	-0.064804	-1.543401	-0.503244
Zn9	Zn	0.064802	-1.543468	-0.503230
O10	O	-0.049184	-1.573791	-0.686532
C11	C	-0.000000	-1.312485	-0.461645
C12	C	-0.000000	-1.170471	-0.428228
C13	C	-0.000002	-1.501843	-0.272287
C14	C	-0.000000	-1.468426	-0.130273
N15	N	-0.153256	-1.543365	-0.503254
C16	C	-0.438098	-1.449257	-0.408998
C17	C	-0.376178	-1.449246	-0.409002
O18	O	-0.344154	-1.369180	-0.328855
N19	N	-0.345209	-1.543409	-0.503225
C20	C	-0.376162	-1.637597	-0.597443
O21	O	-0.344134	-1.717689	-0.677587
C22	C	-0.438081	-1.637612	-0.597433
C23	C	-0.469047	-1.543435	-0.503211
C24	C	-0.469065	-1.355088	-0.314783
C25	C	-0.530981	-1.355098	-0.314782
C26	C	-0.561930	-1.449276	-0.408995
C27	C	-0.530963	-1.543445	-0.503210
C28	C	-0.469033	-1.731803	-0.691645
C29	C	-0.530956	-1.731811	-0.691626
C30	C	-0.561923	-1.637634	-0.597405
C31	C	-0.623828	-1.637633	-0.597421
N32	N	-0.654797	-1.543469	-0.503198
C33	C	-0.623848	-1.449291	-0.408985
C34	C	-0.246128	-1.637559	-0.597455
C35	C	-0.184211	-1.637540	-0.597472
C36	C	-0.184231	-1.449190	-0.409028
C37	C	-0.246150	-1.449205	-0.409019
C38	C	-0.277098	-1.543396	-0.503232
C39	C	-0.753876	-1.449318	-0.408989
C40	C	-0.815797	-1.449334	-0.408999
C41	C	-0.815771	-1.637686	-0.597437
C42	C	-0.753855	-1.637668	-0.597432
C43	C	-0.722909	-1.543478	-0.503197
O44	O	-0.655891	-1.717661	-0.677524
O45	O	-0.655884	-1.369222	-0.328845
N46	N	0.153254	-1.543512	-0.503212
C47	C	-0.000000	-1.774384	-0.544828
C48	C	0.000003	-1.916398	-0.578245
C49	C	0.000001	-1.116821	-0.520498
C50	C	0.000002	-0.970043	-0.485962
C51	C	0.000002	-1.585026	-0.734187
C52	C	0.000003	-1.618443	-0.876200
C53	C	0.000000	-1.560695	-0.076624
C54	C	0.000003	-1.526160	0.070155
H55	H	-0.728687	-1.372620	-0.332254
H56	H	-0.840981	-1.714361	-0.674146
C57	C	0.000002	-1.320376	0.083417
C58	C	0.000001	-1.327264	-0.045598
H59	H	-0.000001	-1.233226	0.135686
H60	H	0.034304	-1.361619	0.101032
H61	H	-0.034303	-1.361595	0.101030
H62	H	0.034308	-1.286053	-0.063214
H63	H	-0.034305	-1.286004	-0.063221
H64	H	0.000007	-1.421590	0.132884
H65	H	-0.728641	-1.714340	-0.674170
H66	H	0.000047	-1.723013	0.061072
H67	H	0.000014	-1.107738	-0.323666
H68	H	-0.556151	-1.808516	-0.768347
H69	H	-0.443831	-1.808494	-0.768369
H70	H	-0.841007	-1.372638	-0.332271
C71	C	-0.050566	-1.175469	-0.722419
C72	C	0.000001	-1.201495	-0.661660
H73	H	-0.050567	-1.227747	-0.809566
H74	H	-0.050560	-1.087950	-0.717729
H75	H	-0.084866	-1.193081	-0.681178
H76	H	0.034301	-1.183874	-0.702895
H77	H	0.000000	-1.289035	-0.666359
H78	H	-0.443873	-1.278395	-0.238057
C79	C	-0.524769	-1.168938	-0.128506
C80	C	-0.565016	-1.251591	-0.211199
H81	H	-0.545780	-1.105043	-0.064550
H82	H	-0.500634	-1.129516	-0.175716
H83	H	-0.500602	-1.216202	-0.089155
H84	H	-0.589180	-1.204328	-0.250557
H85	H	-0.589162	-1.291016	-0.163982
C86	C	-0.239938	-1.263033	-0.222754
C87	C	-0.280186	-1.345694	-0.305440
H88	H	-0.260950	-1.199134	-0.158802
H89	H	-0.215804	-1.223617	-0.269971
H90	H	-0.215771	-1.310291	-0.183398
H91	H	-0.304350	-1.298437	-0.344804
H92	H	-0.304330	-1.385113	-0.258217
H93	H	-0.159021	-1.372505	-0.332315
C94	C	-0.190425	-1.823714	-0.783735
C95	C	-0.150176	-1.741055	-0.701050
H96	H	-0.169414	-1.887629	-0.847673
H97	H	-0.214584	-1.776467	-0.823100
H98	H	-0.214567	-1.863121	-0.736506
H99	H	-0.126037	-1.701641	-0.748278
H100	H	-0.126007	-1.788309	-0.661682
C101	C	0.000006	-0.756357	-0.337905
C102	C	0.000003	-0.885372	-0.344794
H103	H	0.000011	-0.704087	-0.250755
H104	H	-0.034296	-0.738721	-0.379130
H105	H	0.034311	-0.738764	-0.379143
H106	H	-0.034304	-0.902967	-0.303565
H107	H	0.034309	-0.903015	-0.303552
C108	C	-0.315723	-1.810748	-0.642983
C109	C	-0.280142	-1.741095	-0.701036
H110	H	-0.336716	-1.874671	-0.706930
H111	H	-0.343031	-1.754680	-0.586887
H112	H	-0.291550	-1.850148	-0.595777
H113	H	-0.304317	-1.701687	-0.748235
H114	H	-0.252831	-1.797171	-0.757154
H115	H	0.000000	-0.979125	-0.682816
H116	H	-0.000003	-1.665258	-0.139357
