data_functionalizedCrystal
_audit_creation_method	'MofGen! by Chris Wilmer'
_symmetry_space_group_name_H-M	'P1'
_symmetry_Int_Tables_number	1
_symmetry_cell_setting	triclinic
loop_
_symmetry_equiv_pos_as_xyz
  x,y,z
_cell_length_a	14.971486
_cell_length_b	23.532407
_cell_length_c	14.048226
_cell_angle_alpha	89.988910
_cell_angle_beta	89.998499
_cell_angle_gamma	83.231404
loop_
_atom_site_label
_atom_site_type_symbol
_atom_site_fract_x
_atom_site_fract_y
_atom_site_fract_z
O1	O	1.186163	0.074216	-0.079061
O2	O	1.686163	0.574216	0.420939
O3	O	0.925669	0.083104	-0.079088
O4	O	1.425669	0.583104	0.420912
O5	O	1.063771	-0.004238	-0.079057
O6	O	1.563771	0.495762	0.420943
O7	O	1.048061	0.161558	-0.079093
O8	O	1.548061	0.661558	0.420907
O9	O	1.063755	-0.004243	0.079265
O10	O	1.563755	0.495757	0.579265
O11	O	0.925652	0.083099	0.079233
O12	O	1.425652	0.583099	0.579233
O13	O	1.186146	0.074211	0.079260
O14	O	1.686146	0.574211	0.579260
Zn15	Zn	1.055897	0.078654	0.104383
Zn16	Zn	1.555897	0.578654	0.604383
Zn17	Zn	1.055919	0.078661	-0.104212
Zn18	Zn	1.555919	0.578661	0.395788
O19	O	1.048044	0.161553	0.079228
O20	O	1.548044	0.661553	0.579228
C21	C	0.892340	0.082704	0.000069
C22	C	1.392340	0.582704	0.500069
C23	C	0.793056	0.081513	0.000059
C24	C	1.293056	0.581513	0.500059
C25	C	0.735288	0.132824	0.000050
C26	C	1.235288	0.632824	0.500050
C27	C	0.642001	0.131701	0.000064
C28	C	1.142001	0.631701	0.500064
C29	C	0.606482	0.079267	0.000082
C30	C	1.106482	0.579267	0.500082
C31	C	0.664257	0.027952	0.000094
C32	C	1.164257	0.527952	0.500094
C33	C	0.757543	0.029075	0.000087
C34	C	1.257543	0.529075	0.500087
C35	C	0.469819	0.025615	0.000108
C36	C	0.969819	0.525615	0.500108
C37	C	0.376527	0.024491	0.000114
C38	C	0.876527	0.524491	0.500114
C39	C	0.354277	0.128241	0.000085
C40	C	0.854277	0.628241	0.500085
C41	C	0.447563	0.129364	0.000078
C42	C	0.947563	0.629364	0.500078
C43	C	0.505331	0.078049	0.000089
C44	C	1.005331	0.578049	0.500089
C45	C	1.063363	-0.025458	0.000107
C46	C	1.563363	0.474542	0.500107
C47	C	1.062160	-0.088680	0.000114
C48	C	1.562160	0.411320	0.500114
C49	C	1.136342	-0.487466	0.000069
C50	C	1.636342	0.012534	0.500069
C51	C	1.135224	-0.546871	0.000062
C52	C	1.635224	-0.046871	0.500062
O53	O	1.203992	-0.583321	0.000034
O54	O	1.703992	-0.083321	0.500034
N55	N	1.053123	-0.569849	0.000054
N56	N	1.553123	-0.069849	0.500054
C57	C	0.972133	-0.533418	0.000044
C58	C	1.472133	-0.033418	0.500044
O59	O	0.902196	-0.558417	0.000036
O60	O	1.402196	-0.058417	0.500036
C61	C	0.973251	-0.474014	0.000044
C62	C	1.473251	0.025986	0.500044
C63	C	1.055358	-0.451040	0.000062
C64	C	1.555358	0.048960	0.500062
C65	C	1.218442	-0.464491	0.000086
C66	C	1.718442	0.035509	0.500086
C67	C	1.219559	-0.405090	0.000095
C68	C	1.719559	0.094910	0.500095
C69	C	1.138576	-0.368664	0.000087
C70	C	1.638576	0.131336	0.500087
C71	C	1.056475	-0.391639	0.000071
C72	C	1.556475	0.108361	0.500071
C73	C	0.892263	-0.437584	0.000027
C74	C	1.392263	0.062416	0.500027
C75	C	0.893388	-0.378177	0.000027
C76	C	1.393388	0.121823	0.500027
C77	C	0.975495	-0.355203	0.000045
C78	C	1.475495	0.144797	0.500045
C79	C	0.976609	-0.295812	0.000073
C80	C	1.476609	0.204188	0.500073
N81	N	1.058711	-0.272834	0.000081
N82	N	1.558711	0.227166	0.500081
C83	C	1.139694	-0.309260	0.000088
C84	C	1.639694	0.190740	0.500088
C85	C	0.969791	-0.658170	0.000041
C86	C	1.469791	-0.158170	0.500041
C87	C	0.968671	-0.717573	0.000047
C88	C	1.468671	-0.217573	0.500047
C89	C	1.131763	-0.731022	0.000064
C90	C	1.631763	-0.231022	0.500064
C91	C	1.132882	-0.671618	0.000064
C92	C	1.632882	-0.171618	0.500064
C93	C	1.051892	-0.635193	0.000049
C94	C	1.551892	-0.135193	0.500049
C95	C	1.142034	-0.184513	0.000108
C96	C	1.642034	0.315487	0.500108
C97	C	1.143143	-0.125106	0.000121
C98	C	1.643143	0.374894	0.500121
C99	C	0.980052	-0.111663	0.000100
C100	C	1.480052	0.388337	0.500100
C101	C	0.978942	-0.171064	0.000092
C102	C	1.478942	0.328936	0.500092
C103	C	1.059940	-0.207489	0.000093
C104	C	1.559940	0.292511	0.500093
O105	O	0.907878	-0.259327	0.000097
O106	O	1.407878	0.240673	0.500097
O107	O	1.209619	-0.284253	0.000084
O108	O	1.709619	0.215747	0.500084
C109	C	1.219475	0.074611	0.000101
C110	C	1.719475	0.574611	0.500101
C111	C	1.318760	0.075802	0.000104
C112	C	1.818760	0.575802	0.500104
C113	C	1.048453	0.182773	0.000063
C114	C	1.548453	0.682773	0.500063
C115	C	1.049655	0.245996	0.000050
C116	C	1.549655	0.745996	0.500050
N117	N	1.055889	0.078649	0.246744
N118	N	1.555889	0.578649	0.746744
N119	N	1.055934	0.078661	-0.246572
N120	N	1.555934	0.578661	0.253428
C121	C	1.117059	0.039990	0.296576
C122	C	1.617059	0.539990	0.796576
C123	C	1.117065	0.039990	0.396234
C124	C	1.617065	0.539990	0.896234
C125	C	1.055904	0.078652	0.446058
C126	C	1.555904	0.578652	0.946058
C127	C	0.994727	0.117313	0.396218
C128	C	1.494727	0.617313	0.896218
C129	C	0.994717	0.117310	0.296563
C130	C	1.494717	0.617310	0.796563
C131	C	0.994753	0.117317	0.603933
C132	C	1.494753	0.617317	1.103933
C133	C	0.994763	0.117320	0.703595
C134	C	1.494763	0.617320	1.203595
C135	C	1.117101	0.039997	0.703604
C136	C	1.617101	0.539997	1.203604
C137	C	1.117091	0.039994	0.603948
C138	C	1.617091	0.539994	1.103948
C139	C	1.055915	0.078656	0.554116
C140	C	1.555915	0.578656	1.054116
H141	H	0.635331	-0.014741	0.000122
H142	H	1.135331	0.485259	0.500122
H143	H	1.197704	-0.760691	0.000066
H144	H	1.697704	-0.260691	0.500066
H145	H	0.825402	-0.456279	0.000007
H146	H	1.325402	0.043721	0.500007
H147	H	0.476478	0.172060	0.000054
H148	H	0.976478	0.672060	0.500054
H149	H	1.166912	0.008517	0.744183
H150	H	1.666912	0.508517	1.244183
O151	O	0.579697	0.187045	0.000056
O152	O	1.079697	0.687045	0.500056
H153	H	0.536651	0.189016	-0.064463
H154	H	1.036651	0.689016	0.435537
O155	O	1.231710	-0.100333	0.000131
O156	O	1.731710	0.399667	0.500131
H157	H	1.236126	-0.073605	0.064667
H158	H	1.736126	0.426395	0.564667
O159	O	0.928781	0.159007	0.757340
O160	O	1.428781	0.659007	1.257340
H161	H	0.886225	0.185881	0.705949
H162	H	1.386225	0.685881	1.205949
O163	O	0.806034	-0.338888	0.000022
O164	O	1.306034	0.161112	0.500022
H165	H	0.748759	-0.364848	0.000019
H166	H	1.248759	0.135152	0.500019
O167	O	0.880114	-0.742351	0.000046
O168	O	1.380114	-0.242351	0.500046
H169	H	0.841236	-0.727717	-0.064488
H170	H	1.341236	-0.227717	0.435512
H171	H	0.307237	0.170023	0.000080
H172	H	0.807237	0.670023	0.500080
O173	O	0.890390	-0.195853	0.000084
O174	O	1.390390	0.304147	0.500084
H175	H	0.851512	-0.181218	-0.064451
H176	H	1.351512	0.318782	0.435549
O177	O	0.892707	-0.072370	0.000091
O178	O	1.392707	0.427630	0.500091
H179	H	0.907286	-0.027205	0.000089
H180	H	1.407286	0.472795	0.500089
O181	O	1.183023	-0.001712	0.242838
O182	O	1.683023	0.498288	0.742838
H183	H	1.225552	-0.028598	0.294237
H184	H	1.725552	0.471402	0.794237
O185	O	1.221439	-0.646840	0.000077
O186	O	1.721439	-0.146840	0.500077
H187	H	1.225855	-0.620089	-0.064450
H188	H	1.725855	-0.120089	0.435550
O189	O	0.338212	-0.032060	0.000145
O190	O	0.838212	0.467940	0.500145
H191	H	0.394052	-0.067555	0.000168
H192	H	0.894052	0.432445	0.500168
H193	H	0.804577	-0.012707	0.000094
H194	H	1.304577	0.487293	0.500094
H195	H	1.166874	0.008511	0.436807
H196	H	1.666874	0.508511	0.936807
H197	H	0.516853	-0.016172	0.000118
H198	H	1.016853	0.483828	0.500118
H199	H	1.166897	0.008516	0.563382
H200	H	1.666897	0.508516	1.063382
H201	H	0.944924	0.148790	0.436791
H202	H	1.444924	0.648790	0.936791
O203	O	0.928776	0.159018	0.550179
O204	O	1.428776	0.659018	1.050179
H205	H	0.886256	0.185908	0.601565
H206	H	1.386256	0.685908	1.101565
H207	H	1.207990	-0.214164	0.000105
H208	H	1.707990	0.285836	0.500105
O209	O	1.308117	-0.380313	0.000086
O210	O	1.808117	0.119687	0.500086
H211	H	1.364234	-0.415630	0.000074
H212	H	1.864234	0.084370	0.500074
O213	O	0.882433	-0.618883	0.000050
O214	O	1.382433	-0.118883	0.500050
H215	H	0.825162	-0.644846	0.000057
H216	H	1.325162	-0.144846	0.500057
O217	O	0.928746	0.159008	0.242807
O218	O	1.428746	0.659008	0.742807
H219	H	0.886224	0.185897	0.294193
H220	H	1.386224	0.685897	0.794193
H221	H	0.764199	0.175522	0.000034
H222	H	1.264199	0.675522	0.500034
O223	O	1.305795	-0.503775	0.000107
O224	O	1.805795	-0.003775	0.500107
H225	H	1.363064	-0.477810	0.000128
H226	H	1.863064	0.022190	0.500128
