data_functionalizedCrystal
_audit_creation_method	'MofGen! by Chris Wilmer'
_symmetry_space_group_name_H-M	'P1'
_symmetry_Int_Tables_number	1
_symmetry_cell_setting	triclinic
loop_
_symmetry_equiv_pos_as_xyz
  x,y,z
_cell_length_a	16.625548
_cell_length_b	16.120484
_cell_length_c	16.120704
_cell_angle_alpha	84.364775
_cell_angle_beta	87.110717
_cell_angle_gamma	92.926626
loop_
_atom_site_label
_atom_site_type_symbol
_atom_site_fract_x
_atom_site_fract_y
_atom_site_fract_z
Zn1	Zn	1.191057	-0.356910	0.489465
Zn2	Zn	1.691057	0.143090	0.989465
Zn3	Zn	1.190983	-0.489549	0.356773
Zn4	Zn	1.690983	0.010451	0.856773
Zn5	Zn	1.063450	-0.349795	0.349708
Zn6	Zn	1.563450	0.150205	0.849708
Zn7	Zn	1.048983	-0.496646	0.496498
Zn8	Zn	1.548983	0.003354	0.996498
O9	O	1.123618	-0.423225	0.423111
O10	O	1.623618	0.076775	0.923111
O11	O	1.303878	-0.374512	0.471876
O12	O	1.803878	0.125488	0.971876
O13	O	1.180089	-0.465063	0.238871
O14	O	1.680089	0.034937	0.738871
O15	O	1.086463	-0.233771	0.362347
O16	O	1.586463	0.266229	0.862347
O17	O	1.303824	-0.471962	0.374388
O18	O	1.803824	0.028038	0.874388
O19	O	1.180215	-0.238998	0.465026
O20	O	1.680215	0.261002	0.965026
O21	O	1.086391	-0.362387	0.233681
O22	O	1.586391	0.137613	0.733681
O23	O	0.948699	-0.369268	0.369167
O24	O	1.448699	0.130732	0.869167
O25	O	1.061806	-0.484057	0.612530
O26	O	1.561806	0.015943	1.112530
O27	O	0.938070	-0.477158	0.477013
O28	O	1.438070	0.022842	0.977013
O29	O	1.166187	-0.381393	0.607363
O30	O	1.666187	0.118607	1.107363
O31	O	1.166061	-0.607458	0.381208
O32	O	1.666061	-0.107458	0.881208
O33	O	1.061734	-0.612672	0.483863
O34	O	1.561734	-0.112672	0.983863
C35	C	0.914129	-0.423212	0.423087
C36	C	1.414129	0.076788	0.923087
C37	C	0.824506	-0.423227	0.423098
C38	C	1.324506	0.076773	0.923098
C39	C	0.496329	-0.423235	0.423134
C40	C	0.996329	0.076765	0.923134
C41	C	0.587638	-0.423230	0.423121
C42	C	1.087638	0.076770	0.923121
C43	C	0.660415	-0.423231	0.423115
C44	C	1.160415	0.076769	0.923115
C45	C	0.751730	-0.423226	0.423104
C46	C	1.251730	0.076774	0.923104
C47	C	1.112340	-0.640394	0.434083
C48	C	1.612340	-0.140394	0.934083
C49	C	1.107588	-0.733302	0.438805
C50	C	1.607588	-0.233302	0.938805
C51	C	1.098915	-0.903405	0.447444
C52	C	1.598915	-0.403405	0.947444
C53	C	1.148464	-0.942205	0.398792
C54	C	1.648464	-0.442205	0.898792
C55	C	1.143639	-1.036856	0.403599
C56	C	1.643639	-0.536856	0.903599
C57	C	1.103740	-0.808745	0.442638
C58	C	1.603740	-0.308745	0.942638
C59	C	1.333925	-0.423239	0.423136
C60	C	1.833925	0.076761	0.923136
C61	C	1.423545	-0.423245	0.423146
C62	C	1.923545	0.076755	0.923146
C63	C	1.112391	-0.434310	0.641122
C64	C	1.612391	0.065690	1.141122
C65	C	1.107606	-0.439034	0.734025
C66	C	1.607606	0.060966	1.234025
C67	C	1.134961	-0.205208	0.412114
C68	C	1.634961	0.294792	0.912114
C69	C	1.139794	-0.112303	0.407428
C70	C	1.639794	0.387697	0.907428
C71	C	1.148361	-0.398917	0.942954
C72	C	1.648361	0.101083	1.442954
C73	C	1.098846	-0.447624	0.904113
C74	C	1.598846	0.052376	1.404113
C75	C	1.103722	-0.442843	0.809467
C76	C	1.603722	0.057157	1.309467
C77	C	1.143486	-0.403697	1.037609
C78	C	1.643486	0.096303	1.537609
C79	C	1.134799	-0.412210	1.205950
C80	C	1.634799	0.087790	1.705950
C81	C	1.139598	-0.407509	1.113048
C82	C	1.639598	0.092491	1.613048
H83	H	1.194508	-0.904336	0.353530
H84	H	1.694508	-0.404336	0.853530
O85	O	1.203200	-0.344850	0.897740
O86	O	1.703200	0.155150	1.397740
C87	C	1.224914	-0.227092	0.793364
C88	C	1.724914	0.272908	1.293364
C89	C	1.162723	-0.288275	0.844514
C90	C	1.662723	0.211725	1.344514
H91	H	1.192212	-0.181325	0.750332
H92	H	1.692212	0.318675	1.250332
H93	H	1.267126	-0.263410	0.754394
H94	H	1.767126	0.236590	1.254394
H95	H	1.261450	-0.191211	0.837552
H96	H	1.761450	0.308789	1.337552
H97	H	1.126131	-0.324172	0.800387
H98	H	1.626131	0.175828	1.300387
H99	H	1.120566	-0.251910	0.883494
H100	H	1.620566	0.248090	1.383494
O101	O	1.043802	-0.501571	0.949197
O102	O	1.543802	-0.001571	1.449197
C103	C	0.903190	-0.543525	0.978107
C104	C	1.403190	-0.043525	1.478107
C105	C	0.965431	-0.482364	0.927002
C106	C	1.465431	0.017636	1.427002
H107	H	0.839814	-0.528030	0.960169
H108	H	1.339814	-0.028030	1.460169
H109	H	0.908932	-0.537800	1.047514
H110	H	1.408932	-0.037800	1.547514
H111	H	0.914757	-0.610072	0.964431
H112	H	1.414757	-0.110072	1.464431
H113	H	0.953904	-0.415792	0.940608
H114	H	1.453904	0.084208	1.440608
H115	H	0.959673	-0.488163	0.857611
H116	H	1.459673	0.011837	1.357611
O117	O	1.044065	-0.948543	0.501552
O118	O	1.544065	-0.448543	1.001552
C119	C	0.996105	-0.982633	0.645019
C120	C	1.496105	-0.482633	1.145019
C121	C	1.058283	-0.931470	0.583841
C122	C	1.558283	-0.431470	1.083841
H123	H	1.007568	-0.968835	0.711561
H124	H	1.507568	-0.468835	1.211561
H125	H	1.001954	-1.052039	0.639391
H126	H	1.501954	-0.552039	1.139391
H127	H	0.932719	-0.964858	0.629383
H128	H	1.432719	-0.464858	1.129383
H129	H	1.121697	-0.949173	0.599437
H130	H	1.621697	-0.449173	1.099437
H131	H	1.052364	-0.862076	0.589480
H132	H	1.552364	-0.362076	1.089480
