data_functionalizedCrystal
_audit_creation_method	'MofGen! by Chris Wilmer'
_symmetry_space_group_name_H-M	'P1'
_symmetry_Int_Tables_number	1
_symmetry_cell_setting	triclinic
loop_
_symmetry_equiv_pos_as_xyz
  x,y,z
_cell_length_a	27.732048
_cell_length_b	27.732046
_cell_length_c	9.730217
_cell_angle_alpha	89.990481
_cell_angle_beta	89.995902
_cell_angle_gamma	97.357683
loop_
_atom_site_label
_atom_site_type_symbol
_atom_site_fract_x
_atom_site_fract_y
_atom_site_fract_z
O1	O	0.640925	-0.057516	0.114131
O2	O	1.140925	0.442484	0.614131
O3	O	0.500131	-0.066262	0.114176
O4	O	1.000131	0.433738	0.614176
O5	O	0.574901	0.008508	0.114121
O6	O	1.074901	0.508508	0.614121
O7	O	0.566155	-0.132286	0.114186
O8	O	1.066155	0.367714	0.614186
O9	O	0.574899	0.008508	-0.114459
O10	O	1.074899	0.508508	0.385541
O11	O	0.500129	-0.066261	-0.114404
O12	O	1.000129	0.433739	0.385596
O13	O	0.640922	-0.057516	-0.114449
O14	O	1.140922	0.442484	0.385551
Zn15	Zn	0.570525	-0.061888	-0.150719
Zn16	Zn	1.070525	0.438112	0.349281
Zn17	Zn	0.570528	-0.061889	0.150445
Zn18	Zn	1.070528	0.438111	0.650445
O19	O	0.566153	-0.132285	-0.114394
O20	O	1.066153	0.367715	0.385606
C21	C	0.482123	-0.066078	-0.000109
C22	C	0.982123	0.433922	0.499891
C23	C	0.428468	-0.065525	-0.000094
C24	C	0.928468	0.434475	0.499906
C25	C	0.089653	-0.106229	-0.000135
C26	C	0.589653	0.393771	0.499865
C27	C	-0.112007	-0.104178	-0.000148
C28	C	0.387993	0.395822	0.499852
O29	O	-0.143262	-0.141399	-0.000190
O30	O	0.356738	0.358601	0.499810
N31	N	-0.131130	-0.059843	-0.000166
N32	N	0.368870	0.440157	0.499834
C33	C	-0.099835	-0.016017	-0.000189
C34	C	0.400165	0.483983	0.499811
O35	O	-0.120728	0.021740	-0.000219
O36	O	0.379272	0.521740	0.499781
C37	C	0.101823	-0.018068	-0.000186
C38	C	0.601823	0.481932	0.499814
C39	C	0.120944	-0.062407	-0.000154
C40	C	0.620944	0.437593	0.499846
C41	C	0.108774	-0.150563	-0.000104
C42	C	0.608774	0.349437	0.499896
C43	C	0.159186	-0.151076	-0.000094
C44	C	0.659186	0.348924	0.499906
C45	C	0.190477	-0.107253	-0.000113
C46	C	0.690477	0.392747	0.499887
C47	C	0.171356	-0.062919	-0.000143
C48	C	0.671356	0.437081	0.499857
C49	C	0.133117	0.025757	-0.000219
C50	C	0.633117	0.525757	0.499781
C51	C	0.183535	0.025240	-0.000222
C52	C	0.683535	0.525240	0.499778
C53	C	0.202655	-0.019098	-0.000190
C54	C	0.702655	0.480902	0.499810
C55	C	0.253059	-0.019609	-0.000152
C56	C	0.753059	0.480391	0.499848
N57	N	0.272182	-0.063944	-0.000134
N58	N	0.772182	0.436056	0.499866
C59	C	0.240891	-0.107766	-0.000115
C60	C	0.740891	0.392234	0.499885
C61	C	-0.205709	-0.014943	-0.000188
C62	C	0.294291	0.485057	0.499812
C63	C	-0.256124	-0.014430	-0.000187
C64	C	0.243876	0.485570	0.499813
C65	C	-0.268292	-0.102591	-0.000148
C66	C	0.231708	0.397409	0.499852
C67	C	-0.217876	-0.103104	-0.000140
C68	C	0.282124	0.396896	0.499860
C69	C	-0.186586	-0.059278	-0.000171
C70	C	0.313414	0.440722	0.499829
C71	C	0.346760	-0.108839	-0.000091
C72	C	0.846760	0.391161	0.499909
C73	C	0.397177	-0.109347	-0.000074
C74	C	0.897177	0.390653	0.499926
C75	C	0.409341	-0.021186	-0.000120
C76	C	0.909341	0.478814	0.499880
C77	C	0.358928	-0.020678	-0.000130
C78	C	0.858928	0.479322	0.499870
C79	C	0.327639	-0.064508	-0.000120
C80	C	0.827639	0.435492	0.499880
O81	O	0.284343	0.017592	-0.000125
O82	O	0.784343	0.517592	0.499875
O83	O	0.261794	-0.145518	-0.000115
O84	O	0.761794	0.354482	0.499885
C85	C	0.039241	-0.105717	-0.000145
C86	C	0.539241	0.394283	0.499855
C87	C	0.020120	-0.061382	-0.000176
C88	C	0.520120	0.438618	0.499824
C89	C	0.051411	-0.017560	-0.000195
C90	C	0.551411	0.482440	0.499805
C91	C	-0.030294	-0.060869	-0.000174
C92	C	0.469706	0.439131	0.499826
C93	C	-0.061585	-0.104691	-0.000155
C94	C	0.438415	0.395309	0.499845
C95	C	-0.042462	-0.149027	-0.000137
C96	C	0.457538	0.350973	0.499863
C97	C	0.007950	-0.149539	-0.000126
C98	C	0.507950	0.350461	0.499874
C99	C	0.032287	0.026775	-0.000213
C100	C	0.532287	0.526775	0.499787
C101	C	-0.018125	0.027284	-0.000222
C102	C	0.481875	0.527284	0.499778
C103	C	-0.049416	-0.016538	-0.000203
C104	C	0.450584	0.483462	0.499797
C105	C	0.574717	0.026515	-0.000174
C106	C	1.074717	0.526515	0.499826
C107	C	0.574164	0.080170	-0.000188
C108	C	1.074164	0.580170	0.499812
C109	C	0.614870	0.418985	-0.000153
C110	C	1.114870	0.918985	0.499847
C111	C	0.612820	0.620645	-0.000147
C112	C	1.112820	1.120645	0.499853
O113	O	0.650041	0.651901	-0.000101
O114	O	1.150041	1.151901	0.499899
N115	N	0.568485	0.639769	-0.000136
N116	N	1.068485	1.139769	0.499864
C117	C	0.524659	0.608474	-0.000117
C118	C	1.024659	1.108474	0.499883
O119	O	0.486902	0.629367	-0.000093
O120	O	0.986902	1.129367	0.499907
C121	C	0.526710	0.406815	-0.000114
C122	C	1.026710	0.906815	0.499886
C123	C	0.571047	0.387695	-0.000139
C124	C	1.071047	0.887695	0.499861
C125	C	0.659204	0.399864	-0.000177
C126	C	1.159204	0.899864	0.499823
C127	C	0.659716	0.349452	-0.000186
C128	C	1.159716	0.849452	0.499814
C129	C	0.615894	0.318161	-0.000171
C130	C	1.115894	0.818161	0.499829
C131	C	0.571559	0.337283	-0.000148
C132	C	1.071559	0.837283	0.499852
C133	C	0.482884	0.375522	-0.000085
C134	C	0.982884	0.875522	0.499915
C135	C	0.483401	0.325104	-0.000081
C136	C	0.983401	0.825104	0.499919
C137	C	0.527739	0.305984	-0.000106
C138	C	1.027739	0.805984	0.499894
C139	C	0.528249	0.255580	-0.000142
C140	C	1.028249	0.755580	0.499858
N141	N	0.572584	0.236456	-0.000154
N142	N	1.072584	0.736456	0.499846
C143	C	0.616407	0.267747	-0.000168
C144	C	1.116407	0.767747	0.499832
C145	C	0.523586	0.714348	-0.000122
C146	C	1.023586	1.214348	0.499878
C147	C	0.523073	0.764763	-0.000125
C148	C	1.023073	1.264763	0.499875
C149	C	0.611234	0.776930	-0.000152
C150	C	1.111234	1.276930	0.499848
C151	C	0.611746	0.726515	-0.000159
C152	C	1.111746	1.226515	0.499841
C153	C	0.567921	0.695225	-0.000133
C154	C	1.067921	1.195225	0.499867
C155	C	0.617478	0.161878	-0.000188
C156	C	1.117478	0.661878	0.499812
C157	C	0.617986	0.111461	-0.000203
C158	C	1.117986	0.611461	0.499797
C159	C	0.529826	0.099298	-0.000169
C160	C	1.029826	0.599298	0.499831
C161	C	0.529317	0.149710	-0.000161
C162	C	1.029317	0.649710	0.499839
C163	C	0.573148	0.180999	-0.000166
C164	C	1.073148	0.680999	0.499834
O165	O	0.491048	0.224296	-0.000173
O166	O	0.991048	0.724296	0.499827
O167	O	0.654158	0.246844	-0.000161
O168	O	1.154158	0.746844	0.499839
C169	C	0.614358	0.469397	-0.000144
C170	C	1.114358	0.969397	0.499856
C171	C	0.570024	0.488519	-0.000121
C172	C	1.070024	0.988519	0.499879
C173	C	0.526201	0.457228	-0.000106
C174	C	1.026201	0.957228	0.499894
C175	C	0.569511	0.538933	-0.000124
C176	C	1.069511	1.038933	0.499876
C177	C	0.613333	0.570224	-0.000139
C178	C	1.113333	1.070224	0.499861
C179	C	0.657668	0.551100	-0.000150
C180	C	1.157668	1.051100	0.499850
C181	C	0.658180	0.500688	-0.000159
C182	C	1.158180	1.000688	0.499841
C183	C	0.481866	0.476352	-0.000095
C184	C	0.981866	0.976352	0.499905
C185	C	0.481358	0.526764	-0.000088
C186	C	0.981358	1.026764	0.499912
C187	C	0.525180	0.558055	-0.000102
C188	C	1.025180	1.058055	0.499898
C189	C	0.658931	-0.057699	-0.000161
C190	C	1.158931	0.442301	0.499839
C191	C	0.712585	-0.058252	-0.000167
C192	C	1.212585	0.441748	0.499833
C193	C	0.566339	0.849708	-0.000113
C194	C	1.066339	1.349708	0.499887
C195	C	0.566896	0.796054	-0.000140
C196	C	1.066896	1.296054	0.499860
N197	N	0.570527	-0.061887	-0.356255
N198	N	1.070527	0.438113	0.143745
C199	C	0.636762	0.004302	-0.356294
C200	C	1.136762	0.504302	0.143706
C201	C	0.669883	0.037396	-0.428253
C202	C	1.169883	0.537396	0.071747
C203	C	0.669888	0.037396	-0.572133
C204	C	1.169888	0.537396	-0.072133
C205	C	0.636767	0.004300	-0.644057
C206	C	1.136767	0.504300	-0.144057
C207	C	0.603647	-0.028793	-0.572097
C208	C	1.103647	0.471207	-0.072097
C209	C	0.603646	-0.028791	-0.428214
C210	C	1.103646	0.471209	0.071786
C211	C	0.537410	-0.094980	-0.572059
C212	C	1.037410	0.405020	-0.072059
C213	C	0.537406	-0.094983	-0.428179
C214	C	1.037406	0.405017	0.071821
C215	C	0.504289	-0.128075	-0.643983
C216	C	1.004289	0.371925	-0.143983
C217	C	0.471170	-0.161172	-0.572023
C218	C	0.971170	0.338828	-0.072023
C219	C	0.471167	-0.161171	-0.428135
C220	C	0.971167	0.338829	0.071865
C221	C	0.504286	-0.128077	-0.356220
C222	C	1.004286	0.371923	0.143780
N223	N	0.570531	-0.061886	0.355982
N224	N	1.070531	0.438114	0.855982
H225	H	-0.271687	0.021674	-0.000191
H226	H	0.228313	0.521674	0.499809
Cl227	Cl	0.504292	-0.128074	-0.824861
Cl228	Cl	1.004292	0.371926	-0.324861
Cl229	Cl	0.715458	0.325423	-0.000178
Cl230	Cl	1.215458	0.825423	0.499822
Cl231	Cl	0.711517	0.079002	-0.337833
Cl232	Cl	1.211517	0.579002	0.162167
H233	H	-0.293778	-0.138273	-0.000132
H234	H	0.206222	0.361727	0.499868
H235	H	0.444204	-0.188114	-0.630592
H236	H	0.944204	0.311886	-0.130592
H237	H	0.494147	0.073812	-0.000162
H238	H	0.994147	0.573812	0.499838
Cl239	Cl	-0.193845	-0.158845	-0.000105
Cl240	Cl	0.306155	0.341155	0.499895
Cl241	Cl	0.636766	0.004299	-0.175415
Cl242	Cl	1.136766	0.504299	0.324585
Cl243	Cl	0.307433	-0.163940	-0.000076
Cl244	Cl	0.807433	0.336060	0.499924
H245	H	0.057760	0.062462	-0.000232
H246	H	0.557760	0.562462	0.499768
Cl247	Cl	0.183215	-0.206818	-0.000063
Cl248	Cl	0.683215	0.293182	0.499937
Cl249	Cl	0.711524	0.079002	-0.662598
Cl250	Cl	1.211524	0.579002	-0.162598
Cl251	Cl	0.667487	0.702483	-0.000189
Cl252	Cl	1.167487	1.202483	0.499811
Cl253	Cl	0.636768	0.004307	-0.824935
Cl254	Cl	1.136768	0.504307	-0.324935
Cl255	Cl	0.673730	0.087427	-0.000232
Cl256	Cl	1.173730	0.587427	0.499768
Cl257	Cl	0.425613	0.550795	-0.000063
Cl258	Cl	0.925613	1.050795	0.499937
Cl259	Cl	0.429524	-0.202775	-0.337685
Cl260	Cl	0.929524	0.297225	0.162315
H261	H	0.504288	-0.128075	-0.239065
H262	H	1.004288	0.371925	0.260935
Cl263	Cl	0.222869	0.080338	-0.000263
Cl264	Cl	0.722869	0.580338	0.499737
H265	H	0.694892	0.425337	-0.000184
H266	H	1.194892	0.925337	0.499816
Cl267	Cl	0.473578	0.173748	-0.000155
Cl268	Cl	0.973578	0.673748	0.499845
Cl269	Cl	-0.166379	0.040158	-0.000223
Cl270	Cl	0.333621	0.540158	0.499777
H271	H	0.412742	-0.145454	-0.000048
H272	H	0.912742	0.354546	0.499952
H273	H	0.694285	0.485125	-0.000179
H274	H	1.194285	0.985125	0.499821
Cl275	Cl	0.672580	0.201205	-0.000197
Cl276	Cl	1.172580	0.701205	0.499803
H277	H	0.446180	0.450879	-0.000080
H278	H	0.946180	0.950879	0.499920
Cl279	Cl	0.109093	0.081500	-0.000236
Cl280	Cl	0.609093	0.581500	0.499764
Cl281	Cl	0.069445	-0.205662	-0.000076
Cl282	Cl	0.569445	0.294338	0.499924
Cl283	Cl	0.448687	0.033901	-0.000151
Cl284	Cl	0.948687	0.533901	0.499849
Cl285	Cl	0.334890	0.035062	-0.000176
Cl286	Cl	0.834890	0.535062	0.499824
H287	H	0.023513	-0.185643	-0.000102
H288	H	0.523513	0.314357	0.499898
H289	H	0.486969	0.780326	-0.000129
H290	H	0.986969	1.280326	0.499871
Cl291	Cl	-0.081809	-0.204117	-0.000107
Cl292	Cl	0.418191	0.295883	0.499893
Cl293	Cl	-0.042155	0.083029	-0.000245
Cl294	Cl	0.457845	0.583029	0.499755
H295	H	0.646916	0.802416	-0.000165
H296	H	1.146916	1.302416	0.499835
H297	H	0.487896	0.688875	-0.000101
H298	H	0.987896	1.188875	0.499899
H299	H	0.446780	0.391081	-0.000056
H300	H	0.946780	0.891081	0.499944
H301	H	0.447712	0.299630	-0.000058
H302	H	0.947712	0.799630	0.499942
H303	H	0.693350	0.576586	-0.000168
H304	H	1.193350	1.076586	0.499832
