data_functionalizedCrystal
_audit_creation_method	'MofGen! by Chris Wilmer'
_symmetry_space_group_name_H-M	'P1'
_symmetry_Int_Tables_number	1
_symmetry_cell_setting	triclinic
loop_
_symmetry_equiv_pos_as_xyz
  x,y,z
_cell_length_a	10.723024
_cell_length_b	17.038272
_cell_length_c	9.798715
_cell_angle_alpha	89.996584
_cell_angle_beta	89.996609
_cell_angle_gamma	87.789713
loop_
_atom_site_label
_atom_site_type_symbol
_atom_site_fract_x
_atom_site_fract_y
_atom_site_fract_z
O1	O	1.667337	0.109720	-0.113484
O2	O	1.305156	0.120222	-0.113489
O3	O	1.484094	0.001144	-0.113475
O4	O	1.488399	0.228799	-0.113497
O5	O	1.484079	0.001144	0.113507
O6	O	1.305141	0.120222	0.113494
O7	O	1.667322	0.109720	0.113498
Zn8	Zn	1.486230	0.114971	0.149534
Zn9	Zn	1.486248	0.114971	-0.149525
O10	O	1.488384	0.228798	0.113485
C11	C	1.258578	0.119458	0.000002
C12	C	1.119813	0.117171	0.000000
C13	C	1.050993	0.183801	-0.000007
C14	C	0.907571	0.181440	-0.000008
C15	C	1.480171	-0.028006	0.000015
C16	C	1.468489	-0.114864	0.000015
C17	C	1.575744	-0.164385	0.000018
C18	C	1.564760	-0.245996	0.000005
C19	C	1.446520	-0.278084	-0.000002
C20	C	1.339256	-0.228557	-0.000009
C21	C	1.350241	-0.146947	-0.000005
C22	C	1.407711	-0.524057	-0.000021
C23	C	1.396734	-0.605673	-0.000020
C24	C	1.622239	-0.623107	-0.000009
C25	C	1.633214	-0.541495	0.000002
C26	C	1.525950	-0.491974	-0.000012
C27	C	1.435289	-0.361504	-0.000011
C28	C	1.537182	-0.408556	-0.000013
C29	C	1.713900	0.110484	0.000005
C30	C	1.852666	0.112771	-0.000003
C31	C	1.492307	0.257948	-0.000009
C32	C	1.503989	0.344806	-0.000017
N33	N	1.486226	0.114970	0.353634
N34	N	1.486261	0.114966	-0.353624
C35	C	1.561337	0.064752	0.421416
C36	C	1.561356	0.064749	0.578579
H37	H	1.672028	-0.138265	0.000031
H38	H	1.633453	-0.382426	-0.000038
C39	C	1.619679	-0.070326	0.622827
C40	C	1.648169	0.006703	0.657257
H41	H	1.673281	-0.106161	0.671397
H42	H	1.535398	-0.079130	0.646201
H43	H	1.631059	-0.077930	0.527531
H44	H	1.636780	0.014309	0.752552
H45	H	1.732471	0.015511	0.633891
H46	H	1.421930	0.157959	0.411954
C47	C	1.772395	0.019728	0.377194
C48	C	1.648162	0.006710	0.342739
H49	H	1.826005	-0.016110	0.328640
H50	H	1.791685	0.071984	0.353816
H51	H	1.783751	0.012124	0.472493
H52	H	1.636804	0.014319	0.247441
H53	H	1.628865	-0.045558	0.366108
H54	H	0.911814	0.055727	-0.000005
C55	C	1.147083	-0.023360	0.000018
C56	C	1.056028	0.037797	0.000009
H57	H	1.107705	-0.072363	0.000031
H58	H	1.197644	-0.019602	-0.079132
H59	H	1.197642	-0.019597	0.079176
H60	H	1.005475	0.034038	-0.079155
H61	H	1.005446	0.034038	0.079167
C62	C	0.752312	0.261497	-0.116702
C63	C	0.827721	0.258447	-0.000018
H64	H	0.703009	0.309038	-0.116701
H65	H	0.803489	0.259421	-0.195838
H66	H	0.699279	0.218106	-0.116685
H67	H	0.880760	0.301835	-0.000040
H68	H	0.776538	0.260531	0.079138
H69	H	1.652100	-0.286314	0.000010
H70	H	1.320369	-0.483747	-0.000032
H71	H	1.421957	0.157965	0.588095
H72	H	1.729498	-0.515375	0.000007
C73	C	1.811070	-0.663082	-0.116691
C74	C	1.740140	-0.677539	-0.000010
H75	H	1.883863	-0.696684	-0.116689
H76	H	1.762946	-0.672875	-0.195829
H77	H	1.834521	-0.609884	-0.116673
H78	H	1.716681	-0.730737	-0.000034
H79	H	1.788273	-0.667752	0.079148
C80	C	1.292136	-0.443171	-0.116686
C81	C	1.305323	-0.396783	-0.000003
H82	H	1.211903	-0.464957	-0.116676
H83	H	1.301093	-0.411690	-0.195823
H84	H	1.354459	-0.484336	-0.116678
H85	H	1.243005	-0.355614	-0.000016
H86	H	1.296353	-0.428267	0.079154
H87	H	1.300443	-0.631796	-0.000003
H88	H	1.098254	0.242594	-0.000005
H89	H	1.242982	-0.254689	-0.000022
C90	C	1.161427	-0.106956	-0.116691
C91	C	1.232342	-0.092510	-0.000007
H92	H	1.088636	-0.073352	-0.116690
H93	H	1.209562	-0.097158	-0.195827
H94	H	1.137971	-0.160154	-0.116675
H95	H	1.255806	-0.039314	-0.000027
H96	H	1.184197	-0.102302	0.079150
