data_functionalizedCrystal
_audit_creation_method	'MofGen! by Chris Wilmer'
_symmetry_space_group_name_H-M	'P1'
_symmetry_Int_Tables_number	1
_symmetry_cell_setting	triclinic
loop_
_symmetry_equiv_pos_as_xyz
  x,y,z
_cell_length_a	16.625546
_cell_length_b	17.077404
_cell_length_c	16.625539
_cell_angle_alpha	90.016978
_cell_angle_beta	90.028532
_cell_angle_gamma	90.022693
loop_
_atom_site_label
_atom_site_type_symbol
_atom_site_fract_x
_atom_site_fract_y
_atom_site_fract_z
Zn1	Zn	-0.321010	1.200037	0.455896
Zn2	Zn	0.012323	1.533371	0.789229
Zn3	Zn	0.345656	1.866704	1.122563
Zn4	Zn	-0.455849	1.199951	0.321058
Zn5	Zn	-0.122516	1.533285	0.654392
Zn6	Zn	0.210818	1.866618	0.987725
Zn7	Zn	-0.321035	1.068775	0.321077
Zn8	Zn	0.012299	1.402108	0.654410
Zn9	Zn	0.345632	1.735442	0.987743
Zn10	Zn	-0.455805	1.068738	0.455848
Zn11	Zn	-0.122472	1.402071	0.789182
Zn12	Zn	0.210862	1.735405	1.122515
O13	O	-0.388425	1.134375	0.388470
O14	O	-0.055091	1.467709	0.721803
O15	O	0.278242	1.801042	1.055136
O16	O	-0.338905	1.309873	0.438022
O17	O	-0.005572	1.643206	0.771355
O18	O	0.327762	1.976539	1.104688
O19	O	-0.437994	1.182530	0.208228
O20	O	-0.104661	1.515863	0.541562
O21	O	0.228673	1.849196	0.874895
O22	O	-0.208199	1.086239	0.338988
O23	O	0.125134	1.419572	0.672322
O24	O	0.458468	1.752905	1.005655
O25	O	-0.437970	1.309810	0.338957
O26	O	-0.104637	1.643143	0.672290
O27	O	0.228696	1.976476	1.005624
O28	O	-0.208181	1.182677	0.438040
O29	O	0.125152	1.516010	0.771373
O30	O	0.458486	1.849343	1.104706
O31	O	-0.338946	1.086155	0.208242
O32	O	-0.005613	1.419488	0.541575
O33	O	0.327720	1.752822	0.874908
O34	O	-0.338904	0.958923	0.338942
O35	O	-0.005571	1.292256	0.672276
O36	O	0.327763	1.625590	1.005609
O37	O	-0.437896	1.086176	0.568687
O38	O	-0.104562	1.419509	0.902020
O39	O	0.228771	1.752843	1.235354
O40	O	-0.437919	0.958896	0.437958
O41	O	-0.104586	1.292229	0.771292
O42	O	0.228747	1.625563	1.104625
O43	O	-0.338862	1.182641	0.568722
O44	O	-0.005529	1.515974	0.902055
O45	O	0.327804	1.849308	1.235389
O46	O	-0.568676	1.182494	0.338911
O47	O	-0.235342	1.515827	0.672244
O48	O	0.097991	1.849161	1.005577
O49	O	-0.568643	1.086092	0.437940
O50	O	-0.235310	1.419426	0.771274
O51	O	0.098023	1.752759	1.104607
C52	C	-0.388410	0.930428	0.388448
C53	C	-0.055077	1.263761	0.721781
C54	C	0.278257	1.597094	1.055114
C55	C	-0.388423	0.843178	0.388457
C56	C	-0.055090	1.176511	0.721790
C57	C	0.278243	1.509844	1.055124
C58	C	-0.440058	0.802194	0.439932
C59	C	-0.106725	1.135527	0.773265
C60	C	0.226608	1.468861	1.106599
C61	C	-0.440060	0.720214	0.439945
C62	C	-0.106727	1.053547	0.773278
C63	C	0.226607	1.386880	1.106612
C64	C	-0.388430	0.679218	0.388478
C65	C	-0.055097	1.012552	0.721812
C66	C	0.278236	1.345885	1.055145
C67	C	-0.336789	0.720208	0.337001
C68	C	-0.003456	1.053541	0.670334
C69	C	0.329877	1.386874	1.003668
C70	C	-0.336784	0.802187	0.336993
C71	C	-0.003451	1.135520	0.670326
C72	C	0.329882	1.468853	1.003659
C73	C	-0.336805	0.549338	0.337020
C74	C	-0.003472	0.882671	0.670354
C75	C	0.329861	1.216004	1.003687
C76	C	-0.336811	0.467353	0.337027
C77	C	-0.003478	0.800686	0.670361
C78	C	0.329855	1.134020	1.003694
C79	C	-0.440081	0.467365	0.439973
C80	C	-0.106748	0.800698	0.773306
C81	C	0.226586	1.134031	1.106639
C82	C	-0.440076	0.549344	0.439964
C83	C	-0.106743	0.882677	0.773298
C84	C	0.226591	1.216010	1.106631
C85	C	-0.388436	0.590327	0.388486
C86	C	-0.055103	0.923661	0.721819
C87	C	0.278231	1.256994	1.055153
C88	C	-0.597916	1.134301	0.388436
C89	C	-0.264582	1.467634	0.721769
C90	C	0.068751	1.800968	1.055103
C91	C	-0.687537	1.134341	0.388449
C92	C	-0.354203	1.467674	0.721782
C93	C	-0.020870	1.801008	1.055115
C94	C	-1.015712	1.134478	0.388533
C95	C	-0.682379	1.467811	0.721866
C96	C	-0.349046	1.801145	1.055199
C97	C	-0.924404	1.134437	0.388511
C98	C	-0.591070	1.467771	0.721845
C99	C	-0.257737	1.801104	1.055178
C100	C	-0.851627	1.134409	0.388490
C101	C	-0.518294	1.467742	0.721823
C102	C	-0.184961	1.801076	1.055157
C103	C	-0.760313	1.134370	0.388470
C104	C	-0.426980	1.467703	0.721803
C105	C	-0.093646	1.801036	1.055137
C106	C	-0.178116	1.134471	0.388521
C107	C	0.155218	1.467805	0.721855
C108	C	0.488551	1.801138	1.055188
C109	C	-0.088495	1.134512	0.388543
C110	C	0.244839	1.467846	0.721877
C111	C	0.578172	1.801179	1.055210
C112	C	-0.388371	1.134414	0.598779
C113	C	-0.055038	1.467747	0.932112
C114	C	0.278295	1.801081	1.265445
C115	C	-0.388349	1.134430	0.688400
C116	C	-0.055015	1.467764	1.021733
C117	C	0.278318	1.801097	1.355067
C118	C	-0.388440	1.339120	0.388493
C119	C	-0.055107	1.672453	0.721826
C120	C	0.278227	2.005786	1.055159
C121	C	-0.388446	1.426369	0.388502
C122	C	-0.055113	1.759703	0.721836
C123	C	0.278220	2.093036	1.055169
C124	C	-0.388419	1.134382	0.178979
C125	C	-0.055086	1.467716	0.512312
C126	C	0.278247	1.801049	0.845646
C127	C	-0.388215	1.134518	0.089358
C128	C	-0.054882	1.467851	0.422692
C129	C	0.278452	1.801185	0.756025
C130	C	-0.388331	1.134443	0.761182
C131	C	-0.054998	1.467776	1.094516
C132	C	0.278336	1.801110	1.427849
C133	C	-0.388301	1.134461	0.852491
C134	C	-0.054968	1.467795	1.185824
C135	C	0.278366	1.801128	1.519158
C136	C	-0.388273	1.134480	0.925267
C137	C	-0.054939	1.467813	1.258601
C138	C	0.278394	1.801147	1.591934
C139	C	-0.388243	1.134499	1.016582
C140	C	-0.054910	1.467833	1.349915
C141	C	0.278423	1.801166	1.683248
H142	H	-0.482126	0.433992	0.481891
H143	H	-0.148793	0.767325	0.815224
H144	H	0.184541	1.100658	1.148557
H145	H	-0.482122	0.582720	0.481869
H146	H	-0.148789	0.916053	0.815202
H147	H	0.184545	1.249386	1.148535
H148	H	-0.482104	0.835567	0.481840
H149	H	-0.148771	1.168900	0.815173
H150	H	0.184563	1.502233	1.148506
F151	F	-0.281864	0.423724	0.282248
F152	F	0.051469	0.757058	0.615581
F153	F	0.384802	1.090391	0.948914
F154	F	-0.281825	0.845804	0.282208
F155	F	0.051508	1.179138	0.615541
F156	F	0.384841	1.512471	0.948874
F157	F	-0.281843	0.592954	0.282232
F158	F	0.051490	0.926287	0.615565
F159	F	0.384824	1.259621	0.948898
H160	H	-0.294748	0.686823	0.295099
H161	H	0.038585	1.020156	0.628433
H162	H	0.371919	1.353490	0.961766
H163	H	-0.482107	0.686848	0.481860
H164	H	-0.148774	1.020182	0.815194
H165	H	0.184559	1.353515	1.148527
