data_functionalizedCrystal
_audit_creation_method	'MofGen! by Chris Wilmer'
_symmetry_space_group_name_H-M	'P1'
_symmetry_Int_Tables_number	1
_symmetry_cell_setting	triclinic
loop_
_symmetry_equiv_pos_as_xyz
  x,y,z
_cell_length_a	19.188905
_cell_length_b	19.188930
_cell_length_c	13.930277
_cell_angle_alpha	89.990320
_cell_angle_beta	89.985661
_cell_angle_gamma	83.139668
loop_
_atom_site_label
_atom_site_type_symbol
_atom_site_fract_x
_atom_site_fract_y
_atom_site_fract_z
O1	O	0.926159	0.087084	-0.080000
O2	O	1.426159	0.587084	0.420000
O3	O	0.722845	0.098836	-0.079968
O4	O	1.222845	0.598836	0.420032
O5	O	0.830369	-0.008696	-0.079966
O6	O	1.330369	0.491304	0.420034
O7	O	0.818635	0.194616	-0.080002
O8	O	1.318635	0.694616	0.419998
O9	O	0.830354	-0.008698	0.079696
O10	O	1.330354	0.491302	0.579696
O11	O	0.722830	0.098834	0.079693
O12	O	1.222830	0.598834	0.579693
O13	O	0.926144	0.087082	0.079662
O14	O	1.426144	0.587082	0.579662
Zn15	Zn	0.824485	0.092958	0.105028
Zn16	Zn	1.324485	0.592958	0.605028
Zn17	Zn	0.824504	0.092960	-0.105334
Zn18	Zn	1.324504	0.592960	0.394666
O19	O	0.818620	0.194614	0.079660
O20	O	1.318620	0.694614	0.579660
C21	C	0.696826	0.098458	-0.000133
C22	C	1.196826	0.598458	0.499867
C23	C	0.619321	0.097324	-0.000120
C24	C	1.119321	0.597324	0.499880
C25	C	0.829982	-0.034708	-0.000132
C26	C	1.329982	0.465292	0.499868
C27	C	0.828841	-0.112213	-0.000124
C28	C	1.328841	0.387787	0.499876
C29	C	0.582937	0.096781	-0.087154
C30	C	1.082937	0.596781	0.412846
C31	C	0.510113	0.095708	-0.087166
C32	C	1.010113	0.595708	0.412834
C33	C	0.473678	0.095164	-0.000139
C34	C	0.973678	0.595164	0.499861
C35	C	0.510070	0.095711	0.086907
C36	C	1.010070	0.595711	0.586907
C37	C	0.582891	0.096791	0.086916
C38	C	1.082891	0.596791	0.586916
N39	N	0.364652	0.053734	0.064634
N40	N	0.864652	0.553734	0.564634
N41	N	0.295475	0.052707	0.064620
N42	N	0.795475	0.552707	0.564620
C43	C	0.254272	0.091911	-0.000162
C44	C	0.754272	0.591911	0.499838
N45	N	0.284860	0.132173	-0.064942
N46	N	0.784860	0.632173	0.435058
N47	N	0.354043	0.133198	-0.064930
N48	N	0.854043	0.633198	0.435070
C49	C	0.394716	0.093993	-0.000139
C50	C	0.894716	0.593993	0.499861
C51	C	0.138924	0.090205	-0.087214
C52	C	0.638924	0.590205	0.412786
C53	C	0.066098	0.089137	-0.087223
C54	C	0.566098	0.589137	0.412777
C55	C	0.066058	0.089133	0.086853
C56	C	0.566058	0.589133	0.586853
C57	C	0.138881	0.090209	0.086859
C58	C	0.638881	0.590209	0.586859
C59	C	0.175310	0.090742	-0.000178
C60	C	0.675310	0.590742	0.499822
C61	C	0.891933	-0.157142	-0.000129
C62	C	1.391933	0.342858	0.499871
C63	C	0.890861	-0.229966	-0.000144
C64	C	1.390861	0.270034	0.499856
C65	C	0.826694	-0.257857	-0.000135
C66	C	1.326694	0.242143	0.499865
C67	C	0.763594	-0.212917	-0.000135
C68	C	1.263594	0.287083	0.499865
C69	C	0.764668	-0.140095	-0.000130
C70	C	1.264668	0.359905	0.499870
N71	N	0.777641	-0.365858	0.054208
N72	N	1.277641	0.134142	0.554208
N73	N	0.776626	-0.435037	0.054205
N74	N	1.276626	0.064963	0.554205
C75	C	0.823456	-0.477265	-0.000154
C76	C	1.323456	0.022735	0.499846
N77	N	0.871351	-0.447703	-0.054498
N78	N	1.371351	0.052297	0.445502
N79	N	0.872368	-0.378518	-0.054490
N80	N	1.372368	0.121482	0.445510
C81	C	0.825523	-0.336819	-0.000142
C82	C	1.325523	0.163181	0.499858
C83	C	0.885390	-0.601159	-0.000177
C84	C	1.385390	-0.101159	0.499823
C85	C	0.884315	-0.673984	-0.000198
C86	C	1.384315	-0.173984	0.499802
C87	C	0.757047	-0.656933	-0.000180
C88	C	1.257047	-0.156933	0.499820
C89	C	0.758123	-0.584110	-0.000168
C90	C	1.258123	-0.084110	0.499832
C91	C	0.822296	-0.556228	-0.000162
C92	C	1.322296	-0.056228	0.499838
C93	C	0.952163	0.087460	-0.000175
C94	C	1.452163	0.587460	0.499825
C95	C	1.029668	0.088594	-0.000194
C96	C	1.529668	0.588594	0.499806
C97	C	0.819007	0.220626	-0.000176
C98	C	1.319007	0.720626	0.499824
C99	C	0.820148	0.298131	-0.000191
C100	C	1.320148	0.798131	0.499809
N101	N	0.824476	0.092955	0.248594
N102	N	1.324476	0.592955	0.748594
N103	N	0.824518	0.092957	-0.248900
N104	N	1.324518	0.592957	0.251100
C105	C	0.776891	0.140557	0.700862
C106	C	1.276891	0.640557	1.200862
C107	C	0.872137	0.045358	0.700833
C108	C	1.372137	0.545358	1.200833
C109	C	0.872129	0.045356	0.600338
C110	C	1.372129	0.545356	1.100338
C111	C	0.824501	0.092956	0.550099
C112	C	1.324501	0.592956	1.050099
C113	C	0.776882	0.140558	0.600357
C114	C	1.276882	0.640558	1.100357
C115	C	0.919751	-0.002240	0.550072
C116	C	1.419751	0.497760	1.050072
C117	C	0.919746	-0.002244	0.449571
C118	C	1.419746	0.497756	0.949571
C119	C	0.872114	0.045353	0.399331
C120	C	1.372114	0.545353	0.899331
C121	C	0.824493	0.092957	0.449594
C122	C	1.324493	0.592957	0.949594
C123	C	0.776866	0.140556	0.399356
C124	C	1.276866	0.640556	0.899356
C125	C	0.729241	0.188157	0.449618
C126	C	1.229241	0.688157	0.949618
C127	C	0.729251	0.188155	0.550117
C128	C	1.229251	0.688155	1.050117
C129	C	0.872104	0.045355	0.298832
C130	C	1.372104	0.545355	0.798832
C131	C	0.776857	0.140557	0.298851
C132	C	1.276857	0.640557	0.798851
H133	H	0.612593	0.097214	-0.158026
H134	H	1.112593	0.597214	0.341974
C135	C	0.953725	-0.723407	-0.000199
C136	C	1.453725	-0.223407	0.499801
N137	N	1.006006	-0.760634	-0.000195
N138	N	1.506006	-0.260634	0.499805
H139	H	0.480484	0.095266	-0.158042
H140	H	0.980484	0.595266	0.341958
C141	C	0.676853	0.240516	0.394343
C142	C	1.176853	0.740516	0.894343
N143	N	0.637395	0.279951	0.352706
N144	N	1.137395	0.779951	0.852706
C145	C	0.469990	0.095112	0.182637
C146	C	0.969990	0.595112	0.682637
N147	N	0.439802	0.094663	0.254744
N148	N	0.939802	0.594663	0.754744
H149	H	0.711349	-0.235631	-0.000130
H150	H	1.211349	0.264369	0.499870
H151	H	0.713289	-0.103513	-0.000125
H152	H	1.213289	0.396487	0.499875
C153	C	0.025983	0.088536	0.182585
C154	C	0.525983	0.588536	0.682585
N155	N	-0.004205	0.088088	0.254692
N156	N	0.495795	0.588088	0.754692
H157	H	0.036476	0.088698	-0.158099
H158	H	0.536476	0.588698	0.341901
C159	C	0.622915	0.097383	0.182665
C160	C	1.122915	0.597383	0.682665
N161	N	0.653063	0.097826	0.254784
N162	N	1.153063	0.597826	0.754784
H163	H	0.937644	-0.578456	-0.000177
H164	H	1.437644	-0.078456	0.499823
H165	H	0.690477	0.226910	0.591046
H166	H	1.190477	0.726910	1.091046
C167	C	0.724501	0.192911	0.756150
C168	C	1.224501	0.692911	1.256150
N169	N	0.685039	0.232343	0.797794
N170	N	1.185039	0.732343	1.297794
C171	C	0.960269	-0.279398	-0.000144
C172	C	1.460269	0.220602	0.499856
N173	N	1.012548	-0.316627	-0.000141
N174	N	1.512548	0.183373	0.499859
H175	H	0.910882	0.006603	0.257913
H176	H	1.410882	0.506603	0.757913
H177	H	0.704801	-0.679641	-0.000177
H178	H	1.204801	-0.179641	0.499823
C179	C	0.178997	0.090804	-0.182955
C180	C	0.678997	0.590804	0.317045
N181	N	0.209178	0.091257	-0.255068
N182	N	0.709178	0.591257	0.244932
H183	H	0.706747	-0.547527	-0.000159
H184	H	1.206747	-0.047527	0.499841
C185	C	0.178906	0.090797	0.182604
C186	C	0.678906	0.590797	0.682604
N187	N	0.209052	0.091240	0.254725
N188	N	0.709052	0.591240	0.754725
C189	C	0.962525	-0.126476	-0.000131
C190	C	1.462525	0.373524	0.499869
N191	N	1.015696	-0.103377	-0.000135
N192	N	1.515696	0.396623	0.499865
C193	C	0.724480	0.192940	0.243597
C194	C	1.224480	0.692940	0.743597
N195	N	0.685036	0.232401	0.201981
N196	N	1.185036	0.732401	0.701981
H197	H	0.910917	0.006607	0.741740
H198	H	1.410917	0.506607	1.241740
H199	H	0.958532	-0.040991	0.590980
H200	H	1.458532	0.459009	1.090980
C201	C	0.972128	-0.054611	0.394292
C202	C	1.472128	0.445389	0.894292
N203	N	1.011581	-0.094056	0.352655
N204	N	1.511581	0.405944	0.852655
