data_functionalizedCrystal
_audit_creation_method	'MofGen! by Chris Wilmer'
_symmetry_space_group_name_H-M	'P1'
_symmetry_Int_Tables_number	1
_symmetry_cell_setting	triclinic
loop_
_symmetry_equiv_pos_as_xyz
  x,y,z
_cell_length_a	19.288864
_cell_length_b	15.944551
_cell_length_c	17.766277
_cell_angle_alpha	89.992686
_cell_angle_beta	89.976791
_cell_angle_gamma	83.317492
loop_
_atom_site_label
_atom_site_type_symbol
_atom_site_fract_x
_atom_site_fract_y
_atom_site_fract_z
O1	O	0.921629	0.104784	-0.062837
O2	O	1.421629	0.604784	0.437163
O3	O	0.719406	0.118919	-0.062786
O4	O	1.219406	0.618919	0.437214
O5	O	0.826040	-0.010445	-0.062806
O6	O	1.326040	0.489555	0.437194
O7	O	0.814995	0.234147	-0.062817
O8	O	1.314995	0.734147	0.437183
O9	O	0.826021	-0.010451	0.062382
O10	O	1.326021	0.489549	0.562382
O11	O	0.719387	0.118912	0.062403
O12	O	1.219387	0.618912	0.562403
O13	O	0.921610	0.104777	0.062351
O14	O	1.421610	0.604777	0.562351
Cu15	Cu	0.820497	0.111844	0.073808
Cu16	Cu	1.320497	0.611844	0.573808
Cu17	Cu	0.820519	0.111852	-0.074242
Cu18	Cu	1.320519	0.611852	0.425758
O19	O	0.814976	0.234141	0.062372
O20	O	1.314976	0.734141	0.562372
C21	C	0.693519	0.118461	-0.000185
C22	C	1.193519	0.618461	0.499815
C23	C	0.616411	0.117095	-0.000165
C24	C	1.116411	0.617095	0.499835
C25	C	0.825572	-0.041740	-0.000212
C26	C	1.325572	0.458260	0.499788
C27	C	0.824197	-0.134981	-0.000211
C28	C	1.324197	0.365019	0.499789
C29	C	0.571915	0.193000	-0.000181
C30	C	1.071915	0.693000	0.499819
C31	C	0.499465	0.191717	-0.000189
C32	C	0.999465	0.691717	0.499811
C33	C	0.471514	0.114526	-0.000197
C34	C	0.971514	0.614526	0.499803
C35	C	0.516020	0.038611	-0.000178
C36	C	1.016020	0.538611	0.499822
C37	C	0.588469	0.039896	-0.000162
C38	C	1.088469	0.539896	0.499838
C39	C	0.363099	0.053847	-0.044079
C40	C	0.863099	0.553847	0.455921
C41	C	0.290651	0.052565	-0.044099
C42	C	0.790651	0.552565	0.455901
C43	C	0.248058	0.110560	-0.000242
C44	C	0.748058	0.610560	0.499758
C45	C	0.277920	0.169850	0.043625
C46	C	0.777920	0.669850	0.543625
C47	C	0.350369	0.171135	0.043641
C48	C	0.850369	0.671135	0.543641
C49	C	0.392956	0.113124	-0.000214
C50	C	0.892956	0.613124	0.499786
C51	C	0.125002	0.185079	-0.000265
C52	C	0.625002	0.685079	0.499735
C53	C	0.052550	0.183793	-0.000269
C54	C	0.552550	0.683793	0.499731
C55	C	0.069107	0.030684	-0.000265
C56	C	0.569107	0.530684	0.499735
C57	C	0.141557	0.031972	-0.000254
C58	C	0.641557	0.531972	0.499746
C59	C	0.169500	0.109172	-0.000258
C60	C	0.669500	0.609172	0.499742
C61	C	0.754815	-0.349571	-0.000204
C62	C	1.254815	0.150429	0.499796
C63	C	0.787024	-0.410715	0.061514
C64	C	1.287024	0.089285	0.561514
C65	C	0.821710	-0.305697	-0.000216
C66	C	1.321710	0.194303	0.499784
C67	C	0.787059	-0.410692	-0.061912
C68	C	1.287059	0.089308	0.438088
C69	C	0.819303	-0.470601	-0.000224
C70	C	1.319303	0.029399	0.499776
C71	C	0.853938	-0.365614	0.061552
C72	C	1.353938	0.134386	0.561552
C73	C	0.853963	-0.365585	-0.061929
C74	C	1.353963	0.134415	0.438071
C75	C	0.886222	-0.426712	-0.000197
C76	C	1.386222	0.073288	0.499803
C77	C	0.823095	-0.210700	-0.000211
C78	C	1.323095	0.289300	0.499789
C79	C	0.817924	-0.565597	-0.000224
C80	C	1.317924	-0.065597	0.499776
C81	C	0.947497	0.105235	-0.000251
C82	C	1.447497	0.605235	0.499749
C83	C	1.024605	0.106600	-0.000276
C84	C	1.524605	0.606600	0.499724
C85	C	0.815444	0.265436	-0.000225
C86	C	1.315444	0.765436	0.499775
C87	C	0.816819	0.358677	-0.000230
C88	C	1.316819	0.858677	0.499770
N89	N	0.820486	0.111838	0.177938
N90	N	1.320486	0.611838	0.677938
N91	N	0.820535	0.111851	-0.178373
N92	N	1.320535	0.611851	0.321627
C93	C	0.867719	0.054584	0.217316
C94	C	1.367719	0.554584	0.717316
C95	C	0.867723	0.054580	0.296118
C96	C	1.367723	0.554580	0.796118
C97	C	0.820501	0.111845	0.335539
C98	C	1.320501	0.611845	0.835539
C99	C	0.773259	0.169103	0.296151
C100	C	1.273259	0.669103	0.796151
C101	C	0.773252	0.169100	0.217351
C102	C	1.273252	0.669100	0.717351
C103	C	0.811404	0.188378	0.460375
C104	C	1.311404	0.688378	0.960375
C105	C	0.811416	0.188382	0.539173
C106	C	1.311416	0.688382	1.039173
C107	C	0.820520	0.111855	0.578585
C108	C	1.320520	0.611855	1.078585
C109	C	0.829626	0.035319	0.539188
C110	C	1.329626	0.535319	1.039188
C111	C	0.829618	0.035316	0.460387
C112	C	1.329618	0.535316	0.960387
C113	C	0.820503	0.111854	0.420984
C114	C	1.320503	0.611854	0.920984
C115	C	0.867759	0.054592	0.703409
C116	C	1.367759	0.554592	1.203409
C117	C	0.867759	0.054587	0.782212
C118	C	1.367759	0.554587	1.282212
C119	C	0.773298	0.169117	0.782244
C120	C	1.273298	0.669117	1.282244
C121	C	0.773295	0.169115	0.703442
C122	C	1.273295	0.669115	1.203442
C123	C	0.820530	0.111853	0.664029
C124	C	1.320530	0.611853	1.164029
H125	H	0.594661	0.255862	-0.000185
H126	H	1.094661	0.755862	0.499815
C127	C	0.721346	0.232105	0.660124
C128	C	1.221346	0.732105	1.160124
H129	H	0.693226	0.266215	0.694886
H130	H	1.193226	0.766215	1.194886
H131	H	0.692431	0.201979	0.629403
H132	H	1.192431	0.701979	1.129403
H133	H	0.746335	0.266995	0.629368
H134	H	1.246335	0.766995	1.129368
H135	H	0.758722	-0.430717	0.113705
H136	H	1.258722	0.069283	0.613705
C137	C	0.450507	0.275213	-0.000209
C138	C	0.950507	0.775213	0.499791
H139	H	0.403357	0.263389	-0.000214
H140	H	0.903357	0.763389	0.499786
H141	H	0.459003	0.306877	-0.043865
H142	H	0.959003	0.806877	0.456135
H143	H	0.458952	0.306879	0.043452
H144	H	0.958952	0.806879	0.543452
C145	C	0.919719	-0.008395	0.825528
C146	C	1.419719	0.491605	1.325528
H147	H	0.947851	-0.042490	0.790766
H148	H	1.447851	0.457510	1.290766
H149	H	0.894742	-0.043288	0.856287
H150	H	1.394742	0.456712	1.356287
H151	H	0.948631	0.021744	0.856247
H152	H	1.448631	0.521744	1.356247
H153	H	0.734846	0.215740	0.814340
H154	H	1.234846	0.715740	1.314340
H155	H	0.882201	-0.345735	0.113786
H156	H	1.382201	0.154265	0.613786
C157	C	0.485280	-0.046300	-0.000188
C158	C	0.985280	0.453700	0.499812
H159	H	0.522161	-0.091324	-0.000171
H160	H	1.022161	0.408676	0.499829
H161	H	0.457387	-0.049983	-0.043850
H162	H	0.957387	0.450017	0.456150
H163	H	0.457338	-0.049984	0.043467
H164	H	0.957338	0.450016	0.543467
H165	H	0.758764	-0.430657	-0.114093
H166	H	1.258764	0.069343	0.385907
C167	C	0.801401	0.272564	0.582507
C168	C	1.301401	0.772564	1.082507
H169	H	0.802717	0.261607	0.635081
H170	H	1.302717	0.761607	1.135081
H171	H	0.757593	0.302647	0.569613
H172	H	1.257593	0.802647	1.069613
H173	H	0.837725	0.305369	0.569565
H174	H	1.337725	0.805369	1.069565
H175	H	0.374680	0.219409	0.079362
H176	H	0.874680	0.719409	0.579362
C177	C	0.801394	0.272564	0.417029
C178	C	1.301394	0.772564	0.917029
H179	H	0.795984	0.318144	0.451777
H180	H	1.295984	0.818144	0.951777
H181	H	0.760951	0.274393	0.386309
H182	H	1.260951	0.774393	0.886309
H183	H	0.841085	0.277095	0.386270
H184	H	1.341085	0.777095	0.886270
C185	C	0.961294	-0.471805	-0.000170
C186	C	1.461294	0.028195	0.499830
H187	H	0.984935	-0.456386	0.043710
H188	H	1.484935	0.043614	0.543710
H189	H	0.985239	-0.455671	-0.043607
H190	H	1.485239	0.044329	0.456393
H191	H	0.960018	-0.531185	-0.000579
H192	H	1.460018	-0.031185	0.499421
H193	H	0.734809	0.215728	0.328251
H194	H	1.234809	0.715728	0.828251
H195	H	0.147754	0.247939	-0.000257
H196	H	0.647754	0.747939	0.499743
H197	H	0.882241	-0.345560	-0.114123
H198	H	1.382241	0.154440	0.385877
C199	C	0.721299	0.232088	0.174033
C200	C	1.221299	0.732088	0.674033
H201	H	0.693176	0.266197	0.208794
H202	H	1.193176	0.766197	0.708794
H203	H	0.692386	0.201962	0.143309
H204	H	1.192386	0.701962	0.643309
H205	H	0.746288	0.266980	0.143279
H206	H	1.246288	0.766980	0.643279
C207	C	0.919667	-0.008410	0.173966
C208	C	1.419667	0.491590	0.673966
H209	H	0.947794	-0.042515	0.208709
H210	H	1.447794	0.457485	0.708709
H211	H	0.948577	0.021711	0.143202
H212	H	1.448577	0.521711	0.643202
H213	H	0.894674	-0.043306	0.143250
H214	H	1.394674	0.456694	0.643250
C215	C	0.257809	-0.012653	-0.092347
C216	C	0.757809	0.487347	0.407653
H217	H	0.293551	-0.047020	-0.118453
H218	H	0.793551	0.452980	0.381547
H219	H	0.226426	0.015878	-0.127626
H220	H	0.726426	0.515878	0.372374
H221	H	0.233197	-0.047069	-0.060722
H222	H	0.733197	0.452931	0.439278
C223	C	0.231077	0.233652	0.091866
C224	C	0.731077	0.733652	0.591866
H225	H	0.183653	0.224393	0.085580
H226	H	0.683653	0.724393	0.585580
H227	H	0.236951	0.289435	0.076441
H228	H	0.736951	0.789435	0.576441
H229	H	0.243721	0.226479	0.143339
H230	H	0.743721	0.726479	0.643339
C231	C	0.637420	-0.043601	-0.000151
C232	C	1.137420	0.456399	0.499849
H233	H	0.684570	-0.031779	-0.000138
H234	H	1.184570	0.468221	0.499862
H235	H	0.628970	-0.075265	-0.043807
H236	H	1.128970	0.424735	0.456193
H237	H	0.628926	-0.075265	0.043511
H238	H	1.128926	0.424735	0.543511
C239	C	0.919682	-0.008400	0.339443
C240	C	1.419682	0.491600	0.839443
H241	H	0.947814	-0.042501	0.304684
H242	H	1.447814	0.457499	0.804684
H243	H	0.894703	-0.043289	0.370204
H244	H	1.394703	0.456711	0.870204
H245	H	0.948596	0.021740	0.370160
H246	H	1.448596	0.521740	0.870160
H247	H	0.837031	-0.027001	0.428314
H248	H	1.337031	0.472999	0.928314
C249	C	0.003604	0.267293	-0.000286
C250	C	0.503604	0.767293	0.499714
H251	H	0.030625	0.313450	-0.000293
H252	H	0.530625	0.813450	0.499707
H253	H	-0.025027	0.269978	0.043364
H254	H	0.474973	0.769978	0.543364
H255	H	-0.024979	0.269970	-0.043953
H256	H	0.475021	0.769970	0.456047
H257	H	0.906219	0.007963	0.671318
H258	H	1.406219	0.507963	1.171318
C259	C	0.038370	-0.054225	-0.000279
C260	C	0.538370	0.445775	0.499721
H261	H	-0.011151	-0.044121	-0.000296
H262	H	0.488849	0.455879	0.499704
H263	H	0.053620	-0.085476	0.043378
H264	H	0.553620	0.414524	0.543378
H265	H	0.053669	-0.085460	-0.043940
H266	H	0.553669	0.414540	0.456060
C267	C	0.409947	-0.009951	-0.092321
C268	C	0.909947	0.490049	0.407679
H269	H	0.457372	-0.000701	-0.086024
H270	H	0.957372	0.499299	0.413976
H271	H	0.397306	-0.002778	-0.143791
H272	H	0.897306	0.497222	0.356209
H273	H	0.404074	-0.065738	-0.076896
H274	H	0.904074	0.434262	0.423104
C275	C	0.190508	-0.051521	-0.000249
C276	C	0.690508	0.448479	0.499751
H277	H	0.237659	-0.039701	-0.000233
H278	H	0.737659	0.460299	0.499767
H279	H	0.182059	-0.083183	-0.043906
H280	H	0.682059	0.416817	0.456094
H281	H	0.182013	-0.083188	0.043411
H282	H	0.682013	0.416812	0.543411
C283	C	0.679808	-0.304279	-0.000104
C284	C	1.179808	0.195721	0.499896
H285	H	0.656145	-0.319613	0.043815
H286	H	1.156145	0.180387	0.543815
H287	H	0.655811	-0.320356	-0.043501
H288	H	1.155811	0.179644	0.456499
H289	H	0.681197	-0.244918	-0.000547
H290	H	1.181197	0.255082	0.499453
H291	H	0.837039	-0.026997	0.571275
H292	H	1.337039	0.473003	1.071275
