data_functionalizedCrystal
_audit_creation_method	'MofGen! by Chris Wilmer'
_symmetry_space_group_name_H-M	'P1'
_symmetry_Int_Tables_number	1
_symmetry_cell_setting	triclinic
loop_
_symmetry_equiv_pos_as_xyz
  x,y,z
_cell_length_a	23.532355
_cell_length_b	10.654550
_cell_length_c	22.610064
_cell_angle_alpha	90.005285
_cell_angle_beta	90.002356
_cell_angle_gamma	96.343799
loop_
_atom_site_label
_atom_site_type_symbol
_atom_site_fract_x
_atom_site_fract_y
_atom_site_fract_z
O1	O	0.756274	-0.152111	0.049103
O2	O	0.590550	-0.174235	0.049121
O3	O	0.677222	0.019688	0.049109
O4	O	0.669602	-0.346035	0.049115
O5	O	0.677207	0.019660	-0.049260
O6	O	0.590535	-0.174264	-0.049248
O7	O	0.756258	-0.152139	-0.049266
Zn8	Zn	0.673394	-0.163206	-0.064875
Zn9	Zn	0.673414	-0.163169	0.064730
O10	O	0.669586	-0.346063	-0.049255
C11	C	0.569322	-0.173697	-0.000061
C12	C	0.506093	-0.172034	-0.000054
C13	C	0.114003	-0.161602	-0.053700
C14	C	0.054593	-0.160020	-0.053702
O15	O	0.023862	-0.159172	-0.099304
N16	N	0.024888	-0.159220	-0.000081
C17	C	0.054596	-0.159990	0.053545
O18	O	0.023874	-0.159163	0.099154
C19	C	0.114005	-0.161563	0.053547
C20	C	0.143707	-0.162375	-0.000077
C21	C	0.143704	-0.162413	-0.107320
C22	C	0.203110	-0.163997	-0.107317
C23	C	0.232814	-0.164770	-0.053695
C24	C	0.203112	-0.163959	-0.000075
C25	C	0.143713	-0.162323	0.107173
C26	C	0.203126	-0.163895	0.107170
C27	C	0.232828	-0.164707	0.053546
C28	C	0.292222	-0.166317	0.053550
N29	N	0.321927	-0.167116	-0.000070
C30	C	0.292223	-0.166343	-0.053693
C31	C	-0.070167	-0.156684	0.053538
C32	C	-0.129576	-0.155121	0.053537
C33	C	-0.129574	-0.155149	-0.053711
C34	C	-0.070165	-0.156722	-0.053709
C35	C	-0.040462	-0.157484	-0.000083
C36	C	0.416979	-0.169671	-0.053684
C37	C	0.476389	-0.171261	-0.053676
C38	C	0.476383	-0.171226	0.053571
C39	C	0.416977	-0.169643	0.053564
C40	C	0.387277	-0.168862	-0.000068
O41	O	0.322991	-0.167160	0.099129
O42	O	0.322953	-0.167154	-0.099294
C43	C	0.676655	0.066454	-0.000074
C44	C	0.674981	0.205844	-0.000072
C45	C	0.777486	-0.152678	-0.000083
C46	C	0.840716	-0.154341	-0.000086
C47	C	0.670154	-0.392829	-0.000069
C48	C	0.671828	-0.532218	-0.000068
C49	C	0.726012	0.286967	-0.000080
C50	C	0.724436	0.417937	-0.000075
C51	C	0.620793	0.386648	-0.000058
C52	C	0.622370	0.255680	-0.000059
C53	C	0.785850	0.305033	-0.000092
C54	C	0.784273	0.436003	-0.000088
N55	N	0.673385	-0.163231	-0.153328
C56	C	0.711795	-0.077312	-0.561975
C57	C	0.711798	-0.077303	-0.623894
O58	O	0.744431	-0.004271	-0.655918
N59	N	0.673414	-0.163143	-0.654865
C60	C	0.635021	-0.248988	-0.623912
O61	O	0.602373	-0.322000	-0.655941
C62	C	0.635016	-0.248991	-0.561994
C63	C	0.673406	-0.163154	-0.531026
C64	C	0.750181	0.008518	-0.531007
C65	C	0.750179	0.008507	-0.469091
C66	C	0.711790	-0.077334	-0.438143
C67	C	0.673404	-0.163165	-0.469111
C68	C	0.596621	-0.334829	-0.531042
C69	C	0.596619	-0.334823	-0.469119
C70	C	0.635009	-0.248987	-0.438152
C71	C	0.635013	-0.249018	-0.376247
N72	N	0.673396	-0.163178	-0.345276
C73	C	0.711785	-0.077336	-0.376224
C74	C	0.635034	-0.248976	-0.753946
C75	C	0.635042	-0.248981	-0.815864
C76	C	0.711818	-0.077294	-0.815841
C77	C	0.711812	-0.077296	-0.753923
C78	C	0.673418	-0.163136	-0.722975
C79	C	0.711777	-0.077367	-0.246197
C80	C	0.711773	-0.077389	-0.184276
C81	C	0.634996	-0.249071	-0.184304
C82	C	0.635002	-0.249054	-0.246219
C83	C	0.673395	-0.163191	-0.277165
O84	O	0.602394	-0.322009	-0.344184
O85	O	0.744423	-0.004326	-0.344188
N86	N	0.673429	-0.163134	0.153183
H87	H	-0.045987	-0.157317	0.097209
H88	H	0.580815	0.189633	-0.000044
H89	H	0.577958	0.427241	-0.000047
C90	C	0.792419	0.102899	-0.435032
H91	H	0.786932	0.090598	-0.393722
H92	H	0.785921	0.186650	-0.445171
H93	H	0.830474	0.089657	-0.445189
C94	C	0.235774	-0.164885	-0.166304
H95	H	0.209569	-0.164189	-0.198236
H96	H	0.254892	-0.238740	-0.168536
H97	H	0.263006	-0.092253	-0.168538
H98	H	0.227308	-0.164517	0.150840
C99	C	0.792412	0.102949	-0.565044
H100	H	0.786922	0.090678	-0.606357
H101	H	0.830468	0.089745	-0.554886
H102	H	0.785894	0.186689	-0.554889
H103	H	0.603747	-0.318962	-0.271434
H104	H	0.806813	0.478475	-0.041257
C105	C	0.509060	-0.172151	-0.112664
H106	H	0.548696	-0.173217	-0.104986
H107	H	0.503381	-0.098660	-0.134698
H108	H	0.495263	-0.245147	-0.134693
C109	C	0.817474	0.266387	0.055510
H110	H	0.818548	0.177513	0.055503
H111	H	0.797990	0.290230	0.089823
H112	H	0.855400	0.307563	0.055499
C113	C	0.509066	-0.172065	0.112551
H114	H	0.548701	-0.173108	0.104868
H115	H	0.495278	-0.245031	0.134593
H116	H	0.503389	-0.098544	0.134576
H117	H	0.802364	0.482239	0.042383
C118	C	0.554389	-0.429242	-0.565096
H119	H	0.559885	-0.416965	-0.606407
H120	H	0.516333	-0.416032	-0.554945
H121	H	0.560902	-0.512987	-0.554950
C122	C	0.754001	0.017040	-0.150215
H123	H	0.776859	0.068173	-0.177519
H124	H	0.777884	-0.027855	-0.126061
H125	H	0.733307	0.069080	-0.126060
H126	H	0.804898	0.270006	-0.042568
H127	H	0.743040	-0.007448	-0.271386
C128	C	0.592805	-0.343424	-0.719909
H129	H	0.569953	-0.394548	-0.747226
H130	H	0.568917	-0.298541	-0.695753
H131	H	0.613498	-0.395470	-0.695758
C132	C	0.754036	0.017133	-0.719864
H133	H	0.776896	0.068257	-0.747169
H134	H	0.777918	-0.027758	-0.695706
H135	H	0.733341	0.069180	-0.695713
H136	H	0.603742	-0.318966	-0.159096
C137	C	0.754039	0.017144	-0.849892
H138	H	0.748536	0.004855	-0.891203
H139	H	0.792101	0.003960	-0.839747
H140	H	0.747518	0.100884	-0.839741
C141	C	0.592813	-0.343402	-0.849921
H142	H	0.569948	-0.394515	-0.822616
H143	H	0.613497	-0.395443	-0.874081
H144	H	0.568929	-0.298486	-0.874070
C145	C	0.554386	-0.429252	-0.435078
H146	H	0.559877	-0.416965	-0.393766
H147	H	0.560898	-0.512989	-0.445233
H148	H	0.516327	-0.416039	-0.445229
H149	H	0.119526	-0.161781	-0.150988
C150	C	0.384316	-0.168825	-0.112677
H151	H	0.410519	-0.169547	-0.144607
H152	H	0.365197	-0.094973	-0.114918
H153	H	0.357084	-0.241460	-0.114906
C154	C	0.111052	-0.161422	0.166159
H155	H	0.071414	-0.160381	0.158488
H156	H	0.124852	-0.088432	0.188186
H157	H	0.116734	-0.234919	0.188194
H158	H	0.392792	-0.169002	0.097229
H159	H	-0.153770	-0.154517	-0.097373
C160	C	-0.037497	-0.157583	-0.112695
H161	H	-0.063701	-0.156885	-0.144628
H162	H	-0.018372	-0.231427	-0.114932
H163	H	-0.010271	-0.084939	-0.114921
H164	H	-0.153755	-0.154479	0.097203
