data_functionalizedCrystal
_audit_creation_method	'MofGen! by Chris Wilmer'
_symmetry_space_group_name_H-M	'P1'
_symmetry_Int_Tables_number	1
_symmetry_cell_setting	triclinic
loop_
_symmetry_equiv_pos_as_xyz
  x,y,z
_cell_length_a	14.519709
_cell_length_b	16.098538
_cell_length_c	14.519731
_cell_angle_alpha	87.272855
_cell_angle_beta	83.684499
_cell_angle_gamma	92.738106
loop_
_atom_site_label
_atom_site_type_symbol
_atom_site_fract_x
_atom_site_fract_y
_atom_site_fract_z
O1	O	1.227993	0.069149	0.116782
O2	O	0.959518	0.069175	0.131017
O3	O	1.100863	0.069154	-0.010337
O4	O	1.086648	0.069170	0.258136
O5	O	1.092606	-0.069358	-0.002113
O6	O	0.951262	-0.069337	0.139241
O7	O	1.219736	-0.069362	0.125007
Zn8	Zn	1.084188	-0.091341	0.133430
Zn9	Zn	1.095066	0.091154	0.122593
O10	O	1.078391	-0.069341	0.266361
C11	C	0.921030	-0.000078	0.134465
C12	C	0.818650	-0.000068	0.132477
N13	N	1.076770	-0.215889	0.140825
C14	C	0.443751	-0.000106	0.125159
C15	C	0.548060	-0.000096	0.127191
C16	C	0.631197	-0.000087	0.128818
C17	C	0.735512	-0.000077	0.130850
C18	C	1.136785	-0.259483	0.080850
C19	C	1.131604	-0.346672	0.086032
C20	C	1.066413	-0.390264	0.151194
C21	C	1.006392	-0.346664	0.211172
C22	C	1.011569	-0.259477	0.205985
C23	C	1.047647	-0.653511	0.169982
C24	C	1.042477	-0.740704	0.175166
C25	C	1.167688	-0.740706	0.050025
C26	C	1.172863	-0.653517	0.044847
C27	C	1.112839	-0.609925	0.104821
C28	C	1.061118	-0.479385	0.156494
C29	C	1.118130	-0.520806	0.099516
C30	C	1.258224	-0.000108	0.121558
C31	C	1.360605	-0.000112	0.123546
C32	C	1.096069	-0.000102	-0.040584
C33	C	1.094072	-0.000102	-0.142965
N34	N	1.102491	0.215702	0.115191
C35	C	1.092451	-0.000100	-0.226109
C36	C	1.090424	-0.000094	-0.330418
C37	C	1.088816	-0.000088	-0.413557
C38	C	1.086790	-0.000083	-0.517873
C39	C	1.083186	-0.000084	0.296608
C40	C	1.085182	-0.000078	0.398987
H41	H	1.189874	-0.223996	0.027792
H42	H	0.998775	-0.618025	0.218817
H43	H	1.180472	-0.382165	0.037195
Cl44	Cl	0.960516	-0.795501	0.257094
H45	H	1.225946	-0.618026	-0.008213
H46	H	1.216556	-0.776207	0.001195
H47	H	0.953308	-0.382162	0.264225
H48	H	0.962698	-0.223984	0.254821
Cl49	Cl	1.200078	-0.466003	0.017598
H50	H	1.008040	-0.514885	0.209552
