data_functionalizedCrystal
_audit_creation_method	'MofGen! by Chris Wilmer'
_symmetry_space_group_name_H-M	'P1'
_symmetry_Int_Tables_number	1
_symmetry_cell_setting	triclinic
loop_
_symmetry_equiv_pos_as_xyz
  x,y,z
_cell_length_a	6.817900
_cell_length_b	11.102193
_cell_length_c	16.255661
_cell_angle_alpha	93.854655
_cell_angle_beta	103.488922
_cell_angle_gamma	108.603963
loop_
_atom_site_label
_atom_site_type_symbol
_atom_site_fract_x
_atom_site_fract_y
_atom_site_fract_z
V1	V	-4.052929	-0.176865	-0.263871
O2	O	-4.013087	0.007443	-0.258848
O3	O	-4.030098	-0.349678	-0.262066
O4	O	-4.004157	-0.174608	-0.378954
O5	O	-4.039208	-0.168839	-0.141151
V6	V	-4.533293	-0.154765	-0.249192
O7	O	-4.321119	-0.225344	-0.296069
O8	O	-4.715300	-0.106287	-0.216994
O9	O	-4.332917	0.018048	-0.250997
O10	O	-4.690532	-0.339073	-0.254215
O11	O	-4.664411	-0.162791	-0.371913
O12	O	-4.358859	-0.157022	-0.134109
C13	C	-3.881331	-0.391792	-0.257903
C14	C	-3.943948	-0.533072	-0.257194
C15	C	-3.790300	-0.592961	-0.252644
C16	C	-3.849149	-0.725709	-0.251980
C17	C	-4.215305	-0.738668	-0.260420
C18	C	-4.156452	-0.605921	-0.261078
C19	C	-3.578905	-0.585481	-0.247775
C20	C	-3.637754	-0.718229	-0.247111
C21	C	-3.848239	-0.168471	-0.407005
C22	C	-3.889815	-0.167769	-0.501086
C23	C	-3.799129	-0.159385	-0.723904
C24	C	-3.971585	-0.267595	-0.793380
C25	C	-3.966004	-0.166453	-0.673334
C26	C	-3.867655	-0.057005	-0.771496
C27	C	-4.039583	-0.165176	-0.839718
C28	C	-4.137957	-0.274760	-0.741580
C29	C	-4.033950	-0.064074	-0.719680
C30	C	-4.206548	-0.172315	-0.789137
C31	C	-3.923613	-0.167190	-0.577485
C32	C	-4.081993	-0.164449	-0.935567
C33	C	-4.145027	0.060155	-0.255158
C34	C	-4.061649	0.201433	-0.255872
C35	C	-4.178119	-0.163164	-0.106054
C36	C	-4.115781	-0.163859	-0.011972
H37	H	-3.556374	-0.742470	-0.184002
C38	C	-3.936566	-0.383828	-0.836736
N39	N	-3.910173	-0.471370	-0.869390
C40	C	-4.439839	-0.179762	-0.827466
N41	N	-4.615556	-0.185387	-0.856350
H42	H	-4.388325	-0.797998	-0.263579
C43	C	-4.068846	0.052176	-0.676295
N44	N	-4.095105	0.139746	-0.643612
C45	C	-3.713816	0.067325	-0.789837
N46	N	-3.597932	0.160967	-0.803648
C47	C	-4.325494	-0.540054	-0.266109
N48	N	-4.452833	-0.490447	-0.269912
H49	H	-3.448781	-0.532426	-0.186583
H50	H	-3.605537	-0.765542	-0.304560
C51	C	-3.566037	-0.152194	-0.685419
N52	N	-3.390480	-0.146785	-0.656431
H53	H	-4.251830	-0.366886	-0.728113
C54	C	-3.511578	-0.546445	-0.328937
N55	N	-3.460862	-0.517042	-0.390068
