data_functionalizedCrystal
_audit_creation_method	'MofGen! by Chris Wilmer'
_symmetry_space_group_name_H-M	'P1'
_symmetry_Int_Tables_number	1
_symmetry_cell_setting	triclinic
loop_
_symmetry_equiv_pos_as_xyz
  x,y,z
_cell_length_a	14.519709
_cell_length_b	26.210047
_cell_length_c	14.519709
_cell_angle_alpha	90.003565
_cell_angle_beta	96.319855
_cell_angle_gamma	90.003438
loop_
_atom_site_label
_atom_site_type_symbol
_atom_site_fract_x
_atom_site_fract_y
_atom_site_fract_z
O1	O	1.223875	0.042364	-0.120878
O2	O	0.955398	0.042379	-0.135115
O3	O	1.096755	0.042367	0.006242
O4	O	1.082518	0.042377	-0.262235
O5	O	1.096728	-0.042492	0.006220
O6	O	0.955371	-0.042479	-0.135137
O7	O	1.223848	-0.042494	-0.120900
Cu8	Cu	1.089607	-0.050235	-0.128020
Cu9	Cu	1.089639	0.050120	-0.127994
O10	O	1.082491	-0.042482	-0.262257
C11	C	0.921025	-0.000048	-0.134462
C12	C	0.818643	-0.000042	-0.132474
N13	N	1.089591	-0.120819	-0.128038
C14	C	0.443748	-0.000065	-0.125154
C15	C	0.548056	-0.000059	-0.127187
C16	C	0.631192	-0.000053	-0.128814
C17	C	0.735507	-0.000047	-0.130847
C18	C	1.152225	-0.473338	-0.065416
C19	C	1.152246	-0.686997	-0.065403
O20	O	1.205464	-0.714624	-0.012163
N21	N	1.089644	-0.713713	-0.127974
C22	C	1.027029	-0.687010	-0.190549
O23	O	0.973776	-0.714636	-0.243763
C24	C	1.027005	-0.473353	-0.190556
C25	C	1.089617	-0.446640	-0.127987
C26	C	1.214832	-0.446626	-0.002851
C27	C	1.214830	-0.393214	-0.002858
C28	C	1.152221	-0.366515	-0.065430
C29	C	1.089614	-0.393228	-0.127995
C30	C	0.964385	-0.446651	-0.253126
C31	C	0.964383	-0.393233	-0.253121
C32	C	1.026996	-0.366521	-0.190552
C33	C	1.027003	-0.313118	-0.190574
N34	N	1.089605	-0.286403	-0.128002
C35	C	1.152214	-0.313101	-0.065431
C36	C	1.027047	-0.799184	-0.190542
C37	C	1.027054	-0.852598	-0.190541
C38	C	1.152270	-0.852581	-0.065394
C39	C	1.152267	-0.799166	-0.065399
C40	C	1.089649	-0.772468	-0.127970
C41	C	1.152205	-0.200933	-0.065451
C42	C	1.152199	-0.147517	-0.065466
C43	C	1.026980	-0.147539	-0.190610
C44	C	1.026989	-0.200950	-0.190598
C45	C	1.089604	-0.227646	-0.128011
O46	O	0.973806	-0.285459	-0.243779
O47	O	1.205445	-0.285466	-0.012211
C48	C	1.152228	-0.526750	-0.065408
C49	C	1.089621	-0.553463	-0.127973
C50	C	1.027013	-0.526764	-0.190545
C51	C	1.089628	-0.606877	-0.127972
C52	C	1.152237	-0.633575	-0.065401
C53	C	1.214839	-0.606860	-0.002830
C54	C	1.214836	-0.553448	-0.002837
C55	C	0.964411	-0.553480	-0.253116
C56	C	0.964419	-0.606891	-0.253104
C57	C	1.027028	-0.633590	-0.190533
C58	C	1.258221	-0.000066	-0.121553
C59	C	1.360602	-0.000069	-0.123541
C60	C	1.096078	-0.000063	0.040591
C61	C	1.094089	-0.000063	0.142972
N62	N	1.089662	0.120704	-0.127969
C63	C	1.083168	-0.000051	-0.296606
C64	C	1.085156	-0.000048	-0.398987
C65	C	1.086770	-0.000049	0.517868
C66	C	1.088803	-0.000053	0.413560
C67	C	1.090430	-0.000056	0.330423
C68	C	1.092463	-0.000059	0.226109
H69	H	1.203189	-0.125769	-0.014515
H70	H	1.203191	-0.222663	-0.014486
O71	O	1.275679	-0.367348	0.058018
C72	C	1.330945	-0.402376	0.113226
H73	H	1.293131	-0.440452	0.114339
H74	H	1.344891	-0.386945	0.186850
H75	H	1.399501	-0.408055	0.083132
O76	O	1.275531	-0.472578	0.058026
C77	C	1.226076	-0.503488	0.115031
H78	H	1.153340	-0.487404	0.116755
H79	H	1.263591	-0.504080	0.188248
H80	H	1.221307	-0.543973	0.086190
O81	O	1.213117	-0.773298	-0.004527
C82	C	1.268392	-0.808324	0.050677
H83	H	1.230583	-0.846401	0.051796
H84	H	1.282344	-0.792892	0.124300
H85	H	1.336945	-0.814000	0.020577
O86	O	0.966289	-0.121541	-0.251425
C87	C	1.015760	-0.090652	-0.308449
H88	H	1.087868	-0.082650	-0.271887
H89	H	0.977294	-0.053091	-0.322939
H90	H	1.022122	-0.111236	-0.376629
O91	O	0.966150	-0.878464	-0.251361
C92	C	0.910907	-0.843439	-0.306598
H93	H	0.909809	-0.805363	-0.268780
H94	H	0.837282	-0.858873	-0.320502
H95	H	0.940957	-0.837758	-0.375176
O96	O	0.966349	-0.773198	-0.251376
C97	C	1.015824	-0.742313	-0.308402
H98	H	1.087919	-0.734296	-0.271826
H99	H	0.977343	-0.704759	-0.322927
H100	H	1.022215	-0.762908	-0.376566
O101	O	0.903472	-0.472513	-0.313939
C102	C	0.848232	-0.437483	-0.369169
H103	H	0.847142	-0.399408	-0.331348
H104	H	0.774604	-0.452914	-0.383070
H105	H	0.878278	-0.431802	-0.437749
H106	H	0.913389	-0.371499	-0.304073
O107	O	0.966079	-0.226823	-0.251410
C108	C	0.910836	-0.191801	-0.306655
H109	H	0.909748	-0.153721	-0.268851
H110	H	0.837209	-0.207233	-0.320545
H111	H	0.940880	-0.186131	-0.375239
O112	O	1.275689	-0.527582	0.058036
C113	C	1.330957	-0.562610	0.113242
H114	H	1.293141	-0.600686	0.114360
H115	H	1.344909	-0.547179	0.186865
H116	H	1.399510	-0.568291	0.083144
O117	O	1.275528	-0.632824	0.058046
C118	C	1.226038	-0.663729	0.115029
H119	H	1.153313	-0.647629	0.116745
H120	H	1.263540	-0.664336	0.188251
H121	H	1.221243	-0.704210	0.086171
O122	O	0.903504	-0.632758	-0.313924
C123	C	0.848263	-0.597732	-0.369162
H124	H	0.847173	-0.559655	-0.331349
H125	H	0.774635	-0.613164	-0.383058
H126	H	0.878308	-0.592056	-0.437744
H127	H	1.203250	-0.874328	-0.014446
O128	O	0.903721	-0.527494	-0.313948
C129	C	0.953202	-0.496613	-0.370977
H130	H	1.025298	-0.488598	-0.334400
H131	H	0.914727	-0.459058	-0.385505
H132	H	0.959591	-0.517211	-0.439139
