data_functionalizedCrystal
_audit_creation_method	'MofGen! by Chris Wilmer'
_symmetry_space_group_name_H-M	'P1'
_symmetry_Int_Tables_number	1
_symmetry_cell_setting	triclinic
loop_
_symmetry_equiv_pos_as_xyz
  x,y,z
_cell_length_a	12.759401
_cell_length_b	16.120484
_cell_length_c	12.759393
_cell_angle_alpha	87.137118
_cell_angle_beta	90.018496
_cell_angle_gamma	92.925560
loop_
_atom_site_label
_atom_site_type_symbol
_atom_site_fract_x
_atom_site_fract_y
_atom_site_fract_z
Zn1	Zn	1.584972	-0.331853	0.615146
Zn2	Zn	1.575923	-0.471291	0.448359
Zn3	Zn	1.409271	-0.331897	0.439488
Zn4	Zn	1.400324	-0.471227	0.623996
O5	O	1.492622	-0.401567	0.531747
O6	O	1.730792	-0.350358	0.593030
O7	O	1.553774	-0.452845	0.300164
O8	O	1.440109	-0.215226	0.455373
O9	O	1.724144	-0.452803	0.470492
O10	O	1.569196	-0.215194	0.584428
O11	O	1.431335	-0.350433	0.293646
O12	O	1.261064	-0.350370	0.463955
O13	O	1.424860	-0.452693	0.769840
O14	O	1.254490	-0.452736	0.599512
O15	O	1.560520	-0.350296	0.763338
O16	O	1.545098	-0.587947	0.479074
O17	O	1.416086	-0.587900	0.608114
C18	C	1.219656	-0.401551	0.531732
C19	C	1.102879	-0.401565	0.531752
C20	C	1.044616	-0.454952	0.602231
C21	C	0.934891	-0.454962	0.602243
C22	C	0.941702	-0.348197	0.461287
C23	C	1.051425	-0.348183	0.461281
C24	C	1.096069	-0.508334	0.672701
C25	C	1.037806	-0.561726	0.743185
C26	C	0.928081	-0.561736	0.743197
C27	C	0.876620	-0.508355	0.672725
C28	C	1.478668	-0.618174	0.545540
C29	C	1.472794	-0.710839	0.551475
C30	C	1.462076	-0.880500	0.562334
C31	C	1.523357	-0.921793	0.501178
C32	C	1.517393	-1.016198	0.507219
C33	C	1.468038	-0.786086	0.556293
C34	C	1.766655	-0.401583	0.531763
C35	C	1.883431	-0.401590	0.531770
C36	C	1.492701	-0.401483	0.805775
C37	C	1.492735	-0.401447	0.922550
C38	C	1.506660	-0.184114	0.517924
C39	C	1.512642	-0.091448	0.512033
C40	C	1.492608	-0.401590	0.258781
C41	C	1.492793	-0.401391	0.141992
C42	C	1.563383	-0.348123	0.974027
C43	C	1.563410	-0.348093	1.083750
C44	C	1.422138	-0.454717	1.090507
C45	C	1.422106	-0.454742	0.980787
C46	C	1.634011	-0.294828	0.915790
C47	C	1.704666	-0.241501	0.967268
C48	C	1.704693	-0.241471	1.076990
C49	C	1.634065	-0.294768	1.135235
H50	H	1.098864	-0.304704	0.403898
H51	H	1.405137	-0.916046	0.619223
H52	H	1.634081	-0.294729	1.224577
O53	O	0.770026	-0.508469	0.672875
C54	C	0.608838	-0.566971	0.750344
C55	C	0.729543	-0.566952	0.750254
H56	H	0.576072	-0.614237	0.812914
H57	H	0.577801	-0.584236	0.670095
H58	H	0.583283	-0.502401	0.768137
H59	H	0.755189	-0.631503	0.732505
H60	H	0.760512	-0.549640	0.830511
H61	H	0.880647	-0.605204	0.800595
O62	O	1.353643	-0.506465	1.147244
C63	C	1.291051	-0.553651	1.319270
C64	C	1.368690	-0.495013	1.255147
H65	H	1.303174	-0.544400	1.406520
H66	H	1.305157	-0.620899	1.302041
H67	H	1.207283	-0.539022	1.296705
H68	H	1.452487	-0.509567	1.277674
H69	H	1.354492	-0.427782	1.272382
O70	O	1.591136	-0.879355	0.433179
C71	C	1.611419	-0.780968	0.285205
C72	C	1.534550	-0.828995	0.362130
H73	H	1.565702	-0.740227	0.227757
H74	H	1.656600	-0.826915	0.240027
H75	H	1.668881	-0.740161	0.330940
H76	H	1.477025	-0.869803	0.316476
H77	H	1.489446	-0.783003	0.407308
H78	H	1.079714	-0.605181	0.800566
H79	H	1.762216	-0.198044	1.118900
O80	O	1.773225	-0.189805	0.910537
C81	C	1.835743	-0.142551	0.738510
C82	C	1.758063	-0.201157	0.802627
H83	H	1.823498	-0.151696	0.651252
H84	H	1.919544	-0.157190	0.760940
H85	H	1.821647	-0.075330	0.755878
H86	H	1.772064	-0.268398	0.785292
H87	H	1.674290	-0.186447	0.780187
H88	H	1.634000	-0.294848	0.826449
O89	O	0.891547	-0.296433	0.392864
C90	C	0.725530	-0.249118	0.330434
C91	C	0.782194	-0.307792	0.407969
H92	H	0.637110	-0.258269	0.342634
H93	H	0.746062	-0.263684	0.246593
H94	H	0.751485	-0.181914	0.344723
H95	H	0.756270	-0.375015	0.393776
H96	H	0.761662	-0.293155	0.491784
O97	O	1.353606	-0.506669	0.930819
C98	C	1.293449	-0.648492	0.906264
C99	C	1.371094	-0.589778	0.962912
H100	H	1.307546	-0.715696	0.932206
H101	H	1.305575	-0.639420	0.817835
H102	H	1.209683	-0.633815	0.926868
H103	H	1.454891	-0.604418	0.942393
H104	H	1.358876	-0.598860	1.051326
H105	H	1.185412	-0.508333	0.672697
