data_functionalizedCrystal
_audit_creation_method	'MofGen! by Chris Wilmer'
_symmetry_space_group_name_H-M	'P1'
_symmetry_Int_Tables_number	1
_symmetry_cell_setting	triclinic
loop_
_symmetry_equiv_pos_as_xyz
  x,y,z
_cell_length_a	20.875641
_cell_length_b	14.560438
_cell_length_c	20.875641
_cell_angle_alpha	90.001244
_cell_angle_beta	60.089808
_cell_angle_gamma	62.439409
loop_
_atom_site_label
_atom_site_type_symbol
_atom_site_fract_x
_atom_site_fract_y
_atom_site_fract_z
Zr1	Zr	0.694339	0.926807	-0.105769
O2	O	0.820581	0.792214	-0.209033
O3	O	0.563084	0.963031	-0.070837
O4	O	0.687107	0.976556	-0.204309
O5	O	0.704011	0.773748	0.025998
O6	O	0.687106	1.127697	-0.204309
O7	O	0.696558	0.778689	-0.075561
O8	O	0.465251	1.103502	0.034448
O9	O	0.925866	0.797943	-0.212759
O10	O	0.618927	1.097358	-0.059896
O11	O	0.624491	0.980877	0.015896
O12	O	0.770512	0.996801	-0.141250
O13	O	0.776075	0.880320	-0.065458
Zr14	Zr	0.706225	1.159978	0.056207
Zr15	Zr	0.694337	1.167858	-0.105768
Zr16	Zr	0.706227	0.918927	0.056207
Zr17	Zr	0.862257	0.935943	-0.111711
Zr18	Zr	0.538307	1.150842	0.062150
O19	O	0.837480	1.123754	0.021275
O20	O	0.820578	1.134959	-0.209032
O21	O	0.837483	0.781010	0.021275
O22	O	0.579983	1.294571	0.159472
O23	O	0.563081	1.305775	-0.070836
O24	O	0.579986	0.951827	0.159471
O25	O	0.696553	1.313037	-0.075560
O26	O	0.713457	1.110229	0.154748
O27	O	0.713458	0.959089	0.154747
O28	O	0.704007	1.308096	0.025999
O29	O	0.925864	0.989547	-0.212759
O30	O	0.474700	1.097238	0.163197
O31	O	0.474698	1.288842	0.163197
O32	O	0.465249	1.295106	0.034449
O33	O	0.935315	0.791679	-0.084010
O34	O	0.935313	0.983283	-0.084010
O35	O	0.630052	1.089984	0.091689
O36	O	0.624489	1.206465	0.015896
O37	O	0.776074	1.105908	-0.065458
O38	O	0.781637	0.989427	0.010335
C39	C	0.490243	1.031965	-0.017348
C40	C	0.418957	1.028086	-0.014825
C41	C	0.700285	0.741874	-0.024781
C42	C	0.700285	0.639541	-0.024782
C43	C	0.382563	1.087063	-0.053202
C44	C	0.315579	1.083421	-0.050825
C45	C	0.284994	1.020795	-0.010073
C46	C	0.321391	0.961817	0.028309
C47	C	0.388370	0.965465	0.025935
C48	C	0.084983	1.003369	0.001272
C49	C	0.018001	0.999722	0.003641
C50	C	0.012192	1.121329	-0.075492
C51	C	0.079176	1.124967	-0.077866
C52	C	0.115564	1.065992	-0.039480
N53	N	0.216527	1.017069	-0.007644
N54	N	0.184026	1.069726	-0.041905
C55	C	0.696172	0.498040	-0.080730
C56	C	0.696178	0.594188	-0.080733
C57	C	0.704396	0.588737	0.031171
C58	C	0.704395	0.492587	0.031170
C59	C	0.692055	0.452697	-0.136680
C60	C	0.687946	0.503494	-0.192634
C61	C	0.687953	0.599642	-0.192637
C62	C	0.692068	0.644992	-0.136686
C63	C	0.910321	1.054821	-0.032214
C64	C	0.981607	1.058699	-0.034737
C65	C	0.685413	1.053249	-0.227387
C66	C	0.680366	1.056594	-0.296150
C67	C	0.700280	1.344911	-0.024780
C68	C	0.700279	1.447244	-0.024780
C69	C	0.757119	1.005678	-0.370920
C70	C	0.752372	1.008835	-0.435527
C71	C	0.670872	1.062903	-0.425362
C72	C	0.594113	1.113826	-0.350584
C73	C	0.598861	1.110675	-0.285978
C74	C	0.648187	1.077963	-0.614028
C75	C	0.643445	1.081107	-0.678641
C76	C	0.801705	0.976118	-0.763581
C77	C	0.806445	0.972966	-0.698970
C78	C	0.729687	1.023894	-0.624198
N79	N	0.666017	1.066129	-0.491400
N80	N	0.734542	1.020674	-0.558162
C81	C	0.715151	1.033536	0.177825
C82	C	0.720198	1.030191	0.246588
C83	C	0.490240	1.333483	-0.017347
C84	C	0.418954	1.431937	-0.014824
C85	C	0.505112	1.022108	0.185259
C86	C	0.438873	1.014884	0.256544
C87	C	0.505110	1.323627	0.185259
C88	C	0.438870	1.418736	0.256545
C89	C	0.895455	0.763158	-0.234821
C90	C	0.961694	0.668050	-0.306106
C91	C	0.910324	0.753302	-0.032215
C92	C	0.981610	0.654848	-0.034738
C93	C	0.895452	1.064677	-0.234820
C94	C	0.961691	1.071901	-0.306106
C95	C	0.382574	1.421220	-0.053209
C96	C	0.315601	1.513720	-0.050854
C97	C	0.285005	1.616936	-0.010109
C98	C	0.321392	1.627652	0.028277
C99	C	0.388368	1.535153	0.025917
C100	C	0.410670	1.068444	0.329590
C101	C	0.348442	1.061653	0.396576
C102	C	0.314412	1.001307	0.390515
C103	C	0.342621	0.947740	0.317461
C104	C	0.404854	0.954526	0.250476
C105	C	0.404859	1.524212	0.250459
C106	C	0.342629	1.613587	0.317433
C107	C	0.314406	1.597483	0.390492
C108	C	0.348423	1.491996	0.396577
C109	C	0.410657	1.402623	0.329603
C110	C	0.995713	0.562574	-0.300020
C111	C	1.057965	0.473200	-0.366995
C112	C	1.086191	0.489304	-0.440055
C113	C	1.052169	0.594791	-0.446139
C114	C	0.989924	0.684163	-0.379165
C115	C	1.017997	0.665566	0.003640
C116	C	1.084987	0.573068	0.001267
C117	C	1.115585	0.469852	-0.039481
C118	C	1.079195	0.459136	-0.077863
C119	C	1.012210	0.551634	-0.075494
C120	C	0.995701	1.132256	-0.300019
C121	C	1.057931	1.139064	-0.366993
C122	C	1.086154	1.085511	-0.440052
C123	C	1.052138	1.025154	-0.446137
C124	C	0.989905	1.018352	-0.379164
H125	H	0.407465	1.138054	-0.086390
Cl126	Cl	1.164395	1.094069	-0.524241
H127	H	0.407483	1.337185	-0.086398
H128	H	0.692081	0.723277	-0.136697
Cl129	Cl	0.312932	1.471769	0.488429
Cl130	Cl	1.117667	0.329370	-0.129082
H131	H	0.684603	0.466560	-0.238191
H132	H	0.285946	1.131446	-0.082074
Cl133	Cl	0.269867	1.500224	-0.099111
Cl134	Cl	0.434090	1.548645	0.074184
H135	H	1.075128	0.981553	-0.505631
Cl136	Cl	0.312989	1.129005	0.488406
Cl137	Cl	0.709564	0.645752	0.101507
H138	H	0.972731	1.175867	-0.240536
Cl139	Cl	1.100687	1.214939	-0.359325
H140	H	1.075159	0.607891	-0.505632
H141	H	0.707741	0.451227	0.076729
H142	H	0.230468	1.692245	-0.008192
Cl143	Cl	-0.020445	0.920983	0.054872
H144	H	0.296472	1.711702	0.061451
Cl145	Cl	0.117626	1.203692	-0.129103
H146	H	0.438371	1.117584	0.334541
H147	H	0.263740	0.995790	0.445064
H148	H	-0.017442	1.169344	-0.106743
H149	H	0.962221	0.969200	-0.384131
Cl150	Cl	0.299831	0.871884	0.309854
Cl151	Cl	0.898195	0.912101	-0.857581
H152	H	0.114599	0.955352	0.032532
Cl153	Cl	0.859582	0.937702	-0.383709
Cl154	Cl	0.979550	0.795312	0.054867
Cl155	Cl	0.491654	1.181799	-0.337804
Cl156	Cl	0.440295	0.887192	0.158650
Cl157	Cl	0.299872	1.746187	0.309766
Cl158	Cl	0.282930	0.883103	0.079552
H159	H	0.814872	0.967376	-0.496407
Cl160	Cl	0.440332	1.544486	0.158620
H161	H	0.263730	1.670265	0.445020
H162	H	0.972735	0.549440	-0.240538
H163	H	1.170128	0.394543	-0.041404
Cl164	Cl	0.434121	0.891322	0.074186
H165	H	0.577074	1.125135	-0.670356
H166	H	0.692047	0.374411	-0.136681
H167	H	1.085655	0.387316	-0.362026
H168	H	0.872812	0.928942	-0.707256
Cl169	Cl	0.453401	1.270027	0.337269
H170	H	1.136875	0.416522	-0.494583
Cl171	Cl	0.947158	0.816758	-0.386830
Cl172	Cl	0.966469	0.538140	-0.123740
H173	H	0.684616	0.640994	-0.238201
Cl174	Cl	0.551690	1.141938	-0.520036
Cl175	Cl	1.130717	0.586564	0.049528
H176	H	0.536361	1.152136	-0.225096
