data_functionalizedCrystal
_audit_creation_method	'MofGen! by Chris Wilmer'
_symmetry_space_group_name_H-M	'P1'
_symmetry_Int_Tables_number	1
_symmetry_cell_setting	triclinic
loop_
_symmetry_equiv_pos_as_xyz
  x,y,z
_cell_length_a	11.169416
_cell_length_b	12.759395
_cell_length_c	11.169409
_cell_angle_alpha	89.980294
_cell_angle_beta	89.969126
_cell_angle_gamma	90.010185
loop_
_atom_site_label
_atom_site_type_symbol
_atom_site_fract_x
_atom_site_fract_y
_atom_site_fract_z
Zn1	Zn	-0.477715	1.606303	-0.678551
Zn2	Zn	0.022285	2.106303	-0.178551
Zn3	Zn	-0.678455	1.606207	-0.477873
Zn4	Zn	-0.178455	2.106207	0.022127
Zn5	Zn	-0.477784	1.430601	-0.477886
Zn6	Zn	0.022216	1.930601	0.022114
Zn7	Zn	-0.678354	1.430607	-0.678518
Zn8	Zn	-0.178354	1.930607	-0.178518
O9	O	-0.578077	1.518429	-0.578207
O10	O	-0.078077	2.018429	-0.078207
O11	O	-0.504357	1.753312	-0.651939
O12	O	-0.004357	2.253312	-0.151939
O13	O	-0.651907	1.582869	-0.309925
O14	O	-0.151907	2.082869	0.190075
O15	O	-0.309826	1.453946	-0.504524
O16	O	0.190174	1.953946	-0.004524
O17	O	-0.651840	1.753240	-0.504502
O18	O	-0.151840	2.253240	-0.004502
O19	O	-0.309774	1.583034	-0.651951
O20	O	0.190226	2.083034	-0.151951
O21	O	-0.504475	1.453852	-0.309934
O22	O	-0.004475	1.953852	0.190066
O23	O	-0.504377	1.283580	-0.504492
O24	O	-0.004377	1.783580	-0.004492
O25	O	-0.651667	1.453957	-0.846473
O26	O	-0.151667	1.953957	-0.346473
O27	O	-0.651735	1.283585	-0.651896
O28	O	-0.151735	1.783585	-0.151896
O29	O	-0.504259	1.583040	-0.846497
O30	O	-0.004259	2.083040	-0.346497
O31	O	-0.846392	1.582875	-0.504470
O32	O	-0.346392	2.082875	-0.004470
O33	O	-0.846317	1.453863	-0.651883
O34	O	-0.346317	1.953863	-0.151883
C35	C	-0.578053	1.245462	-0.578192
C36	C	-0.078053	1.745462	-0.078192
C37	C	-0.578072	1.128685	-0.578215
C38	C	-0.078072	1.628685	-0.078215
C39	C	-0.424746	1.128740	-0.731989
C40	C	0.075254	1.628740	-0.231989
C41	C	-0.348098	1.073907	-0.808886
C42	C	0.151902	1.573907	-0.308886
C43	C	-0.348119	0.964185	-0.808901
C44	C	0.151881	1.464185	-0.308901
C45	C	-0.424794	0.909294	-0.732008
C46	C	0.075206	1.409294	-0.232008
C47	C	-0.501443	0.964128	-0.655111
C48	C	-0.001443	1.464128	-0.155111
C49	C	-0.501416	1.073852	-0.655107
C50	C	-0.001416	1.573852	-0.155107
C51	C	-0.654761	0.964073	-0.501333
C52	C	-0.154761	1.464073	-0.001333
C53	C	-0.654748	1.073795	-0.501322
C54	C	-0.154748	1.573795	-0.001322
C55	C	-0.731437	0.909182	-0.424440
C56	C	-0.231437	1.409182	0.075560
C57	C	-0.808093	0.964016	-0.347547
C58	C	-0.308093	1.464016	0.152453
C59	C	-0.808069	1.073744	-0.347536
C60	C	-0.308069	1.573744	0.152464
C61	C	-0.731396	1.128628	-0.424425
C62	C	-0.231396	1.628628	0.075575
C63	C	-0.889902	1.518388	-0.578198
C64	C	-0.389902	2.018388	-0.078198
C65	C	-1.023302	1.518466	-0.578234
C66	C	-0.523302	2.018466	-0.078234
C67	C	-0.265035	1.518500	-0.578243
C68	C	0.234965	2.018500	-0.078243
C69	C	-0.131635	1.518530	-0.578258
C70	C	0.368365	2.018530	-0.078258
C71	C	-0.577944	1.518510	-0.891250
C72	C	-0.077944	2.018510	-0.391250
C73	C	-0.577887	1.518544	-1.024650
C74	C	-0.077887	2.018544	-0.524650
C75	C	-0.578102	1.792463	-0.578223
C76	C	-0.078102	2.292463	-0.078223
C77	C	-0.578113	1.909240	-0.578229
C78	C	-0.078113	2.409240	-0.078229
C79	C	-0.578123	1.518410	-0.266382
C80	C	-0.078123	2.018410	0.233618
C81	C	-0.577842	1.518579	-0.132983
C82	C	-0.077842	2.018579	0.367017
H83	H	-0.424795	0.819953	-0.732017
H84	H	0.075205	1.319953	-0.232017
H85	H	-0.285698	0.919540	-0.871510
H86	H	0.214302	1.419540	-0.371510
C87	C	-0.424732	1.249431	-0.731989
C88	C	0.075268	1.749431	-0.231989
H89	H	-0.368090	1.274268	-0.788791
H90	H	0.131910	1.774268	-0.288791
H91	H	-0.502205	1.274253	-0.752601
H92	H	-0.002205	1.774253	-0.252601
H93	H	-0.403868	1.274230	-0.654572
H94	H	0.096132	1.774230	-0.154572
H95	H	-0.731445	0.819841	-0.424454
H96	H	-0.231445	1.319841	0.075546
H97	H	-0.731364	1.217969	-0.424418
H98	H	-0.231364	1.717969	0.075582
H99	H	-0.870511	0.919315	-0.284942
H100	H	-0.370511	1.419315	0.215058
H101	H	-0.870482	1.118383	-0.284913
H102	H	-0.370482	1.618383	0.215087
H103	H	-0.285668	1.118611	-0.871488
H104	H	0.214332	1.618611	-0.371488
