data_functionalizedCrystal
_audit_creation_method	'MofGen! by Chris Wilmer'
_symmetry_space_group_name_H-M	'P1'
_symmetry_Int_Tables_number	1
_symmetry_cell_setting	triclinic
loop_
_symmetry_equiv_pos_as_xyz
  x,y,z
_cell_length_a	16.109318
_cell_length_b	16.109301
_cell_length_c	15.186229
_cell_angle_alpha	89.996245
_cell_angle_beta	90.000224
_cell_angle_gamma	83.465073
loop_
_atom_site_label
_atom_site_type_symbol
_atom_site_fract_x
_atom_site_fract_y
_atom_site_fract_z
O1	O	1.103122	0.106935	-0.073155
O2	O	0.861062	0.120219	-0.073173
O3	O	0.988741	-0.007454	-0.073158
O4	O	0.975442	0.234607	-0.073171
O5	O	0.988733	-0.007456	0.073299
O6	O	0.861053	0.120217	0.073284
O7	O	1.103113	0.106933	0.073302
Zn8	Zn	0.982082	0.113575	0.096546
Zn9	Zn	0.982093	0.113577	-0.096418
O10	O	0.975434	0.234606	0.073287
C11	C	0.830083	0.119677	0.000053
C12	C	0.737788	0.118057	0.000047
C13	C	0.438719	0.112823	-0.079772
C14	C	0.525440	0.114340	-0.079777
C15	C	0.525450	0.114327	0.079899
C16	C	0.438731	0.112803	0.079903
C17	C	0.395367	0.112056	0.000066
C18	C	0.568808	0.115096	0.000056
C19	C	0.662835	0.116742	0.000050
C20	C	0.301335	0.110409	0.000071
C21	C	0.988198	-0.038430	0.000070
C22	C	0.986583	-0.130725	0.000069
C23	C	1.134092	0.107474	0.000074
C24	C	1.226387	0.109095	0.000075
C25	C	1.057066	-0.439719	0.000059
C26	C	1.058591	-0.352999	0.000064
C27	C	0.907103	-0.333135	0.000065
C28	C	0.905579	-0.419854	0.000066
C29	C	0.980563	-0.473144	0.000058
C30	C	0.983612	-0.299705	0.000063
C31	C	0.985266	-0.205678	0.000068
C32	C	0.978909	-0.567176	0.000055
C33	C	0.975977	0.265581	0.000057
C34	C	0.977592	0.357877	0.000052
N35	N	0.982080	0.113573	0.228239
N36	N	0.982101	0.113573	-0.228110
C37	C	1.038636	0.057058	0.453969
C38	C	1.038639	0.057056	0.546158
C39	C	0.925540	0.170090	0.546154
C40	C	0.925534	0.170087	0.453966
C41	C	0.982086	0.113572	0.407876
C42	C	0.982095	0.113573	0.592253
C43	C	0.982097	0.113571	0.692209
C44	C	0.982083	0.113573	0.307913
H45	H	0.560734	0.114963	-0.144788
C46	C	0.391551	0.111871	-0.166385
C47	C	0.351119	0.039523	-0.171039
C48	C	0.307655	0.038620	-0.250812
H49	H	0.429704	0.112499	-0.214007
H50	H	0.351325	0.159705	-0.169712
H51	H	0.391341	-0.008300	-0.167721
H52	H	0.312952	0.038879	-0.123436
H53	H	0.267428	0.086455	-0.254139
H54	H	0.345814	0.039251	-0.298427
H55	H	0.280211	-0.010463	-0.253976
C56	C	0.825633	-0.275372	-0.000077
C57	C	0.779560	-0.290488	-0.075416
C58	C	0.704499	-0.237302	-0.075574
H59	H	0.837380	-0.218910	-0.000126
H60	H	0.794214	-0.285514	0.050969
H61	H	0.810973	-0.280340	-0.126448
H62	H	0.767791	-0.346940	-0.075382
H63	H	0.673080	-0.247444	-0.024528
H64	H	0.716254	-0.180843	-0.075621
H65	H	0.673226	-0.247557	-0.126686
H66	H	0.843277	-0.447067	0.000069
H67	H	0.560767	0.114937	0.144900
H68	H	0.879496	0.216104	0.583690
C69	C	0.391801	0.112016	0.166681
C70	C	0.448332	0.113026	0.236599
C71	C	0.405129	0.112309	0.316547
H72	H	0.364321	0.062980	0.170124
H73	H	0.351633	0.159894	0.170049
H74	H	0.488484	0.065152	0.233233
H75	H	0.475814	0.162058	0.233186
H76	H	0.364961	0.160187	0.319914
H77	H	0.377650	0.063272	0.319980
H78	H	0.443477	0.113002	0.363995
H79	H	1.084685	0.011036	0.583685
C80	C	1.138563	-0.497439	0.000104
C81	C	1.205887	-0.449601	0.000129
C82	C	1.280978	-0.502741	0.000185
H83	H	1.141238	-0.531697	-0.050955
H84	H	1.141163	-0.531672	0.051197
H85	H	1.203289	-0.415383	-0.050959
H86	H	1.203240	-0.415345	0.051184
H87	H	1.283577	-0.536974	0.051278
H88	H	1.283644	-0.536997	-0.050875
H89	H	1.326665	-0.470291	0.000210
C90	C	1.141593	-0.316595	-0.000077
C91	C	1.146882	-0.267366	-0.075414
C92	C	1.223330	-0.233810	-0.075567
H93	H	1.186100	-0.360669	-0.000127
H94	H	1.145349	-0.283137	0.050970
H95	H	1.143135	-0.300823	-0.126448
H96	H	1.102393	-0.223279	-0.075380
H97	H	1.227085	-0.200352	-0.024520
H98	H	1.267831	-0.277889	-0.075614
H99	H	1.226925	-0.200399	-0.126677
C100	C	0.864096	0.231543	0.404074
C101	C	0.814591	0.281057	0.464167
C102	C	0.757994	0.337681	0.418239
H103	H	0.829418	0.201717	0.368115
H104	H	0.893970	0.266207	0.368123
H105	H	0.784719	0.246398	0.500102
H106	H	0.849246	0.310901	0.500128
H107	H	0.787868	0.372344	0.382288
H108	H	0.723322	0.307847	0.382281
H109	H	0.724403	0.371287	0.459005
H110	H	1.084684	0.011039	0.416444
