data_functionalizedCrystal
_audit_creation_method	'MofGen! by Chris Wilmer'
_symmetry_space_group_name_H-M	'P1'
_symmetry_Int_Tables_number	1
_symmetry_cell_setting	triclinic
loop_
_symmetry_equiv_pos_as_xyz
  x,y,z
_cell_length_a	6.394989
_cell_length_b	10.654550
_cell_length_c	9.130313
_cell_angle_alpha	90.003780
_cell_angle_beta	89.998359
_cell_angle_gamma	85.491307
loop_
_atom_site_label
_atom_site_type_symbol
_atom_site_fract_x
_atom_site_fract_y
_atom_site_fract_z
O1	O	-0.293432	-1.670942	-0.121910
O2	O	-0.321389	-1.305759	-0.121885
O3	O	-0.003422	-1.493534	-0.121899
O4	O	-0.611400	-1.483167	-0.121896
O5	O	-0.003430	-1.493532	0.121700
O6	O	-0.321398	-1.305757	0.121713
O7	O	-0.293441	-1.670940	0.121689
Cu8	Cu	-0.307420	-1.488348	0.143944
Cu9	Cu	-0.307410	-1.488351	-0.144140
O10	O	-0.611408	-1.483165	0.121703
C11	C	-0.319341	-1.258939	-0.000083
C12	C	-0.313199	-1.119430	-0.000074
N13	N	-0.307426	-1.488355	0.346566
C14	C	-0.295489	-1.717760	-0.000117
C15	C	-0.301631	-1.857269	-0.000135
C16	C	0.074425	-1.491483	-0.000105
C17	C	0.310751	-1.485219	-0.000106
C18	C	-0.500414	-1.041927	-0.000094
C19	C	-0.494630	-0.910845	-0.000120
C20	C	-0.114402	-0.934782	-0.000110
C21	C	-0.120188	-1.065861	-0.000074
C22	C	-0.719936	-1.028107	-0.000106
C23	C	-0.714152	-0.897025	-0.000132
N24	N	-0.307388	-1.488353	-0.346763
C25	C	-0.166678	-1.571524	0.423212
C26	C	-0.166653	-1.571521	0.576549
C27	C	-0.448142	-1.405175	0.576581
C28	C	-0.448155	-1.405174	0.423247
C29	C	-0.004169	-1.667567	0.423195
C30	C	-0.004143	-1.667563	0.576532
H31	H	0.032261	-1.128960	-0.000037
H32	H	-0.562745	-1.337440	0.360843
H33	H	0.156415	-1.644423	0.381576
H34	H	-0.055053	-1.759289	0.375631
O35	O	0.177081	-1.629313	0.633029
C36	C	0.517483	-1.557279	0.582120
C37	C	0.312369	-1.600580	0.517940
H38	H	0.626902	-1.534011	0.489101
H39	H	0.596682	-1.635743	0.652315
H40	H	0.480642	-1.469933	0.652475
H41	H	0.349029	-1.687899	0.447519
H42	H	0.233228	-1.522040	0.447828
H43	H	-0.562719	-1.337450	0.639030
H44	H	-0.039940	-1.764454	0.618143
H45	H	-0.789831	-1.064504	-0.105278
H46	H	0.042742	-0.891149	-0.000133
O47	O	-0.822329	-1.063985	0.121625
C48	C	-1.003327	-0.997645	0.343292
C49	C	-0.887377	-0.956843	0.205515
H50	H	-1.055990	-0.911041	0.411140
H51	H	-0.893650	-1.063948	0.411386
H52	H	-1.146320	-1.048160	0.309287
H53	H	-0.744388	-0.906276	0.239389
H54	H	-0.997196	-0.890599	0.137454
H55	H	-0.780498	-0.852055	0.105037
H56	H	-0.796861	-0.856169	-0.102085
