data_functionalizedCrystal
_audit_creation_method	'MofGen! by Chris Wilmer'
_symmetry_space_group_name_H-M	'P1'
_symmetry_Int_Tables_number	1
_symmetry_cell_setting	triclinic
loop_
_symmetry_equiv_pos_as_xyz
  x,y,z
_cell_length_a	12.759401
_cell_length_b	29.839131
_cell_length_c	29.839125
_cell_angle_alpha	89.982291
_cell_angle_beta	89.989553
_cell_angle_gamma	90.042945
loop_
_atom_site_label
_atom_site_type_symbol
_atom_site_fract_x
_atom_site_fract_y
_atom_site_fract_z
Zn1	Zn	1.605962	-0.178898	-0.253987
Zn2	Zn	1.605804	-0.254010	-0.178857
Zn3	Zn	1.430293	-0.178897	-0.178871
Zn4	Zn	1.430171	-0.254004	-0.253960
O5	O	1.518058	-0.216452	-0.216419
O6	O	1.752962	-0.188865	-0.244026
O7	O	1.582507	-0.244048	-0.115992
O8	O	1.453714	-0.116030	-0.188853
O9	O	1.752846	-0.244049	-0.188828
O10	O	1.582777	-0.116031	-0.244040
O11	O	1.453560	-0.188863	-0.116002
O12	O	1.283256	-0.188857	-0.188827
O13	O	1.453505	-0.244039	-0.316831
O14	O	1.283166	-0.244038	-0.243995
O15	O	1.582659	-0.188859	-0.316850
O16	O	1.582388	-0.316876	-0.188802
O17	O	1.453352	-0.316872	-0.243980
C18	C	1.245090	-0.216447	-0.216410
C19	C	1.128314	-0.216455	-0.216417
C20	C	1.517868	-0.333175	-0.216397
C21	C	1.517883	-0.383109	-0.216402
C22	C	1.073432	-0.245231	-0.245097
C23	C	0.963708	-0.245233	-0.245106
C24	C	0.963756	-0.187681	-0.187750
C25	C	1.073479	-0.187677	-0.187744
C26	C	1.585369	-0.692742	-0.187730
C27	C	1.585499	-0.880415	-0.187747
O28	O	1.642728	-0.904672	-0.163351
N29	N	1.518276	-0.903894	-0.216453
C30	C	1.451020	-0.880452	-0.245158
O31	O	1.393853	-0.904728	-0.269578
C32	C	1.450896	-0.692780	-0.245143
C33	C	1.518116	-0.669303	-0.216432
C34	C	1.652585	-0.669266	-0.159021
C35	C	1.652548	-0.622350	-0.159016
C36	C	1.585295	-0.598911	-0.187718
C37	C	1.518079	-0.622388	-0.216426
C38	C	1.383647	-0.669338	-0.273850
C39	C	1.383624	-0.622417	-0.273845
C40	C	1.450844	-0.598941	-0.245134
C41	C	1.450789	-0.552033	-0.245123
N42	N	1.518013	-0.528555	-0.216417
C43	C	1.585265	-0.551994	-0.187715
C44	C	1.451088	-0.978983	-0.245164
C45	C	1.451117	-1.025900	-0.245167
C46	C	1.585598	-1.025861	-0.187756
C47	C	1.585563	-0.978942	-0.187751
C48	C	1.518311	-0.955504	-0.216458
C49	C	1.585182	-0.453468	-0.187704
C50	C	1.585136	-0.406548	-0.187700
C51	C	1.450659	-0.406592	-0.245112
C52	C	1.450701	-0.453508	-0.245115
C53	C	1.517971	-0.476944	-0.216410
O54	O	1.393599	-0.527748	-0.269509
O55	O	1.642440	-0.527709	-0.163306
C56	C	1.585406	-0.739658	-0.187735
C57	C	1.518191	-0.763134	-0.216443
C58	C	1.450938	-0.739695	-0.245146
C59	C	1.518220	-0.810052	-0.216447
C60	C	1.585473	-0.833491	-0.187745
C61	C	1.652696	-0.810012	-0.159039
C62	C	1.652659	-0.763097	-0.159033
C63	C	1.383715	-0.763174	-0.273852
C64	C	1.383757	-0.810090	-0.273855
C65	C	1.451009	-0.833529	-0.245152
C66	C	1.792091	-0.216458	-0.216428
C67	C	1.908868	-0.216461	-0.216432
C68	C	1.518086	-0.216448	-0.333597
C69	C	1.518098	-0.216446	-0.383532
C70	C	1.518277	-0.099274	-0.216451
C71	C	1.518370	-0.049339	-0.216465
C72	C	1.585419	-0.187639	-0.693188
C73	C	1.585471	-0.187601	-0.880861
O74	O	1.642631	-0.163150	-0.905137
N75	N	1.518238	-0.216326	-0.904317
C76	C	1.450981	-0.245061	-0.880851
O77	O	1.393789	-0.269490	-0.905108
C78	C	1.450925	-0.245097	-0.693179
C79	C	1.518170	-0.216373	-0.669726
C80	C	1.652658	-0.158917	-0.669735
C81	C	1.652648	-0.158929	-0.622820
C82	C	1.585400	-0.187662	-0.599357
C83	C	1.518160	-0.216384	-0.622810
C84	C	1.383664	-0.273829	-0.669714
C85	C	1.383654	-0.273835	-0.622793
C86	C	1.450899	-0.245111	-0.599340
C87	C	1.450902	-0.245130	-0.552433
N88	N	1.518136	-0.216404	-0.528977
C89	C	1.585384	-0.187671	-0.552440
C90	C	1.451017	-0.245041	-0.979382
C91	C	1.451033	-0.245033	-1.026300
C92	C	1.585521	-0.187572	-1.026307
C93	C	1.585510	-0.187582	-0.979388
C94	C	1.518251	-0.216316	-0.955926
C95	C	1.585360	-0.187697	-0.453914
C96	C	1.585347	-0.187713	-0.406994
C97	C	1.450855	-0.245172	-0.406991
C98	C	1.450871	-0.245158	-0.453907
C99	C	1.518127	-0.216417	-0.477367
O100	O	1.393763	-0.269564	-0.528128
O101	O	1.642552	-0.163239	-0.528175
C102	C	1.585429	-0.187627	-0.740104
C103	C	1.518190	-0.216350	-0.763557
C104	C	1.450941	-0.245083	-0.740095
C105	C	1.518205	-0.216341	-0.810475
C106	C	1.585454	-0.187608	-0.833937
C107	C	1.652687	-0.158882	-0.810482
C108	C	1.652677	-0.158894	-0.763566
C109	C	1.383707	-0.273809	-0.763550
C110	C	1.383723	-0.273795	-0.810466
C111	C	1.450972	-0.245061	-0.833928
C112	C	1.518090	-0.216424	-0.099696
C113	C	1.518281	-0.216299	-0.049762
H114	H	1.118076	-0.268663	-0.268446
O115	O	0.910600	-0.159753	-0.159835
C116	C	0.937342	-0.169508	-0.115039
H117	H	1.016982	-0.186772	-0.114070
H118	H	0.941128	-0.137054	-0.094954
H119	H	0.875544	-0.192585	-0.099868
H120	H	1.118164	-0.164242	-0.164389
H121	H	1.328965	-0.297190	-0.829557
O122	O	0.910560	-0.273230	-0.272980
C123	C	0.982492	-0.298618	-0.298292
H124	H	1.060687	-0.300143	-0.279882
H125	H	0.950737	-0.334023	-0.303021
H126	H	0.994217	-0.282220	-0.332442
O127	O	1.318236	-0.301744	-0.692420
C128	C	1.258899	-0.327108	-0.661641
H129	H	1.255309	-0.308710	-0.628200
H130	H	1.176108	-0.331891	-0.675187
H131	H	1.297297	-0.361232	-0.656648
O132	O	1.385489	-0.383797	-0.273041
C133	C	1.445258	-0.356612	-0.302063
H134	H	1.528005	-0.370719	-0.304867
H135	H	1.407214	-0.356075	-0.336624
H136	H	1.448885	-0.321060	-0.288166
H137	H	1.707287	-0.603239	-0.135638
O138	O	1.318318	-0.692066	-0.301784
C139	C	1.258949	-0.661308	-0.327107
H140	H	1.301967	-0.627846	-0.328668
H141	H	1.247699	-0.674848	-0.362503
H142	H	1.179177	-0.656360	-0.310628
H143	H	1.328951	-0.744094	-0.297225
H144	H	1.639874	-0.387435	-0.164318
H145	H	1.707420	-0.135516	-0.688833
H146	H	1.639961	-0.472544	-0.164331
H147	H	1.707356	-0.688345	-0.135648
H148	H	1.640300	-0.959830	-0.164372
O149	O	1.651106	-1.048570	-0.159899
C150	C	1.755775	-1.037047	-0.169784
H151	H	1.757852	-1.002976	-0.187058
H152	H	1.802969	-1.035421	-0.137388
H153	H	1.791142	-1.063426	-0.192900
O154	O	1.718013	-0.740245	-0.131207
C155	C	1.785833	-0.713075	-0.156806
H156	H	1.748719	-0.706043	-0.190836
H157	H	1.799931	-0.680086	-0.138505
H158	H	1.863691	-0.731123	-0.161776
H159	H	1.396370	-1.045011	-0.268542
O160	O	1.385648	-0.956287	-0.273063
C161	C	1.326345	-0.987077	-0.298402
H162	H	1.322777	-1.020529	-0.279999
H163	H	1.243545	-0.973561	-0.303159
H164	H	1.364758	-0.992038	-0.332539
H165	H	1.328861	-0.603336	-0.297223
H166	H	1.395968	-0.472623	-0.268495
H167	H	1.328945	-0.297208	-0.744452
H168	H	1.707453	-0.829104	-0.135667
H169	H	1.329009	-0.829200	-0.297234
H170	H	1.640110	-0.164322	-0.387901
H171	H	1.640266	-0.164192	-0.960296
H172	H	1.707405	-0.135538	-0.603728
H173	H	1.640122	-0.164292	-0.473009
H174	H	1.396286	-0.268428	-1.045391
O175	O	1.650740	-0.159670	-1.049172
C176	C	1.636340	-0.165832	-1.095611
H177	H	1.555241	-0.180552	-1.102009
H178	H	1.643508	-0.132178	-1.113448
H179	H	1.698627	-0.189749	-1.108927
O180	O	1.385643	-0.272997	-0.956664
C181	C	1.326294	-0.298337	-0.987433
H182	H	1.369347	-0.299884	-1.020876
H183	H	1.315009	-0.333736	-0.973876
H184	H	1.246537	-0.281881	-0.992427
O185	O	1.318469	-0.301770	-0.599952
C186	C	1.378228	-0.330802	-0.572822
H187	H	1.457876	-0.314960	-0.565799
H188	H	1.335418	-0.336829	-0.539827
H189	H	1.389712	-0.364090	-0.590902
O190	O	1.385459	-0.273078	-0.476622
C191	C	1.326127	-0.298451	-0.445850
H192	H	1.322523	-0.280059	-0.412406
H193	H	1.243341	-0.303239	-0.459400
H194	H	1.364538	-0.332573	-0.440862
O195	O	1.385685	-0.273104	-0.384141
C196	C	1.445451	-0.302130	-0.357009
H197	H	1.525104	-0.286289	-0.349996
H198	H	1.402654	-0.308149	-0.324009
H199	H	1.456924	-0.335423	-0.375083
O200	O	1.718029	-0.130947	-0.740857
C201	C	1.777396	-0.105594	-0.771634
H202	H	1.734366	-0.104036	-0.805076
H203	H	1.788668	-0.070199	-0.758087
H204	H	1.857159	-0.122047	-0.776626
H205	H	1.707447	-0.135488	-0.829593
