data_functionalizedCrystal
_audit_creation_method	'MofGen! by Chris Wilmer'
_symmetry_space_group_name_H-M	'P1'
_symmetry_Int_Tables_number	1
_symmetry_cell_setting	triclinic
loop_
_symmetry_equiv_pos_as_xyz
  x,y,z
_cell_length_a	14.853558
_cell_length_b	15.944493
_cell_length_c	13.930277
_cell_angle_alpha	90.001318
_cell_angle_beta	89.993309
_cell_angle_gamma	83.553089
loop_
_atom_site_label
_atom_site_type_symbol
_atom_site_fract_x
_atom_site_fract_y
_atom_site_fract_z
O1	O	1.196208	0.109630	-0.079806
O2	O	1.696208	0.609630	0.420194
O3	O	0.933728	0.122702	-0.079809
O4	O	1.433728	0.622702	0.420191
O5	O	1.072163	-0.006104	-0.079816
O6	O	1.572163	0.493896	0.420184
O7	O	1.057773	0.238437	-0.079800
O8	O	1.557773	0.738437	0.420200
O9	O	1.072144	-0.006107	0.079846
O10	O	1.572144	0.493893	0.579846
O11	O	0.933709	0.122700	0.079853
O12	O	1.433709	0.622700	0.579853
O13	O	1.196189	0.109627	0.079856
O14	O	1.696189	0.609627	0.579856
Zn15	Zn	1.064946	0.116163	0.105204
Zn16	Zn	1.564946	0.616163	0.605204
Zn17	Zn	1.064971	0.116167	-0.105158
Zn18	Zn	1.564971	0.616167	0.394842
O19	O	1.057754	0.238434	0.079862
O20	O	1.557754	0.738434	0.579862
C21	C	0.900130	0.122110	0.000021
C22	C	1.400130	0.622110	0.500021
C23	C	0.800049	0.120339	0.000019
C24	C	1.300049	0.620339	0.500019
C25	C	0.753041	0.119511	-0.087016
C26	C	1.253041	0.619511	0.412984
C27	C	0.753018	0.119498	0.087053
C28	C	1.253018	0.619498	0.587053
C29	C	0.658987	0.117829	0.087055
C30	C	1.158987	0.617829	0.587055
C31	C	0.611978	0.117000	0.000020
C32	C	1.111978	0.617000	0.500020
C33	C	0.659001	0.117840	-0.087017
C34	C	1.159001	0.617840	0.412983
C35	C	0.611958	0.116981	0.174090
C36	C	1.111958	0.616981	0.674090
C37	C	0.517921	0.115312	0.174095
C38	C	1.017921	0.615312	0.674095
C39	C	0.470910	0.114489	0.087059
C40	C	0.970910	0.614489	0.587059
C41	C	0.517939	0.115330	0.000018
C42	C	1.017939	0.615330	0.500018
C43	C	0.470930	0.114501	-0.087017
C44	C	0.970930	0.614501	0.412983
C45	C	0.517956	0.115347	-0.174058
C46	C	1.017956	0.615347	0.325942
C47	C	0.611990	0.117017	-0.174054
C48	C	1.111990	0.617017	0.325946
C49	C	0.376877	0.112819	0.087054
C50	C	0.876877	0.612819	0.587054
C51	C	0.376891	0.112830	-0.087018
C52	C	0.876891	0.612830	0.412982
C53	C	1.071565	-0.037401	0.000011
C54	C	1.571565	0.462599	0.500011
C55	C	1.069802	-0.130651	-0.000001
C56	C	1.569802	0.369349	0.499999
C57	C	1.151288	-0.366323	0.000018
C58	C	1.651288	0.133677	0.500018
C59	C	1.107355	-0.416937	-0.078704
C60	C	1.607355	0.083063	0.421296
C61	C	1.066535	-0.301376	0.000011
C62	C	1.566535	0.198624	0.500011
C63	C	1.107317	-0.416916	0.078711
C64	C	1.607317	0.083084	0.578711
C65	C	1.063385	-0.466289	0.000026
C66	C	1.563385	0.033711	0.500026
C67	C	1.022625	-0.350762	-0.078776
C68	C	1.522625	0.149238	0.421224
C69	C	1.022599	-0.350737	0.078709
C70	C	1.522599	0.149263	0.578709
C71	C	0.978603	-0.401319	-0.000032
C72	C	1.478603	0.098681	0.499968
C73	C	1.068352	-0.206374	0.000001
C74	C	1.568352	0.293626	0.500001
C75	C	1.061562	-0.561288	0.000029
C76	C	1.561562	-0.061288	0.500029
C77	C	1.229787	0.110220	0.000023
C78	C	1.729787	0.610220	0.500023
C79	C	1.329868	0.111990	0.000019
C80	C	1.829868	0.611990	0.500019
C81	C	1.058352	0.269731	0.000033
C82	C	1.558352	0.769731	0.500033
C83	C	1.060115	0.362981	0.000039
C84	C	1.560115	0.862981	0.500039
N85	N	1.064935	0.116160	0.248770
N86	N	1.564935	0.616160	0.748770
N87	N	1.064989	0.116163	-0.248724
N88	N	1.564989	0.616163	0.251276
C89	C	1.003670	0.173180	0.701042
C90	C	1.503670	0.673180	1.201042
C91	C	1.126297	0.059147	0.701006
C92	C	1.626297	0.559147	1.201006
C93	C	1.126287	0.059145	0.600510
C94	C	1.626287	0.559145	1.100510
C95	C	1.064968	0.116161	0.550276
C96	C	1.564968	0.616161	1.050276
C97	C	1.003659	0.173181	0.600537
C98	C	1.503659	0.673181	1.100537
C99	C	1.187600	0.002132	0.550241
C100	C	1.687600	0.502132	1.050241
C101	C	1.187593	0.002128	0.449739
C102	C	1.687593	0.502128	0.949739
C103	C	1.126268	0.059141	0.399503
C104	C	1.626268	0.559141	0.899503
C105	C	1.064957	0.116162	0.449771
C106	C	1.564957	0.616162	0.949771
C107	C	1.003637	0.173179	0.399536
C108	C	1.503637	0.673179	0.899536
C109	C	0.942321	0.230197	0.449802
C110	C	1.442321	0.730197	0.949802
C111	C	0.942335	0.230194	0.550301
C112	C	1.442335	0.730194	1.050301
C113	C	1.126254	0.059143	0.299004
C114	C	1.626254	0.559143	0.799004
C115	C	1.003627	0.173180	0.299031
C116	C	1.503627	0.673180	0.799031
H117	H	0.650287	0.117704	-0.244918
H118	H	1.150287	0.617704	0.255082
Br119	Br	0.920396	0.250557	0.230864
Br120	Br	1.420396	0.750557	0.730864
H121	H	0.892414	0.276617	0.591233
H122	H	1.392414	0.776617	1.091233
Br123	Br	0.859113	0.307582	0.381616
Br124	Br	1.359113	0.807582	0.881616
H125	H	0.986861	-0.321980	-0.145400
H126	H	1.486861	0.178020	0.354600
H127	H	1.143156	-0.445843	-0.145257
H128	H	1.643156	0.054157	0.354743
Br129	Br	0.856832	-0.427232	-0.000099
Br130	Br	1.356832	0.072768	0.499901
Br131	Br	0.313062	0.111653	0.205171
Br132	Br	0.813062	0.611653	0.705171
H133	H	0.953744	0.219601	0.741971
H134	H	1.453744	0.719601	1.241971
Br135	Br	0.675758	0.118107	0.292202
Br136	Br	1.175758	0.618107	0.792202
Br137	Br	0.816856	0.120662	-0.205138
Br138	Br	1.316856	0.620662	0.294862
H139	H	1.176226	0.012730	0.741910
H140	H	1.676226	0.512730	1.241910
H141	H	0.986829	-0.321817	0.145265
H142	H	1.486829	0.178183	0.645265
H143	H	1.224292	-0.350615	-0.000060
H144	H	1.724292	0.149385	0.499940
Br145	Br	0.816816	0.120618	0.205167
Br146	Br	1.316816	0.620618	0.705167
Br147	Br	1.166986	-0.465074	0.189630
Br148	Br	1.666986	0.034926	0.689630
H149	H	0.479641	0.114622	0.244969
H150	H	0.979641	0.614622	0.744969
H151	H	1.237529	-0.044286	0.591145
H152	H	1.737529	0.455714	1.091145
Br153	Br	1.270803	-0.075252	0.381527
Br154	Br	1.770803	0.424748	0.881527
H155	H	1.176182	0.012724	0.258083
H156	H	1.676182	0.512724	0.758083
H157	H	0.479670	0.114667	-0.244923
H158	H	0.979670	0.614667	0.255077
Br159	Br	0.313099	0.111715	-0.205144
Br160	Br	0.813099	0.611715	0.294856
