data_functionalizedCrystal
_audit_creation_method	'MofGen! by Chris Wilmer'
_symmetry_space_group_name_H-M	'P1'
_symmetry_Int_Tables_number	1
_symmetry_cell_setting	triclinic
loop_
_symmetry_equiv_pos_as_xyz
  x,y,z
_cell_length_a	16.109293
_cell_length_b	16.109295
_cell_length_c	14.586319
_cell_angle_alpha	89.997157
_cell_angle_beta	89.996045
_cell_angle_gamma	83.458729
loop_
_atom_site_label
_atom_site_type_symbol
_atom_site_fract_x
_atom_site_fract_y
_atom_site_fract_z
O1	O	-1.103129	-0.106838	0.076306
O2	O	-0.861066	-0.120145	0.076291
O3	O	-0.988749	0.007540	0.076301
O4	O	-0.975445	-0.234523	0.076297
O5	O	-0.988748	0.007548	-0.076180
O6	O	-0.861065	-0.120137	-0.076189
O7	O	-1.103128	-0.106830	-0.076174
Cu8	Cu	-0.982096	-0.113483	-0.090105
Cu9	Cu	-0.982097	-0.113492	0.090222
O10	O	-0.975444	-0.234515	-0.076184
C11	C	-0.830090	-0.119603	0.000049
C12	C	-0.737795	-0.117990	0.000044
C13	C	-0.525452	-0.114257	-0.083070
C14	C	-0.438732	-0.112733	-0.083070
C15	C	-0.438744	-0.112746	0.083173
C16	C	-0.525463	-0.114264	0.083172
C17	C	-0.568815	-0.115024	0.000047
C18	C	-0.395375	-0.111982	0.000050
C19	C	-0.301349	-0.110329	0.000051
C20	C	-0.662847	-0.116675	0.000045
C21	C	-0.988211	0.038519	0.000062
C22	C	-0.986597	0.130815	0.000069
C23	C	-0.134102	-0.107380	0.000063
C24	C	-0.226395	-0.109016	0.000053
N25	N	-0.982099	-0.113493	0.217053
C26	C	-1.058610	0.353090	0.000107
C27	C	-1.057088	0.439810	0.000122
C28	C	-0.905598	0.419931	0.000108
C29	C	-0.907121	0.333213	0.000100
C30	C	-0.983630	0.299794	0.000095
C31	C	-0.980584	0.473234	0.000118
C32	C	-0.978933	0.567260	0.000134
C33	C	-0.985281	0.205762	0.000080
C34	C	-0.975988	0.734507	0.000079
C35	C	-0.977616	0.642213	0.000144
N36	N	-0.982101	-0.113476	-0.216936
C37	C	-1.038746	-0.057064	0.452064
C38	C	-1.038749	-0.057062	0.548045
C39	C	-0.925451	-0.169911	0.548046
C40	C	-0.925453	-0.169916	0.452067
C41	C	-0.982100	-0.113488	0.404078
C42	C	-0.982100	-0.113480	0.596039
C43	C	-0.982102	-0.113479	0.700106
C44	C	-0.982099	-0.113490	0.300004
H45	H	-0.560770	-0.114886	0.150860
H46	H	-1.120908	0.325883	0.000105
H47	H	-0.843307	0.447152	0.000111
H48	H	-0.879325	-0.215867	0.412994
H49	H	-1.118144	0.483200	0.000134
H50	H	-0.846059	0.289817	0.000092
F51	F	-1.099037	0.002990	0.400994
H52	H	-0.403436	-0.112128	0.150850
H53	H	-1.084876	-0.011117	0.587112
H54	H	-0.560747	-0.114876	-0.150756
F55	F	-0.392586	-0.111918	-0.171535
H56	H	-0.879330	-0.215852	0.587129
