data_functionalizedCrystal
_audit_creation_method	'MofGen! by Chris Wilmer'
_symmetry_space_group_name_H-M	'P1'
_symmetry_Int_Tables_number	1
_symmetry_cell_setting	triclinic
loop_
_symmetry_equiv_pos_as_xyz
  x,y,z
_cell_length_a	18.101395
_cell_length_b	12.759401
_cell_length_c	12.759393
_cell_angle_alpha	90.018335
_cell_angle_beta	89.966214
_cell_angle_gamma	89.968735
loop_
_atom_site_label
_atom_site_type_symbol
_atom_site_fract_x
_atom_site_fract_y
_atom_site_fract_z
Zn1	Zn	-0.294780	-1.606134	-0.593968
Zn2	Zn	-0.418643	-1.605978	-0.418282
Zn3	Zn	-0.294820	-1.430436	-0.418307
Zn4	Zn	-0.418585	-1.430374	-0.593923
O5	O	-0.356707	-1.518231	-0.506120
O6	O	-0.311219	-1.753134	-0.570671
O7	O	-0.402258	-1.582653	-0.271264
O8	O	-0.191182	-1.453834	-0.441638
O9	O	-0.402220	-1.753020	-0.441595
O10	O	-0.191153	-1.582918	-0.570695
O11	O	-0.311286	-1.453683	-0.271283
O12	O	-0.311230	-1.283407	-0.441595
O13	O	-0.402121	-1.453728	-0.740950
O14	O	-0.402160	-1.283362	-0.570619
O15	O	-0.311163	-1.582858	-0.740983
O16	O	-0.522268	-1.582593	-0.441552
O17	O	-0.522225	-1.453578	-0.570595
C18	C	-0.356693	-1.245263	-0.506106
C19	C	-0.356705	-1.128487	-0.506125
C20	C	-0.549117	-1.518090	-0.506089
C21	C	-0.631432	-1.518126	-0.506111
C22	C	-0.356631	-1.518304	-0.780153
C23	C	-0.356599	-1.518335	-0.896930
C24	C	-0.930522	-1.518357	-0.506168
C25	C	-0.899201	-1.437372	-0.587559
C26	C	-0.813583	-1.436987	-0.587305
C27	C	-0.782140	-1.518242	-0.506140
C28	C	-0.813300	-1.488262	-0.395415
C29	C	-0.898945	-1.487740	-0.395903
C30	C	-0.898864	-1.629499	-0.534526
C31	C	-0.813212	-1.628846	-0.536954
C32	C	-0.698280	-1.518179	-0.506118
C33	C	-1.014382	-1.518417	-0.506182
C34	C	-0.163545	-1.518401	-0.506174
C35	C	-0.081231	-1.518473	-0.506197
C36	C	-0.356721	-1.792264	-0.506135
C37	C	-0.356727	-1.909041	-0.506141
C38	C	-0.404128	-1.073628	-0.573197
C39	C	-0.404137	-0.963904	-0.573208
C40	C	-0.309299	-0.963907	-0.439066
C41	C	-0.309287	-1.073629	-0.439061
C42	C	-0.458885	-1.073626	-0.650639
C43	C	-0.458894	-0.963902	-0.650650
C44	C	-0.309202	-1.451228	-1.061534
C45	C	-0.309223	-1.451202	-0.951810
C46	C	-0.403951	-1.585505	-0.951780
C47	C	-0.403926	-1.585536	-1.061502
C48	C	-0.254513	-1.373685	-1.061551
C49	C	-0.254534	-1.373659	-0.951826
C50	C	-0.356729	-1.518219	-0.233153
C51	C	-0.356553	-1.518391	-0.116376
H52	H	-0.792513	-1.455745	-0.669407
C53	C	-0.282246	-1.269261	-1.107519
H54	H	-0.294610	-1.222735	-1.052064
H55	H	-0.324710	-1.281718	-1.149411
H56	H	-0.244517	-1.238896	-1.149432
H57	H	-0.443589	-1.103441	-0.732046
C58	C	-0.275317	-1.263723	-0.911576
H59	H	-0.283855	-1.218530	-0.969481
H60	H	-0.236081	-1.236690	-0.870224
H61	H	-0.318855	-1.268131	-0.870204
H62	H	-0.442477	-1.640236	-1.106151
C63	C	-0.257145	-0.903560	-0.365300
H64	H	-0.263946	-0.830356	-0.374905
H65	H	-0.207399	-0.921578	-0.380799
H66	H	-0.267927	-0.921506	-0.294676
C67	C	-0.180944	-1.413078	-0.905876
H68	H	-0.148155	-1.430643	-0.961340
H69	H	-0.189755	-1.473317	-0.863973
H70	H	-0.159515	-1.359579	-0.863978
C71	C	-0.257120	-1.133970	-0.365285
H72	H	-0.228888	-1.085581	-0.325340
H73	H	-0.224883	-1.176808	-0.405553
H74	H	-0.285410	-1.176736	-0.319428
C75	C	-0.926032	-1.377988	-0.363461
H76	H	-0.978509	-1.376703	-0.363468
H77	H	-0.907915	-1.327464	-0.411709
H78	H	-0.908390	-1.362094	-0.295177
C79	C	-0.532446	-1.119555	-0.611085
H80	H	-0.565214	-1.064082	-0.593479
H81	H	-0.523591	-1.161444	-0.550849
H82	H	-0.553921	-1.161464	-0.664537
H83	H	-0.919742	-1.455943	-0.669927
C84	C	-0.431238	-0.917976	-0.755141
H85	H	-0.418921	-0.973451	-0.801669
H86	H	-0.388757	-0.876092	-0.742768
H87	H	-0.468984	-0.876063	-0.785457
H88	H	-0.442521	-1.640173	-0.907088
C89	C	-0.928355	-1.326755	-0.562503
H90	H	-0.959530	-1.329712	-0.502652
H91	H	-0.955594	-1.300945	-0.620647
H92	H	-0.887921	-1.281369	-0.548727
C93	C	-0.926944	-1.563946	-0.311174
H94	H	-0.885973	-1.595080	-0.276603
H95	H	-0.956052	-1.617079	-0.342977
H96	H	-0.956068	-1.526675	-0.261650
H97	H	-0.792935	-1.545392	-0.333119
H98	H	-0.516236	-0.934083	-0.628715
C99	C	-0.784428	-1.379664	-0.362383
H100	H	-0.753393	-1.352450	-0.415912
H101	H	-0.757100	-1.385946	-0.299159
H102	H	-0.824987	-1.333588	-0.351722
H103	H	-0.197150	-1.395529	-1.091349
H104	H	-0.793162	-1.354606	-0.568521
H105	H	-0.792843	-1.651454	-0.618442
C106	C	-0.927957	-1.666429	-0.641740
H107	H	-0.908192	-1.733637	-0.657358
H108	H	-0.913290	-1.618053	-0.694353
H109	H	-0.980343	-1.670389	-0.639647
C110	C	-0.784308	-1.714670	-0.462696
H111	H	-0.752774	-1.684035	-0.411697
H112	H	-0.757503	-1.765339	-0.501869
H113	H	-0.824823	-1.747571	-0.428683
H114	H	-0.919118	-1.689836	-0.475245
