data_functionalizedCrystal
_audit_creation_method	'MofGen! by Chris Wilmer'
_symmetry_space_group_name_H-M	'P1'
_symmetry_Int_Tables_number	1
_symmetry_cell_setting	triclinic
loop_
_symmetry_equiv_pos_as_xyz
  x,y,z
_cell_length_a	16.120530
_cell_length_b	16.120484
_cell_length_c	16.120339
_cell_angle_alpha	89.785998
_cell_angle_beta	89.818868
_cell_angle_gamma	90.167327
loop_
_atom_site_label
_atom_site_type_symbol
_atom_site_fract_x
_atom_site_fract_y
_atom_site_fract_z
Zn1	Zn	1.228138	-0.365914	-0.552155
Zn2	Zn	1.728138	0.134086	-0.052155
Zn3	Zn	1.227280	-0.512076	-0.420096
Zn4	Zn	1.727280	-0.012076	0.079904
Zn5	Zn	1.096044	-0.366735	-0.406101
Zn6	Zn	1.596044	0.133265	0.093899
Zn7	Zn	1.082026	-0.497908	-0.551396
Zn8	Zn	1.582026	0.002092	-0.051396
O9	O	1.158372	-0.435658	-0.482437
O10	O	1.658372	0.064342	0.017563
O11	O	1.344095	-0.390888	-0.540812
O12	O	1.844095	0.109112	-0.040812
O13	O	1.215378	-0.499069	-0.302165
O14	O	1.715378	0.000931	0.197835
O15	O	1.119792	-0.250561	-0.419936
O16	O	1.619792	0.249439	0.080064
O17	O	1.343465	-0.498272	-0.443788
O18	O	1.843465	0.001728	0.056212
O19	O	1.216841	-0.249958	-0.527241
O20	O	1.716841	0.250042	-0.027241
O21	O	1.118960	-0.392288	-0.291883
O22	O	1.618960	0.107712	0.208117
O23	O	0.978113	-0.378550	-0.419200
O24	O	1.478113	0.121450	0.080800
O25	O	1.095901	-0.474126	-0.667571
O26	O	1.595901	0.025874	-0.167571
O27	O	0.967815	-0.474922	-0.525948
O28	O	1.467815	0.025078	-0.025948
O29	O	1.203249	-0.377151	-0.668128
O30	O	1.703249	0.122849	-0.168128
O31	O	1.201786	-0.626261	-0.443052
O32	O	1.701786	-0.126261	0.056948
O33	O	1.095069	-0.615853	-0.539518
O34	O	1.595069	-0.115853	-0.039518
C35	C	0.942868	-0.425289	-0.470974
C36	C	1.442868	0.074711	0.029026
C37	C	0.850673	-0.420871	-0.466090
C38	C	1.350673	0.079129	0.033910
C39	C	0.681870	-0.412787	-0.457180
C40	C	1.181870	0.087213	0.042820
C41	C	0.635708	-0.458587	-0.507757
C42	C	1.135708	0.041413	-0.007757
C43	C	0.541781	-0.454089	-0.502800
C44	C	1.041781	0.045911	-0.002800
C45	C	0.775806	-0.417284	-0.462137
C46	C	1.275806	0.082716	0.037863
C47	C	1.146835	-0.651152	-0.492741
C48	C	1.646835	-0.151152	0.007259
C49	C	1.141974	-0.743343	-0.497181
C50	C	1.641974	-0.243343	0.002819
C51	C	1.133103	-0.912137	-0.505304
C52	C	1.633103	-0.412137	-0.005304
C53	C	1.183789	-0.958346	-0.459592
C54	C	1.683789	-0.458346	0.040408
C55	C	1.178853	-1.052268	-0.464112
C56	C	1.678853	-0.552268	0.035888
C57	C	1.138038	-0.818205	-0.500785
C58	C	1.638038	-0.318205	-0.000785
C59	C	1.374717	-0.446069	-0.493946
C60	C	1.874717	0.053931	0.006054
C61	C	1.466911	-0.450505	-0.498850
C62	C	1.966911	0.049495	0.001150
C63	C	1.148107	-0.423966	-0.698788
C64	C	1.648107	0.076034	-0.198788
C65	C	1.143733	-0.418984	-0.790984
C66	C	1.643733	0.081016	-0.290984
C67	C	1.169976	-0.219324	-0.472112
C68	C	1.669976	0.280676	0.027888
C69	C	1.174920	-0.127135	-0.467713
C70	C	1.674920	0.372865	0.032287
C71	C	1.168648	-0.447247	-0.266928
C72	C	1.668648	0.052753	0.233072
C73	C	1.173195	-0.452004	-0.174730
C74	C	1.673195	0.047996	0.325270
C75	C	1.135427	-0.410305	0.040209
C76	C	1.635427	0.089695	0.540209
C77	C	1.181499	-0.460680	-0.005927
C78	C	1.681499	0.039320	0.494073
C79	C	1.176878	-0.455851	-0.099858
C80	C	1.676878	0.044149	0.400142
C81	C	1.140047	-0.415133	0.134148
C82	C	1.640047	0.084867	0.634148
H83	H	0.666729	-0.501176	-0.554782
H84	H	1.166729	-0.001176	-0.054782
H85	H	1.086007	-0.943113	-0.547830
H86	H	1.586007	-0.443113	-0.047830
C87	C	0.639964	-0.355258	-0.393654
C88	C	1.139964	0.144742	0.106346
N89	N	0.608391	-0.311931	-0.345804
N90	N	1.108391	0.188069	0.154196
H91	H	1.092514	-0.363555	0.009166
H92	H	1.592514	0.136445	0.509166
H93	H	1.230888	-0.927368	-0.417061
H94	H	1.730888	-0.427368	0.082939
H95	H	1.224414	-0.507435	0.025118
H96	H	1.724414	-0.007435	0.525118
