data_functionalizedCrystal
_audit_creation_method	'MofGen! by Chris Wilmer'
_symmetry_space_group_name_H-M	'P1'
_symmetry_Int_Tables_number	1
_symmetry_cell_setting	triclinic
loop_
_symmetry_equiv_pos_as_xyz
  x,y,z
_cell_length_a	33.428889
_cell_length_b	33.428139
_cell_length_c	33.424847
_cell_angle_alpha	60.004234
_cell_angle_beta	60.008465
_cell_angle_gamma	59.994972
loop_
_atom_site_label
_atom_site_type_symbol
_atom_site_fract_x
_atom_site_fract_y
_atom_site_fract_z
O1	O	0.055565	-0.584504	0.488714
O2	O	0.020982	-0.455083	0.393778
O3	O	0.102943	-0.536959	0.393689
O4	O	-0.026396	-0.502628	0.488803
O5	O	0.130140	-0.509767	0.420792
O6	O	0.048179	-0.427891	0.420881
O7	O	0.082762	-0.557312	0.515817
Cu8	Cu	0.067954	-0.490119	0.470823
Cu9	Cu	0.035790	-0.522276	0.438771
O10	O	0.000801	-0.475436	0.515906
N11	N	0.090577	-0.467504	0.493370
N12	N	0.013171	-0.544895	0.416225
C13	C	0.143377	-0.280390	0.546067
C14	C	0.143515	-0.414755	0.680369
C15	C	0.143392	-0.414735	0.546069
C16	C	0.277766	-0.414702	0.545966
C17	C	0.158177	-0.324719	0.560828
C18	C	0.158255	-0.399967	0.636038
C19	C	0.233434	-0.399936	0.560773
C20	C	0.158186	-0.399955	0.560829
C21	C	0.124540	-0.223964	0.527278
C22	C	0.124565	-0.433545	0.527281
C23	C	0.177014	-0.381145	0.579617
C24	C	0.359814	-0.400540	0.502735
C25	C	0.411105	-0.417624	0.485606
C26	C	0.411136	-0.500620	0.517255
C27	C	0.359845	-0.483534	0.534385
C28	C	0.136887	-0.198305	0.476855
C29	C	0.119761	-0.147011	0.459777
C30	C	0.077945	-0.147038	0.543547
C31	C	0.095072	-0.198332	0.560625
C32	C	0.074134	-0.421169	0.539710
C33	C	0.057023	-0.438269	0.522625
C34	C	0.140770	-0.480120	0.480694
C35	C	0.157883	-0.463020	0.497773
C36	C	0.074339	-0.421208	0.762475
C37	C	0.057288	-0.438323	0.813768
C38	C	0.141075	-0.480183	0.813699
C39	C	0.158125	-0.463069	0.762404
C40	C	0.124756	-0.433580	0.736794
C41	C	0.334186	-0.433494	0.527123
C42	C	-0.173769	-0.597444	0.363037
C43	C	-0.039302	-0.597595	0.228856
C44	C	-0.039496	-0.597587	0.363300
C45	C	-0.039512	-0.731889	0.363237
C46	C	-0.129442	-0.612265	0.348329
C47	C	-0.054138	-0.612351	0.273187
C48	C	-0.054257	-0.687554	0.348440
C49	C	-0.054247	-0.612346	0.348477
C50	C	-0.230191	-0.578579	0.381758
C51	C	-0.020722	-0.578803	0.382168
C52	C	-0.073020	-0.631130	0.329609
C53	C	-0.053713	-0.813916	0.406386
C54	C	-0.036654	-0.865210	0.423504
C55	C	0.046338	-0.865293	0.391984
C56	C	0.029278	-0.813999	0.374865
C57	C	-0.255900	-0.590938	0.432169
C58	C	-0.307191	-0.573786	0.449185
C59	C	-0.307060	-0.531922	0.365377
C60	C	-0.255769	-0.549074	0.348360
C61	C	-0.033081	-0.528377	0.369764
C62	C	-0.016014	-0.511306	0.386922
C63	C	0.025770	-0.595083	0.428877
C64	C	0.008703	-0.612156	0.411725
C65	C	-0.032755	-0.528393	0.146761
C66	C	-0.015585	-0.511324	0.095468
C67	C	0.026262	-0.595106	0.095516
C68	C	0.009094	-0.612174	0.146811
C69	C	-0.020417	-0.578816	0.172432
C70	C	-0.020748	-0.788312	0.382068
N71	N	0.436037	-0.467415	0.493101
O72	O	0.592642	-0.471896	0.376066
O73	O	0.592838	-0.567146	0.505347
O74	O	0.592754	-0.566928	0.423360
O75	O	0.592727	-0.472113	0.458053
O76	O	0.511269	-0.539835	0.450606
O77	O	0.511353	-0.540052	0.532594
O78	O	0.511157	-0.444802	0.403312
Cu79	Cu	0.503815	-0.489954	0.470441
Cu80	Cu	0.600180	-0.521995	0.438219
O81	O	0.511242	-0.445020	0.485300
N82	N	0.667959	-0.544533	0.415554
N83	N	0.090544	-0.122107	0.493359
O84	O	-0.026406	0.034587	0.488773
O85	O	0.102877	0.034627	0.393499
O86	O	0.020848	0.034591	0.393771
O87	O	0.055623	0.034623	0.488500
O88	O	0.048051	-0.046899	0.420925
O89	O	0.130080	-0.046864	0.420653
O90	O	0.000796	-0.046903	0.515927
Cu91	Cu	0.067922	-0.054324	0.470769
Cu92	Cu	0.035752	0.042048	0.438656
O93	O	0.082825	-0.046867	0.515655
N94	N	0.013123	0.109830	0.416068
N95	N	0.090892	-0.467554	0.838649
O96	O	0.086330	-0.584488	0.995334
O97	O	-0.008902	-0.455160	0.995379
O98	O	-0.008679	-0.537172	0.995355
O99	O	0.086107	-0.502475	0.995358
O100	O	0.018452	-0.509990	0.913868
O101	O	0.018230	-0.427978	0.913891
O102	O	0.113461	-0.557306	0.913847
Cu103	Cu	0.068323	-0.490160	0.906429
Cu104	Cu	0.036237	-0.522306	1.002797
O105	O	0.113239	-0.475293	0.913870
N106	N	0.013667	-0.544916	1.070577
C107	C	0.031339	-0.425179	0.394250
C108	C	0.132837	-0.526572	0.394139
C109	C	0.072405	-0.587216	0.515344
C110	C	-0.029093	-0.485823	0.515455
C111	C	0.552119	-0.566716	0.535258
C112	C	0.552016	-0.566447	0.433726
C113	C	0.551873	-0.445232	0.373402
C114	C	0.551980	-0.445502	0.474933
C115	C	0.132731	-0.006013	0.393923
C116	C	0.031182	-0.006158	0.394293
C117	C	-0.029092	-0.006163	0.515469
C118	C	0.072491	-0.006119	0.515133
C119	C	-0.008451	-0.425276	0.954641
C120	C	-0.008170	-0.526833	0.954596
C121	C	0.113010	-0.587190	0.954585
C122	C	0.112735	-0.485627	0.954611
H123	H	0.016234	-0.428240	0.834672
H124	H	0.552029	-0.596233	0.426301
O125	O	0.081285	-0.006091	0.550688
C126	C	0.039238	-0.006116	0.592989
H127	H	0.005536	0.009300	0.582312
H128	H	0.034960	0.017547	0.611227
H129	H	0.043218	-0.045214	0.619632
H130	H	-0.066220	-0.006175	0.545378
H131	H	-0.037935	-0.534246	0.954563
H132	H	0.552170	-0.596617	0.572390
H133	H	0.169783	-0.005775	0.363939
O134	O	0.148277	-0.476719	0.954518
C135	C	0.159500	-0.437029	0.912327
H136	H	0.148724	-0.433168	0.882833
H137	H	0.200493	-0.443924	0.898149
H138	H	0.138359	-0.401899	0.921880
O139	O	0.148726	-0.631462	0.954482
C140	C	0.190002	-0.624994	0.912281
H141	H	0.178180	-0.589113	0.882793
H142	H	0.207542	-0.656774	0.898103
H143	H	0.217660	-0.623865	0.921822
O144	O	-0.044074	-0.380946	0.954678
C145	C	-0.026434	-0.350450	0.954672
H146	H	0.005027	-0.374009	0.970090
H147	H	-0.057221	-0.326980	0.978340
H148	H	-0.012844	-0.325700	0.915581
H149	H	0.551974	-0.415718	0.482355
H150	H	0.047163	-0.397193	0.741627
H151	H	0.551811	-0.415327	0.336274
H152	H	0.169984	-0.533889	0.364272
O153	O	-0.061604	-0.496000	0.340991
C154	C	-0.038247	-0.503409	0.295396
H155	H	0.002864	-0.522053	0.288403
H156	H	-0.045353	-0.466566	0.265100
H157	H	-0.053364	-0.527599	0.295817
H158	H	0.079796	-0.624394	0.545162
H159	H	0.168250	-0.504186	0.834549
H160	H	0.023733	-0.006162	0.364531
O161	O	-0.073389	-0.477189	0.551135
C162	C	-0.073413	-0.519326	0.593353
H163	H	-0.044418	-0.552949	0.582547
H164	H	-0.110987	-0.523713	0.611684
H165	H	-0.064852	-0.515388	0.619966
O166	O	0.207119	-0.475116	0.737535
C167	C	0.232912	-0.504819	0.771141
H168	H	0.208474	-0.498286	0.807714
H169	H	0.267135	-0.495193	0.756298
H170	H	0.243986	-0.544997	0.776585
H171	H	0.015959	-0.428182	0.532734
O172	O	0.041703	-0.392521	0.568347
C173	C	-0.006478	-0.385273	0.575657
H174	H	-0.006412	-0.390999	0.544741
H175	H	-0.030837	-0.346374	0.575942
H176	H	-0.021143	-0.412583	0.612199
H177	H	0.198948	-0.473094	0.487648
O178	O	0.173204	-0.508734	0.452020
C179	C	0.221385	-0.516001	0.444728
H180	H	0.221296	-0.485077	0.450457
H181	H	0.245708	-0.516257	0.405818
H182	H	0.236110	-0.552544	0.472011
H183	H	0.432025	-0.541365	0.523165
O184	O	0.335028	-0.515611	0.558048
C185	C	0.368679	-0.563442	0.560790
H186	H	0.405224	-0.561478	0.530477
H187	H	0.353854	-0.584501	0.556161
H188	H	0.374170	-0.583023	0.597950
H189	H	0.431972	-0.390789	0.465748
H190	H	0.160882	-0.219171	0.449698
O191	O	0.334941	-0.351910	0.495596
C192	C	0.347425	-0.325439	0.444953
H193	H	0.384660	-0.347844	0.424739
H194	H	0.349174	-0.289277	0.438174
H195	H	0.318539	-0.317792	0.430997
O196	O	0.131814	-0.122157	0.410778
C197	C	0.161486	-0.155781	0.385008
H198	H	0.180167	-0.192344	0.409450
H199	H	0.190478	-0.140942	0.350762
H200	H	0.137808	-0.161244	0.373974
H201	H	0.085016	-0.219221	0.601683
O202	O	0.049311	-0.122213	0.576006
C203	C	0.042104	-0.155861	0.624174
H204	H	0.047840	-0.192427	0.624082
H205	H	0.003215	-0.141058	0.648553
H206	H	0.069427	-0.161309	0.638839
H207	H	-0.094449	-0.793002	0.412253
O208	O	-0.027644	-0.462325	0.070611
C209	C	-0.057364	-0.436548	0.104228
H210	H	-0.076056	-0.460986	0.140772
H211	H	-0.086348	-0.402300	0.089355
H212	H	-0.033723	-0.425512	0.109740
H213	H	-0.056788	-0.501226	0.167618
H214	H	0.019144	-0.653235	0.167709
O215	O	0.054863	-0.627556	0.070681
C216	C	0.028946	-0.657163	0.083151
H217	H	-0.000951	-0.657633	0.120363
H218	H	0.055244	-0.696077	0.084941
H219	H	0.011589	-0.641719	0.054232
O220	O	-0.028033	-0.462306	0.374800
C221	C	-0.057664	-0.436527	0.345033
H222	H	-0.051105	-0.460997	0.326384
H223	H	-0.047989	-0.402331	0.316016
H224	H	-0.097857	-0.425407	0.368630
O225	O	0.020771	-0.661157	0.423800
C226	C	0.050392	-0.686933	0.453576
H227	H	0.069042	-0.662497	0.447074
H228	H	0.079409	-0.721185	0.443998
H229	H	0.026678	-0.697962	0.493733
H230	H	0.049734	-0.622248	0.452940
H231	H	0.056124	-0.793157	0.355062
H232	H	-0.063498	-0.886058	0.443304
O233	O	0.094948	-0.890224	0.384902
C234	C	0.121473	-0.877713	0.334274
H235	H	0.096311	-0.863591	0.313026
H236	H	0.153343	-0.911468	0.326011
H237	H	0.136213	-0.847964	0.322844
O238	O	-0.231130	-0.619575	0.464677
C239	C	-0.264822	-0.626810	0.512822
H240	H	-0.301362	-0.595856	0.512673
H241	H	-0.250043	-0.627092	0.537220
H242	H	-0.270304	-0.663332	0.527505
H243	H	-0.328125	-0.583847	0.490235
O244	O	-0.331834	-0.503252	0.332869
C245	C	-0.298142	-0.496040	0.284725
H246	H	-0.261596	-0.501808	0.284882
H247	H	-0.312911	-0.457137	0.260339
H248	H	-0.292675	-0.523342	0.270022
H249	H	0.023949	-0.388000	0.364433
O250	O	-0.230744	-0.537156	0.299402
C251	C	-0.201087	-0.580268	0.287030
H252	H	-0.193460	-0.612497	0.320856
H253	H	-0.164991	-0.575720	0.257330
H254	H	-0.220828	-0.587450	0.272898
