data_functionalizedCrystal
_audit_creation_method	'MofGen! by Chris Wilmer'
_symmetry_space_group_name_H-M	'P1'
_symmetry_Int_Tables_number	1
_symmetry_cell_setting	triclinic
loop_
_symmetry_equiv_pos_as_xyz
  x,y,z
_cell_length_a	16.109295
_cell_length_b	9.565339
_cell_length_c	16.109301
_cell_angle_alpha	90.001191
_cell_angle_beta	96.539666
_cell_angle_gamma	89.999378
loop_
_atom_site_label
_atom_site_type_symbol
_atom_site_fract_x
_atom_site_fract_y
_atom_site_fract_z
O1	O	-1.103134	0.116169	0.106839
O2	O	-0.861072	0.116193	0.120143
O3	O	-0.988753	0.116166	-0.007540
O4	O	-0.975453	0.116196	0.234522
O5	O	-0.988743	-0.116354	-0.007532
O6	O	-0.861062	-0.116327	0.120151
O7	O	-1.103124	-0.116351	0.106847
Zn8	Zn	-0.982091	-0.153256	0.113500
Zn9	Zn	-0.982105	0.153099	0.113490
O10	O	-0.975443	-0.116324	0.234530
C11	C	-0.830092	-0.000064	0.119609
C12	C	-0.737796	-0.000055	0.117996
N13	N	-0.982088	-0.362336	0.113507
C14	C	-0.515523	-0.000061	0.190008
C15	C	-0.428803	-0.000069	0.188486
C16	C	-0.448677	-0.000082	0.036997
C17	C	-0.535396	-0.000084	0.038520
C18	C	-0.568816	-0.000066	0.115028
C19	C	-0.395377	-0.000073	0.111982
C20	C	-0.301351	-0.000082	0.110331
C21	C	-0.662849	-0.000059	0.116679
C22	C	-0.923022	-0.453526	0.172537
C23	C	-0.998148	-0.546711	0.188647
C24	C	-0.906995	-0.546707	0.097403
C25	C	-1.057252	-0.453468	0.129655
C26	C	-0.966049	-0.453456	0.038378
C27	C	-1.041230	-0.546598	0.054456
C28	C	-0.134104	-0.000089	0.107386
C29	C	-0.226397	-0.000084	0.109014
C30	C	-0.988209	-0.000094	-0.038511
C31	C	-0.986594	-0.000096	-0.130806
N32	N	-0.982114	0.362178	0.113477
C33	C	-1.058602	-0.000081	-0.353080
C34	C	-1.057078	-0.000069	-0.439800
C35	C	-0.905588	-0.000060	-0.419923
C36	C	-0.907113	-0.000061	-0.333204
C37	C	-0.983622	-0.000079	-0.299785
C38	C	-0.980573	-0.000066	-0.473225
C39	C	-0.978920	-0.000053	-0.567251
C40	C	-0.985276	-0.000089	-0.205754
C41	C	-0.975987	-0.000060	0.265501
C42	C	-0.977602	-0.000049	0.357796
H43	H	-0.542731	-0.000057	0.252306
H44	H	-0.385414	-0.000068	0.249542
H45	H	-0.578790	-0.000092	-0.022542
F46	F	-1.106602	-0.599686	-0.010812
H47	H	-0.873117	-0.412661	0.222502
F48	F	-0.827306	-0.000049	-0.276480
F49	F	-1.140292	-0.400167	0.147538
F50	F	-0.413101	-0.000095	-0.044424
H51	H	-1.011732	-0.587671	0.252169
H52	H	-1.118133	-0.000068	-0.483190
H53	H	-0.952442	-0.412463	-0.025124
F54	F	-0.823976	-0.600243	0.079614
F55	F	-0.824167	-0.000040	-0.455498
H56	H	-1.120900	-0.000093	-0.325874
