data_functionalizedCrystal
_audit_creation_method	'MofGen! by Chris Wilmer'
_symmetry_space_group_name_H-M	'P1'
_symmetry_Int_Tables_number	1
_symmetry_cell_setting	triclinic
loop_
_symmetry_equiv_pos_as_xyz
  x,y,z
_cell_length_a	19.188930
_cell_length_b	19.188930
_cell_length_c	7.540329
_cell_angle_alpha	89.991297
_cell_angle_beta	89.983165
_cell_angle_gamma	83.144779
loop_
_atom_site_label
_atom_site_type_symbol
_atom_site_fract_x
_atom_site_fract_y
_atom_site_fract_z
O1	O	0.926143	0.087167	-0.148072
O2	O	1.426143	0.587167	0.351928
O3	O	0.722832	0.098901	-0.147953
O4	O	1.222832	0.598901	0.352047
O5	O	0.830355	-0.008622	-0.147982
O6	O	1.330355	0.491378	0.352018
O7	O	0.818621	0.194689	-0.148044
O8	O	1.318621	0.694689	0.351956
O9	O	0.830348	-0.008623	0.146983
O10	O	1.330348	0.491377	0.646983
O11	O	0.722826	0.098900	0.147012
O12	O	1.222826	0.598900	0.647012
O13	O	0.926137	0.087165	0.146893
O14	O	1.426137	0.587165	0.646893
Cu15	Cu	0.824481	0.093032	0.173885
Cu16	Cu	1.324481	0.593032	0.673885
Cu17	Cu	0.824488	0.093034	-0.174946
Cu18	Cu	1.324488	0.593034	0.325054
O19	O	0.818614	0.194688	0.146921
O20	O	1.318614	0.694688	0.646921
C21	C	0.829972	-0.034634	-0.000494
C22	C	1.329972	0.465366	0.499506
C23	C	0.828831	-0.112138	-0.000478
C24	C	1.328831	0.387862	0.499522
C25	C	0.696818	0.098520	-0.000455
C26	C	1.196818	0.598520	0.499545
C27	C	0.619313	0.097380	-0.000408
C28	C	1.119313	0.597380	0.499592
C29	C	0.891922	-0.157062	-0.000506
C30	C	1.391922	0.342938	0.499494
C31	C	0.890850	-0.229886	-0.000534
C32	C	1.390850	0.270114	0.499466
C33	C	0.826684	-0.257782	-0.000498
C34	C	1.326684	0.242218	0.499502
C35	C	0.763585	-0.212849	-0.000479
C36	C	1.263585	0.287151	0.499521
C37	C	0.764658	-0.140026	-0.000469
C38	C	1.264658	0.359974	0.499531
N39	N	0.777635	-0.365788	0.099913
N40	N	1.277635	0.134212	0.599913
N41	N	0.776619	-0.434966	0.099907
N42	N	1.276619	0.065034	0.599907
C43	C	0.823446	-0.477191	-0.000532
C44	C	1.323446	0.022809	0.499468
N45	N	0.871337	-0.447625	-0.100943
N46	N	1.371337	0.052375	0.399057
N47	N	0.872355	-0.378440	-0.100929
N48	N	1.372355	0.121560	0.399071
C49	C	0.825513	-0.336745	-0.000510
C50	C	1.325513	0.163255	0.499490
C51	C	0.885379	-0.601079	-0.000593
C52	C	1.385379	-0.101079	0.499407
C53	C	0.884305	-0.673904	-0.000632
C54	C	1.384305	-0.173904	0.499368
C55	C	0.757038	-0.656865	-0.000559
C56	C	1.257038	-0.156865	0.499441
C57	C	0.758114	-0.584042	-0.000538
C58	C	1.258114	-0.084042	0.499462
C59	C	0.822286	-0.556154	-0.000547
C60	C	1.322286	-0.056154	0.499453
C61	C	0.574389	0.160470	-0.000455
C62	C	1.074389	0.660470	0.499545
C63	C	0.501566	0.159399	-0.000475
C64	C	1.001566	0.659399	0.499525
C65	C	0.473669	0.095233	-0.000482
C66	C	0.973669	0.595233	0.499518
C67	C	0.518603	0.032133	-0.000425
C68	C	1.018603	0.532133	0.499575
C69	C	0.591425	0.033207	-0.000388
C70	C	1.091425	0.533207	0.499612
N71	N	0.365691	0.046186	-0.100928
N72	N	0.865691	0.546186	0.399072
N73	N	0.296512	0.045171	-0.100967
N74	N	0.796512	0.545171	0.399033
C75	C	0.254260	0.091994	-0.000590
C76	C	0.754260	0.591994	0.499410
N77	N	0.283799	0.139883	0.099806
N78	N	0.783799	0.639883	0.599806
N79	N	0.352984	0.140900	0.099837
N80	N	0.852984	0.640900	0.599837
C81	C	0.394707	0.094062	-0.000521
C82	C	0.894707	0.594062	0.499479
C83	C	0.130372	0.153928	-0.000655
C84	C	0.630372	0.653928	0.499345
C85	C	0.057547	0.152853	-0.000663
C86	C	0.557547	0.652853	0.499337
C87	C	0.074586	0.025586	-0.000632
C88	C	0.574586	0.525586	0.499368
C89	C	0.147409	0.026662	-0.000605
C90	C	0.647409	0.526662	0.499395
C91	C	0.175298	0.090835	-0.000626
C92	C	0.675298	0.590835	0.499374
C93	C	0.952151	0.087546	-0.000609
C94	C	1.452151	0.587546	0.499391
C95	C	1.029656	0.088687	-0.000668
C96	C	1.529656	0.588687	0.499332
C97	C	0.818997	0.220700	-0.000571
C98	C	1.318997	0.720700	0.499429
C99	C	0.820138	0.298204	-0.000598
C100	C	1.320138	0.798204	0.499402
N101	N	0.824481	0.093031	0.419233
N102	N	1.324481	0.593031	0.919233
N103	N	0.824494	0.093030	-0.420294
N104	N	1.324494	0.593030	0.079706
H105	H	0.944176	-0.134360	-0.000519
H106	H	1.444176	0.365640	0.499481
H107	H	0.153080	0.206181	-0.000646
H108	H	0.653080	0.706181	0.499354
H109	H	0.713281	-0.103449	-0.000446
H110	H	1.213281	0.396551	0.499554
H111	H	0.464982	0.210776	-0.000508
H112	H	0.964982	0.710776	0.499492
H113	H	0.937632	-0.578372	-0.000608
H114	H	1.437632	-0.078372	0.499392
H115	H	0.935683	-0.710481	-0.000665
H116	H	1.435683	-0.210481	0.499335
H117	H	0.704792	-0.679578	-0.000538
H118	H	1.204792	-0.179578	0.499462
H119	H	0.051874	-0.026659	-0.000748
H120	H	0.551874	0.473341	0.499252
H121	H	0.942228	-0.266470	-0.000564
H122	H	1.442228	0.233530	0.499436
H123	H	0.711340	-0.235567	-0.000454
H124	H	1.211340	0.264433	0.499546
H125	H	0.706738	-0.547464	-0.000505
H126	H	1.206738	-0.047464	0.499495
H127	H	0.495885	-0.020111	-0.000455
H128	H	0.995885	0.479889	0.499545
H129	H	0.597091	0.212725	-0.000475
H130	H	1.097091	0.712725	0.499525
H131	H	0.628003	-0.018171	-0.000351
H132	H	1.128003	0.481829	0.499649
H133	H	0.020970	0.204232	-0.000692
H134	H	0.520970	0.704232	0.499308
H135	H	0.183988	-0.024713	-0.000577
H136	H	0.683988	0.475287	0.499423
