data_functionalizedCrystal
_audit_creation_method	'MofGen! by Chris Wilmer'
_symmetry_space_group_name_H-M	'P1'
_symmetry_Int_Tables_number	1
_symmetry_cell_setting	triclinic
loop_
_symmetry_equiv_pos_as_xyz
  x,y,z
_cell_length_a	16.625548
_cell_length_b	18.050589
_cell_length_c	16.625539
_cell_angle_alpha	90.022960
_cell_angle_beta	90.017055
_cell_angle_gamma	90.029289
loop_
_atom_site_label
_atom_site_type_symbol
_atom_site_fract_x
_atom_site_fract_y
_atom_site_fract_z
Zn1	Zn	1.232620	-0.295651	0.455929
Zn2	Zn	1.565954	0.037683	0.789262
Zn3	Zn	1.899287	0.371016	1.122596
Zn4	Zn	1.232518	-0.419844	0.321104
Zn5	Zn	1.565852	-0.086511	0.654438
Zn6	Zn	1.899185	0.246822	0.987771
Zn7	Zn	1.097790	-0.295675	0.321109
Zn8	Zn	1.431124	0.037658	0.654443
Zn9	Zn	1.764457	0.370992	0.987776
Zn10	Zn	1.097739	-0.419806	0.455894
Zn11	Zn	1.431072	-0.086472	0.789227
Zn12	Zn	1.764406	0.246861	1.122561
O13	O	1.165167	-0.357744	0.388509
O14	O	1.498500	-0.024411	0.721842
O15	O	1.831834	0.308923	1.055176
O16	O	1.345439	-0.312131	0.438056
O17	O	1.678772	0.021202	0.771390
O18	O	2.012106	0.354535	1.104723
O19	O	1.214625	-0.403399	0.208272
O20	O	1.547958	-0.070066	0.541606
O21	O	1.881292	0.263267	0.874939
O22	O	1.115740	-0.191747	0.339010
O23	O	1.449073	0.141586	0.672343
O24	O	1.782407	0.474920	1.005677
O25	O	1.345364	-0.403376	0.339001
O26	O	1.678697	-0.070042	0.672335
O27	O	2.012031	0.263291	1.005668
O28	O	1.214799	-0.191729	0.438061
O29	O	1.548132	0.141604	0.771395
O30	O	1.881466	0.474937	1.104728
O31	O	1.115641	-0.312173	0.208276
O32	O	1.448974	0.021161	0.541610
O33	O	1.782308	0.354494	0.874943
O34	O	0.984951	-0.312135	0.338976
O35	O	1.318285	0.021198	0.672310
O36	O	1.651618	0.354532	1.005643
O37	O	1.115652	-0.403310	0.568731
O38	O	1.448986	-0.069977	0.902064
O39	O	1.782319	0.263357	1.235398
O40	O	0.984913	-0.403333	0.438002
O41	O	1.318247	-0.070000	0.771336
O42	O	1.651580	0.263333	1.104669
O43	O	1.214749	-0.312094	0.568757
O44	O	1.548083	0.021240	0.902090
O45	O	1.881416	0.354573	1.235423
O46	O	1.214575	-0.523764	0.338968
O47	O	1.547909	-0.190430	0.672301
O48	O	1.881242	0.142903	1.005634
O49	O	1.115554	-0.523735	0.437997
O50	O	1.448887	-0.190402	0.771331
O51	O	1.782220	0.142931	1.104664
C52	C	0.955676	-0.357733	0.388487
C53	C	1.289009	-0.024400	0.721820
C54	C	1.622343	0.308933	1.055153
C55	C	0.866055	-0.357747	0.388496
C56	C	1.199388	-0.024413	0.721829
C57	C	1.532722	0.308920	1.055163
C58	C	0.537879	-0.357751	0.388531
C59	C	0.871213	-0.024418	0.721864
C60	C	1.204546	0.308915	1.055197
C61	C	0.629188	-0.357748	0.388518
C62	C	0.962521	-0.024415	0.721852
C63	C	1.295854	0.308919	1.055185
C64	C	0.701964	-0.357749	0.388513
C65	C	1.035298	-0.024416	0.721846
C66	C	1.368631	0.308917	1.055179
C67	C	0.793279	-0.357745	0.388502
C68	C	1.126612	-0.024412	0.721835
C69	C	1.459945	0.308921	1.055168
C70	C	1.165070	-0.550696	0.388496
C71	C	1.498403	-0.217363	0.721829
C72	C	1.831736	0.115971	1.055162
C73	C	1.165102	-0.633242	0.388517
C74	C	1.498435	-0.299908	0.721850
C75	C	1.831768	0.033425	1.055184
C76	C	1.111307	-0.832704	0.442350
C77	C	1.444640	-0.499371	0.775684
C78	C	1.777973	-0.166037	1.109017
C79	C	1.091655	-0.882144	0.368774
C80	C	1.424988	-0.548811	0.702108
C81	C	1.758321	-0.215477	1.035441
C82	C	1.165181	-0.784372	0.388528
C83	C	1.498514	-0.451039	0.721861
C84	C	1.831848	-0.117705	1.055194
C85	C	1.184872	-0.882014	0.462112
C86	C	1.518206	-0.548681	0.795445
C87	C	1.851539	-0.215347	1.128779
C88	C	1.165256	-0.930357	0.388544
C89	C	1.498589	-0.597024	0.721877
C90	C	1.831923	-0.263690	1.055211
C91	C	1.145490	-0.832725	0.314913
C92	C	1.478824	-0.499391	0.648246
C93	C	1.812157	-0.166058	0.981579
C94	C	1.238742	-0.832590	0.408300
C95	C	1.572076	-0.499257	0.741633
C96	C	1.905409	-0.165924	1.074966
C97	C	1.219118	-0.882008	0.334673
C98	C	1.552452	-0.548675	0.668006
C99	C	1.885785	-0.215341	1.001340
C100	C	1.165136	-0.700274	0.388519
C101	C	1.498469	-0.366940	0.721852
C102	C	1.831802	-0.033607	1.055186
C103	C	1.165301	-1.014454	0.388544
C104	C	1.498635	-0.681120	0.721878
C105	C	1.831968	-0.347787	1.055211
C106	C	1.375476	-0.357755	0.388532
C107	C	1.708809	-0.024422	0.721866
C108	C	2.042142	0.308912	1.055199
C109	C	1.465097	-0.357760	0.388542
C110	C	1.798430	-0.024426	0.721875
C111	C	2.131764	0.308907	1.055209
C112	C	1.165206	-0.357695	0.598818
C113	C	1.498540	-0.024361	0.932151
C114	C	1.831873	0.308972	1.265485
C115	C	1.165223	-0.357674	0.688439
C116	C	1.498557	-0.024341	1.021773
C117	C	1.831890	0.308993	1.355106
C118	C	1.165287	-0.164038	0.388540
C119	C	1.498620	0.169295	0.721874
C120	C	1.831953	0.502628	1.055207
C121	C	1.165338	-0.081492	0.388553
C122	C	1.498671	0.251841	0.721887
C123	C	1.832004	0.585174	1.055220
C124	C	1.165174	-0.357739	0.179018
C125	C	1.498507	-0.024406	0.512352
C126	C	1.831841	0.308928	0.845685
C127	C	1.165313	-0.357551	0.089398
C128	C	1.498647	-0.024217	0.422731
C129	C	1.831980	0.309116	0.756064
C130	C	1.165236	-0.357658	0.761222
C131	C	1.498570	-0.024324	1.094555
C132	C	1.831903	0.309009	1.427888
C133	C	1.165255	-0.357630	0.852530
C134	C	1.498589	-0.024297	1.185864
C135	C	1.831922	0.309037	1.519197
C136	C	1.165274	-0.357604	0.925307
C137	C	1.498608	-0.024270	1.258640
C138	C	1.831941	0.309063	1.591973
C139	C	1.165294	-0.357577	1.016621
C140	C	1.498628	-0.024244	1.349954
C141	C	1.831961	0.309090	1.683288
H142	H	1.065680	-0.811054	0.487802
H143	H	1.399013	-0.477721	0.821136
H144	H	1.732347	-0.144388	1.154469
H145	H	1.029481	-0.903926	0.352066
H146	H	1.362815	-0.570593	0.685400
H147	H	1.696148	-0.237260	1.018733
C148	C	1.280706	-0.911078	0.273128
C149	C	1.614039	-0.577745	0.606461
C150	C	1.947373	-0.244412	0.939794
H151	H	1.266613	-0.894111	0.220909
H152	H	1.599946	-0.560778	0.554243
H153	H	1.933279	-0.227444	0.887576
H154	H	1.332778	-0.893361	0.286721
H155	H	1.666111	-0.560028	0.620054
H156	H	1.999445	-0.226695	0.953388
H157	H	1.280707	-0.963705	0.273773
H158	H	1.614041	-0.630371	0.607107
H159	H	1.947374	-0.297038	0.940440
C160	C	1.322712	-0.803159	0.430913
C161	C	1.656045	-0.469826	0.764247
C162	C	1.989378	-0.136492	1.097580
H163	H	1.343356	-0.774211	0.387897
H164	H	1.676690	-0.440878	0.721231
H165	H	2.010023	-0.107544	1.054564
H166	H	1.318822	-0.773437	0.477914
H167	H	1.652155	-0.440103	0.811248
H168	H	1.985488	-0.106770	1.144581
H169	H	1.357768	-0.843678	0.440872
H170	H	1.691101	-0.510345	0.774205
H171	H	2.024434	-0.177012	1.107538
H172	H	1.128793	-0.811164	0.252673
H173	H	1.462127	-0.477830	0.586006
H174	H	1.795460	-0.144497	0.919339
C175	C	1.207336	-0.911261	0.546166
C176	C	1.540670	-0.577928	0.879500
C177	C	1.874003	-0.244594	1.212833
H178	H	1.168978	-0.894370	0.584333
H179	H	1.502312	-0.561037	0.917666
H180	H	1.835645	-0.227704	1.250999
H181	H	1.207686	-0.963882	0.545455
H182	H	1.541019	-0.630549	0.878788
H183	H	1.874352	-0.297215	1.212121
H184	H	1.259199	-0.893558	0.560575
H185	H	1.592533	-0.560224	0.893908
H186	H	1.925866	-0.226891	1.227241
