data_functionalizedCrystal
_audit_creation_method	'MofGen! by Chris Wilmer'
_symmetry_space_group_name_H-M	'P1'
_symmetry_Int_Tables_number	1
_symmetry_cell_setting	triclinic
loop_
_symmetry_equiv_pos_as_xyz
  x,y,z
_cell_length_a	16.109302
_cell_length_b	16.109301
_cell_length_c	14.586319
_cell_angle_alpha	89.994786
_cell_angle_beta	89.994552
_cell_angle_gamma	83.461631
loop_
_atom_site_label
_atom_site_type_symbol
_atom_site_fract_x
_atom_site_fract_y
_atom_site_fract_z
O1	O	1.103130	0.106869	-0.076284
O2	O	1.603130	0.606869	0.423716
O3	O	0.861069	0.120168	-0.076278
O4	O	1.361069	0.620168	0.423722
O5	O	0.988749	-0.007513	-0.076272
O6	O	1.488749	0.492487	0.423728
O7	O	0.975450	0.234549	-0.076290
O8	O	1.475450	0.734549	0.423710
O9	O	0.988740	-0.007515	0.076209
O10	O	1.488740	0.492485	0.576209
O11	O	0.861060	0.120166	0.076203
O12	O	1.361060	0.620166	0.576203
O13	O	1.103122	0.106867	0.076196
O14	O	1.603122	0.606867	0.576196
Cu15	Cu	0.982090	0.113516	0.090122
Cu16	Cu	1.482090	0.613516	0.590122
Cu17	Cu	0.982100	0.113519	-0.090204
Cu18	Cu	1.482100	0.613519	0.409796
O19	O	0.975441	0.234547	0.076191
O20	O	1.475441	0.734547	0.576191
C21	C	0.830089	0.119628	-0.000036
C22	C	1.330089	0.619628	0.499964
C23	C	0.737794	0.118013	-0.000033
C24	C	1.237794	0.618013	0.499967
C25	C	0.988206	-0.038488	-0.000031
C26	C	1.488206	0.461512	0.499969
C27	C	0.986591	-0.130784	-0.000030
C28	C	1.486591	0.369216	0.499970
C29	C	0.525448	0.114276	0.083075
C30	C	1.025448	0.614276	0.583075
C31	C	0.438728	0.112750	0.083072
C32	C	0.938728	0.612750	0.583072
C33	C	0.438748	0.112756	-0.083171
C34	C	0.938748	0.612756	0.416829
C35	C	0.525468	0.114277	-0.083167
C36	C	1.025468	0.614277	0.416833
C37	C	0.568815	0.115041	-0.000041
C38	C	1.068815	0.615041	0.499959
C39	C	0.395375	0.111994	-0.000048
C40	C	0.895375	0.611994	0.499952
C41	C	0.301350	0.110338	-0.000052
C42	C	0.801350	0.610338	0.499948
C43	C	0.662847	0.116695	-0.000037
C44	C	1.162847	0.616695	0.499963
C45	C	1.058599	-0.353056	-0.000046
C46	C	1.558599	0.146944	0.499954
C47	C	1.057074	-0.439776	-0.000054
C48	C	1.557074	0.060224	0.499946
C49	C	0.905586	-0.419902	-0.000046
C50	C	1.405586	0.080098	0.499954
C51	C	0.907111	-0.333184	-0.000045
C52	C	1.407111	0.166816	0.499955
C53	C	0.983620	-0.299763	-0.000040
C54	C	1.483620	0.200237	0.499960
C55	C	0.980571	-0.473202	-0.000049
C56	C	1.480571	0.026798	0.499951
C57	C	0.978918	-0.567228	-0.000057
C58	C	1.478918	-0.067228	0.499943
C59	C	0.985273	-0.205731	-0.000034
C60	C	1.485273	0.294269	0.499966
C61	C	1.134101	0.107407	-0.000047
C62	C	1.634101	0.607407	0.499953
C63	C	1.226396	0.109022	-0.000056
C64	C	1.726396	0.609022	0.499944
C65	C	0.975984	0.265523	-0.000052
C66	C	1.475984	0.765523	0.499948
C67	C	0.977599	0.357819	-0.000060
C68	C	1.477599	0.857819	0.499940
N69	N	0.982088	0.113514	0.216954
N70	N	1.482088	0.613514	0.716954
N71	N	0.982108	0.113514	-0.217035
N72	N	1.482108	0.613514	0.282965
C73	C	1.038644	0.056996	0.451963
C74	C	1.538644	0.556996	0.951963
C75	C	1.038647	0.056994	0.547944
C76	C	1.538647	0.556994	1.047944
C77	C	0.925546	0.170035	0.547949
C78	C	1.425546	0.670035	1.047949
C79	C	0.925541	0.170032	0.451969
C80	C	1.425541	0.670032	0.951969
C81	C	0.982094	0.113514	0.403979
C82	C	1.482094	0.613514	0.903979
C83	C	0.982102	0.113514	0.595940
C84	C	1.482102	0.613514	1.095940
C85	C	0.982105	0.113513	0.700007
C86	C	1.482105	0.613513	1.200007
C87	C	0.982091	0.113514	0.299905
C88	C	1.482091	0.613514	0.799905
H89	H	0.403423	0.112127	0.150754
H90	H	0.903423	0.612127	0.650754
C91	C	1.099941	-0.004523	0.399931
C92	C	1.599941	0.495477	0.899931
C93	C	1.086443	-0.086213	0.423304
C94	C	1.586443	0.413787	0.923304
C95	C	1.142886	-0.142919	0.375396
C96	C	1.642886	0.357081	0.875396
H97	H	1.155461	0.004401	0.415619
H98	H	1.655461	0.504401	0.915619
H99	H	1.091852	0.003492	0.335883
H100	H	1.591852	0.503492	0.835883
H101	H	1.094539	-0.094225	0.487339
H102	H	1.594539	0.405775	0.987339
H103	H	1.030934	-0.095164	0.407615
H104	H	1.530934	0.404836	0.907615
H105	H	1.134797	-0.134904	0.311347
H106	H	1.634797	0.365096	0.811347
H107	H	1.198403	-0.133987	0.391087
H108	H	1.698403	0.366013	0.891087
H109	H	1.133731	-0.198352	0.391241
H110	H	1.633731	0.301648	0.891241
H111	H	0.843295	-0.447124	-0.000048
H112	H	1.343295	0.052876	0.499952
H113	H	0.403444	0.112135	-0.150849
H114	H	0.903444	0.612135	0.349151
C115	C	0.572402	0.115148	-0.173509
C116	C	1.072402	0.615148	0.326491
C117	C	0.515878	0.114183	-0.246308
C118	C	1.015878	0.614183	0.253692
C119	C	0.559083	0.114993	-0.329539
C120	C	1.059083	0.614993	0.170461
H121	H	0.612587	0.067300	-0.177089
H122	H	1.112587	0.567300	0.322911
H123	H	0.599858	0.164214	-0.177012
H124	H	1.099858	0.664214	0.322988
H125	H	0.488436	0.065121	-0.242807
H126	H	0.988436	0.565121	0.257193
H127	H	0.475692	0.162027	-0.242758
H128	H	0.975692	0.662027	0.257242
H129	H	0.586539	0.164059	-0.333043
H130	H	1.086539	0.664059	0.166957
H131	H	0.599267	0.067144	-0.333110
H132	H	1.099267	0.567144	0.166890
H133	H	0.520737	0.114345	-0.378943
H134	H	1.020737	0.614345	0.121057
H135	H	1.120897	-0.325848	-0.000044
H136	H	1.620897	0.174152	0.499956
H137	H	1.118130	-0.483165	-0.000060
H138	H	1.618130	0.016835	0.499940
C139	C	0.825610	-0.275454	0.000008
C140	C	1.325610	0.224546	0.500008
C141	C	0.758280	-0.323281	0.000036
C142	C	1.258280	0.176719	0.500036
C143	C	0.683193	-0.270129	0.000093
C144	C	1.183193	0.229871	0.500093
H145	H	0.822941	-0.241189	-0.053151
H146	H	1.322941	0.258811	0.446849
H147	H	0.823010	-0.241227	0.053203
H148	H	1.323010	0.258773	0.553203
H149	H	0.760878	-0.357493	-0.053153
H150	H	1.260878	0.142507	0.446847
H151	H	0.760921	-0.357543	0.053191
H152	H	1.260921	0.142457	0.553191
H153	H	0.680594	-0.235903	0.053288
H154	H	1.180594	0.264097	0.553288
H155	H	0.680534	-0.235867	-0.053067
H156	H	1.180534	0.264133	0.446933
H157	H	0.637502	-0.302572	0.000121
H158	H	1.137502	0.197428	0.500121
H159	H	1.084694	0.010972	0.587011
H160	H	1.584694	0.510972	1.087011
C161	C	0.864114	0.231266	0.600175
C162	C	1.364114	0.731266	1.100175
C163	C	0.813254	0.186965	0.655313
C164	C	1.313254	0.686965	1.155313
C165	C	0.756662	0.243346	0.703444
C166	C	1.256662	0.743346	1.203444
H167	H	0.830351	0.264950	0.557956
H168	H	1.330351	0.764950	1.057956
H169	H	0.893993	0.265873	0.637658
H170	H	1.393993	0.765873	1.137658
H171	H	0.783378	0.152373	0.617833
H172	H	1.283378	0.652373	1.117833
H173	H	0.846995	0.153284	0.697549
H174	H	1.346995	0.653284	1.197549
H175	H	0.786541	0.277952	0.740928
H176	H	1.286541	0.777952	1.240928
H177	H	0.722904	0.277027	0.661219
H178	H	1.222904	0.777027	1.161219
H179	H	0.722152	0.213296	0.740867
H180	H	1.222152	0.713296	1.240867
C181	C	0.864181	0.231309	0.399699
C182	C	1.364181	0.731309	0.899699
C183	C	0.876266	0.219192	0.305374
C184	C	1.376266	0.719192	0.805374
C185	C	0.819752	0.275613	0.257194
C186	C	1.319752	0.775613	0.757194
H187	H	0.873140	0.286838	0.415307
H188	H	1.373140	0.786838	0.915307
H189	H	0.808680	0.222260	0.415384
H190	H	1.308680	0.722260	0.915384
H191	H	0.931754	0.228248	0.289695
H192	H	1.431754	0.728248	0.789695
H193	H	0.867300	0.163675	0.289739
H194	H	1.367300	0.663675	0.789739
H195	H	0.764251	0.266564	0.272879
H196	H	1.264251	0.766564	0.772879
H197	H	0.828716	0.331138	0.272809
H198	H	1.328716	0.831138	0.772809
H199	H	0.827939	0.267395	0.193189
H200	H	1.327939	0.767395	0.693189
C201	C	0.572369	0.115050	0.173419
C202	C	1.072369	0.615050	0.673419
C203	C	0.515828	0.114030	0.246207
C204	C	1.015828	0.614030	0.746207
C205	C	0.559020	0.114727	0.329446
C206	C	1.059020	0.614727	0.829446
H207	H	0.599849	0.164084	0.177010
H208	H	1.099849	0.664084	0.677010
H209	H	0.612536	0.067169	0.176924
H210	H	1.112536	0.567169	0.676924
H211	H	0.475676	0.161907	0.242703
H212	H	0.975676	0.661907	0.742703
H213	H	0.488346	0.065000	0.242646
H214	H	0.988346	0.565000	0.742646
H215	H	0.599187	0.066845	0.332952
H216	H	1.099187	0.566845	0.832952
H217	H	0.586499	0.163761	0.333028
H218	H	1.086499	0.663761	0.833028
H219	H	0.520665	0.114027	0.378843
H220	H	1.020665	0.614027	0.878843
