data_functionalizedCrystal
_audit_creation_method	'MofGen! by Chris Wilmer'
_symmetry_space_group_name_H-M	'P1'
_symmetry_Int_Tables_number	1
_symmetry_cell_setting	triclinic
loop_
_symmetry_equiv_pos_as_xyz
  x,y,z
_cell_length_a	10.654550
_cell_length_b	9.065218
_cell_length_c	8.140239
_cell_angle_alpha	89.998314
_cell_angle_beta	90.000518
_cell_angle_gamma	84.750408
loop_
_atom_site_label
_atom_site_type_symbol
_atom_site_fract_x
_atom_site_fract_y
_atom_site_fract_z
O1	O	1.668659	0.207233	-0.136484
O2	O	1.303259	0.226977	-0.136513
O3	O	1.493512	0.002421	-0.136494
O4	O	1.478406	0.431789	-0.136502
O5	O	1.493501	0.002419	0.136733
O6	O	1.303248	0.226974	0.136714
O7	O	1.668648	0.207230	0.136744
Zn8	Zn	1.485946	0.217102	0.180109
Zn9	Zn	1.485960	0.217105	-0.179879
O10	O	1.478395	0.431786	0.136725
C11	C	1.256450	0.225526	0.000097
C12	C	1.116989	0.221188	0.000085
C13	C	1.492055	-0.052559	0.000116
C14	C	1.487714	-0.216378	0.000108
C15	C	1.038027	0.353403	0.000088
C16	C	0.906990	0.349319	0.000116
C17	C	0.933890	0.080794	0.000133
C18	C	1.064924	0.084879	0.000117
C19	C	0.711763	0.505036	0.095858
C20	C	0.632796	0.637258	0.095832
C21	C	0.663442	0.757121	0.000077
C22	C	0.773052	0.744768	-0.095692
C23	C	0.852012	0.612544	-0.095680
C24	C	0.821368	0.492686	0.000113
C25	C	1.260153	-0.070828	-0.095639
C26	C	1.339116	-0.203054	-0.095639
C27	C	1.308474	-0.322930	0.000106
C28	C	1.198861	-0.310592	0.095850
C29	C	1.119898	-0.178366	0.095850
C30	C	1.150549	-0.058489	0.000108
C31	C	1.715457	0.208681	0.000130
C32	C	1.854918	0.213019	0.000131
C33	C	1.479852	0.486766	0.000110
C34	C	1.484193	0.650585	0.000108
N35	N	1.485946	0.217099	0.425792
N36	N	1.485971	0.217097	-0.425562
H37	H	1.080414	0.464395	0.000074
Cl38	Cl	0.989800	0.597008	-0.216061
Cl39	Cl	1.298690	0.079884	-0.215998
H40	H	0.599138	0.864779	0.000059
Cl41	Cl	0.811558	0.895456	-0.216099
Cl42	Cl	0.982102	-0.162851	0.216227
Cl43	Cl	1.476912	-0.218567	-0.216017
Cl44	Cl	0.495004	0.652783	0.216219
H45	H	0.686812	0.407450	0.173857
H46	H	1.173909	-0.408207	0.173807
Cl47	Cl	0.868427	-0.090557	0.000162
H48	H	1.372770	-0.430600	0.000079
