data_functionalizedCrystal
_audit_creation_method	'MofGen! by Chris Wilmer'
_symmetry_space_group_name_H-M	'P1'
_symmetry_Int_Tables_number	1
_symmetry_cell_setting	triclinic
loop_
_symmetry_equiv_pos_as_xyz
  x,y,z
_cell_length_a	18.101398
_cell_length_b	18.050589
_cell_length_c	18.101389
_cell_angle_alpha	90.014016
_cell_angle_beta	90.024327
_cell_angle_gamma	90.023488
loop_
_atom_site_label
_atom_site_type_symbol
_atom_site_fract_x
_atom_site_fract_y
_atom_site_fract_z
Zn1	Zn	1.132136	-0.295831	0.418861
Zn2	Zn	1.382136	-0.045831	0.668861
Zn3	Zn	1.632136	0.204169	0.918861
Zn4	Zn	1.882136	0.454169	1.168861
Zn5	Zn	1.132038	-0.420005	0.295029
Zn6	Zn	1.382038	-0.170005	0.545029
Zn7	Zn	1.632038	0.079995	0.795029
Zn8	Zn	1.882038	0.329995	1.045029
Zn9	Zn	1.008295	-0.295823	0.295023
Zn10	Zn	1.258295	-0.045823	0.545023
Zn11	Zn	1.508295	0.204177	0.795023
Zn12	Zn	1.758295	0.454177	1.045023
Zn13	Zn	1.008252	-0.419974	0.418818
Zn14	Zn	1.258252	-0.169974	0.668818
Zn15	Zn	1.508252	0.080026	0.918818
Zn16	Zn	1.758252	0.330026	1.168818
O17	O	1.070180	-0.357908	0.356933
O18	O	1.320180	-0.107908	0.606933
O19	O	1.570180	0.142092	0.856933
O20	O	1.820180	0.392092	1.106933
O21	O	1.235756	-0.312320	0.402456
O22	O	1.485756	-0.062320	0.652456
O23	O	1.735756	0.187680	0.902456
O24	O	1.985756	0.437680	1.152456
O25	O	1.115600	-0.403542	0.191396
O26	O	1.365600	-0.153542	0.441396
O27	O	1.615600	0.096458	0.691396
O28	O	1.865600	0.346458	0.941396
O29	O	1.024782	-0.191900	0.311465
O30	O	1.274782	0.058100	0.561465
O31	O	1.524782	0.308100	0.811465
O32	O	1.774782	0.558100	1.061465
O33	O	1.235684	-0.403550	0.311477
O34	O	1.485684	-0.153550	0.561477
O35	O	1.735684	0.096450	0.811477
O36	O	1.985684	0.346450	1.061477
O37	O	1.115767	-0.191905	0.402449
O38	O	1.365767	0.058095	0.652449
O39	O	1.615767	0.308095	0.902449
O40	O	1.865767	0.558095	1.152449
O41	O	1.024687	-0.312306	0.191391
O42	O	1.274687	-0.062306	0.441391
O43	O	1.524687	0.187694	0.691391
O44	O	1.774687	0.437694	0.941391
O45	O	0.904656	-0.312276	0.311423
O46	O	1.154656	-0.062276	0.561423
O47	O	1.404656	0.187724	0.811423
O48	O	1.654656	0.437724	1.061423
O49	O	1.024708	-0.403496	0.522457
O50	O	1.274708	-0.153496	0.772457
O51	O	1.524708	0.096504	1.022457
O52	O	1.774708	0.346504	1.272457
O53	O	0.904625	-0.403488	0.402375
O54	O	1.154625	-0.153488	0.652375
O55	O	1.404625	0.096512	0.902375
O56	O	1.654625	0.346512	1.152375
O57	O	1.115725	-0.312289	0.522489
O58	O	1.365725	-0.062289	0.772489
O59	O	1.615725	0.187711	1.022489
O60	O	1.865725	0.437711	1.272489
O61	O	1.115558	-0.523926	0.311435
O62	O	1.365558	-0.273926	0.561435
O63	O	1.615558	-0.023926	0.811435
O64	O	1.865558	0.226074	1.061435
O65	O	1.024613	-0.523902	0.402382
O66	O	1.274613	-0.273902	0.652382
O67	O	1.524613	-0.023902	0.902382
O68	O	1.774613	0.226098	1.152382
C69	C	0.877770	-0.357878	0.356894
C70	C	1.127770	-0.107878	0.606894
C71	C	1.377770	0.142122	0.856894
C72	C	1.627770	0.392122	1.106894
C73	C	0.795455	-0.357883	0.356895
C74	C	1.045455	-0.107883	0.606895
C75	C	1.295455	0.142117	0.856895
C76	C	1.545455	0.392117	1.106895
C77	C	0.496364	-0.357930	0.356957
C78	C	0.746364	-0.107930	0.606957
C79	C	0.996364	0.142070	0.856957
C80	C	1.246364	0.392070	1.106957
C81	C	0.527685	-0.300254	0.300012
C82	C	0.777685	-0.050254	0.550012
C83	C	1.027685	0.199746	0.800012
C84	C	1.277685	0.449746	1.050012
C85	C	0.613303	-0.300409	0.299769
C86	C	0.863303	-0.050409	0.549769
C87	C	1.113303	0.199591	0.799769
C88	C	1.363303	0.449591	1.049769
C89	C	0.644747	-0.357906	0.356927
C90	C	0.894747	-0.107906	0.606927
C91	C	1.144747	0.142094	0.856927
C92	C	1.394747	0.392094	1.106927
C93	C	0.613633	-0.436133	0.335608
C94	C	0.863633	-0.186133	0.585608
C95	C	1.113633	0.063867	0.835608
C96	C	1.363633	0.313867	1.085608
C97	C	0.527988	-0.435813	0.335212
C98	C	0.777988	-0.185813	0.585212
C99	C	1.027988	0.064187	0.835212
C100	C	1.277988	0.314187	1.085212
C101	C	0.527978	-0.338057	0.435355
C102	C	0.777978	-0.088057	0.685355
C103	C	1.027978	0.161943	0.935355
C104	C	1.277978	0.411943	1.185355
C105	C	0.613629	-0.336315	0.434927
C106	C	0.863629	-0.086315	0.684927
C107	C	1.113629	0.163685	0.934927
C108	C	1.363629	0.413685	1.184927
C109	C	0.728606	-0.357897	0.356910
C110	C	0.978606	-0.107897	0.606910
C111	C	1.228606	0.142103	0.856910
C112	C	1.478606	0.392103	1.106910
C113	C	0.412505	-0.357943	0.356972
C114	C	0.662505	-0.107943	0.606972
C115	C	0.912505	0.142057	0.856972
C116	C	1.162505	0.392057	1.106972
C117	C	1.070091	-0.550860	0.356921
C118	C	1.320091	-0.300860	0.606921
C119	C	1.570091	-0.050860	0.856921
C120	C	1.820091	0.199140	1.106921
C121	C	1.070120	-0.633406	0.356940
C122	C	1.320120	-0.383406	0.606940
C123	C	1.570120	-0.133406	0.856940
C124	C	1.820120	0.116594	1.106940
C125	C	1.020713	-0.832871	0.406380
C126	C	1.270713	-0.582871	0.656380
C127	C	1.520713	-0.332871	0.906380
C128	C	1.770713	-0.082871	1.156380
C129	C	1.002661	-0.882299	0.338801
C130	C	1.252661	-0.632299	0.588801
C131	C	1.502661	-0.382299	0.838801
C132	C	1.752661	-0.132299	1.088801
C133	C	1.070193	-0.784537	0.356950
C134	C	1.320193	-0.534537	0.606950
C135	C	1.570193	-0.284537	0.856950
C136	C	1.820193	-0.034537	1.106950
C137	C	1.088281	-0.882191	0.424536
C138	C	1.338281	-0.632191	0.674536
C139	C	1.588281	-0.382191	0.924536
C140	C	1.838281	-0.132191	1.174536
C141	C	1.070262	-0.930522	0.356965
C142	C	1.320262	-0.680522	0.606965
C143	C	1.570262	-0.430522	0.856965
C144	C	1.820262	-0.180522	1.106965
C145	C	1.052106	-0.832877	0.289335
C146	C	1.302106	-0.582877	0.539335
C147	C	1.552106	-0.332877	0.789335
C148	C	1.802106	-0.082877	1.039335
C149	C	1.137757	-0.832765	0.375116
C150	C	1.387757	-0.582765	0.625116
C151	C	1.637757	-0.332765	0.875116
C152	C	1.887757	-0.082765	1.125116
C153	C	1.119731	-0.882170	0.307491
C154	C	1.369731	-0.632170	0.557491
C155	C	1.619731	-0.382170	0.807491
C156	C	1.869731	-0.132170	1.057491
C157	C	1.070151	-0.700438	0.356942
C158	C	1.320151	-0.450438	0.606942
C159	C	1.570151	-0.200438	0.856942
C160	C	1.820151	0.049562	1.106942
C161	C	1.070304	-1.014618	0.356965
C162	C	1.320304	-0.764618	0.606965
C163	C	1.570304	-0.514618	0.856965
C164	C	1.820304	-0.264618	1.106965
C165	C	1.263342	-0.357939	0.356972
C166	C	1.513342	-0.107939	0.606972
C167	C	1.763342	0.142061	0.856972
C168	C	2.013342	0.392061	1.106972
C169	C	1.345656	-0.357952	0.356989
C170	C	1.595656	-0.107952	0.606989
C171	C	1.845656	0.142048	0.856989
C172	C	2.095656	0.392048	1.106989
C173	C	1.070223	-0.357890	0.550095
C174	C	1.320223	-0.107890	0.800095
C175	C	1.570223	0.142110	1.050095
C176	C	1.820223	0.392110	1.300095
C177	C	1.070241	-0.357882	0.632409
C178	C	1.320241	-0.107882	0.882409
C179	C	1.570241	0.142118	1.132409
C180	C	1.820241	0.392118	1.382409
C181	C	1.070290	-0.164203	0.356961
C182	C	1.320290	0.085797	0.606961
C183	C	1.570290	0.335797	0.856961
C184	C	1.820290	0.585797	1.106961
C185	C	1.070337	-0.081657	0.356974
C186	C	1.320337	0.168343	0.606974
C187	C	1.570337	0.418343	0.856974
C188	C	1.820337	0.668343	1.106974
C189	C	1.070180	-0.357873	0.164522
C190	C	1.320180	-0.107873	0.414522
C191	C	1.570180	0.142127	0.664522
C192	C	1.820180	0.392127	0.914522
C193	C	1.070305	-0.357672	0.082209
C194	C	1.320305	-0.107672	0.332209
C195	C	1.570305	0.142328	0.582209
C196	C	1.820305	0.392328	0.832209
C197	C	1.070284	-0.357742	0.931500
C198	C	1.320284	-0.107742	1.181500
C199	C	1.570284	0.142258	1.431500
C200	C	1.820284	0.392258	1.681500
C201	C	1.012822	-0.414945	0.900155
C202	C	1.262822	-0.164945	1.150155
C203	C	1.512822	0.085055	1.400155
C204	C	1.762822	0.335055	1.650155
C205	C	1.012977	-0.415210	0.814536
C206	C	1.262977	-0.165210	1.064536
C207	C	1.512977	0.084790	1.314536
C208	C	1.762977	0.334790	1.564536
C209	C	1.070262	-0.357811	0.783117
C210	C	1.320262	-0.107811	1.033117
C211	C	1.570262	0.142189	1.283117
C212	C	1.820262	0.392189	1.533117
C213	C	1.148289	-0.379062	0.814225
C214	C	1.398289	-0.129062	1.064225
C215	C	1.648289	0.120938	1.314225
C216	C	1.898289	0.370938	1.564225
C217	C	1.147969	-0.379437	0.899870
C218	C	1.397969	-0.129437	1.149870
C219	C	1.647969	0.120563	1.399870
C220	C	1.897969	0.370563	1.649870
C221	C	1.050399	-0.279163	0.899918
C222	C	1.300399	-0.029163	1.149918
C223	C	1.550399	0.220837	1.399918
C224	C	1.800399	0.470837	1.649918
C225	C	1.048663	-0.279616	0.814267
C226	C	1.298663	-0.029616	1.064267
C227	C	1.548663	0.220384	1.314267
C228	C	1.798663	0.470384	1.564267
C229	C	1.070255	-0.357849	0.699258
C230	C	1.320255	-0.107849	0.949258
C231	C	1.570255	0.142151	1.199258
C232	C	1.820255	0.392151	1.449258
C233	C	1.070297	-0.357706	1.015360
C234	C	1.320297	-0.107706	1.265360
C235	C	1.570297	0.142294	1.515360
C236	C	1.820297	0.392294	1.765360
H237	H	0.507977	-0.452667	0.277900
H238	H	0.757977	-0.202667	0.527900
H239	H	1.007977	0.047333	0.777900
H240	H	1.257977	0.297333	1.027900
H241	H	0.955117	-0.401912	0.793503
H242	H	1.205117	-0.151912	1.043503
H243	H	1.455117	0.098088	1.293503
H244	H	1.705117	0.348088	1.543503
O245	O	0.927016	-0.911119	0.318448
O246	O	1.177016	-0.661119	0.568448
O247	O	1.427016	-0.411119	0.818448
O248	O	1.677016	-0.161119	1.068448
H249	H	0.931035	-0.944947	0.267396
H250	H	1.181035	-0.694947	0.517396
H251	H	1.431035	-0.444947	0.767396
H252	H	1.681035	-0.194947	1.017396
O253	O	1.213407	-0.803919	0.395394
O254	O	1.463407	-0.553919	0.645394
O255	O	1.713407	-0.303919	0.895394
O256	O	1.963407	-0.053919	1.145394
H257	H	1.254536	-0.824564	0.354863
H258	H	1.504536	-0.574564	0.604863
H259	H	1.754536	-0.324564	0.854863
H260	H	2.004536	-0.074564	1.104863
O261	O	1.108517	-0.910882	0.500237
O262	O	1.358517	-0.660882	0.750237
O263	O	1.608517	-0.410882	1.000237
O264	O	1.858517	-0.160882	1.250237
H265	H	1.067326	-0.891137	0.541150
H266	H	1.317326	-0.641137	0.791150
H267	H	1.567326	-0.391137	1.041150
H268	H	1.817326	-0.141137	1.291150
H269	H	0.507268	-0.480240	0.374880
H270	H	0.757268	-0.230240	0.624880
H271	H	1.007268	0.019760	0.874880
H272	H	1.257268	0.269760	1.124880
H273	H	0.506136	-0.313242	0.242258
H274	H	0.756136	-0.063242	0.492258
H275	H	1.006136	0.186758	0.742258
H276	H	1.256136	0.436758	0.992258
H277	H	1.036768	-0.811305	0.232168
H278	H	1.286768	-0.561305	0.482168
H279	H	1.536768	-0.311305	0.732168
H280	H	1.786768	-0.061305	0.982168
O281	O	1.206527	-0.325612	0.787269
O282	O	1.456527	-0.075612	1.037269
O283	O	1.706527	0.174388	1.287269
O284	O	1.956527	0.424388	1.537269
H285	H	1.261114	-0.341853	0.810032
H286	H	1.511114	-0.091853	1.060032
H287	H	1.761114	0.158147	1.310032
H288	H	2.011114	0.408147	1.560032
O289	O	0.640608	-0.494588	0.388821
O290	O	0.890608	-0.244588	0.638821
O291	O	1.140608	0.005412	0.888821
O292	O	1.390608	0.255412	1.138821
H293	H	0.676566	-0.468442	0.431126
H294	H	0.926566	-0.218442	0.681126
H295	H	1.176566	0.031558	0.931126
H296	H	1.426566	0.281558	1.181126
O297	O	1.175201	-0.910670	0.252073
O298	O	1.425201	-0.660670	0.502073
O299	O	1.675201	-0.410670	0.752073
O300	O	1.925201	-0.160670	1.002073
H301	H	1.160041	-0.890812	0.196056
H302	H	1.410041	-0.640812	0.446056
H303	H	1.660041	-0.390812	0.696056
H304	H	1.910041	-0.140812	0.946056
H305	H	0.954788	-0.401782	0.920740
H306	H	1.204788	-0.151782	1.170740
H307	H	1.454788	0.098218	1.420740
H308	H	1.704788	0.348218	1.670740
H309	H	1.192234	-0.339582	0.920607
H310	H	1.442234	-0.089582	1.170607
H311	H	1.692234	0.160418	1.420607
H312	H	1.942234	0.410418	1.670607
H313	H	1.165437	-0.435894	0.792787
H314	H	1.415437	-0.185894	1.042787
H315	H	1.665437	0.064106	1.292787
H316	H	1.915437	0.314106	1.542787
O317	O	1.030006	-0.491624	0.928701
O318	O	1.280006	-0.241624	1.178701
O319	O	1.530006	0.008376	1.428701
O320	O	1.780006	0.258376	1.678701
H321	H	1.079301	-0.489173	0.965111
H322	H	1.329301	-0.239173	1.215111
H323	H	1.579301	0.010827	1.465111
H324	H	1.829301	0.260827	1.715111
H325	H	0.994491	-0.259803	0.921503
H326	H	1.244491	-0.009803	1.171503
H327	H	1.494491	0.240197	1.421503
H328	H	1.744491	0.490197	1.671503
O329	O	0.640408	-0.317774	0.222814
O330	O	0.890408	-0.067774	0.472814
O331	O	1.140408	0.182226	0.722814
O332	O	1.390408	0.432226	0.972814
H333	H	0.592343	-0.326107	0.185631
H334	H	0.842343	-0.076107	0.435631
H335	H	1.092343	0.173893	0.685631
H336	H	1.342343	0.423893	0.935631
O337	O	1.030271	-0.492382	0.787400
O338	O	1.280271	-0.242382	1.037400
O339	O	1.530271	0.007618	1.287400
O340	O	1.780271	0.257618	1.537400
H341	H	1.038580	-0.529653	0.835450
H342	H	1.288580	-0.279653	1.085450
H343	H	1.538580	-0.029653	1.335450
H344	H	1.788580	0.220347	1.585450
H345	H	0.991242	-0.263592	0.793934
H346	H	1.241242	-0.013592	1.043934
H347	H	1.491242	0.236408	1.293934
H348	H	1.741242	0.486408	1.543934
H349	H	0.507112	-0.242068	0.313227
H350	H	0.757112	0.007932	0.563227
H351	H	1.007112	0.257932	0.813227
H352	H	1.257112	0.507932	1.063227
O353	O	1.170285	-0.455527	0.926356
O354	O	1.420285	-0.205527	1.176356
O355	O	1.670285	0.044473	1.426356
O356	O	1.920285	0.294473	1.676356
H357	H	1.181200	-0.491710	0.877993
H358	H	1.431200	-0.241710	1.127993
H359	H	1.681200	0.008290	1.377993
H360	H	1.931200	0.258290	1.627993
O361	O	0.641987	-0.458851	0.260508
O362	O	0.891987	-0.208851	0.510508
O363	O	1.141987	0.041149	0.760508
O364	O	1.391987	0.291149	1.010508
H365	H	0.678229	-0.414557	0.238245
H366	H	0.928229	-0.164557	0.488245
H367	H	1.178229	0.085443	0.738245
H368	H	1.428229	0.335443	0.988245
H369	H	0.506403	-0.282008	0.454739
H370	H	0.756403	-0.032008	0.704739
H371	H	1.006403	0.217992	0.954739
H372	H	1.256403	0.467992	1.204739
O373	O	1.100057	-0.220159	0.785950
O374	O	1.350057	0.029841	1.035950
O375	O	1.600057	0.279841	1.285950
O376	O	1.850057	0.529841	1.535950
H377	H	1.141989	-0.245527	0.749071
H378	H	1.391989	0.004473	0.999071
H379	H	1.641989	0.254473	1.249071
H380	H	1.891989	0.504473	1.499071
O381	O	1.105830	-0.222702	0.926772
O382	O	1.355830	0.027298	1.176772
O383	O	1.605830	0.277298	1.426772
O384	O	1.855830	0.527298	1.676772
H385	H	1.147344	-0.250424	0.962439
H386	H	1.397344	-0.000424	1.212439
H387	H	1.647344	0.249576	1.462439
H388	H	1.897344	0.499576	1.712439
O389	O	0.640570	-0.260062	0.456229
O390	O	0.890570	-0.010062	0.706229
O391	O	1.140570	0.239938	0.956229
O392	O	1.390570	0.489938	1.206229
H393	H	0.701859	-0.259918	0.458152
H394	H	0.951859	-0.009918	0.708152
H395	H	1.201859	0.240082	0.958152
H396	H	1.451859	0.490082	1.208152
O397	O	0.641170	-0.223563	0.317446
O398	O	0.891170	0.026437	0.567446
O399	O	1.141170	0.276437	0.817446
O400	O	1.391170	0.526437	1.067446
H401	H	0.620863	-0.206683	0.372794
H402	H	0.870863	0.043317	0.622794
H403	H	1.120863	0.293317	0.872794
H404	H	1.370863	0.543317	1.122794
O405	O	0.641966	-0.387924	0.494134
O406	O	0.891966	-0.137924	0.744134
O407	O	1.141966	0.112076	0.994134
O408	O	1.391966	0.362076	1.244134
H409	H	0.703187	-0.385028	0.496085
H410	H	0.953187	-0.135028	0.746085
H411	H	1.203187	0.114972	0.996085
H412	H	1.453187	0.364972	1.246085
H413	H	0.507724	-0.380066	0.477785
H414	H	0.757724	-0.130066	0.727785
H415	H	1.007724	0.119934	0.977785
H416	H	1.257724	0.369934	1.227785
H417	H	0.978808	-0.811224	0.448122
H418	H	1.228808	-0.561224	0.698122
H419	H	1.478808	-0.311224	0.948122
H420	H	1.728808	-0.061224	1.198122
