data_functionalizedCrystal
_audit_creation_method	'MofGen! by Chris Wilmer'
_symmetry_space_group_name_H-M	'P1'
_symmetry_Int_Tables_number	1
_symmetry_cell_setting	triclinic
loop_
_symmetry_equiv_pos_as_xyz
  x,y,z
_cell_length_a	23.532407
_cell_length_b	17.699083
_cell_length_c	16.176319
_cell_angle_alpha	90.001389
_cell_angle_beta	89.988536
_cell_angle_gamma	96.934153
loop_
_atom_site_label
_atom_site_type_symbol
_atom_site_fract_x
_atom_site_fract_y
_atom_site_fract_z
O1	O	0.072020	-1.003713	-0.068639
O2	O	0.572020	-0.503713	0.431361
O3	O	0.081390	-0.783287	-0.068667
O4	O	0.581390	-0.283287	0.431333
O5	O	-0.006208	-0.900147	-0.068637
O6	O	0.493792	-0.400147	0.431363
O7	O	0.159618	-0.886853	-0.068669
O8	O	0.659618	-0.386853	0.431331
O9	O	-0.006213	-0.900131	0.068856
O10	O	0.493787	-0.400131	0.568856
O11	O	0.081384	-0.783271	0.068826
O12	O	0.581384	-0.283271	0.568826
O13	O	0.072014	-1.003697	0.068854
O14	O	0.572014	-0.503697	0.568854
Cu15	Cu	0.076699	-0.893483	0.081394
Cu16	Cu	0.576699	-0.393483	0.581394
Cu17	Cu	0.076705	-0.893502	-0.081207
Cu18	Cu	0.576705	-0.393502	0.418793
O19	O	0.159612	-0.886837	0.068824
O20	O	0.659612	-0.386837	0.568824
C21	C	0.081051	-0.755084	0.000076
C22	C	0.581051	-0.255084	0.500076
C23	C	0.080044	-0.671071	0.000066
C24	C	0.580044	-0.171071	0.500066
C25	C	-0.027427	-0.899801	0.000111
C26	C	0.472573	-0.399801	0.500111
C27	C	-0.090647	-0.898783	0.000118
C28	C	0.409353	-0.398783	0.500118
C29	C	0.072353	-1.031901	0.000109
C30	C	0.572353	-0.531901	0.500109
C31	C	0.073360	-1.115914	0.000114
C32	C	0.573360	-0.615914	0.500114
C33	C	-0.489570	-0.961554	0.000080
C34	C	0.010430	-0.461554	0.500080
C35	C	-0.548973	-0.960609	0.000074
C36	C	-0.048973	-0.460609	0.500074
O37	O	-0.585550	-1.018799	0.000051
O38	O	-0.085550	-0.518799	0.500051
N39	N	-0.571799	-0.891136	0.000066
N40	N	-0.071799	-0.391136	0.500066
C41	C	-0.535218	-0.822604	0.000055
C42	C	-0.035218	-0.322604	0.500055
O43	O	-0.560088	-0.763424	0.000047
O44	O	-0.060088	-0.263424	0.500047
C45	C	-0.475816	-0.823550	0.000056
C46	C	0.024184	-0.323550	0.500056
C47	C	-0.452994	-0.893028	0.000073
C48	C	0.047006	-0.393028	0.500073
C49	C	-0.466747	-1.031026	0.000096
C50	C	0.033253	-0.531026	0.500096
C51	C	-0.407348	-1.031972	0.000104
C52	C	0.092652	-0.531972	0.500104
C53	C	-0.370772	-0.963445	0.000096
C54	C	0.129228	-0.463445	0.500096
C55	C	-0.393595	-0.893973	0.000080
C56	C	0.106405	-0.393973	0.500080
C57	C	-0.439237	-0.755019	0.000040
C58	C	0.060763	-0.255019	0.500040
C59	C	-0.379832	-0.755971	0.000039
C60	C	0.120168	-0.255971	0.500039
C61	C	-0.357009	-0.825448	0.000056
C62	C	0.142991	-0.325448	0.500056
C63	C	-0.297620	-0.826391	0.000081
C64	C	0.202380	-0.326391	0.500081
N65	N	-0.274795	-0.895864	0.000089
N66	N	0.225205	-0.395864	0.500089
C67	C	-0.311371	-0.964391	0.000097
C68	C	0.188629	-0.464391	0.500097
C69	C	-0.659966	-0.820622	0.000053
C70	C	-0.159966	-0.320622	0.500053
C71	C	-0.719367	-0.819674	0.000058
C72	C	-0.219367	-0.319674	0.500058
C73	C	-0.733118	-0.957680	0.000075
C74	C	-0.233118	-0.457680	0.500075
C75	C	-0.673716	-0.958626	0.000076
C76	C	-0.173716	-0.458626	0.500076
C77	C	-0.637141	-0.890095	0.000061
C78	C	-0.137141	-0.390095	0.500061
C79	C	-0.186628	-0.966371	0.000114
C80	C	0.313372	-0.466371	0.500114
C81	C	-0.127223	-0.967310	0.000125
C82	C	0.372777	-0.467310	0.500125
C83	C	-0.113478	-0.829305	0.000104
C84	C	0.386522	-0.329305	0.500104
C85	C	-0.172877	-0.828365	0.000097
C86	C	0.327123	-0.328365	0.500097
C87	C	-0.209452	-0.896904	0.000099
C88	C	0.290548	-0.396904	0.500099
O89	O	-0.261008	-0.768232	0.000100
O90	O	0.238992	-0.268232	0.500100
O91	O	-0.286493	-1.023560	0.000094
O92	O	0.213507	-0.523560	0.500094
C93	C	0.180832	-0.887184	0.000073
C94	C	0.680832	-0.387184	0.500073
C95	C	0.244052	-0.888202	0.000062
C96	C	0.744052	-0.388202	0.500062
N97	N	0.076694	-0.893475	0.195759
N98	N	0.576694	-0.393475	0.695759
C99	C	0.131462	-0.622189	0.000056
C100	C	0.631462	-0.122189	0.500056
C101	C	0.130512	-0.543251	0.000067
C102	C	0.630512	-0.043251	0.500067
C103	C	0.078144	-0.513196	0.000082
C104	C	0.578144	-0.013196	0.500082
C105	C	0.026722	-0.562084	0.000094
C106	C	0.526722	-0.062084	0.500094
C107	C	0.027672	-0.641021	0.000089
C108	C	0.527672	-0.141021	0.500089
C109	C	0.022888	-0.243740	0.000115
C110	C	0.522888	0.256260	0.500115
C111	C	0.021942	-0.164797	0.000117
C112	C	0.521942	0.335203	0.500117
C113	C	0.125728	-0.145970	0.000093
C114	C	0.625728	0.354030	0.500093
C115	C	0.126678	-0.224907	0.000088
C116	C	0.626678	0.275093	0.500088
C117	C	0.075257	-0.273788	0.000105
C118	C	0.575257	0.226212	0.500105
C119	C	0.076287	-0.359382	0.000094
C120	C	0.576287	0.140618	0.500094
C121	C	0.077113	-0.427603	0.000086
C122	C	0.577113	0.072397	0.500086
N123	N	0.076706	-0.893516	-0.195573
N124	N	0.576706	-0.393516	0.304427
C125	C	0.037921	-0.945236	0.239037
C126	C	0.537921	-0.445236	0.739037
C127	C	0.037921	-0.945240	0.325584
C128	C	0.537921	-0.445240	0.825584
C129	C	0.076696	-0.893486	0.368852
C130	C	0.576696	-0.393486	0.868852
C131	C	0.115470	-0.841719	0.325568
C132	C	0.615470	-0.341719	0.825568
C133	C	0.115467	-0.841713	0.239023
C134	C	0.615467	-0.341713	0.739023
C135	C	0.115481	-0.841745	0.674597
C136	C	0.615481	-0.341745	1.174597
C137	C	0.115481	-0.841758	0.761148
C138	C	0.615481	-0.341758	1.261148
C139	C	0.037934	-0.945273	0.761158
C140	C	0.537934	-0.445273	1.261158
C141	C	0.037932	-0.945266	0.674612
C142	C	0.537932	-0.445266	1.174612
C143	C	0.076704	-0.893497	0.631336
C144	C	0.576704	-0.393497	1.131336
C145	C	0.076703	-0.893493	0.537492
C146	C	0.576703	-0.393493	1.037492
C147	C	0.076700	-0.893493	0.462695
C148	C	0.576700	-0.393493	0.962695
H149	H	-0.216401	-1.022182	0.000113
H150	H	0.283599	-0.522182	0.500113
O151	O	-0.003900	-1.001070	0.372258
O152	O	0.496100	-0.501070	0.872258
H153	H	0.002609	-0.992375	0.439708
H154	H	0.502609	-0.492375	0.939708
O155	O	-0.074023	-0.755394	0.000095
O156	O	0.425977	-0.255394	0.500095
H157	H	-0.028885	-0.767731	0.000093
H158	H	0.471115	-0.267731	0.500093
H159	H	-0.020705	-0.140330	0.000130
H160	H	0.479295	0.359670	0.500130
O161	O	-0.032571	-0.296458	0.000132
O162	O	0.467429	0.203542	0.500132
H163	H	-0.069143	-0.262294	0.000136
H164	H	0.430857	0.237706	0.500136
H165	H	-0.014197	-0.680820	0.000096
H166	H	0.485803	-0.180820	0.500096
O167	O	0.187945	-0.654605	0.000048
O168	O	0.687945	-0.154605	0.500048
H169	H	0.223539	-0.607349	0.000054
H170	H	0.723539	-0.107349	0.500054
O171	O	-0.003895	-1.001078	0.627941
O172	O	0.496105	-0.501078	1.127941
H173	H	0.003298	-1.060027	0.644540
H174	H	0.503298	-0.560027	1.144540
H175	H	0.006362	-0.987424	0.796402
H176	H	0.506362	-0.487424	1.296402
H177	H	-0.015917	-0.537607	0.000117
H178	H	0.484083	-0.037607	0.500117
O179	O	-0.003905	-1.001046	0.192364
O180	O	0.496095	-0.501046	0.692364
H181	H	0.003286	-1.059996	0.208961
H182	H	0.503286	-0.559996	0.708961
H183	H	0.172382	-0.503454	0.000058
H184	H	0.672382	-0.003454	0.500058
H185	H	-0.388773	-1.088547	0.000114
H186	H	0.111227	-0.588547	0.500114
H187	H	-0.496522	-1.086833	0.000099
H188	H	0.003478	-0.586833	0.500099
H189	H	0.147058	-0.799610	0.796376
H190	H	0.647058	-0.299610	1.296376
H191	H	-0.737943	-0.763099	0.000059
H192	H	-0.237943	-0.263099	0.500059
H193	H	-0.630189	-0.764811	0.000048
H194	H	-0.130189	-0.264811	0.500048
H195	H	-0.655139	-1.015201	0.000089
H196	H	-0.155139	-0.515201	0.500089
O197	O	0.157302	-0.785919	0.627924
O198	O	0.657302	-0.285919	1.127924
H199	H	0.184269	-0.749941	0.672554
H200	H	0.684269	-0.249941	1.172554
O201	O	0.181193	-0.093248	0.000083
O202	O	0.681193	0.406752	0.500083
H203	H	0.206259	-0.103895	0.056112
H204	H	0.706259	0.396105	0.556112
O205	O	0.157296	-0.785899	0.372230
O206	O	0.657296	-0.285899	0.872230
H207	H	0.150790	-0.794605	0.439682
H208	H	0.650790	-0.294605	0.939682
O209	O	-0.197491	-0.753426	0.000089
O210	O	0.302509	-0.253426	0.500089
H211	H	-0.224234	-0.749683	0.056127
H212	H	0.275766	-0.249683	0.556127
H213	H	0.147039	-0.799563	0.203787
H214	H	0.647039	-0.299563	0.703787
H215	H	-0.457808	-0.698442	0.000021
H216	H	0.042192	-0.198442	0.500021
O217	O	-0.102607	-1.042249	0.000131
O218	O	0.397393	-0.542249	0.500131
H219	H	-0.138024	-1.089739	0.000122
H220	H	0.361976	-0.589739	0.500122
O221	O	-0.772572	-1.031597	0.000081
O222	O	-0.272572	-0.531597	0.500081
H223	H	-0.799952	-1.034471	-0.055965
H224	H	-0.299952	-0.534471	0.444035
O225	O	-0.340381	-0.682053	0.000034
O226	O	0.159619	-0.182053	0.500034
H227	H	-0.366235	-0.633588	0.000030
H228	H	0.133765	-0.133588	0.500030
O229	O	0.183160	-0.257326	0.000085
O230	O	0.683160	0.242674	0.500085
H231	H	0.218756	-0.210073	0.000091
H232	H	0.718756	0.289927	0.500091
