data_functionalizedCrystal
_audit_creation_method	'MofGen! by Chris Wilmer'
_symmetry_space_group_name_H-M	'P1'
_symmetry_Int_Tables_number	1
_symmetry_cell_setting	triclinic
loop_
_symmetry_equiv_pos_as_xyz
  x,y,z
_cell_length_a	23.532407
_cell_length_b	23.532407
_cell_length_c	9.130307
_cell_angle_alpha	89.992076
_cell_angle_beta	90.003827
_cell_angle_gamma	82.848678
loop_
_atom_site_label
_atom_site_type_symbol
_atom_site_fract_x
_atom_site_fract_y
_atom_site_fract_z
O1	O	0.755257	0.069134	-0.121631
O2	O	0.589394	0.079137	-0.121676
O3	O	0.677327	-0.008796	-0.121626
O4	O	0.667324	0.157067	-0.121682
O5	O	0.677324	-0.008797	0.121973
O6	O	0.589391	0.079136	0.121923
O7	O	0.755254	0.069133	0.121968
Cu8	Cu	0.672322	0.074135	0.144188
Cu9	Cu	0.672326	0.074136	-0.143896
O10	O	0.667321	0.157066	0.121917
C11	C	0.568176	0.078882	0.000118
C12	C	0.504959	0.078116	0.000102
C13	C	0.677071	-0.030013	0.000177
C14	C	0.676305	-0.093230	0.000189
C15	C	0.105856	0.125350	0.000152
C16	C	0.046456	0.124638	0.000161
O17	O	0.009711	0.168424	0.000199
N18	N	0.023830	0.072362	0.000176
C19	C	0.060607	0.020794	0.000197
O20	O	0.035908	-0.023737	0.000213
C21	C	0.120006	0.021506	0.000199
C22	C	0.142629	0.073785	0.000169
C23	C	0.128479	0.177625	0.000123
C24	C	0.187876	0.178336	0.000111
C25	C	0.224649	0.126772	0.000128
C26	C	0.202025	0.074496	0.000157
C27	C	0.156783	-0.030062	0.000230
C28	C	0.216185	-0.029345	0.000233
C29	C	0.238808	0.022934	0.000202
C30	C	0.298194	0.023643	0.000161
N31	N	0.320820	0.075920	0.000146
C32	C	0.284048	0.127484	0.000129
C33	C	-0.064135	0.019302	0.000197
C34	C	-0.123533	0.018589	0.000186
C35	C	-0.137680	0.122434	0.000152
C36	C	-0.078281	0.123146	0.000153
C37	C	-0.041509	0.071578	0.000182
C38	C	0.408784	0.128974	0.000103
C39	C	0.468186	0.129680	0.000085
C40	C	0.482329	0.025836	0.000126
C41	C	0.422932	0.025129	0.000137
C42	C	0.386160	0.076702	0.000130
O43	O	0.334974	-0.020119	0.000129
O44	O	0.308755	0.172007	0.000133
C45	C	0.723539	-0.492333	0.000121
C46	C	0.722827	-0.551733	0.000110
O47	O	0.766613	-0.588478	0.000068
N48	N	0.670551	-0.574359	0.000097
C49	C	0.618983	-0.537582	0.000080
O50	O	0.574452	-0.562281	0.000066
C51	C	0.619695	-0.478182	0.000081
C52	C	0.671974	-0.455560	0.000109
C53	C	0.775814	-0.469710	0.000147
C54	C	0.776525	-0.410313	0.000161
C55	C	0.724961	-0.373540	0.000149
C56	C	0.672685	-0.396164	0.000123
C57	C	0.568127	-0.441406	0.000053
C58	C	0.568844	-0.382004	0.000053
C59	C	0.621123	-0.359381	0.000081
C60	C	0.621832	-0.299995	0.000124
N61	N	0.674109	-0.277368	0.000138
C62	C	0.725673	-0.314141	0.000150
C63	C	0.617491	-0.662324	0.000076
C64	C	0.616778	-0.721722	0.000085
C65	C	0.720623	-0.735869	0.000112
C66	C	0.721335	-0.676470	0.000113
C67	C	0.669767	-0.639698	0.000089
C68	C	0.727163	-0.189405	0.000181
C69	C	0.727869	-0.130003	0.000201
C70	C	0.624025	-0.115860	0.000166
C71	C	0.623318	-0.175257	0.000154
C72	C	0.674891	-0.212029	0.000156
O73	O	0.578070	-0.263215	0.000161
O74	O	0.770196	-0.289433	0.000144
C75	C	0.776472	0.069388	0.000170
C76	C	0.839689	0.070154	0.000177
C77	C	0.667577	0.178283	0.000110
C78	C	0.668343	0.241500	0.000090
N79	N	0.672324	0.074134	0.346810
N80	N	0.672328	0.074132	-0.346519
C81	C	0.750220	-0.003709	0.346845
C82	C	0.789172	-0.042629	0.423530
C83	C	0.789178	-0.042630	0.576863
C84	C	0.750226	-0.003707	0.653516
C85	C	0.711275	0.035213	0.576832
C86	C	0.711274	0.035210	0.423495
C87	C	0.633377	0.113052	0.576797
C88	C	0.633373	0.113056	0.423463
C89	C	0.594425	0.151974	0.653449
C90	C	0.555475	0.190898	0.576765
C91	C	0.555471	0.190897	0.423422
C92	C	0.594421	0.151976	0.346779
H93	H	0.486602	0.172255	0.000060
H94	H	0.526850	-0.352066	0.000031
H95	H	-0.034198	-0.022693	0.000208
H96	H	0.206289	0.220908	0.000086
H97	H	0.770444	-0.111587	0.000227
H98	H	-0.059867	0.165717	0.000137
H99	H	0.098544	0.219617	0.000115
H100	H	0.580748	-0.193677	0.000172
H101	H	0.404512	-0.017441	0.000140
H102	H	0.574207	-0.740136	0.000088
H103	H	0.525555	-0.459814	0.000022
H104	H	0.594429	0.151970	0.778302
H105	H	0.769159	-0.219337	0.000177
H106	H	-0.167632	0.164421	0.000145
H107	H	0.820885	-0.074321	0.361106
H108	H	0.820894	-0.074323	0.639299
H109	H	0.582043	-0.085909	0.000161
H110	H	0.378852	0.170970	0.000102
H111	H	0.817806	-0.499645	0.000152
H112	H	0.523761	0.222583	0.639185
H113	H	-0.141947	-0.023982	0.000187
H114	H	0.138375	-0.072634	0.000256
H115	H	0.523750	0.222588	0.360994
H116	H	0.750229	-0.003715	0.778368
H117	H	0.594423	0.151974	0.221927
H118	H	0.246123	-0.071339	0.000257
H119	H	0.512280	-0.016146	0.000134
H120	H	0.750224	-0.003708	0.221993
H121	H	0.819097	-0.391900	0.000178
H122	H	0.763906	-0.658056	0.000135
H123	H	0.762610	-0.765821	0.000117
H124	H	0.575496	-0.632386	0.000068
