data_functionalizedCrystal
_audit_creation_method	'MofGen! by Chris Wilmer'
_symmetry_space_group_name_H-M	'P1'
_symmetry_Int_Tables_number	1
_symmetry_cell_setting	triclinic
loop_
_symmetry_equiv_pos_as_xyz
  x,y,z
_cell_length_a	15.944551
_cell_length_b	14.421503
_cell_length_c	17.699083
_cell_angle_alpha	90.003394
_cell_angle_beta	96.609124
_cell_angle_gamma	90.003141
loop_
_atom_site_label
_atom_site_type_symbol
_atom_site_fract_x
_atom_site_fract_y
_atom_site_fract_z
O1	O	1.114324	0.077017	-0.097604
O2	O	0.869749	0.077040	-0.109638
O3	O	0.998946	0.077020	0.006556
O4	O	0.985127	0.077037	-0.213798
O5	O	0.998925	-0.077204	0.006539
O6	O	0.869728	-0.077183	-0.109656
O7	O	1.114303	-0.077207	-0.097621
Cu8	Cu	0.992013	-0.091277	-0.103640
Cu9	Cu	0.992038	0.091110	-0.103619
O10	O	0.985105	-0.077186	-0.213816
C11	C	0.838445	-0.000069	-0.109147
C12	C	0.745203	-0.000060	-0.107650
C13	C	0.530505	-0.000084	-0.032046
C14	C	0.469421	0.075959	-0.067146
C15	C	0.574482	-0.000071	-0.104940
C16	C	0.469423	-0.076093	-0.067180
C17	C	0.409575	-0.000086	-0.102317
C18	C	0.514627	0.076035	-0.140059
C19	C	0.514635	-0.076086	-0.140083
C20	C	0.453569	-0.000024	-0.175235
C21	C	0.669481	-0.000062	-0.106449
C22	C	0.314577	-0.000089	-0.100814
N23	N	0.992001	-0.219558	-0.103654
C24	C	0.932250	-0.469202	-0.157358
C25	C	1.008119	-0.531011	-0.172052
C26	C	0.992022	-0.408719	-0.103636
C27	C	0.916172	-0.531005	-0.088960
C28	C	0.992035	-0.591441	-0.103620
C29	C	1.067929	-0.469167	-0.118364
C30	C	0.975933	-0.469156	-0.035241
C31	C	1.051857	-0.530936	-0.049906
C32	C	0.992013	-0.303458	-0.103647
C33	C	0.992052	-0.696700	-0.103608
C34	C	1.145606	-0.000096	-0.098112
C35	C	1.238849	-0.000098	-0.099610
C36	C	0.998440	-0.000092	0.034746
C37	C	0.996955	-0.000092	0.118766
N38	N	0.992057	0.219392	-0.103600
C39	C	0.985611	-0.000072	-0.242005
C40	C	0.987097	-0.000066	-0.326026
C41	C	1.072791	-0.000101	0.167258
C42	C	1.071390	-0.000093	0.246203
C43	C	0.994152	-0.000082	0.276656
C44	C	0.918310	-0.000071	0.228158
C45	C	0.919712	-0.000073	0.149214
C46	C	0.912656	-0.000063	0.546531
C47	C	0.911260	-0.000064	0.625481
C48	C	1.064334	-0.000083	0.643520
C49	C	1.065735	-0.000085	0.564576
C50	C	0.989894	-0.000068	0.516085
C51	C	0.991414	-0.000076	0.430484
C52	C	0.992632	-0.000082	0.362256
H53	H	0.449385	0.140243	-0.036307
H54	H	0.855422	-0.000057	0.252959
C55	C	0.837284	-0.000110	0.096689
C56	C	0.769341	-0.000125	0.140253
C57	C	0.693394	-0.000166	0.091894
H58	H	0.834540	0.053658	0.065506
H59	H	0.834593	-0.053911	0.065524
H60	H	0.772031	0.053671	0.171405
H61	H	0.772058	-0.053889	0.171434
H62	H	0.690703	-0.053967	0.060729
H63	H	0.690658	0.053603	0.060713
H64	H	0.647286	-0.000184	0.121444
H65	H	0.962288	-0.441965	0.022573
C66	C	0.541300	0.161744	-0.181209
C67	C	0.580948	0.134715	-0.244285
C68	C	0.605542	0.213644	-0.282201
H69	H	0.492951	0.198070	-0.197714
H70	H	0.579452	0.197287	-0.147636
H71	H	0.542798	0.099187	-0.277852
H72	H	0.629306	0.098400	-0.227801
H73	H	0.643694	0.249187	-0.248628
H74	H	0.557189	0.249965	-0.298701
H75	H	0.632453	0.195316	-0.324998
H76	H	1.128630	-0.000097	0.539786
C77	C	1.156738	-0.000062	0.134345
C78	C	1.222851	-0.000040	0.193713
C79	C	1.300196	0.000014	0.163426
H80	H	1.160583	-0.053828	0.103932
H81	H	1.160517	0.053742	0.103950
H82	H	1.219073	-0.053837	0.224096
H83	H	1.219033	0.053723	0.224131
H84	H	1.303975	0.053817	0.133031
H85	H	1.304033	-0.053753	0.133014
H86	H	1.345063	0.000038	0.203702
H87	H	0.563965	0.000005	0.028449
H88	H	0.848360	-0.000058	0.650272
C89	C	1.146653	0.000103	0.696206
C90	C	1.150347	0.079462	0.742043
C91	C	1.226169	0.079668	0.790576
H92	H	1.149362	-0.053613	0.727448
H93	H	1.192877	0.000143	0.666789
H94	H	1.104136	0.079413	0.771458
H95	H	1.147653	0.133191	0.710821
H96	H	1.272392	0.079708	0.761159
H97	H	1.228871	0.025949	0.821813
H98	H	1.228689	0.133516	0.821677
H99	H	0.420283	0.000023	-0.235793
C100	C	0.442845	-0.161782	-0.025947
C101	C	0.482193	-0.161427	0.048971
C102	C	0.457741	-0.240348	0.086980
H103	H	0.383314	-0.161541	-0.025614
H104	H	0.459114	-0.215804	-0.051313
H105	H	0.465919	-0.107418	0.074330
H106	H	0.541723	-0.161681	0.048660
H107	H	0.474010	-0.294370	0.061614
H108	H	0.398210	-0.240100	0.087307
H109	H	0.484440	-0.240122	0.137813
H110	H	1.132093	-0.442119	-0.130839
C111	C	0.541365	-0.161914	-0.181038
C112	C	0.518748	-0.241325	-0.142623
C113	C	0.543372	-0.320414	-0.180315
H114	H	0.513982	-0.162588	-0.231622
H115	H	0.600802	-0.161030	-0.182068
H116	H	0.459322	-0.242210	-0.141601
H117	H	0.546128	-0.240682	-0.092041
H118	H	0.602809	-0.319530	-0.181345
H119	H	0.515987	-0.321078	-0.230898
H120	H	0.528037	-0.374303	-0.154252
H121	H	0.881754	-0.442096	-0.202826
H122	H	1.102464	-0.557872	-0.004466
C123	C	1.026116	-0.567196	-0.249225
C124	C	0.963337	-0.535944	-0.305262
C125	C	0.979875	-0.569265	-0.376362
H126	H	1.079558	-0.545135	-0.260120
H127	H	1.026463	-0.633068	-0.248552
H128	H	0.962998	-0.470085	-0.305937
H129	H	0.909889	-0.558002	-0.294392
H130	H	0.980222	-0.635137	-0.375689
H131	H	1.033319	-0.547202	-0.387249
H132	H	0.937279	-0.548072	-0.414391
C133	C	0.830555	-0.567092	-0.072516
C134	C	0.768222	-0.535790	-0.128934
C135	C	0.689339	-0.568999	-0.113813
H136	H	0.831211	-0.632953	-0.072186
H137	H	0.818667	-0.544973	-0.024317
H138	H	0.780107	-0.557913	-0.177120
H139	H	0.767539	-0.469933	-0.129274
H140	H	0.677450	-0.546881	-0.065614
H141	H	0.690004	-0.634860	-0.113482
H142	H	0.647035	-0.547759	-0.152085
H143	H	1.133144	-0.000102	0.285682
H144	H	0.850901	-0.000050	0.507059
