data_functionalizedCrystal
_audit_creation_method	'MofGen! by Chris Wilmer'
_symmetry_space_group_name_H-M	'P1'
_symmetry_Int_Tables_number	1
_symmetry_cell_setting	triclinic
loop_
_symmetry_equiv_pos_as_xyz
  x,y,z
_cell_length_a	16.992694
_cell_length_b	16.992695
_cell_length_c	16.053802
_cell_angle_alpha	92.741074
_cell_angle_beta	87.249047
_cell_angle_gamma	90.668223
loop_
_atom_site_label
_atom_site_type_symbol
_atom_site_fract_x
_atom_site_fract_y
_atom_site_fract_z
O1	O	1.053959	0.163815	-0.069325
O2	O	0.825560	0.161983	-0.069350
O3	O	0.938844	0.048699	-0.069331
O4	O	0.940676	0.277099	-0.069344
O5	O	0.932607	0.054907	0.069527
O6	O	0.819323	0.168191	0.069508
O7	O	1.047722	0.170023	0.069533
Zn8	Zn	0.932532	0.170093	0.091567
Zn9	Zn	0.940750	0.161913	-0.091384
O10	O	0.934438	0.283307	0.069514
C11	C	0.793082	0.162731	0.000076
C12	C	0.705597	0.155702	0.000067
C13	C	0.659607	0.223520	0.000064
C14	C	0.577405	0.216911	0.000076
C15	C	0.541197	0.142484	0.000085
C16	C	0.587193	0.074661	0.000091
C17	C	0.669393	0.081270	0.000085
C18	C	0.295881	0.115090	0.000109
C19	C	0.213676	0.108486	0.000112
C20	C	0.203893	0.250737	0.000099
C21	C	0.286095	0.257339	0.000088
C22	C	0.332084	0.189517	0.000098
N23	N	0.457174	0.135727	0.000094
N24	N	0.416105	0.196275	0.000094
C25	C	0.933370	0.022443	0.000098
C26	C	0.926341	-0.065042	0.000097
C27	C	0.994158	-0.111032	0.000105
C28	C	0.987550	-0.193233	0.000096
C29	C	0.913123	-0.229442	0.000086
C30	C	0.845300	-0.183446	0.000075
C31	C	0.851910	-0.101246	0.000078
C32	C	0.885729	-0.474757	0.000071
C33	C	0.879124	-0.556962	0.000071
C34	C	1.021375	-0.566745	0.000091
C35	C	1.027978	-0.484543	0.000099
C36	C	0.960155	-0.438554	0.000083
N37	N	0.906366	-0.313465	0.000079
N38	N	0.966913	-0.354533	0.000084
C39	C	1.080201	0.169275	0.000105
C40	C	1.167685	0.176304	0.000109
C41	C	0.939913	0.309563	0.000084
C42	C	0.946942	0.397047	0.000079
N43	N	0.926930	0.175675	0.216427
N44	N	0.946358	0.156325	-0.216243
C45	C	0.975152	0.127492	0.260129
C46	C	0.971241	0.131404	0.347535
C47	C	0.919110	0.183504	0.391237
C48	C	0.870883	0.231689	0.347529
C49	C	0.874791	0.227772	0.260125
C50	C	0.902039	0.200593	0.652644
C51	C	0.898136	0.204508	0.740055
C52	C	0.998493	0.104222	0.740054
C53	C	1.002400	0.100313	0.652648
C54	C	0.954169	0.148494	0.608948
N55	N	0.915113	0.187507	0.480580
N56	N	0.958163	0.144487	0.519606
H57	H	0.706838	0.026046	0.000087
H58	H	0.557705	0.014061	0.000110
H59	H	1.054765	-0.081557	0.000119
C60	C	1.128819	-0.194645	0.000136
C61	C	1.062097	-0.243786	0.000115
H62	H	1.174842	-0.225855	0.000153
H63	H	1.130619	-0.164544	-0.048284
H64	H	1.126250	-0.160217	0.048562
H65	H	1.064663	-0.278210	-0.048315
H66	H	1.060297	-0.273900	0.048539
H67	H	1.088584	-0.455068	0.000108
H68	H	0.828433	0.274107	0.383117
C69	C	0.838305	0.359920	0.233188
C70	C	0.821788	0.280739	0.212082
H71	H	0.805583	0.392617	0.203524
H72	H	0.828514	0.369705	0.291489
H73	H	0.892019	0.371139	0.218850
H74	H	0.768075	0.269518	0.226426
H75	H	0.831573	0.270950	0.153768
C76	C	0.805833	-0.678626	0.000070
C77	C	0.797308	-0.596766	0.000060
H78	H	0.755325	-0.703197	0.000071
H79	H	0.836145	-0.696266	-0.048345
H80	H	0.831800	-0.691931	0.048501
H81	H	0.771346	-0.583460	-0.048375
H82	H	0.766984	-0.579120	0.048480
C83	C	0.332713	-0.007313	-0.071269
C84	C	0.346424	0.040539	0.000111
H85	H	0.363922	-0.053338	-0.071268
H86	H	0.278581	-0.021891	-0.071260
H87	H	0.346350	0.020837	-0.119687
H88	H	0.332782	0.012391	0.048530
H89	H	0.400568	0.055116	0.000110
H90	H	0.796685	-0.063801	0.000071
C91	C	0.705357	-0.165514	0.000044
C92	C	0.763487	-0.223244	0.000057
H93	H	0.654850	-0.190085	0.000029
H94	H	0.708715	-0.131498	0.048466
H95	H	0.713079	-0.135817	-0.048380
H96	H	0.755769	-0.252937	0.048485
H97	H	0.760127	-0.257273	-0.048370
H98	H	1.037759	0.064994	0.775643
C99	C	1.074409	-0.697094	0.000087
C100	C	1.095922	-0.617298	0.000096
H101	H	1.120435	-0.728302	0.000082
H102	H	1.041936	-0.706391	0.048505
H103	H	1.046275	-0.710707	-0.048341
H104	H	1.124051	-0.603683	0.048527
H105	H	1.128408	-0.607996	-0.048327
H106	H	0.689081	0.284126	0.000056
H107	H	0.830503	-0.437322	0.000059
C108	C	1.072898	0.125516	0.445825
C109	C	1.024249	0.078447	0.395580
H110	H	1.105620	0.092820	0.475491
H111	H	1.104787	0.158540	0.411718
H112	H	1.041278	0.157101	0.484353
H113	H	1.055869	0.046867	0.357047
H114	H	0.992357	0.045410	0.429690
C115	C	0.896064	0.302248	0.554351
C116	C	0.849035	0.253568	0.604619
H117	H	0.863340	0.334953	0.524698
H118	H	0.929078	0.334152	0.588441
H119	H	0.927658	0.270649	0.515812
H120	H	0.817445	0.285166	0.643163
H121	H	0.816007	0.221660	0.570526
H122	H	0.539963	0.272136	0.000072
H123	H	0.184198	0.047875	0.000119
H124	H	1.017605	0.085070	0.224552
H125	H	1.044848	0.057889	0.617067
C126	C	0.202482	0.392006	0.000082
C127	C	0.153341	0.325285	0.000093
H128	H	0.171272	0.438030	0.000075
H129	H	0.232576	0.393790	0.048500
H130	H	0.236917	0.389453	-0.048346
H131	H	0.118910	0.327836	0.048524
H132	H	0.123234	0.323501	-0.048331
C133	C	0.799303	0.303227	0.731281
C134	C	0.840818	0.261769	0.788095
H135	H	0.763916	0.338569	0.760941
H136	H	0.835358	0.332097	0.697184
H137	H	0.770469	0.267127	0.697196
H138	H	0.869657	0.297868	0.822176
H139	H	0.804758	0.232897	0.822206
H140	H	0.315571	0.317945	0.000071
