data_functionalizedCrystal
_audit_creation_method	'MofGen! by Chris Wilmer'
_symmetry_space_group_name_H-M	'P1'
_symmetry_Int_Tables_number	1
_symmetry_cell_setting	triclinic
loop_
_symmetry_equiv_pos_as_xyz
  x,y,z
_cell_length_a	12.759401
_cell_length_b	12.594516
_cell_length_c	12.759393
_cell_angle_alpha	89.971950
_cell_angle_beta	89.980198
_cell_angle_gamma	90.015138
loop_
_atom_site_label
_atom_site_type_symbol
_atom_site_fract_x
_atom_site_fract_y
_atom_site_fract_z
Zn1	Zn	1.606256	-0.423717	-0.594006
Zn2	Zn	1.606143	-0.601733	-0.418334
Zn3	Zn	1.430555	-0.423766	-0.418345
Zn4	Zn	1.430543	-0.601651	-0.593974
O5	O	1.518375	-0.512716	-0.506165
O6	O	1.753262	-0.447345	-0.570711
O7	O	1.582809	-0.578180	-0.271314
O8	O	1.453915	-0.274813	-0.441664
O9	O	1.753179	-0.578132	-0.441646
O10	O	1.583002	-0.274777	-0.570722
O11	O	1.453805	-0.447428	-0.271322
O12	O	1.283533	-0.447349	-0.441634
O13	O	1.453894	-0.577992	-0.741000
O14	O	1.283524	-0.578040	-0.570668
O15	O	1.582990	-0.447265	-0.741023
O16	O	1.582797	-0.750667	-0.441615
O17	O	1.453784	-0.750607	-0.570657
C18	C	1.245407	-0.512692	-0.506149
C19	C	1.128631	-0.512707	-0.506168
C20	C	0.964075	-0.444753	-0.573483
C21	C	1.073799	-0.444732	-0.573476
C22	C	1.073732	-0.580714	-0.438869
C23	C	0.964010	-0.580739	-0.438882
C24	C	1.518306	-0.789257	-0.506154
C25	C	1.518372	-0.907563	-0.506185
C26	C	1.448195	-0.976822	-0.576322
C27	C	1.422594	-1.047690	-0.480455
C28	C	1.544069	-1.047494	-0.602068
C29	C	1.492720	-0.976873	-0.410268
C30	C	1.614240	-0.976670	-0.531945
C31	C	1.588675	-1.047506	-0.436013
C32	C	1.792408	-0.512742	-0.506181
C33	C	1.909184	-0.512753	-0.506188
C34	C	1.518453	-0.512614	-0.780198
C35	C	1.518487	-0.512571	-0.896975
C36	C	1.518472	-0.235095	-0.506198
C37	C	1.518514	-0.116790	-0.506212
C38	C	1.585712	-0.444490	-0.951851
C39	C	1.585730	-0.444444	-1.061575
C40	C	1.451294	-0.580569	-1.061538
C41	C	1.451272	-0.580608	-0.951816
C42	C	1.518357	-0.512741	-0.233197
C43	C	1.518527	-0.512485	-0.116421
H44	H	1.118384	-0.636064	-0.384070
H45	H	1.341587	-1.078908	-0.458689
H46	H	1.640470	-0.389004	-1.106250
H47	H	1.470950	-0.945979	-0.329169
H48	H	1.648082	-1.078347	-0.376643
H49	H	0.919316	-0.636119	-0.384081
H50	H	1.695229	-0.945454	-0.553757
H51	H	1.565747	-1.078515	-0.683145
H52	H	1.396521	-0.636047	-0.907135
H53	H	1.396572	-0.635965	-1.106202
H54	H	0.919440	-0.389394	-0.628287
H55	H	1.388743	-0.945784	-0.635548
H56	H	1.640440	-0.389086	-0.907203
H57	H	1.118487	-0.389361	-0.628276
