data_functionalizedCrystal
_audit_creation_method	'MofGen! by Chris Wilmer'
_symmetry_space_group_name_H-M	'P1'
_symmetry_Int_Tables_number	1
_symmetry_cell_setting	triclinic
loop_
_symmetry_equiv_pos_as_xyz
  x,y,z
_cell_length_a	12.594517
_cell_length_b	18.050589
_cell_length_c	12.594510
_cell_angle_alpha	90.033200
_cell_angle_beta	89.977213
_cell_angle_gamma	89.965502
loop_
_atom_site_label
_atom_site_type_symbol
_atom_site_fract_x
_atom_site_fract_y
_atom_site_fract_z
Zn1	Zn	1.627144	0.295599	-0.601865
Zn2	Zn	1.626973	0.419815	-0.423889
Zn3	Zn	1.449144	0.295643	-0.423894
Zn4	Zn	1.449073	0.419751	-0.601819
O5	O	1.538083	0.357702	-0.512867
O6	O	1.776067	0.312085	-0.578274
O7	O	1.603341	0.403389	-0.274944
O8	O	1.472858	0.191713	-0.447524
O9	O	1.775941	0.403346	-0.447515
O10	O	1.603634	0.191680	-0.578279
O11	O	1.472691	0.312160	-0.274948
O12	O	1.300189	0.312098	-0.447479
O13	O	1.472736	0.403237	-0.750771
O14	O	1.300136	0.403280	-0.578200
O15	O	1.603565	0.312023	-0.750805
O16	O	1.603272	0.523732	-0.447470
O17	O	1.472570	0.523685	-0.578195
C18	C	1.261542	0.357687	-0.512836
C19	C	1.143237	0.357699	-0.512848
C20	C	1.073981	0.308038	-0.441884
C21	C	1.003138	0.375782	-0.415705
C22	C	1.003281	0.289988	-0.539044
C23	C	1.073952	0.425479	-0.486618
C24	C	1.074101	0.339640	-0.610002
C25	C	1.003290	0.407430	-0.583860
C26	C	1.537924	0.550655	-0.512850
C27	C	1.537953	0.633200	-0.512879
C28	C	1.466914	0.832652	-0.583943
C29	C	1.440955	0.882104	-0.486818
C30	C	1.538033	0.784331	-0.512893
C31	C	1.564020	0.881960	-0.610030
C32	C	1.538108	0.930316	-0.512916
C33	C	1.512023	0.832695	-0.415717
C34	C	1.635133	0.832547	-0.538995
C35	C	1.609211	0.881977	-0.441803
C36	C	1.537987	0.700232	-0.512882
C37	C	1.538154	1.014412	-0.512917
C38	C	1.815704	0.357718	-0.512899
C39	C	1.934010	0.357724	-0.512913
C40	C	1.538162	0.357618	-0.790488
C41	C	1.538195	0.357582	-0.908794
C42	C	1.538232	1.163997	-0.512908
C43	C	1.538191	1.081451	-0.512929
C44	C	1.609378	0.307956	-1.048829
C45	C	1.635334	0.375720	-0.978009
C46	C	1.512286	0.289825	-0.978042
C47	C	1.564246	0.425360	-1.048760
C48	C	1.441153	0.339419	-1.048798
C49	C	1.467072	0.407230	-0.978011
C50	C	1.538067	0.357733	-0.236326
C51	C	1.538239	0.357560	-0.118021
H52	H	1.104866	0.482768	-0.464397
H53	H	1.669603	0.266050	-1.079922
H54	H	1.406693	0.810994	-0.643942
F55	F	1.593040	0.500266	-1.089189
H56	H	1.105020	0.266082	-0.381799
F57	F	0.962972	0.462399	-0.662337
F58	F	1.333894	0.319318	-1.089477
F59	F	1.333668	0.910554	-0.457964
H60	H	1.717193	0.810765	-0.561097
F61	F	1.114872	0.319628	-0.717328
F62	F	1.483618	0.214943	-0.937434
F63	F	1.388412	0.462133	-0.937625
H64	H	0.971970	0.391072	-0.333572
F65	F	1.483211	0.804529	-0.308325
H66	H	1.669386	0.903498	-0.381659
F67	F	1.742624	0.395797	-0.937366
H68	H	0.972182	0.232723	-0.561138
F69	F	1.592710	0.910250	-0.717389
