data_functionalizedCrystal
_audit_creation_method	'MofGen! by Chris Wilmer'
_symmetry_space_group_name_H-M	'P1'
_symmetry_Int_Tables_number	1
_symmetry_cell_setting	triclinic
loop_
_symmetry_equiv_pos_as_xyz
  x,y,z
_cell_length_a	13.032831
_cell_length_b	16.959454
_cell_length_c	13.032328
_cell_angle_alpha	97.149270
_cell_angle_beta	90.887223
_cell_angle_gamma	82.825094
loop_
_atom_site_label
_atom_site_type_symbol
_atom_site_fract_x
_atom_site_fract_y
_atom_site_fract_z
Zn1	Zn	1.498445	-0.533797	-0.780841
Zn2	Zn	1.520182	-0.651566	-0.608865
Zn3	Zn	1.348306	-0.500780	-0.587083
Zn4	Zn	1.326429	-0.647290	-0.758989
O5	O	1.423340	-0.583358	-0.683944
O6	O	1.645248	-0.565026	-0.776289
O7	O	1.515635	-0.619536	-0.462059
O8	O	1.368281	-0.394557	-0.612815
O9	O	1.661218	-0.651551	-0.649939
O10	O	1.478587	-0.418814	-0.755168
O11	O	1.389358	-0.508754	-0.446056
O12	O	1.201484	-0.504607	-0.591625
O13	O	1.330994	-0.644263	-0.905804
O14	O	1.185411	-0.612248	-0.717924
O15	O	1.457374	-0.560880	-0.921858
O16	O	1.494421	-0.761602	-0.628750
O17	O	1.352072	-0.758460	-0.739045
C18	C	1.156131	-0.554382	-0.650040
C19	C	1.041815	-0.542007	-0.635561
C20	C	0.982936	-0.589817	-0.691502
C21	C	0.864783	-0.577028	-0.676537
C22	C	1.423256	-0.788714	-0.683916
C23	C	1.423310	-0.876579	-0.683950
C24	C	1.349315	-1.246461	-0.741380
C25	C	1.497638	-1.249693	-0.626650
C26	C	1.497604	-1.167142	-0.626636
C27	C	1.423423	-1.124247	-0.683994
C28	C	1.349276	-1.163902	-0.741366
C29	C	1.571742	-1.127479	-0.569256
C30	C	1.571710	-1.044923	-0.569239
C31	C	1.497532	-1.002028	-0.626604
C32	C	1.423384	-1.041688	-0.683979
C33	C	1.349203	-0.998793	-0.741337
C34	C	1.275058	-1.038453	-0.798719
C35	C	1.275099	-1.121006	-0.798730
C36	C	1.497491	-0.919474	-0.626592
C37	C	1.349164	-0.916234	-0.741322
C38	C	1.691593	-0.612449	-0.717981
C39	C	1.805906	-0.624845	-0.732486
C40	C	1.389319	-0.605778	-0.952190
C41	C	1.374821	-0.615331	-1.066501
C42	C	1.423450	-0.377206	-0.683999
C43	C	1.423496	-0.289356	-0.684022
C44	C	1.415918	-0.588214	-1.243555
C45	C	1.430897	-0.578333	-1.125409
C46	C	1.457288	-0.560976	-0.416750
C47	C	1.471985	-0.551221	-0.302465
H48	H	1.214655	-1.003517	-0.845415
H49	H	1.315715	-0.654312	-1.103526
H50	H	0.827724	-0.526621	-0.617566
H51	H	1.019998	-0.640215	-0.750477
H52	H	1.531072	-0.512230	-1.265432
H53	H	1.632130	-1.162409	-0.522550
H54	H	1.288951	-1.278756	-0.788102
O55	O	0.854977	-0.691612	-0.810614
H56	H	0.940077	-0.691183	-0.810108
O57	O	1.337635	-0.639851	-1.292599
H58	H	1.357819	-0.702089	-1.274253
O59	O	0.992739	-0.475254	-0.557423
H60	H	0.907641	-0.475693	-0.557917
H61	H	1.288760	-0.881314	-0.788035
O62	O	1.577657	-1.295971	-0.564819
H63	H	1.538341	-1.324273	-0.506634
O64	O	1.195115	-1.163775	-0.860594
H65	H	1.207594	-1.228383	-0.850951
O66	O	1.651685	-1.002150	-0.507367
H67	H	1.703278	-1.045850	-0.467493
O68	O	1.577452	-0.876695	-0.564715
H69	H	1.629043	-0.920393	-0.524835
O70	O	1.509184	-0.526690	-1.076377
H71	H	1.508672	-0.527039	-0.991276
