data_functionalizedCrystal
_audit_creation_method	'MofGen! by Chris Wilmer'
_symmetry_space_group_name_H-M	'P1'
_symmetry_Int_Tables_number	1
_symmetry_cell_setting	triclinic
loop_
_symmetry_equiv_pos_as_xyz
  x,y,z
_cell_length_a	17.699077
_cell_length_b	17.699083
_cell_length_c	16.776229
_cell_angle_alpha	90.007545
_cell_angle_beta	89.993415
_cell_angle_gamma	96.718205
loop_
_atom_site_label
_atom_site_type_symbol
_atom_site_fract_x
_atom_site_fract_y
_atom_site_fract_z
O1	O	1.004081	-0.095691	-0.066279
O2	O	0.783702	-0.108149	-0.066283
O3	O	0.900118	0.008269	-0.066274
O4	O	0.887666	-0.212109	-0.066288
O5	O	0.900103	0.008276	0.066302
O6	O	0.783687	-0.108142	0.066293
O7	O	1.004066	-0.095684	0.066297
Zn8	Zn	0.893874	-0.101912	0.087345
Zn9	Zn	0.893894	-0.101921	-0.087331
O10	O	0.887650	-0.212102	0.066288
C11	C	0.755498	-0.107700	0.000004
C12	C	0.671479	-0.106363	0.000003
C13	C	0.632003	-0.105729	0.072271
C14	C	0.553061	-0.104461	0.072272
C15	C	0.513595	-0.103832	0.000004
C16	C	0.553076	-0.104463	-0.072270
C17	C	0.632018	-0.105726	-0.072270
C18	C	0.234713	-0.099370	-0.072271
C19	C	0.155766	-0.098110	-0.072265
C20	C	0.155756	-0.098105	0.072271
C21	C	0.234698	-0.099367	0.072271
C22	C	0.274173	-0.099995	-0.000002
C23	C	0.359772	-0.101369	-0.000002
C24	C	0.427997	-0.102464	0.000003
C25	C	0.899664	0.036470	0.000014
C26	C	0.898326	0.120488	0.000015
C27	C	1.032271	-0.096133	0.000008
C28	C	1.116289	-0.097470	0.000004
N29	N	0.893866	-0.101905	0.206556
C30	C	0.888104	-0.240303	-0.000002
C31	C	0.889443	-0.324321	-0.000008
C32	C	0.966659	0.169110	0.000017
C33	C	0.965397	0.248054	0.000010
C34	C	0.895800	0.278373	0.000006
C35	C	0.827461	0.229744	0.000001
C36	C	0.828724	0.150803	0.000003
C37	C	0.822366	0.548107	-0.000005
C38	C	0.821108	0.627055	-0.000004
C39	C	0.959039	0.645358	0.000002
C40	C	0.960302	0.566417	0.000003
C41	C	0.891963	0.517795	-0.000006
C42	C	0.893333	0.432196	0.000000
C43	C	0.894430	0.363971	0.000006
N44	N	0.893909	-0.101922	-0.206542
C45	C	0.945430	-0.050376	0.248277
C46	C	0.945434	-0.050376	0.331729
C47	C	0.893877	-0.101908	0.373459
C48	C	0.842307	-0.153439	0.331732
C49	C	0.842300	-0.153435	0.248281
C50	C	0.842334	-0.153454	0.668279
C51	C	0.842347	-0.153455	0.751735
C52	C	0.945469	-0.050394	0.751727
C53	C	0.945462	-0.050390	0.668276
C54	C	0.893889	-0.101919	0.626557
C55	C	0.893885	-0.101918	0.536068
C56	C	0.893885	-0.101913	0.463946
H57	H	0.123606	-0.097590	0.131120
H58	H	0.800344	-0.195411	0.634317
C59	C	0.277415	-0.100008	0.150818
C60	C	0.225949	-0.099160	0.214110
C61	C	0.265273	-0.099737	0.286480
H62	H	0.302359	-0.144607	0.153934
H63	H	0.314051	-0.056363	0.153866
H64	H	0.189326	-0.142802	0.211064
H65	H	0.201002	-0.054565	0.211021
H66	H	0.301909	-0.056091	0.289527
H67	H	0.290216	-0.144336	0.289587
H68	H	0.230360	-0.099154	0.329432
C69	C	0.113057	-0.097386	-0.150816
C70	C	0.164526	-0.098184	-0.214111
C71	C	0.125211	-0.097510	-0.286479
H72	H	0.076406	-0.141002	-0.153938
H73	H	0.088134	-0.052758	-0.153854
H74	H	0.189436	-0.142808	-0.211075
H75	H	0.201177	-0.054572	-0.211016
H76	H	0.100288	-0.052882	-0.289516
H77	H	0.088562	-0.141126	-0.289592
H78	H	0.160127	-0.098044	-0.329433
H79	H	1.016974	0.541735	0.000010
H80	H	1.014683	0.684956	0.000005
H81	H	0.764431	0.651737	-0.000006
H82	H	0.987422	-0.008417	0.365698
H83	H	0.266845	-0.099879	-0.131120
H84	H	0.800310	-0.195394	0.214312
H85	H	0.766721	0.508528	-0.000012
H86	H	0.520938	-0.103946	-0.131112
C87	C	1.001350	0.005747	0.623091
C88	C	0.989132	0.080063	0.643486
C89	C	1.040593	0.131829	0.601905
H90	H	1.051880	-0.002284	0.636743
H91	H	0.994005	-0.001511	0.567393
H92	H	0.996482	0.087319	0.699171
H93	H	0.938612	0.088119	0.629832
H94	H	1.033248	0.124571	0.546207
H95	H	1.091119	0.123791	0.615560
H96	H	1.032305	0.182259	0.615731
H97	H	0.800324	-0.195395	0.365713
H98	H	0.770794	0.254436	-0.000007
C99	C	0.674739	-0.106457	-0.150817
C100	C	0.623279	-0.105658	-0.214108
C101	C	0.662603	-0.106339	-0.286478
H102	H	0.711392	-0.062843	-0.153933
H103	H	0.699659	-0.151087	-0.153866
H104	H	0.598371	-0.061033	-0.211060
H105	H	0.586624	-0.149269	-0.211018
H106	H	0.687523	-0.150969	-0.289527
H107	H	0.699255	-0.062724	-0.289586
H108	H	0.627693	-0.105804	-0.329430
C109	C	1.042301	0.136343	-0.000022
C110	C	1.101874	0.195825	-0.000046
C111	C	1.171567	0.165672	-0.000097
H112	H	1.045767	0.105945	0.046197
H113	H	1.045705	0.105945	-0.046274
H114	H	1.098471	0.226210	0.046201
H115	H	1.098432	0.226228	-0.046261
H116	H	1.174971	0.135274	-0.046348
H117	H	1.175025	0.135274	0.046123
H118	H	1.211995	0.206025	-0.000120
C119	C	0.786277	-0.209436	0.796900
C120	C	0.741094	-0.254547	0.742503
C121	C	0.689431	-0.306115	0.784079
H122	H	0.813353	-0.240985	0.829444
H123	H	0.754791	-0.182263	0.829450
H124	H	0.772575	-0.281719	0.709967
H125	H	0.714001	-0.223019	0.709957
H126	H	0.657945	-0.278941	0.816630
H127	H	0.716513	-0.337658	0.816623
H128	H	0.658764	-0.336724	0.747178
H129	H	1.021041	0.287639	0.000014
H130	H	0.773080	0.111214	0.000001
C131	C	1.001442	0.005660	0.203119
C132	C	1.046587	0.050800	0.257522
C133	C	1.098186	0.102439	0.215954
H134	H	1.032966	-0.021435	0.170549
H135	H	0.974293	0.037176	0.170594
H136	H	1.073734	0.019289	0.290033
H137	H	1.015084	0.077912	0.290094
H138	H	1.071037	0.133954	0.183430
H139	H	1.129704	0.075337	0.183386
H140	H	1.128818	0.133077	0.252861
H141	H	0.664130	-0.106247	0.131121
H142	H	0.520925	-0.103932	0.131121
H143	H	0.987460	-0.008434	0.785704
