data_functionalizedCrystal
_audit_creation_method	'MofGen! by Chris Wilmer'
_symmetry_space_group_name_H-M	'P1'
_symmetry_Int_Tables_number	1
_symmetry_cell_setting	triclinic
loop_
_symmetry_equiv_pos_as_xyz
  x,y,z
_cell_length_a	14.044220
_cell_length_b	14.472310
_cell_length_c	14.044220
_cell_angle_alpha	89.998762
_cell_angle_beta	86.811122
_cell_angle_gamma	90.008418
loop_
_atom_site_label
_atom_site_type_symbol
_atom_site_fract_x
_atom_site_fract_y
_atom_site_fract_z
O1	O	1.277180	0.076746	-0.230162
O2	O	1.777180	0.576746	0.269838
O3	O	1.000508	0.076770	-0.221856
O4	O	1.500508	0.576770	0.278144
O5	O	1.134691	0.076749	-0.087673
O6	O	1.634691	0.576749	0.412327
O7	O	1.142997	0.076767	-0.364345
O8	O	1.642997	0.576767	0.135655
O9	O	1.134654	-0.076933	-0.087679
O10	O	1.634654	0.423067	0.412321
O11	O	1.000471	-0.076912	-0.221862
O12	O	1.500471	0.423088	0.278138
O13	O	1.277143	-0.076936	-0.230167
O14	O	1.777143	0.423064	0.269833
Cu15	Cu	1.138804	-0.090956	-0.226015
Cu16	Cu	1.638804	0.409044	0.273985
Cu17	Cu	1.138848	0.090790	-0.226009
Cu18	Cu	1.638848	0.590790	0.273991
O19	O	1.142960	-0.076915	-0.364350
O20	O	1.642960	0.423085	0.135650
C21	C	0.964868	-0.000069	-0.218223
C22	C	1.464868	0.499931	0.281777
C23	C	0.858725	-0.000060	-0.207379
C24	C	1.358725	0.499940	0.292621
N25	N	1.138780	-0.218787	-0.226019
N26	N	1.638780	0.281213	0.273981
C27	C	0.664388	-0.000079	-0.187553
C28	C	1.164388	0.499921	0.312447
C29	C	0.613258	-0.000078	-0.264467
C30	C	1.113258	0.499922	0.235533
C31	C	0.505122	-0.000089	-0.253435
C32	C	1.005122	0.499911	0.246565
C33	C	0.772534	-0.000069	-0.198583
C34	C	1.272534	0.499931	0.301417
C35	C	1.138846	-0.592879	-0.226005
C36	C	1.638846	-0.092879	0.273995
C37	C	1.066762	-0.553702	-0.297518
C38	C	1.566762	-0.053702	0.202482
C39	C	1.066968	-0.446614	-0.297819
C40	C	1.566968	0.053386	0.202181
C41	C	1.138812	-0.407287	-0.226012
C42	C	1.638812	0.092713	0.273988
C43	C	1.240266	-0.446131	-0.256192
C44	C	1.740266	0.053869	0.243808
C45	C	1.239871	-0.553253	-0.256710
C46	C	1.739871	-0.053253	0.243290
C47	C	1.110345	-0.553412	-0.124155
C48	C	1.610345	-0.053412	0.375845
C49	C	1.108117	-0.446285	-0.124630
C50	C	1.608117	0.053715	0.375370
C51	C	1.138800	-0.302399	-0.226015
C52	C	1.638800	0.197601	0.273985
C53	C	1.138866	-0.697767	-0.226005
C54	C	1.638866	-0.197767	0.273995
C55	C	1.312783	-0.000096	-0.233800
C56	C	1.812783	0.499904	0.266200
C57	C	1.418926	-0.000098	-0.244645
C58	C	1.918926	0.499902	0.255355
C59	C	1.131037	-0.000092	-0.052054
C60	C	1.631037	0.499908	0.447946
C61	C	1.120193	-0.000092	0.054088
C62	C	1.620193	0.499908	0.554088
N63	N	1.138878	0.218621	-0.225997
N64	N	1.638878	0.718621	0.274003
C65	C	1.146614	-0.000072	-0.399969
C66	C	1.646614	0.499928	0.100031
C67	C	1.157459	-0.000066	-0.506112
C68	C	1.657459	0.499934	-0.006112
C69	C	1.100366	-0.000077	0.248426
C70	C	1.600366	0.499923	0.748426
C71	C	1.177281	-0.000081	0.299556
C72	C	1.677281	0.499919	0.799556
C73	C	1.166249	-0.000072	0.407692
C74	C	1.666249	0.499928	0.907692
C75	C	1.111397	-0.000085	0.140280
C76	C	1.611397	0.499915	0.640280
H77	H	0.650697	-0.000069	-0.338600
H78	H	1.150697	0.499931	0.161400
H79	H	1.251414	-0.000025	0.262117
H80	H	1.751414	0.499975	0.762117
F81	F	1.003475	-0.000064	0.297359
F82	F	1.503475	0.499936	0.797359
F83	F	0.615455	-0.000088	-0.090661
F84	F	1.115455	0.499912	0.409339
H85	H	0.991826	-0.420352	-0.278595
H86	H	1.491826	0.079648	0.221405
F87	F	1.171444	-0.411309	-0.050959
F88	F	1.671444	0.088691	0.449041
F89	F	0.968250	-0.587383	-0.272633
F90	F	1.468250	-0.087383	0.227367
F91	F	1.091428	-0.588854	-0.395517
F92	F	1.591428	-0.088854	0.104483
F93	F	1.091872	-0.413099	-0.396385
F94	F	1.591872	0.086901	0.103615
H95	H	1.263700	-0.578226	-0.331246
H96	H	1.763700	-0.078226	0.168754
F97	F	1.010512	-0.413103	-0.094947
F98	F	1.510512	0.086897	0.405053
H99	H	1.295634	-0.579167	-0.207128
H100	H	1.795634	-0.079167	0.292872
H101	H	1.295538	-0.420656	-0.205843
H102	H	1.795538	0.079344	0.294157
H103	H	1.264447	-0.419291	-0.329931
H104	H	1.764447	0.080709	0.170069
F105	F	1.015135	-0.588759	-0.088969
F106	F	1.515135	-0.088759	0.411031
H107	H	1.162814	-0.578746	-0.070838
H108	H	1.662814	-0.078746	0.429162
