data_functionalizedCrystal
_audit_creation_method	'MofGen! by Chris Wilmer'
_symmetry_space_group_name_H-M	'P1'
_symmetry_Int_Tables_number	1
_symmetry_cell_setting	triclinic
loop_
_symmetry_equiv_pos_as_xyz
  x,y,z
_cell_length_a	11.792241
_cell_length_b	10.654559
_cell_length_c	9.130313
_cell_angle_alpha	89.999532
_cell_angle_beta	89.996286
_cell_angle_gamma	95.658950
loop_
_atom_site_label
_atom_site_type_symbol
_atom_site_fract_x
_atom_site_fract_y
_atom_site_fract_z
O1	O	-0.159465	1.667376	-0.121790
O2	O	-0.174642	1.301856	-0.121789
O3	O	-0.001904	1.493486	-0.121798
O4	O	-0.332203	1.475746	-0.121781
O5	O	-0.001908	1.493484	0.121801
O6	O	-0.174647	1.301854	0.121810
O7	O	-0.159469	1.667374	0.121809
Cu8	Cu	-0.167058	1.484614	0.144052
Cu9	Cu	-0.167053	1.484616	-0.144032
O10	O	-0.332208	1.475744	0.121818
C11	C	-0.173528	1.255060	0.000010
C12	C	-0.170187	1.115627	0.000010
C13	C	-0.065341	1.064384	0.000008
C14	C	-0.062209	0.933371	-0.000003
C15	C	-0.268778	0.904854	-0.000005
C16	C	-0.271909	1.035865	-0.000004
C17	C	0.036380	1.144146	0.000021
C18	C	0.141235	1.092904	0.000021
C19	C	0.144367	0.961891	0.000010
C20	C	0.042645	0.882119	-0.000001
C21	C	-0.374499	1.476859	0.000021
C22	C	-0.500521	1.480195	0.000027
C23	C	-0.731247	1.486328	-0.000009
C24	C	-0.602854	1.482920	0.000011
C25	C	0.040388	1.492371	-0.000004
C26	C	0.166409	1.489035	-0.000020
C27	C	-0.160584	1.714170	0.000007
C28	C	-0.163924	1.853603	-0.000002
N29	N	-0.167062	1.484621	0.346675
N30	N	-0.167041	1.484619	-0.346654
C31	C	-0.090599	1.569497	0.423323
C32	C	-0.090586	1.569493	0.576659
C33	C	-0.243507	1.399734	0.576687
C34	C	-0.243514	1.399733	0.423353
C35	C	-0.014147	1.654385	0.346644
C36	C	0.062321	1.739268	0.423293
C37	C	0.062334	1.739265	0.576629
C38	C	-0.014120	1.654378	0.653318
H39	H	0.033842	1.250825	0.000035
F40	F	0.143693	1.829596	0.341675
H41	H	0.045203	0.775441	-0.000023
H42	H	-0.305776	1.330618	0.360945
F43	F	0.255959	0.907358	-0.000014
F44	F	0.143724	1.829593	0.658202
F45	F	-0.014090	1.654371	0.816515
H46	H	-0.357284	1.077588	0.000011
H47	H	0.224052	1.157861	0.000017
F48	F	-0.377030	0.819953	-0.000013
F49	F	-0.014160	1.654398	0.183451
H50	H	-0.305754	1.330624	0.639137
