data_functionalizedCrystal
_audit_creation_method	'MofGen! by Chris Wilmer'
_symmetry_space_group_name_H-M	'P1'
_symmetry_Int_Tables_number	1
_symmetry_cell_setting	triclinic
loop_
_symmetry_equiv_pos_as_xyz
  x,y,z
_cell_length_a	13.635800
_cell_length_b	18.591511
_cell_length_c	12.908943
_cell_angle_alpha	105.340673
_cell_angle_beta	100.860631
_cell_angle_gamma	123.621742
loop_
_atom_site_label
_atom_site_type_symbol
_atom_site_fract_x
_atom_site_fract_y
_atom_site_fract_z
V1	V	2.073964	0.131253	0.379685
O2	O	1.987799	-0.007537	0.319496
O3	O	2.125066	0.261435	0.428023
O4	O	2.041624	0.128695	0.522040
O5	O	2.071818	0.126123	0.224829
V6	V	2.307076	0.114716	0.354975
O7	O	2.223568	0.167529	0.433887
O8	O	2.382571	0.078440	0.300773
O9	O	2.144372	-0.015466	0.306636
O10	O	2.451940	0.253506	0.415163
O11	O	2.367921	0.119846	0.509831
O12	O	2.227813	0.117274	0.212620
V13	V	2.573964	0.131253	0.379685
O14	O	2.487799	-0.007537	0.319496
O15	O	2.625066	0.261435	0.428023
O16	O	2.541624	0.128695	0.522040
O17	O	2.571818	0.126123	0.224829
V18	V	2.807076	0.114716	0.354975
O19	O	2.723568	0.167529	0.433887
O20	O	2.882571	0.078440	0.300773
O21	O	2.644372	-0.015466	0.306636
O22	O	2.951940	0.253506	0.415163
O23	O	2.867921	0.119846	0.509831
O24	O	2.727813	0.117274	0.212620
C25	C	2.066148	0.293188	0.435177
C26	C	2.148518	0.399610	0.475648
C27	C	2.534963	-0.047214	0.299482
C28	C	2.442212	-0.153635	0.259018
C29	C	2.302787	0.683061	0.100240
C30	C	2.380192	0.783065	0.138304
C31	C	2.426841	0.809677	0.341715
C32	C	2.349433	0.709673	0.303667
C33	C	2.287413	0.646372	0.182928
C34	C	2.334059	0.672984	0.386355
C35	C	2.256663	0.572989	0.348311
C36	C	2.194643	0.509682	0.227577
C37	C	2.210018	0.546377	0.144883
C38	C	2.396087	0.736287	0.507094
C39	C	2.380713	0.699598	0.589783
C40	C	2.303309	0.599601	0.551738
C41	C	2.241288	0.536294	0.431005
C42	C	2.287934	0.562906	0.634432
C43	C	2.210539	0.462911	0.596387
C44	C	2.163893	0.436299	0.392960
C45	C	1.959709	0.123863	0.555103
C46	C	1.974407	0.122632	0.671813
C47	C	2.034963	-0.047214	0.299482
C48	C	1.942212	-0.153635	0.259018
C49	C	2.141401	0.122110	0.179553
C50	C	2.116319	0.123335	0.062839
C51	C	2.566148	0.293188	0.435177
C52	C	2.648518	0.399610	0.475648
C53	C	2.189148	0.129820	0.905553
C54	C	2.202963	0.128664	1.015214
C55	C	2.015850	0.119158	1.000794
C56	C	2.002034	0.120314	0.891133
C57	C	2.088688	0.125646	0.843518
C58	C	2.074877	0.126809	0.733859
C59	C	1.887760	0.117296	0.719437
C60	C	1.901575	0.116141	0.829098
C61	C	2.459709	0.123863	0.555103
C62	C	2.474407	0.122632	0.671813
C63	C	2.641401	0.122110	0.179553
C64	C	2.616319	0.123335	0.062839
C65	C	1.982393	-0.208473	0.232859
C66	C	1.895251	-0.308471	0.194820
C67	C	1.767931	-0.353626	0.182948
C68	C	1.727749	-0.298781	0.209107
C69	C	1.814888	-0.198787	0.247138
C70	C	2.780832	0.454449	0.501810
C71	C	2.858246	0.554447	0.539855
C72	C	2.803342	0.599603	0.551729
C73	C	2.671017	0.544757	0.525567
C74	C	2.593607	0.444762	0.487531
C75	C	2.551358	0.209673	0.775733
C76	C	2.565195	0.208532	0.885404
C77	C	2.502072	0.120348	0.891153
C78	C	2.425119	0.033301	0.787222
C79	C	2.411290	0.034443	0.677554
C80	C	2.684302	0.211530	0.057126
C81	C	2.660736	0.212697	-0.052530
C82	C	2.569193	0.125668	-0.156471
C83	C	2.501203	0.037466	-0.150754
C84	C	2.524763	0.036300	-0.041099
H85	H	2.131628	0.428260	0.196603
C86	C	1.829845	0.195817	0.634212
C87	C	1.777368	0.112782	0.651325
H88	H	1.761709	0.193051	0.592182
H89	H	1.883981	0.251579	0.708721
H90	H	1.879418	0.199123	0.590107
H91	H	1.727802	0.109480	0.695437
H92	H	1.723210	0.057005	0.576802
C93	C	1.680290	0.025056	0.804270
C94	C	1.806330	0.110277	0.881445
H95	H	1.621493	0.021436	0.836593
H96	H	1.657693	0.025158	0.730097
H97	H	1.676202	-0.029223	0.793798
H98	H	1.810421	0.164556	0.891911
H99	H	1.828933	0.110184	0.955639
C100	C	2.398217	-0.111921	0.744145
C101	C	2.355743	-0.063624	0.793562
H102	H	2.355390	-0.171753	0.748071
H103	H	2.378951	-0.123713	0.663961
H104	H	2.489115	-0.073053	0.786905
H105	H	2.264846	-0.102488	0.750797
H106	H	2.374999	-0.051835	0.873760
C107	C	2.573774	0.304420	1.058891
C108	C	2.649775	0.304219	0.999634
H109	H	2.625993	0.363491	1.129413
H110	H	2.505622	0.298174	1.009454
H111	H	2.538181	0.251739	1.078012
H112	H	2.685361	0.356897	0.980506
H113	H	2.717951	0.310476	1.049082
H114	H	2.825558	0.417696	0.492142
C115	C	2.261007	0.050260	1.100590
C116	C	2.313396	0.133256	1.083403
H117	H	2.329188	0.053094	1.142680
H118	H	2.211397	0.046928	1.144650
H119	H	2.206921	-0.005529	1.026092
H120	H	2.367474	0.189045	1.157902
H121	H	2.363027	0.136598	1.039344
C122	C	2.475099	-0.117889	-0.097882
C123	C	2.450044	-0.060652	-0.034830
H124	H	2.428972	-0.177743	-0.094010
H125	H	2.447969	-0.129637	-0.178049
H126	H	2.565351	-0.085106	-0.064333
H127	H	2.359793	-0.093432	-0.068385
H128	H	2.477168	-0.048906	0.045352
C129	C	2.885297	0.752777	0.698248
C130	C	2.888446	0.709520	0.593537
H131	H	2.937849	0.820636	0.724058
H132	H	2.798649	0.726592	0.684363
H133	H	2.917280	0.740453	0.757341
H134	H	2.856455	0.721839	0.534440
H135	H	2.975112	0.735715	0.607415
H136	H	2.086058	-0.171721	0.242520
H137	H	1.696990	-0.435049	0.151980
H138	H	2.485868	0.400118	0.466226
C139	C	2.402680	-0.061468	0.504069
C140	C	2.326693	-0.061244	0.563331
H141	H	2.350452	-0.120549	0.433560
H142	H	2.438273	-0.008803	0.484934
H143	H	2.470838	-0.055221	0.553518
H144	H	2.258541	-0.067484	0.513885
H145	H	2.291081	-0.113925	0.582463
C146	C	2.171691	0.530103	-0.052388
C147	C	2.141852	0.476787	0.012164
H148	H	2.129621	0.487140	-0.134317
H149	H	2.142941	0.566538	-0.037911
H150	H	2.262750	0.572779	-0.028726
H151	H	2.050794	0.434116	-0.011492
H152	H	2.170595	0.440336	-0.002320
C153	C	2.566188	0.974780	0.490362
C154	C	2.495009	0.879262	0.474427
H155	H	2.608262	1.017735	0.572294
H156	H	2.629181	0.988805	0.459392
H157	H	2.509387	0.982582	0.450219
H158	H	2.551813	0.871459	0.514563
H159	H	2.432010	0.865233	0.505412
H160	H	2.252269	0.631516	0.001921
C161	C	2.705366	0.317257	0.716311
C162	C	2.620749	0.306653	0.769532
H163	H	2.748203	0.377141	0.712515
H164	H	2.767683	0.316191	0.761632
H165	H	2.657592	0.265636	0.638683
H166	H	2.668525	0.358270	0.847163
H167	H	2.558423	0.307727	0.724212
C168	C	2.839602	0.384851	0.143173
C169	C	2.784928	0.307203	0.171369
H170	H	2.901718	0.443918	0.213701
H171	H	2.880703	0.378618	0.093747
H172	H	2.773463	0.384684	0.102966
H173	H	2.851066	0.307366	0.211569
H174	H	2.743828	0.313438	0.220814
H175	H	2.965987	0.599089	0.561149
H176	H	2.113374	0.384754	0.294641
H177	H	1.927992	-0.353112	0.173527
C178	C	2.627481	0.639035	0.464111
C179	C	2.610675	0.594400	0.538608
H180	H	2.590222	0.669679	0.472154
H181	H	2.717357	0.685996	0.485144
H182	H	2.586242	0.591696	0.384508
H183	H	2.651923	0.641741	0.618213
H184	H	2.520783	0.547435	0.517583
H185	H	1.624075	-0.335562	0.199435
C186	C	2.427299	0.728011	0.783075
C187	C	2.356115	0.632494	0.767145
H188	H	2.469383	0.770968	0.865008
H189	H	2.490283	0.742029	0.752096
H190	H	2.370498	0.735817	0.742940
H191	H	2.412917	0.624686	0.807273
H192	H	2.293124	0.618471	0.798139
H193	H	2.392701	0.812931	0.070959
H194	H	2.459107	0.817709	0.538067
H195	H	2.513338	0.119431	0.980459
H196	H	2.716110	0.284524	-0.057162
H197	H	2.431224	0.751151	0.688089
H198	H	2.198037	0.433040	0.663722
H199	H	2.145440	0.131155	0.695094
H200	H	2.550020	0.126631	-0.245752
C201	C	1.846884	-0.068162	0.394130
C202	C	1.770717	-0.138509	0.275905
H203	H	1.819611	-0.030950	0.411882
H204	H	1.837520	-0.098858	0.444050
H205	H	1.935177	-0.026959	0.406628
H206	H	1.682425	-0.179716	0.263408
H207	H	1.780070	-0.107811	0.225970
H208	H	2.259713	0.134172	0.866790
H209	H	2.426669	-0.033390	-0.235398
H210	H	1.945299	0.114811	1.039578
