data_functionalizedCrystal
_audit_creation_method	'MofGen! by Chris Wilmer'
_symmetry_space_group_name_H-M	'P1'
_symmetry_Int_Tables_number	1
_symmetry_cell_setting	triclinic
loop_
_symmetry_equiv_pos_as_xyz
  x,y,z
_cell_length_a	16.109301
_cell_length_b	11.295501
_cell_length_c	16.109301
_cell_angle_alpha	85.398843
_cell_angle_beta	96.538519
_cell_angle_gamma	94.597193
loop_
_atom_site_label
_atom_site_type_symbol
_atom_site_fract_x
_atom_site_fract_y
_atom_site_fract_z
O1	O	1.108123	0.098954	-0.111857
O2	O	0.866062	0.098973	-0.125158
O3	O	0.993741	0.098951	0.002524
O4	O	0.980443	0.098976	-0.239539
O5	O	0.983741	-0.099100	0.012516
O6	O	0.856062	-0.099078	-0.115166
O7	O	1.098123	-0.099097	-0.101866
Cu8	Cu	0.976179	-0.117171	-0.107604
Cu9	Cu	0.988005	0.117047	-0.119420
O10	O	0.970443	-0.099075	-0.229548
C11	C	0.830087	-0.000050	-0.119623
C12	C	0.737792	-0.000043	-0.118008
N13	N	0.967868	-0.281907	-0.099292
C14	C	0.515519	-0.000049	-0.190016
C15	C	0.428799	-0.000057	-0.188491
C16	C	0.448672	-0.000068	-0.037002
C17	C	0.535391	-0.000068	-0.038527
C18	C	0.568812	-0.000053	-0.115037
C19	C	0.395373	-0.000060	-0.111987
C20	C	0.301346	-0.000069	-0.110334
C21	C	0.662845	-0.000047	-0.116690
C22	C	1.056147	-0.531196	-0.187595
C23	C	1.049872	-0.655859	-0.181307
C24	C	0.949048	-0.655901	-0.080425
C25	C	0.955323	-0.531237	-0.086712
C26	C	1.008873	-0.468889	-0.140300
C27	C	1.015143	-0.344223	-0.146592
C28	C	0.914324	-0.344267	-0.045706
C29	C	0.908050	-0.468930	-0.039418
C30	C	1.134098	-0.000071	-0.107400
C31	C	1.226393	-0.000070	-0.109015
C32	C	0.988203	-0.000075	0.038495
C33	C	0.986587	-0.000077	0.130790
N34	N	0.996323	0.281784	-0.127725
C35	C	0.975982	-0.000046	-0.265518
C36	C	0.977598	-0.000037	-0.357814
C37	C	1.058596	-0.000064	0.353062
C38	C	1.057072	-0.000054	0.439782
C39	C	0.905584	-0.000046	0.419907
C40	C	0.907109	-0.000048	0.333188
C41	C	0.983617	-0.000062	0.299769
C42	C	0.980568	-0.000051	0.473207
C43	C	0.978916	-0.000040	0.567233
C44	C	0.985270	-0.000071	0.205737
H45	H	0.542727	-0.000046	-0.252314
O46	O	1.141112	-0.000055	0.317010
H47	H	1.192993	-0.000039	0.368640
O48	O	1.113890	-0.463938	-0.245400
H49	H	1.161439	-0.407125	-0.208425
O50	O	0.823068	-0.000057	0.455959
H51	H	0.822821	0.080656	0.490926
H52	H	0.864453	-0.519711	0.004215
O53	O	0.371315	-0.000049	-0.269361
H54	H	0.409128	-0.000031	-0.322816
H55	H	0.421450	-0.000087	0.025290
O56	O	0.863344	-0.277056	0.005317
H57	H	0.821514	-0.220256	-0.037393
O58	O	0.826235	-0.000060	0.275698
H59	H	0.772776	-0.000071	0.313505
H60	H	1.118128	-0.000052	0.483170
H61	H	0.578785	-0.000075	0.022534
H62	H	1.058742	-0.293461	-0.190230
H63	H	0.905459	-0.706686	-0.036787
O64	O	1.100854	-0.723068	-0.232321
H65	H	1.139138	-0.658765	-0.270642
