data_functionalizedCrystal
_audit_creation_method	'MofGen! by Chris Wilmer'
_symmetry_space_group_name_H-M	'P1'
_symmetry_Int_Tables_number	1
_symmetry_cell_setting	triclinic
loop_
_symmetry_equiv_pos_as_xyz
  x,y,z
_cell_length_a	17.699104
_cell_length_b	9.616153
_cell_length_c	17.699083
_cell_angle_alpha	89.999090
_cell_angle_beta	96.712734
_cell_angle_gamma	90.004156
loop_
_atom_site_label
_atom_site_type_symbol
_atom_site_fract_x
_atom_site_fract_y
_atom_site_fract_z
O1	O	1.004065	0.115676	-0.095781
O2	O	0.783689	0.115673	-0.108217
O3	O	0.900103	0.115663	0.008190
O4	O	0.887651	0.115687	-0.212188
O5	O	0.900095	-0.115629	0.008183
O6	O	0.783680	-0.115618	-0.108224
O7	O	1.004057	-0.115615	-0.095788
Zn8	Zn	0.893867	-0.152339	-0.102007
Zn9	Zn	0.893878	0.152397	-0.101998
O10	O	0.887642	-0.115604	-0.212194
C11	C	0.755488	0.000027	-0.107772
C12	C	0.671471	0.000026	-0.106427
N13	N	0.893865	-0.360313	-0.102012
C14	C	0.146600	0.000047	-0.167171
C15	C	0.225543	0.000051	-0.168430
C16	C	0.274161	0.000043	-0.100095
C17	C	0.243831	0.000045	-0.030496
C18	C	0.164889	0.000051	-0.029238
C19	C	0.562197	0.000024	-0.035569
C20	C	0.641144	0.000014	-0.036833
C21	C	0.622852	0.000024	-0.174762
C22	C	0.543909	0.000029	-0.173503
C23	C	0.513587	0.000039	-0.103905
C24	C	0.427987	0.000037	-0.102541
C25	C	0.359759	0.000035	-0.101459
C26	C	0.831564	-0.419349	-0.164273
C27	C	0.831356	-0.580517	-0.164098
C28	C	0.877107	-0.581107	-0.022950
C29	C	0.876647	-0.419890	-0.023330
C30	C	0.973140	-0.419696	-0.118073
C31	C	0.972617	-0.580924	-0.119853
C32	C	1.032258	0.000034	-0.096233
C33	C	1.116275	0.000045	-0.097578
C34	C	0.899653	0.000017	0.036383
C35	C	0.898314	0.000016	0.120402
N36	N	0.893887	0.360372	-0.101987
C37	C	0.888093	0.000045	-0.240388
C38	C	0.889431	0.000054	-0.324406
C39	C	0.966647	0.000015	0.169017
C40	C	0.965385	0.000028	0.247961
C41	C	0.895789	0.000031	0.278287
C42	C	0.827451	0.000036	0.229665
C43	C	0.828714	0.000034	0.150723
C44	C	0.822356	0.000047	0.548028
C45	C	0.821098	0.000045	0.626976
C46	C	0.959026	0.000041	0.645266
C47	C	0.960289	0.000039	0.566324
C48	C	0.891952	0.000051	0.517709
C49	C	0.893321	0.000041	0.432110
C50	C	0.894419	0.000032	0.363885
H51	H	0.107020	0.000043	-0.222818
H52	H	0.140200	0.000052	0.027432
H53	H	0.819980	-0.621521	-0.008471
H54	H	0.920323	-0.380833	0.024401
H55	H	1.014670	0.000038	0.684858
O56	O	0.491476	0.000038	-0.247210
H57	H	0.455071	-0.094236	-0.249941
H58	H	0.841282	-0.620086	-0.222843
H59	H	0.250230	0.000066	-0.225100
O60	O	0.989501	-0.631589	-0.196869
H61	H	1.045230	-0.589645	-0.209074
O62	O	0.529506	0.000016	0.039499
H63	H	0.493992	0.094296	0.043386
O64	O	0.755009	0.000021	0.098287
H65	H	0.752284	0.094297	0.061887
H66	H	0.283422	0.000047	0.025143
H67	H	0.647550	0.000022	-0.231432
H68	H	0.841314	-0.380590	-0.223221
O69	O	1.034550	-0.369126	-0.057935
H70	H	1.077288	-0.308517	-0.085298
H71	H	0.921304	-0.619391	0.024510
O72	O	0.746031	0.000052	0.659690
H73	H	0.713212	0.094334	0.640164
O74	O	0.994642	-0.365866	-0.192808
H75	H	0.949060	-0.296179	-0.219342
O76	O	1.036878	-0.634210	-0.063692
H77	H	1.013600	-0.703666	-0.021978
O78	O	0.752384	0.000044	0.262368
H79	H	0.719551	-0.094220	0.242823
H80	H	0.680728	0.000011	0.018817
O81	O	1.041714	0.000027	0.136314
H82	H	1.074545	-0.094232	0.155859
O83	O	0.754058	-0.365763	-0.150849
H84	H	0.759715	-0.297266	-0.100026
O85	O	0.753456	-0.631664	-0.150386
H86	H	0.715785	-0.541246	-0.143857
H87	H	0.818847	-0.382315	-0.009203
O88	O	1.039086	0.000003	0.300399
H89	H	1.087691	-0.000025	0.266049
O90	O	1.035352	0.000055	0.533613
H91	H	1.082658	0.000076	0.580682
H92	H	0.766711	0.000057	0.508455
