data_functionalizedCrystal
_audit_creation_method	'MofGen! by Chris Wilmer'
_symmetry_space_group_name_H-M	'P1'
_symmetry_Int_Tables_number	1
_symmetry_cell_setting	triclinic
loop_
_symmetry_equiv_pos_as_xyz
  x,y,z
_cell_length_a	11.026660
_cell_length_b	9.065218
_cell_length_c	7.540329
_cell_angle_alpha	90.001757
_cell_angle_beta	89.997403
_cell_angle_gamma	83.199640
loop_
_atom_site_label
_atom_site_type_symbol
_atom_site_fract_x
_atom_site_fract_y
_atom_site_fract_z
O1	O	1.616961	-0.619565	-0.147476
O2	O	1.262881	-0.549017	-0.147479
O3	O	1.447240	-0.371474	-0.147474
O4	O	1.432602	-0.797109	-0.147481
O5	O	1.447229	-0.371468	0.147491
O6	O	1.262870	-0.549012	0.147486
O7	O	1.616950	-0.619559	0.147489
Cu8	Cu	1.439909	-0.584285	0.174420
Cu9	Cu	1.439922	-0.584292	-0.174410
O10	O	1.432591	-0.797103	0.147484
C11	C	1.217522	-0.535999	0.000004
C12	C	1.082383	-0.497201	0.000002
C13	C	0.870080	-0.564245	-0.000004
C14	C	1.009753	-0.604348	-0.000001
C15	C	1.445828	-0.316134	0.000006
C16	C	1.441621	-0.151242	-0.000003
C17	C	1.662309	-0.632577	0.000003
C18	C	1.797449	-0.671376	-0.000008
C19	C	1.434004	-0.852443	0.000000
C20	C	1.438210	-1.017335	-0.000003
N21	N	1.439909	-0.584282	0.419769
N22	N	1.439932	-0.584286	-0.419759
H23	H	1.050970	-0.725764	0.000008
H24	H	1.041168	-0.375784	-0.000113
C25	C	0.814403	-0.400225	-0.000003
C26	C	0.730633	-0.339271	0.153163
C27	C	0.674958	-0.175247	0.153165
C28	C	0.703054	-0.072178	-0.000000
C29	C	0.786828	-0.133130	-0.153178
C30	C	0.842502	-0.297154	-0.153179
H31	H	0.709831	-0.415570	0.266555
H32	H	0.612943	-0.130127	0.266558
H33	H	0.661840	0.049242	0.000001
H34	H	0.807630	-0.056830	-0.266570
H35	H	0.904518	-0.342274	-0.266572
H36	H	0.838671	-0.792784	0.000002
