data_functionalizedCrystal
_audit_creation_method	'MofGen! by Chris Wilmer'
_symmetry_space_group_name_H-M	'P1'
_symmetry_Int_Tables_number	1
_symmetry_cell_setting	triclinic
loop_
_symmetry_equiv_pos_as_xyz
  x,y,z
_cell_length_a	17.699077
_cell_length_b	12.811415
_cell_length_c	16.176319
_cell_angle_alpha	84.562354
_cell_angle_beta	89.993140
_cell_angle_gamma	83.663755
loop_
_atom_site_label
_atom_site_type_symbol
_atom_site_fract_x
_atom_site_fract_y
_atom_site_fract_z
O1	O	1.004676	0.132702	-0.078683
O2	O	1.504676	0.632702	0.421317
O3	O	0.784375	0.149978	-0.079982
O4	O	1.284375	0.649978	0.420018
O5	O	0.900067	-0.011467	-0.067872
O6	O	1.400067	0.488533	0.432128
O7	O	0.888984	0.294147	-0.090792
O8	O	1.388984	0.794147	0.409208
O9	O	0.900051	-0.011478	0.069621
O10	O	1.400051	0.488522	0.569621
O11	O	0.784359	0.149967	0.057512
O12	O	1.284359	0.649967	0.557512
O13	O	1.004660	0.132692	0.058811
O14	O	1.504660	0.632692	0.558811
Cu15	Cu	0.894508	0.141329	0.070716
Cu16	Cu	1.394508	0.641329	0.570716
Cu17	Cu	0.894527	0.141341	-0.091886
Cu18	Cu	1.394527	0.641341	0.408114
O19	O	0.888968	0.294137	0.046702
O20	O	1.388968	0.794137	0.546702
C21	C	0.756167	0.149355	-0.011189
C22	C	1.256167	0.649355	0.488811
C23	C	0.672140	0.147501	-0.011051
C24	C	1.172140	0.647501	0.488949
C25	C	0.632660	0.146622	0.063963
C26	C	1.132660	0.646622	0.563963
C27	C	0.553710	0.144863	0.064096
C28	C	1.053710	0.644863	0.564096
C29	C	0.514240	0.143991	-0.010787
C30	C	1.014240	0.643991	0.489213
C31	C	0.553726	0.144867	-0.085807
C32	C	1.053726	0.644867	0.414193
C33	C	0.632676	0.146618	-0.085938
C34	C	1.132676	0.646618	0.414062
C35	C	0.235331	0.137804	-0.085279
C36	C	0.735331	0.637804	0.414721
C37	C	0.156376	0.136056	-0.085142
C38	C	0.656376	0.636056	0.414858
C39	C	0.156365	0.136049	0.064755
C40	C	0.656365	0.636049	0.564755
C41	C	0.235315	0.137800	0.064624
C42	C	0.735315	0.637800	0.564624
C43	C	0.274794	0.138670	-0.010395
C44	C	0.774794	0.638670	0.489605
C45	C	0.360401	0.140575	-0.010538
C46	C	0.860401	0.640575	0.489462
C47	C	0.428634	0.142094	-0.010646
C48	C	0.928634	0.642094	0.489354
C49	C	0.899438	-0.050575	0.003805
C50	C	1.399438	0.449425	0.503805
C51	C	0.897577	-0.167089	0.012538
C52	C	1.397577	0.332911	0.512538
C53	C	0.894084	-0.386008	-0.120966
C54	C	1.394084	0.113992	0.379034
C55	C	0.892336	-0.495483	-0.112765
C56	C	1.392336	0.004517	0.387235
C57	C	0.892326	-0.495516	0.037140
C58	C	1.392326	0.004484	0.537140
C59	C	0.894075	-0.386040	0.028939
C60	C	1.394075	0.113960	0.528939
C61	C	0.894955	-0.331291	-0.050117
C62	C	1.394955	0.168709	0.449883
C63	C	0.896709	-0.221815	-0.058317
C64	C	1.396709	0.278185	0.441683
C65	C	0.896694	-0.221848	0.091587
C66	C	1.396694	0.278152	0.591587
C67	C	0.894945	-0.331323	0.099788
C68	C	1.394945	0.168677	0.599788
C69	C	1.032868	0.133315	-0.009983
C70	C	1.532868	0.633315	0.490017
C71	C	1.116895	0.135169	-0.010126
C72	C	1.616895	0.635169	0.489874
C73	C	0.889597	0.333245	-0.024977
C74	C	1.389597	0.833245	0.475023
C75	C	0.891458	0.449759	-0.033715
C76	C	1.391458	0.949759	0.466285
N77	N	0.894500	0.141320	0.185082
N78	N	1.394500	0.641320	0.685082
N79	N	0.894541	0.141342	-0.206252
N80	N	1.394541	0.641342	0.293748
C81	C	0.945744	0.069861	0.233706
C82	C	1.445744	0.569861	0.733706
C83	C	0.945748	0.069860	0.320253
C84	C	1.445748	0.569860	0.820253
C85	C	0.894511	0.141323	0.358174
C86	C	1.394511	0.641323	0.858174
C87	C	0.843261	0.212785	0.309544
C88	C	1.343261	0.712785	0.809544
C89	C	0.843254	0.212781	0.222999
C90	C	1.343254	0.712781	0.722999
C91	C	0.843287	0.212805	0.658571
C92	C	1.343287	0.712805	1.158571
C93	C	0.843300	0.212806	0.745122
C94	C	1.343300	0.712806	1.245122
C95	C	0.945781	0.069884	0.755825
C96	C	1.445781	0.569884	1.255825
C97	C	0.945774	0.069879	0.669280
C98	C	1.445774	0.569879	1.169280
C99	C	0.894522	0.141337	0.620658
C100	C	1.394522	0.641337	1.120658
C101	C	0.894518	0.141336	0.526814
C102	C	1.394518	0.641336	1.026814
C103	C	0.894518	0.141330	0.452016
C104	C	1.394518	0.641330	0.952016
H105	H	0.521570	0.144130	0.125181
H106	H	1.021570	0.644130	0.625181
N107	N	0.113790	0.135092	0.145676
N108	N	0.613790	0.635092	0.645676
H109	H	0.122442	0.199710	0.174087
H110	H	0.622442	0.699710	0.674087
H111	H	0.057678	0.135272	0.134236
H112	H	0.557678	0.635272	0.634236
N113	N	0.277885	0.138751	0.145389
N114	N	0.777885	0.638751	0.645389
H115	H	0.240894	0.137927	0.192932
H116	H	0.740894	0.637927	0.692932
H117	H	0.316576	0.074437	0.153478
H118	H	0.816576	0.574437	0.653478
N119	N	0.897631	-0.162834	0.168011
N120	N	1.397631	0.337166	0.668011
H121	H	0.944188	-0.190526	0.202847
H122	H	1.444188	0.309474	0.702847
H123	H	0.898846	-0.085187	0.150756
H124	H	1.398846	0.414813	0.650756
N125	N	1.001057	-0.007193	0.808273
N126	N	1.501057	0.492807	1.308273
H127	H	0.992115	-0.081675	0.798803
H128	H	1.492115	0.418325	1.298803
H129	H	1.054781	0.004902	0.792270
H130	H	1.554781	0.504902	1.292270
H131	H	0.801573	0.271003	0.775996
H132	H	1.301573	0.771003	1.275996
N133	N	0.113802	0.135112	-0.165912
N134	N	0.613802	0.635112	0.334088
H135	H	0.150792	0.135925	-0.213456
H136	H	0.650792	0.635925	0.286544
H137	H	0.086978	0.069345	-0.164235
H138	H	0.586978	0.569345	0.335765
N139	N	0.788007	0.289868	0.606135
N140	N	1.288007	0.789868	1.106135
H141	H	0.755552	0.335139	0.643293
H142	H	1.255552	0.835139	1.143293
H143	H	0.817115	0.336222	0.566734
H144	H	1.317115	0.836222	1.066734
N145	N	1.001030	-0.007211	0.628383
N146	N	1.501030	0.492789	1.128383
H147	H	0.993248	0.003629	0.566179
H148	H	1.493248	0.503629	1.066179
H149	H	1.054761	0.004812	0.642591
H150	H	1.554761	0.504812	1.142591
H151	H	0.987471	0.011672	0.202836
H152	H	1.487471	0.511672	0.702836
N153	N	0.895020	-0.326896	-0.206208
N154	N	1.395020	0.173104	0.293792
H155	H	0.941575	-0.354530	-0.236929
H156	H	1.441575	0.145470	0.263071
H157	H	0.847821	-0.337310	-0.238127
H158	H	1.347821	0.162690	0.261873
H159	H	0.891624	-0.540030	-0.170459
H160	H	1.391624	-0.040030	0.329541
N161	N	0.897607	-0.162715	-0.143567
N162	N	1.397607	0.337285	0.356433
H163	H	0.945180	-0.125893	-0.149690
H164	H	1.445180	0.374107	0.350310
H165	H	0.896743	-0.214022	-0.187175
H166	H	1.396743	0.285978	0.312825
N167	N	0.891392	-0.554578	0.122400
N168	N	1.391392	-0.054578	0.622400
H169	H	0.890157	-0.632233	0.116841
H170	H	1.390157	-0.132233	0.616841
H171	H	0.938566	-0.544075	0.154326
H172	H	1.438566	-0.044075	0.654326
N173	N	0.787992	0.289858	0.350441
N174	N	1.287992	0.789858	0.850441
H175	H	0.795772	0.279021	0.412645
H176	H	1.295772	0.779021	0.912645
H177	H	0.796962	0.364303	0.329720
H178	H	1.296962	0.864303	0.829720
N179	N	0.894006	-0.390378	0.185051
N180	N	1.394006	0.109622	0.685051
H181	H	0.892770	-0.468034	0.179497
H182	H	1.392770	0.031966	0.679497
H183	H	0.941179	-0.379874	0.216979
H184	H	1.441179	0.120126	0.716979
H185	H	0.801525	0.270968	0.183410
H186	H	1.301525	0.770968	0.683410
N187	N	0.675227	0.147573	0.144730
N188	N	1.175227	0.647573	0.644730
H189	H	0.638234	0.146748	0.192271
H190	H	1.138234	0.646748	0.692271
H191	H	0.713919	0.083259	0.152820
H192	H	1.213919	0.583259	0.652820
N193	N	0.277908	0.138734	-0.166187
N194	N	0.777908	0.638734	0.333813
H195	H	0.240921	0.137918	-0.213603
H196	H	0.740921	0.637918	0.286397
H197	H	0.304736	0.204497	-0.174393
H198	H	0.804736	0.704497	0.325607
H199	H	0.521584	0.144150	-0.146778
H200	H	1.021584	0.644150	0.353222
N201	N	1.001044	-0.007177	0.372696
N202	N	1.501044	0.492823	0.872696
H203	H	1.033514	-0.052432	0.335539
H204	H	1.533514	0.447568	0.835539
H205	H	1.034615	0.032993	0.405564
H206	H	1.534615	0.532993	0.905564
H207	H	0.664819	0.147336	-0.147023
H208	H	1.164819	0.647336	0.352977
