data_functionalizedCrystal
_audit_creation_method	'MofGen! by Chris Wilmer'
_symmetry_space_group_name_H-M	'P1'
_symmetry_Int_Tables_number	1
_symmetry_cell_setting	triclinic
loop_
_symmetry_equiv_pos_as_xyz
  x,y,z
_cell_length_a	15.995280
_cell_length_b	10.908925
_cell_length_c	9.483335
_cell_angle_alpha	83.005383
_cell_angle_beta	99.301253
_cell_angle_gamma	71.775127
loop_
_atom_site_label
_atom_site_type_symbol
_atom_site_fract_x
_atom_site_fract_y
_atom_site_fract_z
O1	O	-1.072161	-0.185168	0.120909
O2	O	-0.825519	-0.205702	0.120906
O3	O	-0.981534	-0.008491	0.120902
O4	O	-0.916146	-0.382379	0.120913
O5	O	-1.013265	0.031649	-0.120875
O6	O	-0.857250	-0.165562	-0.120870
O7	O	-1.103892	-0.145028	-0.120867
Cu8	Cu	-0.983468	-0.151630	-0.142945
Cu9	Cu	-0.945943	-0.199100	0.142984
O10	O	-0.947877	-0.342239	-0.120863
C11	C	-0.810305	-0.184799	0.000018
C12	C	-0.717699	-0.182302	0.000017
C13	C	-1.003510	0.059422	0.000015
C14	C	-1.021707	0.201980	0.000020
C15	C	-0.381234	-0.173124	0.000037
C16	C	-0.384657	-0.315548	0.000581
C17	C	-0.481030	-0.318155	0.000029
C18	C	-0.548158	-0.177678	0.000028
C19	C	-0.547084	-0.083598	-0.138035
C20	C	-0.450545	-0.081873	-0.138143
C21	C	-0.415010	-0.124613	0.136802
C22	C	-0.510531	-0.130183	0.138619
C23	C	-0.642499	-0.180244	0.000018
C24	C	-0.286896	-0.170553	0.000038
N25	N	-1.009868	-0.118241	-0.344052
C26	C	-0.119102	-0.165949	0.000028
C27	C	-0.211693	-0.168500	0.000049
C28	C	-0.974103	0.398302	0.000022
C29	C	-0.955294	0.250961	0.000020
C30	C	-0.925900	0.589847	0.000025
C31	C	-0.907699	0.447289	0.000023
C32	C	-0.975700	-0.161468	-0.583682
C33	C	-0.953711	-0.189262	-0.416276
N34	N	-0.919551	-0.232479	0.344090
H35	H	-0.479309	-0.390308	0.099002
H36	H	-0.855204	-0.313855	-0.593812
H37	H	-0.556683	-0.029034	0.146957
H38	H	-0.884514	0.183824	0.000009
H39	H	-0.836925	0.380149	0.000012
H40	H	-0.573747	-0.115955	-0.240782
N41	N	-1.115469	0.290897	0.000008
H42	H	-1.115619	0.383550	0.000007
H43	H	-1.134989	0.259366	0.089637
H44	H	-1.074224	-0.036869	-0.406143
N45	N	-1.067859	0.487216	0.000032
H46	H	-1.110956	0.485558	-0.089594
H47	H	-1.067929	0.579823	0.000088
N48	N	-0.351172	-0.206695	0.275422
H49	H	-0.374126	-0.173899	0.361791
H50	H	-0.289525	-0.199741	0.277234
N51	N	-0.320243	-0.410009	0.131729
H52	H	-0.288212	-0.361403	0.192065
H53	H	-0.274576	-0.481708	0.098670
N54	N	-0.353280	-0.366177	-0.129829
H55	H	-0.336857	-0.297257	-0.189258
H56	H	-0.403199	-0.386591	-0.191372
N57	N	-0.423865	-0.124457	-0.274844
H58	H	-0.474803	-0.144173	-0.334466
H59	H	-0.368384	-0.205868	-0.247970
N60	N	-1.060945	-0.053689	-0.665919
H61	H	-1.064570	-0.049114	-0.773852
H62	H	-1.060458	0.033025	-0.639403
N63	N	-0.512301	-0.370616	-0.131290
H64	H	-0.512704	-0.311991	-0.222632
H65	H	-0.575089	-0.372546	-0.132068
N66	N	-0.451593	0.057734	-0.146487
H67	H	-0.409546	0.063823	-0.057994
H68	H	-0.514737	0.117812	-0.150127
N69	N	-0.609259	0.054459	-0.144860
H70	H	-0.638791	0.057352	-0.058313
H71	H	-0.657068	0.082287	-0.237394
H72	H	-0.508482	-0.198951	0.240757
N73	N	-0.415641	0.013958	0.138039
H74	H	-0.352696	0.016273	0.141815
H75	H	-0.437439	0.044518	0.226138
H76	H	-0.889360	-0.270643	-0.354184
