data_functionalizedCrystal
_audit_creation_method	'MofGen! by Chris Wilmer'
_symmetry_space_group_name_H-M	'P1'
_symmetry_Int_Tables_number	1
_symmetry_cell_setting	triclinic
loop_
_symmetry_equiv_pos_as_xyz
  x,y,z
_cell_length_a	21.395362
_cell_length_b	13.032721
_cell_length_c	21.395355
_cell_angle_alpha	97.165964
_cell_angle_beta	89.956060
_cell_angle_gamma	97.222741
loop_
_atom_site_label
_atom_site_type_symbol
_atom_site_fract_x
_atom_site_fract_y
_atom_site_fract_z
Zn1	Zn	0.926247	-0.415745	-0.386233
Zn2	Zn	0.912862	-0.590486	-0.294757
Zn3	Zn	0.821458	-0.415794	-0.281438
Zn4	Zn	0.808142	-0.590507	-0.399463
O5	O	0.867177	-0.503133	-0.340473
O6	O	1.012151	-0.438895	-0.374135
O7	O	0.900708	-0.567324	-0.205313
O8	O	0.846533	-0.269539	-0.284228
O9	O	1.002318	-0.567277	-0.306928
O10	O	0.923520	-0.269504	-0.361220
O11	O	0.833554	-0.438978	-0.195527
O12	O	0.732011	-0.438999	-0.297057
O13	O	0.823837	-0.567313	-0.485385
O14	O	0.722228	-0.567361	-0.383770
O15	O	0.910608	-0.438916	-0.475665
O16	O	0.887796	-0.736737	-0.319757
O17	O	0.810859	-0.736753	-0.396685
C18	C	0.704385	-0.503188	-0.340404
C19	C	0.634740	-0.503237	-0.340392
C20	C	0.596943	-0.570163	-0.385490
C21	C	0.531509	-0.570138	-0.385516
C22	C	0.503875	-0.503197	-0.340433
C23	C	0.541681	-0.436257	-0.295331
C24	C	0.607114	-0.436278	-0.295311
C25	C	0.400790	-0.494778	-0.283387
C26	C	0.335358	-0.494765	-0.283407
C27	C	0.302059	-0.503129	-0.340497
C28	C	0.334199	-0.511527	-0.397570
C29	C	0.399631	-0.511547	-0.397549
C30	C	0.432925	-0.503167	-0.340451
C31	C	0.193311	-0.570031	-0.385627
C32	C	0.127877	-0.569998	-0.385654
C33	C	0.138050	-0.436123	-0.295464
C34	C	0.203483	-0.436150	-0.295443
C35	C	0.231110	-0.503110	-0.340524
C36	C	0.846447	-0.774665	-0.361116
C37	C	0.837636	-0.890828	-0.369968
C38	C	0.871809	-0.942574	-0.335881
C39	C	0.862703	-1.062634	-0.345029
C40	C	1.030605	-0.503078	-0.340542
C41	C	1.100248	-0.503055	-0.340571
C42	C	0.867231	-0.503112	-0.503894
C43	C	0.867254	-0.503103	-0.573535
C44	C	0.888005	-0.230541	-0.319763
C45	C	0.896880	-0.114378	-0.310937
C46	C	0.912434	-0.436244	-0.601188
C47	C	0.912436	-0.436199	-0.666620
C48	C	0.867264	-0.503032	-0.704398
C49	C	0.822076	-0.569895	-0.676738
C50	C	0.822070	-0.569931	-0.611306
C51	C	0.855132	-0.597135	-0.815225
C52	C	0.855142	-0.597102	-0.880656
C53	C	0.867276	-0.502921	-0.906210
C54	C	0.879414	-0.408772	-0.866327
C55	C	0.879409	-0.408807	-0.800895
C56	C	0.867264	-0.503000	-0.775348
C57	C	0.912462	-0.436008	-1.004811
C58	C	0.912460	-0.435961	-1.070245
C59	C	0.822102	-0.569667	-1.080362
C60	C	0.822101	-0.569704	-1.014930
C61	C	0.867284	-0.502876	-0.977158
C62	C	0.867165	-0.503079	-0.177681
C63	C	0.867286	-0.502793	-0.108018
H64	H	0.427897	-0.487962	-0.236894
C65	C	0.920441	-0.882363	-0.287306
H66	H	0.940703	-0.930397	-0.267110
H67	H	0.899690	-0.839843	-0.256761
H68	H	0.950943	-0.839715	-0.308087
C69	C	0.814070	-1.122846	-0.393606
H70	H	0.814327	-1.195641	-0.393380
H71	H	0.824564	-1.104959	-0.434362
H72	H	0.773311	-1.105097	-0.383036
C73	C	0.962140	-0.362659	-0.697045
H74	H	0.989051	-0.322870	-0.665179
H75	H	0.941660	-0.317115	-0.719090
H76	H	0.986385	-0.402634	-0.725630
H77	H	0.949225	-0.381825	-0.570438
C78	C	0.297583	-0.520718	-0.460374
H79	H	0.326094	-0.525726	-0.494359
H80	H	0.276657	-0.460824	-0.461394
H81	H	0.267411	-0.581291	-0.464117
C82	C	0.772378	-0.643494	-0.580888
H83	H	0.745477	-0.683299	-0.612757
H84	H	0.748130	-0.603550	-0.552296
H85	H	0.792875	-0.689039	-0.558854
H86	H	0.637889	-0.381775	-0.258586
H87	H	0.845085	-0.673809	-0.794423
H88	H	0.500729	-0.624637	-0.422242
C89	C	0.434984	-0.520770	-0.460323
H90	H	0.405786	-0.525741	-0.494329
H91	H	0.455869	-0.581352	-0.464049
H92	H	0.465102	-0.460885	-0.461322
H93	H	0.115552	-0.381613	-0.258760
C94	C	0.945516	-1.054173	-0.262360
H95	H	0.965777	-1.102209	-0.242165
H96	H	0.924766	-1.011653	-0.231814
H97	H	0.976018	-1.011525	-0.283141
C98	C	0.511286	-0.362625	-0.245742
H99	H	0.466903	-0.372204	-0.252209
H100	H	0.527399	-0.292431	-0.249641
H101	H	0.520800	-0.377824	-0.204779
H102	H	0.215806	-0.624548	-0.422338
H103	H	0.801641	-0.935409	-0.405926
H104	H	0.097103	-0.624495	-0.422382
H105	H	0.889291	-0.332148	-0.768424
C106	C	0.245062	-0.362544	-0.245827
H107	H	0.219234	-0.322678	-0.218977
H108	H	0.274101	-0.317074	-0.266371
H109	H	0.267494	-0.402474	-0.221514
H110	H	0.619432	-0.624686	-0.422199
C111	C	0.893165	-0.305229	-0.894431
H112	H	0.891546	-0.318706	-0.939113
H113	H	0.933927	-0.272263	-0.881075
H114	H	0.862616	-0.260866	-0.880455
C115	C	0.300003	-0.485601	-0.220634
H116	H	0.256262	-0.486822	-0.228823
H117	H	0.315565	-0.421946	-0.195793
H118	H	0.306360	-0.542420	-0.198564
C119	C	0.962151	-0.362484	-0.963259
H120	H	0.989053	-0.322643	-0.989101
H121	H	0.986398	-0.402458	-0.940795
H122	H	0.941651	-0.316971	-0.934253
C123	C	0.962161	-0.362413	-1.100662
H124	H	0.989071	-0.322628	-1.068794
H125	H	0.941678	-0.316865	-1.122703
H126	H	0.986407	-0.402379	-1.129251
H127	H	0.785316	-0.624073	-1.111120
C128	C	0.772406	-0.643258	-0.984511
H129	H	0.745505	-0.683061	-1.016380
H130	H	0.748159	-0.603303	-0.955923
H131	H	0.792897	-0.688805	-0.962471
C132	C	0.772390	-0.643415	-0.718291
H133	H	0.778868	-0.633827	-0.761222
H134	H	0.731458	-0.628143	-0.706377
H135	H	0.776199	-0.713639	-0.712918
C136	C	0.841798	-0.700658	-0.924524
H137	H	0.843549	-0.687151	-0.967153
H138	H	0.801100	-0.734097	-0.916322
H139	H	0.872527	-0.744610	-0.917167
