data_functionalizedCrystal
_audit_creation_method	'MofGen! by Chris Wilmer'
_symmetry_space_group_name_H-M	'P1'
_symmetry_Int_Tables_number	1
_symmetry_cell_setting	triclinic
loop_
_symmetry_equiv_pos_as_xyz
  x,y,z
_cell_length_a	13.897449
_cell_length_b	12.594516
_cell_length_c	13.897441
_cell_angle_alpha	89.973623
_cell_angle_beta	89.979267
_cell_angle_gamma	90.017332
loop_
_atom_site_label
_atom_site_type_symbol
_atom_site_fract_x
_atom_site_fract_y
_atom_site_fract_z
Zn1	Zn	1.474714	-0.423672	-0.545409
Zn2	Zn	1.974714	0.076328	-0.045409
Zn3	Zn	1.474612	-0.601683	-0.384123
Zn4	Zn	1.974612	-0.101683	0.115877
Zn5	Zn	1.313403	-0.423722	-0.384128
Zn6	Zn	1.813403	0.076278	0.115872
Zn7	Zn	1.313389	-0.601613	-0.545375
Zn8	Zn	1.813389	-0.101613	-0.045375
O9	O	1.394029	-0.512672	-0.464759
O10	O	1.894029	-0.012672	0.035241
O11	O	1.609682	-0.447293	-0.524027
O12	O	2.109682	0.052707	-0.024027
O13	O	1.453191	-0.578126	-0.249142
O14	O	1.953191	-0.078126	0.250858
O15	O	1.334849	-0.274770	-0.405539
O16	O	1.834849	0.225230	0.094461
O17	O	1.609607	-0.578077	-0.405530
O18	O	2.109607	-0.078077	0.094470
O19	O	1.453364	-0.274733	-0.524032
O20	O	1.953364	0.225267	-0.024032
O21	O	1.334751	-0.447380	-0.249145
O22	O	1.834751	0.052620	0.250855
O23	O	1.178419	-0.447312	-0.405506
O24	O	1.678419	0.052688	0.094494
O25	O	1.334826	-0.577958	-0.680362
O26	O	1.834826	-0.077958	-0.180362
O27	O	1.178409	-0.578007	-0.523973
O28	O	1.678409	-0.078007	-0.023973
O29	O	1.453350	-0.447226	-0.680387
O30	O	1.953350	0.052774	-0.180387
O31	O	1.453177	-0.750619	-0.405497
O32	O	1.953177	-0.250619	0.094503
O33	O	1.334728	-0.750568	-0.523968
O34	O	1.834728	-0.250568	-0.023968
C35	C	1.143415	-0.512658	-0.464737
C36	C	1.643415	-0.012658	0.035263
C37	C	1.036201	-0.512678	-0.464750
C38	C	1.536201	-0.012678	0.035250
C39	C	0.839906	-0.512682	-0.464776
C40	C	1.339906	-0.012682	0.035224
C41	C	0.949139	-0.512676	-0.464759
C42	C	1.449139	-0.012676	0.035241
C43	C	1.393966	-0.789213	-0.464749
C44	C	1.893966	-0.289213	0.035251
C45	C	1.394027	-0.907519	-0.464778
C46	C	1.894027	-0.407519	0.035222
C47	C	1.329596	-0.976783	-0.529169
C48	C	1.829596	-0.476783	-0.029169
C49	C	1.306093	-1.047649	-0.441152
C50	C	1.806093	-0.547649	0.058848
C51	C	1.417619	-1.047452	-0.552810
C52	C	1.917619	-0.547452	-0.052810
C53	C	1.370477	-0.976827	-0.376714
C54	C	1.870477	-0.476827	0.123286
C55	C	1.482044	-0.976623	-0.488431
C56	C	1.982044	-0.476623	0.011569
C57	C	1.458574	-1.047457	-0.400353
C58	C	1.958574	-0.547457	0.099647
C59	C	1.645622	-0.512687	-0.464781
C60	C	2.145622	-0.012687	0.035219
C61	C	1.752836	-0.512694	-0.464791
C62	C	2.252836	-0.012694	0.035209
C63	C	1.394098	-0.512578	-0.716352
C64	C	1.894098	-0.012578	-0.216352
C65	C	1.394127	-0.512538	-0.823566
C66	C	1.894127	-0.012538	-0.323566
C67	C	1.394119	-0.235052	-0.464789
C68	C	1.894119	0.264948	0.035211
C69	C	1.394157	-0.116746	-0.464802
C70	C	1.894157	0.383254	0.035198
C71	C	1.394153	-0.512466	-1.019861
C72	C	1.894153	-0.012466	-0.519861
C73	C	1.394136	-0.512509	-0.910629
C74	C	1.894136	-0.012509	-0.410629
C75	C	1.394017	-0.512689	-0.214145
C76	C	1.894017	-0.012689	0.285855
C77	C	1.394174	-0.512430	-0.106931
C78	C	1.894174	-0.012430	0.393069
H79	H	1.275011	-0.945749	-0.583543
H80	H	1.775011	-0.445749	-0.083543
H81	H	1.350490	-0.945932	-0.302256
H82	H	1.850490	-0.445932	0.197744
O83	O	1.523535	-1.084206	-0.335202
O84	O	2.023535	-0.584206	0.164798
C85	C	1.572134	-1.089668	-0.168852
C86	C	2.072134	-0.589668	0.331148
C87	C	1.498492	-1.047997	-0.242532
C88	C	1.998492	-0.547997	0.257468
H89	H	1.551924	-1.060391	-0.093914
H90	H	2.051924	-0.560391	0.406086
H91	H	1.572161	-1.180181	-0.169699
H92	H	2.072161	-0.680181	0.330301
H93	H	1.646885	-1.059218	-0.188415
H94	H	2.146885	-0.559218	0.311585
H95	H	1.423705	-1.078368	-0.223020
H96	H	1.923705	-0.578368	0.276980
H97	H	1.498549	-0.957485	-0.241671
H98	H	1.998549	-0.457485	0.258329
O99	O	1.570721	-0.939420	-0.512489
O100	O	2.070721	-0.439420	-0.012489
C101	C	1.695807	-0.933181	-0.632479
C102	C	2.195807	-0.433181	-0.132479
C103	C	1.595364	-0.975367	-0.605351
C104	C	2.095364	-0.475367	-0.105351
H105	H	1.715770	-0.962246	-0.707550
H106	H	2.215770	-0.462246	-0.207550
H107	H	1.695085	-0.842672	-0.631607
H108	H	2.195085	-0.342672	-0.131607
H109	H	1.750957	-0.963457	-0.578322
H110	H	2.250957	-0.463457	-0.078322
H111	H	1.540157	-0.945169	-0.659481
H112	H	2.040157	-0.445169	-0.159481
H113	H	1.596165	-1.065875	-0.606192
H114	H	2.096165	-0.565875	-0.106192
H115	H	1.437520	-1.078475	-0.627247
H116	H	1.937520	-0.578475	-0.127247
H117	H	1.231719	-1.078870	-0.421166
H118	H	1.731719	-0.578870	0.078834
