data_functionalizedCrystal
_audit_creation_method	'MofGen! by Chris Wilmer'
_symmetry_space_group_name_H-M	'P1'
_symmetry_Int_Tables_number	1
_symmetry_cell_setting	triclinic
loop_
_symmetry_equiv_pos_as_xyz
  x,y,z
_cell_length_a	10.489716
_cell_length_b	10.489741
_cell_length_c	9.565339
_cell_angle_alpha	89.999484
_cell_angle_beta	89.998764
_cell_angle_gamma	95.465845
loop_
_atom_site_label
_atom_site_type_symbol
_atom_site_fract_x
_atom_site_fract_y
_atom_site_fract_z
O1	O	1.694071	-0.179810	-0.116184
O2	O	1.322871	-0.196735	-0.116203
O3	O	1.516918	-0.002674	-0.116184
O4	O	1.500025	-0.373871	-0.116202
O5	O	1.516902	-0.002686	0.116336
O6	O	1.322856	-0.196747	0.116317
O7	O	1.694056	-0.179822	0.116337
Zn8	Zn	1.508453	-0.188286	0.153244
Zn9	Zn	1.508474	-0.188271	-0.153111
O10	O	1.500009	-0.373883	0.116318
C11	C	1.275332	-0.195470	0.000055
C12	C	1.133701	-0.191665	0.000048
C13	C	1.515634	0.044852	0.000075
C14	C	1.511817	0.186481	0.000072
C15	C	1.741596	-0.181087	0.000076
C16	C	1.883227	-0.184892	0.000074
C17	C	1.980900	-0.065888	0.000069
C18	C	2.058254	-0.128778	0.114709
C19	C	2.058233	-0.128794	-0.114538
C20	C	1.958714	-0.247733	0.114808
C21	C	1.958688	-0.247731	-0.114541
C22	C	2.035992	-0.310709	0.000126
C23	C	1.501293	-0.421409	0.000056
C24	C	1.505110	-0.563038	0.000049
N25	N	1.508449	-0.188297	0.362324
C26	C	1.388351	0.254610	0.000055
C27	C	1.446668	0.346732	0.114703
C28	C	1.446712	0.346718	-0.114544
C29	C	1.570184	0.276737	0.114814
C30	C	1.570212	0.276714	-0.114535
C31	C	1.628618	0.368808	0.000140
N32	N	1.508488	-0.188250	-0.362190
C33	C	1.418681	-0.278013	0.453518
C34	C	1.534180	-0.303814	0.546702
C35	C	1.393001	-0.162507	0.546696
C36	C	1.624006	-0.214155	0.453456
C37	C	1.482750	-0.072797	0.453441
C38	C	1.598332	-0.098549	0.546583
H39	H	1.956224	0.037626	0.000189
N40	N	2.115831	-0.062263	0.243121
H41	H	2.096199	0.030147	0.243052
H42	H	2.211659	-0.066176	0.242585
N43	N	1.639322	0.235913	0.243347
H44	H	1.641441	0.139856	0.242584
H45	H	1.592989	0.262057	0.329760
N46	N	1.763199	0.434296	0.000217
H47	H	1.809646	0.408857	0.086852
H48	H	1.759785	0.530188	-0.000660
H49	H	1.674346	-0.022655	0.587188
H50	H	1.460952	0.024827	0.412445
N51	N	1.263656	-0.133641	0.600951
H52	H	1.204667	-0.121375	0.519603
H53	H	1.273739	-0.052921	0.659058
H54	H	2.060424	-0.414301	0.000185
N55	N	1.253893	0.188817	0.000188
H56	H	1.206757	0.215336	-0.085514
H57	H	1.207525	0.214127	0.086926
H58	H	1.721677	-0.236065	0.412672
N59	N	1.901044	-0.314215	-0.242929
H60	H	1.937408	-0.269150	-0.329487
H61	H	1.805031	-0.311828	-0.241348
H62	H	2.101706	-0.078529	-0.211456
H63	H	1.915405	-0.297941	0.211836
H64	H	1.394420	0.377734	0.211624
H65	H	1.394461	0.377683	-0.211479
H66	H	1.342838	-0.353955	0.412656
N67	N	1.639372	0.235603	-0.242917
H68	H	1.592662	0.260785	-0.329479
H69	H	1.642153	0.139638	-0.241341
H70	H	1.555942	-0.401469	0.587666
