data_functionalizedCrystal
_audit_creation_method	'MofGen! by Chris Wilmer'
_symmetry_space_group_name_H-M	'P1'
_symmetry_Int_Tables_number	1
_symmetry_cell_setting	triclinic
loop_
_symmetry_equiv_pos_as_xyz
  x,y,z
_cell_length_a	17.038272
_cell_length_b	16.098687
_cell_length_c	16.109304
_cell_angle_alpha	92.719611
_cell_angle_beta	87.287097
_cell_angle_gamma	87.077883
loop_
_atom_site_label
_atom_site_type_symbol
_atom_site_fract_x
_atom_site_fract_y
_atom_site_fract_z
O1	O	1.040853	-0.069142	0.177084
O2	O	0.813224	-0.069166	0.174216
O3	O	0.933291	-0.069154	0.055063
O4	O	0.920787	-0.069154	0.296237
O5	O	0.926296	0.069355	0.061981
O6	O	0.806229	0.069343	0.181133
O7	O	1.033859	0.069367	0.184001
Zn8	Zn	0.918934	0.091346	0.183666
Zn9	Zn	0.928149	-0.091145	0.174552
O10	O	0.913792	0.069355	0.303154
C11	C	0.780599	0.000085	0.175067
C12	C	0.693806	0.000075	0.167288
N13	N	0.934439	-0.215691	0.168326
C14	C	0.929287	0.000099	0.027511
C15	C	0.927767	0.000093	-0.064892
C16	C	0.643692	0.000076	0.238708
C17	C	0.562141	0.000087	0.231395
C18	C	0.530706	0.000092	0.152659
C19	C	0.580826	0.000094	0.081234
C20	C	0.662375	0.000089	0.088548
C21	C	0.284947	0.000115	0.126818
C22	C	0.203391	0.000118	0.119509
C23	C	0.184711	0.000112	0.269671
C24	C	0.266263	0.000102	0.276978
C25	C	0.316376	0.000108	0.205553
C26	C	0.447348	0.000102	0.145182
C27	C	0.399732	0.000105	0.213031
C28	C	1.066484	0.000114	0.183150
C29	C	1.153277	0.000118	0.190929
C30	C	0.963704	-0.740496	0.139428
C31	C	0.959282	-0.653309	0.143788
C32	C	0.903809	-0.609736	0.198611
C33	C	0.852750	-0.653354	0.249071
C34	C	0.857169	-0.740539	0.244706
C35	C	0.887799	-0.346494	0.214420
C36	C	0.883385	-0.259303	0.218784
C37	C	0.989917	-0.259264	0.113499
C38	C	0.994334	-0.346451	0.109143
C39	C	0.943272	-0.390061	0.159599
C40	C	0.899289	-0.520617	0.203071
C41	C	0.947788	-0.479179	0.155134
N42	N	0.912650	0.215892	0.189886
C43	C	0.928069	-0.075406	-0.281250
C44	C	0.926634	-0.075405	-0.368072
C45	C	0.919012	0.075605	-0.360527
C46	C	0.920441	0.075604	-0.273706
C47	C	0.924974	0.000096	-0.234070
C48	C	0.922109	0.000098	-0.407713
C49	C	0.920553	0.000099	-0.501849
C50	C	0.926529	0.000094	-0.139928
C51	C	0.917796	0.000100	0.330706
C52	C	0.919316	0.000101	0.423110
H53	H	0.669280	0.000071	0.302823
H54	H	0.291852	0.000088	0.341092
H55	H	0.521341	0.000087	0.289553
N56	N	0.133511	0.000105	0.342617
N57	N	0.060701	0.000109	0.336080
H58	H	0.024539	0.000106	0.387602
N59	N	0.917296	0.152731	-0.225508
N60	N	0.972323	0.169579	-0.179988
H61	H	0.970100	0.224048	-0.145947
H62	H	0.177801	0.000121	0.055390
H63	H	0.703178	0.000088	0.030390
N64	N	0.336118	0.000118	0.053852
N65	N	0.308037	0.000117	-0.016440
H66	H	0.344179	0.000118	-0.067977
H67	H	0.555225	0.000110	0.017126
H68	H	0.425330	0.000106	0.277138
H69	H	0.992952	-0.514658	0.110494
H70	H	0.931757	-0.136889	-0.248981
H71	H	1.031488	-0.223748	0.072419
H72	H	0.929152	-0.136886	-0.406482
N73	N	0.914382	0.152723	-0.401029
N74	N	0.913106	0.152716	-0.478547
H75	H	0.909837	0.207182	-0.507152
H76	H	0.421743	0.000129	0.081076
N77	N	0.796073	-0.608859	0.305065
N78	N	0.724324	-0.618619	0.298135
H79	H	0.684293	-0.587196	0.337682
N80	N	1.020332	-0.784987	0.083375
N81	N	1.065879	-0.746033	0.038292
H82	H	1.105855	-0.777453	-0.001320
N83	N	1.011435	-0.608774	0.092237
N84	N	1.060963	-0.647688	0.043294
H85	H	1.097798	-0.616236	0.006882
H86	H	0.838210	-0.223830	0.263430
N87	N	1.051136	-0.390944	0.053289
N88	N	1.096804	-0.351993	0.008342
H89	H	1.136974	-0.383416	-0.031047
H90	H	0.846223	-0.381995	0.255506
H91	H	0.815594	-0.776047	0.285793
N92	N	0.842620	-0.476103	0.259060
N93	N	0.791694	-0.427467	0.231549
H94	H	0.751669	-0.396025	0.271089
