data_functionalizedCrystal
_audit_creation_method	'MofGen! by Chris Wilmer'
_symmetry_space_group_name_H-M	'P1'
_symmetry_Int_Tables_number	1
_symmetry_cell_setting	triclinic
loop_
_symmetry_equiv_pos_as_xyz
  x,y,z
_cell_length_a	12.759401
_cell_length_b	19.077068
_cell_length_c	12.759393
_cell_angle_alpha	87.738768
_cell_angle_beta	90.018496
_cell_angle_gamma	92.327081
loop_
_atom_site_label
_atom_site_type_symbol
_atom_site_fract_x
_atom_site_fract_y
_atom_site_fract_z
Zn1	Zn	1.589361	-0.280156	0.610733
Zn2	Zn	1.582157	-0.397871	0.442092
Zn3	Zn	1.413661	-0.280192	0.435075
Zn4	Zn	1.406557	-0.397817	0.617730
O5	O	1.497934	-0.339009	0.526408
O6	O	1.735426	-0.295778	0.588371
O7	O	1.559764	-0.382299	0.294142
O8	O	1.442956	-0.181697	0.452511
O9	O	1.730133	-0.382263	0.464471
O10	O	1.572043	-0.181670	0.581567
O11	O	1.435971	-0.295841	0.288987
O12	O	1.265698	-0.295788	0.459296
O13	O	1.430848	-0.382171	0.763821
O14	O	1.260479	-0.382207	0.593492
O15	O	1.565154	-0.295726	0.758680
O16	O	1.552875	-0.496355	0.471256
O17	O	1.423862	-0.496315	0.600297
C18	C	1.224968	-0.338996	0.526393
C19	C	1.108190	-0.339007	0.526412
C20	C	1.050634	-0.384078	0.596181
C21	C	0.940909	-0.384086	0.596193
C22	C	0.946308	-0.293953	0.456658
C23	C	1.056030	-0.293941	0.456652
C24	C	1.047516	-0.436117	0.676738
C25	C	0.937791	-0.436126	0.676750
C26	C	1.486845	-0.521872	0.537320
C27	C	1.482197	-0.600102	0.542023
C28	C	1.547235	-0.636852	0.477104
C29	C	1.542870	-0.710357	0.481534
C30	C	1.473460	-0.747111	0.550879
C31	C	1.408418	-0.710356	0.615805
C32	C	1.412790	-0.636852	0.611380
C33	C	1.453182	-0.966943	0.571318
C34	C	1.448813	-1.040452	0.575736
C35	C	1.583267	-1.040448	0.441466
C36	C	1.587627	-0.966943	0.437042
C37	C	1.522590	-0.930195	0.501972
N38	N	1.468994	-0.822245	0.555406
N39	N	1.527062	-0.855062	0.497450
C40	C	1.771967	-0.339023	0.526423
C41	C	1.888743	-0.339028	0.526430
C42	C	1.498012	-0.338938	0.800437
C43	C	1.498045	-0.338908	0.917212
C44	C	1.509096	-0.155432	0.515476
C45	C	1.513852	-0.077202	0.510817
C46	C	1.497920	-0.339029	0.253441
C47	C	1.498102	-0.338861	0.136655
C48	C	1.567988	-0.293891	0.969398
C49	C	1.568014	-0.293866	1.079121
C50	C	1.428152	-0.383879	1.084461
C51	C	1.428122	-0.383901	0.974740
C52	C	1.648739	-0.241925	0.966316
C53	C	1.648766	-0.241900	1.076039
H54	H	0.904967	-0.416669	0.752938
H55	H	0.904709	-0.490623	0.658076
H56	H	1.603752	-0.606931	0.420632
H57	H	1.351908	-0.740287	0.672271
Cl58	Cl	1.620204	-0.157774	0.915335
H59	H	1.644147	-0.937020	0.380577
Cl60	Cl	1.331027	-0.590652	0.692999
Cl61	Cl	1.340254	-0.440439	1.156790
Cl62	Cl	1.094899	-0.413675	0.801078
Cl63	Cl	1.095220	-0.516042	0.636405
Cl64	Cl	1.624640	-0.756553	0.399921
H65	H	1.636218	-1.070377	0.388605
H66	H	1.102889	-0.257236	0.399846
H67	H	1.392304	-1.070375	0.632223
H68	H	1.400224	-0.937029	0.624184
H69	H	1.371164	-0.420555	0.932254
H70	H	1.724832	-0.261465	0.933449
Cl71	Cl	1.608486	-0.161981	1.123837
H72	H	0.903825	-0.257262	0.399862
Cl73	Cl	1.773035	-0.264429	1.123370
