data_functionalizedCrystal
_audit_creation_method	'MofGen! by Chris Wilmer'
_symmetry_space_group_name_H-M	'P1'
_symmetry_Int_Tables_number	1
_symmetry_cell_setting	triclinic
loop_
_symmetry_equiv_pos_as_xyz
  x,y,z
_cell_length_a	14.853558
_cell_length_b	15.712078
_cell_length_c	13.930277
_cell_angle_alpha	89.998459
_cell_angle_beta	89.993309
_cell_angle_gamma	101.606141
loop_
_atom_site_label
_atom_site_type_symbol
_atom_site_fract_x
_atom_site_fract_y
_atom_site_fract_z
O1	O	1.233439	0.112856	-0.079817
O2	O	0.975398	0.126313	-0.079821
O3	O	1.070090	-0.006284	-0.079815
O4	O	1.138747	0.245452	-0.079824
O5	O	1.070070	-0.006286	0.079847
O6	O	0.975378	0.126310	0.079840
O7	O	1.233419	0.112853	0.079845
Zn8	Zn	1.104395	0.119581	0.105192
Zn9	Zn	1.104422	0.119585	-0.105169
O10	O	1.138727	0.245449	0.079838
C11	C	0.941599	0.125703	0.000009
C12	C	0.840916	0.123880	0.000007
C13	C	0.793626	0.123027	-0.087028
C14	C	0.793600	0.123013	0.087041
C15	C	0.699002	0.121296	0.087043
C16	C	0.651712	0.120443	0.000008
C17	C	0.699020	0.121307	-0.087029
C18	C	0.651685	0.120423	0.174078
C19	C	0.557082	0.118705	0.174084
C20	C	0.509791	0.117858	0.087047
C21	C	0.557105	0.118723	0.000007
C22	C	0.509815	0.117870	-0.087028
C23	C	0.557128	0.118741	-0.174070
C24	C	0.651729	0.120460	-0.174065
C25	C	0.415190	0.116139	0.087043
C26	C	0.415208	0.116149	-0.087029
C27	C	1.058864	-0.038501	0.000015
C28	C	1.025433	-0.134495	0.000012
C29	C	1.309273	-0.501260	0.000007
C30	C	1.277838	-0.591459	0.000007
C31	C	1.120327	-0.571027	0.000004
C32	C	1.151749	-0.480825	0.000009
C33	C	1.246223	-0.445949	0.000009
C34	C	1.088699	-0.425513	0.000011
C35	C	1.120118	-0.335319	0.000011
C36	C	1.214588	-0.300436	0.000008
C37	C	1.277642	-0.355755	0.000009
C38	C	0.994225	-0.460391	0.000003
C39	C	0.931175	-0.405079	0.000006
C40	C	0.962594	-0.314884	0.000012
C41	C	1.057064	-0.280001	0.000010
C42	C	0.899540	-0.259565	0.000012
C43	C	0.930959	-0.169371	0.000011
C44	C	1.088483	-0.189807	0.000010
C45	C	1.267218	0.113463	0.000012
C46	C	1.367900	0.115286	0.000007
C47	C	1.149953	0.277667	0.000006
C48	C	1.183384	0.373661	0.000003
N49	N	1.104383	0.119578	0.248758
N50	N	1.104438	0.119581	-0.248735
C51	C	1.062482	0.178275	0.701025
C52	C	1.146384	0.060887	0.701000
C53	C	1.146372	0.060885	0.600504
C54	C	1.104416	0.119579	0.550264
C55	C	1.062471	0.178276	0.600520
C56	C	1.188324	0.002195	0.550241
C57	C	1.188315	0.002190	0.449739
C58	C	1.146353	0.060881	0.399497
C59	C	1.104406	0.119580	0.449759
C60	C	1.062449	0.178274	0.399519
C61	C	1.020496	0.236970	0.449779
C62	C	1.020509	0.236967	0.550278
C63	C	1.146340	0.060884	0.298998
C64	C	1.062439	0.178275	0.299014
H65	H	0.690194	0.121110	0.244938
Cl66	Cl	1.254089	-0.187048	0.000003
Cl67	Cl	0.497613	0.117622	0.283505
H68	H	0.832154	0.123740	-0.157895
H69	H	1.180503	0.013099	0.258081
Cl70	Cl	1.009738	0.252057	0.764203
H71	H	1.180549	0.013104	0.741908
H72	H	0.822619	-0.287975	0.000002
H73	H	0.832107	0.123701	0.157902
H74	H	0.986340	0.284763	0.408862
Cl75	Cl	1.428042	-0.457409	0.000040
Cl76	Cl	0.355712	0.115030	0.196457
Cl77	Cl	0.967776	0.310752	0.613464
Cl78	Cl	0.497663	0.117648	-0.283481
Cl79	Cl	1.207253	-0.145956	0.000042
H80	H	1.222490	-0.045589	0.591150
Cl81	Cl	1.396411	-0.311904	0.000042
H82	H	0.854254	-0.433488	0.000001
Cl83	Cl	0.851695	-0.099832	0.000014
Cl84	Cl	1.241051	-0.071599	0.386562
H85	H	0.376712	0.115460	-0.157905
H86	H	1.329189	-0.636492	-0.000001
Cl87	Cl	0.954727	-0.573779	0.000082
H88	H	0.690260	0.121168	-0.244930
H89	H	1.028268	0.226068	0.258115
Cl90	Cl	1.001565	-0.614879	-0.000005
