data_functionalizedCrystal
_audit_creation_method	'MofGen! by Chris Wilmer'
_symmetry_space_group_name_H-M	'P1'
_symmetry_Int_Tables_number	1
_symmetry_cell_setting	triclinic
loop_
_symmetry_equiv_pos_as_xyz
  x,y,z
_cell_length_a	16.120490
_cell_length_b	19.120786
_cell_length_c	19.121324
_cell_angle_alpha	95.009372
_cell_angle_beta	90.596294
_cell_angle_gamma	89.433653
loop_
_atom_site_label
_atom_site_type_symbol
_atom_site_fract_x
_atom_site_fract_y
_atom_site_fract_z
Zn1	Zn	1.236524	-0.313990	0.436445
Zn2	Zn	1.236423	-0.436676	0.313752
Zn3	Zn	1.103366	-0.313556	0.313349
Zn4	Zn	1.091967	-0.425688	0.425471
O5	O	1.167070	-0.372478	0.372254
O6	O	1.352694	-0.335044	0.424931
O7	O	1.223501	-0.424761	0.215427
O8	O	1.125843	-0.215341	0.334101
O9	O	1.352619	-0.425182	0.334789
O10	O	1.223673	-0.215659	0.424540
O11	O	1.125745	-0.334305	0.215131
O12	O	0.985671	-0.323650	0.323461
O13	O	1.106414	-0.406454	0.525198
O14	O	0.977296	-0.406034	0.405836
O15	O	1.212620	-0.324390	0.533260
O16	O	1.212448	-0.533492	0.324148
O17	O	1.106316	-0.525419	0.406227
C18	C	0.951359	-0.363603	0.363414
C19	C	0.859075	-0.359823	0.359649
C20	C	1.158156	-0.554936	0.364057
C21	C	1.154417	-0.632995	0.360576
C22	C	0.644870	-0.392082	0.391789
C23	C	0.690116	-0.352927	0.352772
C24	C	0.784133	-0.356765	0.356599
C25	C	0.550844	-0.388245	0.387963
C26	C	1.203555	-0.669770	0.406063
C27	C	1.200039	-0.743114	0.402794
C28	C	1.147389	-0.779683	0.354035
C29	C	1.098246	-0.742903	0.308546
C30	C	1.101758	-0.669560	0.311819
C31	C	1.134233	-1.001127	0.341798
C32	C	1.130726	-1.074475	0.338527
C33	C	1.232518	-1.074681	0.432776
C34	C	1.236030	-1.001337	0.436042
C35	C	1.186884	-0.964563	0.390556
C36	C	1.143795	-0.854653	0.350690
C37	C	1.190473	-0.889594	0.393904
C38	C	1.383624	-0.381387	0.381129
C39	C	1.475906	-0.385184	0.384911
C40	C	1.158257	-0.364245	0.555422
C41	C	1.154501	-0.360736	0.633477
C42	C	1.176041	-0.189306	0.380500
C43	C	1.179864	-0.111250	0.384014
C44	C	1.175899	-0.380630	0.189803
C45	C	1.179825	-0.383947	0.111763
C46	C	1.203629	-0.406181	0.670305
C47	C	1.200101	-0.402876	0.743647
C48	C	1.147439	-0.354129	0.780159
C49	C	1.098309	-0.308679	0.743327
C50	C	1.101843	-0.311981	0.669987
C51	C	1.134229	-0.341799	1.001591
C52	C	1.130697	-0.338502	1.074936
C53	C	1.232490	-0.432698	1.075251
C54	C	1.236015	-0.435999	1.001909
C55	C	1.186889	-0.390547	0.965083
C56	C	1.143830	-0.350751	0.855126
C57	C	1.190503	-0.393922	0.890118
H58	H	0.658242	-0.316523	0.316494
Cl59	Cl	1.269751	-0.623805	0.467360
Cl60	Cl	1.261803	-0.789341	0.459988
Cl61	Cl	1.077626	-0.289472	0.901033
Cl62	Cl	1.072466	-0.284661	0.955305
Cl63	Cl	0.694078	-0.448291	0.447788
H64	H	1.278902	-0.971564	0.475745
Cl65	Cl	1.256708	-0.455199	0.844216
H66	H	1.272529	-1.104630	0.469809
Cl67	Cl	1.064536	-1.120447	0.277223
H68	H	1.055435	-0.268985	0.773061
H69	H	1.094218	-0.971192	0.304761
H70	H	1.100930	-0.884435	0.310989
H71	H	1.233338	-0.859818	0.433606
H72	H	1.055373	-0.772683	0.268848
Cl73	Cl	1.039981	-0.623329	0.254635
Cl74	Cl	1.040082	-0.254846	0.623689
Cl75	Cl	1.269832	-0.467470	0.624410
H76	H	1.240107	-0.439882	0.773628
Cl77	Cl	1.302224	-0.497282	0.956013
Cl78	Cl	1.294248	-0.489832	1.121551
H79	H	1.087816	-0.298801	1.104663
