data_functionalizedCrystal
_audit_creation_method	'MofGen! by Chris Wilmer'
_symmetry_space_group_name_H-M	'P1'
_symmetry_Int_Tables_number	1
_symmetry_cell_setting	triclinic
loop_
_symmetry_equiv_pos_as_xyz
  x,y,z
_cell_length_a	10.489746
_cell_length_b	10.489741
_cell_length_c	16.053789
_cell_angle_alpha	92.864174
_cell_angle_beta	92.861662
_cell_angle_gamma	84.540238
loop_
_atom_site_label
_atom_site_type_symbol
_atom_site_fract_x
_atom_site_fract_y
_atom_site_fract_z
O1	O	1.698887	0.184836	0.069373
O2	O	1.327693	0.201723	0.069387
O3	O	1.521736	0.007682	0.069375
O4	O	1.504844	0.378878	0.069385
O5	O	1.512037	-0.002006	-0.069485
O6	O	1.317994	0.192036	-0.069472
O7	O	1.689188	0.175149	-0.069486
Zn8	Zn	1.502051	0.182054	-0.091526
Zn9	Zn	1.514830	0.194818	0.091427
O10	O	1.495145	0.369190	-0.069474
C11	C	1.275312	0.195603	-0.000041
C12	C	1.133683	0.191783	-0.000036
C13	C	0.980825	0.066059	-0.000051
C14	C	1.053436	0.124139	-0.068512
C15	C	1.062955	0.133720	0.068393
C16	C	0.953940	0.243117	-0.068574
C17	C	0.963458	0.252684	0.068392
C18	C	1.036019	0.310851	-0.000085
C19	C	1.515611	-0.044694	-0.000054
C20	C	1.511794	-0.186323	-0.000053
C21	C	1.388330	-0.254465	-0.000042
C22	C	1.441871	-0.351363	-0.068509
C23	C	1.451463	-0.341786	0.068395
C24	C	1.565381	-0.281360	-0.068576
C25	C	1.574961	-0.271770	0.068390
C26	C	1.628590	-0.368641	-0.000094
C27	C	1.741569	0.181269	-0.000057
C28	C	1.883198	0.185089	-0.000056
C29	C	1.501270	0.421566	-0.000043
C30	C	1.505088	0.563196	-0.000039
N31	N	1.493338	0.173343	-0.216387
C32	C	1.568362	0.248421	-0.260078
C33	C	1.562284	0.242319	-0.347485
C34	C	1.481176	0.161144	-0.391199
C35	C	1.406149	0.086057	-0.347502
C36	C	1.412234	0.092154	-0.260097
C37	C	1.454612	0.134528	-0.652610
C38	C	1.448529	0.128441	-0.740021
C39	C	1.604667	0.284701	-0.739998
C40	C	1.610739	0.290796	-0.652591
C41	C	1.535718	0.215704	-0.608902
N42	N	1.474958	0.154908	-0.480543
N43	N	1.541942	0.221934	-0.519559
N44	N	1.523553	0.203519	0.216287
H45	H	0.906613	0.289288	-0.126519
H46	H	1.060493	0.414427	-0.000120
H47	H	1.623379	0.303454	-0.383054
C48	C	0.910142	0.325956	0.146594
N49	N	0.869982	0.381135	0.205502
H50	H	1.092869	0.069853	-0.126395
H51	H	1.613529	-0.254569	-0.126525
H52	H	1.340115	0.019957	-0.383101
H53	H	1.351141	0.031017	-0.224524
C54	C	1.687195	0.367286	-0.788064
N55	N	1.749364	0.429488	-0.824267
H56	H	0.956099	-0.037448	-0.000123
H57	H	1.110441	0.087487	0.126272
H58	H	1.286814	-0.204820	-0.000107
H59	H	1.730190	-0.418066	-0.000136
C60	C	1.365834	-0.398721	-0.146700
N61	N	1.308555	-0.434388	-0.205591
C62	C	1.650937	-0.224367	0.146588
N63	N	1.708154	-0.188659	0.205494
H64	H	1.393524	0.073383	-0.617048
C65	C	1.386324	-0.378182	0.146593
N66	N	1.337254	-0.405588	0.205490
C67	C	1.699974	0.380086	-0.604512
N68	N	1.767186	0.447340	-0.568299
C69	C	1.657589	0.337719	-0.212000
N70	N	1.724802	0.404977	-0.175791
H71	H	1.382474	0.062339	-0.775611
