data_functionalizedCrystal
_audit_creation_method	'MofGen! by Chris Wilmer'
_symmetry_space_group_name_H-M	'P1'
_symmetry_Int_Tables_number	1
_symmetry_cell_setting	triclinic
loop_
_symmetry_equiv_pos_as_xyz
  x,y,z
_cell_length_a	14.519731
_cell_length_b	14.519709
_cell_length_c	10.868271
_cell_angle_alpha	89.993918
_cell_angle_beta	89.995592
_cell_angle_gamma	83.684499
loop_
_atom_site_label
_atom_site_type_symbol
_atom_site_fract_x
_atom_site_fract_y
_atom_site_fract_z
O1	O	1.223855	0.120985	-0.102328
O2	O	1.473855	0.370985	0.147672
O3	O	1.723855	0.620985	0.397672
O4	O	1.973855	0.870985	0.647672
O5	O	0.955381	0.135201	-0.102330
O6	O	1.205381	0.385201	0.147670
O7	O	1.455381	0.635201	0.397670
O8	O	1.705381	0.885201	0.647670
O9	O	1.096736	-0.006145	-0.102318
O10	O	1.346736	0.243855	0.147682
O11	O	1.596736	0.493855	0.397682
O12	O	1.846736	0.743855	0.647682
O13	O	1.082500	0.262331	-0.102340
O14	O	1.332500	0.512331	0.147660
O15	O	1.582500	0.762331	0.397660
O16	O	1.832500	1.012331	0.647660
O17	O	1.096725	-0.006150	0.102327
O18	O	1.346725	0.243850	0.352327
O19	O	1.596725	0.493850	0.602327
O20	O	1.846725	0.743850	0.852327
O21	O	0.955369	0.135196	0.102315
O22	O	1.205369	0.385196	0.352315
O23	O	1.455369	0.635196	0.602315
O24	O	1.705369	0.885196	0.852315
O25	O	1.223843	0.120980	0.102317
O26	O	1.473843	0.370980	0.352317
O27	O	1.723843	0.620980	0.602317
O28	O	1.973843	0.870980	0.852317
Zn29	Zn	1.089604	0.128087	0.134808
Zn30	Zn	1.339604	0.378087	0.384808
Zn31	Zn	1.589604	0.628087	0.634808
Zn32	Zn	1.839604	0.878087	0.884808
Zn33	Zn	1.089620	0.128094	-0.134820
Zn34	Zn	1.339620	0.378094	0.115180
Zn35	Zn	1.589620	0.628094	0.365180
Zn36	Zn	1.839620	0.878094	0.615180
O37	O	1.082488	0.262326	0.102305
O38	O	1.332488	0.512326	0.352305
O39	O	1.582488	0.762326	0.602305
O40	O	1.832488	1.012326	0.852305
C41	C	0.921016	0.134532	-0.000008
C42	C	1.171016	0.384532	0.249992
C43	C	1.421016	0.634532	0.499992
C44	C	1.671016	0.884532	0.749992
C45	C	0.818635	0.132536	-0.000008
C46	C	1.068635	0.382536	0.249992
C47	C	1.318635	0.632536	0.499992
C48	C	1.568635	0.882536	0.749992
C49	C	1.096067	-0.040507	0.000005
C50	C	1.346067	0.209493	0.250005
C51	C	1.596067	0.459493	0.500005
C52	C	1.846067	0.709493	0.750005
C53	C	1.094079	-0.142889	0.000006
C54	C	1.344079	0.107111	0.250006
C55	C	1.594079	0.357111	0.500006
C56	C	1.844079	0.607111	0.750006
C57	C	0.735491	0.130915	-0.000013
C58	C	0.985491	0.380915	0.249987
C59	C	1.235491	0.630915	0.499987
C60	C	1.485491	0.880915	0.749987
C61	C	0.631182	0.128888	-0.000013
C62	C	0.881182	0.378888	0.249987
C63	C	1.131182	0.628888	0.499987
C64	C	1.381182	0.878888	0.749987
C65	C	0.548043	0.127280	-0.000013
C66	C	0.798043	0.377280	0.249987
C67	C	1.048043	0.627280	0.499987
C68	C	1.298043	0.877280	0.749987
C69	C	0.443728	0.125253	-0.000016
C70	C	0.693728	0.375253	0.249984
C71	C	0.943728	0.625253	0.499984
C72	C	1.193728	0.875253	0.749984
C73	C	1.086759	-0.517785	-0.000026
C74	C	1.336759	-0.267785	0.249974
C75	C	1.586759	-0.017785	0.499974
C76	C	1.836759	0.232215	0.749974
C77	C	1.088792	-0.413477	-0.000017
C78	C	1.338792	-0.163477	0.249983
C79	C	1.588792	0.086523	0.499983
C80	C	1.838792	0.336523	0.749983
C81	C	1.090419	-0.330340	-0.000009
C82	C	1.340419	-0.080340	0.249991
C83	C	1.590419	0.169660	0.499991
C84	C	1.840419	0.419660	0.749991
C85	C	1.092452	-0.226025	-0.000002
C86	C	1.342452	0.023975	0.249998
C87	C	1.592452	0.273975	0.499998
C88	C	1.842452	0.523975	0.749998
C89	C	1.258209	0.121649	-0.000008
C90	C	1.508209	0.371649	0.249992
C91	C	1.758209	0.621649	0.499992
C92	C	2.008209	0.871649	0.749992
C93	C	1.360589	0.123645	-0.000015
C94	C	1.610589	0.373645	0.249985
C95	C	1.860589	0.623645	0.499985
C96	C	2.110589	0.873645	0.749985
C97	C	1.083157	0.296688	-0.000020
C98	C	1.333157	0.546688	0.249980
C99	C	1.583157	0.796688	0.499980
C100	C	1.833157	1.046688	0.749980
C101	C	1.085146	0.399070	-0.000029
C102	C	1.335146	0.649070	0.249971
C103	C	1.585146	0.899070	0.499971
C104	C	1.835146	1.149070	0.749971
N105	N	1.089601	0.128081	0.318822
N106	N	1.339601	0.378081	0.568822
N107	N	1.589601	0.628081	0.818822
N108	N	1.839601	0.878081	1.068822
N109	N	1.089631	0.128092	-0.318835
N110	N	1.339631	0.378092	-0.068835
N111	N	1.589631	0.628092	0.181165
N112	N	1.839631	0.878092	0.431165
C113	C	1.089615	0.128092	0.569828
C114	C	1.339615	0.378092	0.819828
C115	C	1.589615	0.628092	1.069828
C116	C	1.839615	0.878092	1.319828
C117	C	1.089604	0.128089	0.430150
C118	C	1.339604	0.378089	0.680150
C119	C	1.589604	0.628089	0.930150
C120	C	1.839604	0.878089	1.180150
