data_functionalizedCrystal
_audit_creation_method	'MofGen! by Chris Wilmer'
_symmetry_space_group_name_H-M	'P1'
_symmetry_Int_Tables_number	1
_symmetry_cell_setting	triclinic
loop_
_symmetry_equiv_pos_as_xyz
  x,y,z
_cell_length_a	14.853567
_cell_length_b	15.538191
_cell_length_c	13.930277
_cell_angle_alpha	89.997597
_cell_angle_beta	89.995755
_cell_angle_gamma	65.453512
loop_
_atom_site_label
_atom_site_type_symbol
_atom_site_fract_x
_atom_site_fract_y
_atom_site_fract_z
O1	O	1.155993	0.122934	-0.079757
O2	O	0.888724	0.137579	-0.079773
O3	O	1.074384	-0.006805	-0.079767
O4	O	0.970332	0.267318	-0.079764
O5	O	1.074366	-0.006808	0.079895
O6	O	0.888705	0.137575	0.079889
O7	O	1.155975	0.122931	0.079905
Zn8	Zn	1.022337	0.130253	0.105247
Zn9	Zn	1.022361	0.130257	-0.105115
O10	O	0.970314	0.267315	0.079898
C11	C	0.855344	0.136913	0.000056
C12	C	0.755913	0.134925	0.000050
C13	C	1.085262	-0.041888	0.000062
C14	C	1.117689	-0.146419	0.000054
C15	C	0.374309	0.040753	0.000070
C16	C	0.296691	0.212284	0.000071
C17	C	0.390111	0.214153	0.000068
C18	C	0.475634	0.129321	0.000065
C19	C	0.467738	0.042620	0.000064
C20	C	0.398015	0.300853	0.000059
C21	C	0.491439	0.302726	0.000055
C22	C	0.576964	0.217893	0.000058
C23	C	0.569064	0.131188	0.000059
C24	C	0.654587	0.046356	0.000055
C25	C	0.646689	-0.040350	0.000063
C26	C	0.553264	-0.042213	0.000068
C27	C	0.670390	0.219757	0.000053
C28	C	0.748017	0.048223	0.000049
C29	C	0.795529	-0.434631	0.000056
C30	C	0.826023	-0.532857	0.000060
C31	C	0.997541	-0.555076	0.000069
C32	C	0.967062	-0.456850	0.000061
C33	C	0.866055	-0.396635	0.000055
C34	C	1.037588	-0.418853	0.000060
C35	C	1.007111	-0.320636	0.000056
C36	C	0.906108	-0.260415	0.000054
C37	C	0.835578	-0.298417	0.000052
C38	C	1.138594	-0.479070	0.000073
C39	C	1.209120	-0.441073	0.000072
C40	C	1.178644	-0.342854	0.000061
C41	C	1.077641	-0.282633	0.000059
C42	C	1.249174	-0.304852	0.000063
C43	C	1.218697	-0.206634	0.000060
C44	C	1.047164	-0.184416	0.000055
C45	C	1.189354	0.123596	0.000074
C46	C	1.288785	0.125584	0.000074
C47	C	0.959436	0.302397	0.000068
C48	C	0.927009	0.406929	0.000069
N49	N	1.022327	0.130249	0.248813
N50	N	1.022380	0.130253	-0.248681
C51	C	0.940156	0.194165	0.701079
C52	C	1.104593	0.066342	0.701054
C53	C	1.104583	0.066339	0.600558
C54	C	1.022359	0.130251	0.550318
C55	C	0.940145	0.194166	0.600574
C56	C	1.186800	0.002431	0.550295
C57	C	1.186794	0.002426	0.449793
C58	C	1.104566	0.066335	0.399551
C59	C	1.022348	0.130251	0.449813
C60	C	0.940124	0.194163	0.399573
C61	C	0.857903	0.258077	0.449833
C62	C	0.857917	0.258074	0.550332
C63	C	1.104551	0.066337	0.299053
C64	C	0.940113	0.194164	0.299068
H65	H	0.817649	-0.020858	0.000050
H66	H	1.276126	-0.175697	0.000060
F67	F	0.852594	0.262185	0.245607
F68	F	0.770400	0.326100	0.396354
F69	F	1.356669	-0.368948	0.000085
F70	F	1.105037	-0.619170	0.000083
F71	F	1.316616	-0.505168	0.000085
H72	H	0.790976	0.310110	0.591260
H73	H	0.328377	0.369919	0.000052
H74	H	0.676817	0.290352	0.000049
H75	H	0.716334	-0.109420	0.000054
F76	F	0.365901	-0.051522	0.000083
H77	H	0.873211	0.246200	0.742003
F78	F	1.192101	-0.001669	0.754523
H79	H	0.546823	-0.112805	0.000097
H80	H	1.253747	-0.049600	0.591204
H81	H	1.253742	-0.049616	0.408878
F82	F	1.192055	-0.001674	0.245568
H83	H	0.964914	-0.135385	0.000043
H84	H	1.163405	-0.559044	0.000067
F85	F	0.205671	0.302562	0.000063
H86	H	0.497859	0.373328	0.000048
H87	H	0.881296	-0.180440	0.000056
H88	H	0.713279	-0.385600	0.000044
H89	H	0.753328	-0.249386	0.000040
F90	F	0.750951	-0.573291	0.000066
