data_functionalizedCrystal
_audit_creation_method	'MofGen! by Chris Wilmer'
_symmetry_space_group_name_H-M	'P1'
_symmetry_Int_Tables_number	1
_symmetry_cell_setting	triclinic
loop_
_symmetry_equiv_pos_as_xyz
  x,y,z
_cell_length_a	16.120490
_cell_length_b	25.639239
_cell_length_c	16.120256
_cell_angle_alpha	92.870449
_cell_angle_beta	90.129807
_cell_angle_gamma	87.130891
loop_
_atom_site_label
_atom_site_type_symbol
_atom_site_fract_x
_atom_site_fract_y
_atom_site_fract_z
Zn1	Zn	1.247336	-0.264936	-0.534508
Zn2	Zn	1.254252	-0.348165	-0.395440
Zn3	Zn	1.115329	-0.256093	-0.388429
Zn4	Zn	1.108208	-0.347681	-0.527414
O5	O	1.181281	-0.304219	-0.461448
O6	O	1.364619	-0.279879	-0.521963
O7	O	1.241699	-0.332453	-0.278145
O8	O	1.132926	-0.184105	-0.407842
O9	O	1.369700	-0.341027	-0.419791
O10	O	1.229911	-0.190601	-0.515165
O11	O	1.139633	-0.264809	-0.272994
O12	O	0.998020	-0.264340	-0.400963
O13	O	1.120789	-0.340202	-0.644721
O14	O	0.992787	-0.331628	-0.503074
O15	O	1.223006	-0.279410	-0.649933
O16	O	1.234793	-0.421262	-0.412912
O17	O	1.127495	-0.420906	-0.509873
C18	C	0.965231	-0.296972	-0.450489
C19	C	0.872803	-0.293886	-0.445820
C20	C	0.659830	-0.320226	-0.485667
C21	C	0.703581	-0.288255	-0.437295
C22	C	0.797745	-0.291389	-0.442040
C23	C	0.565657	-0.317093	-0.480923
C24	C	1.181144	-0.440055	-0.461403
C25	C	1.181159	-0.498170	-0.461415
C26	C	1.237286	-0.858718	-0.411058
C27	C	1.237317	-0.913324	-0.411071
O28	O	1.284895	-0.941712	-0.368207
N29	N	1.181425	-0.940464	-0.461510
C30	C	1.125503	-0.912996	-0.511947
O31	O	1.077965	-0.941095	-0.554851
C32	C	1.125476	-0.858392	-0.511938
C33	C	1.181366	-0.831254	-0.461489
C34	C	1.293172	-0.831580	-0.360614
C35	C	1.293139	-0.776978	-0.360601
C36	C	1.237220	-0.749514	-0.411031
C37	C	1.181333	-0.776652	-0.461475
C38	C	1.069558	-0.830925	-0.562378
C39	C	1.069536	-0.776317	-0.562365
C40	C	1.125427	-0.749179	-0.511916
C41	C	1.125381	-0.694586	-0.511892
N42	N	1.181273	-0.667445	-0.461452
C43	C	1.237193	-0.694910	-0.411022
C44	C	1.125565	-1.027669	-0.511963
C45	C	1.125587	-1.082273	-0.511968
C46	C	1.237403	-1.082596	-0.411093
C47	C	1.237376	-1.027992	-0.411084
C48	C	1.181457	-1.000529	-0.461523
C49	C	1.237119	-0.580241	-0.410997
C50	C	1.237079	-0.525634	-0.410985
C51	C	1.125266	-0.525315	-0.511862
C52	C	1.125303	-0.579918	-0.511871
C53	C	1.181236	-0.607379	-0.461436
O54	O	1.077829	-0.666164	-0.554737
O55	O	1.284730	-0.666804	-0.368133
C56	C	1.398175	-0.311493	-0.472451
C57	C	1.490602	-0.314594	-0.477139
C58	C	1.170331	-0.310738	-0.678343
C59	C	1.165665	-0.313517	-0.770770
C60	C	1.181442	-0.167853	-0.461513
C61	C	1.181510	-0.109742	-0.461540
C62	C	1.205614	-0.289716	-0.983756
C63	C	1.157118	-0.318567	-0.939990
C64	C	1.161875	-0.315756	-0.845827
C65	C	1.200858	-0.292526	-1.077927
C66	C	1.192237	-0.297688	-0.245400
C67	C	1.197064	-0.294768	-0.152981
H68	H	0.693091	-0.349949	-0.530639
Br69	Br	1.312934	-0.488808	-0.342512
H70	H	0.670317	-0.258529	-0.392319
Br71	Br	1.049662	-0.990403	-0.580417
H72	H	1.282667	-0.602594	-0.369929
H73	H	1.112022	-0.345375	-0.973239
Br74	Br	1.369007	-0.740158	-0.292143
H75	H	1.338713	-0.853936	-0.319548
H76	H	1.282887	-1.005900	-0.370005
H77	H	1.080068	-1.104363	-0.553040
Br78	Br	1.313291	-1.119879	-0.342647
Br79	Br	0.993710	-0.867742	-0.630858
H80	H	1.024001	-0.753959	-0.603441
Br81	Br	1.049432	-0.616747	-0.580316
Br82	Br	1.280753	-0.245023	-0.928340
H83	H	1.079734	-0.502945	-0.552919
