data_functionalizedCrystal
_audit_creation_method	'MofGen! by Chris Wilmer'
_symmetry_space_group_name_H-M	'P1'
_symmetry_Int_Tables_number	1
_symmetry_cell_setting	triclinic
loop_
_symmetry_equiv_pos_as_xyz
  x,y,z
_cell_length_a	10.654550
_cell_length_b	15.944551
_cell_length_c	9.730223
_cell_angle_alpha	89.997716
_cell_angle_beta	89.996251
_cell_angle_gamma	83.991820
loop_
_atom_site_label
_atom_site_type_symbol
_atom_site_fract_x
_atom_site_fract_y
_atom_site_fract_z
O1	O	1.666308	0.117973	-0.114406
O2	O	1.300684	0.129213	-0.114384
O3	O	1.493480	0.001376	-0.114384
O4	O	1.473511	0.245810	-0.114407
O5	O	1.493478	0.001379	0.114196
O6	O	1.300681	0.129216	0.114196
O7	O	1.666305	0.117976	0.114174
Zn8	Zn	1.483493	0.123597	0.150477
Zn9	Zn	1.483496	0.123592	-0.150687
O10	O	1.473509	0.245813	0.114173
C11	C	1.253895	0.128389	-0.000092
C12	C	1.114484	0.125920	-0.000083
C13	C	1.034024	0.201188	-0.000110
C14	C	0.903034	0.198863	-0.000134
C15	C	0.932975	0.045995	-0.000108
C16	C	1.063963	0.048321	-0.000075
C17	C	1.084545	0.278788	-0.000118
C18	C	1.004084	0.354062	-0.000147
C19	C	0.873094	0.351737	-0.000170
C20	C	0.822564	0.274137	-0.000165
C21	C	1.492650	-0.029921	-0.000093
C22	C	1.490165	-0.123182	-0.000092
C23	C	1.364720	-0.338765	-0.000104
C24	C	1.422971	-0.399443	0.112596
C25	C	1.485668	-0.293934	-0.000103
C26	C	1.423002	-0.399430	-0.112765
C27	C	1.481317	-0.458872	-0.000119
C28	C	1.543953	-0.353384	0.112691
C29	C	1.543967	-0.353364	-0.112772
C30	C	1.602306	-0.414024	-0.000045
C31	C	1.488172	-0.198917	-0.000092
C32	C	1.478822	-0.553887	-0.000119
C33	C	1.713094	0.118800	-0.000122
C34	C	1.852505	0.121269	-0.000140
C35	C	1.474339	0.277110	-0.000120
C36	C	1.476824	0.370371	-0.000130
N37	N	1.483500	0.123599	0.356013
N38	N	1.483499	0.123583	-0.356224
C39	C	1.568892	0.067012	0.427939
C40	C	1.568889	0.067002	0.571822
C41	C	1.398098	0.180173	0.571840
C42	C	1.398096	0.180178	0.427959
C43	C	1.654296	0.010433	0.355993
C44	C	1.739696	-0.046158	0.427920
C45	C	1.739693	-0.046168	0.571803
C46	C	1.654290	0.010412	0.643759
H47	H	1.191203	0.280689	-0.000105
H48	H	1.328567	0.226239	0.630436
H49	H	1.045235	0.417241	-0.000140
H50	H	0.807585	0.413029	-0.000180
C51	C	1.353867	-0.427016	0.241317
C52	C	1.214812	-0.393627	0.266084
C53	C	1.145699	-0.421196	0.394797
C54	C	1.215641	-0.482155	0.498744
C55	C	1.354704	-0.515548	0.473979
C56	C	1.423817	-0.487978	0.345266
H57	H	1.163030	-0.348499	0.189134
H58	H	1.042755	-0.396477	0.413129
H59	H	1.164479	-0.502564	0.594025
H60	H	1.406486	-0.560676	0.550929
H61	H	1.526761	-0.512698	0.326934
C62	C	1.613001	-0.325986	0.241554
C63	C	1.562836	-0.344716	0.385554
C64	C	1.631878	-0.317317	0.514417
C65	C	1.751087	-0.271188	0.499279
C66	C	1.801259	-0.252455	0.355273
C67	C	1.732216	-0.279854	0.226410
H68	H	1.474585	-0.378866	0.396765
H69	H	1.594737	-0.331184	0.621020
H70	H	1.802197	-0.250905	0.594671
H71	H	1.889510	-0.218305	0.344061
H72	H	1.769357	-0.265987	0.119807
C73	C	0.877394	-0.039360	-0.000117
C74	C	0.791420	-0.061977	0.118552
C75	C	0.735841	-0.147333	0.118537
C76	C	0.766235	-0.210072	-0.000147
C77	C	0.852213	-0.187456	-0.118825
C78	C	0.907792	-0.102100	-0.118810
H79	H	0.768917	-0.015533	0.206417
H80	H	0.672194	-0.164074	0.206392
H81	H	0.725092	-0.273257	-0.000158
H82	H	0.874716	-0.233900	-0.206690
H83	H	0.971439	-0.085359	-0.206664
H84	H	1.654286	0.010393	0.760918
C85	C	1.152481	-0.034473	-0.000048
C86	C	1.146794	-0.097846	0.118651
C87	C	1.235315	-0.180641	0.118686
C88	C	1.329523	-0.200061	0.000021
C89	C	1.335214	-0.136686	-0.118687
C90	C	1.246694	-0.053892	-0.118722
H91	H	1.077052	-0.083471	0.206502
H92	H	1.231101	-0.227555	0.206563
H93	H	1.395051	-0.261351	0.000047
H94	H	1.404956	-0.151061	-0.206538
H95	H	1.250907	-0.006977	-0.206598
H96	H	1.264327	-0.306038	0.000015
H97	H	1.595080	-0.332939	-0.208062
H98	H	0.715901	0.272250	-0.000163
H99	H	1.328561	0.226256	0.369396
H100	H	1.702787	-0.446602	0.000013
H101	H	1.371831	-0.419804	-0.208051
H102	H	1.654309	0.010437	0.238836
H103	H	1.809222	-0.092229	0.369325
H104	H	1.809220	-0.092252	0.630364
