data_functionalizedCrystal
_audit_creation_method	'MofGen! by Chris Wilmer'
_symmetry_space_group_name_H-M	'P1'
_symmetry_Int_Tables_number	1
_symmetry_cell_setting	triclinic
loop_
_symmetry_equiv_pos_as_xyz
  x,y,z
_cell_length_a	10.654550
_cell_length_b	7.540329
_cell_length_c	10.654549
_cell_angle_alpha	89.997778
_cell_angle_beta	95.515146
_cell_angle_gamma	89.998368
loop_
_atom_site_label
_atom_site_type_symbol
_atom_site_fract_x
_atom_site_fract_y
_atom_site_fract_z
O1	O	1.667836	0.147346	-0.176397
O2	O	2.167836	0.647346	0.323603
O3	O	1.302357	0.147378	-0.193203
O4	O	1.802357	0.647378	0.306797
O5	O	1.493500	0.147354	-0.002061
O6	O	1.993500	0.647354	0.497939
O7	O	1.476693	0.147370	-0.367539
O8	O	1.976693	0.647370	0.132461
O9	O	1.493493	-0.147611	-0.002059
O10	O	1.993493	0.352389	0.497941
O11	O	1.302351	-0.147587	-0.193201
O12	O	1.802351	0.352413	0.306799
O13	O	1.667829	-0.147619	-0.176395
O14	O	2.167829	0.352381	0.323605
Cu15	Cu	1.485089	-0.174536	-0.184798
Cu16	Cu	1.985089	0.325464	0.315202
Cu17	Cu	1.485097	0.174295	-0.184800
Cu18	Cu	1.985097	0.674295	0.315200
O19	O	1.476687	-0.147595	-0.367538
O20	O	1.976687	0.352405	0.132462
C21	C	1.255556	-0.000100	-0.191968
C22	C	1.755556	0.499900	0.308032
C23	C	1.116113	-0.000088	-0.188276
C24	C	1.616113	0.499912	0.311724
N25	N	1.485093	-0.419884	-0.184796
N26	N	1.985093	0.080116	0.315204
C27	C	1.036627	-0.000088	-0.300818
C28	C	1.536627	0.499912	0.199182
C29	C	0.905606	-0.000119	-0.297341
C30	C	1.405606	0.499881	0.202659
C31	C	0.933570	-0.000143	-0.068772
C32	C	1.433570	0.499857	0.431228
C33	C	1.064588	-0.000124	-0.072250
C34	C	1.564588	0.499876	0.427750
C35	C	1.714631	-0.000137	-0.177630
C36	C	2.214631	0.499863	0.322370
C37	C	1.854074	-0.000137	-0.181322
C38	C	2.354074	0.499863	0.318678
C39	C	1.492263	-0.000127	0.044738
C40	C	1.992263	0.499873	0.544738
C41	C	1.488571	-0.000121	0.184181
C42	C	1.988571	0.499879	0.684181
N43	N	1.485104	0.419643	-0.184792
N44	N	1.985104	0.919643	0.315208
C45	C	1.477924	-0.000110	-0.414336
C46	C	1.977924	0.499890	0.085664
C47	C	1.481616	-0.000105	-0.553780
C48	C	1.981616	0.499895	-0.053780
C49	C	1.597634	-0.000118	0.394696
C50	C	2.097634	0.499882	0.894696
C51	C	1.601113	-0.000132	0.263676
C52	C	2.101113	0.499868	0.763676
C53	C	1.372543	-0.000113	0.235714
C54	C	1.872543	0.499887	0.735714
C55	C	1.369066	-0.000111	0.366732
C56	C	1.869066	0.499889	0.866732
H57	H	1.078574	-0.000072	-0.395294
H58	H	1.578574	0.499928	0.104706
Br59	Br	0.863635	-0.000185	0.088685
Br60	Br	1.363635	0.499815	0.588685
Br61	Br	1.750379	-0.000114	0.502570
Br62	Br	2.250379	0.499886	1.002570
Br63	Br	1.211601	-0.000112	0.436665
Br64	Br	1.711601	0.499888	0.936665
Br65	Br	1.172472	-0.000147	0.080497
Br66	Br	1.672472	0.499853	0.580497
H67	H	0.840893	-0.000123	-0.388984
H68	H	1.340893	0.499877	0.111016
H69	H	1.695586	-0.000146	0.221732
H70	H	2.195586	0.499854	0.721732
H71	H	1.280910	-0.000113	0.170979
H72	H	1.780910	0.499887	0.670979
