data_functionalizedCrystal
_audit_creation_method	'MofGen! by Chris Wilmer'
_symmetry_space_group_name_H-M	'P1'
_symmetry_Int_Tables_number	1
_symmetry_cell_setting	triclinic
loop_
_symmetry_equiv_pos_as_xyz
  x,y,z
_cell_length_a	12.827893
_cell_length_b	18.050589
_cell_length_c	12.827885
_cell_angle_alpha	89.970449
_cell_angle_beta	89.980728
_cell_angle_gamma	90.028191
loop_
_atom_site_label
_atom_site_type_symbol
_atom_site_fract_x
_atom_site_fract_y
_atom_site_fract_z
Zn1	Zn	1.597576	-0.295624	-0.590850
Zn2	Zn	1.597431	-0.419832	-0.416111
Zn3	Zn	1.422818	-0.295660	-0.416124
Zn4	Zn	1.422764	-0.419777	-0.590811
O5	O	1.510147	-0.357723	-0.503474
O6	O	1.743793	-0.312109	-0.567682
O7	O	1.574230	-0.403399	-0.269877
O8	O	1.446083	-0.191731	-0.439323
O9	O	1.743687	-0.403364	-0.439302
O10	O	1.574478	-0.191704	-0.567694
O11	O	1.445943	-0.312170	-0.269886
O12	O	1.276575	-0.312117	-0.439286
O13	O	1.445991	-0.403269	-0.737053
O14	O	1.276535	-0.403304	-0.567628
O15	O	1.574425	-0.312055	-0.737081
O16	O	1.574178	-0.523749	-0.439264
O17	O	1.445851	-0.523709	-0.567615
C18	C	1.238638	-0.357709	-0.503454
C19	C	1.122484	-0.357721	-0.503471
C20	C	1.510021	-0.550675	-0.503457
C21	C	1.510063	-0.633221	-0.503484
C22	C	0.950647	-0.312551	-0.440094
C23	C	1.070698	-0.312538	-0.440076
C24	C	1.440347	-0.832677	-0.573257
C25	C	1.414870	-0.882124	-0.477900
C26	C	1.510166	-0.784351	-0.503498
C27	C	1.535694	-0.881986	-0.598866
C28	C	1.510263	-0.930337	-0.503520
C29	C	1.484639	-0.832712	-0.408091
C30	C	1.605506	-0.832569	-0.529120
C31	C	1.580066	-0.881994	-0.433698
C32	C	1.510107	-0.700253	-0.503487
C33	C	1.510322	-1.014433	-0.503520
C34	C	1.782718	-0.357738	-0.503495
C35	C	1.898871	-0.357745	-0.503504
C36	C	1.510219	-0.357652	-0.776045
C37	C	1.510249	-0.357622	-0.892198
C38	C	1.510303	-0.164018	-0.503515
C39	C	1.510369	-0.081472	-0.503532
C40	C	1.573809	-0.312477	-0.943997
C41	C	1.573842	-0.312444	-1.064047
C42	C	1.510137	-0.357741	-0.231964
C43	C	1.510309	-0.357562	-0.115812
H44	H	0.906099	-0.273867	-0.385824
C45	C	1.130848	-0.260263	-0.366736
N46	N	1.176156	-0.220887	-0.311497
C47	C	1.062341	-0.409995	-0.576816
N48	N	1.017033	-0.449368	-0.632062
C49	C	1.647290	-0.260291	-0.883844
N50	N	1.702638	-0.220983	-0.838538
H51	H	1.462993	-0.811157	-0.327426
H52	H	0.943419	-0.396423	-0.557782
C53	C	1.647356	-0.260226	-1.124223
N54	N	1.702727	-0.220892	-1.169551
C55	C	1.436761	-0.409803	-0.952351
N56	N	1.381408	-0.449107	-0.997656
C57	C	1.659884	-0.911071	-0.353922
N58	N	1.719997	-0.932974	-0.293832
H59	H	1.455894	-0.396217	-1.071273
H60	H	1.381217	-0.811021	-0.632167
C61	C	1.306003	-0.911530	-0.448627
N62	N	1.224003	-0.933677	-0.426585
C63	C	1.564812	-0.911226	-0.707810
N64	N	1.586737	-0.933247	-0.789870
C65	C	1.714334	-0.803128	-0.558443
N66	N	1.796301	-0.780947	-0.580542
