data_functionalizedCrystal
_audit_creation_method	'MofGen! by Chris Wilmer'
_symmetry_space_group_name_H-M	'P1'
_symmetry_Int_Tables_number	1
_symmetry_cell_setting	triclinic
loop_
_symmetry_equiv_pos_as_xyz
  x,y,z
_cell_length_a	10.654550
_cell_length_b	15.021413
_cell_length_c	10.654550
_cell_angle_alpha	90.001460
_cell_angle_beta	95.515069
_cell_angle_gamma	89.989986
loop_
_atom_site_label
_atom_site_type_symbol
_atom_site_fract_x
_atom_site_fract_y
_atom_site_fract_z
O1	O	1.667822	0.073965	-0.176390
O2	O	1.302343	0.073982	-0.193196
O3	O	1.493485	0.073968	-0.002054
O4	O	1.476679	0.073979	-0.367532
O5	O	1.493508	-0.074097	-0.002066
O6	O	1.302366	-0.074083	-0.193208
O7	O	1.667844	-0.074099	-0.176402
Zn8	Zn	1.485109	-0.097599	-0.184807
Zn9	Zn	1.485079	0.097482	-0.184791
O10	O	1.476702	-0.074085	-0.367544
C11	C	1.255556	-0.000048	-0.191968
C12	C	1.116113	-0.000042	-0.188276
C13	C	1.036628	-0.000041	-0.300818
C14	C	0.905607	-0.000057	-0.297341
C15	C	0.933570	-0.000071	-0.068772
C16	C	1.064588	-0.000062	-0.072250
N17	N	1.485138	-0.230737	-0.184817
C18	C	1.573540	-0.470403	-0.096413
C19	C	1.459843	-0.529727	-0.071033
C20	C	1.485109	-0.412344	-0.184801
C21	C	1.598777	-0.529761	-0.210107
C22	C	1.485091	-0.587768	-0.184783
C23	C	1.371354	-0.470362	-0.159365
C24	C	1.510363	-0.470390	-0.298488
C25	C	1.396585	-0.529688	-0.273156
C26	C	1.485121	-0.311286	-0.184809
C27	C	1.485065	-0.688823	-0.184777
C28	C	1.714631	-0.000067	-0.177630
C29	C	1.854074	-0.000067	-0.181322
C30	C	1.492263	-0.000064	0.044738
C31	C	1.488571	-0.000063	0.184181
N32	N	1.485059	0.230620	-0.184771
C33	C	1.477925	-0.000051	-0.414336
C34	C	1.481617	-0.000047	-0.553779
C35	C	1.601112	-0.000067	0.263667
C36	C	1.597636	-0.000056	0.394688
C37	C	1.369066	-0.000040	0.366725
C38	C	1.372544	-0.000044	0.235706
H39	H	0.840894	-0.000058	-0.388984
H40	H	1.078574	-0.000032	-0.395294
H41	H	1.694912	-0.555852	-0.231519
O42	O	1.297417	-0.563977	-0.372152
H43	H	1.203204	-0.540063	-0.350830
H44	H	0.891602	-0.000092	0.025693
O45	O	1.251150	-0.000050	0.149967
H46	H	1.195665	0.060297	0.168411
O47	O	1.719023	-0.000074	0.480418
H48	H	1.774497	0.060261	0.461963
O49	O	1.726252	-0.000067	0.208094
H50	H	1.780405	-0.060411	0.239957
O51	O	1.150335	-0.000065	0.049139
H52	H	1.092498	-0.000068	0.130404
O53	O	1.243931	-0.000040	0.422305
H54	H	1.236869	0.060304	0.481341
H55	H	1.531776	-0.444306	-0.394609
O56	O	1.431515	-0.564261	0.056320
H57	H	1.430865	-0.638144	0.054870
H58	H	1.648243	-0.444371	-0.021623
H59	H	1.275196	-0.444381	-0.137844
