data_functionalizedCrystal
_audit_creation_method	'MofGen! by Chris Wilmer'
_symmetry_space_group_name_H-M	'P1'
_symmetry_Int_Tables_number	1
_symmetry_cell_setting	triclinic
loop_
_symmetry_equiv_pos_as_xyz
  x,y,z
_cell_length_a	19.805405
_cell_length_b	19.805407
_cell_length_c	19.805398
_cell_angle_alpha	90.017356
_cell_angle_beta	89.972363
_cell_angle_gamma	89.974605
loop_
_atom_site_label
_atom_site_type_symbol
_atom_site_fract_x
_atom_site_fract_y
_atom_site_fract_z
Zn1	Zn	-0.269508	-1.034711	-0.382738
Zn2	Zn	-0.019508	-0.784711	-0.132738
Zn3	Zn	0.230492	-0.534711	0.117262
Zn4	Zn	0.480492	-0.284711	0.367262
Zn5	Zn	-0.382693	-1.034633	-0.269547
Zn6	Zn	-0.132693	-0.784633	-0.019547
Zn7	Zn	0.117307	-0.534633	0.230453
Zn8	Zn	0.367307	-0.284633	0.480453
Zn9	Zn	-0.269522	-0.921533	-0.269560
Zn10	Zn	-0.019522	-0.671533	-0.019560
Zn11	Zn	0.230478	-0.421533	0.230440
Zn12	Zn	0.480478	-0.171533	0.480440
Zn13	Zn	-0.382659	-0.921489	-0.382691
Zn14	Zn	-0.132659	-0.671489	-0.132691
Zn15	Zn	0.117341	-0.421489	0.117309
Zn16	Zn	0.367341	-0.171489	0.367309
O17	O	-0.326096	-0.978091	-0.326134
O18	O	-0.076096	-0.728091	-0.076134
O19	O	0.173904	-0.478091	0.173866
O20	O	0.423904	-0.228091	0.423866
O21	O	-0.284531	-1.129417	-0.367738
O22	O	-0.034531	-0.879417	-0.117738
O23	O	0.215469	-0.629417	0.132262
O24	O	0.465469	-0.379417	0.382262
O25	O	-0.367701	-1.019616	-0.174832
O26	O	-0.117701	-0.769616	0.075168
O27	O	0.132299	-0.519616	0.325168
O28	O	0.382299	-0.269616	0.575168
O29	O	-0.174803	-0.936597	-0.284599
O30	O	0.075197	-0.686597	-0.034599
O31	O	0.325197	-0.436597	0.215401
O32	O	0.575197	-0.186597	0.465401
O33	O	-0.367688	-1.129360	-0.284576
O34	O	-0.117688	-0.879360	-0.034576
O35	O	0.132312	-0.629360	0.215424
O36	O	0.382312	-0.379360	0.465424
O37	O	-0.174793	-1.019748	-0.367751
O38	O	0.075207	-0.769748	-0.117751
O39	O	0.325207	-0.519748	0.132249
O40	O	0.575207	-0.269748	0.382249
O41	O	-0.284554	-0.936522	-0.174842
O42	O	-0.034554	-0.686522	0.075158
O43	O	0.215446	-0.436522	0.325158
O44	O	0.465446	-0.186522	0.575158
O45	O	-0.284521	-0.826810	-0.284553
O46	O	-0.034521	-0.576810	-0.034553
O47	O	0.215479	-0.326810	0.215447
O48	O	0.465479	-0.076810	0.465447
O49	O	-0.367629	-0.936522	-0.477414
O50	O	-0.117629	-0.686522	-0.227414
O51	O	0.132371	-0.436522	0.022586
O52	O	0.382371	-0.186522	0.272586
O53	O	-0.367642	-0.826778	-0.367669
O54	O	-0.117642	-0.576778	-0.117669
O55	O	0.132358	-0.326778	0.132331
O56	O	0.382358	-0.076778	0.382331
O57	O	-0.284498	-1.019706	-0.477449
O58	O	-0.034498	-0.769706	-0.227449
O59	O	0.215502	-0.519706	0.022551
O60	O	0.465502	-0.269706	0.272551
O61	O	-0.477405	-1.019573	-0.284530
O62	O	-0.227405	-0.769573	-0.034530
O63	O	0.022595	-0.519573	0.215470
O64	O	0.272595	-0.269573	0.465470
O65	O	-0.477380	-0.936447	-0.367656
O66	O	-0.227380	-0.686447	-0.117656
O67	O	0.022620	-0.436447	0.132344
O68	O	0.272620	-0.186447	0.382344
C69	C	-0.326079	-0.802235	-0.326108
C70	C	-0.076079	-0.552235	-0.076108
C71	C	0.173921	-0.302235	0.173892
C72	C	0.423921	-0.052235	0.423892
C73	C	-0.326089	-0.727003	-0.326112
C74	C	-0.076089	-0.477003	-0.076112
C75	C	0.173911	-0.227003	0.173888
C76	C	0.423911	0.022997	0.423888
C77	C	-0.369435	-0.691660	-0.369320
C78	C	-0.119435	-0.441660	-0.119320
C79	C	0.130565	-0.191660	0.130680
C80	C	0.380565	0.058340	0.380680
C81	C	-0.369435	-0.620972	-0.369328
C82	C	-0.119435	-0.370972	-0.119328
C83	C	0.130565	-0.120972	0.130672
C84	C	0.380565	0.129028	0.380672
C85	C	-0.326092	-0.585628	-0.326124
C86	C	-0.076092	-0.335628	-0.076124
C87	C	0.173908	-0.085628	0.173876
C88	C	0.423908	0.164372	0.423876
C89	C	-0.282741	-0.620976	-0.282914
C90	C	-0.032741	-0.370976	-0.032914
C91	C	0.217259	-0.120976	0.217086
C92	C	0.467259	0.129024	0.467086
C93	C	-0.282738	-0.691663	-0.282910
C94	C	-0.032738	-0.441663	-0.032910
C95	C	0.217262	-0.191663	0.217090
C96	C	0.467262	0.058337	0.467090
C97	C	-0.282751	-0.335903	-0.282929
C98	C	-0.032751	-0.085903	-0.032929
C99	C	0.217249	0.164097	0.217071
C100	C	0.467249	0.414097	0.467071
C101	C	-0.282759	-0.265211	-0.282935
C102	C	-0.032759	-0.015211	-0.032935
C103	C	0.217241	0.234789	0.217065
C104	C	0.467241	0.484789	0.467065
C105	C	-0.369447	-0.265211	-0.369346
C106	C	-0.119447	-0.015211	-0.119346
C107	C	0.130553	0.234789	0.130654
C108	C	0.380553	0.484789	0.380654
C109	C	-0.369445	-0.335899	-0.369343
C110	C	-0.119445	-0.085899	-0.119343
C111	C	0.130555	0.164101	0.130657
C112	C	0.380555	0.414101	0.380657
C113	C	-0.326092	-0.371241	-0.326136
C114	C	-0.076092	-0.121241	-0.076136
C115	C	0.173908	0.128759	0.173864
C116	C	0.423908	0.378759	0.423864
C117	C	-0.326091	-0.447889	-0.326129
C118	C	-0.076091	-0.197889	-0.076129
C119	C	0.173909	0.052111	0.173871
C120	C	0.423909	0.302111	0.423871
C121	C	-0.326095	-0.508981	-0.326127
C122	C	-0.076095	-0.258981	-0.076127
C123	C	0.173905	-0.008981	0.173873
C124	C	0.423905	0.241019	0.423873
C125	C	-0.501952	-0.978015	-0.326101
C126	C	-0.251952	-0.728015	-0.076101
C127	C	-0.001952	-0.478015	0.173899
C128	C	0.248048	-0.228015	0.423899
C129	C	-0.577184	-0.978045	-0.326110
C130	C	-0.327184	-0.728045	-0.076110
C131	C	-0.077184	-0.478045	0.173890
C132	C	0.172816	-0.228045	0.423890
C133	C	-0.612518	-1.021371	-0.282871
C134	C	-0.362518	-0.771371	-0.032871
C135	C	-0.112518	-0.521371	0.217129
C136	C	0.137482	-0.271371	0.467129
C137	C	-0.683207	-1.021399	-0.282886
C138	C	-0.433207	-0.771399	-0.032886
C139	C	-0.183207	-0.521399	0.217114
C140	C	0.066793	-0.271399	0.467114
C141	C	-0.718559	-0.978098	-0.326137
C142	C	-0.468559	-0.728098	-0.076137
C143	C	-0.218559	-0.478098	0.173863
C144	C	0.031441	-0.228098	0.423863
C145	C	-0.683219	-0.934770	-0.369380
C146	C	-0.433219	-0.684770	-0.119380
C147	C	-0.183219	-0.434770	0.130620
C148	C	0.066781	-0.184770	0.380620
C149	C	-0.612532	-0.934746	-0.369368
C150	C	-0.362532	-0.684746	-0.119368
C151	C	-0.112532	-0.434746	0.130632
C152	C	0.137468	-0.184746	0.380632
C153	C	-0.968292	-0.934870	-0.369430
C154	C	-0.718292	-0.684870	-0.119430
C155	C	-0.468292	-0.434870	0.130570
C156	C	-0.218292	-0.184870	0.380570
C157	C	-1.038985	-0.934897	-0.369438
C158	C	-0.788985	-0.684897	-0.119438
C159	C	-0.538985	-0.434897	0.130562
C160	C	-0.288985	-0.184897	0.380562
C161	C	-1.038967	-1.021524	-0.282949
C162	C	-0.788967	-0.771524	-0.032949
C163	C	-0.538967	-0.521524	0.217051
C164	C	-0.288967	-0.271524	0.467051
C165	C	-0.968280	-1.021499	-0.282936
C166	C	-0.718280	-0.771499	-0.032936
C167	C	-0.468280	-0.521499	0.217064
C168	C	-0.218280	-0.271499	0.467064
C169	C	-0.932946	-0.978174	-0.326182
C170	C	-0.682946	-0.728174	-0.076182
C171	C	-0.432946	-0.478174	0.173818
C172	C	-0.182946	-0.228174	0.423818
C173	C	-0.856298	-0.978144	-0.326166
C174	C	-0.606298	-0.728144	-0.076166
C175	C	-0.356298	-0.478144	0.173834
C176	C	-0.106298	-0.228144	0.423834
C177	C	-0.795206	-0.978124	-0.326150
C178	C	-0.545206	-0.728124	-0.076150
C179	C	-0.295206	-0.478124	0.173850
C180	C	-0.045206	-0.228124	0.423850
C181	C	-0.149553	-0.978186	-0.326182
C182	C	0.100447	-0.728186	-0.076182
C183	C	0.350447	-0.478186	0.173818
C184	C	0.600447	-0.228186	0.423818
C185	C	-0.074321	-0.978227	-0.326202
C186	C	0.175679	-0.728227	-0.076202
C187	C	0.425679	-0.478227	0.173798
C188	C	0.675679	-0.228227	0.423798
C189	C	-0.326058	-0.978118	-0.502677
C190	C	-0.076058	-0.728118	-0.252677
C191	C	0.173942	-0.478118	-0.002677
C192	C	0.423942	-0.228118	0.247323
C193	C	-0.326042	-0.978129	-0.577909
C194	C	-0.076042	-0.728129	-0.327909
C195	C	0.173958	-0.478129	-0.077909
C196	C	0.423958	-0.228129	0.172091
C197	C	-0.326108	-0.154634	-0.326154
C198	C	-0.076108	0.095366	-0.076154
C199	C	0.173892	0.345366	0.173846
C200	C	0.423892	0.595366	0.423846
C201	C	-0.326102	-0.229866	-0.326146
C202	C	-0.076102	0.020134	-0.076146
C203	C	0.173898	0.270134	0.173854
C204	C	0.423898	0.520134	0.423854
C205	C	-0.282636	-1.021525	-1.039719
C206	C	-0.032636	-0.771525	-0.789719
C207	C	0.217364	-0.521525	-0.539719
C208	C	0.467364	-0.271525	-0.289719
C209	C	-0.282657	-1.021514	-0.969031
C210	C	-0.032657	-0.771514	-0.719031
C211	C	0.217343	-0.521514	-0.469031
C212	C	0.467343	-0.271514	-0.219031
C213	C	-0.325948	-0.978199	-0.933671
C214	C	-0.075948	-0.728199	-0.683671
C215	C	0.174052	-0.478199	-0.433671
C216	C	0.424052	-0.228199	-0.183671
C217	C	-0.369226	-0.934896	-0.969003
C218	C	-0.119226	-0.684896	-0.719003
C219	C	0.130774	-0.434896	-0.469003
C220	C	0.380774	-0.184896	-0.219003
C221	C	-0.369208	-0.934911	-1.039690
C222	C	-0.119208	-0.684911	-0.789690
C223	C	0.130792	-0.434911	-0.539690
C224	C	0.380792	-0.184911	-0.289690
C225	C	-0.369300	-0.934837	-0.683929
C226	C	-0.119300	-0.684837	-0.433929
C227	C	0.130700	-0.434837	-0.183929
C228	C	0.380700	-0.184837	0.066071
C229	C	-0.369313	-0.934825	-0.613237
C230	C	-0.119313	-0.684825	-0.363237
C231	C	0.130687	-0.434825	-0.113237
C232	C	0.380687	-0.184825	0.136763
C233	C	-0.282748	-1.021441	-0.613270
C234	C	-0.032748	-0.771441	-0.363270
C235	C	0.217252	-0.521441	-0.113270
C236	C	0.467252	-0.271441	0.136730
C237	C	-0.282730	-1.021455	-0.683958
C238	C	-0.032730	-0.771455	-0.433958
C239	C	0.217270	-0.521455	-0.183958
C240	C	0.467270	-0.271455	0.066042
C241	C	-0.326010	-0.978155	-0.719283
C242	C	-0.076010	-0.728155	-0.469283
C243	C	0.173990	-0.478155	-0.219283
C244	C	0.423990	-0.228155	0.030717
C245	C	-0.325988	-0.978168	-0.795932
C246	C	-0.075988	-0.728168	-0.545932
C247	C	0.174012	-0.478168	-0.295932
C248	C	0.424012	-0.228168	-0.045932
C249	C	-0.325967	-0.978182	-0.857024
C250	C	-0.075967	-0.728182	-0.607024
C251	C	0.174033	-0.478182	-0.357024
C252	C	0.424033	-0.228182	-0.107024
C253	C	-0.326084	-0.978104	-0.150278
C254	C	-0.076084	-0.728104	0.099722
C255	C	0.173916	-0.478104	0.349722
C256	C	0.423916	-0.228104	0.599722
C257	C	-0.325909	-0.978224	-0.075046
C258	C	-0.075909	-0.728224	0.174954
C259	C	0.174091	-0.478224	0.424954
C260	C	0.424091	-0.228224	0.674954
H261	H	-0.247459	-0.236436	-0.247753
H262	H	0.002541	0.013564	0.002247
H263	H	0.252541	0.263564	0.252247
H264	H	0.502541	0.513564	0.502247
H265	H	-0.247456	-0.364670	-0.247742
H266	H	0.002544	-0.114670	0.002258
H267	H	0.252544	0.135330	0.252258
H268	H	0.502544	0.385330	0.502258
H269	H	-0.247448	-0.592193	-0.247740
H270	H	0.002552	-0.342193	0.002260
H271	H	0.252552	-0.092193	0.252260
H272	H	0.502552	0.157807	0.502260
F273	F	-0.236683	-1.067524	-0.575669
F274	F	0.013317	-0.817524	-0.325669
F275	F	0.263317	-0.567524	-0.075669
F276	F	0.513317	-0.317524	0.174331
F277	F	-1.076608	-0.888809	-0.415474
F278	F	-0.826608	-0.638809	-0.165474
F279	F	-0.576608	-0.388809	0.084526
F280	F	-0.326608	-0.138809	0.334526
H281	H	-0.404732	-0.592199	-0.404511
H282	H	-0.154732	-0.342199	-0.154511
H283	H	0.095268	-0.092199	0.095489
H284	H	0.345268	0.157801	0.345489
H285	H	-0.711974	-1.056679	-0.247677
H286	H	-0.461974	-0.806679	0.002323
H287	H	-0.211974	-0.556679	0.252323
H288	H	0.038026	-0.306679	0.502323
F289	F	-0.236602	-0.729278	-0.236924
F290	F	0.013398	-0.479278	0.013076
F291	F	0.263398	-0.229278	0.263076
F292	F	0.513398	0.020722	0.513076
F293	F	-0.415587	-0.227592	-0.415332
F294	F	-0.165587	0.022408	-0.165332
F295	F	0.084413	0.272408	0.084668
F296	F	0.334413	0.522408	0.334668
H297	H	-0.404478	-0.899631	-0.940207
H298	H	-0.154478	-0.649631	-0.690207
H299	H	0.095522	-0.399631	-0.440207
H300	H	0.345522	-0.149631	-0.190207
F301	F	-0.574900	-1.067454	-0.236833
F302	F	-0.324900	-0.817454	0.013167
F303	F	-0.074900	-0.567454	0.263167
F304	F	0.175100	-0.317454	0.513167
F305	F	-0.930660	-1.067585	-0.236903
F306	F	-0.680660	-0.817585	0.013097
F307	F	-0.430660	-0.567585	0.263097
F308	F	-0.180660	-0.317585	0.513097
F309	F	-1.076578	-1.067638	-0.236925
F310	F	-0.826578	-0.817638	0.013075
F311	F	-0.576578	-0.567638	0.263075
F312	F	-0.326578	-0.317638	0.513075
F313	F	-0.930697	-0.888759	-0.415455
F314	F	-0.680697	-0.638759	-0.165455
F315	F	-0.430697	-0.388759	0.084545
F316	F	-0.180697	-0.138759	0.334545
F317	F	-0.720846	-0.888690	-0.415415
F318	F	-0.470846	-0.638690	-0.165415
F319	F	-0.220846	-0.388690	0.084585
F320	F	0.029154	-0.138690	0.334585
F321	F	-0.574926	-0.888634	-0.415390
F322	F	-0.324926	-0.638634	-0.165390
F323	F	-0.074926	-0.388634	0.084610
F324	F	0.175074	-0.138634	0.334610
F325	F	-0.415267	-0.888825	-1.077287
F326	F	-0.165267	-0.638825	-0.827287
F327	F	0.084733	-0.388825	-0.577287
F328	F	0.334733	-0.138825	-0.327287
H329	H	-0.247379	-1.056793	-1.068505
H330	H	0.002621	-0.806793	-0.818505
H331	H	0.252621	-0.556793	-0.568505
H332	H	0.502621	-0.306793	-0.318505
F333	F	-0.236599	-1.067601	-0.931437
F334	F	0.013401	-0.817601	-0.681437
F335	F	0.263401	-0.567601	-0.431437
F336	F	0.513401	-0.317601	-0.181437
F337	F	-0.236658	-1.067562	-0.721587
F338	F	0.013342	-0.817562	-0.471587
F339	F	0.263342	-0.567562	-0.221587
F340	F	0.513342	-0.317562	0.028413
F341	F	-0.415392	-0.888721	-0.575605
F342	F	-0.165392	-0.638721	-0.325605
F343	F	0.084608	-0.388721	-0.075605
F344	F	0.334608	-0.138721	0.174395
F345	F	-0.415578	-0.373510	-0.415324
F346	F	-0.165578	-0.123510	-0.165324
F347	F	0.084422	0.126490	0.084676
F348	F	0.334422	0.376490	0.334676
H349	H	-0.404540	-0.899579	-0.712683
H350	H	-0.154540	-0.649579	-0.462683
H351	H	0.095460	-0.399579	-0.212683
H352	H	0.345460	-0.149579	0.037317
H353	H	-0.404732	-0.720432	-0.404500
H354	H	-0.154732	-0.470432	-0.154500
H355	H	0.095268	-0.220432	0.095500
H356	H	0.345268	0.029568	0.345500
