data_functionalizedCrystal
_audit_creation_method	'MofGen! by Chris Wilmer'
_symmetry_space_group_name_H-M	'P1'
_symmetry_Int_Tables_number	1
_symmetry_cell_setting	triclinic
loop_
_symmetry_equiv_pos_as_xyz
  x,y,z
_cell_length_a	19.805405
_cell_length_b	19.121224
_cell_length_c	19.805399
_cell_angle_alpha	87.533523
_cell_angle_beta	90.026615
_cell_angle_gamma	87.541003
loop_
_atom_site_label
_atom_site_type_symbol
_atom_site_fract_x
_atom_site_fract_y
_atom_site_fract_z
Zn1	Zn	-0.225464	-1.073743	0.427003
Zn2	Zn	0.107869	-0.740410	0.760337
Zn3	Zn	0.441203	-0.407077	1.093670
Zn4	Zn	-0.338656	-1.073654	0.313813
Zn5	Zn	-0.005323	-0.740321	0.647147
Zn6	Zn	0.328011	-0.406988	0.980480
Zn7	Zn	-0.230297	-0.956291	0.308984
Zn8	Zn	0.103036	-0.622958	0.642318
Zn9	Zn	0.436369	-0.289624	0.975651
Zn10	Zn	-0.343433	-0.956253	0.422119
Zn11	Zn	-0.010099	-0.622919	0.755452
Zn12	Zn	0.323234	-0.289586	1.088785
O13	O	-0.284463	-1.014985	0.367980
O14	O	0.048871	-0.681652	0.701313
O15	O	0.382204	-0.348319	1.034647
O16	O	-0.236457	-1.172019	0.416054
O17	O	0.096876	-0.838686	0.749387
O18	O	0.430209	-0.505352	1.082720
O19	O	-0.324306	-1.058065	0.218455
O20	O	0.009028	-0.724731	0.551789
O21	O	0.342361	-0.391398	0.885122
O22	O	-0.134937	-0.971925	0.324663
O23	O	0.198396	-0.638591	0.657996
O24	O	0.531729	-0.305258	0.991330
O25	O	-0.319619	-1.171954	0.332893
O26	O	0.013714	-0.838620	0.666227
O27	O	0.347048	-0.505287	0.999560
O28	O	-0.131386	-1.058217	0.411371
O29	O	0.201947	-0.724883	0.744704
O30	O	0.535280	-0.391550	1.078038
O31	O	-0.244695	-0.971838	0.214907
O32	O	0.088638	-0.638505	0.548241
O33	O	0.421972	-0.305172	0.881574
O34	O	-0.249327	-0.857999	0.319927
O35	O	0.084007	-0.524665	0.653260
O36	O	0.417340	-0.191332	0.986593
O37	O	-0.327760	-0.971859	0.517484
O38	O	0.005573	-0.638526	0.850817
O39	O	0.338907	-0.305192	1.184151
O40	O	-0.332447	-0.857970	0.403046
O41	O	0.000887	-0.524637	0.736379
O42	O	0.334220	-0.191304	1.069713
O43	O	-0.241089	-1.058179	0.521073
O44	O	0.092244	-0.724846	0.854406
O45	O	0.425578	-0.391513	1.187739
O46	O	-0.434008	-1.058027	0.328157
O47	O	-0.100675	-0.724694	0.661490
O48	O	0.232658	-0.391361	0.994824
O49	O	-0.437518	-0.971773	0.407728
O50	O	-0.104184	-0.638439	0.741062
O51	O	0.229149	-0.305106	1.074395
C52	C	-0.291930	-0.832500	0.360433
C53	C	0.041403	-0.499166	0.693766
C54	C	0.374737	-0.165833	1.027099
C55	C	-0.295141	-0.754431	0.357220
C56	C	0.038192	-0.421098	0.690553
C57	C	0.371526	-0.087765	1.023887
C58	C	-0.460322	-1.014905	0.367952
C59	C	-0.126989	-0.681572	0.701285
C60	C	0.206345	-0.348239	1.034619
C61	C	-0.535553	-1.014935	0.367965
C62	C	-0.202219	-0.681602	0.701299
C63	C	0.131114	-0.348269	1.034632
C64	C	-0.315469	-0.312891	0.336897
C65	C	0.017864	0.020442	0.670230
C66	C	0.351197	0.353775	1.003563
C67	C	-0.312449	-0.386245	0.339910
C68	C	0.020885	-0.052911	0.673243
C69	C	0.354218	0.280422	1.006577
C70	C	-0.267711	-0.422957	0.384785
C71	C	0.065622	-0.089624	0.718118
C72	C	0.398955	0.243709	1.051451
C73	C	-0.225987	-0.386313	0.426643
C74	C	0.107346	-0.052980	0.759977
C75	C	0.440680	0.280354	1.093310
C76	C	-0.229005	-0.312961	0.423626
C77	C	0.104329	0.020372	0.756959
C78	C	0.437662	0.353706	1.090293
C79	C	-0.256434	-0.644435	0.396061
C80	C	0.076899	-0.311102	0.729395
C81	C	0.410232	0.022232	1.062728
C82	C	-0.253421	-0.717792	0.399077
C83	C	0.079912	-0.384459	0.732410
C84	C	0.413245	-0.051126	1.065744
C85	C	-0.339882	-0.717719	0.312343
C86	C	-0.006549	-0.384385	0.645676
C87	C	0.326784	-0.051052	0.979009
C88	C	-0.342899	-0.644365	0.309332
C89	C	-0.009566	-0.311032	0.642665
C90	C	0.323768	0.022301	0.975999
C91	C	-0.301172	-0.607727	0.351188
C92	C	0.032161	-0.274394	0.684522
C93	C	0.365494	0.058939	1.017855
C94	C	-0.264624	-0.497936	0.387867
C95	C	0.068709	-0.164603	0.721201
C96	C	0.402042	0.168730	1.054534
C97	C	-0.304256	-0.532750	0.348102
C98	C	0.029077	-0.199416	0.681435
C99	C	0.362410	0.133917	1.014768
C100	C	-0.568991	-1.059841	0.413147
C101	C	-0.235657	-0.726508	0.746480
C102	C	0.097676	-0.393174	1.079814
C103	C	-0.639678	-1.059866	0.413161
C104	C	-0.306345	-0.726533	0.746494
C105	C	0.026989	-0.393200	1.079827
C106	C	-0.676926	-1.014989	0.367989
C107	C	-0.343593	-0.681656	0.701322
C108	C	-0.010259	-0.348322	1.034656
C109	C	-0.643483	-0.970079	0.322805
C110	C	-0.310150	-0.636745	0.656138
C111	C	0.023183	-0.303412	0.989472
C112	C	-0.572797	-0.970050	0.322795
C113	C	-0.239464	-0.636717	0.656129
C114	C	0.093869	-0.303384	0.989462
C115	C	-0.928552	-0.970191	0.322844
C116	C	-0.595218	-0.636858	0.656178
C117	C	-0.261885	-0.303525	0.989511
C118	C	-0.999243	-0.970225	0.322856
C119	C	-0.665909	-0.636891	0.656190
C120	C	-0.332576	-0.303558	0.989523
C121	C	-0.995433	-1.060007	0.413210
C122	C	-0.662099	-0.726674	0.746543
C123	C	-0.328766	-0.393341	1.079877
C124	C	-0.924747	-1.059979	0.413200
C125	C	-0.591413	-0.726646	0.746533
C126	C	-0.258080	-0.393312	1.079867
C127	C	-0.891310	-1.015066	0.368019
C128	C	-0.557977	-0.681733	0.701352
C129	C	-0.224643	-0.348400	1.034686
C130	C	-0.814663	-1.015038	0.368006
C131	C	-0.481330	-0.681705	0.701339
C132	C	-0.147996	-0.348372	1.034672
C133	C	-0.753572	-1.015020	0.367999
C134	C	-0.420238	-0.681687	0.701332
C135	C	-0.086905	-0.348353	1.034665
C136	C	-0.107916	-1.015085	0.368023
C137	C	0.225418	-0.681752	0.701357
C138	C	0.558751	-0.348418	1.034690
C139	C	-0.032682	-1.015127	0.368042
C140	C	0.300651	-0.681794	0.701375
C141	C	0.633985	-0.348461	1.034709
C142	C	-0.284418	-1.015025	0.544524
C143	C	0.048915	-0.681691	0.877858
C144	C	0.382248	-0.348358	1.211191
C145	C	-0.284399	-1.015042	0.619757
C146	C	0.048934	-0.681708	0.953090
C147	C	0.382267	-0.348375	1.286424
C148	C	-0.276961	-0.198184	0.375549
C149	C	0.056373	0.135150	0.708882
C150	C	0.389706	0.468483	1.042216
C151	C	-0.273750	-0.276252	0.378754
C152	C	0.059584	0.057081	0.712087
C153	C	0.392917	0.390415	1.045420
C154	C	-0.284456	-1.014987	0.192124
C155	C	0.048877	-0.681653	0.525457
C156	C	0.382211	-0.348320	0.858791
C157	C	-0.284279	-1.015106	0.116897
C158	C	0.049055	-0.681773	0.450231
C159	C	0.382388	-0.348439	0.783564
C160	C	-0.239268	-1.059989	0.656971
C161	C	0.094066	-0.726656	0.990304
C162	C	0.427399	-0.393323	1.323638
C163	C	-0.239248	-1.059997	0.727660
C164	C	0.094086	-0.726663	1.060993
C165	C	0.427419	-0.393330	1.394326
C166	C	-0.284363	-1.015059	0.761133
C167	C	0.048970	-0.681726	1.094467
C168	C	0.382303	-0.348392	1.427800
C169	C	-0.329497	-0.970106	0.723914
C170	C	0.003836	-0.636773	1.057248
C171	C	0.337169	-0.303440	1.390581
C172	C	-0.329513	-0.970096	0.653227
C173	C	0.003820	-0.636763	0.986560
C174	C	0.337153	-0.303429	1.319893
C175	C	-0.329433	-0.970146	1.008989
C176	C	0.003901	-0.636813	1.342323
C177	C	0.337234	-0.303479	1.675656
C178	C	-0.329414	-0.970161	1.079682
C179	C	0.003919	-0.636828	1.413015
C180	C	0.337252	-0.303494	1.746349
C181	C	-0.239167	-1.060047	1.083422
C182	C	0.094166	-0.726713	1.416756
C183	C	0.427500	-0.393380	1.750089
C184	C	-0.239183	-1.060036	1.012735
C185	C	0.094150	-0.726703	1.346068
C186	C	0.427484	-0.393370	1.679401
C187	C	-0.284314	-1.015081	0.975522
C188	C	0.049019	-0.681748	1.308855
C189	C	0.382353	-0.348415	1.642188
C190	C	-0.284334	-1.015073	0.898873
C191	C	0.048999	-0.681740	1.232206
C192	C	0.382332	-0.348406	1.565540
C193	C	-0.284347	-1.015070	0.837781
C194	C	0.048986	-0.681737	1.171114
C195	C	0.382320	-0.348404	1.504448
H196	H	-0.346420	-0.416073	0.305825
H197	H	-0.013087	-0.082740	0.639158
H198	H	0.320246	0.250594	0.972491
H199	H	-0.340679	-0.502855	0.311563
H200	H	-0.007346	-0.169522	0.644897
H201	H	0.325987	0.163812	0.978230
H202	H	-0.379328	-0.614479	0.272790
H203	H	-0.045995	-0.281145	0.606123
H204	H	0.287339	0.052188	0.939456
H205	H	-0.666900	-1.096438	0.449947
H206	H	-0.333566	-0.763105	0.783281
H207	H	-0.000233	-0.429772	1.116614
H208	H	-0.366258	-0.933488	0.622927
H209	H	-0.032924	-0.600154	0.956261
H210	H	0.300409	-0.266821	1.289594
H211	H	-0.366229	-0.933515	0.751174
H212	H	-0.032895	-0.600181	1.084507
H213	H	0.300438	-0.266848	1.417841
N214	N	-0.884578	-1.108381	0.461926
N215	N	-0.551244	-0.775048	0.795259
N216	N	-0.217911	-0.441714	1.128593
H217	H	-0.856427	-1.079803	0.492082
H218	H	-0.523094	-0.746469	0.825415
H219	H	-0.189760	-0.413136	1.158749
H220	H	-0.853943	-1.140928	0.435743
H221	H	-0.520609	-0.807595	0.769076
H222	H	-0.187276	-0.474261	1.102409
H223	H	-0.366154	-0.933564	1.106934
H224	H	-0.032821	-0.600231	1.440267
H225	H	0.300512	-0.266898	1.773601
H226	H	-0.351903	-0.283005	0.300358
H227	H	-0.018570	0.050328	0.633692
H228	H	0.314764	0.383662	0.967025
N229	N	-0.216394	-0.537541	0.436283
N230	N	0.116939	-0.204208	0.769617
N231	N	0.450272	0.129125	1.102950
H232	H	-0.183738	-0.567982	0.410097
H233	H	0.149596	-0.234649	0.743430
H234	H	0.482929	0.098684	1.076764
H235	H	-0.242766	-0.567933	0.468826
H236	H	0.090568	-0.234599	0.802159
H237	H	0.423901	0.098734	1.135493
N238	N	-0.384882	-0.757234	0.267197
N239	N	-0.051549	-0.423901	0.600530
N240	N	0.281784	-0.090568	0.933863
H241	H	-0.376183	-0.809273	0.275914
H242	H	-0.042850	-0.475940	0.609247
H243	H	0.290484	-0.142607	0.942581
H244	H	-0.374806	-0.744391	0.218349
H245	H	-0.041473	-0.411058	0.551683
H246	H	0.291861	-0.077724	0.885016
N247	N	-0.177746	-0.425906	0.475056
N248	N	0.155588	-0.092573	0.808390
N249	N	0.488921	0.240760	1.141723
H250	H	-0.182170	-0.477935	0.470624
H251	H	0.151163	-0.144601	0.803957
H252	H	0.484496	0.188732	1.137291
H253	H	-0.188889	-0.413093	0.522844
H254	H	0.144444	-0.079760	0.856177
H255	H	0.477778	0.253574	1.189510
H256	H	-1.029568	-0.933677	0.286071
H257	H	-0.696235	-0.600344	0.619404
H258	H	-0.362902	-0.267010	0.952738
N259	N	-0.892493	-0.921759	0.274110
N260	N	-0.559159	-0.588426	0.607443
N261	N	-0.225826	-0.255092	0.940776
H262	H	-0.926817	-0.893340	0.245493
H263	H	-0.593484	-0.560006	0.578826
H264	H	-0.260150	-0.226673	0.912159
H265	H	-0.861988	-0.950361	0.243990
H266	H	-0.528655	-0.617027	0.577323
H267	H	-0.195322	-0.283694	0.910657
H268	H	-1.022665	-1.096575	0.450001
H269	H	-0.689332	-0.763242	0.783334
H270	H	-0.355998	-0.429909	1.116667
H271	H	-0.216986	-0.747682	0.435618
H272	H	0.116347	-0.414348	0.768951
H273	H	0.449681	-0.081015	1.102285
H274	H	-0.195030	-0.283130	0.457708
H275	H	0.138303	0.050203	0.791042
H276	H	0.471637	0.383536	1.124375
H277	H	-0.222461	-0.614613	0.430147
H278	H	0.110873	-0.281280	0.763480
H279	H	0.444206	0.052053	1.096814
N280	N	-0.683654	-0.921676	0.274081
N281	N	-0.350320	-0.588342	0.607415
N282	N	-0.016987	-0.255009	0.940748
H283	H	-0.733507	-0.928510	0.280940
H284	H	-0.400174	-0.595177	0.614273
H285	H	-0.066841	-0.261843	0.947606
H286	H	-0.670864	-0.932637	0.226204
H287	H	-0.337530	-0.599304	0.559537
H288	H	-0.004197	-0.265971	0.892871
H289	H	-0.202447	-1.096632	0.985484
H290	H	0.130886	-0.763298	1.318818
H291	H	0.464219	-0.429965	1.652151
N292	N	-0.536728	-0.921614	0.274066
N293	N	-0.203395	-0.588281	0.607399
N294	N	0.129938	-0.254948	0.940733
H295	H	-0.571049	-0.893190	0.245450
H296	H	-0.237716	-0.559856	0.578784
H297	H	0.095617	-0.226523	0.912117
H298	H	-0.506221	-0.950211	0.243944
H299	H	-0.172888	-0.616877	0.577278
H300	H	0.160446	-0.283544	0.910611
H301	H	-0.538668	-1.096388	0.449928
H302	H	-0.205334	-0.763055	0.783262
H303	H	0.127999	-0.429721	1.116595
H304	H	-0.202531	-1.096585	0.629722
H305	H	0.130802	-0.763252	0.963055
H306	H	0.464136	-0.429918	1.296389
N307	N	-0.378086	-0.921638	0.968857
N308	N	-0.044753	-0.588305	1.302190
N309	N	0.288581	-0.254971	1.635523
H310	H	-0.406657	-0.893168	1.000790
H311	H	-0.073324	-0.559834	1.334123
H312	H	0.260009	-0.226501	1.667457
H313	H	-0.408257	-0.950179	0.940688
H314	H	-0.074924	-0.616846	1.274022
H315	H	0.258410	-0.283513	1.607355
N316	N	-0.190557	-1.108462	0.767798
N317	N	0.142776	-0.775129	1.101131
N318	N	0.476109	-0.441795	1.434465
H319	H	-0.161979	-1.136927	0.735866
H320	H	0.171355	-0.803594	1.069200
H321	H	0.504688	-0.470260	1.402533
H322	H	-0.216761	-1.140957	0.798475
H323	H	0.116572	-0.807624	1.131808
H324	H	0.449906	-0.474290	1.465142
H325	H	-0.202417	-1.096649	1.113730
H326	H	0.130917	-0.763315	1.447063
H327	H	0.464250	-0.429982	1.780396
