data_functionalizedCrystal
_audit_creation_method	'MofGen! by Chris Wilmer'
_symmetry_space_group_name_H-M	'P1'
_symmetry_Int_Tables_number	1
_symmetry_cell_setting	triclinic
loop_
_symmetry_equiv_pos_as_xyz
  x,y,z
_cell_length_a	15.995292
_cell_length_b	15.995292
_cell_length_c	14.472310
_cell_angle_alpha	90.014199
_cell_angle_beta	89.997879
_cell_angle_gamma	83.468616
loop_
_atom_site_label
_atom_site_type_symbol
_atom_site_fract_x
_atom_site_fract_y
_atom_site_fract_z
O1	O	0.107692	1.111004	0.076859
O2	O	0.121071	0.867220	0.076855
O3	O	-0.007511	0.995801	0.076859
O4	O	0.236274	0.982423	0.076856
O5	O	-0.007504	0.995768	-0.076823
O6	O	0.121078	0.867187	-0.076827
O7	O	0.107699	1.110971	-0.076823
Cu8	Cu	0.114389	0.989076	-0.090857
Cu9	Cu	0.114381	0.989115	0.090889
O10	O	0.236281	0.982390	-0.076826
C11	C	0.120530	0.836008	0.000013
C12	C	0.118898	0.743055	0.000012
C13	C	0.112896	0.405318	0.000022
C14	C	0.205703	0.428611	0.000364
C15	C	0.207467	0.525286	0.000014
C16	C	0.115874	0.572873	0.000018
C17	C	0.069479	0.543762	-0.087738
C18	C	0.068362	0.446972	-0.087808
C19	C	0.066458	0.447154	0.086957
C20	C	0.069898	0.543646	0.088113
C21	C	0.117552	0.667569	0.000012
C22	C	0.111215	0.310622	0.000022
C23	C	-0.038703	0.995240	0.000020
C24	C	-0.131655	0.993608	0.000027
C25	C	-0.469393	0.987607	0.000018
C26	C	-0.446100	1.080413	-0.000323
C27	C	-0.349424	1.082177	0.000026
C28	C	-0.301837	0.990584	0.000022
C29	C	-0.330933	0.944204	0.087778
C30	C	-0.427723	0.943087	0.087848
C31	C	-0.427571	0.941154	-0.086917
C32	C	-0.331080	0.944593	-0.088073
C33	C	-0.207141	0.992263	0.000027
C34	C	-0.564088	0.985926	0.000019
C35	C	0.267473	0.982951	0.000014
C36	C	0.360426	0.984583	0.000013
C37	C	0.108240	1.142183	0.000021
C38	C	0.109873	1.235136	0.000028
N39	N	0.114395	0.989055	-0.218688
C40	C	0.114377	0.989114	-0.592779
C41	C	0.182948	0.920082	-0.553616
C42	C	0.183198	0.920241	-0.446527
C43	C	0.114386	0.989084	-0.407188
C44	C	0.133450	1.076447	-0.446024
C45	C	0.133938	1.076059	-0.553146
C46	C	0.026539	0.971563	-0.553308
C47	C	0.027125	0.969559	-0.446181
C48	C	0.114390	0.989072	-0.302300
C49	C	0.114376	0.989131	-0.697668
N50	N	0.114368	0.989143	0.218720
H51	H	0.002079	0.575644	-0.090999
H52	H	-0.310882	0.976439	0.153089
H53	H	-0.299051	0.876805	0.091038
C54	C	0.111784	0.410710	-0.176423
H55	H	0.129943	0.455155	-0.212038
H56	H	0.073211	0.382680	-0.211509
H57	H	0.159003	0.371936	-0.160386
H58	H	0.000316	0.432435	-0.091792
H59	H	0.008203	0.909242	-0.580377
H60	H	0.095463	0.418836	0.153472
H61	H	0.247765	0.931133	-0.580526
C62	C	-0.042402	1.039558	-0.587526
H63	H	-0.095331	1.028618	-0.563444
H64	H	-0.044308	1.038737	-0.653120
H65	H	-0.030097	1.093270	-0.567110
H66	H	-0.475128	1.116000	0.062259
C67	C	-0.045043	1.033066	-0.410014
H68	H	-0.096963	1.019751	-0.434665
H69	H	-0.035868	1.088248	-0.428577
H70	H	-0.046826	1.030371	-0.344479
H71	H	0.103678	0.562223	0.153035
C72	C	-0.020420	0.588196	0.095276
H73	H	-0.031321	0.625364	0.044403
H74	H	-0.026449	0.619272	0.151287
H75	H	-0.059216	0.547427	0.094534
H76	H	0.085962	1.129031	-0.579050
C77	C	-0.323726	1.131258	-0.084944
H78	H	-0.372413	1.150299	-0.119986
H79	H	-0.285922	1.095524	-0.122079
H80	H	-0.297003	1.178252	-0.065182
C81	C	-0.286532	0.854275	-0.095243
H82	H	-0.305391	0.828024	-0.149059
H83	H	-0.299274	0.823157	-0.042176
H84	H	-0.227443	0.855925	-0.098929
H85	H	0.243797	0.544318	0.062923
C86	C	0.113013	0.570820	-0.175970
H87	H	0.159455	0.599848	-0.159515
H88	H	0.074115	0.606879	-0.211476
H89	H	0.132345	0.522415	-0.211343
C90	C	-0.465741	0.980405	-0.176778
H91	H	-0.439636	0.951459	-0.228394
H92	H	-0.456692	1.038028	-0.179470
H93	H	-0.524450	0.975933	-0.177908
C94	C	0.254033	0.390790	0.085373
H95	H	0.218049	0.360449	0.121418
H96	H	0.272504	0.434752	0.121510
H97	H	0.301359	0.353814	0.065633
H98	H	-0.001854	0.433176	0.087553
C99	C	-0.483918	1.128723	-0.085344
H100	H	-0.514259	1.092731	-0.121392
H101	H	-0.439951	1.147178	-0.121471
H102	H	-0.520891	1.176058	-0.065621
C103	C	-0.305998	0.990205	-0.175779
H104	H	-0.277818	1.037079	-0.158790
H105	H	-0.355066	1.009123	-0.210240
H106	H	-0.269615	0.952552	-0.212409
H107	H	0.012657	0.905294	-0.420799
C108	C	-0.446450	0.848871	-0.087724
H109	H	-0.479654	0.838667	-0.035370
H110	H	-0.395092	0.812692	-0.085797
H111	H	-0.476269	0.838330	-0.142495
H112	H	0.171842	0.855302	-0.420272
C113	C	0.253771	0.389388	-0.084174
H114	H	0.309784	0.403764	-0.083434
H115	H	0.226432	0.410272	-0.139133
H116	H	0.254763	0.329921	-0.082099
H117	H	-0.442259	0.875041	0.091821
C118	C	0.167873	0.832069	-0.588463
H119	H	0.119629	0.836632	-0.627214
H120	H	0.159130	0.796984	-0.537228
H121	H	0.215561	0.808299	-0.622468
H122	H	-0.331030	1.118744	0.063045
C123	C	0.271252	0.935383	-0.411892
H124	H	0.307008	0.941470	-0.463290
H125	H	0.294011	0.888879	-0.375464
H126	H	0.267062	0.985161	-0.375563
C127	C	-0.463963	0.986475	0.176493
H128	H	-0.419510	1.004625	0.212117
H129	H	-0.491969	0.947874	0.211550
H130	H	-0.502754	1.033695	0.160504
C131	C	0.220477	1.096945	-0.586892
H132	H	0.255006	1.105583	-0.535133
H133	H	0.213411	1.146575	-0.623429
H134	H	0.246413	1.051548	-0.622918
H135	H	0.084835	1.129043	-0.420539
C136	C	0.219003	1.097846	-0.409780
H137	H	0.243213	1.053659	-0.370992
H138	H	0.211101	1.148809	-0.375540
H139	H	0.255485	1.104254	-0.460456
H140	H	0.244027	0.543668	-0.063001
