data_functionalizedCrystal
_audit_creation_method	'MofGen! by Chris Wilmer'
_symmetry_space_group_name_H-M	'P1'
_symmetry_Int_Tables_number	1
_symmetry_cell_setting	triclinic
loop_
_symmetry_equiv_pos_as_xyz
  x,y,z
_cell_length_a	14.908571
_cell_length_b	25.639239
_cell_length_c	14.908308
_cell_angle_alpha	93.262277
_cell_angle_beta	90.175053
_cell_angle_gamma	86.734636
loop_
_atom_site_label
_atom_site_type_symbol
_atom_site_fract_x
_atom_site_fract_y
_atom_site_fract_z
Zn1	Zn	1.345148	-0.272845	-0.587542
Zn2	Zn	1.353683	-0.355542	-0.437170
Zn3	Zn	1.203468	-0.262803	-0.428541
Zn4	Zn	1.194711	-0.354921	-0.578822
O5	O	1.274253	-0.311528	-0.508019
O6	O	1.472104	-0.288277	-0.574855
O7	O	1.340994	-0.339297	-0.310201
O8	O	1.222355	-0.190974	-0.449671
O9	O	1.478375	-0.349035	-0.464378
O10	O	1.326446	-0.198352	-0.566488
O11	O	1.230632	-0.271162	-0.303862
O12	O	1.076483	-0.270560	-0.441216
O13	O	1.207430	-0.347976	-0.705803
O14	O	1.070049	-0.338239	-0.551626
O15	O	1.317955	-0.287675	-0.712209
O16	O	1.332503	-0.428620	-0.455922
O17	O	1.215707	-0.428164	-0.559993
C18	C	1.040642	-0.303242	-0.494539
C19	C	0.940701	-0.299711	-0.488793
C20	C	0.746258	-0.363649	-0.592813
C21	C	0.652355	-0.360332	-0.587418
C22	C	0.658987	-0.289761	-0.472613
C23	C	0.752891	-0.293077	-0.478008
C24	C	0.796523	-0.330022	-0.538109
C25	C	0.890429	-0.333341	-0.543499
C26	C	0.897060	-0.262767	-0.428700
C27	C	0.803156	-0.259451	-0.423304
C28	C	1.274104	-0.447364	-0.507969
C29	C	1.274121	-0.505479	-0.507982
C30	C	1.335213	-0.866081	-0.453936
C31	C	1.335247	-0.920687	-0.453950
O32	O	1.387035	-0.949120	-0.407943
N33	N	1.274407	-0.947774	-0.508087
C34	C	1.213536	-0.920253	-0.562222
O35	O	1.161791	-0.948307	-0.608272
C36	C	1.213506	-0.865649	-0.562212
C37	C	1.274344	-0.838564	-0.508064
C38	C	1.396046	-0.838996	-0.399793
C39	C	1.396010	-0.784393	-0.399778
C40	C	1.335142	-0.756876	-0.453906
C41	C	1.274309	-0.783961	-0.508048
C42	C	1.152640	-0.838129	-0.616350
C43	C	1.152616	-0.783521	-0.616336
C44	C	1.213454	-0.756436	-0.562188
C45	C	1.213404	-0.701842	-0.562161
N46	N	1.274244	-0.674754	-0.508024
C47	C	1.335113	-0.702272	-0.453896
C48	C	1.213603	-1.034927	-0.562239
C49	C	1.213627	-1.089530	-0.562245
C50	C	1.335339	-1.089960	-0.453974
C51	C	1.335310	-1.035355	-0.453964
C52	C	1.274442	-1.007839	-0.508102
C53	C	1.335033	-0.587603	-0.453867
C54	C	1.334989	-0.532996	-0.453854
C55	C	1.213280	-0.532571	-0.562128
C56	C	1.213320	-0.587173	-0.562138
C57	C	1.274204	-0.614688	-0.508005
O58	O	1.161645	-0.673375	-0.608147
O59	O	1.386857	-0.674211	-0.407862
C60	C	1.508776	-0.319846	-0.521552
C61	C	1.608716	-0.323390	-0.527319
C62	C	1.260764	-0.318877	-0.742543
C63	C	1.255015	-0.322008	-0.842483
C64	C	1.274426	-0.175163	-0.508090
C65	C	1.274499	-0.117052	-0.508120
C66	C	1.359301	-0.265089	-1.036954
C67	C	1.353903	-0.268030	-1.130857
C68	C	1.238817	-0.330827	-1.124193
C69	C	1.244215	-0.327887	-1.030291
C70	C	1.304460	-0.295017	-0.986674
C71	C	1.309862	-0.292079	-0.892770
C72	C	1.194772	-0.354874	-0.886108
C73	C	1.189374	-0.357814	-0.980011
C74	C	1.287741	-0.304171	-0.274410
C75	C	1.293664	-0.300899	-0.174480
H76	H	1.384531	-0.510945	-0.409757
C77	C	1.085655	-0.753255	-0.675887
C78	C	1.120471	-0.719268	-0.748749
C79	C	1.053509	-0.689003	-0.808297
C80	C	0.951731	-0.692725	-0.794983
C81	C	0.916910	-0.726713	-0.722117
C82	C	0.983872	-0.756978	-0.662569
H83	H	1.195818	-0.716512	-0.758608
H84	H	1.079287	-0.663843	-0.862238
H85	H	0.902162	-0.670321	-0.839064
H86	H	0.841563	-0.729469	-0.712258
H87	H	0.958095	-0.782138	-0.608629
H88	H	1.189768	-0.357588	-1.159722
C89	C	0.610992	-0.249111	-0.406521
C90	C	0.629743	-0.250523	-0.305028
C91	C	0.581752	-0.209868	-0.238942
C92	C	0.515010	-0.167800	-0.274348
C93	C	0.496255	-0.166386	-0.375846
C94	C	0.544246	-0.207041	-0.441932
H95	H	0.679153	-0.281666	-0.278814
H96	H	0.595636	-0.210915	-0.163806
H97	H	0.479484	-0.137705	-0.225427
H98	H	0.446846	-0.135244	-0.402060
H99	H	0.530362	-0.205994	-0.517068
C100	C	1.401999	-0.617864	-0.394316
C101	C	1.400607	-0.606916	-0.291675
C102	C	1.467566	-0.637176	-0.232118
C103	C	1.535918	-0.678385	-0.275202
C104	C	1.537312	-0.689335	-0.377849
C105	C	1.470353	-0.659074	-0.437406
H106	H	1.350006	-0.576409	-0.259776
H107	H	1.466533	-0.629070	-0.156132
H108	H	1.585485	-0.700785	-0.231115
H109	H	1.587913	-0.719841	-0.409747
H110	H	1.471386	-0.667180	-0.513392
H111	H	1.445552	-0.762344	-0.355688
C112	C	1.146326	-0.502297	-0.621668
C113	C	1.147709	-0.513236	-0.724311
C114	C	1.080757	-0.482962	-0.783856
C115	C	1.012422	-0.441748	-0.740758
C116	C	1.011036	-0.430808	-0.638109
C117	C	1.077988	-0.461082	-0.578564
H118	H	1.198297	-0.543746	-0.756220
H119	H	1.081784	-0.491061	-0.859843
H120	H	0.962861	-0.419338	-0.784837
H121	H	0.960448	-0.400298	-0.606201
H122	H	1.076962	-0.452983	-0.502577
C123	C	0.952347	-0.225775	-0.368515
C124	C	1.014705	-0.188263	-0.411297
C125	C	1.069990	-0.151273	-0.351109
C126	C	1.062917	-0.151796	-0.248138
C127	C	1.000557	-0.189309	-0.205350
C128	C	0.945272	-0.226298	-0.265539
H129	H	1.019942	-0.187875	-0.487528
H130	H	1.116153	-0.123503	-0.382784
H131	H	1.103842	-0.124414	-0.203583
H132	H	0.995319	-0.189697	-0.129120
H133	H	0.899109	-0.254068	-0.233864
C134	C	0.755152	-0.218813	-0.357197
C135	C	0.688392	-0.176746	-0.392576
C136	C	0.640389	-0.136109	-0.326466
C137	C	0.659146	-0.137540	-0.224977
C138	C	0.725909	-0.179609	-0.189592
C139	C	0.773912	-0.220246	-0.255702
H140	H	0.674505	-0.175685	-0.467710
H141	H	0.590967	-0.104967	-0.352661
H142	H	0.623611	-0.107458	-0.176038
H143	H	0.739796	-0.180669	-0.114459
H144	H	0.823334	-0.251388	-0.229507
H145	H	1.398557	-0.243658	-1.171792
H146	H	1.445618	-0.861394	-0.355715
H147	H	1.384850	-1.013306	-0.409873
H148	H	0.925953	-0.363425	-0.592435
H149	H	1.140323	-0.384575	-1.015536
H150	H	1.384905	-1.112374	-0.409903
H151	H	0.781785	-0.393734	-0.641745
H152	H	0.611432	-0.387713	-0.631965
H153	H	1.164079	-1.111578	-0.606329
H154	H	1.163784	-0.609227	-0.606233
C155	C	1.146632	-1.004661	-0.621784
C156	C	1.044856	-1.008383	-0.608459
C157	C	0.977887	-0.978121	-0.668004
C158	C	1.012695	-0.944138	-0.740875
C159	C	1.114476	-0.940415	-0.754204
C160	C	1.181445	-0.970676	-0.694659
H161	H	1.019084	-1.033541	-0.554513
H162	H	0.902541	-0.980878	-0.658137
H163	H	0.963120	-0.921736	-0.784955
H164	H	1.140247	-0.915257	-0.808151
H165	H	1.256790	-0.967920	-0.704526
H166	H	1.150119	-0.379244	-0.845160
H167	H	1.103095	-0.860172	-0.660439
H168	H	1.408359	-0.238328	-1.001442
H169	H	1.358918	-0.265316	-0.857259
