data_functionalizedCrystal
_audit_creation_method	'MofGen! by Chris Wilmer'
_symmetry_space_group_name_H-M	'P1'
_symmetry_Int_Tables_number	1
_symmetry_cell_setting	triclinic
loop_
_symmetry_equiv_pos_as_xyz
  x,y,z
_cell_length_a	17.077404
_cell_length_b	19.805405
_cell_length_c	17.077396
_cell_angle_alpha	89.968350
_cell_angle_beta	89.980499
_cell_angle_gamma	90.026635
loop_
_atom_site_label
_atom_site_type_symbol
_atom_site_fract_x
_atom_site_fract_y
_atom_site_fract_z
Zn1	Zn	1.200035	-0.269459	-0.443825
Zn2	Zn	1.700035	0.230541	0.056175
Zn3	Zn	1.199934	-0.382652	-0.312552
Zn4	Zn	1.699934	0.117348	0.187448
Zn5	Zn	1.068767	-0.269483	-0.312573
Zn6	Zn	1.568767	0.230517	0.187427
Zn7	Zn	1.068727	-0.382612	-0.443776
Zn8	Zn	1.568727	0.117388	0.056224
O9	O	1.134366	-0.326052	-0.378182
O10	O	1.634366	0.173948	0.121818
O11	O	1.309869	-0.284481	-0.426424
O12	O	1.809869	0.215519	0.073576
O13	O	1.182509	-0.367667	-0.202708
O14	O	1.682509	0.132333	0.297292
O15	O	1.086239	-0.174763	-0.330014
O16	O	1.586239	0.325237	0.169986
O17	O	1.309795	-0.367644	-0.329978
O18	O	1.809795	0.132356	0.170022
O19	O	1.182681	-0.174746	-0.426444
O20	O	1.682681	0.325254	0.073556
O21	O	1.086141	-0.284522	-0.202724
O22	O	1.586141	0.215478	0.297276
O23	O	0.958915	-0.284483	-0.329966
O24	O	1.458915	0.215517	0.170034
O25	O	1.086171	-0.367575	-0.553629
O26	O	1.586171	0.132425	-0.053629
O27	O	0.958886	-0.367598	-0.426360
O28	O	1.458886	0.132402	0.073640
O29	O	1.182643	-0.284442	-0.553666
O30	O	1.682643	0.215558	-0.053666
O31	O	1.182470	-0.477363	-0.329930
O32	O	1.682470	0.022637	0.170070
O33	O	1.086073	-0.477334	-0.426339
O34	O	1.586073	0.022666	0.073661
C35	C	0.930418	-0.326039	-0.378160
C36	C	1.430418	0.173961	0.121840
C37	C	0.843168	-0.326050	-0.378169
C38	C	1.343168	0.173950	0.121831
C39	C	0.802183	-0.369394	-0.428281
C40	C	1.302183	0.130606	0.071719
C41	C	0.720203	-0.369395	-0.428294
C42	C	1.220203	0.130605	0.071706
C43	C	0.679209	-0.326056	-0.378190
C44	C	1.179209	0.173944	0.121810
C45	C	0.720200	-0.282708	-0.328076
C46	C	1.220200	0.217292	0.171924
C47	C	0.802179	-0.282703	-0.328068
C48	C	1.302179	0.217297	0.171932
C49	C	0.549330	-0.282721	-0.328095
C50	C	1.049330	0.217279	0.171905
C51	C	0.467345	-0.282726	-0.328102
C52	C	0.967345	0.217274	0.171898
C53	C	0.467354	-0.369413	-0.428321
C54	C	0.967354	0.130587	0.071679
C55	C	0.549333	-0.369409	-0.428313
C56	C	1.049333	0.130591	0.071687
C57	C	0.590318	-0.326061	-0.378197
C58	C	1.090318	0.173939	0.121803
C59	C	1.134278	-0.501908	-0.378144
C60	C	1.634278	-0.001908	0.121856
C61	C	1.134312	-0.577140	-0.378154
C62	C	1.634312	-0.077140	0.121846
C63	C	1.184555	-0.612477	-0.328006
C64	C	1.684555	-0.112477	0.171994
C65	C	1.184588	-0.683165	-0.328023
C66	C	1.684588	-0.183165	0.171977
C67	C	1.134374	-0.718515	-0.378185
C68	C	1.634374	-0.218515	0.121815
C69	C	1.084129	-0.683173	-0.428338
C70	C	1.584129	-0.183173	0.071662
C71	C	1.084100	-0.612486	-0.428324
C72	C	1.584100	-0.112486	0.071676
C73	C	1.084245	-0.968246	-0.428397
C74	C	1.584245	-0.468246	0.071603
C75	C	1.084276	-1.038938	-0.428405
C76	C	1.584276	-0.538938	0.071595
C77	C	1.184733	-1.038925	-0.328095
C78	C	1.684733	-0.538925	0.171905
C79	C	1.184704	-0.968238	-0.328081
C80	C	1.684704	-0.468238	0.171919
C81	C	1.134462	-0.932902	-0.378237
C82	C	1.634462	-0.432902	0.121763
C83	C	1.134427	-0.856254	-0.378219
C84	C	1.634427	-0.356254	0.121781
C85	C	1.134404	-0.795162	-0.378200
C86	C	1.634404	-0.295162	0.121800
C87	C	1.339110	-0.326064	-0.378204
C88	C	1.839110	0.173936	0.121796
C89	C	1.426360	-0.326070	-0.378213
C90	C	1.926360	0.173930	0.121787
C91	C	1.134414	-0.326002	-0.582926
C92	C	1.634414	0.173998	-0.082926
C93	C	1.134434	-0.325980	-0.670176
C94	C	1.634434	0.174020	-0.170176
C95	C	1.134476	-0.149509	-0.378237
C96	C	1.634476	0.350491	0.121763
C97	C	1.134523	-0.074277	-0.378261
C98	C	1.634523	0.425723	0.121739
C99	C	1.184668	-0.282690	-0.711186
C100	C	1.684668	0.217310	-0.211186
C101	C	1.184678	-0.282667	-0.793167
C102	C	1.684678	0.217333	-0.293167
C103	C	1.134456	-0.325939	-0.834135
C104	C	1.634456	0.174061	-0.334135
C105	C	1.084216	-0.369232	-0.793119
C106	C	1.584216	0.130768	-0.293119
C107	C	1.084203	-0.369251	-0.711140
C108	C	1.584203	0.130749	-0.211140
C109	C	1.084248	-0.369191	-0.963989
C110	C	1.584248	0.130809	-0.463989
C111	C	1.084261	-0.369174	-1.045974
C112	C	1.584261	0.130826	-0.545974
C113	C	1.184722	-0.282608	-1.046016
C114	C	1.684722	0.217392	-0.546016
C115	C	1.184709	-0.282626	-0.964037
C116	C	1.684709	0.217374	-0.464037
C117	C	1.134470	-0.325920	-0.923026
C118	C	1.634470	0.174080	-0.423026
C119	C	1.134364	-0.326052	-0.174234
C120	C	1.634364	0.173948	0.325766
C121	C	1.134496	-0.325883	-0.086984
C122	C	1.634496	0.174117	0.413016
H123	H	0.582697	-0.247417	-0.287293
H124	H	1.082697	0.252583	0.212707
H125	H	1.043289	-0.404496	-0.677751
H126	H	1.543289	0.095504	-0.177751
O127	O	1.035317	-0.411195	-0.832878
O128	O	1.535317	0.088805	-0.332878
C129	C	0.957088	-0.396414	-0.812823
C130	C	1.457088	0.103586	-0.312823
H131	H	0.953155	-0.342345	-0.790307
H132	H	1.453155	0.157655	-0.290307
H133	H	0.918313	-0.402232	-0.866726
H134	H	1.418313	0.097768	-0.366726
H135	H	0.936539	-0.432710	-0.765220
H136	H	1.436539	0.067290	-0.265220
O137	O	1.233371	-0.240556	-0.671429
O138	O	1.733371	0.259444	-0.171429
C139	C	1.216271	-0.173093	-0.691499
C140	C	1.716271	0.326907	-0.191499
H141	H	1.153565	-0.169670	-0.714022
H142	H	1.653565	0.330330	-0.214022
H143	H	1.223045	-0.139664	-0.637601
H144	H	1.723045	0.360336	-0.137601
H145	H	1.258372	-0.155393	-0.739101
H146	H	1.758372	0.344607	-0.239101
O147	O	1.035546	-0.933900	-0.477195
O148	O	1.535546	-0.433900	0.022805
C149	C	1.080182	-0.892937	-0.527924
C150	C	1.580182	-0.392937	-0.027924
H151	H	1.142014	-0.914187	-0.532834
H152	H	1.642014	-0.414187	-0.032834
H153	H	1.051752	-0.892127	-0.588305
H154	H	1.551752	-0.392127	-0.088305
H155	H	1.082872	-0.839375	-0.503653
H156	H	1.582872	-0.339375	-0.003653
O157	O	0.589241	-0.411413	-0.477023
O158	O	1.089241	0.088587	0.022977
C159	C	0.636684	-0.372926	-0.527810
C160	C	1.136684	0.127074	-0.027810
H161	H	0.648974	-0.321602	-0.500230
H162	H	1.148974	0.178398	-0.000230
H163	H	0.694326	-0.400501	-0.538266
H164	H	1.194326	0.099499	-0.038266
H165	H	0.605119	-0.365555	-0.586001
H166	H	1.105119	0.134445	-0.086001
O167	O	0.680300	-0.411534	-0.476858
O168	O	1.180300	0.088466	0.023142
C169	C	0.632853	-0.455209	-0.432071
C170	C	1.132853	0.044791	0.067929
H171	H	0.620560	-0.431267	-0.372638
H172	H	1.120560	0.068733	0.127362
H173	H	0.575213	-0.464317	-0.464029
H174	H	1.075213	0.035683	0.035971
H175	H	0.664417	-0.505358	-0.423333
H176	H	1.164417	-0.005358	0.076667
H177	H	1.225590	-0.939458	-0.287232
H178	H	1.725590	-0.439458	0.212768
O179	O	0.427401	-0.240666	-0.279486
O180	O	0.927401	0.259334	0.220514
C181	C	0.346256	-0.249946	-0.290268
C182	C	0.846256	0.250054	0.209732
H183	H	0.335043	-0.302224	-0.315825
H184	H	0.835043	0.197776	0.184175
H185	H	0.315060	-0.245251	-0.231496
H186	H	0.815060	0.254749	0.268504
H187	H	0.323049	-0.209869	-0.332198
H188	H	0.823049	0.290131	0.167802
O189	O	1.233416	-0.717387	-0.279233
O190	O	1.733416	-0.217387	0.220767
C191	C	1.277740	-0.671028	-0.234966
C192	C	1.777740	-0.171028	0.265034
H193	H	1.245566	-0.620665	-0.232211
H194	H	1.745566	-0.120665	0.267789
H195	H	1.286154	-0.691484	-0.173130
H196	H	1.786154	-0.191484	0.326870
H197	H	1.337339	-0.663448	-0.263761
H198	H	1.837339	-0.163448	0.236239
O199	O	0.680465	-0.240641	-0.279297
O200	O	1.180465	0.259359	0.220703
C201	C	0.700440	-0.255355	-0.201027
C202	C	1.200440	0.244645	0.298973
H203	H	0.759951	-0.281367	-0.199337
H204	H	1.259951	0.218633	0.300663
H205	H	0.703249	-0.206467	-0.165933
H206	H	1.203249	0.293533	0.334067
H207	H	0.654275	-0.290128	-0.174519
H208	H	1.154275	0.209872	0.325481
O209	O	1.233533	-1.073356	-0.279465
O210	O	1.733533	-0.573356	0.220535
C211	C	1.222791	-1.143327	-0.290224
C212	C	1.722791	-0.643327	0.209776
H213	H	1.197037	-1.152960	-0.350776
H214	H	1.697037	-0.652960	0.149224
H215	H	1.281610	-1.170145	-0.284978
H216	H	1.781610	-0.670145	0.215022
H217	H	1.181040	-1.163456	-0.243620
H218	H	1.681040	-0.663456	0.256380
H219	H	0.835548	-0.247405	-0.287266
H220	H	1.335548	0.252595	0.212734
H221	H	1.043386	-1.067719	-0.469259
H222	H	1.543386	-0.567719	0.030741
H223	H	1.225441	-0.583699	-0.287155
H224	H	1.725441	-0.083699	0.212845
H225	H	1.043247	-0.711961	-0.469184
H226	H	1.543247	-0.211961	0.030816
H227	H	0.835555	-0.404688	-0.469079
H228	H	1.335555	0.095312	0.030921
O229	O	0.427634	-0.411489	-0.477114
O230	O	0.927634	0.088511	0.022886
C231	C	0.447697	-0.396778	-0.555381
C232	C	0.947697	0.103222	-0.055381
H233	H	0.507231	-0.370755	-0.557057
H234	H	1.007231	0.129245	-0.057057
H235	H	0.450499	-0.445669	-0.590468
H236	H	0.950499	0.054331	-0.090468
H237	H	0.401586	-0.362016	-0.581906
H238	H	0.901586	0.137984	-0.081906
H239	H	1.043188	-0.583715	-0.469161
H240	H	1.543188	-0.083715	0.030839
O241	O	1.233484	-0.240452	-1.085759
O242	O	1.733484	0.259548	-0.585759
C243	C	1.216356	-0.172997	-1.065751
C244	C	1.716356	0.327003	-0.565751
H245	H	1.186170	-0.171611	-1.006225
H246	H	1.686170	0.328389	-0.506225
H247	H	1.273028	-0.142653	-1.062960
H248	H	1.773028	0.357347	-0.562960
H249	H	1.176023	-0.150180	-1.111888
H250	H	1.676023	0.349820	-0.611888
O251	O	1.035399	-0.411226	-1.085651
O252	O	1.535399	0.088774	-0.585651
C253	C	0.991063	-0.449450	-1.031877
C254	C	1.491063	0.050550	-0.531877
H255	H	0.988351	-0.421742	-0.973448
H256	H	1.488351	0.078258	-0.473448
H257	H	0.929216	-0.456655	-1.055556
H258	H	1.429216	0.043345	-0.555556
H259	H	1.019768	-0.500863	-1.023146
H260	H	1.519768	-0.000863	-0.523146
O261	O	1.233507	-0.240706	-0.833096
O262	O	1.733507	0.259294	-0.333096
C263	C	1.284200	-0.279229	-0.880507
C264	C	1.784200	0.220771	-0.380507
H265	H	1.256488	-0.330521	-0.892763
H266	H	1.756488	0.169479	-0.392763
H267	H	1.294733	-0.251645	-0.938167
H268	H	1.794733	0.248355	-0.438167
H269	H	1.342368	-0.286672	-0.848932
H270	H	1.842368	0.213328	-0.348932
O271	O	1.233378	-0.240547	-0.924160
O272	O	1.733378	0.259453	-0.424160
C273	C	1.188690	-0.196830	-0.876773
C274	C	1.688690	0.303170	-0.376773
H275	H	1.129192	-0.220713	-0.864470
H276	H	1.629192	0.279287	-0.364470
H277	H	1.220655	-0.187758	-0.819135
H278	H	1.720655	0.312242	-0.319135
H279	H	1.180088	-0.146670	-0.908394
H280	H	1.680088	0.353330	-0.408394
O281	O	1.035561	-0.411281	-0.924058
O282	O	1.535561	0.088719	-0.424058
C283	C	1.080232	-0.455015	-0.876649
C284	C	1.580232	0.044985	-0.376649
H285	H	1.139731	-0.431143	-0.864398
H286	H	1.639731	0.068857	-0.364398
H287	H	1.048253	-0.464097	-0.818987
H288	H	1.548253	0.035903	-0.318987
H289	H	1.088832	-0.505169	-0.908226
H290	H	1.588832	-0.005169	-0.408226
