data_functionalizedCrystal
_audit_creation_method	'MofGen! by Chris Wilmer'
_symmetry_space_group_name_H-M	'P1'
_symmetry_Int_Tables_number	1
_symmetry_cell_setting	triclinic
loop_
_symmetry_equiv_pos_as_xyz
  x,y,z
_cell_length_a	25.639239
_cell_length_b	21.295418
_cell_length_c	21.295411
_cell_angle_alpha	90.043738
_cell_angle_beta	89.980474
_cell_angle_gamma	89.945501
loop_
_atom_site_label
_atom_site_type_symbol
_atom_site_fract_x
_atom_site_fract_y
_atom_site_fract_z
Zn1	Zn	-0.207990	-0.962320	-0.356243
Zn2	Zn	0.292010	-0.462320	0.143757
Zn3	Zn	-0.295410	-0.962207	-0.250972
Zn4	Zn	0.204590	-0.462207	0.249028
Zn5	Zn	-0.208014	-0.857043	-0.250953
Zn6	Zn	0.291986	-0.357043	0.249047
Zn7	Zn	-0.295420	-0.856998	-0.356169
Zn8	Zn	0.204580	-0.356998	0.143831
O9	O	-0.251708	-0.909642	-0.303584
O10	O	0.248292	-0.409642	0.196416
O11	O	-0.219572	-1.050395	-0.342318
O12	O	0.280428	-0.550395	0.157682
O13	O	-0.283822	-0.948229	-0.162880
O14	O	0.216178	-0.448229	0.337120
O15	O	-0.134846	-0.871075	-0.264943
O16	O	0.365154	-0.371075	0.235057
O17	O	-0.283799	-1.050312	-0.264976
O18	O	0.216201	-0.550312	0.235024
O19	O	-0.134828	-0.948421	-0.342299
O20	O	0.365172	-0.448421	0.157701
O21	O	-0.219613	-0.870965	-0.162866
O22	O	0.280387	-0.370965	0.337134
O23	O	-0.219623	-0.768948	-0.264871
O24	O	0.280377	-0.268948	0.235129
O25	O	-0.283816	-0.870997	-0.444268
O26	O	0.216184	-0.370997	0.055732
O27	O	-0.283840	-0.768914	-0.342172
O28	O	0.216160	-0.268914	0.157828
O29	O	-0.219582	-0.948377	-0.444322
O30	O	0.280418	-0.448377	0.055678
O31	O	-0.368576	-0.948185	-0.264904
O32	O	0.131424	-0.448185	0.235096
O33	O	-0.368584	-0.870888	-0.342191
O34	O	0.131416	-0.370888	0.157809
C35	C	-0.387551	-0.909536	-0.303555
C36	C	0.112449	-0.409536	0.196445
C37	C	-0.445665	-0.909548	-0.303564
C38	C	0.054335	-0.409548	0.196436
C39	C	-0.251736	-0.746090	-0.303512
C40	C	0.248264	-0.246090	0.196488
C41	C	-0.251760	-0.676122	-0.303496
C42	C	0.248240	-0.176122	0.196504
C43	C	-0.251697	-0.909694	-0.467774
C44	C	0.248303	-0.409694	0.032226
C45	C	-0.251693	-0.909717	-0.537743
C46	C	0.248307	-0.409717	-0.037743
C47	C	-0.806011	-0.949996	-0.263409
C48	C	-0.306011	-0.449996	0.236591
C49	C	-0.860616	-0.950020	-0.263418
C50	C	-0.360616	-0.450020	0.236582
O51	O	-0.888838	-0.984300	-0.229245
O52	O	-0.388838	-0.484300	0.270755
N53	N	-0.887947	-0.909753	-0.303626
N54	N	-0.387947	-0.409753	0.196374
C55	C	-0.860672	-0.869463	-0.343833
C56	C	-0.360672	-0.369463	0.156167
O57	O	-0.888934	-0.835215	-0.378034
O58	O	-0.388934	-0.335215	0.121966
C59	C	-0.806069	-0.869442	-0.343827
C60	C	-0.306069	-0.369442	0.156173
C61	C	-0.778740	-0.909708	-0.303612
C62	C	-0.278740	-0.409708	0.196388
C63	C	-0.778683	-0.990259	-0.223198
C64	C	-0.278683	-0.490259	0.276802
C65	C	-0.724082	-0.990233	-0.223188
C66	C	-0.224082	-0.490233	0.276812
C67	C	-0.696810	-0.949945	-0.263391
C68	C	-0.196810	-0.449945	0.236609
C69	C	-0.724139	-0.909682	-0.303603
C70	C	-0.224139	-0.409682	0.196397
C71	C	-0.778794	-0.829156	-0.384037
C72	C	-0.278794	-0.329156	0.115963
C73	C	-0.724187	-0.829139	-0.384028
C74	C	-0.224187	-0.329139	0.115972
C75	C	-0.696858	-0.869404	-0.343812
C76	C	-0.196858	-0.369404	0.156188
C77	C	-0.642267	-0.869369	-0.343796
C78	C	-0.142267	-0.369369	0.156204
N79	N	-0.614935	-0.909636	-0.303588
N80	N	-0.114935	-0.409636	0.196412
C81	C	-0.642207	-0.949924	-0.263385
C82	C	-0.142207	-0.449924	0.236615
C83	C	-0.975343	-0.869510	-0.343842
C84	C	-0.475343	-0.369510	0.156158
C85	C	-1.029945	-0.869527	-0.343845
C86	C	-0.529945	-0.369527	0.156155
C87	C	-1.029885	-0.950086	-0.263431
C88	C	-0.529885	-0.450086	0.236569
C89	C	-0.975282	-0.950065	-0.263425
C90	C	-0.475282	-0.450065	0.236575
C91	C	-0.948011	-0.909778	-0.303634
C92	C	-0.448011	-0.409778	0.196366
C93	C	-0.527542	-0.949868	-0.263369
C94	C	-0.027542	-0.449868	0.236631
C95	C	-0.472937	-0.949837	-0.263361
C96	C	0.027063	-0.449837	0.236639
C97	C	-0.473001	-0.869281	-0.343778
C98	C	0.026999	-0.369281	0.156222
C99	C	-0.527602	-0.869309	-0.343783
C100	C	-0.027602	-0.369309	0.156217
C101	C	-0.554871	-0.909607	-0.303577
C102	C	-0.054871	-0.409607	0.196423
O103	O	-0.614010	-0.835108	-0.377953
O104	O	-0.114010	-0.335108	0.122047
O105	O	-0.613939	-0.984172	-0.229195
O106	O	-0.113939	-0.484172	0.270805
C107	C	-0.115335	-0.909766	-0.303627
C108	C	0.384665	-0.409766	0.196373
C109	C	-0.057221	-0.909818	-0.303645
C110	C	0.442779	-0.409818	0.196355
C111	C	-0.251681	-1.073832	-0.303657
C112	C	0.248319	-0.573832	0.196343
C113	C	-0.251670	-1.143801	-0.303688
C114	C	0.248330	-0.643801	0.196312
C115	C	-0.285242	-0.643255	-0.343686
C116	C	0.214758	-0.143255	0.156314
C117	C	-0.285229	-0.577512	-0.343715
C118	C	0.214771	-0.077512	0.156285
C119	C	-0.251740	-0.544640	-0.303541
C120	C	0.248260	-0.044640	0.196459
C121	C	-0.218252	-0.577515	-0.263347
C122	C	0.281748	-0.077515	0.236653
C123	C	-0.218262	-0.643257	-0.263325
C124	C	0.281738	-0.143257	0.236675
N125	N	-0.247648	-0.441365	-0.248483
N126	N	0.252352	0.058635	0.251517
N127	N	-0.247641	-0.378913	-0.248506
N128	N	0.252359	0.121087	0.251494
C129	C	-0.251707	-0.346565	-0.303608
C130	C	0.248293	0.153435	0.196392
N131	N	-0.255789	-0.379028	-0.358686
N132	N	0.244211	0.120972	0.141314
N133	N	-0.255799	-0.441485	-0.358662
N134	N	0.244201	0.058515	0.141338
C135	C	-0.251725	-0.473354	-0.303561
C136	C	0.248275	0.026646	0.196439
C137	C	-0.285176	-0.242412	-0.343832
C138	C	0.214824	0.257588	0.156168
C139	C	-0.285160	-0.176668	-0.343862
C140	C	0.214840	0.323332	0.156138
C141	C	-0.218185	-0.176673	-0.263489
C142	C	0.281815	0.323327	0.236511
C143	C	-0.218199	-0.242415	-0.263465
C144	C	0.281801	0.257585	0.236535
C145	C	-0.251697	-0.275281	-0.303636
C146	C	0.248303	0.224719	0.196364
C147	C	-0.218244	-0.950007	-0.570639
C148	C	0.281756	-0.450007	-0.070639
C149	C	-0.218221	-0.950006	-0.636381
C150	C	0.281779	-0.450006	-0.136381
C151	C	-0.251657	-0.909721	-0.669225
C152	C	0.248343	-0.409721	-0.169225
C153	C	-0.285108	-0.869424	-0.636321
C154	C	0.214892	-0.369424	-0.136321
C155	C	-0.285126	-0.869421	-0.570580
C156	C	0.214874	-0.369421	-0.070580
N157	N	-0.297396	-0.904857	-0.772441
N158	N	0.202604	-0.404857	-0.272441
N159	N	-0.297377	-0.904863	-0.834892
N160	N	0.202623	-0.404863	-0.334892
C161	C	-0.251604	-0.909725	-0.867300
C162	C	0.248396	-0.409725	-0.367300
N163	N	-0.205848	-0.914594	-0.834897
N164	N	0.294152	-0.414594	-0.334897
N165	N	-0.205867	-0.914591	-0.772440
N166	N	0.294133	-0.414591	-0.272440
C167	C	-0.251641	-0.909719	-0.740511
C168	C	0.248359	-0.409719	-0.240511
C169	C	-0.218128	-0.950017	-0.971482
C170	C	0.281872	-0.450017	-0.471482
C171	C	-0.218104	-0.950011	-1.037225
C172	C	0.281896	-0.450011	-0.537225
C173	C	-0.284995	-0.869433	-1.037164
C174	C	0.215005	-0.369433	-0.537164
C175	C	-0.285014	-0.869435	-0.971422
C176	C	0.214986	-0.369435	-0.471422
C177	C	-0.251581	-0.909730	-0.938584
C178	C	0.248419	-0.409730	-0.438584
C179	C	-0.251682	-0.909626	-0.140032
C180	C	0.248318	-0.409626	0.359968
C181	C	-0.251539	-0.909726	-0.070065
C182	C	0.248461	-0.409726	0.429935
H183	H	-0.549738	-0.982684	-0.230630
H184	H	-0.049738	-0.482684	0.269370
H185	H	-0.312450	-0.269173	-0.376545
H186	H	0.187550	0.230827	0.123455
O187	O	-0.321206	-0.825963	-0.535098
O188	O	0.178794	-0.325963	-0.035098
H189	H	-0.315600	-0.832728	-0.483867
H190	H	0.184400	-0.332728	0.016133
H191	H	-0.190981	-0.982813	-0.663170
H192	H	0.309019	-0.482813	-0.163170
H193	H	-0.312494	-0.550746	-0.376445
H194	H	0.187506	-0.050746	0.123555
O195	O	-0.557085	-0.825871	-0.387144
O196	O	-0.057085	-0.325871	0.112856
H197	H	-0.581922	-0.854038	-0.419210
H198	H	-0.081922	-0.354038	0.080790
O199	O	-0.182065	-0.993468	-0.936057
O200	O	0.317935	-0.493468	-0.436057
H201	H	-0.158794	-1.021477	-0.969979
H202	H	0.341206	-0.521477	-0.469979
O203	O	-0.321343	-0.141213	-0.387129
O204	O	0.178657	0.358787	0.112871
H205	H	-0.344665	-0.175114	-0.415021
H206	H	0.155335	0.324886	0.084979
O207	O	-0.182027	-0.993470	-1.072711
O208	O	0.317973	-0.493470	-0.572711
H209	H	-0.158788	-1.021492	-1.038830
H210	H	0.341212	-0.521492	-0.538830
O211	O	-0.182129	-0.542070	-0.220013
O212	O	0.317871	-0.042070	0.279987
H213	H	-0.191037	-0.554632	-0.170586
H214	H	0.308963	-0.054632	0.329414
H215	H	-0.190915	-0.149909	-0.230781
H216	H	0.309085	0.350091	0.269219
O217	O	-0.182100	-0.277872	-0.220100
O218	O	0.317900	0.222128	0.279900
H219	H	-0.158815	-0.243971	-0.192161
H220	H	0.341185	0.256029	0.307839
O221	O	-0.443464	-0.993274	-0.219988
O222	O	0.056536	-0.493274	0.280012
H223	H	-0.418540	-1.025273	-0.248202
H224	H	0.081460	-0.525273	0.251798
O225	O	-0.321076	-0.825962	-0.935934
O226	O	0.178924	-0.325962	-0.435934
H227	H	-0.344319	-0.797944	-0.969815
H228	H	0.155681	-0.297944	-0.469815
H229	H	-0.190995	-0.670017	-0.230596
H230	H	0.309005	-0.170017	0.269404
O231	O	-0.182184	-0.993463	-0.535220
O232	O	0.317816	-0.493463	-0.035220
H233	H	-0.158919	-1.021477	-0.569144
H234	H	0.341081	-0.521477	-0.069144
H235	H	-0.312213	-0.836626	-1.063905
H236	H	0.187787	-0.336626	-0.563905
H237	H	-0.701834	-1.023023	-0.190444
H238	H	-0.201834	-0.523023	0.309556
H239	H	-0.800881	-1.023070	-0.190460
H240	H	-0.300881	-0.523070	0.309540
H241	H	-1.052191	-0.836733	-0.376587
H242	H	-0.552191	-0.336733	0.123413
O243	O	-0.945806	-0.993500	-0.220058
O244	O	-0.445806	-0.493500	0.279942
H245	H	-0.973949	-1.021519	-0.192109
H246	H	-0.473949	-0.521519	0.307891
H247	H	-0.312329	-0.836622	-0.663067
H248	H	0.187671	-0.336622	-0.163067
H249	H	-1.052099	-0.982893	-0.230698
H250	H	-0.552099	-0.482893	0.269302
H251	H	-0.953141	-0.836698	-0.376584
H252	H	-0.453141	-0.336698	0.123416
O253	O	-0.808263	-0.785730	-0.427416
O254	O	-0.308263	-0.285730	0.072584
H255	H	-0.780117	-0.757723	-0.455372
H256	H	-0.280117	-0.257723	0.044628
H257	H	-0.701986	-0.796333	-0.416773
H258	H	-0.201986	-0.296333	0.083227
O259	O	-0.443583	-0.825831	-0.387142
O260	O	0.056417	-0.325831	0.112858
H261	H	-0.401023	-0.832588	-0.380381
H262	H	0.098977	-0.332588	0.119619
H263	H	-0.312519	-0.670010	-0.376398
H264	H	0.187481	-0.170010	0.123602
