data_functionalizedCrystal
_audit_creation_method	'MofGen! by Chris Wilmer'
_symmetry_space_group_name_H-M	'P1'
_symmetry_Int_Tables_number	1
_symmetry_cell_setting	triclinic
loop_
_symmetry_equiv_pos_as_xyz
  x,y,z
_cell_length_a	12.784890
_cell_length_b	15.538191
_cell_length_c	11.892095
_cell_angle_alpha	92.341637
_cell_angle_beta	86.513306
_cell_angle_gamma	60.189326
loop_
_atom_site_label
_atom_site_type_symbol
_atom_site_fract_x
_atom_site_fract_y
_atom_site_fract_z
O1	O	1.417384	-0.000706	-0.093968
O2	O	1.091856	0.040954	-0.093975
O3	O	1.317987	-0.122196	-0.093976
O4	O	1.191253	0.162445	-0.093968
O5	O	1.299140	-0.108612	0.094032
O6	O	1.073009	0.054538	0.094033
O7	O	1.398537	0.012878	0.094039
Zn8	Zn	1.232781	0.035865	0.123886
Zn9	Zn	1.257613	0.017968	-0.123822
O10	O	1.172406	0.176029	0.094040
C11	C	1.041788	0.050456	0.000028
C12	C	0.920684	0.058518	0.000025
C13	C	0.702726	0.159558	0.000026
C14	C	0.816511	0.151990	0.000026
C15	C	0.911068	-0.027392	0.000021
C16	C	0.797283	-0.019823	0.000021
C17	C	0.693114	0.073655	0.000025
C18	C	0.579326	0.081224	0.000034
C19	C	0.673886	-0.098157	0.000020
C20	C	0.787671	-0.105726	0.000020
C21	C	1.321824	-0.151586	0.000024
C22	C	1.361321	-0.259396	0.000014
C23	C	0.968935	-0.515042	0.000030
C24	C	1.006075	-0.616350	0.000034
C25	C	1.214981	-0.655906	0.000037
C26	C	1.177859	-0.554600	0.000029
C27	C	1.054834	-0.484175	0.000026
C28	C	1.263758	-0.523732	0.000024
C29	C	1.226638	-0.422434	0.000022
C30	C	1.103619	-0.352004	0.000023
C31	C	1.017714	-0.382877	0.000024
C32	C	1.386781	-0.594158	0.000035
C33	C	1.472680	-0.563291	0.000031
C34	C	1.435561	-0.461992	0.000020
C35	C	1.312542	-0.391561	0.000021
C36	C	1.521466	-0.431119	0.000019
C37	C	1.484346	-0.329821	0.000016
C38	C	1.275422	-0.290263	0.000018
C39	C	1.448606	0.003377	0.000034
C40	C	1.569711	-0.004686	0.000029
C41	C	1.168570	0.205419	0.000037
C42	C	1.129073	0.313228	0.000040
N43	N	1.215842	0.048079	0.292940
N44	N	1.274563	0.005746	-0.292876
C45	C	1.392452	-0.079296	0.529587
C46	C	1.380617	-0.070752	0.647929
C47	C	1.180335	0.073704	0.647968
C48	C	1.192170	0.065161	0.529626
C49	C	1.298233	-0.011341	0.470440
C50	C	1.310070	-0.019879	0.352096
C51	C	1.109785	0.124572	0.352137
C52	C	1.097951	0.133115	0.470479
H53	H	0.995900	-0.103497	0.000008
H54	H	1.396433	-0.082168	0.303908
H55	H	0.824328	0.221941	0.000029
Br56	Br	0.660838	-0.214746	0.000036
H57	H	1.478817	-0.141580	0.481397
H58	H	0.872499	-0.181833	0.000012
H59	H	1.011594	0.195399	0.518682
Br60	Br	0.561348	0.286419	0.000059
Br61	Br	1.108460	-0.194679	-0.000001
Br62	Br	0.850752	-0.287292	0.000004
Br63	Br	0.801973	-0.419458	0.000011
H64	H	1.073397	-0.269521	0.000027
H65	H	0.936115	-0.641474	0.000053
H66	H	1.315147	-0.713258	0.000044
H67	H	1.572846	-0.620643	0.000037
Br68	Br	1.437158	-0.731635	0.000051
H69	H	1.621631	-0.488472	0.000032
H70	H	1.457339	-0.126089	0.696084
H71	H	1.554293	-0.304689	0.000014
Br72	Br	1.036391	0.177510	0.728303
H73	H	1.033068	0.179908	0.303966
H74	H	0.494510	0.157339	0.000043
