data_functionalizedCrystal
_audit_creation_method	'MofGen! by Chris Wilmer'
_symmetry_space_group_name_H-M	'P1'
_symmetry_Int_Tables_number	1
_symmetry_cell_setting	triclinic
loop_
_symmetry_equiv_pos_as_xyz
  x,y,z
_cell_length_a	19.188905
_cell_length_b	19.188930
_cell_length_c	13.930277
_cell_angle_alpha	89.990320
_cell_angle_beta	89.985661
_cell_angle_gamma	83.139668
loop_
_atom_site_label
_atom_site_type_symbol
_atom_site_fract_x
_atom_site_fract_y
_atom_site_fract_z
O1	O	0.926159	0.087084	-0.080000
O2	O	1.426159	0.587084	0.420000
O3	O	0.722845	0.098836	-0.079968
O4	O	1.222845	0.598836	0.420032
O5	O	0.830369	-0.008696	-0.079966
O6	O	1.330369	0.491304	0.420034
O7	O	0.818635	0.194616	-0.080002
O8	O	1.318635	0.694616	0.419998
O9	O	0.830354	-0.008698	0.079696
O10	O	1.330354	0.491302	0.579696
O11	O	0.722830	0.098834	0.079693
O12	O	1.222830	0.598834	0.579693
O13	O	0.926144	0.087082	0.079662
O14	O	1.426144	0.587082	0.579662
Zn15	Zn	0.824485	0.092958	0.105028
Zn16	Zn	1.324485	0.592958	0.605028
Zn17	Zn	0.824504	0.092960	-0.105334
Zn18	Zn	1.324504	0.592960	0.394666
O19	O	0.818620	0.194614	0.079660
O20	O	1.318620	0.694614	0.579660
C21	C	0.696826	0.098458	-0.000133
C22	C	1.196826	0.598458	0.499867
C23	C	0.619321	0.097324	-0.000120
C24	C	1.119321	0.597324	0.499880
C25	C	0.582937	0.096781	-0.087154
C26	C	1.082937	0.596781	0.412846
C27	C	0.510113	0.095708	-0.087166
C28	C	1.010113	0.595708	0.412834
C29	C	0.473678	0.095164	-0.000139
C30	C	0.973678	0.595164	0.499861
C31	C	0.510070	0.095711	0.086907
C32	C	1.010070	0.595711	0.586907
C33	C	0.582891	0.096791	0.086916
C34	C	1.082891	0.596791	0.586916
N35	N	0.364652	0.053734	0.064634
N36	N	0.864652	0.553734	0.564634
N37	N	0.295475	0.052707	0.064620
N38	N	0.795475	0.552707	0.564620
C39	C	0.254272	0.091911	-0.000162
C40	C	0.754272	0.591911	0.499838
N41	N	0.284860	0.132173	-0.064942
N42	N	0.784860	0.632173	0.435058
N43	N	0.354043	0.133198	-0.064930
N44	N	0.854043	0.633198	0.435070
C45	C	0.394716	0.093993	-0.000139
C46	C	0.894716	0.593993	0.499861
C47	C	0.138924	0.090205	-0.087214
C48	C	0.638924	0.590205	0.412786
C49	C	0.066098	0.089137	-0.087223
C50	C	0.566098	0.589137	0.412777
C51	C	0.066058	0.089133	0.086853
C52	C	0.566058	0.589133	0.586853
C53	C	0.138881	0.090209	0.086859
C54	C	0.638881	0.590209	0.586859
C55	C	0.175310	0.090742	-0.000178
C56	C	0.675310	0.590742	0.499822
C57	C	0.829982	-0.034708	-0.000132
C58	C	1.329982	0.465292	0.499868
C59	C	0.828841	-0.112213	-0.000124
C60	C	1.328841	0.387787	0.499876
C61	C	0.891933	-0.157142	-0.000129
C62	C	1.391933	0.342858	0.499871
C63	C	0.890861	-0.229966	-0.000144
C64	C	1.390861	0.270034	0.499856
C65	C	0.826694	-0.257857	-0.000135
C66	C	1.326694	0.242143	0.499865
C67	C	0.763594	-0.212917	-0.000135
C68	C	1.263594	0.287083	0.499865
C69	C	0.764668	-0.140095	-0.000130
C70	C	1.264668	0.359905	0.499870
N71	N	0.777641	-0.365858	0.054208
N72	N	1.277641	0.134142	0.554208
N73	N	0.776626	-0.435037	0.054205
N74	N	1.276626	0.064963	0.554205
C75	C	0.823456	-0.477265	-0.000154
C76	C	1.323456	0.022735	0.499846
N77	N	0.871351	-0.447703	-0.054498
N78	N	1.371351	0.052297	0.445502
N79	N	0.872368	-0.378518	-0.054490
N80	N	1.372368	0.121482	0.445510
C81	C	0.825523	-0.336819	-0.000142
C82	C	1.325523	0.163181	0.499858
C83	C	0.885390	-0.601159	-0.000177
C84	C	1.385390	-0.101159	0.499823
C85	C	0.884315	-0.673984	-0.000198
C86	C	1.384315	-0.173984	0.499802
C87	C	0.757047	-0.656933	-0.000180
C88	C	1.257047	-0.156933	0.499820
C89	C	0.758123	-0.584110	-0.000168
C90	C	1.258123	-0.084110	0.499832
C91	C	0.822296	-0.556228	-0.000162
C92	C	1.322296	-0.056228	0.499838
C93	C	0.952163	0.087460	-0.000175
C94	C	1.452163	0.587460	0.499825
C95	C	1.029668	0.088594	-0.000194
C96	C	1.529668	0.588594	0.499806
C97	C	0.819007	0.220626	-0.000176
C98	C	1.319007	0.720626	0.499824
C99	C	0.820148	0.298131	-0.000191
C100	C	1.320148	0.798131	0.499809
N101	N	0.824476	0.092955	0.248594
N102	N	1.324476	0.592955	0.748594
N103	N	0.824518	0.092957	-0.248900
N104	N	1.324518	0.592957	0.251100
C105	C	0.776891	0.140557	0.700862
C106	C	1.276891	0.640557	1.200862
C107	C	0.872137	0.045358	0.700833
C108	C	1.372137	0.545358	1.200833
C109	C	0.872129	0.045356	0.600338
C110	C	1.372129	0.545356	1.100338
C111	C	0.824501	0.092956	0.550099
C112	C	1.324501	0.592956	1.050099
C113	C	0.776882	0.140558	0.600357
C114	C	1.276882	0.640558	1.100357
C115	C	0.919751	-0.002240	0.550072
C116	C	1.419751	0.497760	1.050072
C117	C	0.919746	-0.002244	0.449571
C118	C	1.419746	0.497756	0.949571
C119	C	0.872114	0.045353	0.399331
C120	C	1.372114	0.545353	0.899331
C121	C	0.824493	0.092957	0.449594
C122	C	1.324493	0.592957	0.949594
C123	C	0.776866	0.140556	0.399356
C124	C	1.276866	0.640556	0.899356
C125	C	0.729241	0.188157	0.449618
C126	C	1.229241	0.688157	0.949618
C127	C	0.729251	0.188155	0.550117
C128	C	1.229251	0.688155	1.050117
C129	C	0.872104	0.045355	0.298832
C130	C	1.372104	0.545355	0.798832
C131	C	0.776857	0.140557	0.298851
C132	C	1.276857	0.640557	0.798851
H133	H	0.480484	0.095266	-0.158042
H134	H	0.980484	0.595266	0.341958
H135	H	0.935694	-0.710565	-0.000208
H136	H	1.435694	-0.210565	0.499792
N137	N	0.957477	-0.128652	-0.000122
N138	N	1.457477	0.371348	0.499878
N139	N	0.972266	-0.089928	0.067181
N140	N	1.472266	0.410072	0.567181
H141	H	1.018557	-0.069805	0.067187
H142	H	1.518557	0.430195	0.567187
H143	H	0.168585	0.090646	-0.158085
H144	H	0.668585	0.590646	0.341915
H145	H	0.704801	-0.679641	-0.000177
H146	H	1.204801	-0.179641	0.499823
N147	N	0.950930	-0.572658	-0.000174
N148	N	1.450930	-0.072658	0.499826
N149	N	0.965719	-0.533936	0.067131
N150	N	1.465719	-0.033936	0.567131
H151	H	1.012007	-0.513807	0.067134
H152	H	1.512007	-0.013807	0.567134
H153	H	0.738113	0.179311	0.741788
H154	H	1.238113	0.679311	1.241788
H155	H	0.690477	0.226910	0.591046
H156	H	1.190477	0.726910	1.091046
N157	N	0.693669	-0.538221	-0.000159
N158	N	1.193669	-0.038221	0.499841
N159	N	0.636380	-0.563130	-0.000155
N160	N	1.136380	-0.063130	0.499845
H161	H	0.590856	-0.530721	-0.000152
H162	H	1.090856	-0.030721	0.499848
N163	N	0.955304	-0.275881	-0.000133
N164	N	1.455304	0.224119	0.499867
N165	N	0.954333	-0.340898	-0.000131
N166	N	1.454333	0.159102	0.499869
H167	H	0.999845	-0.373326	-0.000121
H168	H	1.499845	0.126674	0.499879
N169	N	0.472844	0.095163	0.175795
N170	N	0.972844	0.595163	0.675795
N171	N	0.407826	0.094199	0.175776
N172	N	0.907826	0.594199	0.675776
H173	H	0.381534	0.093816	0.238555
H174	H	0.881534	0.593816	0.738555
H175	H	0.612515	0.097234	0.157792
H176	H	1.112515	0.597234	0.657792
H177	H	0.738071	0.179316	0.257953
H178	H	1.238071	0.679316	0.757953
H179	H	0.910882	0.006603	0.257913
H180	H	1.410882	0.506603	0.757913
H181	H	0.711349	-0.235631	-0.000130
H182	H	1.211349	0.264369	0.499870
N183	N	0.968398	-0.050868	0.601372
N184	N	1.468398	0.449132	1.101372
N185	N	1.010913	-0.093364	0.556489
N186	N	1.510913	0.406636	1.056489
H187	H	1.045271	-0.127712	0.592722
H188	H	1.545271	0.372288	1.092722
H189	H	0.690465	0.226916	0.408703
H190	H	1.190465	0.726916	0.908703
H191	H	0.910917	0.006607	0.741740
H192	H	1.410917	0.506607	1.241740
H193	H	0.958524	-0.041003	0.408654
H194	H	1.458524	0.458997	0.908654
N195	N	0.028944	0.088576	-0.176141
N196	N	0.528944	0.588576	0.323859
N197	N	0.043689	0.039488	-0.234400
N198	N	0.543689	0.539488	0.265600
H199	H	0.017449	0.039091	-0.297202
H200	H	0.517449	0.539091	0.202798
N201	N	0.620137	0.097325	-0.176065
N202	N	1.120137	0.597325	0.323935
N203	N	0.587636	0.096841	-0.253770
N204	N	1.087636	0.596841	0.246230
H205	H	0.613909	0.097226	-0.316565
H206	H	1.113909	0.597226	0.183435
H207	H	0.168505	0.090647	0.157731
H208	H	0.668505	0.590647	0.657731
N209	N	0.028836	0.088593	0.175742
N210	N	0.528836	0.588593	0.675742
N211	N	-0.036183	0.087637	0.175724
N212	N	0.463817	0.587637	0.675724
H213	H	-0.062476	0.087261	0.238504
H214	H	0.437524	0.587261	0.738504
H215	H	0.713289	-0.103513	-0.000125
H216	H	1.213289	0.396487	0.499875
