data_functionalizedCrystal
_audit_creation_method	'MofGen! by Chris Wilmer'
_symmetry_space_group_name_H-M	'P1'
_symmetry_Int_Tables_number	1
_symmetry_cell_setting	triclinic
loop_
_symmetry_equiv_pos_as_xyz
  x,y,z
_cell_length_a	21.395364
_cell_length_b	15.299816
_cell_length_c	21.395355
_cell_angle_alpha	99.667094
_cell_angle_beta	89.975273
_cell_angle_gamma	80.349247
loop_
_atom_site_label
_atom_site_type_symbol
_atom_site_fract_x
_atom_site_fract_y
_atom_site_fract_z
Zn1	Zn	1.001068	-0.359220	-0.397499
Zn2	Zn	1.501068	0.140780	0.102501
Zn3	Zn	1.019110	-0.510026	-0.310873
Zn4	Zn	1.519110	-0.010026	0.189127
Zn5	Zn	0.896282	-0.359216	-0.292735
Zn6	Zn	1.396282	0.140784	0.207265
Zn7	Zn	0.914388	-0.509998	-0.415609
Zn8	Zn	1.414388	-0.009998	0.084391
O9	O	0.957712	-0.434615	-0.354179
O10	O	1.457712	0.065385	0.145821
O11	O	1.091141	-0.379238	-0.386020
O12	O	1.591141	0.120762	0.113980
O13	O	1.002790	-0.490030	-0.220790
O14	O	1.502790	0.009970	0.279210
O15	O	0.895054	-0.233001	-0.291463
O16	O	1.395054	0.266999	0.208537
O17	O	1.104396	-0.490034	-0.322375
O18	O	1.604396	0.009966	0.177625
O19	O	0.972040	-0.233004	-0.368433
O20	O	1.472040	0.266996	0.131567
O21	O	0.912549	-0.379231	-0.207465
O22	O	1.412549	0.120769	0.292535
O23	O	0.811005	-0.379204	-0.309023
O24	O	1.311005	0.120796	0.190977
O25	O	0.925913	-0.489987	-0.500884
O26	O	1.425913	0.010013	-0.000884
O27	O	0.824307	-0.489983	-0.399298
O28	O	1.324307	0.010017	0.100702
O29	O	0.989596	-0.379211	-0.487578
O30	O	1.489596	0.120789	0.012422
O31	O	1.020346	-0.636238	-0.339936
O32	O	1.520346	-0.136238	0.160064
O33	O	0.943408	-0.636217	-0.416885
O34	O	1.443408	-0.136217	0.083115
C35	C	0.794922	-0.434591	-0.354158
C36	C	1.294922	0.065409	0.145842
C37	C	0.725282	-0.434602	-0.354167
C38	C	1.225282	0.065398	0.145833
C39	C	0.230443	-0.492403	-0.401159
C40	C	0.730443	0.007597	0.098841
C41	C	0.295878	-0.492403	-0.401153
C42	C	0.795878	0.007597	0.098847
C43	C	0.321647	-0.434635	-0.354201
C44	C	0.821647	0.065365	0.145799
C45	C	0.281977	-0.376878	-0.307244
C46	C	0.781977	0.123122	0.192756
C47	C	0.216544	-0.376886	-0.307248
C48	C	0.716544	0.123114	0.192752
C49	C	0.415559	-0.353351	-0.339567
C50	C	0.915559	0.146649	0.160433
C51	C	0.480991	-0.353342	-0.339567
C52	C	0.980991	0.146658	0.160433
C53	C	0.523465	-0.434611	-0.354185
C54	C	1.023465	0.065389	0.145815
C55	C	0.500500	-0.515892	-0.368816
C56	C	1.000500	-0.015892	0.131184
C57	C	0.435067	-0.515900	-0.368820
C58	C	0.935067	-0.015900	0.131180
C59	C	0.392598	-0.434620	-0.354191
C60	C	0.892598	0.065380	0.145809
C61	C	0.634080	-0.492369	-0.401130
C62	C	1.134080	0.007631	0.098870
C63	C	0.699517	-0.492371	-0.401119
C64	C	1.199517	0.007629	0.098881
C65	C	0.685614	-0.376837	-0.307212
C66	C	1.185614	0.123163	0.192788
C67	C	0.620179	-0.376843	-0.307221
C68	C	1.120179	0.123157	0.192779
C69	C	0.594416	-0.434608	-0.354183
C70	C	1.094416	0.065392	0.145817
C71	C	0.985817	-0.668954	-0.382357
C72	C	1.485817	-0.168954	0.117643
C73	C	0.997897	-0.769205	-0.394433
C74	C	1.497897	-0.269205	0.105567
C75	C	0.871781	-1.052088	-0.268085
C76	C	1.371781	-0.552088	0.231915
C77	C	0.860427	-0.957897	-0.256741
C78	C	1.360427	-0.457897	0.243259
C79	C	0.894794	-0.910719	-0.291163
C80	C	1.394794	-0.410719	0.208837
C81	C	0.940516	-0.957742	-0.336931
C82	C	1.440516	-0.457742	0.163069
C83	C	0.951867	-1.051942	-0.348280
C84	C	1.451867	-0.551942	0.151720
C85	C	0.974880	-0.910573	-0.371358
C86	C	1.474880	-0.410573	0.128642
C87	C	1.020602	-0.957596	-0.417126
C88	C	1.520602	-0.457596	0.082874
C89	C	1.031951	-1.051786	-0.428473
C90	C	1.531951	-0.551786	0.071527
C91	C	0.997585	-1.098964	-0.394051
C92	C	1.497585	-0.598964	0.105949
C93	C	0.963529	-0.816373	-0.360009
C94	C	1.463529	-0.316373	0.139991
C95	C	1.043615	-0.816227	-0.440204
C96	C	1.543615	-0.316227	0.059796
C97	C	1.054969	-0.910418	-0.451548
C98	C	1.554969	-0.410418	0.048452
C99	C	1.121138	-0.434640	-0.354201
C100	C	1.621138	0.065360	0.145799
C101	C	1.190781	-0.434650	-0.354210
C102	C	1.690781	0.065350	0.145790
C103	C	0.957762	-0.434597	-0.517600
C104	C	1.457762	0.065403	-0.017600
C105	C	0.957783	-0.434589	-0.587241
C106	C	1.457783	0.065411	-0.087241
C107	C	0.929515	-0.199361	-0.325905
C108	C	1.429515	0.300639	0.174095
C109	C	0.917499	-0.099110	-0.313856
C110	C	1.417499	0.400890	0.186144
C111	C	0.990941	-0.376906	-0.613027
C112	C	1.490941	0.123094	-0.113027
C113	C	0.990935	-0.376867	-0.678457
C114	C	1.490935	0.123133	-0.178457
C115	C	0.957781	-0.434528	-0.718102
C116	C	1.457781	0.065472	-0.218102
C117	C	0.924615	-0.492215	-0.692308
C118	C	1.424615	0.007785	-0.192308
C119	C	0.924617	-0.492246	-0.626878
C120	C	1.424617	0.007754	-0.126878
C121	C	0.962573	-0.515739	-0.831542
C122	C	1.462573	-0.015739	-0.331542
C123	C	0.962576	-0.515710	-0.896971
C124	C	1.462576	-0.015710	-0.396971
C125	C	0.957773	-0.434432	-0.919911
C126	C	1.457773	0.065568	-0.419911
C127	C	0.952979	-0.353181	-0.877413
C128	C	1.452979	0.146819	-0.377413
C129	C	0.952980	-0.353212	-0.811983
C130	C	1.452980	0.146788	-0.311983
C131	C	0.957775	-0.434500	-0.789051
C132	C	1.457775	0.065500	-0.289051
C133	C	0.990926	-0.376702	-1.016644
C134	C	1.490926	0.123298	-0.516644
C135	C	0.990916	-0.376662	-1.082076
C136	C	1.490916	0.123338	-0.582076
C137	C	0.924601	-0.492018	-1.095926
C138	C	1.424601	0.007982	-0.595926
C139	C	0.924606	-0.492050	-1.030495
C140	C	1.424606	0.007950	-0.530495
C141	C	0.957773	-0.434393	-0.990858
C142	C	1.457773	0.065607	-0.490858
C143	C	0.957691	-0.434568	-0.191386
C144	C	1.457691	0.065432	0.308614
C145	C	0.957760	-0.434322	-0.121715
C146	C	1.457760	0.065678	0.378285
H147	H	0.209471	-0.539443	-0.439398
H148	H	0.709471	-0.039443	0.060602
F149	F	0.835203	-1.102303	-0.231464
F150	F	1.335203	-0.602303	0.268536
H151	H	0.897610	-0.539028	-1.009501
H152	H	1.397610	-0.039028	-0.509501
F153	F	0.967684	-0.602184	-0.942195
F154	F	1.467684	-0.102184	-0.442195
F155	F	0.914870	-0.766339	-0.311300
F156	F	1.414870	-0.266339	0.188700
H157	H	0.535082	-0.582069	-0.380724
H158	H	1.035082	-0.082069	0.119276
F159	F	0.967701	-0.602254	-0.807135
F160	F	1.467701	-0.102254	-0.307135
F161	F	0.309403	-0.315399	-0.257273
F162	F	0.809403	0.184601	0.242727
F163	F	0.606659	-0.553850	-0.451108
F164	F	1.106659	-0.053850	0.048892
F165	F	0.882537	-0.810474	-0.279261
F166	F	1.382537	-0.310474	0.220739
F167	F	1.009769	-1.199214	-0.406019
F168	F	1.509769	-0.699214	0.093981
H169	H	0.823200	-0.919615	-0.219477
H170	H	1.323200	-0.419615	0.280523
F171	F	1.080603	-1.101829	-0.477194
F172	F	1.580603	-0.601829	0.022806
H173	H	0.897613	-0.539217	-0.605884
H174	H	1.397613	-0.039217	-0.105884
H175	H	0.184250	-0.329854	-0.269015
H176	H	0.684250	0.170146	0.230985
H177	H	1.092196	-0.948717	-0.488813
H178	H	1.592196	-0.448717	0.011187
H179	H	0.731810	-0.539406	-0.439350
H180	H	1.231810	-0.039406	0.060650
F181	F	0.505426	-0.266835	-0.324003
F182	F	1.005426	0.233165	0.175997
H183	H	0.380980	-0.287168	-0.327652
H184	H	0.880980	0.212832	0.172348
F185	F	0.338097	-0.553874	-0.451125
F186	F	0.838097	-0.053874	0.048875
F187	F	0.889328	-0.553579	-0.734501
F188	F	1.389328	-0.053579	-0.234501
H189	H	1.017934	-0.329889	-0.699456
H190	H	1.517934	0.170111	-0.199456
F191	F	1.080192	-0.766022	-0.476842
F192	F	1.580192	-0.266022	0.023158
H193	H	1.017916	-0.329684	-1.103068
H194	H	1.517916	0.170316	-0.603068
F195	F	0.410628	-0.602403	-0.384389
F196	F	0.910628	-0.102403	0.115611
F197	F	1.026237	-0.315538	-0.570845
F198	F	1.526237	0.184462	-0.070845
F199	F	0.947875	-0.266741	-0.766756
F200	F	1.447875	0.233259	-0.266756
F201	F	0.577965	-0.315368	-0.257254
F202	F	1.077965	0.184632	0.242746
H203	H	0.706594	-0.329804	-0.268982
H204	H	1.206594	0.170196	0.231018
F205	F	0.947869	-0.266673	-0.901821
F206	F	1.447869	0.233327	-0.401821
F207	F	0.889309	-0.553379	-1.138114
F208	F	1.389309	-0.053379	-0.638114
H209	H	1.017928	-0.329749	-0.984369
H210	H	1.517928	0.170251	-0.484369
