data_functionalizedCrystal
_audit_creation_method	'MofGen! by Chris Wilmer'
_symmetry_space_group_name_H-M	'P1'
_symmetry_Int_Tables_number	1
_symmetry_cell_setting	triclinic
loop_
_symmetry_equiv_pos_as_xyz
  x,y,z
_cell_length_a	10.489741
_cell_length_b	8.559649
_cell_length_c	7.088929
_cell_angle_alpha	84.674985
_cell_angle_beta	83.712943
_cell_angle_gamma	102.841081
loop_
_atom_site_label
_atom_site_type_symbol
_atom_site_fract_x
_atom_site_fract_y
_atom_site_fract_z
O1	O	-0.028523	-2.103400	-0.158957
O2	O	0.037276	-1.638952	-0.158967
O3	O	-0.182335	-1.881746	-0.158950
O4	O	0.191088	-1.860607	-0.158973
O5	O	-0.211743	-1.914192	0.159027
O6	O	0.007868	-1.671399	0.159010
O7	O	-0.057931	-2.135846	0.159021
Cu8	Cu	-0.027717	-1.906585	0.188049
Cu9	Cu	0.007062	-1.868214	-0.187996
O10	O	0.161680	-1.893053	0.159004
C11	C	0.027558	-1.595703	0.000020
C12	C	0.042401	-1.418493	0.000017
C13	C	-0.244403	-1.896372	0.000037
C14	C	-0.385529	-1.891596	0.000034
C15	C	-0.048213	-2.179096	0.000029
C16	C	-0.063054	-2.356304	0.000020
C17	C	-0.437401	-1.737113	0.000016
C18	C	-0.551707	-1.826086	0.156797
C19	C	-0.522692	-1.794133	-0.156703
C20	C	-0.497989	-1.980646	0.156944
C21	C	-0.468948	-1.948657	-0.156697
C22	C	-0.583242	-2.037747	0.000122
C23	C	0.223748	-1.878426	0.000012
C24	C	0.364876	-1.883201	0.000003
N25	N	-0.052180	-1.933585	0.452539
N26	N	0.031513	-1.841226	-0.452486
H27	H	-0.588094	-1.774246	0.289341
H28	H	-0.486305	-2.059494	0.289639
H29	H	0.118244	-1.745507	0.465862
H30	H	-0.646061	-2.164884	0.000212
N31	N	0.177051	-1.309445	-0.000012
H32	H	0.168930	-1.194061	-0.000019
H33	H	0.215247	-1.342765	0.117863
N34	N	-0.538386	-1.689612	-0.332268
H35	H	-0.484502	-1.576076	-0.332121
H36	H	-0.506771	-1.734865	-0.450588
H37	H	-0.138908	-2.029323	0.534202
H38	H	-0.374390	-1.610115	0.000171
H39	H	-0.432522	-2.000441	-0.289249
H40	H	-0.164693	-1.438631	0.000017
