data_functionalizedCrystal
_audit_creation_method	'MofGen! by Chris Wilmer'
_symmetry_space_group_name_H-M	'P1'
_symmetry_Int_Tables_number	1
_symmetry_cell_setting	triclinic
loop_
_symmetry_equiv_pos_as_xyz
  x,y,z
_cell_length_a	16.992694
_cell_length_b	16.053802
_cell_length_c	16.992695
_cell_angle_alpha	87.258926
_cell_angle_beta	90.668223
_cell_angle_gamma	92.750953
loop_
_atom_site_label
_atom_site_type_symbol
_atom_site_fract_x
_atom_site_fract_y
_atom_site_fract_z
O1	O	-1.053959	-0.069325	-0.163815
O2	O	-0.553959	0.430675	0.336185
O3	O	-0.825560	-0.069350	-0.161983
O4	O	-0.325560	0.430650	0.338017
O5	O	-0.938844	-0.069331	-0.048699
O6	O	-0.438844	0.430669	0.451301
O7	O	-0.940676	-0.069344	-0.277099
O8	O	-0.440676	0.430656	0.222901
O9	O	-0.932607	0.069527	-0.054907
O10	O	-0.432607	0.569527	0.445093
O11	O	-0.819323	0.069508	-0.168191
O12	O	-0.319323	0.569508	0.331809
O13	O	-1.047722	0.069533	-0.170023
O14	O	-0.547722	0.569533	0.329977
Zn15	Zn	-0.932532	0.091567	-0.170093
Zn16	Zn	-0.432532	0.591567	0.329907
Zn17	Zn	-0.940750	-0.091384	-0.161913
Zn18	Zn	-0.440750	0.408616	0.338087
O19	O	-0.934438	0.069514	-0.283307
O20	O	-0.434438	0.569514	0.216693
C21	C	-0.793082	0.000076	-0.162731
C22	C	-0.293082	0.500076	0.337269
C23	C	-0.705597	0.000067	-0.155702
C24	C	-0.205597	0.500067	0.344298
C25	C	-0.933370	0.000098	-0.022443
C26	C	-0.433370	0.500098	0.477557
C27	C	-0.926341	0.000097	0.065042
C28	C	-0.426341	0.500097	0.565042
C29	C	-1.080201	0.000105	-0.169275
C30	C	-0.580201	0.500105	0.330725
C31	C	-1.167685	0.000109	-0.176304
C32	C	-0.667685	0.500109	0.323696
N33	N	-0.926930	0.216427	-0.175675
N34	N	-0.426930	0.716427	0.324325
C35	C	-0.659607	0.000064	-0.223520
C36	C	-0.159607	0.500064	0.276480
C37	C	-0.577405	0.000076	-0.216911
C38	C	-0.077405	0.500076	0.283089
C39	C	-0.541197	0.000085	-0.142484
C40	C	-0.041197	0.500085	0.357516
C41	C	-0.587193	0.000091	-0.074661
C42	C	-0.087193	0.500091	0.425339
C43	C	-0.669393	0.000085	-0.081270
C44	C	-0.169393	0.500085	0.418730
C45	C	-0.295881	0.000109	-0.115090
C46	C	0.204119	0.500109	0.384910
C47	C	-0.213676	0.000112	-0.108486
C48	C	0.286324	0.500112	0.391514
C49	C	-0.203893	0.000099	-0.250737
C50	C	0.296107	0.500099	0.249263
C51	C	-0.286095	0.000088	-0.257339
C52	C	0.213905	0.500088	0.242661
C53	C	-0.332084	0.000098	-0.189517
C54	C	0.167916	0.500098	0.310483
N55	N	-0.457174	0.000094	-0.135727
N56	N	0.042826	0.500094	0.364273
N57	N	-0.416105	0.000094	-0.196275
N58	N	0.083895	0.500094	0.303725
N59	N	-0.946358	-0.216243	-0.156325
N60	N	-0.446358	0.283757	0.343675
C61	C	-0.975152	0.260129	-0.127492
C62	C	-0.475152	0.760129	0.372508
C63	C	-0.971241	0.347535	-0.131404
C64	C	-0.471241	0.847535	0.368596
C65	C	-0.919110	0.391237	-0.183504
C66	C	-0.419110	0.891237	0.316496
C67	C	-0.870883	0.347529	-0.231689
C68	C	-0.370883	0.847529	0.268311
C69	C	-0.874791	0.260125	-0.227772
C70	C	-0.374791	0.760125	0.272228
C71	C	-0.902039	0.652644	-0.200593
C72	C	-0.402039	1.152644	0.299407
C73	C	-0.898136	0.740055	-0.204508
C74	C	-0.398136	1.240055	0.295492
C75	C	-0.998493	0.740054	-0.104222
C76	C	-0.498493	1.240054	0.395778
C77	C	-1.002400	0.652648	-0.100313
C78	C	-0.502400	1.152648	0.399687
C79	C	-0.954169	0.608948	-0.148494
C80	C	-0.454169	1.108948	0.351506
N81	N	-0.915113	0.480580	-0.187507
N82	N	-0.415113	0.980580	0.312493
N83	N	-0.958163	0.519606	-0.144487
N84	N	-0.458163	1.019606	0.355513
C85	C	-0.939913	0.000084	-0.309563
C86	C	-0.439913	0.500084	0.190437
C87	C	-0.946942	0.000079	-0.397047
C88	C	-0.446942	0.500079	0.102953
C89	C	-0.994158	0.000105	0.111032
C90	C	-0.494158	0.500105	0.611032
C91	C	-0.987550	0.000096	0.193233
C92	C	-0.487550	0.500096	0.693233
C93	C	-0.913123	0.000086	0.229442
C94	C	-0.413123	0.500086	0.729442
C95	C	-0.845300	0.000075	0.183446
C96	C	-0.345300	0.500075	0.683446
C97	C	-0.851910	0.000078	0.101246
C98	C	-0.351910	0.500078	0.601246
C99	C	-0.885729	0.000071	0.474757
C100	C	-0.385729	0.500071	0.974757
C101	C	-0.879124	0.000071	0.556962
C102	C	-0.379124	0.500071	1.056962
C103	C	-1.021375	0.000091	0.566745
C104	C	-0.521375	0.500091	1.066745
C105	C	-1.027978	0.000099	0.484543
C106	C	-0.527978	0.500099	0.984543
C107	C	-0.960155	0.000083	0.438554
C108	C	-0.460155	0.500083	0.938554
N109	N	-0.906366	0.000079	0.313465
N110	N	-0.406366	0.500079	0.813465
N111	N	-0.966913	0.000084	0.354533
N112	N	-0.466913	0.500084	0.854533
H113	H	-0.689081	0.000056	-0.284126
H114	H	-0.189081	0.500056	0.215874
H115	H	-0.333316	0.000118	-0.059864
H116	H	0.166684	0.500118	0.440136
H117	H	-0.557705	0.000110	-0.014061
H118	H	-0.057705	0.500110	0.485939
H119	H	-0.706838	0.000087	-0.026046
H120	H	-0.206838	0.500087	0.473954
H121	H	-0.539963	0.000072	-0.272136
H122	H	-0.039963	0.500072	0.227864
O123	O	-1.066420	0.000004	0.075777
O124	O	-0.566420	0.500004	0.575777
C125	C	-1.077736	-0.071921	0.031748
C126	C	-0.577736	0.428079	0.531748
H127	H	-1.018051	-0.095902	0.016255
H128	H	-0.518051	0.404098	0.516255
H129	H	-1.111760	-0.055743	-0.024705
H130	H	-0.611760	0.444257	0.475295
H131	H	-1.112548	-0.122277	0.068091
H132	H	-0.612548	0.377723	0.568091
H133	H	-1.017605	0.224552	-0.085070
H134	H	-0.517605	0.724552	0.414930
H135	H	-0.784700	0.000061	0.212933
H136	H	-0.284700	0.500061	0.712933
O137	O	-1.018173	0.389857	-0.084578
O138	O	-0.518173	0.889857	0.415422
C139	C	-1.065016	0.332542	-0.037748
C140	C	-0.565016	0.832542	0.462252
H141	H	-1.070700	0.270229	-0.067285
H142	H	-0.570700	0.770229	0.432715
H143	H	-1.126003	0.357785	-0.030862
H144	H	-0.626003	0.857785	0.469138
H145	H	-1.036224	0.323264	0.022770
H146	H	-0.536224	0.823264	0.522770
O147	O	-1.053056	0.610327	-0.049631
O148	O	-0.553056	1.110327	0.450369
C149	C	-1.094795	0.667644	-0.007955
C150	C	-0.594795	1.167644	0.492045
H151	H	-1.059681	0.729954	-0.007815
H152	H	-0.559681	1.229954	0.492185
H153	H	-1.103997	0.642398	0.055283
H154	H	-0.603997	1.142398	0.555283
H155	H	-1.154456	0.676926	-0.037631
H156	H	-0.654456	1.176926	0.462369
O157	O	-0.847417	0.782380	-0.255131
O158	O	-0.347417	1.282380	0.244869
C159	C	-0.805695	0.725067	-0.296829
C160	C	-0.305695	1.225067	0.203171
H161	H	-0.805575	0.662765	-0.261710
H162	H	-0.305575	1.162765	0.238290
H163	H	-0.742452	0.750331	-0.305979
H164	H	-0.242452	1.250331	0.194021
H165	H	-0.835318	0.715761	-0.356514
H166	H	-0.335318	1.215761	0.143486
H167	H	-1.037759	0.775643	-0.064994
H168	H	-0.537759	1.275643	0.435006
O169	O	-0.321137	0.000121	-0.329701
O170	O	0.178863	0.500121	0.170299
C171	C	-0.262918	0.000100	-0.388143
C172	C	0.237082	0.500100	0.111857
H173	H	-0.204580	0.026394	-0.363758
H174	H	0.295420	0.526394	0.136242
H175	H	-0.281442	0.040409	-0.441598
H176	H	0.218558	0.540409	0.058402
H177	H	-0.255654	-0.066518	-0.406330
H178	H	0.244346	0.433482	0.093670
O179	O	-0.855312	0.610113	-0.247443
O180	O	-0.355312	1.110113	0.252557
C181	C	-0.902774	0.559561	-0.296422
C182	C	-0.402774	1.059561	0.203578
H183	H	-0.962989	0.546453	-0.268371
H184	H	-0.462989	1.046453	0.231629
H185	H	-0.873441	0.498105	-0.304058
H186	H	-0.373441	0.998105	0.195942
H187	H	-0.910270	0.593244	-0.356444
H188	H	-0.410270	1.093244	0.143556
H189	H	-0.818513	0.000076	0.586440
H190	H	-0.318513	0.500076	1.086440
H191	H	-0.828433	0.383117	-0.274107
H192	H	-0.328433	0.883117	0.225893
H193	H	-0.835522	0.224543	-0.267007
H194	H	-0.335522	0.724543	0.232993
H195	H	-0.796685	0.000071	0.063801
H196	H	-0.296685	0.500071	0.563801
O197	O	-1.100251	0.000251	0.449326
O198	O	-0.600251	0.500251	0.949326
C199	C	-1.105089	0.072158	0.398845
C200	C	-0.605089	0.572158	0.898845
H201	H	-1.060482	0.122419	0.418600
H202	H	-0.560482	0.622419	0.918600
H203	H	-1.166986	0.096303	0.401155
H204	H	-0.666986	0.596303	0.901155
H205	H	-1.091713	0.055898	0.335960
H206	H	-0.591713	0.555898	0.835960
H207	H	-1.042774	0.000105	0.230676
H208	H	-0.542774	0.500105	0.730676
H209	H	-1.076592	0.000102	0.604198
H210	H	-0.576592	0.500102	1.104198
H211	H	-0.166440	0.000092	-0.305954
H212	H	0.333560	0.500092	0.194046
O213	O	-0.819767	0.000105	0.430205
O214	O	-0.319767	0.500105	0.930205
C215	C	-0.752662	0.000080	0.479794
C216	C	-0.252662	0.500080	0.979794
H217	H	-0.767627	0.026367	0.538649
H218	H	-0.267627	0.526367	1.038649
H219	H	-0.703018	0.040394	0.450826
H220	H	-0.203018	0.540394	0.950826
H221	H	-0.733078	-0.066538	0.490006
H222	H	-0.233078	0.433462	0.990006
H223	H	-0.184198	0.000119	-0.047875
H224	H	0.315802	0.500119	0.452125
