data_functionalizedCrystal
_audit_creation_method	'MofGen! by Chris Wilmer'
_symmetry_space_group_name_H-M	'P1'
_symmetry_Int_Tables_number	1
_symmetry_cell_setting	triclinic
loop_
_symmetry_equiv_pos_as_xyz
  x,y,z
_cell_length_a	10.489741
_cell_length_b	17.699083
_cell_length_c	8.965430
_cell_angle_alpha	90.002231
_cell_angle_beta	89.999293
_cell_angle_gamma	96.088906
loop_
_atom_site_label
_atom_site_type_symbol
_atom_site_fract_x
_atom_site_fract_y
_atom_site_fract_z
O1	O	0.161283	-1.005131	0.123829
O2	O	0.182268	-0.784890	0.123878
O3	O	-0.013915	-0.900022	0.123844
O4	O	0.357467	-0.889999	0.123864
O5	O	-0.013902	-0.900012	-0.124235
O6	O	0.182281	-0.784880	-0.124201
O7	O	0.161296	-1.005121	-0.124250
Cu8	Cu	0.171790	-0.895000	-0.146877
Cu9	Cu	0.171774	-0.895011	0.146505
O10	O	0.357480	-0.889989	-0.124215
C11	C	-0.061426	-0.899260	-0.000195
C12	C	-0.203014	-0.896995	-0.000192
C13	C	0.181523	-0.756683	-0.000155
C14	C	0.179267	-0.672650	-0.000137
C15	C	0.162042	-1.033328	-0.000213
C16	C	0.164297	-1.117361	-0.000222
C17	C	-0.269793	-0.823740	-0.000164
C18	C	-0.362552	-0.858340	-0.122488
C19	C	-0.362540	-0.858367	0.122098
C20	C	-0.293908	-0.931625	-0.122616
C21	C	-0.293886	-0.931642	0.122080
C22	C	-0.386619	-0.966296	-0.000273
C23	C	0.404991	-0.890751	-0.000174
C24	C	0.546578	-0.893016	-0.000167
N25	N	0.171800	-0.894997	-0.353226
C26	C	0.294422	-0.624782	-0.000131
C27	C	0.292295	-0.545825	-0.000151
C28	C	0.175011	-0.514737	-0.000165
C29	C	0.059847	-0.562611	-0.000175
C30	C	0.061975	-0.641567	-0.000166
C31	C	0.051260	-0.244192	-0.000213
C32	C	0.049141	-0.165230	-0.000217
C33	C	0.281580	-0.148450	-0.000197
C34	C	0.283709	-0.227406	-0.000188
C35	C	0.168545	-0.275273	-0.000206
C36	C	0.170853	-0.360887	-0.000188
C37	C	0.172702	-0.429124	-0.000173
C38	C	0.262499	-0.841736	-0.450516
C39	C	0.287036	-0.910263	-0.549944
C40	C	0.147273	-0.826499	-0.549926
C41	C	0.196395	-0.963559	-0.450465
C42	C	0.056582	-0.879749	-0.450438
C43	C	0.081070	-0.948326	-0.549821
N44	N	0.171754	-0.895020	0.352854
H45	H	-0.392982	-0.827340	-0.225890
N46	N	-0.059968	-0.530870	-0.000207
N47	N	-0.137542	-0.545313	-0.104785
H48	H	-0.222165	-0.522898	-0.104806
H49	H	-0.031796	-0.680540	-0.000170
H50	H	-0.263422	-0.962616	0.225488
N51	N	0.409250	-0.926458	-0.604760
N52	N	0.507742	-0.883402	-0.572945
H53	H	0.594060	-0.894835	-0.611651
N54	N	-0.255936	-0.970472	-0.252486
N55	N	-0.140327	-0.978459	-0.273482
H56	H	-0.113504	-1.005892	-0.365203
N57	N	0.222530	-1.036257	-0.395877
N58	N	0.226809	-1.047972	-0.258568
H59	H	0.245269	-1.099313	-0.220010
H60	H	0.004345	-0.993427	-0.593150
H61	H	0.386067	-0.506854	-0.000144
H62	H	0.339269	-0.796736	-0.406914
H63	H	0.375352	-0.109467	-0.000190
H64	H	-0.437163	-1.026580	-0.000354
N65	N	-0.400689	-0.819464	0.251817
N66	N	-0.358300	-0.751668	0.273589
H67	H	-0.385240	-0.724187	0.365196
H68	H	-0.040805	-0.866816	-0.406697
N69	N	0.121291	-0.753815	-0.604742
N70	N	0.194903	-0.695839	-0.572924
H71	H	0.176566	-0.644505	-0.611638
H72	H	0.389929	-0.650088	-0.000118
H73	H	0.379213	-0.252713	-0.000169
N74	N	-0.206113	-0.748181	-0.000306
N75	N	-0.223971	-0.703964	-0.105161
H76	H	-0.178997	-0.650601	-0.105267
N77	N	-0.070680	-0.133486	-0.000228
N78	N	-0.173495	-0.176231	-0.000243
H79	H	-0.258115	-0.153812	-0.000248
H80	H	-0.042514	-0.283156	-0.000229
