data_functionalizedCrystal
_audit_creation_method	'MofGen! by Chris Wilmer'
_symmetry_space_group_name_H-M	'P1'
_symmetry_Int_Tables_number	1
_symmetry_cell_setting	triclinic
loop_
_symmetry_equiv_pos_as_xyz
  x,y,z
_cell_length_a	17.637651
_cell_length_b	16.120490
_cell_length_c	17.640968
_cell_angle_alpha	75.369650
_cell_angle_beta	70.334811
_cell_angle_gamma	97.785441
loop_
_atom_site_label
_atom_site_type_symbol
_atom_site_fract_x
_atom_site_fract_y
_atom_site_fract_z
Zn1	Zn	-0.286526	1.309878	-0.451835
Zn2	Zn	-0.449425	1.239122	-0.283286
Zn3	Zn	-0.307411	1.135130	-0.307050
Zn4	Zn	-0.417335	1.135111	-0.416931
O5	O	-0.365174	1.204810	-0.364775
O6	O	-0.312824	1.417154	-0.434139
O7	O	-0.452756	1.195723	-0.169915
O8	O	-0.190464	1.187930	-0.350808
O9	O	-0.432505	1.365170	-0.310307
O10	O	-0.175120	1.316317	-0.457181
O11	O	-0.348420	1.119320	-0.187374
O12	O	-0.317304	1.018466	-0.316963
O13	O	-0.377813	1.187898	-0.538084
O14	O	-0.398064	1.018452	-0.397692
O15	O	-0.281708	1.316299	-0.563728
O16	O	-0.559345	1.195705	-0.276462
O17	O	-0.535769	1.119289	-0.374650
C18	C	-0.356469	0.988210	-0.356119
C19	C	-0.352760	0.895547	-0.352431
C20	C	-0.577159	1.149844	-0.319209
C21	C	-0.667845	1.126413	-0.299746
C22	C	-0.384404	0.684577	-0.383907
C23	C	-0.345997	0.725894	-0.345696
C24	C	-0.349761	0.820298	-0.349445
C25	C	-0.380641	0.590165	-0.380159
C26	C	-0.925801	1.383423	-0.512915
C27	C	-1.011015	1.361376	-0.494611
C28	C	-1.027123	1.227731	-0.383745
C29	C	-0.941908	1.249770	-0.402036
C30	C	-0.891253	1.327616	-0.466623
C31	C	-0.907361	1.193963	-0.355745
C32	C	-0.822153	1.215997	-0.374038
C33	C	-0.771493	1.293839	-0.438623
C34	C	-0.806045	1.349651	-0.484916
C35	C	-0.958017	1.116113	-0.291162
C36	C	-0.923470	1.060307	-0.244870
C37	C	-0.838261	1.082344	-0.263159
C38	C	-0.787600	1.160186	-0.327745
C39	C	-0.803708	1.026532	-0.216866
C40	C	-0.718500	1.048567	-0.235160
C41	C	-0.702393	1.182220	-0.346038
C42	C	-0.152359	1.260018	-0.410539
C43	C	-0.061670	1.283544	-0.430041
C44	C	-0.323852	1.259989	-0.581965
C45	C	-0.306242	1.283503	-0.674518
C46	C	-0.373915	1.422256	-0.373466
C47	C	-0.377639	1.514919	-0.377169
C48	C	-0.498519	1.026612	-0.912156
C49	C	-0.481963	1.048727	-0.999126
C50	C	-0.381897	1.182419	-1.025817
C51	C	-0.398442	1.160313	-0.938847
C52	C	-0.456755	1.082409	-0.882023
C53	C	-0.356678	1.216110	-0.908714
C54	C	-0.373225	1.194007	-0.821752
C55	C	-0.431536	1.116108	-0.764922
C56	C	-0.473302	1.060306	-0.795060
C57	C	-0.298370	1.294017	-0.965539
C58	C	-0.256606	1.349813	-0.935406
C59	C	-0.273148	1.327708	-0.848443
C60	C	-0.331460	1.249809	-0.791613
C61	C	-0.231383	1.383510	-0.818305
C62	C	-0.247930	1.361408	-0.731342
C63	C	-0.348007	1.227706	-0.704651
C64	C	-0.406279	1.149909	-0.148446
C65	C	-0.423665	1.126616	-0.055949
H66	H	-0.420110	0.720102	-0.419432
H67	H	-0.545982	0.963159	-0.865889
H68	H	-0.661148	1.245615	-0.398625
C69	C	-0.297755	0.677908	-0.297703
H70	H	-0.301524	0.619832	-0.301444
H71	H	-0.241174	0.709452	-0.322314
H72	H	-0.320819	0.674820	-0.239735
C73	C	-1.049018	1.422766	-0.545535
H74	H	-1.107019	1.398492	-0.525397
H75	H	-1.039580	1.479328	-0.538645
H76	H	-1.023908	1.428334	-0.603984
H77	H	-0.702111	1.311778	-0.453516
H78	H	-0.445011	1.098116	-0.694111
H79	H	-1.068377	1.164347	-0.331160
C80	C	-0.750316	1.435269	-0.555977
H81	H	-0.783091	1.465348	-0.580937
H82	H	-0.724561	1.472143	-0.532765
H83	H	-0.708919	1.421123	-0.598083
H84	H	-0.213920	1.406842	-0.706808
H85	H	-0.884556	1.446818	-0.565502
H86	H	-1.027396	1.098170	-0.276278
C87	C	-0.979194	0.974684	-0.173826
H88	H	-1.034890	0.969556	-0.169556
H89	H	-0.960706	0.925343	-0.186709
H90	H	-0.976374	0.976341	-0.121374
H91	H	-0.284902	1.312011	-1.036349
C92	C	-0.527906	0.987343	-1.032270
H93	H	-0.564999	0.937781	-0.985970
H94	H	-0.558282	1.018634	-1.059823
H95	H	-0.488775	0.967734	-1.071455
C96	C	-0.859433	0.940906	-0.145829
H97	H	-0.915128	0.935777	-0.141563
H98	H	-0.840941	0.891568	-0.158717
H99	H	-0.856618	0.942555	-0.093372
H100	H	-0.209130	1.413245	-0.981684
C101	C	-0.680495	0.987182	-0.184241
H102	H	-0.722868	0.937668	-0.143151
H103	H	-0.639756	0.967510	-0.221745
H104	H	-0.655425	1.018496	-0.156399
H105	H	-0.395470	1.164254	-0.658384
C106	C	-0.537475	0.974635	-0.732543
H107	H	-0.559994	0.944575	-0.762940
H108	H	-0.511291	0.937767	-0.703855
H109	H	-0.580753	0.988726	-0.692270
C110	C	-0.317754	1.268104	-1.088327
H111	H	-0.313875	1.273274	-1.144436
H112	H	-0.334650	1.317401	-1.073743
H113	H	-0.265153	1.266489	-1.085375
H114	H	-0.183911	1.446944	-0.864582
