data_functionalizedCrystal
_audit_creation_method	'MofGen! by Chris Wilmer'
_symmetry_space_group_name_H-M	'P1'
_symmetry_Int_Tables_number	1
_symmetry_cell_setting	triclinic
loop_
_symmetry_equiv_pos_as_xyz
  x,y,z
_cell_length_a	18.215407
_cell_length_b	29.839131
_cell_length_c	18.215399
_cell_angle_alpha	89.969127
_cell_angle_beta	89.980167
_cell_angle_gamma	90.041868
loop_
_atom_site_label
_atom_site_type_symbol
_atom_site_fract_x
_atom_site_fract_y
_atom_site_fract_z
Zn1	Zn	1.124987	-0.178853	-0.416101
Zn2	Zn	1.624987	0.321147	0.083899
Zn3	Zn	1.124860	-0.253982	-0.293028
Zn4	Zn	1.624860	0.246018	0.206972
Zn5	Zn	1.001920	-0.178867	-0.293048
Zn6	Zn	1.501920	0.321133	0.206952
Zn7	Zn	1.001850	-0.253957	-0.416053
Zn8	Zn	1.501850	0.246043	0.083947
O9	O	1.063404	-0.216415	-0.354558
O10	O	1.563404	0.283585	0.145442
O11	O	1.227955	-0.188823	-0.399787
O12	O	1.727955	0.311177	0.100213
O13	O	1.108528	-0.244034	-0.190047
O14	O	1.608528	0.255966	0.309953
O15	O	1.018327	-0.115998	-0.309400
O16	O	1.518327	0.384002	0.190600
O17	O	1.227861	-0.244020	-0.309366
O18	O	1.727861	0.255980	0.190634
O19	O	1.108745	-0.115987	-0.399806
O20	O	1.608745	0.384013	0.100194
O21	O	1.018204	-0.188848	-0.190061
O22	O	1.518204	0.311152	0.309939
O23	O	0.898926	-0.188824	-0.309354
O24	O	1.398926	0.311176	0.190646
O25	O	1.018209	-0.243978	-0.519044
O26	O	1.518209	0.256022	-0.019044
O27	O	0.898875	-0.243992	-0.399725
O28	O	1.398875	0.256008	0.100275
O29	O	1.108677	-0.188799	-0.519079
O30	O	1.608677	0.311201	-0.019079
O31	O	1.108460	-0.316846	-0.309320
O32	O	1.608460	0.183154	0.190680
O33	O	1.018086	-0.316827	-0.399705
O34	O	1.518086	0.183173	0.100295
C35	C	0.872198	-0.216407	-0.354537
C36	C	1.372198	0.283593	0.145463
C37	C	0.790399	-0.216414	-0.354545
C38	C	1.290399	0.283586	0.145455
C39	C	0.602198	-0.245186	-0.401542
C40	C	1.102198	0.254814	0.098458
C41	C	0.525339	-0.245187	-0.401551
C42	C	1.025339	0.254813	0.098449
C43	C	0.525363	-0.187652	-0.307589
C44	C	1.025363	0.312348	0.192411
C45	C	0.602220	-0.187648	-0.307584
C46	C	1.102220	0.312352	0.192416
C47	C	0.640636	-0.216418	-0.354560
C48	C	1.140636	0.283582	0.145440
C49	C	0.486920	-0.216423	-0.354574
C50	C	0.986920	0.283577	0.145426
C51	C	0.403586	-0.216424	-0.354583
C52	C	0.903586	0.283576	0.145417
C53	C	0.723975	-0.216416	-0.354551
C54	C	1.223975	0.283584	0.145449
C55	C	1.063272	-0.333137	-0.354521
C56	C	1.563272	0.166863	0.145479
C57	C	1.063282	-0.383072	-0.354530
C58	C	1.563282	0.116928	0.145470
C59	C	1.110548	-0.692712	-0.307563
C60	C	1.610548	-0.192712	0.192437
C61	C	1.110639	-0.880385	-0.307591
C62	C	1.610639	-0.380385	0.192409
O63	O	1.150721	-0.904647	-0.267629
O64	O	1.650721	-0.404647	0.232371
N65	N	1.063557	-0.903857	-0.354613
N66	N	1.563557	-0.403857	0.145387
C67	C	1.016452	-0.880407	-0.401635
C68	C	1.516452	-0.380407	0.098365
O69	O	0.976414	-0.904678	-0.441636
O70	O	1.476414	-0.404678	0.058364
C71	C	1.016366	-0.692735	-0.401609
C72	C	1.516366	-0.192735	0.098391
C73	C	1.063446	-0.669266	-0.354579
C74	C	1.563446	-0.169266	0.145421
C75	C	1.157625	-0.669243	-0.260536
C76	C	1.657625	-0.169243	0.239464
C77	C	1.157599	-0.622327	-0.260527
C78	C	1.657599	-0.122327	0.239473
C79	C	1.110496	-0.598881	-0.307544
C80	C	1.610496	-0.098881	0.192456
C81	C	1.063420	-0.622350	-0.354570
C82	C	1.563420	-0.122350	0.145430
C83	C	0.969265	-0.669287	-0.448634
C84	C	1.469265	-0.169287	0.051366
C85	C	0.969249	-0.622365	-0.448625
C86	C	1.469249	-0.122365	0.051375
C87	C	1.016329	-0.598896	-0.401595
C88	C	1.516329	-0.098896	0.098405
C89	C	1.016291	-0.551989	-0.401577
C90	C	1.516291	-0.051989	0.098423
N91	N	1.063373	-0.528517	-0.354554
N92	N	1.563373	-0.028517	0.145446
C93	C	1.110476	-0.551963	-0.307538
C94	C	1.610476	-0.051963	0.192462
C95	C	1.016500	-0.978938	-0.401644
C96	C	1.516500	-0.478938	0.098356
C97	C	1.016521	-1.025856	-0.401649
C98	C	1.516521	-0.525856	0.098351
C99	C	1.110709	-1.025830	-0.307606
C100	C	1.610709	-0.525830	0.192394
C101	C	1.110684	-0.978911	-0.307598
C102	C	1.610684	-0.478911	0.192402
C103	C	1.063582	-0.955466	-0.354622
C104	C	1.563582	-0.455466	0.145378
C105	C	1.110417	-0.453437	-0.307521
C106	C	1.610417	0.046563	0.192479
C107	C	1.110385	-0.406518	-0.307514
C108	C	1.610385	0.093482	0.192486
C109	C	1.016200	-0.406547	-0.401559
C110	C	1.516200	0.093453	0.098441
C111	C	1.016229	-0.453463	-0.401564
C112	C	1.516229	0.046537	0.098436
C113	C	1.063344	-0.476907	-0.354543
C114	C	1.563344	0.023093	0.145457
O115	O	0.976236	-0.527698	-0.441523
O116	O	1.476236	-0.027698	0.058477
O117	O	1.150520	-0.527685	-0.267554
O118	O	1.650520	-0.027685	0.232446
C119	C	1.110574	-0.739627	-0.307572
C120	C	1.610574	-0.239627	0.192428
C121	C	1.063498	-0.763097	-0.354598
C122	C	1.563498	-0.263097	0.145402
C123	C	1.016395	-0.739651	-0.401615
C124	C	1.516395	-0.239651	0.098385
C125	C	1.063518	-0.810015	-0.354604
C126	C	1.563518	-0.310015	0.145396
C127	C	1.110621	-0.833461	-0.307587
C128	C	1.610621	-0.333461	0.192413
C129	C	1.157703	-0.809989	-0.260565
C130	C	1.657703	-0.309989	0.239435
C131	C	1.157677	-0.763074	-0.260555
C132	C	1.657677	-0.263074	0.239445
C133	C	0.969313	-0.763122	-0.448637
C134	C	1.469313	-0.263122	0.051363
C135	C	0.969342	-0.810038	-0.448642
C136	C	1.469342	-0.310038	0.051358
C137	C	1.016445	-0.833484	-0.401625
C138	C	1.516445	-0.333484	0.098375
C139	C	1.255357	-0.216423	-0.354579
C140	C	1.755357	0.283577	0.145421
C141	C	1.337156	-0.216426	-0.354589
C142	C	1.837156	0.283574	0.145411
C143	C	1.063449	-0.216384	-0.546511
C144	C	1.563449	0.283616	-0.046511
C145	C	1.063468	-0.216370	-0.628310
C146	C	1.563468	0.283630	-0.128310
C147	C	1.063558	-0.099236	-0.354610
C148	C	1.563558	0.400764	0.145390
C149	C	1.063623	-0.049302	-0.354633
C150	C	1.563623	0.450698	0.145367
C151	C	1.110592	-0.187612	-0.816523
C152	C	1.610592	0.312388	-0.316523
C153	C	1.110601	-0.187599	-0.893382
C154	C	1.610601	0.312401	-0.393382
C155	C	1.016397	-0.245059	-0.893334
C156	C	1.516397	0.254941	-0.393334
C157	C	1.016385	-0.245070	-0.816477
C158	C	1.516385	0.254930	-0.316477
C159	C	1.063487	-0.216347	-0.778073
C160	C	1.563487	0.283653	-0.278073
C161	C	1.063507	-0.216323	-0.931789
C162	C	1.563507	0.283677	-0.431789
C163	C	1.063517	-0.216309	-1.015123
C164	C	1.563517	0.283691	-0.515123
C165	C	1.063477	-0.216360	-0.694734
C166	C	1.563477	0.283640	-0.194734
C167	C	1.063402	-0.216413	-0.163351
C168	C	1.563402	0.283587	0.336649
C169	C	1.063526	-0.216300	-0.081553
C170	C	1.563526	0.283700	0.418447
H171	H	0.633517	-0.164220	-0.269325
H172	H	1.133517	0.335780	0.230675
H173	H	1.148958	-0.164199	-0.924684
H174	H	1.648958	0.335801	-0.424684
H175	H	0.978177	-1.044960	-0.439939
H176	H	1.478177	-0.544960	0.060061
C177	C	0.965344	-0.276229	-0.935164
C178	C	1.465344	0.223771	-0.435164
C179	C	0.975450	-0.270079	-1.010703
C180	C	1.475450	0.229921	-0.510703
C181	C	0.928440	-0.298790	-1.049257
C182	C	1.428440	0.201210	-0.549257
H183	H	0.915873	-0.269683	-0.922652
H184	H	1.415873	0.230317	-0.422652
H185	H	0.976082	-0.306425	-0.922596
H186	H	1.476082	0.193575	-0.422596
H187	H	0.964707	-0.239889	-1.023265
H188	H	1.464707	0.260111	-0.523265
H189	H	1.024911	-0.276628	-1.023237
H190	H	1.524911	0.223372	-0.523237
H191	H	0.939178	-0.328987	-1.036689
H192	H	1.439178	0.171013	-0.536689
H193	H	0.878973	-0.292242	-1.036739
H194	H	1.378973	0.207758	-0.536739
H195	H	0.935296	-0.294624	-1.100514
H196	H	1.435296	0.205376	-0.600514
H197	H	1.148944	-0.164223	-0.785257
H198	H	1.648944	0.335777	-0.285257
H199	H	1.148723	-0.387411	-0.269213
H200	H	1.648723	0.112589	0.230787
C201	C	0.965212	-0.276320	-0.774858
C202	C	1.465212	0.223680	-0.274858
C203	C	0.923983	-0.301484	-0.824938
C204	C	1.423983	0.198516	-0.324938
C205	C	0.876843	-0.330277	-0.786626
C206	C	1.376843	0.169723	-0.286626
H207	H	0.933099	-0.259188	-0.744876
H208	H	1.433099	0.240812	-0.244876
H209	H	0.993320	-0.295922	-0.744887
H210	H	1.493320	0.204078	-0.244887
H211	H	0.895877	-0.281884	-0.854897
H212	H	1.395877	0.218116	-0.354897
H213	H	0.956077	-0.318625	-0.854922
H214	H	1.456077	0.181375	-0.354922
H215	H	0.904951	-0.349879	-0.756655
H216	H	1.404951	0.150121	-0.256655
H217	H	0.844735	-0.313141	-0.756645
H218	H	1.344735	0.186859	-0.256645
H219	H	0.848869	-0.347357	-0.820599
H220	H	1.348869	0.152643	-0.320599
H221	H	0.494076	-0.164229	-0.269342
H222	H	0.994076	0.335771	0.230658
C223	C	0.483513	-0.276448	-0.452441
C224	C	0.983513	0.223552	0.047559
C225	C	0.439323	-0.305204	-0.410692
C226	C	0.939323	0.194796	0.089308
C227	C	0.400775	-0.334004	-0.457549
C228	C	0.900775	0.165996	0.042451
H229	H	0.517317	-0.293623	-0.480432
H230	H	1.017317	0.206377	0.019568
H231	H	0.453522	-0.259301	-0.484549
H232	H	0.953522	0.240699	0.015451
H233	H	0.469311	-0.322349	-0.378596
H234	H	0.969311	0.177651	0.121404
H235	H	0.405505	-0.288041	-0.382702
H236	H	0.905505	0.211959	0.117298
H237	H	0.370785	-0.316857	-0.489658
H238	H	0.870785	0.183143	0.010342
H239	H	0.434585	-0.351176	-0.485538
H240	H	0.934585	0.148824	0.014462
H241	H	0.370783	-0.353515	-0.429230
H242	H	0.870783	0.146485	0.070770
C243	C	1.161594	-0.478805	-0.256386
C244	C	1.661594	0.021195	0.243614
C245	C	1.202796	-0.448202	-0.215191
C246	C	1.702796	0.051798	0.284809
C247	C	1.249936	-0.471554	-0.168068
C248	C	1.749936	0.028446	0.331932
H249	H	1.193723	-0.497078	-0.284481
H250	H	1.693723	0.002922	0.215519
H251	H	1.133486	-0.497128	-0.224256
H252	H	1.633486	0.002872	0.275744
H253	H	1.230901	-0.429887	-0.247317
H254	H	1.730901	0.070113	0.252683
H255	H	1.170686	-0.429928	-0.187081
H256	H	1.670686	0.070072	0.312919
H257	H	1.221828	-0.489877	-0.135938
H258	H	1.721828	0.010123	0.364062
H259	H	1.282060	-0.489826	-0.196169
H260	H	1.782060	0.010174	0.303831
H261	H	1.277892	-0.450793	-0.140107
H262	H	1.777892	0.049207	0.359893
H263	H	1.195985	-0.688328	-0.222250
H264	H	1.695985	-0.188328	0.277750
C265	C	0.643774	-0.276433	-0.452629
C266	C	1.143774	0.223567	0.047371
C267	C	0.593658	-0.301617	-0.493791
C268	C	1.093658	0.198383	0.006209
C269	C	0.631928	-0.330402	-0.540871
C270	C	1.131928	0.169598	-0.040871
H271	H	0.673727	-0.296026	-0.424504
H272	H	1.173727	0.203974	0.075496
H273	H	0.673772	-0.259280	-0.484782
H274	H	1.173772	0.240720	0.015218
H275	H	0.563673	-0.318770	-0.461643
H276	H	1.063673	0.181230	0.038357
H277	H	0.563703	-0.282036	-0.521932
H278	H	1.063703	0.217964	-0.021932
H279	H	0.661926	-0.313249	-0.573023
H280	H	1.161926	0.186751	-0.073023
H281	H	0.661880	-0.349992	-0.512739
H282	H	1.161880	0.150008	-0.012739
H283	H	0.597930	-0.347490	-0.568809
H284	H	1.097930	0.152510	-0.068809
H285	H	0.930924	-0.688387	-0.486928
H286	H	1.430924	-0.188387	0.013072
C287	C	1.208682	-0.596909	-0.209353
C288	C	1.708682	-0.096909	0.290647
C289	C	1.192723	-0.608371	-0.136526
C290	C	1.692723	-0.108371	0.363474
C291	C	1.239779	-0.584974	-0.089365
C292	C	1.739779	-0.084974	0.410635
H293	H	1.201980	-0.565600	-0.215974
H294	H	1.701980	-0.065600	0.284026
H295	H	1.258135	-0.604578	-0.220134
H296	H	1.758135	-0.104578	0.279866
H297	H	1.143283	-0.600699	-0.125749
H298	H	1.643283	-0.100699	0.374251
H299	H	1.199431	-0.639676	-0.129882
H300	H	1.699431	-0.139676	0.370118
H301	H	1.289232	-0.592643	-0.100146
H302	H	1.789232	-0.092643	0.399854
H303	H	1.233072	-0.553666	-0.095993
H304	H	1.733072	-0.053666	0.404007
H305	H	1.228962	-0.592751	-0.039948
H306	H	1.728962	-0.092751	0.460052
C307	C	1.161883	-0.953514	-0.256511
C308	C	1.661883	-0.453514	0.243489
C309	C	1.203144	-0.984095	-0.215351
C310	C	1.703144	-0.484095	0.284649
C311	C	1.250326	-0.960718	-0.168288
C312	C	1.750326	-0.460718	0.331712
H313	H	1.133826	-0.935238	-0.224351
H314	H	1.633826	-0.435238	0.275649
H315	H	1.193967	-0.935192	-0.284672
H316	H	1.693967	-0.435192	0.215328
H317	H	1.171064	-1.002409	-0.187193
H318	H	1.671064	-0.502409	0.312807
H319	H	1.231216	-1.002372	-0.247492
H320	H	1.731216	-0.502372	0.252508
H321	H	1.282410	-0.942396	-0.196449
H322	H	1.782410	-0.442396	0.303551
H323	H	1.222263	-0.942443	-0.136134
H324	H	1.722263	-0.442443	0.363866
H325	H	1.278332	-0.981463	-0.140361
H326	H	1.778332	-0.481463	0.359639
H327	H	1.149062	-1.044928	-0.269324
H328	H	1.649062	-0.544928	0.230676
H329	H	0.978143	-0.959852	-0.439938
H330	H	1.478143	-0.459852	0.060062
H331	H	0.977847	-0.387450	-0.439837
H332	H	1.477847	0.112550	0.060163
H333	H	1.196014	-0.743968	-0.222259
H334	H	1.696014	-0.243968	0.277741
H335	H	0.930894	-0.603279	-0.486920
H336	H	1.430894	-0.103279	0.013080
H337	H	0.977895	-0.472573	-0.439862
H338	H	1.477895	0.027427	0.060138
H339	H	1.196053	-0.829087	-0.222280
H340	H	1.696053	-0.329087	0.277720
H341	H	0.930998	-0.829142	-0.486939
H342	H	1.430998	-0.329142	0.013061
C343	C	0.918084	-0.737752	-0.499709
C344	C	1.418084	-0.237752	0.000291
C345	C	0.876848	-0.768354	-0.540872
C346	C	1.376848	-0.268354	-0.040872
C347	C	0.829634	-0.745002	-0.587920
C348	C	1.329634	-0.245002	-0.087920
H349	H	0.946116	-0.719415	-0.531868
H350	H	1.446116	-0.219415	-0.031868
H351	H	0.885984	-0.719493	-0.471538
H352	H	1.385984	-0.219493	0.028462
H353	H	0.908944	-0.786605	-0.569041
H354	H	1.408944	-0.286605	-0.069041
H355	H	0.848802	-0.786692	-0.508733
H356	H	1.348802	-0.286692	-0.008733
H357	H	0.797534	-0.726743	-0.559748
H358	H	1.297534	-0.226743	-0.059748
H359	H	0.857672	-0.726666	-0.620074
H360	H	1.357672	-0.226666	-0.120074
H361	H	0.801646	-0.765762	-0.615849
H362	H	1.301646	-0.265762	-0.115849
