data_functionalizedCrystal
_audit_creation_method	'MofGen! by Chris Wilmer'
_symmetry_space_group_name_H-M	'P1'
_symmetry_Int_Tables_number	1
_symmetry_cell_setting	triclinic
loop_
_symmetry_equiv_pos_as_xyz
  x,y,z
_cell_length_a	19.805407
_cell_length_b	19.805405
_cell_length_c	19.805398
_cell_angle_alpha	89.972363
_cell_angle_beta	89.983299
_cell_angle_gamma	90.028350
loop_
_atom_site_label
_atom_site_type_symbol
_atom_site_fract_x
_atom_site_fract_y
_atom_site_fract_z
Zn1	Zn	1.034711	-0.269455	-0.382727
Zn2	Zn	1.534711	0.230545	0.117273
Zn3	Zn	1.034633	-0.382640	-0.269535
Zn4	Zn	1.534633	0.117360	0.230465
Zn5	Zn	0.921533	-0.269474	-0.269550
Zn6	Zn	1.421533	0.230526	0.230450
Zn7	Zn	0.921489	-0.382611	-0.382680
Zn8	Zn	1.421489	0.117389	0.117320
O9	O	0.978091	-0.326045	-0.326123
O10	O	1.478091	0.173955	0.173877
O11	O	1.129417	-0.284473	-0.367725
O12	O	1.629417	0.215527	0.132275
O13	O	1.019616	-0.367648	-0.174820
O14	O	1.519616	0.132352	0.325180
O15	O	0.936597	-0.174755	-0.284588
O16	O	1.436597	0.325245	0.215412
O17	O	1.129360	-0.367630	-0.284564
O18	O	1.629360	0.132370	0.215436
O19	O	1.019749	-0.174741	-0.367739
O20	O	1.519749	0.325259	0.132261
O21	O	0.936522	-0.284506	-0.174831
O22	O	1.436522	0.215494	0.325169
O23	O	0.826811	-0.284478	-0.284543
O24	O	1.326811	0.215522	0.215457
O25	O	0.936522	-0.367581	-0.477403
O26	O	1.436522	0.132419	0.022597
O27	O	0.826778	-0.367599	-0.367660
O28	O	1.326778	0.132401	0.132340
O29	O	1.019706	-0.284445	-0.477437
O30	O	1.519706	0.215555	0.022563
O31	O	1.019573	-0.477353	-0.284518
O32	O	1.519573	0.022647	0.215482
O33	O	0.936447	-0.477332	-0.367646
O34	O	1.436447	0.022668	0.132354
C35	C	0.802235	-0.326038	-0.326098
C36	C	1.302235	0.173962	0.173902
C37	C	0.727003	-0.326051	-0.326104
C38	C	1.227003	0.173949	0.173896
C39	C	0.265246	-0.282826	-0.369517
C40	C	0.765246	0.217174	0.130483
C41	C	0.335934	-0.282828	-0.369513
C42	C	0.835934	0.217172	0.130487
C43	C	0.371242	-0.326055	-0.326145
C44	C	0.871242	0.173945	0.173855
C45	C	0.335857	-0.369290	-0.282784
C46	C	0.835857	0.130710	0.217216
C47	C	0.265170	-0.369291	-0.282793
C48	C	0.765170	0.130709	0.217207
C49	C	0.620931	-0.369284	-0.282748
C50	C	1.120931	0.130716	0.217252
C51	C	0.691623	-0.369278	-0.282741
C52	C	1.191623	0.130722	0.217259
C53	C	0.691695	-0.282821	-0.369468
C54	C	1.191695	0.217179	0.130532
C55	C	0.621007	-0.282822	-0.369477
C56	C	1.121007	0.217178	0.130523
C57	C	0.585629	-0.326059	-0.326119
C58	C	1.085629	0.173941	0.173881
C59	C	0.508981	-0.326058	-0.326125
C60	C	1.008981	0.173942	0.173875
C61	C	0.447889	-0.326053	-0.326134
C62	C	0.947889	0.173947	0.173866
C63	C	0.978015	-0.501901	-0.326090
C64	C	1.478015	-0.001901	0.173910
C65	C	0.978045	-0.577133	-0.326099
C66	C	1.478045	-0.077133	0.173901
C67	C	1.021371	-0.612466	-0.282860
C68	C	1.521371	-0.112466	0.217140
C69	C	1.021399	-0.683154	-0.282875
C70	C	1.521399	-0.183154	0.217125
C71	C	0.978098	-0.718509	-0.326126
C72	C	1.478098	-0.218509	0.173874
C73	C	0.934770	-0.683171	-0.369370
C74	C	1.434770	-0.183171	0.130630
C75	C	0.934746	-0.612484	-0.369357
C76	C	1.434746	-0.112484	0.130643
C77	C	0.934870	-0.968244	-0.369420
C78	C	1.434870	-0.468244	0.130580
C79	C	0.934897	-1.038936	-0.369427
C80	C	1.434897	-0.538936	0.130573
C81	C	1.021524	-1.038915	-0.282937
C82	C	1.521524	-0.538915	0.217063
C83	C	1.021499	-0.968227	-0.282925
C84	C	1.521499	-0.468227	0.217075
C85	C	0.978174	-0.932896	-0.326171
C86	C	1.478174	-0.432896	0.173829
C87	C	0.978144	-0.856248	-0.326155
C88	C	1.478144	-0.356248	0.173845
C89	C	0.978124	-0.795156	-0.326139
C90	C	1.478124	-0.295156	0.173861
C91	C	1.154634	-0.326053	-0.326148
C92	C	1.654634	0.173947	0.173852
C93	C	1.229866	-0.326056	-0.326158
C94	C	1.729866	0.173944	0.173842
C95	C	0.978118	-0.326008	-0.502666
C96	C	1.478118	0.173992	-0.002666
C97	C	0.978129	-0.325992	-0.577898
C98	C	1.478129	0.174008	-0.077898
C99	C	0.978186	-0.149502	-0.326171
C100	C	1.478186	0.350498	0.173829
C101	C	0.978227	-0.074270	-0.326191
C102	C	1.478227	0.425730	0.173809
C103	C	1.021525	-0.282583	-1.039708
C104	C	1.521525	0.217417	-0.539708
C105	C	1.021514	-0.282604	-0.969019
C106	C	1.521514	0.217396	-0.469019
C107	C	0.978199	-0.325897	-0.933660
C108	C	1.478199	0.174103	-0.433660
C109	C	0.934896	-0.369178	-0.968992
C110	C	1.434896	0.130822	-0.468992
C111	C	0.934911	-0.369160	-1.039679
C112	C	1.434911	0.130840	-0.539679
C113	C	0.934837	-0.369251	-0.683919
C114	C	1.434837	0.130749	-0.183919
C115	C	0.934825	-0.369264	-0.613226
C116	C	1.434825	0.130736	-0.113226
C117	C	1.021441	-0.282695	-0.613259
C118	C	1.521441	0.217305	-0.113259
C119	C	1.021455	-0.282677	-0.683946
C120	C	1.521455	0.217323	-0.183946
C121	C	0.978155	-0.325960	-0.719272
C122	C	1.478155	0.174040	-0.219272
C123	C	0.978168	-0.325938	-0.795921
C124	C	1.478168	0.174062	-0.295921
C125	C	0.978182	-0.325917	-0.857012
C126	C	1.478182	0.174083	-0.357012
C127	C	0.978104	-0.326034	-0.150267
C128	C	1.478104	0.173966	0.349733
C129	C	0.978224	-0.325859	-0.075035
C130	C	1.478224	0.174141	0.424965
H131	H	0.236365	-0.404494	-0.247486
H132	H	0.736365	0.095506	0.252514
H133	H	0.899631	-0.404431	-0.940196
H134	H	1.399631	0.095569	-0.440196
H135	H	1.056679	-0.711919	-0.247665
H136	H	1.556679	-0.211919	0.252335
H137	H	1.056757	-0.939444	-0.247704
H138	H	1.556757	-0.439444	0.252296
H139	H	1.056776	-0.247366	-0.940259
H140	H	1.556776	0.252634	-0.440259
H141	H	0.899651	-0.404400	-1.068442
H142	H	1.399651	0.095600	-0.568442
H143	H	1.056804	-1.067690	-0.247726
H144	H	1.556804	-0.567690	0.252274
H145	H	0.592263	-0.247620	-0.404789
H146	H	1.092263	0.252380	0.095211
H147	H	0.899548	-0.404519	-0.584438
H148	H	1.399548	0.095481	-0.084438
Br149	Br	1.080248	-0.223926	-0.731931
Br150	Br	1.580248	0.276074	-0.231931
H151	H	0.899637	-1.067720	-0.404652
H152	H	1.399637	-0.567720	0.095348
H153	H	1.056628	-0.583685	-0.247637
H154	H	1.556628	-0.083685	0.252363
H155	H	0.899592	-0.939483	-0.404631
H156	H	1.399592	-0.439483	0.095369
H157	H	0.236503	-0.247621	-0.404829
H158	H	0.736503	0.252379	0.095171
Br159	Br	0.876009	-0.731151	-0.428074
Br160	Br	1.376009	-0.231151	0.071926
H161	H	0.899466	-0.583717	-0.404568
H162	H	1.399466	-0.083717	0.095432
Br163	Br	1.080304	-0.223815	-1.087689
Br164	Br	1.580304	0.276185	-0.587689
Br165	Br	0.876078	-0.427997	-0.731853
Br166	Br	1.376078	0.072003	-0.231853
Br167	Br	1.080203	-0.223949	-0.565312
Br168	Br	1.580203	0.276051	-0.065312
Br169	Br	0.739712	-0.224143	-0.428314
Br170	Br	1.239712	0.275857	0.071686
H171	H	0.720368	-0.404482	-0.247424
H172	H	1.220368	0.095518	0.252576
Br173	Br	0.383947	-0.224162	-0.428365
Br174	Br	0.883947	0.275838	0.071635
H175	H	0.592134	-0.404488	-0.247441
H176	H	1.092134	0.095512	0.252559
H177	H	0.364610	-0.404489	-0.247475
H178	H	0.864610	0.095511	0.252525
