data_functionalizedCrystal
_audit_creation_method	'MofGen! by Chris Wilmer'
_symmetry_space_group_name_H-M	'P1'
_symmetry_Int_Tables_number	1
_symmetry_cell_setting	triclinic
loop_
_symmetry_equiv_pos_as_xyz
  x,y,z
_cell_length_a	14.908783
_cell_length_b	16.625545
_cell_length_c	14.908308
_cell_angle_alpha	93.266177
_cell_angle_beta	89.788727
_cell_angle_gamma	93.316444
loop_
_atom_site_label
_atom_site_type_symbol
_atom_site_fract_x
_atom_site_fract_y
_atom_site_fract_z
Zn1	Zn	1.345286	-0.282016	-0.587828
Zn2	Zn	1.353854	-0.408667	-0.437468
Zn3	Zn	1.203600	-0.281144	-0.428800
Zn4	Zn	1.194878	-0.424107	-0.579089
O5	O	1.274405	-0.348984	-0.508296
O6	O	1.472251	-0.292721	-0.575168
O7	O	1.341158	-0.384924	-0.310495
O8	O	1.222459	-0.168425	-0.449925
O9	O	1.478546	-0.385770	-0.464698
O10	O	1.326556	-0.169067	-0.566762
O11	O	1.230767	-0.291233	-0.304126
O12	O	1.076614	-0.306205	-0.441451
O13	O	1.207595	-0.412085	-0.706072
O14	O	1.070207	-0.411239	-0.551868
O15	O	1.318099	-0.307692	-0.712492
O16	O	1.332702	-0.523549	-0.456225
O17	O	1.215903	-0.534893	-0.560273
C18	C	1.040785	-0.360303	-0.494771
C19	C	0.940840	-0.365166	-0.489006
C20	C	0.746466	-0.277563	-0.593381
C21	C	0.652559	-0.282129	-0.587968
C22	C	0.659117	-0.378862	-0.472762
C23	C	0.753024	-0.374295	-0.478175
C24	C	0.796695	-0.323645	-0.538488
C25	C	0.890604	-0.319083	-0.543906
C26	C	0.897160	-0.415810	-0.428696
C27	C	0.803253	-0.420377	-0.423282
C28	C	1.274309	-0.558478	-0.508262
C29	C	1.274348	-0.648098	-0.508283
C30	C	1.274382	-0.720879	-0.508303
C31	C	1.274433	-0.812186	-0.508325
C32	C	1.274479	-0.884961	-0.508340
C33	C	1.274530	-0.976274	-0.508361
C34	C	1.508937	-0.337620	-0.521875
C35	C	1.608880	-0.332778	-0.527661
C36	C	1.260918	-0.361708	-0.742819
C37	C	1.255171	-0.367130	-0.842758
C38	C	1.274524	-0.138671	-0.508352
C39	C	1.274576	-0.049049	-0.508375
C40	C	1.359437	-0.268596	-1.037243
C41	C	1.354040	-0.273688	-1.131145
C42	C	1.238975	-0.382402	-1.124467
C43	C	1.244373	-0.377310	-1.030564
C44	C	1.304606	-0.320406	-0.986956
C45	C	1.310007	-0.315319	-0.893052
C46	C	1.194939	-0.424028	-0.886375
C47	C	1.189542	-0.429120	-0.980278
C48	C	1.287891	-0.336248	-0.274689
C49	C	1.293812	-0.330590	-0.174760
H50	H	0.926159	-0.277842	-0.593016
C51	C	0.755944	-0.475497	-0.357865
C52	C	0.777661	-0.555241	-0.378601
C53	C	0.734109	-0.606041	-0.318353
H54	H	0.692812	-0.471724	-0.362444
H55	H	0.774817	-0.459642	-0.298346
H56	H	0.758784	-0.571091	-0.438106
H57	H	0.840786	-0.559039	-0.374017
H58	H	0.752982	-0.590187	-0.258834
H59	H	0.670979	-0.602261	-0.322937
H60	H	0.748844	-0.660152	-0.332409
C61	C	1.124003	-0.490805	-1.027571
C62	C	1.036356	-0.476317	-0.999600
C63	C	0.975959	-0.533122	-1.043154
H64	H	1.137903	-0.543544	-1.012964
H65	H	1.128578	-0.486415	-1.090704
H66	H	1.031785	-0.480714	-0.936482
H67	H	1.022429	-0.423589	-1.014209
H68	H	0.980533	-0.528732	-1.106287
H69	H	0.989866	-0.585857	-1.028543
H70	H	0.916483	-0.523295	-1.024188
H71	H	0.782023	-0.236325	-0.642494
C72	C	1.424858	-0.206741	-0.990054
C73	C	1.471712	-0.162447	-1.054192
C74	C	1.531978	-0.105451	-1.010757
H75	H	1.466203	-0.233608	-0.955683
H76	H	1.392606	-0.171245	-0.951461
H77	H	1.503963	-0.197937	-1.092770
H78	H	1.430391	-0.135562	-1.088566
H79	H	1.499725	-0.069956	-0.972164
H80	H	1.573316	-0.132325	-0.976387
H81	H	1.563769	-0.075386	-1.054267
C82	C	0.598180	-0.232068	-0.647678
C83	C	0.656528	-0.186751	-0.701668
C84	C	0.606466	-0.140630	-0.756694
H85	H	0.563514	-0.196743	-0.611340
H86	H	0.559313	-0.266853	-0.684734
H87	H	0.695379	-0.151969	-0.664616
H88	H	0.691194	-0.222055	-0.738025
H89	H	0.567599	-0.175416	-0.793751
H90	H	0.571803	-0.105310	-0.720349
H91	H	0.646047	-0.109883	-0.793339
H92	H	0.623543	-0.420089	-0.423648
H93	H	1.189936	-0.428730	-1.159989
C94	C	0.951856	-0.465755	-0.369138
C95	C	1.043445	-0.450906	-0.386773
C96	C	1.093858	-0.496894	-0.331924
H97	H	0.935805	-0.521428	-0.381259
H98	H	0.939986	-0.451337	-0.307842
H99	H	1.055310	-0.465329	-0.448055
H100	H	1.059523	-0.395241	-0.374648
H101	H	1.081987	-0.482476	-0.270628
H102	H	1.077799	-0.552565	-0.344049
H103	H	1.156006	-0.486820	-0.343876
C104	C	1.135448	-0.480185	-0.831617
C105	C	1.153051	-0.463539	-0.740046
C106	C	1.098262	-0.515248	-0.689575
H107	H	1.147646	-0.534586	-0.847648
H108	H	1.074136	-0.472141	-0.843457
H109	H	1.214348	-0.471590	-0.728211
H110	H	1.140848	-0.409147	-0.723988
H111	H	1.036950	-0.507204	-0.701415
H112	H	1.110464	-0.569646	-0.705614
H113	H	1.110192	-0.503956	-0.627439
C114	C	1.375370	-0.253615	-0.845538
C115	C	1.368380	-0.260255	-0.752539
C116	C	1.428584	-0.203430	-0.708744
H117	H	1.361410	-0.200873	-0.860075
H118	H	1.434919	-0.263318	-0.864369
H119	H	1.308844	-0.250546	-0.733715
H120	H	1.382348	-0.312985	-0.737976
H121	H	1.488133	-0.213133	-0.727575
H122	H	1.414618	-0.150692	-0.723288
H123	H	1.423855	-0.207932	-0.645641
C124	C	1.413419	-0.217347	-1.185780
C125	C	1.359433	-0.171044	-1.236736
C126	C	1.414102	-0.119122	-1.287067
H127	H	1.450492	-0.248184	-1.224747
H128	H	1.450043	-0.182685	-1.146382
H129	H	1.322824	-0.205702	-1.276129
H130	H	1.322361	-0.140191	-1.197791
H131	H	1.450726	-0.084460	-1.247669
H132	H	1.451172	-0.149965	-1.326028
H133	H	1.377480	-0.087694	-1.321639
