data_functionalizedCrystal
_audit_creation_method	'MofGen! by Chris Wilmer'
_symmetry_space_group_name_H-M	'P1'
_symmetry_Int_Tables_number	1
_symmetry_cell_setting	triclinic
loop_
_symmetry_equiv_pos_as_xyz
  x,y,z
_cell_length_a	33.510554
_cell_length_b	33.509711
_cell_length_c	33.506470
_cell_angle_alpha	60.004186
_cell_angle_beta	60.008358
_cell_angle_gamma	59.994760
loop_
_atom_site_label
_atom_site_type_symbol
_atom_site_fract_x
_atom_site_fract_y
_atom_site_fract_z
O1	O	0.055430	-0.583081	0.487524
O2	O	0.555430	-0.083081	0.987524
O3	O	0.020931	-0.453975	0.392819
O4	O	0.520931	0.046025	0.892819
O5	O	0.102693	-0.535652	0.392731
O6	O	0.602693	-0.035652	0.892731
O7	O	-0.026332	-0.501404	0.487613
O8	O	0.473668	-0.001404	0.987613
O9	O	0.129823	-0.508526	0.419767
O10	O	0.629823	-0.008526	0.919767
O11	O	0.048062	-0.426850	0.419856
O12	O	0.548062	0.073150	0.919856
O13	O	0.082561	-0.555956	0.514561
O14	O	0.582561	-0.055956	1.014561
Cu15	Cu	0.067789	-0.488926	0.469677
Cu16	Cu	0.567789	0.011074	0.969677
Cu17	Cu	0.035703	-0.521005	0.437703
Cu18	Cu	0.535703	-0.021005	0.937703
O19	O	0.000799	-0.474279	0.514649
O20	O	0.500799	0.025721	1.014649
N21	N	0.090357	-0.466366	0.492168
N22	N	0.590357	0.033634	0.992168
N23	N	0.013139	-0.543569	0.415212
N24	N	0.513139	-0.043569	0.915212
C25	C	0.143028	-0.279707	0.544737
C26	C	0.643028	0.220293	1.044737
C27	C	0.143165	-0.413746	0.678712
C28	C	0.643165	0.086254	1.178712
C29	C	0.143043	-0.413725	0.544739
C30	C	0.643043	0.086275	1.044739
C31	C	0.277090	-0.413694	0.544637
C32	C	0.777090	0.086306	1.044637
C33	C	0.157791	-0.323929	0.559462
C34	C	0.657791	0.176071	1.059462
C35	C	0.157869	-0.398994	0.634489
C36	C	0.657869	0.101006	1.134489
C37	C	0.232865	-0.398963	0.559407
C38	C	0.732865	0.101037	1.059407
C39	C	0.157801	-0.398982	0.559463
C40	C	0.657801	0.101018	1.059463
C41	C	0.124237	-0.223419	0.525994
C42	C	0.624237	0.276581	1.025994
C43	C	0.124262	-0.432490	0.525997
C44	C	0.624262	0.067510	1.025997
C45	C	0.176583	-0.380217	0.578205
C46	C	0.676583	0.119783	1.078205
C47	C	0.358938	-0.399566	0.501510
C48	C	0.858938	0.100434	1.001510
C49	C	0.410104	-0.416609	0.484423
C50	C	0.910104	0.083391	0.984423
C51	C	0.410135	-0.499402	0.515995
C52	C	0.910135	0.000598	1.015995
C53	C	0.358969	-0.482358	0.533084
C54	C	0.858969	0.017642	1.033084
C55	C	0.136554	-0.197822	0.475693
C56	C	0.636554	0.302178	0.975693
C57	C	0.119469	-0.146653	0.458657
C58	C	0.619469	0.353347	0.958657
C59	C	0.077755	-0.146680	0.542223
C60	C	0.577755	0.353320	1.042223
C61	C	0.094840	-0.197850	0.559260
C62	C	0.594840	0.302150	1.059260
C63	C	0.073954	-0.420144	0.538396
C64	C	0.573954	0.079856	1.038396
C65	C	0.056884	-0.437203	0.521352
C66	C	0.556884	0.062797	1.021352
C67	C	0.140427	-0.478952	0.479524
C68	C	0.640427	0.021048	0.979524
C69	C	0.157498	-0.461894	0.496561
C70	C	0.657498	0.038106	0.996561
C71	C	0.074158	-0.420182	0.760618
C72	C	0.574158	0.079818	1.260618
C73	C	0.057149	-0.437256	0.811786
C74	C	0.557149	0.062744	1.311786
C75	C	0.140732	-0.479014	0.811717
C76	C	0.640732	0.020986	1.311717
C77	C	0.157740	-0.461942	0.760547
C78	C	0.657740	0.038058	1.260547
C79	C	0.124452	-0.432525	0.734999
C80	C	0.624452	0.067475	1.234999
C81	C	0.333372	-0.432439	0.525839
C82	C	0.833372	0.067561	1.025839
C83	C	-0.020612	-0.577650	0.170305
C84	C	0.479388	-0.077650	0.670305
C85	C	-0.020943	-0.788098	0.380897
C86	C	0.479057	-0.288098	0.880897
C87	C	-0.020912	-0.577638	0.380991
C88	C	0.479088	-0.077638	0.880991
C89	C	-0.231336	-0.577418	0.380585
C90	C	0.268664	-0.077418	0.880585
C91	C	-0.129735	-0.611383	0.346870
C92	C	0.370265	-0.111383	0.846870
C93	C	-0.054722	-0.611464	0.347017
C94	C	0.445278	-0.111464	0.847017
C95	C	-0.073450	-0.630202	0.328195
C96	C	0.426550	-0.130202	0.828195
C97	C	-0.087616	-0.712029	0.371239
C98	C	0.412384	-0.212029	0.871239
C99	C	-0.070599	-0.763199	0.388315
C100	C	0.429401	-0.263199	0.888315
C101	C	0.012191	-0.763282	0.356872
C102	C	0.512191	-0.263282	0.856872
C103	C	-0.004828	-0.712113	0.339795
C104	C	0.495172	-0.212113	0.839795
C105	C	-0.155381	-0.623711	0.397158
C106	C	0.344619	-0.123711	0.897158
C107	C	-0.206547	-0.606601	0.414133
C108	C	0.293453	-0.106601	0.914133
C109	C	-0.206417	-0.564839	0.330529
C110	C	0.293583	-0.064839	0.830529
C111	C	-0.155251	-0.581949	0.313554
C112	C	0.344749	-0.081949	0.813554
C113	C	-0.067051	-0.561160	0.334643
C114	C	0.432949	-0.061160	0.834643
C115	C	-0.050026	-0.544131	0.351759
C116	C	0.449974	-0.044131	0.851759
C117	C	-0.008343	-0.627704	0.393612
C118	C	0.491657	-0.127704	0.893612
C119	C	-0.025368	-0.644736	0.376502
C120	C	0.474632	-0.144736	0.876502
C121	C	-0.066922	-0.561168	0.246303
C122	C	0.433078	-0.061168	0.746303
C123	C	-0.049794	-0.544141	0.195134
C124	C	0.450206	-0.044141	0.695134
C125	C	-0.008048	-0.627719	0.195183
C126	C	0.491952	-0.127719	0.695183
C127	C	-0.025175	-0.644745	0.246352
C128	C	0.474825	-0.144745	0.746352
C129	C	-0.054614	-0.611468	0.271911
C130	C	0.445386	-0.111468	0.771911
C131	C	-0.054732	-0.686488	0.346980
C132	C	0.445268	-0.186488	0.846980
C133	C	-0.002117	-0.558258	0.114025
C134	C	0.497883	-0.058258	0.614025
C135	C	-0.002879	-0.844379	0.399940
C136	C	0.497121	-0.344379	0.899940
C137	C	-0.002504	-0.558243	0.399473
C138	C	0.497496	-0.058243	0.899473
C139	C	-0.287615	-0.558285	0.398601
C140	C	0.212385	-0.058285	0.898601
N141	N	0.434975	-0.466279	0.491900
N142	N	0.934975	0.033721	0.991900
O143	O	0.591199	-0.470749	0.375150
O144	O	1.091199	0.029251	0.875150
O145	O	0.591395	-0.565767	0.504116
O146	O	1.091395	-0.065767	1.004116
O147	O	0.591311	-0.565550	0.422329
O148	O	1.091311	-0.065550	0.922329
O149	O	0.591283	-0.470966	0.456937
O150	O	1.091283	0.029034	0.956937
O151	O	0.510024	-0.538522	0.449509
O152	O	1.010024	-0.038522	0.949509
O153	O	0.510108	-0.538739	0.531297
O154	O	1.010108	-0.038739	1.031297
O155	O	0.509913	-0.443721	0.402330
O156	O	1.009913	0.056279	0.902330
Cu157	Cu	0.502588	-0.488762	0.469295
Cu158	Cu	1.002588	0.011238	0.969295
Cu159	Cu	0.598719	-0.520726	0.437151
Cu160	Cu	1.098719	-0.020726	0.937151
O161	O	0.509997	-0.443938	0.484117
O162	O	1.009997	0.056062	0.984117
N163	N	0.666332	-0.543209	0.414541
N164	N	1.166332	-0.043209	0.914541
N165	N	0.090323	-0.121809	0.492157
N166	N	0.590323	0.378191	0.992157
O167	O	-0.026342	0.034503	0.487582
O168	O	0.473658	0.534503	0.987582
O169	O	0.102626	0.034543	0.392540
O170	O	0.602626	0.534543	0.892540
O171	O	0.020797	0.034507	0.392812
O172	O	0.520797	0.534507	0.892812
O173	O	0.055487	0.034539	0.487310
O174	O	0.555487	0.534539	0.987310
O175	O	0.047933	-0.046785	0.419900
O176	O	0.547933	0.453215	0.919900
O177	O	0.129763	-0.046749	0.419628
O178	O	0.629763	0.453251	0.919628
O179	O	0.000794	-0.046789	0.514670
O180	O	0.500794	0.453211	1.014670
Cu181	Cu	0.067756	-0.054192	0.469623
Cu182	Cu	0.567756	0.445808	0.969623
Cu183	Cu	0.035664	0.041946	0.437588
Cu184	Cu	0.535664	0.541946	0.937588
O185	O	0.082623	-0.046753	0.514399
O186	O	0.582623	0.453247	1.014399
N187	N	0.013091	0.109564	0.415054
N188	N	0.513091	0.609564	0.915054
N189	N	0.090671	-0.466416	0.836606
N190	N	0.590671	0.033584	1.336606
O191	O	0.086120	-0.583065	0.992910
O192	O	0.586120	-0.083065	1.492910
O193	O	-0.008880	-0.454051	0.992954
O194	O	0.491120	0.045949	1.492954
O195	O	-0.008658	-0.535864	0.992931
O196	O	0.491342	-0.035864	1.492931
O197	O	0.085897	-0.501252	0.992933
O198	O	0.585897	-0.001252	1.492933
O199	O	0.018407	-0.508749	0.911642
O200	O	0.518407	-0.008749	1.411642
O201	O	0.018185	-0.426936	0.911665
O202	O	0.518185	0.073064	1.411665
O203	O	0.113185	-0.555949	0.911621
O204	O	0.613185	-0.055949	1.411621
Cu205	Cu	0.068156	-0.488967	0.904221
Cu206	Cu	0.568156	0.011033	1.404221
Cu207	Cu	0.036148	-0.521034	1.000355
Cu208	Cu	0.536148	-0.021034	1.500355
O209	O	0.112963	-0.474136	0.911644
O210	O	0.612963	0.025864	1.411644
N211	N	0.013633	-0.543590	1.067970
N212	N	0.513633	-0.043590	1.567970
C213	C	0.031262	-0.424144	0.393290
C214	C	0.531262	0.075856	0.893290
C215	C	0.132513	-0.525291	0.393180
C216	C	0.632513	-0.025291	0.893180
C217	C	0.072229	-0.585787	0.514090
C218	C	0.572229	-0.085787	1.014090
C219	C	-0.029022	-0.484640	0.514200
C220	C	0.470978	0.015360	1.014200
C221	C	0.550775	-0.565338	0.533954
C222	C	1.050775	-0.065338	1.033954
C223	C	0.550672	-0.565070	0.432670
C224	C	1.050672	-0.065070	0.932670
C225	C	0.550530	-0.444149	0.372492
C226	C	1.050530	0.055851	0.872492
C227	C	0.550635	-0.444418	0.473776
C228	C	1.050635	0.055582	0.973776
C229	C	0.132408	-0.005998	0.392963
C230	C	0.632408	0.494002	0.892963
C231	C	0.031106	-0.006142	0.393333
C232	C	0.531106	0.493858	0.893333
C233	C	-0.029021	-0.006147	0.514213
C234	C	0.470979	0.493853	1.014213
C235	C	0.072314	-0.006104	0.513878
C236	C	0.572314	0.493896	1.013878
C237	C	-0.008430	-0.424240	0.952316
C238	C	0.491570	0.075760	1.452316
C239	C	-0.008150	-0.525550	0.952271
C240	C	0.491850	-0.025550	1.452271
C241	C	0.112735	-0.585760	0.952260
C242	C	0.612735	-0.085760	1.452260
C243	C	0.112461	-0.484444	0.952286
C244	C	0.612461	0.015556	1.452286
H245	H	0.047048	-0.396226	0.739820
H246	H	0.547048	0.103774	1.239820
O247	O	0.176718	-0.534073	0.357649
O248	O	0.676718	-0.034073	0.857649
C249	C	0.185451	-0.573621	0.346356
C250	C	0.685451	-0.073621	0.846356
H251	H	0.162617	-0.597110	0.378683
H252	H	0.662617	-0.097110	0.878683
H253	H	0.225859	-0.596635	0.338415
H254	H	0.725859	-0.096635	0.838415
H255	H	0.174939	-0.559099	0.312839
H256	H	0.674939	-0.059099	0.812839
O257	O	0.147962	-0.475646	0.952214
O258	O	0.647962	0.024354	1.452214
C259	C	0.189157	-0.481058	0.910097
C260	C	0.689157	0.018942	1.410097
H261	H	0.188769	-0.505573	0.896057
H262	H	0.688769	-0.005573	1.396057
H263	H	0.223857	-0.498301	0.919553
H264	H	0.723857	0.001699	1.419553
H265	H	0.188159	-0.443676	0.880625
H266	H	0.688159	0.056324	1.380625
H267	H	-0.015148	-0.685706	0.267200
H268	H	0.484852	-0.185706	0.767200
H269	H	-0.066059	-0.006159	0.544050
H270	H	0.433941	0.493841	1.044050
O271	O	0.081093	-0.630066	0.549516
O272	O	0.581093	-0.130066	1.049516
C273	C	0.129130	-0.660372	0.531775
C274	C	0.629130	-0.160372	1.031775
H275	H	0.142013	-0.647049	0.490143
H276	H	0.642013	-0.147049	0.990143
H277	H	0.129800	-0.699553	0.546706
H278	H	0.629800	-0.199553	1.046706
H279	H	0.154423	-0.659021	0.544131
H280	H	0.654423	-0.159021	1.044131
O281	O	0.148364	-0.629925	0.952157
O282	O	0.648364	-0.129925	1.452157
C283	C	0.189539	-0.623473	0.910059
C284	C	0.689539	-0.123473	1.410059
H285	H	0.177746	-0.587679	0.880643
H286	H	0.677746	-0.087679	1.380643
H287	H	0.207036	-0.655176	0.895915
H288	H	0.707036	-0.155176	1.395915
H289	H	0.217130	-0.622346	0.919577
H290	H	0.717130	-0.122346	1.419577
H291	H	0.016194	-0.427197	0.832639
H292	H	0.516194	0.072803	1.332639
O293	O	0.550821	-0.600974	0.578120
O294	O	1.050821	-0.100974	1.078120
C295	C	0.550863	-0.643061	0.578100
C296	C	1.050863	-0.143061	1.078100
H297	H	0.535435	-0.632233	0.549180
H298	H	1.035435	-0.132233	1.049180
H299	H	0.527311	-0.661378	0.615579
H300	H	1.027311	-0.161378	1.115579
H301	H	0.589874	-0.669602	0.569524
H302	H	1.089874	-0.169602	1.069524
O303	O	0.550707	-0.600580	0.423913
O304	O	1.050707	-0.100580	0.923913
C305	C	0.550764	-0.642768	0.465874
C306	C	1.050764	-0.142768	0.965874
H307	H	0.566179	-0.642341	0.489192
H308	H	1.066179	-0.142341	0.989192
H309	H	0.574375	-0.676692	0.454393
H310	H	1.074375	-0.176692	0.954393
H311	H	0.511784	-0.643387	0.487967
H312	H	1.011784	-0.143387	0.987967
O313	O	0.550478	-0.408618	0.328274
O314	O	1.050478	0.091382	0.828274
C315	C	0.550443	-0.426212	0.297869
C316	C	1.050443	0.073788	0.797869
H317	H	0.565878	-0.467846	0.311081
H318	H	1.065878	0.032154	0.811081
H319	H	0.573991	-0.411197	0.258704
H320	H	1.073991	0.088803	0.758704
H321	H	0.511432	-0.413822	0.299237
H322	H	1.011432	0.086178	0.799237
H323	H	0.550629	-0.414708	0.481180
H324	H	1.050629	0.085292	0.981180
H325	H	-0.037843	-0.532946	0.952238
H326	H	0.462157	-0.032946	1.452238
H327	H	0.079744	-0.006095	0.543566
H328	H	0.579744	0.493905	1.043566
O329	O	-0.043954	-0.379997	0.952266
O330	O	0.456046	0.120003	1.452266
C331	C	-0.027263	-0.343146	0.910165
C332	C	0.472737	0.156854	1.410165
H333	H	0.014398	-0.356588	0.896121
H334	H	0.514398	0.143412	1.396121
H335	H	-0.041554	-0.309044	0.919644
H336	H	0.458446	0.190956	1.419644
H337	H	-0.041137	-0.334006	0.880687
H338	H	0.458863	0.165994	1.380687
O339	O	0.173134	-0.507600	0.836459
O340	O	0.673134	-0.007600	1.336459
C341	C	0.221173	-0.514823	0.802875
C342	C	0.721173	-0.014823	1.302875
H343	H	0.221047	-0.509093	0.766410
H344	H	0.721047	-0.009093	1.266410
H345	H	0.245488	-0.553631	0.817633
H346	H	0.745488	-0.053631	1.317633
H347	H	0.235830	-0.487587	0.797428
H348	H	0.735830	0.012413	1.297428
O349	O	-0.073249	-0.475850	0.549700
O350	O	0.426751	0.024150	1.049700
C351	C	-0.103635	-0.427830	0.532037
C352	C	0.396365	0.072170	1.032037
H353	H	-0.080106	-0.404613	0.500640
H354	H	0.419894	0.095387	1.000640
H355	H	-0.127042	-0.411467	0.562711
H356	H	0.372958	0.088533	1.062711
H357	H	-0.128327	-0.428578	0.518477
H358	H	0.371673	0.071422	1.018477
H359	H	0.169370	-0.005761	0.363053
H360	H	0.669370	0.494239	0.863053
H361	H	0.023891	-0.387055	0.363546
H362	H	0.523891	0.112945	0.863546
H363	H	0.198696	-0.471996	0.739692
H364	H	0.698696	0.028004	1.239692
H365	H	0.046887	-0.396202	0.562361
H366	H	0.546887	0.103798	1.062361
O367	O	-0.130570	-0.652372	0.429499
O368	O	0.369430	-0.152372	0.929499
C369	C	-0.100975	-0.697878	0.422161
C370	C	0.399025	-0.197878	0.922161
H371	H	-0.116363	-0.704896	0.403548
H372	H	0.383637	-0.204896	0.903548
H373	H	-0.100453	-0.728072	0.458936
H374	H	0.399547	-0.228072	0.958936
H375	H	-0.062179	-0.697466	0.398066
H376	H	0.437821	-0.197466	0.898066
H377	H	0.015920	-0.427139	0.531437
H378	H	0.515920	0.072861	1.031437
H379	H	0.023675	-0.006147	0.363643
H380	H	0.523675	0.493853	0.863643
H381	H	0.198463	-0.471942	0.486461
H382	H	0.698463	0.028058	0.986461
O383	O	0.172739	-0.507444	0.450861
O384	O	0.672739	-0.007444	0.950861
C385	C	0.202295	-0.481593	0.407944
C386	C	0.702295	0.018407	0.907944
H387	H	0.182519	-0.440658	0.400848
H388	H	0.682519	0.059342	0.900848
H389	H	0.210009	-0.490739	0.375713
H390	H	0.710009	0.009261	0.875713
H391	H	0.238255	-0.492479	0.412567
H392	H	0.738255	0.007521	0.912567
O393	O	0.334163	-0.514305	0.556636
O394	O	0.834163	-0.014305	1.056636
C395	C	0.346659	-0.538269	0.525322
C396	C	0.846659	-0.038269	1.025322
H397	H	0.360688	-0.514960	0.485711
H398	H	0.860688	-0.014960	0.985711
H399	H	0.313011	-0.544035	0.531387
H400	H	0.813011	-0.044035	1.031387
H401	H	0.376381	-0.575189	0.533548
H402	H	0.876381	-0.075189	1.033548
O403	O	0.435075	-0.547874	0.522970
O404	O	0.935075	-0.047874	1.022970
C405	C	0.485718	-0.555869	0.502681
C406	C	0.985718	-0.055869	1.002681
H407	H	0.492679	-0.520649	0.473352
H408	H	0.992679	-0.020649	0.973352
H409	H	0.505157	-0.585762	0.485672
H410	H	1.005157	-0.085762	0.985672
H411	H	0.500269	-0.567660	0.532613
H412	H	1.000269	-0.067660	1.032613
H413	H	0.338097	-0.358917	0.495611
H414	H	0.838097	0.141083	0.995611
O415	O	0.434866	-0.384607	0.460778
O416	O	0.934866	0.115393	0.960778
C417	C	0.401303	-0.336893	0.458057
C418	C	0.901303	0.163107	0.958057
H419	H	0.364821	-0.334907	0.461439
H420	H	0.864821	0.165093	0.961439
H421	H	0.416059	-0.309847	0.421482
H422	H	0.916059	0.190153	0.921482
H423	H	0.395891	-0.327341	0.489050
H424	H	0.895891	0.172659	0.989050
H425	H	0.160490	-0.218637	0.448603
H426	H	0.660490	0.281363	0.948603
H427	H	0.053825	-0.125861	0.569312
H428	H	0.553825	0.374139	1.069312
O429	O	0.131492	-0.121860	0.409777
O430	O	0.631492	0.378140	0.909777
C431	C	0.161093	-0.155401	0.384070
C432	C	0.661093	0.344599	0.884070
H433	H	0.179728	-0.191876	0.408453
H434	H	0.679728	0.308124	0.908453
H435	H	0.190014	-0.140599	0.349907
H436	H	0.690014	0.359401	0.849907
H437	H	0.137472	-0.160852	0.373063
H438	H	0.637472	0.339148	0.873063
H439	H	-0.059824	-0.503179	0.174290
H440	H	0.440176	-0.003179	0.674290
O441	O	0.082933	-0.222678	0.608129
O442	O	0.582933	0.277322	1.108129
C443	C	0.100445	-0.210143	0.629340
C444	C	0.600445	0.289857	1.129340
H445	H	0.131987	-0.196070	0.600182
H446	H	0.631987	0.303930	1.100182
H447	H	0.113756	-0.243785	0.659499
H448	H	0.613756	0.256215	1.159499
H449	H	0.069754	-0.180439	0.645493
H450	H	0.569754	0.319561	1.145493
O451	O	-0.095442	-0.528826	0.271113
O452	O	0.404558	-0.028826	0.771113
C453	C	-0.069596	-0.499274	0.258652
C454	C	0.430404	0.000726	0.758652
H455	H	-0.028662	-0.519068	0.244638
H456	H	0.471338	-0.019068	0.744638
H457	H	-0.078785	-0.491536	0.292314
H458	H	0.421215	0.008464	0.792314
H459	H	-0.080443	-0.463322	0.228927
H460	H	0.419557	0.036678	0.728927
O461	O	0.020553	-0.660111	0.170434
O462	O	0.520553	-0.160111	0.670434
C463	C	0.027729	-0.708158	0.204012
C464	C	0.527729	-0.208158	0.704012
H465	H	0.021963	-0.708057	0.240502
H466	H	0.521963	-0.208057	0.740502
H467	H	0.066534	-0.732490	0.189285
H468	H	0.566534	-0.232490	0.689285
H469	H	0.000494	-0.722780	0.209400
H470	H	0.500494	-0.222780	0.709400
H471	H	-0.090949	-0.534065	0.310634
H472	H	0.409051	-0.034065	0.810634
H473	H	-0.060067	-0.503170	0.341685
H474	H	0.439933	-0.003170	0.841685
H475	H	0.015562	-0.654800	0.417614
H476	H	0.515562	-0.154800	0.917614
H477	H	0.021953	-0.691318	0.320042
H478	H	0.521953	-0.191318	0.820042
O479	O	-0.013329	-0.693616	0.388545
O480	O	0.486671	-0.193616	0.888545
C481	C	0.016220	-0.719333	0.418248
C482	C	0.516220	-0.219333	0.918248
H483	H	0.034825	-0.694957	0.411764
H484	H	0.534825	-0.194957	0.911764
H485	H	0.045167	-0.753500	0.408690
H486	H	0.545167	-0.253500	0.908690
H487	H	-0.007435	-0.730337	0.458307
H488	H	0.492565	-0.230337	0.958307
H489	H	0.052828	-0.784146	0.351024
H490	H	0.552828	-0.284146	0.851024
O491	O	-0.102608	-0.787933	0.411857
O492	O	0.397392	-0.287933	0.911857
C493	C	-0.126551	-0.775429	0.380520
C494	C	0.373449	-0.275429	0.880520
H495	H	-0.125303	-0.738312	0.351356
H496	H	0.374697	-0.238312	0.851356
H497	H	-0.166231	-0.773598	0.402617
H498	H	0.333769	-0.273598	0.902617
H499	H	-0.107482	-0.804266	0.362249
H500	H	0.392518	-0.304266	0.862249
O501	O	-0.136071	-0.687079	0.378124
O502	O	0.363929	-0.187079	0.878124
C503	C	-0.142949	-0.657497	0.332414
C504	C	0.357051	-0.157497	0.832414
H505	H	-0.107742	-0.649878	0.303952
H506	H	0.392258	-0.149878	0.803952
H507	H	-0.173654	-0.621490	0.335321
H508	H	0.326346	-0.121490	0.835321
H509	H	-0.153014	-0.677199	0.321006
H510	H	0.346986	-0.177199	0.821006
H511	H	-0.227429	-0.616637	0.455084
H512	H	0.272571	-0.116637	0.955084
H513	H	-0.134369	-0.571905	0.272603
H514	H	0.365631	-0.071905	0.772603
O515	O	-0.231131	-0.536240	0.298102
O516	O	0.268869	-0.036240	0.798102
C517	C	-0.197523	-0.529047	0.250074
C518	C	0.302477	-0.029047	0.750074
H519	H	-0.161065	-0.534800	0.250228
H520	H	0.338935	-0.034800	0.750228
H521	H	-0.212257	-0.490239	0.225747
H522	H	0.287743	0.009761	0.725747
H523	H	-0.192071	-0.556284	0.235409
H524	H	0.307929	-0.056284	0.735409
