data_functionalizedCrystal
_audit_creation_method	'MofGen! by Chris Wilmer'
_symmetry_space_group_name_H-M	'P1'
_symmetry_Int_Tables_number	1
_symmetry_cell_setting	triclinic
loop_
_symmetry_equiv_pos_as_xyz
  x,y,z
_cell_length_a	16.992694
_cell_length_b	14.519709
_cell_length_c	15.455313
_cell_angle_alpha	92.669068
_cell_angle_beta	87.142206
_cell_angle_gamma	87.174184
loop_
_atom_site_label
_atom_site_type_symbol
_atom_site_fract_x
_atom_site_fract_y
_atom_site_fract_z
O1	O	1.044092	0.191795	-0.072025
O2	O	0.815805	0.189648	-0.072051
O3	O	0.936001	0.056918	-0.072029
O4	O	0.923896	0.324525	-0.072046
O5	O	0.929127	0.064474	0.072232
O6	O	0.808932	0.197205	0.072210
O7	O	1.037219	0.199352	0.072236
Cu8	Cu	0.922447	0.198968	0.085395
Cu9	Cu	0.930576	0.190031	-0.085210
O10	O	0.917023	0.332082	0.072215
C11	C	0.783152	0.190666	0.000077
C12	C	0.696097	0.182430	0.000067
C13	C	0.645968	0.261890	0.000063
C14	C	0.564170	0.254147	0.000075
C15	C	0.532502	0.166943	0.000086
C16	C	0.582638	0.087478	0.000093
C17	C	0.664434	0.095222	0.000087
C18	C	0.288859	0.134847	0.000111
C19	C	0.207056	0.127109	0.000115
C20	C	0.188594	0.293779	0.000099
C21	C	0.270393	0.301515	0.000087
C22	C	0.320520	0.222050	0.000099
N23	N	0.448892	0.159027	0.000096
N24	N	0.404129	0.229968	0.000095
C25	C	0.932000	0.026296	0.000101
C26	C	0.930309	-0.076207	0.000102
C27	C	0.924087	-0.451550	0.000078
C28	C	0.925815	-0.347118	0.000085
C29	C	0.927198	-0.263882	0.000091
C30	C	0.928926	-0.159443	0.000096
C31	C	1.069872	0.198333	0.000107
C32	C	1.156927	0.206569	0.000111
C33	C	0.921024	0.362704	0.000082
C34	C	0.922715	0.465206	0.000076
N35	N	0.916736	0.205254	0.205390
N36	N	0.936294	0.183739	-0.205204
C37	C	0.967817	0.148889	0.250793
C38	C	0.963505	0.153651	0.341600
C39	C	0.908115	0.214784	0.387002
C40	C	0.857028	0.271151	0.341593
C41	C	0.861337	0.266383	0.250787
C42	C	0.889516	0.235339	0.658581
C43	C	0.885212	0.240104	0.749392
C44	C	0.991689	0.122602	0.749393
C45	C	0.995996	0.117844	0.658586
C46	C	0.944907	0.174208	0.613185
N47	N	0.903708	0.219655	0.479822
N48	N	0.949311	0.169331	0.520367
H49	H	0.671744	0.332900	0.000054
O50	O	1.013155	0.099038	0.385804
C51	C	1.059112	0.154797	0.438300
H52	H	1.027327	0.225358	0.451891
H53	H	1.118735	0.163543	0.403299
C54	C	1.110745	0.021912	0.507872
C55	C	1.071703	0.108573	0.524571
H56	H	1.118516	-0.006602	0.561087
H57	H	1.079786	-0.015655	0.472503
H58	H	1.160427	0.029212	0.478702
H59	H	1.022019	0.101271	0.553731
H60	H	1.102655	0.146138	0.559948
O61	O	0.337628	0.057716	-0.000004
C62	C	0.389030	0.053278	-0.074732
H63	H	0.394459	0.125486	-0.099643
H64	H	0.364542	0.006437	-0.127047
C65	C	0.464257	-0.074524	-0.021446
C66	C	0.470931	0.014165	-0.052038
H67	H	0.514777	-0.098655	-0.007449
H68	H	0.429625	-0.071537	0.028898
H69	H	0.443848	-0.113547	-0.065047
H70	H	0.491330	0.053189	-0.008433
H71	H	0.505568	0.011183	-0.102375
O72	O	0.839858	0.290187	0.614620
C73	C	0.790037	0.345151	0.674168
H74	H	0.819121	0.351980	0.738890
H75	H	0.731287	0.311377	0.683844
C76	C	0.739968	0.433199	0.559225
C77	C	0.775692	0.441594	0.638715
H78	H	0.731115	0.492689	0.537355
H79	H	0.773530	0.396167	0.519105
H80	H	0.691013	0.405051	0.567299
H81	H	0.824650	0.469731	0.630639
H82	H	0.742137	0.478633	0.678833
O83	O	0.515589	0.331426	0.000031
C84	C	0.561078	0.410055	0.000037
H85	H	0.623388	0.389710	-0.027280
H86	H	0.563655	0.440130	0.069243
C87	C	0.446587	0.507785	-0.022989
C88	C	0.523115	0.482800	-0.056547
H89	H	0.423169	0.552660	-0.057889
H90	H	0.415939	0.454813	-0.022989
H91	H	0.448745	0.532843	0.034682
H92	H	0.520956	0.457732	-0.114212
H93	H	0.553763	0.535770	-0.056557
O94	O	0.713022	0.017939	0.000048
C95	C	0.667533	-0.060690	0.000078
H96	H	0.607816	-0.043211	-0.027231
H97	H	0.658385	-0.083510	0.069290
C98	C	0.784213	-0.160830	-0.022951
C99	C	0.710870	-0.139365	-0.056500
H100	H	0.810946	-0.209363	-0.057847
H101	H	0.814861	-0.107857	-0.022968
H102	H	0.776580	-0.179842	0.034725
H103	H	0.718505	-0.120343	-0.114170
H104	H	0.680225	-0.192337	-0.056494
H105	H	0.819740	0.312280	0.213821
O106	O	1.021647	0.089424	0.206827
C107	C	1.065820	0.040712	0.266378
H108	H	1.030596	0.040679	0.331112
H109	H	1.123654	0.075500	0.276023
C110	C	1.126790	-0.059405	0.151449
C111	C	1.083525	-0.059452	0.230954
H112	H	1.137715	-0.121190	0.129597
H113	H	1.097033	-0.026585	0.111328
H114	H	1.174980	-0.030411	0.159497
H115	H	1.035332	-0.088435	0.222903
H116	H	1.113274	-0.092279	0.271074
O117	O	1.041276	0.067712	0.793404
C118	C	1.029436	-0.025702	0.771246
H119	H	1.002342	-0.031292	0.705317
H120	H	0.987934	-0.054440	0.822360
C121	C	1.142442	-0.074504	0.848027
C122	C	1.109171	-0.081370	0.767049
H123	H	1.191625	-0.108845	0.845442
H124	H	1.150418	-0.011570	0.862959
H125	H	1.107850	-0.098452	0.890613
H126	H	1.143758	-0.057413	0.724467
H127	H	1.101202	-0.144302	0.752110
H128	H	0.147771	0.358475	0.000091
H129	H	1.041099	0.068065	0.621621
O130	O	0.831364	0.299363	0.793598
C131	C	0.780428	0.249115	0.846127
H132	H	0.810923	0.179981	0.859728
H133	H	0.724122	0.236698	0.811150
C134	C	0.722201	0.389302	0.915677
C135	C	0.759657	0.304393	0.932389
H136	H	0.709385	0.423400	0.968886
H137	H	0.756515	0.423155	0.880285
H138	H	0.675283	0.378942	0.886528
H139	H	0.806578	0.314754	0.961528
H140	H	0.725350	0.270543	0.967788
O141	O	0.803114	0.330431	0.385657
C142	C	0.726524	0.308508	0.363468
H143	H	0.727228	0.233325	0.338517
H144	H	0.706060	0.355150	0.310755
C145	C	0.668692	0.415456	0.474785
C146	C	0.669555	0.323112	0.444147
H147	H	0.633549	0.424468	0.524550
H148	H	0.720291	0.430229	0.489733
H149	H	0.651640	0.454313	0.430850
H150	H	0.686616	0.284258	0.488077
H151	H	0.617957	0.308333	0.429208
H152	H	0.296170	0.372525	0.000069
O153	O	0.176165	0.042464	0.000095
C154	C	0.093219	0.052675	0.000117
H155	H	0.075416	0.121801	-0.027208
H156	H	0.067155	0.050166	0.069328
C157	C	0.083740	-0.111063	-0.022879
C158	C	0.061873	-0.026164	-0.056448
H159	H	0.064403	-0.159696	-0.057767
H160	H	0.139622	-0.117943	-0.022891
H161	H	0.062018	-0.113141	0.034796
H162	H	0.083604	-0.024082	-0.114118
H163	H	0.005994	-0.019284	-0.056447
H164	H	0.556847	0.016475	0.000114
