data_functionalizedCrystal
_audit_creation_method	'MofGen! by Chris Wilmer'
_symmetry_space_group_name_H-M	'P1'
_symmetry_Int_Tables_number	1
_symmetry_cell_setting	triclinic
loop_
_symmetry_equiv_pos_as_xyz
  x,y,z
_cell_length_a	18.050590
_cell_length_b	18.050589
_cell_length_c	13.897441
_cell_angle_alpha	90.027873
_cell_angle_beta	90.006213
_cell_angle_gamma	90.017386
loop_
_atom_site_label
_atom_site_type_symbol
_atom_site_fract_x
_atom_site_fract_y
_atom_site_fract_z
Zn1	Zn	1.135344	-0.295851	0.545026
Zn2	Zn	1.135239	-0.420055	0.383735
Zn3	Zn	1.011148	-0.295860	0.383785
Zn4	Zn	1.011111	-0.419980	0.545028
O5	O	1.073210	-0.357936	0.464393
O6	O	1.239254	-0.312354	0.523608
O7	O	1.118750	-0.403615	0.248760
O8	O	1.027682	-0.191934	0.405194
O9	O	1.239178	-0.403606	0.405108
O10	O	1.118928	-0.191927	0.523657
O11	O	1.027580	-0.312370	0.248796
O12	O	0.907218	-0.312297	0.405196
O13	O	1.027619	-0.403479	0.680009
O14	O	0.907191	-0.403487	0.523661
O15	O	1.118892	-0.312281	0.680008
O16	O	1.118714	-0.523969	0.405111
O17	O	1.027518	-0.523914	0.523612
C18	C	0.880258	-0.357886	0.464435
C19	C	0.797712	-0.357882	0.464475
C20	C	1.073121	-0.550888	0.464377
C21	C	1.073150	-0.633434	0.464403
C22	C	0.598269	-0.407613	0.528744
C23	C	0.548878	-0.339895	0.552473
C24	C	0.646582	-0.357923	0.464428
C25	C	0.548891	-0.425680	0.440698
C26	C	0.500597	-0.357969	0.464385
C27	C	0.598278	-0.290169	0.488204
C28	C	0.598296	-0.376000	0.376387
C29	C	0.548928	-0.308235	0.400084
C30	C	0.730680	-0.357898	0.464456
C31	C	0.416500	-0.357987	0.464357
C32	C	1.023606	-0.832882	0.528821
C33	C	1.005500	-0.882324	0.440809
C34	C	1.073223	-0.784564	0.464415
C35	C	1.091366	-0.882204	0.552438
C36	C	1.073292	-0.930550	0.464435
C37	C	1.055081	-0.832919	0.376356
C38	C	1.140979	-0.832795	0.488045
C39	C	1.122898	-0.882215	0.399971
C40	C	1.073182	-0.700466	0.464405
C41	C	1.073334	-1.014646	0.464435
C42	C	1.266916	-0.357988	0.464352
C43	C	1.349462	-0.358010	0.464335
C44	C	1.073263	-0.357871	0.715986
C45	C	1.073285	-0.357843	0.823200
C46	C	1.073321	-0.164231	0.464430
C47	C	1.073367	-0.081685	0.464446
C48	C	1.073201	-0.357948	0.213779
C49	C	1.073322	-0.357767	0.106565
C50	C	1.073306	-0.357792	1.019496
C51	C	1.073292	-0.357822	0.910263
H52	H	0.619935	-0.449561	0.583194
O53	O	0.523111	-0.258128	0.335191
C54	C	0.445007	-0.259113	0.335346
H55	H	0.424677	-0.314713	0.363903
H56	H	0.423434	-0.212676	0.383386
C57	C	0.441261	-0.179527	0.196972
C58	C	0.416292	-0.247817	0.232038
H59	H	0.423547	-0.172555	0.133248
H60	H	0.493881	-0.178860	0.196869
H61	H	0.423282	-0.140836	0.237014
H62	H	0.434278	-0.286507	0.192003
H63	H	0.363674	-0.248490	0.232132
H64	H	0.527170	-0.324621	0.626909
H65	H	0.619881	-0.232870	0.508341
H66	H	1.164887	-0.903740	0.345451
O67	O	0.522923	-0.493958	0.416651
C68	C	0.479998	-0.488784	0.332156
H69	H	0.458703	-0.429691	0.323734
H70	H	0.515537	-0.503969	0.267275
C71	C	0.440018	-0.615025	0.349225
C72	C	0.413859	-0.542447	0.338885
H73	H	0.399222	-0.648129	0.353372
H74	H	0.468940	-0.618512	0.406149
H75	H	0.469635	-0.627668	0.295155
H76	H	0.384251	-0.529802	0.392960
H77	H	0.384931	-0.538960	0.281970
O78	O	0.624183	-0.394371	0.287640
C79	C	0.597912	-0.465282	0.262148
H80	H	0.583237	-0.497490	0.330066
H81	H	0.546513	-0.459443	0.215083
C82	C	0.676493	-0.467567	0.122715
C83	C	0.658475	-0.507126	0.206134
H84	H	0.713849	-0.493378	0.088158
H85	H	0.694191	-0.419791	0.139886
H86	H	0.633656	-0.462703	0.083505
H87	H	0.701310	-0.511981	0.245347
H88	H	0.640786	-0.554904	0.188967
O89	O	0.973379	-0.807068	0.593599
C90	C	0.902055	-0.832324	0.568341
H91	H	0.900694	-0.846215	0.488332
H92	H	0.888136	-0.883998	0.611879
C93	C	0.846458	-0.754282	0.688286
C94	C	0.844785	-0.771337	0.590016
H95	H	0.811129	-0.716665	0.701660
H96	H	0.894510	-0.737268	0.705306
H97	H	0.834860	-0.797349	0.724556
H98	H	0.856391	-0.728273	0.553748
H99	H	0.796733	-0.788343	0.572991
O100	O	0.937187	-0.908370	0.417100
C101	C	0.909663	-0.952398	0.492869
H102	H	0.957870	-0.973996	0.537809
H103	H	0.871523	-0.917651	0.540184
C104	C	0.806789	-0.991728	0.395815
C105	C	0.865998	-1.018260	0.451007
H106	H	0.779852	-1.032353	0.369994
H107	H	0.825331	-0.962064	0.344769
H108	H	0.775015	-0.962772	0.435253
H109	H	0.897776	-1.047208	0.411566
H110	H	0.847461	-1.047931	0.502046
O111	O	1.209258	-0.806852	0.512081
C112	C	1.228144	-0.831932	0.604962
H113	H	1.175507	-0.845827	0.646535
H114	H	1.264200	-0.883568	0.598912
C115	C	1.335822	-0.753742	0.607375
C116	C	1.271172	-0.770802	0.658438
H117	H	1.362367	-0.716036	0.640362
H118	H	1.323100	-0.736847	0.544798
H119	H	1.365860	-0.796777	0.602337
H120	H	1.241131	-0.727770	0.663465
H121	H	1.283890	-0.787689	0.721018
O122	O	1.036705	-0.807081	0.287602
C123	C	1.036878	-0.728975	0.288667
H124	H	1.028577	-0.708502	0.365524
H125	H	1.092154	-0.707799	0.260061
C126	C	0.983805	-0.725062	0.130255
C127	C	0.973603	-0.699917	0.224651
H128	H	0.944777	-0.707137	0.090764
H129	H	0.983691	-0.777684	0.129535
H130	H	1.029870	-0.707414	0.106430
H131	H	0.927543	-0.717573	0.248479
H132	H	0.973708	-0.647297	0.225374
H133	H	1.106683	-0.903853	0.626870
