data_functionalizedCrystal
_audit_creation_method	'MofGen! by Chris Wilmer'
_symmetry_space_group_name_H-M	'P1'
_symmetry_Int_Tables_number	1
_symmetry_cell_setting	triclinic
loop_
_symmetry_equiv_pos_as_xyz
  x,y,z
_cell_length_a	12.759401
_cell_length_b	13.897448
_cell_length_c	12.759393
_cell_angle_alpha	89.967728
_cell_angle_beta	89.979062
_cell_angle_gamma	90.019217
loop_
_atom_site_label
_atom_site_type_symbol
_atom_site_fract_x
_atom_site_fract_y
_atom_site_fract_z
Zn1	Zn	1.606245	-0.383929	-0.594007
Zn2	Zn	1.606126	-0.545255	-0.418322
Zn3	Zn	1.430543	-0.383980	-0.418342
Zn4	Zn	1.430526	-0.545188	-0.593959
O5	O	1.518360	-0.464588	-0.506158
O6	O	1.753250	-0.405336	-0.570714
O7	O	1.582793	-0.523912	-0.271303
O8	O	1.453907	-0.248992	-0.441673
O9	O	1.753163	-0.523862	-0.441638
O10	O	1.582994	-0.248954	-0.570734
O11	O	1.453793	-0.405423	-0.271318
O12	O	1.283520	-0.405358	-0.441627
O13	O	1.453878	-0.523747	-0.740987
O14	O	1.283507	-0.523797	-0.570652
O15	O	1.582977	-0.405271	-0.741022
O16	O	1.582776	-0.680228	-0.441592
O17	O	1.453763	-0.680179	-0.570632
C18	C	1.245393	-0.464576	-0.506137
C19	C	1.128616	-0.464595	-0.506153
C20	C	1.073775	-0.526359	-0.573230
C21	C	0.964051	-0.526363	-0.573251
C22	C	0.964019	-0.402834	-0.439108
C23	C	1.073741	-0.402827	-0.439093
C24	C	0.814153	-0.560974	-0.697110
C25	C	0.759308	-0.622754	-0.764179
C26	C	0.794901	-0.716889	-0.780123
C27	C	0.885336	-0.749263	-0.728984
C28	C	0.940175	-0.687488	-0.661908
C29	C	0.904584	-0.593340	-0.645984
C30	C	1.223641	-0.368225	-0.315232
C31	C	1.278482	-0.306455	-0.248150
C32	C	1.242892	-0.212318	-0.232195
C33	C	1.152453	-0.179948	-0.283315
C34	C	1.097612	-0.241718	-0.350397
C35	C	1.133209	-0.335854	-0.366354
C36	C	1.518283	-0.715203	-0.506127
C37	C	1.518347	-0.822416	-0.506149
C38	C	1.518457	-1.018711	-0.506215
C39	C	1.518393	-0.909479	-0.506182
C40	C	1.792393	-0.464601	-0.506179
C41	C	1.909170	-0.464606	-0.506188
C42	C	1.518439	-0.464496	-0.780191
C43	C	1.518472	-0.464456	-0.896968
C44	C	1.518466	-0.212995	-0.506211
C45	C	1.518511	-0.105781	-0.506234
C46	C	1.585699	-0.402756	-0.951850
C47	C	1.585717	-0.402714	-1.061574
C48	C	1.451278	-0.526082	-1.061524
C49	C	1.451255	-0.526118	-0.951802
C50	C	1.623336	-0.288908	-1.211556
C51	C	1.690579	-0.227216	-1.266442
C52	C	1.793093	-0.212425	-1.230851
C53	C	1.828384	-0.259340	-1.140376
C54	C	1.761146	-0.321039	-1.085496
C55	C	1.658618	-0.335812	-1.121085
C56	C	1.413648	-0.639925	-0.801818
C57	C	1.346414	-0.701630	-0.746936
C58	C	1.243899	-0.716431	-0.782525
C59	C	1.208612	-0.669533	-0.873003
C60	C	1.275845	-0.607828	-0.927885
C61	C	1.378359	-0.593026	-0.892289
C62	C	1.518342	-0.464611	-0.233190
C63	C	1.518512	-0.464379	-0.116414
H64	H	1.023976	-0.215351	-0.392030
O65	O	1.108981	-0.683981	-0.907413
C66	C	0.944355	-0.764859	-0.878773
C67	C	1.057152	-0.748558	-0.839676
H68	H	0.902425	-0.817085	-0.824039
H69	H	0.900606	-0.693355	-0.880012
H70	H	0.946557	-0.796256	-0.961269
H71	H	1.055046	-0.717192	-0.757168
H72	H	1.100855	-0.820085	-0.838514
O73	O	1.366328	-0.337757	-0.198371
C74	C	1.506704	-0.298642	-0.079494
C75	C	1.407222	-0.263078	-0.135780
H76	H	1.539808	-0.238276	-0.028893
H77	H	1.486399	-0.362954	-0.027821
H78	H	1.567598	-0.321012	-0.140167
H79	H	1.346283	-0.240656	-0.075180
H80	H	1.427609	-0.198803	-0.187472
H81	H	1.189162	-0.766685	-0.737835
H82	H	1.247106	-0.569642	-1.001558
H83	H	1.539859	-0.300938	-1.240538
O84	O	1.380534	-0.747291	-0.659047
C85	C	1.338001	-0.856514	-0.518579
C86	C	1.299238	-0.804888	-0.618114
H87	H	1.272286	-0.903078	-0.485443
H88	H	1.408095	-0.903844	-0.538831
H89	H	1.362307	-0.800777	-0.457731
H90	H	1.274876	-0.860558	-0.679006
H91	H	1.229184	-0.757541	-0.597780
O92	O	1.386091	-0.585950	-1.114955
C93	C	1.326498	-0.640531	-1.283965
C94	C	1.400392	-0.572694	-1.223590
H95	H	1.338020	-0.629823	-1.371807
H96	H	1.344909	-0.718340	-1.262455
H97	H	1.241797	-0.623603	-1.262320
H98	H	1.485119	-0.589536	-1.245203
H99	H	1.381891	-0.494906	-1.245105
H100	H	0.785172	-0.484319	-0.684145
H101	H	1.847843	-0.162193	-1.275547
H102	H	1.911865	-0.247298	-1.111410
H103	H	1.287548	-0.162028	-0.177562
O104	O	1.127035	-0.586248	-0.638527
C105	C	1.160631	-0.633296	-0.817145
C106	C	1.100272	-0.565400	-0.743312
H107	H	1.138998	-0.616479	-0.901878
H108	H	1.248486	-0.622681	-0.805706
H109	H	1.139038	-0.711051	-0.798499
H110	H	1.121777	-0.487619	-0.761913
H111	H	1.012431	-0.576099	-0.754765
H112	H	1.013805	-0.713847	-0.620271
H113	H	0.914301	-0.825921	-0.741963
H114	H	1.497122	-0.627871	-0.772827
H115	H	1.661836	-0.189018	-1.340107
H116	H	0.750238	-0.767190	-0.834733
H117	H	1.123462	-0.103300	-0.270307
H118	H	0.919326	-0.352547	-0.384509
O119	O	1.650872	-0.342714	-0.898632
C120	C	1.701970	-0.178649	-0.865164
C121	C	1.628083	-0.246541	-0.925474
H122	H	1.683587	-0.100880	-0.886860
H123	H	1.690409	-0.189186	-0.777301
H124	H	1.786677	-0.195633	-0.886737
H125	H	1.543348	-0.229599	-0.903988
H126	H	1.639735	-0.235992	-1.013322
O127	O	0.671537	-0.591370	-0.814030
C128	C	0.586846	-0.561656	-0.979681
C129	C	0.686300	-0.597239	-0.923360
H130	H	0.598756	-0.566370	-1.068083
H131	H	0.517346	-0.608412	-0.955922
H132	H	0.570831	-0.483770	-0.956722
H133	H	0.702412	-0.675111	-0.946290
H134	H	0.755743	-0.550415	-0.947121
O135	O	1.795577	-0.366654	-0.997705
C136	C	1.921101	-0.476775	-0.923431
C137	C	1.882231	-0.425168	-1.022936
H138	H	1.991152	-0.524112	-0.943800
H139	H	1.945467	-0.421109	-0.862529
H140	H	1.855399	-0.523362	-0.890309
H141	H	1.947884	-0.378583	-1.056149
H142	H	1.857832	-0.480884	-1.083770
H143	H	1.252634	-0.444876	-0.328227
