data_functionalizedCrystal
_audit_creation_method	'MofGen! by Chris Wilmer'
_symmetry_space_group_name_H-M	'P1'
_symmetry_Int_Tables_number	1
_symmetry_cell_setting	triclinic
loop_
_symmetry_equiv_pos_as_xyz
  x,y,z
_cell_length_a	22.610064
_cell_length_b	17.699083
_cell_length_c	17.699083
_cell_angle_alpha	96.716985
_cell_angle_beta	89.996827
_cell_angle_gamma	89.997815
loop_
_atom_site_label
_atom_site_type_symbol
_atom_site_fract_x
_atom_site_fract_y
_atom_site_fract_z
O1	O	0.049103	-1.004081	0.095701
O2	O	0.049122	-0.783703	0.108153
O3	O	0.049107	-0.900118	-0.008262
O4	O	0.049118	-0.887666	0.212116
O5	O	-0.049262	-0.900098	-0.008245
O6	O	-0.049247	-0.783682	0.108170
O7	O	-0.049266	-1.004060	0.095718
Zn8	Zn	-0.064875	-0.893868	0.101947
Zn9	Zn	0.064731	-0.893895	0.101924
O10	O	-0.049251	-0.887645	0.212133
C11	C	-0.000060	-0.755495	0.107716
C12	C	-0.000053	-0.671477	0.106377
N13	N	-0.153327	-0.893855	0.101962
C14	C	-0.000078	-0.899662	-0.036451
C15	C	-0.000078	-0.898323	-0.120469
C16	C	-0.561976	-0.945446	0.050384
C17	C	-0.623895	-0.945450	0.050378
O18	O	-0.655920	-0.989282	0.006536
N19	N	-0.654864	-0.893895	0.101909
C20	C	-0.623910	-0.842327	0.153443
O21	O	-0.655938	-0.798475	0.197273
C22	C	-0.561992	-0.842320	0.153444
C23	C	-0.531026	-0.893884	0.101916
C24	C	-0.531010	-0.997005	-0.001142
C25	C	-0.469094	-0.997002	-0.001135
C26	C	-0.438144	-0.945440	0.050397
C27	C	-0.469110	-0.893881	0.101922
C28	C	-0.531038	-0.790749	0.204975
C29	C	-0.469115	-0.790746	0.204971
C30	C	-0.438150	-0.842310	0.153442
C31	C	-0.376245	-0.842315	0.153461
N32	N	-0.345276	-0.893871	0.101930
C33	C	-0.376226	-0.945433	0.050398
C34	C	-0.753944	-0.842344	0.153436
C35	C	-0.815862	-0.842354	0.153439
C36	C	-0.815842	-0.945477	0.050372
C37	C	-0.753924	-0.945470	0.050374
C38	C	-0.722975	-0.893900	0.101905
C39	C	-0.246198	-0.945423	0.050416
C40	C	-0.184277	-0.945417	0.050430
C41	C	-0.184302	-0.842292	0.153493
C42	C	-0.246217	-0.842300	0.153483
C43	C	-0.277164	-0.893869	0.101938
O44	O	-0.344181	-0.798503	0.197279
O45	O	-0.344191	-0.989271	0.006569
N46	N	0.153183	-0.893914	0.101904
C47	C	-0.000083	-1.032268	0.096156
C48	C	-0.000086	-1.116286	0.097494
C49	C	-0.000049	-0.622856	0.174711
C50	C	-0.000057	-0.543913	0.173448
C51	C	-0.000064	-0.513592	0.103852
C52	C	-0.000069	-0.562219	0.035513
C53	C	-0.000065	-0.641161	0.036776
C54	C	-0.000084	-0.243856	0.030418
C55	C	-0.000085	-0.164908	0.029160
C56	C	-0.000075	-0.146608	0.167090
C57	C	-0.000072	-0.225550	0.168353
C58	C	-0.000080	-0.274170	0.100015
C59	C	-0.000073	-0.359769	0.101384
C60	C	-0.000067	-0.427995	0.102481
C61	C	-0.000085	-0.966656	-0.169090
C62	C	-0.000079	-0.965394	-0.248033
C63	C	-0.000071	-0.895798	-0.278354
C64	C	-0.000063	-0.827459	-0.229727
C65	C	-0.000064	-0.828722	-0.150785
C66	C	-0.000058	-0.822364	-0.548090
C67	C	-0.000058	-0.821106	-0.627038
C68	C	-0.000073	-0.959036	-0.645338
C69	C	-0.000074	-0.960299	-0.566396
C70	C	-0.000062	-0.891961	-0.517776
C71	C	-0.000067	-0.893330	-0.432177
C72	C	-0.000071	-0.894427	-0.363951
C73	C	-0.000065	-0.888102	0.240322
C74	C	-0.000061	-0.889440	0.324340
H75	H	-0.159067	-0.987410	0.008469
C76	C	-0.000086	-0.754449	-0.098119
C77	C	-0.000094	-0.693228	-0.141566
C78	C	-0.000119	-0.624794	-0.093078
H79	H	0.034209	-0.751976	-0.066931
H80	H	-0.034403	-0.752023	-0.066949
H81	H	0.034219	-0.695652	-0.172723
H82	H	-0.034387	-0.695675	-0.172753
H83	H	-0.034435	-0.622369	-0.061908
H84	H	0.034177	-0.622330	-0.061892
H85	H	-0.000130	-0.583248	-0.122550
C86	C	-0.000061	-1.042298	-0.136321
C87	C	-0.000049	-1.101870	-0.195801
C88	C	-0.000016	-1.171564	-0.165647
H89	H	-0.034355	-1.045763	-0.105914
H90	H	0.034256	-1.045704	-0.105931
H91	H	-0.034362	-1.098466	-0.226178
H92	H	0.034243	-1.098431	-0.226213
H93	H	0.034302	-1.174969	-0.135257
H94	H	-0.034310	-1.175020	-0.135241
H95	H	-0.000002	-1.211992	-0.205999
C96	C	-0.849371	-0.786290	0.209424
C97	C	-0.809005	-0.741125	0.254539
C98	C	-0.839849	-0.689459	0.306112
H99	H	-0.873529	-0.813364	0.240970
H100	H	-0.873511	-0.754793	0.182255
H101	H	-0.784875	-0.772618	0.281705
H102	H	-0.784845	-0.714034	0.223014
H103	H	-0.863990	-0.657962	0.278943
H104	H	-0.864007	-0.716539	0.337653
H105	H	-0.812467	-0.658804	0.336724
C106	C	-0.150615	-0.786431	0.209473
C107	C	-0.115053	-0.826652	0.255744
C108	C	-0.084005	-0.775213	0.307310
H109	H	-0.177852	-0.755697	0.240237
H110	H	-0.126427	-0.754994	0.182297
H111	H	-0.139239	-0.858075	0.282918
H112	H	-0.087805	-0.857383	0.225001
H113	H	-0.059818	-0.743777	0.280134
H114	H	-0.111247	-0.744482	0.338068
H115	H	-0.059869	-0.802496	0.338706
C116	C	0.000049	-0.093855	0.241313
C117	C	0.050672	-0.107523	0.283205
C118	C	0.050813	-0.058937	0.351575
H119	H	-0.034210	-0.102989	0.269956
H120	H	0.000076	-0.042486	0.230628
H121	H	0.050639	-0.158880	0.293891
H122	H	0.084939	-0.098383	0.254585
H123	H	0.050840	-0.007567	0.340891
H124	H	0.016552	-0.068075	0.380211
H125	H	0.085162	-0.068199	0.380004
H126	H	-0.000080	-1.014680	-0.684934
C127	C	-0.000022	-0.491250	0.247722
C128	C	0.000004	-0.534700	0.308941
C129	C	0.000042	-0.486213	0.377376
H130	H	-0.034319	-0.460059	0.250213
H131	H	0.034293	-0.460083	0.250130
H132	H	-0.034308	-0.565854	0.306534
H133	H	0.034298	-0.565889	0.306474
H134	H	0.034357	-0.455046	0.379784
H135	H	-0.034255	-0.455025	0.379860
H136	H	0.000065	-0.515687	0.418921
H137	H	-0.556242	-0.748761	0.246934
C138	C	-0.279685	-1.001495	-0.005580
C139	C	-0.239303	-1.046654	-0.050684
C140	C	-0.270128	-1.098324	-0.102266
H141	H	-0.303839	-0.974424	-0.037132
H142	H	-0.303827	-1.032995	0.021582
H143	H	-0.215171	-1.015158	-0.077844
H144	H	-0.215147	-1.073742	-0.019153
H145	H	-0.294271	-1.129824	-0.075105
H146	H	-0.294282	-1.071246	-0.133813
H147	H	-0.242735	-1.128975	-0.132871
C148	C	-0.720252	-1.001305	-0.005660
C149	C	-0.684722	-0.961040	-0.051930
C150	C	-0.653702	-1.012439	-0.103575
H151	H	-0.747506	-1.032010	-0.036418
H152	H	-0.696045	-1.032773	0.021455
H153	H	-0.708926	-0.929584	-0.079043
H154	H	-0.657456	-0.930338	-0.021193
H155	H	-0.629495	-1.043908	-0.076459
H156	H	-0.680961	-1.043142	-0.134327
H157	H	-0.629587	-0.985127	-0.134970
H158	H	-0.728748	-0.800351	0.195405
C159	C	0.000036	-1.039564	-0.300855
C160	C	0.050655	-1.042894	-0.346695
C161	C	0.050787	-1.111217	-0.395355
H162	H	-0.034226	-1.042007	-0.332103
H163	H	0.000060	-1.081213	-0.271514
H164	H	0.050625	-1.001257	-0.376034
H165	H	0.084924	-1.040464	-0.315467
H166	H	0.050812	-1.152866	-0.366014
H167	H	0.016524	-1.113654	-0.426598
H168	H	0.085135	-1.113488	-0.426459
H169	H	-0.000053	-0.764429	-0.651721
C170	C	-0.000084	-0.748088	-0.495435
C171	C	-0.000097	-0.686872	-0.538888
C172	C	-0.000132	-0.618435	-0.490405
H173	H	0.034209	-0.745606	-0.464243
H174	H	-0.034402	-0.745667	-0.464268
H175	H	0.034218	-0.689292	-0.570041
H176	H	-0.034388	-0.689329	-0.570078
H177	H	-0.034450	-0.616013	-0.459239
H178	H	0.034162	-0.615961	-0.459215
H179	H	-0.000146	-0.576891	-0.519881
H180	H	-0.556204	-1.038994	-0.043109
H181	H	-0.841053	-0.987461	0.008411
C182	C	-0.000084	-0.751973	-0.262790
C183	C	-0.000103	-0.765490	-0.342331
C184	C	-0.000133	-0.695969	-0.372813
H185	H	0.034212	-0.723791	-0.246180
H186	H	-0.034399	-0.723829	-0.246130
H187	H	0.034209	-0.793622	-0.358984
H188	H	-0.034397	-0.793660	-0.358962
H189	H	-0.034447	-0.667825	-0.356153
H190	H	0.034165	-0.667793	-0.356197
H191	H	-0.000150	-0.705131	-0.426784
H192	H	-0.000063	-0.250232	0.225025
C193	C	-0.435622	-0.734722	0.261009
C194	C	-0.475999	-0.689584	0.306143
C195	C	-0.445168	-0.637976	0.357781
H196	H	-0.411464	-0.703195	0.233914
H197	H	-0.411482	-0.761865	0.292529
H198	H	-0.500128	-0.662444	0.274627
H199	H	-0.500158	-0.721091	0.333255
H200	H	-0.421028	-0.665119	0.389301
H201	H	-0.421011	-0.606455	0.330679
H202	H	-0.472558	-0.607349	0.388415
C203	C	-0.435502	-1.052746	-0.057347
C204	C	-0.400063	-1.012343	-0.103596
C205	C	-0.369153	-1.063617	-0.155485
H206	H	-0.462822	-1.083353	-0.088095
H207	H	-0.411243	-1.084322	-0.030420
H208	H	-0.424320	-0.980780	-0.130520
H209	H	-0.372732	-0.981738	-0.072868
H210	H	-0.344893	-1.095193	-0.128558
H211	H	-0.396477	-1.094222	-0.186228
H212	H	-0.345100	-1.036211	-0.186866
C213	C	-0.279920	-0.786286	0.209308
C214	C	-0.315472	-0.740048	0.169039
C215	C	-0.346529	-0.688440	0.220434
H216	H	-0.252687	-0.755503	0.240025
H217	H	-0.304114	-0.813430	0.240766
H218	H	-0.291280	-0.712906	0.137594
H219	H	-0.342716	-0.770809	0.138325
H220	H	-0.370723	-0.715585	0.251892
H221	H	-0.319292	-0.657663	0.251148
H222	H	-0.370659	-0.657066	0.193119
C223	C	-0.000060	-0.296511	-0.043858
C224	C	-0.000049	-0.253058	-0.105074
C225	C	-0.000020	-0.301541	-0.173511
H226	H	-0.034354	-0.327702	-0.046335
H227	H	0.034257	-0.327679	-0.046283
H228	H	-0.034363	-0.221904	-0.102650
H229	H	0.034242	-0.221869	-0.102622
H230	H	0.034297	-0.332709	-0.175937
H231	H	-0.034315	-0.332729	-0.175981
H232	H	-0.000007	-0.272065	-0.215055
C233	C	-0.000047	-0.529156	-0.039973
C234	C	-0.000032	-0.449615	-0.026456
C235	C	-0.000002	-0.419133	-0.095977
H236	H	-0.034343	-0.545769	-0.068155
H237	H	0.034269	-0.545813	-0.068117
H238	H	-0.034344	-0.432965	0.001675
H239	H	0.034261	-0.432981	0.001714
H240	H	0.034313	-0.435790	-0.124120
H241	H	-0.034299	-0.435751	-0.124154
H242	H	0.000013	-0.365162	-0.086815
H243	H	-0.000043	-0.647537	0.231384
H244	H	-0.000092	-0.140225	-0.027517
H245	H	-0.000068	-0.680748	-0.018868
H246	H	-0.000084	-1.016971	-0.541714
