data_functionalizedCrystal
_audit_creation_method	'MofGen! by Chris Wilmer'
_symmetry_space_group_name_H-M	'P1'
_symmetry_Int_Tables_number	1
_symmetry_cell_setting	triclinic
loop_
_symmetry_equiv_pos_as_xyz
  x,y,z
_cell_length_a	29.839125
_cell_length_b	11.169417
_cell_length_c	11.169416
_cell_angle_alpha	90.011219
_cell_angle_beta	90.002356
_cell_angle_gamma	90.010559
loop_
_atom_site_label
_atom_site_type_symbol
_atom_site_fract_x
_atom_site_fract_y
_atom_site_fract_z
Zn1	Zn	-0.253997	-1.834853	0.478020
Zn2	Zn	0.246003	-1.334853	0.978020
Zn3	Zn	-0.178879	-1.834774	0.678660
Zn4	Zn	0.321121	-1.334774	1.178660
Zn5	Zn	-0.178884	-1.634171	0.477993
Zn6	Zn	0.321116	-1.134171	0.977993
Zn7	Zn	-0.253985	-1.634146	0.678662
Zn8	Zn	0.246015	-1.134146	1.178662
O9	O	-0.216436	-1.734486	0.578334
O10	O	0.283564	-1.234486	1.078334
O11	O	-0.244036	-2.002792	0.504645
O12	O	0.255964	-1.502792	1.004645
O13	O	-0.116013	-1.808142	0.652029
O14	O	0.383987	-1.308142	1.152029
O15	O	-0.188855	-1.660835	0.310047
O16	O	0.311145	-1.160835	0.810047
O17	O	-0.188847	-2.002734	0.652055
O18	O	0.311153	-1.502734	1.152055
O19	O	-0.244040	-1.808275	0.310066
O20	O	0.255960	-1.308275	0.810066
O21	O	-0.116016	-1.660759	0.504600
O22	O	0.383984	-1.160759	1.004600
O23	O	-0.188843	-1.466218	0.504602
O24	O	0.311157	-0.966218	1.004602
O25	O	-0.316854	-1.660792	0.652059
O26	O	0.183146	-1.160792	1.152059
O27	O	-0.244019	-1.466200	0.652033
O28	O	0.255981	-0.966200	1.152033
O29	O	-0.316863	-1.808251	0.504647
O30	O	0.183137	-1.308251	1.004647
O31	O	-0.188835	-1.808117	0.846610
O32	O	0.311165	-1.308117	1.346610
O33	O	-0.244015	-1.660717	0.846612
O34	O	0.255985	-1.160717	1.346612
C35	C	-0.216431	-1.422661	0.578316
C36	C	0.283569	-0.922661	1.078316
C37	C	-0.216439	-1.289261	0.578337
C38	C	0.283561	-0.789261	1.078337
C39	C	-0.216433	-1.734438	0.890158
C40	C	0.283567	-1.234438	1.390158
C41	C	-0.216446	-1.734528	1.023558
C42	C	0.283554	-1.234528	1.523558
C43	C	-0.333615	-1.734527	0.578356
C44	C	0.166385	-1.234527	1.078356
C45	C	-0.383549	-1.734545	0.578366
C46	C	0.116451	-1.234545	1.078366
C47	C	-0.740132	-1.657847	0.654848
C48	C	-0.240132	-1.157847	1.154848
C49	C	-0.552459	-1.657804	0.654986
C50	C	-0.052459	-1.157804	1.154986
O51	O	-0.528190	-1.592474	0.720240
O52	O	-0.028190	-1.092474	1.220240
N53	N	-0.528994	-1.734572	0.578255
N54	N	-0.028994	-1.234572	1.078255
C55	C	-0.552451	-1.811350	0.501478
C56	C	-0.052451	-1.311350	1.001478
O57	O	-0.528187	-1.876637	0.436208
O58	O	-0.028187	-1.376637	0.936208
C59	C	-0.740124	-1.811386	0.501334
C60	C	-0.240124	-1.311386	1.001334
C61	C	-0.763585	-1.734622	0.578079
C62	C	-0.263585	-1.234622	1.078079
C63	C	-0.763594	-1.581088	0.731585
C64	C	-0.263594	-1.081088	1.231585
C65	C	-0.810509	-1.581104	0.731555
C66	C	-0.310509	-1.081104	1.231555
C67	C	-0.833963	-1.657879	0.654786
C68	C	-0.333963	-1.157879	1.154786
C69	C	-0.810501	-1.734638	0.578049
C70	C	-0.310501	-1.234638	1.078049
C71	C	-0.763580	-1.888158	0.424552
C72	C	-0.263580	-1.388158	0.924552
C73	C	-0.810501	-1.888158	0.424521
C74	C	-0.310501	-1.388158	0.924521
C75	C	-0.833962	-1.811394	0.501266
C76	C	-0.333962	-1.311394	1.001266
C77	C	-0.880870	-1.811430	0.501249
C78	C	-0.380870	-1.311430	1.001249
N79	N	-0.904334	-1.734662	0.577981
N80	N	-0.404334	-1.234662	1.077981
C81	C	-0.880881	-1.657886	0.654749
C82	C	-0.380881	-1.157886	1.154749
C83	C	-0.453921	-1.811328	0.501560
C84	C	0.046079	-1.311328	1.001560
C85	C	-0.407003	-1.811320	0.501597
C86	C	0.092997	-1.311320	1.001597
C87	C	-0.407013	-1.657772	0.655104
C88	C	0.092987	-1.157772	1.155104
C89	C	-0.453932	-1.657786	0.655072
C90	C	0.046068	-1.157786	1.155072
C91	C	-0.477385	-1.734560	0.578292
C92	C	0.022615	-1.234560	1.078292
C93	C	-0.979406	-1.657927	0.654679
C94	C	-0.479406	-1.157927	1.154679
C95	C	-1.026326	-1.657953	0.654645
C96	C	-0.526326	-1.157953	1.154645
C97	C	-1.026311	-1.811497	0.501135
C98	C	-0.526311	-1.311497	1.001135
C99	C	-0.979396	-1.811475	0.501173
C100	C	-0.479396	-1.311475	1.001173
C101	C	-0.955945	-1.734680	0.577949
C102	C	-0.455945	-1.234680	1.077949
O103	O	-0.905167	-1.876715	0.436020
O104	O	-0.405167	-1.376715	0.936020
O105	O	-0.905153	-1.592591	0.719991
O106	O	-0.405153	-1.092591	1.219991
C107	C	-0.693216	-1.657831	0.654878
C108	C	-0.193216	-1.157831	1.154878
C109	C	-0.669754	-1.734590	0.578141
C110	C	-0.169754	-1.234590	1.078141
C111	C	-0.693208	-1.811365	0.501372
C112	C	-0.193208	-1.311365	1.001372
C113	C	-0.622837	-1.734582	0.578178
C114	C	-0.122837	-1.234582	1.078178
C115	C	-0.599383	-1.657807	0.654946
C116	C	-0.099383	-1.157807	1.154946
C117	C	-0.622847	-1.581039	0.731678
C118	C	-0.122847	-1.081039	1.231678
C119	C	-0.669763	-1.581055	0.731647
C120	C	-0.169763	-1.081055	1.231647
C121	C	-0.669744	-1.888133	0.424641
C122	C	-0.169744	-1.388133	0.924641
C123	C	-0.622828	-1.888112	0.424679
C124	C	-0.122828	-1.388112	0.924679
C125	C	-0.599375	-1.811336	0.501447
C126	C	-0.099375	-1.311336	1.001447
C127	C	-0.099714	-1.734514	0.578225
C128	C	0.400286	-1.234514	1.078225
C129	C	-0.049780	-1.734728	0.577877
C130	C	0.450220	-1.234728	1.077877
C131	C	-0.216442	-2.047528	0.578353
C132	C	0.283558	-1.547528	1.078353
C133	C	-0.216445	-2.180928	0.578361
C134	C	0.283555	-1.680928	1.078361
C135	C	-0.216450	-1.734566	0.265291
C136	C	0.283550	-1.234566	0.765291
C137	C	-0.216455	-1.734601	0.131891
C138	C	0.283545	-1.234601	0.631891
H139	H	-1.045427	-1.595442	0.717145
H140	H	-0.545427	-1.095442	1.217145
F141	F	-0.738620	-1.969861	0.342866
F142	F	-0.238620	-1.469861	0.842866
F143	F	-0.597878	-1.499333	0.813384
F144	F	-0.097878	-0.999333	1.313384
F145	F	-0.382038	-1.893039	0.419931
F146	F	0.117962	-1.393039	0.919931
H147	H	-0.688861	-1.518545	0.794140
H148	H	-0.188861	-1.018545	1.294140
H149	H	-0.688835	-1.950653	0.362125
H150	H	-0.188835	-1.450653	0.862125
F151	F	-0.478875	-1.893070	0.419858
F152	F	0.021125	-1.393070	0.919858
H153	H	-1.045416	-1.874009	0.438636
H154	H	-0.545416	-1.374009	0.938636
H155	H	-0.960318	-1.595382	0.717187
H156	H	-0.460318	-1.095382	1.217187
H157	H	-0.603730	-1.950634	0.362186
H158	H	-0.103730	-1.450634	0.862186
F159	F	-0.835473	-1.499399	0.813237
F160	F	-0.335473	-0.999399	1.313237
H161	H	-0.960292	-1.873992	0.438689
H162	H	-0.460292	-1.373992	0.938689
F163	F	-0.382044	-1.576063	0.736809
F164	F	0.117956	-1.076063	1.236809
F165	F	-0.738640	-1.499363	0.813298
F166	F	-0.238640	-0.999363	1.313298
F167	F	-0.478898	-1.576082	0.736752
F168	F	0.021102	-1.076082	1.236752
H169	H	-0.829593	-1.950673	0.361990
H170	H	-0.329593	-1.450673	0.861990
