data_functionalizedCrystal
_audit_creation_method	'MofGen! by Chris Wilmer'
_symmetry_space_group_name_H-M	'P1'
_symmetry_Int_Tables_number	1
_symmetry_cell_setting	triclinic
loop_
_symmetry_equiv_pos_as_xyz
  x,y,z
_cell_length_a	27.732025
_cell_length_b	14.519731
_cell_length_c	13.596369
_cell_angle_alpha	90.005210
_cell_angle_beta	89.991454
_cell_angle_gamma	83.161162
loop_
_atom_site_label
_atom_site_type_symbol
_atom_site_fract_x
_atom_site_fract_y
_atom_site_fract_z
O1	O	0.063412	1.222743	0.081756
O2	O	0.563412	1.722743	0.581756
O3	O	0.070863	0.954138	0.081755
O4	O	0.570863	1.454138	0.581755
O5	O	-0.003220	1.096794	0.081785
O6	O	0.496780	1.596794	0.581785
O7	O	0.137495	1.080088	0.081725
O8	O	0.637495	1.580088	0.581725
O9	O	-0.003224	1.096780	-0.081798
O10	O	0.496776	1.596780	0.418202
O11	O	0.070859	0.954124	-0.081828
O12	O	0.570859	1.454124	0.418172
O13	O	0.063408	1.222729	-0.081827
O14	O	0.563408	1.722729	0.418173
Zn15	Zn	0.067133	1.088425	-0.107800
Zn16	Zn	0.567133	1.588425	0.392200
Zn17	Zn	0.067138	1.088443	0.107728
Zn18	Zn	0.567138	1.588443	0.607728
O19	O	0.137491	1.080074	-0.081858
O20	O	0.637491	1.580074	0.418142
C21	C	0.070512	0.919778	-0.000036
C22	C	0.570512	1.419778	0.499964
C23	C	0.069465	0.817416	-0.000035
C24	C	0.569465	1.317416	0.499965
C25	C	-0.021231	1.096439	0.000004
C26	C	0.478769	1.596439	0.500004
C27	C	-0.074891	1.095393	0.000033
C28	C	0.425109	1.595393	0.500033
N29	N	0.067129	1.088419	-0.254892
N30	N	0.567129	1.588419	0.245108
C31	C	-0.458090	1.087967	0.089144
C32	C	0.041910	1.587967	0.589144
C33	C	-0.256412	1.091882	0.089176
C34	C	0.243588	1.591882	0.589176
O35	O	-0.230340	1.092432	0.165013
O36	O	0.269660	1.592432	0.665013
N37	N	-0.231191	1.092364	0.000010
N38	N	0.268809	1.592364	0.500010
C39	C	-0.256392	1.091873	-0.089171
C40	C	0.243608	1.591873	0.410829
O41	O	-0.230313	1.092383	-0.165012
O42	O	0.269687	1.592383	0.334988
C43	C	-0.458070	1.087964	-0.089202
C44	C	0.041930	1.587964	0.410798
C45	C	-0.483288	1.087473	-0.000029
C46	C	0.016712	1.587473	0.499971
C47	C	-0.483309	1.087477	0.178309
C48	C	0.016691	1.587477	0.678309
C49	C	-0.533725	1.086493	0.178301
C50	C	-0.033725	1.586493	0.678301
C51	C	-0.558923	1.085999	0.089127
C52	C	-0.058923	1.585999	0.589127
C53	C	-0.533705	1.086489	-0.000038
C54	C	-0.033705	1.586489	0.499962
C55	C	-0.483271	1.087480	-0.178381
C56	C	0.016729	1.587480	0.321619
C57	C	-0.533694	1.086505	-0.178381
C58	C	-0.033694	1.586505	0.321619
C59	C	-0.558912	1.086014	-0.089209
C60	C	-0.058912	1.586014	0.410791
C61	C	-0.609319	1.085011	-0.089221
C62	C	-0.109319	1.585011	0.410779
N63	N	-0.634540	1.084529	-0.000054
N64	N	-0.134540	1.584529	0.499946
C65	C	-0.609342	1.085023	0.089119
C66	C	-0.109342	1.585023	0.589119
C67	C	-0.150509	1.093924	-0.089149
C68	C	0.349491	1.593924	0.410851
C69	C	-0.100089	1.094899	-0.089141
C70	C	0.399911	1.594899	0.410859
C71	C	-0.100113	1.094910	0.089206
C72	C	0.399887	1.594910	0.589206
C73	C	-0.150532	1.093928	0.089198
C74	C	0.349468	1.593928	0.589198
C75	C	-0.175730	1.093442	0.000018
C76	C	0.324270	1.593442	0.500018
C77	C	-0.715220	1.082956	0.089094
C78	C	-0.215220	1.582956	0.589094
C79	C	-0.765640	1.081968	0.089077
C80	C	-0.265640	1.581968	0.589077
C81	C	-0.765613	1.081962	-0.089269
C82	C	-0.265613	1.581962	0.410731
C83	C	-0.715196	1.082945	-0.089253
C84	C	-0.215196	1.582945	0.410747
C85	C	-0.690001	1.083445	-0.000064
C86	C	-0.190001	1.583445	0.499936
O87	O	-0.635422	1.084471	-0.165018
O88	O	-0.135422	1.584471	0.334982
O89	O	-0.635432	1.084534	0.164949
O90	O	-0.135432	1.584534	0.664949
C91	C	-0.407674	1.088951	0.089153
C92	C	0.092326	1.588951	0.589153
C93	C	-0.382456	1.089441	-0.000012
C94	C	0.117544	1.589441	0.499988
C95	C	-0.407654	1.088947	-0.089185
C96	C	0.092346	1.588947	0.410815
C97	C	-0.332037	1.090416	-0.000004
C98	C	0.167963	1.590416	0.499996
C99	C	-0.306839	1.090910	0.089170
C100	C	0.193161	1.590910	0.589170
C101	C	-0.332060	1.090428	0.178336
C102	C	0.167940	1.590428	0.678336
C103	C	-0.382476	1.089444	0.178327
C104	C	0.117524	1.589444	0.678327
C105	C	-0.382432	1.089429	-0.178352
C106	C	0.117568	1.589429	0.321648
C107	C	-0.332016	1.090412	-0.178336
C108	C	0.167984	1.590412	0.321664
C109	C	-0.306818	1.090906	-0.089162
C110	C	0.193182	1.590906	0.410838
C111	C	0.155501	1.080428	-0.000074
C112	C	0.655501	1.580428	0.499926
C113	C	0.209162	1.081474	-0.000096
C114	C	0.709162	1.581474	0.499904
C115	C	0.063759	1.257090	-0.000034
C116	C	0.563759	1.757090	0.499966
C117	C	0.064805	1.359452	-0.000029
C118	C	0.564805	1.859452	0.499971
C119	C	0.065655	1.442581	-0.000027
C120	C	0.565655	1.942581	0.499973
C121	C	0.066717	1.546871	-0.000030
C122	C	0.566717	2.046871	0.499970
C123	C	0.067560	1.629995	-0.000032
C124	C	0.567560	2.129995	0.499968
C125	C	0.068622	1.734292	-0.000033
C126	C	0.568622	2.234292	0.499967
C127	C	0.067138	1.088442	-0.656183
C128	C	0.567138	1.588442	-0.156183
C129	C	0.067137	1.088433	-0.544531
C130	C	0.567137	1.588433	-0.044531
C131	C	0.067134	1.088431	-0.455541
C132	C	0.567134	1.588431	0.044459
C133	C	0.067132	1.088421	-0.343882
C134	C	0.567132	1.588421	0.156118
N135	N	0.067138	1.088456	0.254819
N136	N	0.567138	1.588456	0.754819
H137	H	-0.786170	1.081565	0.161695
H138	H	-0.286170	1.581565	0.661695
H139	H	-0.402944	1.089029	-0.250970
H140	H	0.097056	1.589029	0.249030
H141	H	-0.462798	1.087882	0.250929
H142	H	0.037202	1.587882	0.750929
O143	O	-0.687995	1.083476	-0.185431
O144	O	-0.187995	1.583476	0.314569
H145	H	-0.660771	1.021048	-0.189709
H146	H	-0.160771	1.521048	0.310291
H147	H	-0.786138	1.081557	-0.161872
H148	H	-0.286138	1.581557	0.338128
O149	O	-0.177679	1.093392	-0.185347
O150	O	0.322321	1.593392	0.314653
H151	H	-0.204894	1.155829	-0.189629
H152	H	0.295106	1.655829	0.310371
O153	O	-0.072932	1.095451	0.185391
O154	O	0.427068	1.595451	0.685391
H155	H	-0.033637	1.096220	0.170406
H156	H	0.466363	1.596220	0.670406
H157	H	-0.311535	1.090824	0.250945
H158	H	0.188465	1.590824	0.750945
H159	H	-0.079560	1.095282	-0.161754
H160	H	0.420440	1.595282	0.338246
H161	H	-0.694712	1.083364	0.161721
H162	H	-0.194712	1.583364	0.661721
H163	H	-0.171062	1.093526	0.161810
H164	H	0.328938	1.593526	0.661810
O165	O	-0.409675	1.088916	0.274504
O166	O	0.090325	1.588916	0.774504
H167	H	-0.428391	1.025585	0.278763
H168	H	0.071609	1.525585	0.778763
H169	H	-0.462748	1.087890	-0.250995
H170	H	0.037252	1.587890	0.249005
O171	O	-0.304819	1.090951	-0.274520
O172	O	0.195181	1.590951	0.225480
H173	H	-0.330817	1.090455	-0.336524
H174	H	0.169183	1.590455	0.163476
O175	O	-0.560872	1.085974	-0.274570
O176	O	-0.060872	1.585974	0.225430
H177	H	-0.534862	1.086471	-0.336568
H178	H	-0.034862	1.586471	0.163432
H179	H	-0.554254	1.086099	0.250914
H180	H	-0.054254	1.586099	0.750914
