data_functionalizedCrystal
_audit_creation_method	'MofGen! by Chris Wilmer'
_symmetry_space_group_name_H-M	'P1'
_symmetry_Int_Tables_number	1
_symmetry_cell_setting	triclinic
loop_
_symmetry_equiv_pos_as_xyz
  x,y,z
_cell_length_a	13.596369
_cell_length_b	14.853567
_cell_length_c	14.853567
_cell_angle_alpha	96.365070
_cell_angle_beta	89.997779
_cell_angle_gamma	89.997993
loop_
_atom_site_label
_atom_site_type_symbol
_atom_site_fract_x
_atom_site_fract_y
_atom_site_fract_z
O1	O	-0.081715	-1.196360	0.117706
O2	O	0.251618	-0.863027	0.451040
O3	O	0.584952	-0.529693	0.784373
O4	O	-0.081731	-0.933900	0.131728
O5	O	0.251602	-0.600567	0.465061
O6	O	0.584936	-0.267234	0.798394
O7	O	-0.081726	-1.072141	-0.006513
O8	O	0.251608	-0.738808	0.326821
O9	O	0.584941	-0.405474	0.660154
O10	O	-0.081720	-1.058119	0.255947
O11	O	0.251613	-0.724786	0.589280
O12	O	0.584946	-0.391453	0.922613
O13	O	0.081857	-1.072139	-0.006521
O14	O	0.415191	-0.738805	0.326812
O15	O	0.748524	-0.405472	0.660145
O16	O	0.081852	-0.933898	0.131719
O17	O	0.415185	-0.600565	0.465052
O18	O	0.748519	-0.267231	0.798386
O19	O	0.081868	-1.196358	0.117698
O20	O	0.415201	-0.863024	0.451031
O21	O	0.748534	-0.529691	0.784364
Zn22	Zn	0.107832	-1.065128	0.124707
Zn23	Zn	0.441166	-0.731794	0.458040
Zn24	Zn	0.774499	-0.398461	0.791374
Zn25	Zn	-0.107695	-1.065131	0.124718
Zn26	Zn	0.225638	-0.731797	0.458052
Zn27	Zn	0.558971	-0.398464	0.791385
O28	O	0.081862	-1.058117	0.255938
O29	O	0.415196	-0.724784	0.589271
O30	O	0.748529	-0.391451	0.922605
C31	C	0.000058	-0.900311	0.131088
C32	C	0.333392	-0.566977	0.464421
C33	C	0.666725	-0.233644	0.797755
C34	C	0.000052	-0.800227	0.129184
C35	C	0.333385	-0.466894	0.462518
C36	C	0.666719	-0.133560	0.795851
N37	N	-0.254787	-1.065133	0.124720
N38	N	0.078546	-0.731800	0.458053
N39	N	0.411880	-0.398466	0.791386
C40	C	0.000063	-1.071504	-0.040106
C41	C	0.333396	-0.738171	0.293228
C42	C	0.666730	-0.404838	0.626561
C43	C	0.000054	-1.069601	-0.140189
C44	C	0.333388	-0.736267	0.193144
C45	C	0.666721	-0.402934	0.526477
C46	C	-0.656078	-1.065128	0.124710
C47	C	-0.322745	-0.731795	0.458043
C48	C	0.010589	-0.398462	0.791377
C49	C	-0.544427	-1.065127	0.124715
C50	C	-0.211093	-0.731793	0.458049
C51	C	0.122240	-0.398460	0.791382
C52	C	-0.455436	-1.065130	0.124714
C53	C	-0.122103	-0.731797	0.458048
C54	C	0.211230	-0.398463	0.791381
C55	C	-0.343778	-1.065130	0.124721
C56	C	-0.010444	-0.731796	0.458054
C57	C	0.322889	-0.398463	0.791387
N58	N	0.254924	-1.065132	0.124699
N59	N	0.588257	-0.731799	0.458032
N60	N	0.921591	-0.398465	0.791365
C61	C	0.000076	-1.229947	0.118337
C62	C	0.333410	-0.896614	0.451671
C63	C	0.666743	-0.563281	0.785004
C64	C	0.000076	-1.330031	0.120241
C65	C	0.333410	-0.996698	0.453575
C66	C	0.666743	-0.663365	0.786908
C67	C	0.000072	-0.387693	0.039019
C68	C	0.333406	-0.054360	0.372352
C69	C	0.666739	0.278974	0.705685
C70	C	0.000074	-0.366412	0.203251
C71	C	0.333408	-0.033079	0.536585
C72	C	0.666741	0.300255	0.869918
C73	C	0.000071	-0.460446	0.205041
C74	C	0.333405	-0.127112	0.538375
C75	C	0.666738	0.206221	0.871708
C76	C	0.000067	-0.518108	0.123819
C77	C	0.333401	-0.184774	0.457152
C78	C	0.666734	0.148559	0.790486
C79	C	0.000066	-0.481736	0.040806
C80	C	0.333399	-0.148402	0.374140
C81	C	0.666733	0.184931	0.707473
C82	C	0.000062	-0.496825	0.288053
C83	C	0.333396	-0.163492	0.621386
C84	C	0.666729	0.169842	0.954719
C85	C	0.000058	-0.590864	0.289846
C86	C	0.333391	-0.257531	0.623180
C87	C	0.666725	0.075803	0.956513
C88	C	0.000061	-0.648528	0.208623
C89	C	0.333394	-0.315194	0.541956
C90	C	0.666728	0.018139	0.875289
C91	C	0.000061	-0.612150	0.125607
C92	C	0.333394	-0.278817	0.458940
C93	C	0.666728	0.054516	0.792273
C94	C	0.000057	-0.669812	0.044384
C95	C	0.333390	-0.336479	0.377717
C96	C	0.666724	-0.003146	0.711051
C97	C	0.000064	-0.633437	-0.038633
C98	C	0.333397	-0.300104	0.294700
C99	C	0.666731	0.033230	0.628034
C100	C	0.000069	-0.539399	-0.040417
C101	C	0.333402	-0.206066	0.292916
C102	C	0.666736	0.127267	0.626249
C103	C	0.000056	-0.742565	0.210407
C104	C	0.333389	-0.409232	0.543740
C105	C	0.666723	-0.075898	0.877074
C106	C	0.000051	-0.763855	0.046172
C107	C	0.333384	-0.430522	0.379505
C108	C	0.666718	-0.097188	0.712838
C109	C	0.000068	-0.979435	-0.552723
C110	C	0.333401	-0.646102	-0.219390
C111	C	0.666734	-0.312768	0.113943
C112	C	0.000077	-1.143668	-0.574004
C113	C	0.333411	-0.810334	-0.240671
C114	C	0.666744	-0.477001	0.092662
C115	C	0.000072	-1.145458	-0.479971
C116	C	0.333405	-0.812124	-0.146637
C117	C	0.666738	-0.478791	0.186696
C118	C	0.000066	-1.064235	-0.422309
C119	C	0.333399	-0.730902	-0.088975
C120	C	0.666732	-0.397569	0.244358
C121	C	0.000065	-0.981223	-0.458680
C122	C	0.333398	-0.647889	-0.125347
C123	C	0.666732	-0.314556	0.207986
C124	C	0.000082	-1.228469	-0.443591
C125	C	0.333416	-0.895136	-0.110258
C126	C	0.666749	-0.561802	0.223075
C127	C	0.000078	-1.230262	-0.349552
C128	C	0.333411	-0.896929	-0.016219
C129	C	0.666744	-0.563596	0.317114
C130	C	0.000064	-1.149039	-0.291889
C131	C	0.333398	-0.815706	0.041445
C132	C	0.666731	-0.482372	0.374778
C133	C	0.000063	-1.066023	-0.328266
C134	C	0.333396	-0.732690	0.005067
C135	C	0.666729	-0.399356	0.338401
C136	C	0.000056	-0.984800	-0.270604
C137	C	0.333390	-0.651467	0.062729
C138	C	0.666723	-0.318134	0.396063
C139	C	0.000048	-0.901783	-0.306979
C140	C	0.333381	-0.568450	0.026354
C141	C	0.666714	-0.235117	0.359687
C142	C	0.000052	-0.899999	-0.401017
C143	C	0.333385	-0.566666	-0.067683
C144	C	0.666718	-0.233332	0.265650
C145	C	0.000061	-1.150823	-0.197851
C146	C	0.333394	-0.817490	0.135482
C147	C	0.666727	-0.484157	0.468815
C148	C	0.000054	-0.986588	-0.176561
C149	C	0.333387	-0.653255	0.156772
C150	C	0.666720	-0.319921	0.490105
C151	C	0.000072	-1.058754	0.289531
C152	C	0.333405	-0.725420	0.622865
C153	C	0.666738	-0.392087	0.956198
C154	C	0.000074	-1.060657	0.389615
C155	C	0.333407	-0.727324	0.722948
C156	C	0.666741	-0.393991	1.056282
H157	H	0.000051	-0.810798	-0.019971
H158	H	0.333385	-0.477465	0.313362
H159	H	0.666718	-0.144131	0.646696
Br160	Br	0.000075	-0.490027	-0.153073
Br161	Br	0.333409	-0.156694	0.180260
Br162	Br	0.666742	0.176640	0.513594
H163	H	0.000052	-0.772178	0.277998
H164	H	0.333385	-0.438844	0.611331
H165	H	0.666719	-0.105511	0.944665
Br166	Br	0.000049	-0.640223	0.402509
Br167	Br	0.333382	-0.306890	0.735842
Br168	Br	0.666715	0.026444	1.069175
Br169	Br	0.000033	-0.787343	-0.450389
Br170	Br	0.333367	-0.454010	-0.117056
Br171	Br	0.666700	-0.120677	0.216277
H172	H	0.000082	-0.358072	-0.028572
H173	H	0.333415	-0.024738	0.304761
H174	H	0.666748	0.308595	0.638095
Br175	Br	0.000047	-0.711703	-0.148859
Br176	Br	0.333380	-0.378369	0.184474
Br177	Br	0.666713	-0.045036	0.517807
H178	H	0.000044	-0.920445	-0.129618
H179	H	0.333378	-0.587112	0.203715
H180	H	0.666711	-0.253779	0.537049
H181	H	0.000056	-0.449870	0.354180
H182	H	0.333389	-0.116537	0.687513
H183	H	0.666722	0.216796	1.020846
Br184	Br	0.000052	-0.791557	-0.228714
Br185	Br	0.333385	-0.458224	0.104620
Br186	Br	0.666718	-0.124890	0.437953
Br187	Br	0.000062	-0.288157	0.313477
Br188	Br	0.333395	0.045176	0.646810
Br189	Br	0.666729	0.378509	0.980143
Br190	Br	0.000096	-1.263479	-0.148487
Br191	Br	0.333429	-0.930146	0.184847
Br192	Br	0.666763	-0.596812	0.518180
Br193	Br	0.000042	-0.866774	-0.602086
Br194	Br	0.333375	-0.533441	-0.268752
Br195	Br	0.666709	-0.200107	0.064581
Br196	Br	0.000118	-1.338693	-0.521849
Br197	Br	0.333451	-1.005359	-0.188515
Br198	Br	0.666784	-0.672026	0.144818
Br199	Br	0.000075	-1.342925	-0.300193
Br200	Br	0.333408	-1.009592	0.033140
Br201	Br	0.666741	-0.676258	0.366473
H202	H	0.000090	-1.209795	-0.620958
H203	H	0.333424	-0.876462	-0.287624
H204	H	0.666757	-0.543129	0.045709
