data_functionalizedCrystal
_audit_creation_method	'MofGen! by Chris Wilmer'
_symmetry_space_group_name_H-M	'P1'
_symmetry_Int_Tables_number	1
_symmetry_cell_setting	triclinic
loop_
_symmetry_equiv_pos_as_xyz
  x,y,z
_cell_length_a	17.640280
_cell_length_b	12.759401
_cell_length_c	12.759393
_cell_angle_alpha	90.020566
_cell_angle_beta	78.768965
_cell_angle_gamma	101.201026
loop_
_atom_site_label
_atom_site_type_symbol
_atom_site_fract_x
_atom_site_fract_y
_atom_site_fract_z
Zn1	Zn	-0.314671	-1.690838	-0.509531
Zn2	Zn	-0.446866	-1.726258	-0.298362
Zn3	Zn	-0.314705	-1.515146	-0.333858
Zn4	Zn	-0.446803	-1.550641	-0.474017
O5	O	-0.380761	-1.620721	-0.403942
O6	O	-0.332219	-1.842561	-0.481527
O7	O	-0.429375	-1.698222	-0.156038
O8	O	-0.204093	-1.508774	-0.386880
O9	O	-0.429342	-1.868584	-0.326381
O10	O	-0.204068	-1.637854	-0.515946
O11	O	-0.332277	-1.543119	-0.182118
O12	O	-0.332216	-1.372830	-0.352443
O13	O	-0.429234	-1.569270	-0.625760
O14	O	-0.429268	-1.398908	-0.455417
O15	O	-0.332158	-1.672272	-0.651852
O16	O	-0.557465	-1.732640	-0.291944
O17	O	-0.557418	-1.603615	-0.420997
C18	C	-0.380740	-1.347748	-0.403929
C19	C	-0.380749	-1.230974	-0.403943
C20	C	-0.330267	-1.162586	-0.484806
C21	C	-0.330272	-1.052864	-0.484810
C22	C	-0.431248	-1.079927	-0.323083
C23	C	-0.431239	-1.189647	-0.323076
C24	C	-0.586121	-1.675851	-0.348788
C25	C	-0.673974	-1.699533	-0.325228
C26	C	-0.962931	-1.441248	-0.583307
C27	C	-1.045483	-1.463502	-0.561135
C28	C	-1.045466	-1.597940	-0.426888
C29	C	-0.962912	-1.575701	-0.449052
C30	C	-0.921652	-1.497353	-0.527262
C31	C	-0.921633	-1.631805	-0.393007
C32	C	-0.839086	-1.609564	-0.415165
C33	C	-0.797820	-1.531217	-0.493369
C34	C	-0.839105	-1.475111	-0.549420
C35	C	-0.962895	-1.710147	-0.314792
C36	C	-0.921615	-1.766252	-0.258747
C37	C	-0.839067	-1.744016	-0.280911
C38	C	-0.797801	-1.665670	-0.359114
C39	C	-0.797782	-1.800122	-0.224860
C40	C	-0.715235	-1.777880	-0.247018
C41	C	-0.715254	-1.643428	-0.381273
C42	C	-0.174600	-1.565404	-0.459334
C43	C	-0.086746	-1.541831	-0.482939
C44	C	-0.380685	-1.620779	-0.677996
C45	C	-0.380653	-1.620804	-0.794781
C46	C	-0.380776	-0.894758	-0.403954
C47	C	-0.380764	-1.011531	-0.403954
C48	C	-0.330097	-1.674440	-0.863233
C49	C	-0.330063	-1.674449	-0.972967
C50	C	-0.431148	-1.567184	-0.945784
C51	C	-0.431177	-1.567169	-0.836054
C52	C	-0.380780	-1.620708	-0.130970
C53	C	-0.380589	-1.620827	-0.014245
H54	H	-0.289163	-0.997186	-0.550655
H55	H	-0.929335	-1.377457	-0.647001
Br56	Br	-0.499767	-1.023833	-0.213342
H57	H	-0.805509	-1.411320	-0.613114
Br58	Br	-0.261527	-1.747226	-0.807223
H59	H	-1.079090	-1.417822	-0.606792
H60	H	-0.288894	-1.718122	-1.028697
Br61	Br	-1.074924	-1.740373	-0.284759
Br62	Br	-0.499787	-1.494361	-0.743148
Br63	Br	-0.977619	-1.872578	-0.152610
H64	H	-0.831389	-1.863905	-0.161174
H65	H	-0.289153	-1.196230	-0.550650
H66	H	-0.472284	-1.523519	-0.979402
H67	H	-0.472348	-1.245331	-0.257222
H68	H	-0.730605	-1.513102	-0.511402
Br69	Br	-0.659249	-1.537111	-0.487430
H70	H	-0.681625	-1.823566	-0.201379
H71	H	-1.079072	-1.661728	-0.363207
