data_functionalizedCrystal
_audit_creation_method	'MofGen! by Chris Wilmer'
_symmetry_space_group_name_H-M	'P1'
_symmetry_Int_Tables_number	1
_symmetry_cell_setting	triclinic
loop_
_symmetry_equiv_pos_as_xyz
  x,y,z
_cell_length_a	17.699083
_cell_length_b	22.010155
_cell_length_c	17.699092
_cell_angle_alpha	89.994071
_cell_angle_beta	96.715309
_cell_angle_gamma	89.998015
loop_
_atom_site_label
_atom_site_type_symbol
_atom_site_fract_x
_atom_site_fract_y
_atom_site_fract_z
O1	O	-1.004084	0.050432	0.095700
O2	O	-0.670751	0.383765	0.429034
O3	O	-0.337418	0.717098	0.762367
O4	O	-0.783706	0.050453	0.108153
O5	O	-0.450373	0.383786	0.441486
O6	O	-0.117039	0.717119	0.774819
O7	O	-0.900118	0.050440	-0.008262
O8	O	-0.566785	0.383773	0.325071
O9	O	-0.233451	0.717107	0.658404
O10	O	-0.887672	0.050444	0.212115
O11	O	-0.554339	0.383777	0.545449
O12	O	-0.221006	0.717111	0.878782
O13	O	-0.900097	-0.050610	-0.008245
O14	O	-0.566764	0.282723	0.325089
O15	O	-0.233430	0.616056	0.658422
O16	O	-0.783685	-0.050598	0.108170
O17	O	-0.450352	0.282736	0.441504
O18	O	-0.117018	0.616069	0.774837
O19	O	-1.004063	-0.050619	0.095718
O20	O	-0.670730	0.282715	0.429051
O21	O	-0.337396	0.616048	0.762384
Cu22	Cu	-0.893872	-0.059835	0.101946
Cu23	Cu	-0.560539	0.273498	0.435279
Cu24	Cu	-0.227205	0.606832	0.768612
Cu25	Cu	-0.893897	0.059669	0.101925
Cu26	Cu	-0.560564	0.393002	0.435258
Cu27	Cu	-0.227230	0.726335	0.768592
O28	O	-0.887651	-0.050606	0.212133
O29	O	-0.554318	0.282727	0.545466
O30	O	-0.220984	0.616060	0.878799
C31	C	-0.755499	-0.000070	0.107715
C32	C	-0.422165	0.333263	0.441049
C33	C	-0.088832	0.666597	0.774382
C34	C	-0.671480	-0.000062	0.106377
C35	C	-0.338147	0.333271	0.439710
C36	C	-0.004814	0.666605	0.773043
N37	N	-0.893860	-0.143887	0.101960
N38	N	-0.560527	0.189446	0.435293
N39	N	-0.227193	0.522779	0.768626
C40	C	-0.622862	-0.000061	0.174710
C41	C	-0.289528	0.333273	0.508043
C42	C	0.043805	0.666606	0.841376
C43	C	-0.543918	-0.000068	0.173448
C44	C	-0.210585	0.333265	0.506781
C45	C	0.122749	0.666599	0.840114
C46	C	-0.513595	-0.000072	0.103851
C47	C	-0.180262	0.333261	0.437185
C48	C	0.153071	0.666594	0.770518
C49	C	-0.562220	-0.000075	0.035513
C50	C	-0.228887	0.333258	0.368846
C51	C	0.104446	0.666591	0.702180
C52	C	-0.641162	-0.000072	0.036776
C53	C	-0.307829	0.333261	0.370109
C54	C	0.025504	0.666594	0.703443
C55	C	-0.243857	-0.000089	0.030418
C56	C	0.089476	0.333245	0.363751
C57	C	0.422809	0.666578	0.697084
C58	C	-0.164909	-0.000090	0.029160
C59	C	0.168424	0.333243	0.362493
C60	C	0.501757	0.666577	0.695827
C61	C	-0.146613	-0.000084	0.167089
C62	C	0.186720	0.333249	0.500423
C63	C	0.520054	0.666582	0.833756
C64	C	-0.225555	-0.000081	0.168352
C65	C	0.107778	0.333252	0.501686
C66	C	0.441112	0.666586	0.835019
C67	C	-0.274173	-0.000087	0.100014
C68	C	0.059160	0.333246	0.433348
C69	C	0.392494	0.666579	0.766681
C70	C	-0.359772	-0.000081	0.101384
C71	C	-0.026439	0.333253	0.434717
C72	C	0.306894	0.666586	0.768051
C73	C	-0.427998	-0.000075	0.102481
C74	C	-0.094664	0.333258	0.435814
C75	C	0.238669	0.666592	0.769148
C76	C	-0.945447	-0.563672	0.050384
C77	C	-0.612114	-0.230339	0.383717
C78	C	-0.278781	0.102994	0.717050
C79	C	-0.945451	-0.627280	0.050379
C80	C	-0.612117	-0.293947	0.383712
C81	C	-0.278784	0.039387	0.717045
O82	O	-0.989282	-0.660176	0.006537
O83	O	-0.655948	-0.326843	0.339870
O84	O	-0.322615	0.006491	0.673203
N85	N	-0.893897	-0.659095	0.101909
N86	N	-0.560563	-0.325761	0.435242
N87	N	-0.227230	0.007572	0.768576
C88	C	-0.842330	-0.627298	0.153443
C89	C	-0.508997	-0.293965	0.486776
C90	C	-0.175664	0.039368	0.820110
O91	O	-0.798479	-0.660200	0.197273
O92	O	-0.465146	-0.326866	0.530606
O93	O	-0.131813	0.006467	0.863940
C94	C	-0.842324	-0.563692	0.153444
C95	C	-0.508991	-0.230358	0.486777
C96	C	-0.175657	0.102975	0.820111
C97	C	-0.893887	-0.531880	0.101915
C98	C	-0.560553	-0.198547	0.435249
C99	C	-0.227220	0.134786	0.768582
C100	C	-0.997005	-0.531861	-0.001142
C101	C	-0.663672	-0.198528	0.332192
C102	C	-0.330339	0.134806	0.665525
C103	C	-0.997002	-0.468258	-0.001135
C104	C	-0.663669	-0.134924	0.332198
C105	C	-0.330336	0.198409	0.665532
C106	C	-0.945442	-0.436466	0.050396
C107	C	-0.612108	-0.103133	0.383730
C108	C	-0.278775	0.230201	0.717063
C109	C	-0.893884	-0.468277	0.101922
C110	C	-0.560551	-0.134944	0.435255
C111	C	-0.227217	0.198389	0.768588
C112	C	-0.790755	-0.531897	0.204974
C113	C	-0.457421	-0.198563	0.538307
C114	C	-0.124088	0.134770	0.871641
C115	C	-0.790752	-0.468286	0.204970
C116	C	-0.457419	-0.134953	0.538303
C117	C	-0.124086	0.198381	0.871637
C118	C	-0.842315	-0.436475	0.153441
C119	C	-0.508982	-0.103141	0.486775
C120	C	-0.175648	0.230192	0.820108
C121	C	-0.842320	-0.372882	0.153460
C122	C	-0.508987	-0.039549	0.486793
C123	C	-0.175654	0.293784	0.820126
N124	N	-0.893875	-0.341068	0.101929
N125	N	-0.560541	-0.007734	0.435262
N126	N	-0.227208	0.325599	0.768596
C127	C	-0.945435	-0.372859	0.050397
C128	C	-0.612102	-0.039526	0.383731
C129	C	-0.278769	0.293807	0.717064
C130	C	-0.842347	-0.760876	0.153436
C131	C	-0.509014	-0.427543	0.486770
C132	C	-0.175681	-0.094209	0.820103
C133	C	-0.842357	-0.824481	0.153440
C134	C	-0.509023	-0.491148	0.486773
C135	C	-0.175690	-0.157815	0.820106
C136	C	-0.945476	-0.824459	0.050374
C137	C	-0.612143	-0.491125	0.383707
C138	C	-0.278810	-0.157792	0.717040
C139	C	-0.945470	-0.760852	0.050375
C140	C	-0.612137	-0.427519	0.383708
C141	C	-0.278803	-0.094185	0.717041
C142	C	-0.893901	-0.729061	0.101906
C143	C	-0.560568	-0.395728	0.435239
C144	C	-0.227235	-0.062395	0.768572
C145	C	-0.945426	-0.239288	0.050415
C146	C	-0.612093	0.094045	0.383748
C147	C	-0.278759	0.427379	0.717082
C148	C	-0.945421	-0.175679	0.050428
C149	C	-0.612087	0.157654	0.383761
C150	C	-0.278754	0.490987	0.717095
C151	C	-0.842299	-0.175708	0.153491
C152	C	-0.508965	0.157626	0.486824
C153	C	-0.175632	0.490959	0.820157
C154	C	-0.842306	-0.239311	0.153481
C155	C	-0.508973	0.094023	0.486814
C156	C	-0.175640	0.427356	0.820147
C157	C	-0.893873	-0.271100	0.101937
C158	C	-0.560540	0.062234	0.435270
C159	C	-0.227206	0.395567	0.768603
O160	O	-0.798510	-0.339946	0.197277
O161	O	-0.465176	-0.006612	0.530610
O162	O	-0.131843	0.326721	0.863944
O163	O	-0.989272	-0.339950	0.006568
O164	O	-0.655939	-0.006617	0.339902
O165	O	-0.322606	0.326716	0.673235
C166	C	-0.032271	-0.000093	0.096155
C167	C	0.301063	0.333240	0.429489
C168	C	0.634396	0.666573	0.762822
C169	C	-0.116289	-0.000093	0.097494
C170	C	0.217045	0.333240	0.430827
C171	C	0.550378	0.666574	0.764161
C172	C	-0.899661	-0.000084	-0.036450
C173	C	-0.566327	0.333249	0.296883
C174	C	-0.232994	0.666583	0.630216
C175	C	-0.898319	-0.000081	-0.120468
C176	C	-0.564986	0.333252	0.212865
C177	C	-0.231653	0.666586	0.546199
N178	N	-0.893915	0.143721	0.101905
N179	N	-0.560582	0.477055	0.435238
N180	N	-0.227248	0.810388	0.768572
C181	C	-0.897703	0.055002	-0.159945
C182	C	-0.564369	0.388335	0.173388
C183	C	-0.231036	0.721669	0.506722
C184	C	-0.896438	0.055003	-0.238888
C185	C	-0.563104	0.388336	0.094445
C186	C	-0.229771	0.721670	0.427779
C187	C	-0.895795	-0.000080	-0.278353
C188	C	-0.562462	0.333253	0.054980
C189	C	-0.229128	0.666587	0.388313
C190	C	-0.896410	-0.055168	-0.238871
C191	C	-0.563076	0.278166	0.094463
C192	C	-0.229743	0.611499	0.427796
C193	C	-0.897669	-0.055168	-0.159928
C194	C	-0.564336	0.278165	0.173405
C195	C	-0.231002	0.611499	0.506738
C196	C	-0.891329	-0.055168	-0.557236
C197	C	-0.557996	0.278165	-0.223902
C198	C	-0.224663	0.611499	0.109431
C199	C	-0.890072	-0.055164	-0.636184
C200	C	-0.556739	0.278170	-0.302850
C201	C	-0.223405	0.611503	0.030483
C202	C	-0.890098	0.055003	-0.636195
C203	C	-0.556765	0.388336	-0.302862
C204	C	-0.223431	0.721669	0.030471
C205	C	-0.891357	0.055003	-0.557253
C206	C	-0.558024	0.388336	-0.223920
C207	C	-0.224691	0.721669	0.109414
C208	C	-0.891968	-0.000085	-0.517777
C209	C	-0.558634	0.333249	-0.184443
C210	C	-0.225301	0.666582	0.148890
C211	C	-0.893338	-0.000085	-0.432178
C212	C	-0.560005	0.333249	-0.098844
C213	C	-0.226671	0.666582	0.234489
C214	C	-0.894430	-0.000080	-0.363952
C215	C	-0.561097	0.333253	-0.030618
C216	C	-0.227764	0.666586	0.302715
C217	C	-0.888109	-0.000081	0.240321
C218	C	-0.554775	0.333253	0.573654
C219	C	-0.221442	0.666586	0.906988
C220	C	-0.889450	-0.000080	0.324339
C221	C	-0.556116	0.333254	0.657672
C222	C	-0.222783	0.666587	0.991005
H223	H	-0.647544	-0.000057	0.231383
H224	H	-0.314210	0.333277	0.564716
H225	H	0.019123	0.666610	0.898050
Br226	Br	-0.895600	0.129762	-0.292461
Br227	Br	-0.562266	0.463096	0.040872
Br228	Br	-0.228933	0.796429	0.374205
H229	H	-0.748768	-0.557789	0.246933
H230	H	-0.415434	-0.224455	0.580266
H231	H	-0.082101	0.108878	0.913599
Br232	Br	-0.898502	-0.129927	-0.106351
Br233	Br	-0.565169	0.203407	0.226983
Br234	Br	-0.231835	0.536740	0.560316
Br235	Br	-0.772336	-0.282482	0.223425
Br236	Br	-0.439003	0.050852	0.556758
Br237	Br	-0.105670	0.384185	0.890091
Br238	Br	-0.889201	-0.129924	-0.689744
Br239	Br	-0.555867	0.203409	-0.356411
Br240	Br	-0.222534	0.536742	-0.023077
H241	H	-0.987415	-0.265163	0.008442
H242	H	-0.654082	0.068170	0.341775
H243	H	-0.320749	0.401503	0.675109
H244	H	-1.038987	-0.442361	-0.043096
H245	H	-0.705654	-0.109027	0.290237
H246	H	-0.372320	0.224306	0.623570
Br247	Br	-0.892236	0.129761	-0.503698
Br248	Br	-0.558903	0.463094	-0.170364
Br249	Br	-0.225569	0.796427	0.162969
H250	H	-0.800321	-0.149813	0.195449
H251	H	-0.466987	0.183521	0.528783
H252	H	-0.133654	0.516854	0.862116
H253	H	-1.038992	-0.557740	-0.043108
H254	H	-0.705659	-0.224407	0.290225
H255	H	-0.372325	0.108926	0.623559
H256	H	-0.898230	0.099857	-0.127819
H257	H	-0.564897	0.433191	0.205515
H258	H	-0.231563	0.766524	0.538848
Br259	Br	-0.892142	-0.129929	-0.503668
Br260	Br	-0.558809	0.203404	-0.170335
Br261	Br	-0.225475	0.536737	0.162998
Br262	Br	-0.720759	-0.425146	0.274906
Br263	Br	-0.387426	-0.091812	0.608240
Br264	Br	-0.054092	0.241521	0.941573
H265	H	-0.504335	-0.000066	0.229091
H266	H	-0.171002	0.333267	0.562425
H267	H	0.162331	0.666601	0.895758
H268	H	-0.250239	-0.000075	0.225025
H269	H	0.083094	0.333259	0.558358
H270	H	0.416428	0.666592	0.891691
Br271	Br	-0.889269	0.129766	-0.689774
Br272	Br	-0.555936	0.463099	-0.356441
Br273	Br	-0.222603	0.796432	-0.023108
H274	H	-0.895882	-0.100017	-0.271009
H275	H	-0.562548	0.233316	0.062324
H276	H	-0.229215	0.566649	0.395658
H277	H	-0.537525	-0.000088	-0.021154
H278	H	-0.204192	0.333246	0.312180
H279	H	0.129141	0.666579	0.645513
H280	H	-0.987412	-0.149780	0.008467
H281	H	-0.654079	0.183553	0.341800
H282	H	-0.320745	0.516886	0.675134
H283	H	-0.140224	-0.000094	-0.027517
H284	H	0.193109	0.333239	0.305816
H285	H	0.526443	0.666572	0.639150
Br286	Br	-0.309829	-0.000099	-0.062327
Br287	Br	0.023504	0.333235	0.271006
Br288	Br	0.356837	0.666568	0.604340
Br289	Br	-0.080627	-0.000076	0.259836
Br290	Br	0.252706	0.333257	0.593169
Br291	Br	0.586040	0.666590	0.926502
H292	H	-0.800378	-0.850378	0.195407
H293	H	-0.467044	-0.517044	0.528740
H294	H	-0.133711	-0.183711	0.862074
H295	H	-0.987456	-0.734955	0.008415
H296	H	-0.654123	-0.401622	0.341749
H297	H	-0.320789	-0.068288	0.675082
Br298	Br	-1.015452	-0.867618	-0.019562
Br299	Br	-0.682118	-0.534285	0.313771
Br300	Br	-0.348785	-0.200952	0.647105
Br301	Br	-0.707147	-0.000079	-0.055965
Br302	Br	-0.373813	0.333254	0.277368
Br303	Br	-0.040480	0.666587	0.610701
Br304	Br	-0.772360	-0.717737	0.223383
Br305	Br	-0.439026	-0.384404	0.556716
Br306	Br	-0.105693	-0.051071	0.890049
