data_functionalizedCrystal
_audit_creation_method	'MofGen! by Chris Wilmer'
_symmetry_space_group_name_H-M	'P1'
_symmetry_Int_Tables_number	1
_symmetry_cell_setting	triclinic
loop_
_symmetry_equiv_pos_as_xyz
  x,y,z
_cell_length_a	14.519709
_cell_length_b	10.489741
_cell_length_c	13.596369
_cell_angle_alpha	90.005694
_cell_angle_beta	89.999709
_cell_angle_gamma	84.109659
loop_
_atom_site_label
_atom_site_type_symbol
_atom_site_fract_x
_atom_site_fract_y
_atom_site_fract_z
O1	O	-1.224779	-0.167203	-0.081663
O2	O	-0.724779	0.332797	0.418337
O3	O	-0.956410	-0.186894	-0.081693
O4	O	-0.456410	0.313106	0.418307
O5	O	-1.096701	0.008613	-0.081671
O6	O	-0.596701	0.508613	0.418329
O7	O	-1.084488	-0.362710	-0.081684
O8	O	-0.584488	0.137290	0.418316
O9	O	-1.096687	0.008623	0.081912
O10	O	-0.596687	0.508623	0.581912
O11	O	-0.956396	-0.186883	0.081890
O12	O	-0.456396	0.313117	0.581890
O13	O	-1.224765	-0.167193	0.081920
O14	O	-0.724765	0.332807	0.581920
Zn15	Zn	-1.090578	-0.177037	0.107878
Zn16	Zn	-0.590578	0.322963	0.607878
Zn17	Zn	-1.090597	-0.177050	-0.107650
Zn18	Zn	-0.590597	0.322950	0.392350
O19	O	-1.084474	-0.362700	0.081899
O20	O	-0.584474	0.137300	0.581899
C21	C	-0.922038	-0.185971	0.000095
C22	C	-0.422038	0.314029	0.500095
C23	C	-0.819642	-0.183221	0.000084
C24	C	-0.319642	0.316779	0.500084
C25	C	-1.095772	0.056140	0.000120
C26	C	-0.595772	0.556140	0.500120
C27	C	-1.093012	0.197741	0.000118
C28	C	-0.593012	0.697741	0.500118
C29	C	-1.259137	-0.168116	0.000130
C30	C	-0.759137	0.331884	0.500130
C31	C	-1.361533	-0.170866	0.000135
C32	C	-0.861533	0.329134	0.500135
C33	C	-1.085403	-0.410227	0.000106
C34	C	-0.585403	0.089773	0.500106
C35	C	-1.088163	-0.551828	0.000101
C36	C	-0.588163	-0.051828	0.500101
C37	C	-0.444691	-0.173098	0.000129
C38	C	0.055309	0.326902	0.500129
C39	C	-0.549014	-0.175909	0.000116
C40	C	-0.049014	0.324091	0.500116
C41	C	-0.632163	-0.178159	0.000105
C42	C	-0.132163	0.321841	0.500105
C43	C	-0.736493	-0.180971	0.000094
C44	C	-0.236493	0.319029	0.500094
C45	C	-1.003749	0.264951	0.000100
C46	C	-0.503749	0.764951	0.500100
C47	C	-1.045909	0.357518	0.080760
C48	C	-0.545909	0.857518	0.580760
C49	C	-1.045944	0.357482	-0.080520
C50	C	-0.545944	0.857482	0.419480
C51	C	-1.135209	0.288443	0.080844
C52	C	-0.635209	0.788443	0.580844
C53	C	-1.135232	0.288398	-0.080509
C54	C	-0.635232	0.788398	0.419491
C55	C	-1.177457	0.380938	0.000171
C56	C	-0.677457	0.880938	0.500171
N57	N	-1.090572	-0.177026	0.254969
N58	N	-0.590572	0.322974	0.754969
N59	N	-1.090610	-0.177050	-0.254742
N60	N	-0.590610	0.322950	0.245258
C61	C	-1.090596	-0.177052	0.656260
C62	C	-0.590596	0.322948	1.156260
C63	C	-1.090586	-0.177049	0.544609
C64	C	-0.590586	0.322951	1.044609
C65	C	-1.090584	-0.177040	0.455618
C66	C	-0.590584	0.322960	0.955618
C67	C	-1.090574	-0.177035	0.343960
C68	C	-0.590574	0.322965	0.843960
H69	H	-1.008134	0.388140	0.148944
H70	H	-0.508134	0.888140	0.648944
N71	N	-1.185171	0.248157	0.171290
N72	N	-0.685171	0.748157	0.671290
H73	H	-1.250589	0.291471	0.171586
H74	H	-0.750589	0.791471	0.671586
H75	H	-1.186634	0.152108	0.170713
H76	H	-0.686634	0.652108	0.670713
H77	H	-1.172975	0.257742	-0.148696
H78	H	-0.672975	0.757742	0.351304
H79	H	-1.250914	0.431128	0.000224
H80	H	-0.750914	0.931128	0.500224
H81	H	-1.008169	0.388048	-0.148718
H82	H	-0.508169	0.888048	0.351282
H83	H	-0.930357	0.214534	0.000173
H84	H	-0.430357	0.714534	0.500173
