data_functionalizedCrystal
_audit_creation_method	'MofGen! by Chris Wilmer'
_symmetry_space_group_name_H-M	'P1'
_symmetry_Int_Tables_number	1
_symmetry_cell_setting	triclinic
loop_
_symmetry_equiv_pos_as_xyz
  x,y,z
_cell_length_a	10.489741
_cell_length_b	14.971482
_cell_length_c	13.448316
_cell_angle_alpha	90.004522
_cell_angle_beta	89.999908
_cell_angle_gamma	95.924109
loop_
_atom_site_label
_atom_site_type_symbol
_atom_site_fract_x
_atom_site_fract_y
_atom_site_fract_z
O1	O	-0.166195	1.187894	0.082671
O2	O	0.333805	1.687894	0.582671
O3	O	-0.186105	0.927606	0.082675
O4	O	0.313895	1.427606	0.582675
O5	O	0.009517	1.063673	0.082675
O6	O	0.509517	1.563673	0.582675
O7	O	-0.361816	1.051827	0.082671
O8	O	0.138184	1.551827	0.582671
O9	O	0.009519	1.063659	-0.082709
O10	O	0.509519	1.563659	0.417291
O11	O	-0.186103	0.927593	-0.082709
O12	O	0.313897	1.427593	0.417291
O13	O	-0.166193	1.187880	-0.082713
O14	O	0.333807	1.687880	0.417287
Cu15	Cu	-0.176148	1.057735	-0.097812
Cu16	Cu	0.323852	1.557735	0.402188
Cu17	Cu	-0.176150	1.057751	0.097774
Cu18	Cu	0.323850	1.557751	0.597774
O19	O	-0.361815	1.051813	-0.082713
O20	O	0.138185	1.551813	0.417287
C21	C	-0.185215	0.894270	-0.000016
C22	C	0.314785	1.394270	0.499984
C23	C	-0.182549	0.794957	-0.000015
C24	C	0.317451	1.294957	0.499985
C25	C	-0.181292	0.748298	-0.090166
C26	C	0.318708	1.248298	0.409834
C27	C	-0.178767	0.654985	-0.090167
C28	C	0.321233	1.154985	0.409833
C29	C	-0.177508	0.608332	-0.000016
C30	C	0.322492	1.108332	0.499984
C31	C	-0.178760	0.654998	0.090143
C32	C	0.321240	1.154998	0.590143
C33	C	-0.181276	0.748310	0.090143
C34	C	0.318724	1.248310	0.590143
C35	C	-0.173519	0.460507	0.090137
C36	C	0.326481	0.960507	0.590137
C37	C	-0.171006	0.367188	0.090137
C38	C	0.328994	0.867188	0.590137
C39	C	-0.171010	0.367181	-0.090174
C40	C	0.328990	0.867181	0.409826
C41	C	-0.173526	0.460493	-0.090174
C42	C	0.326474	0.960493	0.409826
C43	C	-0.174781	0.507153	-0.000015
C44	C	0.325219	1.007153	0.499985
C45	C	-0.409337	1.052715	-0.000022
C46	C	0.090663	1.552715	0.499978
C47	C	-0.550935	1.055392	-0.000023
C48	C	-0.050935	1.555392	0.499977
C49	C	-0.618072	1.141967	-0.000017
C50	C	-0.118072	1.641967	0.499983
C51	C	-0.710666	1.101063	-0.081558
C52	C	-0.210666	1.601063	0.418442
C53	C	-0.710646	1.101056	0.081497
C54	C	-0.210646	1.601056	0.581497
C55	C	-0.641664	1.014452	-0.081632
C56	C	-0.141664	1.514452	0.418368
C57	C	-0.641634	1.014457	0.081497
C58	C	-0.141634	1.514457	0.581497
C59	C	-0.734202	0.973490	-0.000065
C60	C	-0.234202	1.473490	0.499935
C61	C	0.057039	1.062771	-0.000014
C62	C	0.557039	1.562771	0.499986
C63	C	0.198637	1.060094	-0.000006
C64	C	0.698637	1.560094	0.499994
C65	C	-0.167083	1.221216	-0.000019
C66	C	0.332917	1.721216	0.499981
C67	C	-0.169749	1.320529	-0.000015
C68	C	0.330251	1.820529	0.499985
N69	N	-0.176146	1.057730	-0.235376
N70	N	0.323854	1.557730	0.264624
C71	C	-0.253635	1.112473	-0.287414
C72	C	0.246365	1.612473	0.212586
C73	C	-0.253630	1.112485	-0.391517
C74	C	0.246370	1.612485	0.108483
C75	C	-0.176140	1.057747	-0.443581
C76	C	0.323860	1.557747	0.056419
C77	C	-0.098642	1.003001	-0.391535
C78	C	0.401358	1.503001	0.108465
C79	C	-0.098641	1.002996	-0.287434
C80	C	0.401359	1.502996	0.212566
C81	C	-0.098650	1.003015	-0.608516
C82	C	0.401350	1.503015	-0.108516
C83	C	-0.098652	1.003020	-0.712624
C84	C	0.401348	1.503020	-0.212624
C85	C	-0.253639	1.112504	-0.712599
C86	C	0.246361	1.612504	-0.212599
C87	C	-0.253639	1.112499	-0.608497
C88	C	0.246361	1.612499	-0.108497
C89	C	-0.176141	1.057752	-0.556459
C90	C	0.323859	1.557752	-0.056459
N91	N	-0.176142	1.057763	0.235338
N92	N	0.323858	1.557763	0.735338
H93	H	-0.177723	0.617001	-0.163578
H94	H	0.322277	1.117001	0.336422
H95	H	-0.611017	0.977862	0.150439
H96	H	-0.111017	1.477862	0.650439
H97	H	-0.035555	0.958446	-0.755011
H98	H	0.464445	1.458446	-0.255011
H99	H	-0.316745	1.157078	-0.754973
H100	H	0.183255	1.657078	-0.254973
H101	H	-0.035542	0.958436	-0.566149
H102	H	0.464458	1.458436	-0.066149
H103	H	-0.035542	0.958437	-0.433934
H104	H	0.464458	1.458437	0.066066
Cl105	Cl	-0.811776	0.863491	-0.000121
Cl106	Cl	-0.311776	1.363491	0.499879
H107	H	-0.182328	0.786275	-0.163579
H108	H	0.317672	1.286275	0.336421
H109	H	-0.035541	0.958418	-0.245066
H110	H	0.464459	1.458418	0.254934
Cl111	Cl	-0.351058	1.181290	-0.221973
Cl112	Cl	0.148942	1.681290	0.278027
Cl113	Cl	-0.175123	0.519140	-0.203509
Cl114	Cl	0.324877	1.019140	0.296491
H115	H	-0.741205	1.137709	0.150432
H116	H	-0.241205	1.637709	0.650432
H117	H	-0.169988	0.329187	-0.163585
H118	H	0.330012	0.829187	0.336415
H119	H	-0.316728	1.157064	-0.433882
H120	H	0.183272	1.657064	0.066118
H121	H	-0.174542	0.498494	0.163554
H122	H	0.325458	0.998494	0.663554
H123	H	-0.177726	0.617007	0.163546
H124	H	0.322274	1.117007	0.663546
H125	H	-0.169981	0.329206	0.163547
H126	H	0.330019	0.829206	0.663547
H127	H	-0.316743	1.157067	-0.566110
H128	H	0.183257	1.657067	-0.066110
H129	H	-0.567598	1.213149	-0.000099
H130	H	-0.067598	1.713149	0.499901
Cl131	Cl	-0.182850	0.806969	0.203482
Cl132	Cl	0.317150	1.306969	0.703482
H133	H	-0.741250	1.137689	-0.150498
H134	H	-0.241250	1.637689	0.349502
H135	H	-0.611255	0.977844	-0.150646
H136	H	-0.111255	1.477844	0.349354
