data_functionalizedCrystal
_audit_creation_method	'MofGen! by Chris Wilmer'
_symmetry_space_group_name_H-M	'P1'
_symmetry_Int_Tables_number	1
_symmetry_cell_setting	triclinic
loop_
_symmetry_equiv_pos_as_xyz
  x,y,z
_cell_length_a	15.944493
_cell_length_b	15.944493
_cell_length_c	9.730217
_cell_angle_alpha	89.999156
_cell_angle_beta	90.002625
_cell_angle_gamma	83.475044
loop_
_atom_site_label
_atom_site_type_symbol
_atom_site_fract_x
_atom_site_fract_y
_atom_site_fract_z
O1	O	0.108102	1.114528	-0.114254
O2	O	0.121509	0.869969	-0.114258
O3	O	-0.007474	0.998953	-0.114267
O4	O	0.237085	0.985545	-0.114245
O5	O	-0.007475	0.998949	0.114313
O6	O	0.121508	0.869965	0.114322
O7	O	0.108100	1.114524	0.114327
Zn8	Zn	0.114804	0.992244	0.150616
Zn9	Zn	0.114806	0.992249	-0.150548
O10	O	0.237084	0.985541	0.114336
C11	C	0.120961	0.838673	0.000031
C12	C	0.119318	0.745424	0.000028
C13	C	0.195240	0.509649	0.000034
C14	C	0.154298	0.459097	0.112739
C15	C	0.116273	0.574704	0.000031
C16	C	0.154280	0.459105	-0.112623
C17	C	0.113339	0.409795	0.000027
C18	C	0.075352	0.525380	0.112828
C19	C	0.075346	0.525392	-0.112635
C20	C	0.034346	0.474873	0.000096
C21	C	0.117966	0.669704	0.000034
C22	C	0.111640	0.314798	0.000034
C23	C	-0.038769	0.998403	0.000017
C24	C	-0.132018	0.996760	-0.000000
C25	C	-0.367793	1.072682	0.000027
C26	C	-0.418352	1.031742	-0.112675
C27	C	-0.302738	0.993716	0.000016
C28	C	-0.418330	1.031720	0.112687
C29	C	-0.467647	0.990781	0.000039
C30	C	-0.352069	0.952797	-0.112779
C31	C	-0.352043	0.952786	0.112685
C32	C	-0.402569	0.911788	-0.000045
C33	C	-0.207739	0.995408	0.000002
C34	C	-0.562644	0.989082	0.000043
C35	C	0.268379	0.986091	0.000048
C36	C	0.361627	0.987734	0.000057
C37	C	0.108649	1.145821	0.000034
C38	C	0.110292	1.239069	0.000028
N39	N	0.114802	0.992247	0.356153
N40	N	0.114800	0.992254	-0.356084
C41	C	0.000621	1.106508	0.356135
C42	C	-0.056468	1.163644	0.428067
C43	C	-0.056468	1.163653	0.571946
C44	C	0.000624	1.106517	0.643898
C45	C	0.057713	1.049381	0.571967
C46	C	0.057709	1.049380	0.428084
C47	C	0.171889	0.935117	0.571984
C48	C	0.171895	0.935111	0.428105
C49	C	0.228981	0.877982	0.643936
C50	C	0.286075	0.820848	0.572005
C51	C	0.286074	0.820843	0.428117
C52	C	0.228983	0.877975	0.356173
H53	H	0.263261	0.525258	0.000146
C54	C	0.071426	0.529977	0.359412
C55	C	0.030366	0.564293	0.241596
H56	H	0.043651	0.553999	0.438905
H57	H	0.128391	0.542090	0.359088
H58	H	0.070068	0.470570	0.360153
H59	H	0.031729	0.623700	0.240850
H60	H	-0.026615	0.552188	0.241920
H61	H	0.187646	0.430151	0.208026
C62	C	-0.381614	1.206256	0.116655
C63	C	-0.346707	1.164503	-0.000154
H64	H	-0.368598	1.262941	0.116521
H65	H	-0.358783	1.178336	0.196813
H66	H	-0.441139	1.205818	0.115836
H67	H	-0.287181	1.164936	0.000671
H68	H	-0.369535	1.192430	-0.080333
H69	H	-0.447305	1.065092	-0.207956
C70	C	-0.170737	1.181965	0.266155
C71	C	-0.119176	1.226469	0.348932
H72	H	-0.209434	1.220758	0.217288
H73	H	-0.201017	1.147049	0.322260
H74	H	-0.136726	1.147917	0.202762
H75	H	-0.153187	1.260513	0.412333
H76	H	-0.088894	1.261400	0.292823
C77	C	0.166811	0.940180	0.150063
C78	C	0.228979	0.877969	0.198019
H79	H	0.166804	0.940171	0.052424
H80	H	0.178345	0.993852	0.182599
H81	H	0.113121	0.928697	0.182626
H82	H	0.282670	0.889455	0.165463
H83	H	0.217451	0.824285	0.165468
C84	C	-0.376855	0.879146	0.321392
C85	C	-0.312931	0.907806	0.241316
H86	H	-0.352707	0.851388	0.400815
H87	H	-0.405454	0.840816	0.269252
H88	H	-0.415749	0.925803	0.348434
H89	H	-0.274040	0.861149	0.214265
H90	H	-0.284318	0.946139	0.293466
H91	H	0.000613	1.106521	0.761053
H92	H	-0.033727	0.459422	0.000155
H93	H	-0.323242	0.919469	-0.208161
H94	H	-0.447268	1.065083	0.207962
H95	H	0.187645	0.430162	-0.207893
C96	C	0.071865	0.530884	-0.359177
C97	C	0.030372	0.564503	-0.241272
H98	H	0.044107	0.555037	-0.438597
H99	H	0.070917	0.471435	-0.360559
H100	H	0.128708	0.543395	-0.358344
H101	H	-0.026470	0.551987	-0.242100
H102	H	0.031311	0.623966	-0.239890
C103	C	-0.389664	0.778753	-0.118225
C104	C	-0.423438	0.819896	-0.000124
H105	H	-0.402555	0.722026	-0.118279
H106	H	-0.330163	0.779323	-0.118975
H107	H	-0.413382	0.807003	-0.197517
H108	H	-0.399716	0.791650	0.079168
H109	H	-0.482951	0.819321	0.000638
C110	C	0.017616	1.185637	0.150028
C111	C	0.000625	1.106506	0.197981
H112	H	0.017613	1.185636	0.052389
H113	H	0.071307	1.197103	0.182580
H114	H	-0.024559	1.227834	0.182578
H115	H	0.042803	1.064309	0.165438
H116	H	-0.053073	1.095029	0.165415
H117	H	-0.102958	1.210175	0.630513
H118	H	0.228975	0.877988	0.761091
H119	H	0.332552	0.774329	0.630597
H120	H	0.332559	0.774313	0.369558
