data_functionalizedCrystal
_audit_creation_method	'MofGen! by Chris Wilmer'
_symmetry_space_group_name_H-M	'P1'
_symmetry_Int_Tables_number	1
_symmetry_cell_setting	triclinic
loop_
_symmetry_equiv_pos_as_xyz
  x,y,z
_cell_length_a	16.625546
_cell_length_b	16.959447
_cell_length_c	16.959455
_cell_angle_alpha	90.012524
_cell_angle_beta	90.023353
_cell_angle_gamma	90.032216
loop_
_atom_site_label
_atom_site_type_symbol
_atom_site_fract_x
_atom_site_fract_y
_atom_site_fract_z
Zn1	Zn	-0.320967	0.446860	1.208371
Zn2	Zn	-0.455814	0.314677	1.208288
Zn3	Zn	-0.321001	0.314702	1.076199
Zn4	Zn	-0.455763	0.446820	1.076158
O5	O	-0.388386	0.380765	1.142254
O6	O	-0.338861	0.429333	1.318970
O7	O	-0.437967	0.204070	1.190748
O8	O	-0.208164	0.332260	1.093784
O9	O	-0.437933	0.332218	1.318909
O10	O	-0.208139	0.429356	1.190890
O11	O	-0.338920	0.204088	1.093703
O12	O	-0.338871	0.332221	0.965583
O13	O	-0.437846	0.557436	1.093714
O14	O	-0.437880	0.429288	0.965553
O15	O	-0.338812	0.557466	1.190850
O16	O	-0.568640	0.332179	1.190709
O17	O	-0.568602	0.429264	1.093634
C18	C	-0.597877	0.380732	1.142179
C19	C	-0.687498	0.380744	1.142219
C20	C	-0.388374	0.380753	0.936888
C21	C	-0.388388	0.380767	0.849031
C22	C	-0.388320	0.586933	1.142287
C23	C	-0.388291	0.674790	1.142301
C24	C	-1.015674	0.380827	1.142357
C25	C	-0.924365	0.380806	1.142316
C26	C	-0.851589	0.380785	1.142288
C27	C	-0.760275	0.380765	1.142248
C28	C	-0.178077	0.380816	1.142351
C29	C	-0.088456	0.380837	1.142392
C30	C	-0.388395	0.175399	1.142267
C31	C	-0.388196	0.087543	1.142406
C32	C	-0.439769	1.046253	1.091821
C33	C	-0.336644	1.046279	1.192970
C34	C	-0.336661	0.963733	1.192948
C35	C	-0.388233	0.922443	1.142364
C36	C	-0.439789	0.963699	1.091800
C37	C	-0.285112	0.922470	1.243517
C38	C	-0.285127	0.839919	1.243498
C39	C	-0.336697	0.798628	1.192909
C40	C	-0.388254	0.839889	1.142343
C41	C	-0.439826	0.798600	1.091758
C42	C	-0.491380	0.839860	1.041187
C43	C	-0.491358	0.922408	1.041211
C44	C	-0.336718	0.716080	1.192886
C45	C	-0.439847	0.716046	1.091737
C46	C	-0.388399	0.380777	1.348422
C47	C	-0.388405	0.380782	1.436279
C48	C	-0.439972	0.330205	1.807725
C49	C	-0.336808	0.431331	1.807784
C50	C	-0.336811	0.431336	1.725238
C51	C	-0.388395	0.380774	1.683932
C52	C	-0.439975	0.330207	1.725171
C53	C	-0.285226	0.481896	1.683992
C54	C	-0.285226	0.481903	1.601441
C55	C	-0.336815	0.431344	1.560133
C56	C	-0.388398	0.380776	1.601378
C57	C	-0.439982	0.330214	1.560072
C58	C	-0.491570	0.279649	1.601315
C59	C	-0.491564	0.279648	1.683864
C60	C	-0.336821	0.431344	1.477585
C61	C	-0.439985	0.330215	1.477518
H62	H	-0.481837	0.682434	1.050537
H63	H	-0.533374	0.806231	1.000005
H64	H	-0.533333	0.956009	1.000041
N65	N	-0.492675	0.278554	1.849834
N66	N	-0.567074	0.283778	1.840580
H67	H	-0.604296	0.247297	1.870319
H68	H	-0.294807	0.472492	1.841420
H69	H	-0.294813	0.472508	1.444008
H70	H	-0.243226	0.523058	1.717629
H71	H	-0.243129	0.956094	1.284705
N72	N	-0.544270	0.228002	1.559131
N73	N	-0.590327	0.182861	1.595957
H74	H	-0.627547	0.146385	1.566162
N75	N	-0.232535	0.533564	1.559331
N76	N	-0.237857	0.606499	1.568575
H77	H	-0.200643	0.642987	1.538836
N78	N	-0.492417	1.088405	1.040166
N79	N	-0.492390	1.162109	1.040183
H80	H	-0.529573	1.191881	1.003701
H81	H	-0.294660	1.079902	1.234158
N82	N	-0.232466	0.797790	1.295159
N83	N	-0.186427	0.834666	1.340322
H84	H	-0.149233	0.804912	1.376807
N85	N	-0.492666	0.278564	1.435316
N86	N	-0.492657	0.278565	1.361612
H87	H	-0.529862	0.242085	1.331806
H88	H	-0.294746	0.682490	1.234062
H89	H	-0.533562	0.238479	1.717452
