data_functionalizedCrystal
_audit_creation_method	'MofGen! by Chris Wilmer'
_symmetry_space_group_name_H-M	'P1'
_symmetry_Int_Tables_number	1
_symmetry_cell_setting	triclinic
loop_
_symmetry_equiv_pos_as_xyz
  x,y,z
_cell_length_a	14.560438
_cell_length_b	14.628931
_cell_length_c	14.628931
_cell_angle_alpha	60.000028
_cell_angle_beta	90.001341
_cell_angle_gamma	60.000085
loop_
_atom_site_label
_atom_site_type_symbol
_atom_site_fract_x
_atom_site_fract_y
_atom_site_fract_z
Zr1	Zr	0.884767	1.000564	-0.119934
O2	O	0.738118	1.191272	-0.265900
O3	O	0.929723	0.809857	-0.075187
O4	O	0.929722	1.000562	-0.265893
O5	O	0.738118	1.000567	0.075238
O6	O	1.080863	1.000560	-0.265888
O7	O	0.738118	1.000567	-0.075194
O8	O	1.080864	0.659422	0.075250
O9	O	0.738117	1.341704	-0.265900
O10	O	1.061690	0.888295	-0.056100
O11	O	0.948895	0.888297	0.056162
O12	O	0.948895	1.112828	-0.168370
O13	O	0.836100	1.112831	-0.056108
Zr14	Zr	1.125819	1.000560	0.119995
Zr15	Zr	1.125819	1.000559	-0.119926
Zr16	Zr	0.884766	1.000564	0.119987
Zr17	Zr	0.884766	1.240486	-0.119934
Zr18	Zr	1.125819	0.760638	0.119996
O19	O	1.080863	1.191267	0.075249
O20	O	1.080863	1.191266	-0.265888
O21	O	0.738117	1.191273	0.075237
O22	O	1.272468	0.809852	0.265961
O23	O	1.272468	0.809851	-0.075176
O24	O	0.929722	0.809858	0.265950
O25	O	1.272468	1.000557	-0.075176
O26	O	1.080863	1.000561	0.265954
O27	O	0.929722	1.000564	0.265949
O28	O	1.272467	1.000557	0.075255
O29	O	0.929722	1.341701	-0.265894
O30	O	1.080863	0.659423	0.265955
O31	O	1.272468	0.659419	0.265961
O32	O	1.272468	0.659419	0.075256
O33	O	0.738117	1.341705	-0.075194
O34	O	0.929722	1.341701	-0.075188
O35	O	1.061690	0.888295	0.168431
O36	O	1.174485	0.888293	0.056169
O37	O	1.061690	1.112826	-0.056100
O38	O	0.948895	1.112829	0.056161
C39	C	1.005293	0.700456	0.000031
C40	C	1.005293	0.598603	0.000032
C41	C	0.926163	0.631954	-0.078730
C42	C	0.926161	0.526685	-0.078732
C43	C	0.703773	1.000567	0.000021
C44	C	0.601440	1.000569	0.000018
C45	C	0.553357	1.000571	-0.082855
C46	C	0.457211	1.000559	-0.082840
C47	C	0.457237	1.000548	0.082924
C48	C	0.553386	1.000551	0.082913
C49	C	0.601410	1.000589	-0.165750
C50	C	0.553326	1.000592	-0.248630
C51	C	0.457181	1.000580	-0.248615
C52	C	0.409119	1.000565	-0.165720
C53	C	1.306812	1.000556	0.000041
C54	C	1.409145	1.000554	0.000044
C55	C	1.005293	1.000561	-0.300074
C56	C	1.005293	1.000561	-0.401927
C57	C	1.005292	1.300668	0.000030
C58	C	1.005292	1.402521	0.000030
C59	C	0.949339	1.111944	-0.503029
C60	C	0.949338	1.111947	-0.608301
C61	C	1.005292	1.000563	0.300136
C62	C	1.005292	1.000563	0.401988
C63	C	1.306813	0.700450	0.000041
C64	C	1.409146	0.598595	0.000045
C65	C	1.005293	0.700457	0.300136
C66	C	1.005293	0.598604	0.401989
C67	C	1.306813	0.700451	0.300146
C68	C	1.409146	0.598596	0.402002
C69	C	0.703773	1.300672	-0.300084
C70	C	0.601440	1.402527	-0.401941
C71	C	0.703772	1.300673	0.000020
C72	C	0.601439	1.402528	0.000017
C73	C	1.005292	1.300667	-0.300075
C74	C	1.005292	1.402520	-0.401928
C75	C	1.398816	0.553186	-0.055647
C76	C	1.504581	0.447913	-0.055644
C77	C	1.061247	0.553194	0.503092
C78	C	1.061248	0.447924	0.608363
C79	C	1.510723	0.553185	0.391724
C80	C	1.616491	0.447913	0.496996
H81	H	0.858421	0.738441	-0.146164
H82	H	0.592537	1.000548	0.150396
Cl83	Cl	1.264274	0.613489	-0.129273
Cl84	Cl	0.288257	1.000533	-0.165699
Cl85	Cl	1.135201	0.613496	0.516415
Cl86	Cl	0.722275	1.000611	-0.165777
Cl87	Cl	0.613752	1.000595	-0.352826
H88	H	1.053193	0.905198	-0.511283
Cl89	Cl	0.875366	1.259183	-0.742207
Cl90	Cl	1.109898	0.434197	0.104139
Cl91	Cl	1.079263	0.853327	-0.388603
Cl92	Cl	0.396814	1.000535	0.187124
H93	H	1.109153	0.408871	0.695095
Cl94	Cl	1.619555	0.462781	0.073677
H95	H	1.495912	0.408858	-0.103320
Cl96	Cl	0.875383	1.259178	-0.516353
Cl97	Cl	0.396741	1.000569	-0.352795
H98	H	1.519387	0.592246	0.304989
Cl99	Cl	1.543688	0.538305	0.073658
Cl100	Cl	0.931335	0.462795	0.464172
Cl101	Cl	0.931323	0.538317	0.388666
H102	H	1.703629	0.408856	0.488369
H103	H	1.519019	0.441549	0.606725
Cl104	Cl	1.395762	0.538309	0.535913
H105	H	0.858412	0.555065	-0.146161
H106	H	1.073038	0.374132	0.067469
