data_functionalizedCrystal
_audit_creation_method	'MofGen! by Chris Wilmer'
_symmetry_space_group_name_H-M	'P1'
_symmetry_Int_Tables_number	1
_symmetry_cell_setting	triclinic
loop_
_symmetry_equiv_pos_as_xyz
  x,y,z
_cell_length_a	6.817900
_cell_length_b	11.168121
_cell_length_c	10.943624
_cell_angle_alpha	91.899023
_cell_angle_beta	108.838799
_cell_angle_gamma	108.508496
loop_
_atom_site_label
_atom_site_type_symbol
_atom_site_fract_x
_atom_site_fract_y
_atom_site_fract_z
V1	V	-4.113777	-0.174672	-0.402562
O2	O	-4.073287	0.008428	-0.394888
O3	O	-4.090038	-0.346377	-0.399819
O4	O	-4.091766	-0.171970	-0.578128
O5	O	-4.071547	-0.167187	-0.215344
V6	V	-4.590790	-0.152773	-0.380168
O7	O	-4.389315	-0.222709	-0.451685
O8	O	-4.765448	-0.104735	-0.331045
O9	O	-4.391322	0.018933	-0.382910
O10	O	-4.748676	-0.335872	-0.387842
O11	O	-4.750416	-0.160257	-0.567385
O12	O	-4.389594	-0.155474	-0.204602
C13	C	-3.940184	-0.388236	-0.393471
C14	C	-4.002237	-0.528607	-0.392399
C15	C	-4.204801	-0.597299	-0.398045
C16	C	-4.268940	-0.742380	-0.396937
C17	C	-3.942387	-0.165760	-0.620920
C18	C	-4.005837	-0.164687	-0.764447
C19	C	-3.850738	-0.157463	-0.841594
C20	C	-4.039042	-0.264697	-0.947591
C21	C	-3.930618	-0.055553	-0.914191
C22	C	-4.193350	-0.272023	-0.868567
C23	C	-4.084847	-0.062784	-0.835144
C24	C	-4.273287	-0.170049	-0.941111
C25	C	-4.204518	0.060785	-0.389255
C26	C	-4.121705	0.201155	-0.390335
C27	C	-4.202315	-0.161688	-0.161802
C28	C	-4.118102	-0.162754	-0.018275
H29	H	-4.442462	-0.801428	-0.401755
H30	H	-3.876303	-0.577206	-0.386753
O31	O	-3.914653	-0.728257	-0.384400
C32	C	-3.577472	-0.554655	-0.265647
C33	C	-3.811934	-0.634486	-0.272228
H34	H	-3.494338	-0.478840	-0.174949
H35	H	-3.587767	-0.506319	-0.356512
H36	H	-3.476676	-0.619777	-0.260569
H37	H	-3.912862	-0.569453	-0.277263
H38	H	-3.801475	-0.682836	-0.181365
H39	H	-3.820169	0.035911	-0.934948
H40	H	-4.330742	-0.548702	-0.403706
O41	O	-3.637125	-0.151455	-0.789619
C42	C	-3.386453	-0.253357	-0.670688
C43	C	-3.628443	-0.260297	-0.729462
H44	H	-3.379358	-0.341357	-0.622061
H45	H	-3.286610	-0.163745	-0.594982
H46	H	-3.314246	-0.249866	-0.751604
H47	H	-3.700847	-0.263838	-0.648637
H48	H	-3.728131	-0.349897	-0.805200
O49	O	-4.016554	-0.366388	-1.006133
C50	C	-3.839198	-0.437951	-1.136960
C51	C	-3.864518	-0.322682	-1.070761
H52	H	-3.716247	-0.402656	-1.189205
H53	H	-4.006193	-0.500354	-1.210797
H54	H	-3.776297	-0.496189	-1.059796
H55	H	-3.927341	-0.264347	-1.147831
H56	H	-3.697481	-0.260373	-0.996899
O57	O	-4.324849	-0.381373	-0.844019
C58	C	-4.342822	-0.573521	-0.747347
C59	C	-4.193666	-0.449743	-0.775089
H60	H	-4.236817	-0.628821	-0.691591
H61	H	-4.466307	-0.634723	-0.843596
H62	H	-4.435771	-0.548603	-0.686236
H63	H	-4.100572	-0.474545	-0.836160
H64	H	-4.070318	-0.388576	-0.678793
O65	O	-4.487013	-0.176191	-0.992733
C66	C	-4.738094	-0.073612	-1.109581
C67	C	-4.495955	-0.066472	-1.051147
H68	H	-4.745407	0.015071	-1.156847
H69	H	-4.810980	-0.078820	-1.028840
H70	H	-4.837180	-0.162435	-1.186400
H71	H	-4.396690	0.022343	-0.974343
H72	H	-4.423243	-0.061333	-1.131961
O73	O	-4.106722	0.039193	-0.776717
C74	C	-3.992254	0.268530	-0.733015
C75	C	-3.967260	0.153143	-0.799225
H76	H	-3.879555	0.360686	-0.751212
H77	H	-3.944722	0.266253	-0.623449
H78	H	-4.171137	0.264063	-0.775449
H79	H	-3.788416	0.157534	-0.756897
H80	H	-4.014932	0.155461	-0.908787
