data_functionalizedCrystal
_audit_creation_method	'MofGen! by Chris Wilmer'
_symmetry_space_group_name_H-M	'P1'
_symmetry_Int_Tables_number	1
_symmetry_cell_setting	triclinic
loop_
_symmetry_equiv_pos_as_xyz
  x,y,z
_cell_length_a	15.944551
_cell_length_b	27.732048
_cell_length_c	15.021413
_cell_angle_alpha	89.999048
_cell_angle_beta	89.997174
_cell_angle_gamma	83.070697
loop_
_atom_site_label
_atom_site_type_symbol
_atom_site_fract_x
_atom_site_fract_y
_atom_site_fract_z
O1	O	1.113714	0.062334	-0.073949
O2	O	0.869064	0.070020	-0.073973
O3	O	0.998987	-0.004187	-0.073943
O4	O	0.983790	0.136541	-0.073979
O5	O	0.998966	-0.004176	0.074121
O6	O	0.869043	0.070030	0.074092
O7	O	1.113693	0.062345	0.074115
Zn8	Zn	0.991365	0.066189	0.097612
Zn9	Zn	0.991392	0.066175	-0.097469
O10	O	0.983770	0.136551	0.074086
C11	C	0.837763	0.069706	0.000057
C12	C	0.744530	0.068749	0.000049
C13	C	0.530305	0.020466	0.000078
C14	C	0.469001	0.042882	-0.072931
C15	C	0.573827	0.067019	0.000060
C16	C	0.469003	0.042904	0.073049
C17	C	0.408936	0.065344	0.000074
C18	C	0.513752	0.089448	-0.073010
C19	C	0.513760	0.089463	0.073036
C20	C	0.452474	0.111912	0.000009
C21	C	0.668816	0.067983	0.000051
C22	C	0.313947	0.064384	0.000077
C23	C	0.998658	-0.022190	0.000091
C24	C	0.997697	-0.075849	0.000099
C25	C	1.068426	-0.414358	0.000060
C26	C	1.064862	-0.616033	0.000047
O27	O	1.129539	-0.647008	0.000014
N28	N	0.987823	-0.635490	0.000040
C29	C	0.911669	-0.604525	0.000031
O30	O	0.846061	-0.625703	0.000016
C31	C	0.915234	-0.402851	0.000038
C32	C	0.992278	-0.383397	0.000053
C33	C	1.145464	-0.394903	0.000074
C34	C	1.146354	-0.344487	0.000082
C35	C	1.070206	-0.313526	0.000076
C36	C	0.993168	-0.332981	0.000061
C37	C	0.839081	-0.371887	0.000022
C38	C	0.839979	-0.321466	0.000021
C39	C	0.917024	-0.302012	0.000037
C40	C	0.917911	-0.251604	0.000063
N41	N	0.994950	-0.232147	0.000069
C42	C	1.071098	-0.263108	0.000076
C43	C	0.909803	-0.710408	0.000030
C44	C	0.908912	-0.760826	0.000030
C45	C	1.062105	-0.772330	0.000044
C46	C	1.062995	-0.721911	0.000050
C47	C	0.986842	-0.690950	0.000036
C48	C	1.072961	-0.157231	0.000093
C49	C	1.073845	-0.106810	0.000105
C50	C	0.920652	-0.095310	0.000086
C51	C	0.919768	-0.145727	0.000079
C52	C	0.995930	-0.176686	0.000080
O53	O	0.853269	-0.220600	0.000085
O54	O	1.136697	-0.241921	0.000071
C55	C	1.067536	-0.464774	0.000052
C56	C	0.990498	-0.484228	0.000037
C57	C	0.914350	-0.453268	0.000031
C58	C	0.989607	-0.534647	0.000037
C59	C	1.065754	-0.565608	0.000044
C60	C	1.142794	-0.546150	0.000050
C61	C	1.143684	-0.495734	0.000058
C62	C	0.837311	-0.472725	0.000024
C63	C	0.836427	-0.523141	0.000017
C64	C	0.912575	-0.554102	0.000023
C65	C	1.144993	0.062658	0.000084
C66	C	1.238227	0.063615	0.000086
C67	C	0.984099	0.154554	0.000049
C68	C	0.985059	0.208213	0.000036
N69	N	0.991352	0.066198	0.230749
N70	N	0.991411	0.066162	-0.230607
C71	C	0.931267	0.100495	0.470419
C72	C	1.007044	0.109879	0.529758
C73	C	0.991374	0.066186	0.412356
C74	C	0.915617	0.056813	0.529759
C75	C	0.991388	0.066176	0.587780
C76	C	1.067190	0.075592	0.470389
C77	C	0.975712	0.022507	0.470385
C78	C	1.051545	0.031872	0.529697
C79	C	0.991365	0.066194	0.311299
C80	C	0.991406	0.066168	0.688836
H81	H	0.564143	-0.018169	-0.000003
O82	O	0.834093	-0.779744	0.000180
C83	C	0.828982	-0.808574	0.076850
H84	H	0.872708	-0.796649	0.130456
H85	H	0.761222	-0.804054	0.102578
H86	H	0.848880	-0.848332	0.059513
H87	H	0.851544	0.048890	0.555840
O88	O	1.023005	0.153904	0.560927
C89	C	1.097392	0.148135	0.612549
H90	H	1.138003	0.113194	0.592274
H91	H	1.134169	0.180382	0.601105
H92	H	1.080156	0.146166	0.686007
O93	O	0.445269	0.019470	-0.146625
C94	C	0.388935	0.051499	-0.197526
H95	H	0.398636	0.090589	-0.181214
H96	H	0.401449	0.044360	-0.271362
H97	H	0.321171	0.045449	-0.181164
H98	H	0.418809	0.150587	-0.000042
O99	O	0.537491	0.113009	0.146567
C100	C	0.576343	0.153813	0.120388
H101	H	0.554456	0.165373	0.050505
H102	H	0.558100	0.184957	0.168836
H103	H	0.647887	0.144103	0.120654
H104	H	0.775301	-0.447521	0.000017
O105	O	1.218547	-0.476863	-0.000091
C106	C	1.264939	-0.492697	-0.076761
H107	H	1.219879	-0.503185	-0.130362
H108	H	1.300282	-0.462154	-0.102497
H109	H	1.312170	-0.525555	-0.059421
H110	H	1.134979	-0.182432	0.000090
O111	O	0.765947	-0.291441	-0.000109
C112	C	0.719159	-0.300252	-0.076814
H113	H	0.740300	-0.338493	-0.102380
H114	H	0.649054	-0.296717	-0.059580
H115	H	0.730286	-0.272671	-0.130505
O116	O	1.143565	0.085146	0.439266
C117	C	1.142621	0.085061	0.345410
H118	H	1.074654	0.092625	0.320863
H119	H	1.180602	0.114413	0.319508
H120	H	1.171843	0.048079	0.319966
H121	H	1.102437	0.002852	0.555561
O122	O	0.959971	-0.021581	0.439344
C123	C	1.022617	-0.057790	0.470839
H124	H	1.052369	-0.044403	0.533789
H125	H	0.992774	-0.092160	0.486491
H126	H	1.073365	-0.066089	0.417707
H127	H	0.449166	0.023209	0.134770
H128	H	0.776344	-0.387718	0.000004
H129	H	0.880487	0.129533	0.444392
H130	H	0.533491	0.109118	-0.134801
H131	H	1.136586	-0.090973	0.000120
O132	O	1.221270	-0.325673	0.000051
C133	C	1.288279	-0.363819	0.000076
H134	H	1.265181	-0.398069	-0.027958
H135	H	1.342115	-0.353281	-0.042908
H136	H	1.311727	-0.370953	0.071111
O137	O	1.219385	-0.425024	0.000200
C138	C	1.223458	-0.454522	0.076898
H139	H	1.156819	-0.457087	0.102452
H140	H	1.255265	-0.492409	0.059659
H141	H	1.261582	-0.437924	0.130600
O142	O	1.137909	-0.703095	0.000017
C143	C	1.204922	-0.741239	0.000047
H144	H	1.181828	-0.775491	-0.027981
H145	H	1.258757	-0.730701	-0.042938
H146	H	1.228370	-0.748369	0.071084
H147	H	0.847786	-0.685203	0.000018
O148	O	1.135999	-0.802479	0.000003
C149	C	1.118682	-0.851149	0.000020
H150	H	1.052730	-0.853083	-0.028005
H151	H	1.167253	-0.873987	-0.042974
H152	H	1.122059	-0.865733	0.071052
H153	H	0.857033	-0.161567	0.000091
O154	O	0.846709	-0.065209	-0.000080
C155	C	0.842678	-0.035693	-0.076753
H156	H	0.885884	-0.054156	-0.130341
H157	H	0.774951	-0.030026	-0.102509
H158	H	0.863939	0.000969	-0.059410
O159	O	1.216742	-0.576250	-0.000104
C160	C	1.220798	-0.605763	-0.076781
H161	H	1.177610	-0.587297	-0.130377
H162	H	1.288534	-0.611428	-0.102519
H163	H	1.199533	-0.642426	-0.059451
H164	H	0.773684	-0.538976	0.000012
