data_functionalizedCrystal
_audit_creation_method	'MofGen! by Chris Wilmer'
_symmetry_space_group_name_H-M	'P1'
_symmetry_Int_Tables_number	1
_symmetry_cell_setting	triclinic
loop_
_symmetry_equiv_pos_as_xyz
  x,y,z
_cell_length_a	12.784890
_cell_length_b	15.944493
_cell_length_c	11.295483
_cell_angle_alpha	94.100278
_cell_angle_beta	86.328828
_cell_angle_gamma	78.290801
loop_
_atom_site_label
_atom_site_type_symbol
_atom_site_fract_x
_atom_site_fract_y
_atom_site_fract_z
O1	O	1.417475	-0.000922	-0.098988
O2	O	1.108013	0.035052	-0.098993
O3	O	1.271228	-0.105834	-0.099001
O4	O	1.254261	0.139964	-0.098981
O5	O	1.256892	-0.093477	0.099051
O6	O	1.093678	0.047409	0.099058
O7	O	1.403140	0.011434	0.099063
Cu8	Cu	1.247100	0.030550	0.117144
Cu9	Cu	1.264053	0.015937	-0.117075
O10	O	1.239925	0.152321	0.099070
C11	C	1.061246	0.043571	0.000031
C12	C	0.943250	0.050532	0.000028
C13	C	0.764257	0.137784	0.000034
C14	C	0.875123	0.131248	0.000033
C15	C	0.900505	-0.023653	0.000021
C16	C	0.789639	-0.017118	0.000021
C17	C	0.721518	0.063604	0.000030
C18	C	0.610649	0.070140	0.000039
C19	C	0.636033	-0.084762	0.000017
C20	C	0.746900	-0.091298	0.000017
C21	C	1.263367	-0.130900	0.000020
C22	C	1.261289	-0.223997	0.000005
C23	C	1.357359	-0.466778	0.000029
C24	C	1.312619	-0.519652	-0.097621
C25	C	1.257436	-0.394436	0.000019
C26	C	1.298463	-0.507443	0.097642
C27	C	1.253721	-0.559073	0.000039
C28	C	1.212729	-0.446089	-0.097711
C29	C	1.198581	-0.433872	0.097640
C30	C	1.153769	-0.486710	-0.000034
C31	C	1.259579	-0.299593	0.000007
C32	C	1.251571	-0.653913	0.000042
C33	C	1.449908	0.002916	0.000036
C34	C	1.567903	-0.004046	0.000031
C35	C	1.247786	0.177386	0.000047
C36	C	1.249865	0.270484	0.000054
N37	N	1.235184	0.040827	0.281881
N38	N	1.275978	0.005652	-0.281811
C39	C	1.361759	-0.068376	0.531165
C40	C	1.352761	-0.060604	0.655829
C41	C	1.208186	0.064139	0.655875
C42	C	1.217184	0.056367	0.531211
C43	C	1.293973	-0.009892	0.468861
C44	C	1.302976	-0.017660	0.344194
C45	C	1.158396	0.107079	0.344243
C46	C	1.149399	0.114851	0.468907
H47	H	0.909916	0.191654	0.000039
H48	H	1.086875	0.168796	0.519687
H49	H	0.708790	0.203512	0.000055
H50	H	0.955988	-0.089373	0.000005
H51	H	1.334707	-0.534310	0.180192
O52	O	1.436243	-0.132830	0.470630
C53	C	1.416826	-0.212842	0.501087
H54	H	1.329261	-0.204954	0.535388
H55	H	1.434978	-0.260986	0.419082
H56	H	1.470535	-0.237287	0.573418
O57	O	1.092701	0.163916	0.283592
C58	C	1.154825	0.207125	0.211508
H59	H	1.239347	0.166458	0.192806
H60	H	1.116788	0.218182	0.123857
H61	H	1.158573	0.271673	0.259570
O62	O	1.141297	-0.389553	0.196250
C63	C	1.186822	-0.420946	0.299010
H64	H	1.274472	-0.453293	0.275615
H65	H	1.181386	-0.365275	0.369870
H66	H	1.141423	-0.469652	0.334638
H67	H	0.555186	0.135868	0.000051
H68	H	0.802378	-0.157019	0.000006
H69	H	1.365504	-0.071609	0.293429
O70	O	1.460066	-0.455661	-0.000317
C71	C	1.519836	-0.499847	-0.103468
H72	H	1.463287	-0.509141	-0.175048
H73	H	1.579221	-0.460861	-0.137575
H74	H	1.565331	-0.565268	-0.081193
H75	H	0.601231	-0.145171	-0.000081
H76	H	1.176536	-0.419343	-0.180355
O77	O	1.370167	-0.563888	-0.196143
C78	C	1.413287	-0.506645	-0.264736
H79	H	1.418956	-0.447092	-0.205375
H80	H	1.496642	-0.539595	-0.305573
H81	H	1.359135	-0.486960	-0.338724
H82	H	1.407957	-0.108229	0.706554
O83	O	1.051013	-0.497631	-0.000304
C84	C	1.006189	-0.466170	-0.103380
H85	H	1.073095	-0.465934	-0.175016
H86	H	0.951522	-0.509237	-0.137459
H87	H	0.957702	-0.397901	-0.081016
H88	H	1.145658	0.118081	0.706658
