data_functionalizedCrystal
_audit_creation_method	'MofGen! by Chris Wilmer'
_symmetry_space_group_name_H-M	'P1'
_symmetry_Int_Tables_number	1
_symmetry_cell_setting	triclinic
loop_
_symmetry_equiv_pos_as_xyz
  x,y,z
_cell_length_a	17.077404
_cell_length_b	16.959454
_cell_length_c	17.077396
_cell_angle_alpha	90.024735
_cell_angle_beta	90.019501
_cell_angle_gamma	90.020300
loop_
_atom_site_label
_atom_site_type_symbol
_atom_site_fract_x
_atom_site_fract_y
_atom_site_fract_z
Zn1	Zn	1.200070	-0.314677	0.443863
Zn2	Zn	1.199983	-0.446865	0.312606
Zn3	Zn	1.068802	-0.314705	0.312611
Zn4	Zn	1.068776	-0.446818	0.443829
O5	O	1.134408	-0.380766	0.378227
O6	O	1.309905	-0.332220	0.426463
O7	O	1.182556	-0.429365	0.202759
O8	O	1.086262	-0.204090	0.330038
O9	O	1.309842	-0.429338	0.330029
O10	O	1.182704	-0.204070	0.426469
O11	O	1.086178	-0.332267	0.202763
O12	O	0.958951	-0.332222	0.330006
O13	O	1.086218	-0.429258	0.553681
O14	O	0.958933	-0.429285	0.426411
O15	O	1.182679	-0.332174	0.553706
O16	O	1.182532	-0.557469	0.329996
O17	O	1.086134	-0.557435	0.426406
C18	C	0.930460	-0.380752	0.378206
C19	C	0.843210	-0.380764	0.378215
C20	C	1.134342	-0.586132	0.378214
C21	C	1.134386	-0.673989	0.378235
C22	C	0.802231	-0.431381	0.428333
C23	C	0.720250	-0.431383	0.428345
C24	C	0.679251	-0.380771	0.378236
C25	C	0.720236	-0.330149	0.328116
C26	C	0.802215	-0.330144	0.328108
C27	C	0.549366	-0.330164	0.328134
C28	C	0.467381	-0.330170	0.328141
C29	C	0.467401	-0.431404	0.428372
C30	C	0.549380	-0.431399	0.428364
C31	C	0.590360	-0.380777	0.378243
C32	C	1.084287	-1.045476	0.428422
C33	C	1.184748	-1.045452	0.328112
C34	C	1.184720	-0.962906	0.328105
C35	C	1.134474	-0.921642	0.378256
C36	C	1.084256	-0.962923	0.428415
C37	C	1.234932	-0.921619	0.277942
C38	C	1.234906	-0.839068	0.277932
C39	C	1.184664	-0.797802	0.328088
C40	C	1.134444	-0.839088	0.378249
C41	C	1.084198	-0.797823	0.428400
C42	C	1.033981	-0.839108	0.478566
C43	C	1.034013	-0.921657	0.478571
C44	C	1.184632	-0.715254	0.328083
C45	C	1.084167	-0.715270	0.428393
C46	C	1.339152	-0.380781	0.378250
C47	C	1.426402	-0.380787	0.378259
C48	C	1.134455	-0.380708	0.582972
C49	C	1.134476	-0.380683	0.670222
C50	C	1.134495	-0.174598	0.378258
C51	C	1.134533	-0.086741	0.378271
C52	C	1.134406	-0.380767	0.174279
C53	C	1.134538	-0.380569	0.087030
C54	C	1.184705	-0.330127	0.711226
C55	C	1.184714	-0.330101	0.793206
C56	C	1.134498	-0.380635	0.834181
C57	C	1.084263	-0.431193	0.793171
C58	C	1.084250	-0.431214	0.711192
C59	C	1.084295	-0.431145	0.964041
C60	C	1.084309	-0.431125	1.046026
C61	C	1.184759	-0.330032	1.046056
C62	C	1.184746	-0.330053	0.964077
C63	C	1.134512	-0.380613	0.923072
H64	H	0.835607	-0.472598	0.469136
H65	H	0.434032	-0.472620	0.469185
F66	F	0.845828	-0.276269	0.274767
H67	H	1.275796	-0.805459	0.237085
F68	F	1.030691	-0.671359	0.481776
H69	H	0.993129	-0.955278	0.519412
F70	F	1.238202	-0.276320	0.836843
H71	H	0.993067	-0.805501	0.519396
H72	H	0.582760	-0.472616	0.469164
F73	F	0.423748	-0.276307	0.274806
H74	H	0.582729	-0.288936	0.287327
H75	H	1.043404	-1.079094	0.469268
H76	H	0.686848	-0.288936	0.287319
H77	H	1.225651	-1.079055	0.287277
F78	F	1.288407	-0.965540	0.224574
F79	F	1.238064	-0.671319	0.274690
H80	H	1.225641	-0.288909	0.930717
F81	F	1.238157	-0.276345	0.667625
H82	H	1.225659	-0.288863	1.079445
H83	H	1.043373	-0.472335	0.826539
H84	H	1.043416	-0.472272	1.079385
F85	F	1.030828	-0.484954	0.920403
F86	F	1.030788	-0.485020	0.667552
H87	H	0.686889	-0.472601	0.469156
