data_functionalizedCrystal
_audit_creation_method	'MofGen! by Chris Wilmer'
_symmetry_space_group_name_H-M	'P1'
_symmetry_Int_Tables_number	1
_symmetry_cell_setting	triclinic
loop_
_symmetry_equiv_pos_as_xyz
  x,y,z
_cell_length_a	16.974885
_cell_length_b	23.532357
_cell_length_c	16.053802
_cell_angle_alpha	92.543277
_cell_angle_beta	91.069328
_cell_angle_gamma	83.111531
loop_
_atom_site_label
_atom_site_type_symbol
_atom_site_fract_x
_atom_site_fract_y
_atom_site_fract_z
O1	O	1.048482	0.072613	0.001338
O2	O	0.818952	0.081327	-0.014159
O3	O	0.940658	-0.005924	-0.005924
O4	O	0.926776	0.159864	-0.006896
O5	O	0.933959	-0.001141	0.132481
O6	O	0.812253	0.086110	0.124247
O7	O	1.041783	0.077396	0.139744
Zn8	Zn	0.925954	0.082512	0.153970
Zn9	Zn	0.934780	0.076211	-0.028385
O10	O	0.920077	0.164647	0.131510
C11	C	0.786243	0.083299	0.053062
C12	C	0.698761	0.082042	0.047156
C13	C	0.206731	0.074664	0.005757
C14	C	0.288929	0.075846	0.011317
C15	C	0.326367	0.079048	0.089543
C16	C	0.281604	0.081063	0.162213
C17	C	0.199409	0.079877	0.156652
C18	C	0.571803	0.082871	0.114265
C19	C	0.654004	0.084058	0.119821
C20	C	0.661323	0.078840	-0.031076
C21	C	0.579125	0.077658	-0.036630
C22	C	0.534370	0.079670	0.036040
N23	N	0.410386	0.080258	0.095229
N24	N	0.450354	0.078456	0.030354
C25	C	0.936961	-0.024751	0.063258
C26	C	0.935917	-0.087975	0.063195
C27	C	0.933016	-0.482632	-0.012738
C28	C	0.932023	-0.542037	-0.012809
O29	O	0.934589	-0.574974	-0.077009
N30	N	0.927880	-0.569144	0.062601
C31	C	0.924720	-0.536842	0.138088
O32	O	0.921104	-0.565353	0.202224
C33	C	0.925707	-0.477437	0.138159
C34	C	0.929859	-0.450334	0.062744
C35	C	0.937166	-0.455529	-0.088147
C36	C	0.938160	-0.396128	-0.088074
C37	C	0.935003	-0.363830	-0.012593
C38	C	0.930852	-0.390933	0.062816
C39	C	0.922541	-0.445136	0.213644
C40	C	0.923528	-0.385727	0.213708
C41	C	0.927680	-0.358624	0.138293
C42	C	0.928689	-0.299235	0.138369
N43	N	0.932833	-0.272128	0.062958
C44	C	0.935990	-0.304426	-0.012523
C45	C	0.922647	-0.661596	0.137934
C46	C	0.921666	-0.721000	0.137865
C47	C	0.928968	-0.726191	-0.013033
C48	C	0.929954	-0.666786	-0.012962
C49	C	0.926790	-0.634489	0.062524
C50	C	0.938077	-0.179679	-0.012365
C51	C	0.939074	-0.120273	-0.012286
C52	C	0.931768	-0.115087	0.138611
C53	C	0.930775	-0.174488	0.138532
C54	C	0.933927	-0.206783	0.063037
O55	O	0.926122	-0.266261	0.202536
O56	O	0.939595	-0.275906	-0.076649
C57	C	1.074492	0.075424	0.072521
C58	C	1.161974	0.076681	0.078422
C59	C	0.923774	0.183474	0.062326
C60	C	0.924818	0.246698	0.062383
N61	N	0.919937	0.086812	0.278423
N62	N	0.940804	0.071906	-0.152838
C63	C	0.971741	0.049700	0.325622
C64	C	0.967539	0.052714	0.412745
C65	C	0.911535	0.092842	0.452667
C66	C	0.859725	0.129956	0.405461
C67	C	0.863924	0.126940	0.318340
C68	C	0.893193	0.106003	0.712836
C69	C	0.889000	0.109018	0.799963
C70	C	0.996813	0.031774	0.807240
C71	C	1.001011	0.028764	0.720118
C72	C	0.949198	0.065875	0.672920
N73	N	0.907240	0.095925	0.541720
N74	N	0.953489	0.062790	0.583868
H75	H	0.684483	0.086670	0.183525
Cl76	Cl	0.818589	0.159472	0.850145
H77	H	0.176254	0.072061	-0.057943
Cl78	Cl	0.328670	0.085088	0.260555
Cl79	Cl	0.916461	-0.755066	0.232678
Cl80	Cl	1.042154	-0.000748	0.275444
H81	H	0.942457	-0.098209	-0.073701
H82	H	0.939734	-0.481819	-0.149616
Cl83	Cl	0.918677	-0.620999	0.232841
Cl84	Cl	0.917316	-0.479193	0.308458
Cl85	Cl	1.061943	-0.014880	0.866578
Cl86	Cl	0.789315	0.180402	0.455647
H87	H	0.821738	0.157160	0.279911
H88	H	0.940640	-0.205966	-0.073841
H89	H	0.535375	0.084501	0.173439
H90	H	1.046613	-0.003913	0.687615
Cl91	Cl	0.143144	0.082407	0.248007
Cl92	Cl	0.927799	-0.074473	0.233496
Cl93	Cl	0.919551	-0.345128	0.308611
H94	H	0.548649	0.075050	-0.100330
Cl95	Cl	0.345192	0.073308	-0.080037
H96	H	0.931536	-0.752498	-0.074494
Cl97	Cl	0.943372	-0.362064	-0.182888
H98	H	0.697771	0.077201	-0.090240
Cl99	Cl	0.935171	-0.632720	-0.107773
Cl100	Cl	0.925570	-0.208563	0.233342
H101	H	1.009722	0.022493	0.451174
H102	H	0.851006	0.136222	0.674414
