data_functionalizedCrystal
_audit_creation_method	'MofGen! by Chris Wilmer'
_symmetry_space_group_name_H-M	'P1'
_symmetry_Int_Tables_number	1
_symmetry_cell_setting	triclinic
loop_
_symmetry_equiv_pos_as_xyz
  x,y,z
_cell_length_a	12.759401
_cell_length_b	21.295417
_cell_length_c	21.295411
_cell_angle_alpha	89.978356
_cell_angle_beta	89.977265
_cell_angle_gamma	90.032032
loop_
_atom_site_label
_atom_site_type_symbol
_atom_site_fract_x
_atom_site_fract_y
_atom_site_fract_z
Zn1	Zn	1.606170	-0.250655	-0.355881
Zn2	Zn	1.606007	-0.355907	-0.250606
Zn3	Zn	1.430463	-0.250659	-0.250629
Zn4	Zn	1.430412	-0.355893	-0.355841
O5	O	1.518263	-0.303279	-0.303239
O6	O	1.753169	-0.264622	-0.341923
O7	O	1.582674	-0.341953	-0.162520
O8	O	1.453860	-0.162569	-0.264617
O9	O	1.753049	-0.341950	-0.264578
O10	O	1.582951	-0.162566	-0.341945
O11	O	1.453702	-0.264627	-0.162537
O12	O	1.283435	-0.264614	-0.264579
O13	O	1.453773	-0.341926	-0.443936
O14	O	1.283397	-0.341929	-0.341878
O15	O	1.582902	-0.264608	-0.443965
O16	O	1.582624	-0.443995	-0.264540
O17	O	1.453615	-0.443985	-0.341855
C18	C	1.245295	-0.303271	-0.303227
C19	C	1.128519	-0.303283	-0.303236
C20	C	1.518125	-0.466830	-0.303204
C21	C	1.518162	-0.536798	-0.303211
C22	C	1.073665	-0.343602	-0.343423
C23	C	0.963941	-0.343605	-0.343435
C24	C	0.963934	-0.262966	-0.263070
C25	C	1.073656	-0.262961	-0.263061
C26	C	1.585397	-0.569649	-0.262994
C27	C	1.585446	-0.635392	-0.263008
C28	C	1.518242	-0.668281	-0.303232
C29	C	1.451002	-0.635422	-0.343457
C30	C	1.450963	-0.569681	-0.343446
N31	N	1.426335	-0.771549	-0.308027
N32	N	1.426376	-0.834000	-0.308034
C33	C	1.518360	-0.866356	-0.303268
N34	N	1.610303	-0.833900	-0.298484
N35	N	1.610261	-0.771443	-0.298474
C36	C	1.518278	-0.739566	-0.303249
C37	C	1.585653	-0.970492	-0.263065
C38	C	1.585704	-1.036236	-0.263083
C39	C	1.451251	-1.036265	-0.343529
C40	C	1.451210	-0.970522	-0.343514
C41	C	1.518409	-0.937640	-0.303278
C42	C	1.792296	-0.303287	-0.303252
C43	C	1.909073	-0.303290	-0.303258
C44	C	1.518350	-0.303265	-0.467430
C45	C	1.518387	-0.303260	-0.537398
C46	C	1.518430	-0.139088	-0.303288
C47	C	1.518501	-0.069120	-0.303309
C48	C	1.585621	-0.262998	-0.570281
C49	C	1.585620	-0.262971	-0.636023
C50	C	1.518395	-0.303216	-0.668880
C51	C	1.451148	-0.343480	-0.635990
C52	C	1.451144	-0.343502	-0.570248
N53	N	1.510289	-0.358284	-0.772096
N54	N	1.510299	-0.358262	-0.834547
C55	C	1.518402	-0.303152	-0.866955
N56	N	1.526514	-0.248065	-0.834552
N57	N	1.526510	-0.248088	-0.772095
C58	C	1.518392	-0.303197	-0.740166
C59	C	1.585638	-0.262858	-0.971124
C60	C	1.585629	-0.262830	-1.036867
C61	C	1.451163	-0.343345	-1.036833
C62	C	1.451166	-0.343368	-0.971090
C63	C	1.518409	-0.303125	-0.938240
C64	C	1.518236	-0.303246	-0.139688
C65	C	1.518403	-0.303075	-0.069720
H66	H	1.118330	-0.376433	-0.376138
H67	H	1.640368	-0.230182	-0.662802
H68	H	1.396423	-0.376156	-0.944317
O69	O	1.650818	-0.223806	-0.538407
C70	C	1.701952	-0.116729	-0.518370
C71	C	1.628039	-0.161048	-0.554491
H72	H	1.683576	-0.065981	-0.531370
H73	H	1.690410	-0.123593	-0.465724
H74	H	1.786650	-0.127812	-0.531310
H75	H	1.543312	-0.149993	-0.541604
H76	H	1.639671	-0.154177	-0.607128
O77	O	1.650988	-0.938478	-0.224073
C78	C	1.792837	-0.864209	-0.215667
C79	C	1.718895	-0.900411	-0.259895
H80	H	1.847774	-0.833433	-0.244611
H81	H	1.744669	-0.833435	-0.182728
H82	H	1.840858	-0.898998	-0.186915
H83	H	1.670858	-0.865667	-0.288687
H84	H	1.767124	-0.931193	-0.292793
O85	O	0.910589	-0.223893	-0.223977
C86	C	0.786588	-0.215299	-0.139043
C87	C	0.846952	-0.259622	-0.183266
H88	H	0.735107	-0.244167	-0.106126
H89	H	0.844594	-0.186488	-0.110273
H90	H	0.735318	-0.182419	-0.168025
H91	H	0.898224	-0.292540	-0.154332
H92	H	0.788890	-0.288388	-0.212038
O93	O	1.385999	-0.382644	-0.667932
C94	C	1.371784	-0.467586	-0.742174
C95	C	1.445691	-0.423283	-0.706029
H96	H	1.420015	-0.500445	-0.772994
H97	H	1.323746	-0.496413	-0.707403
H98	H	1.316861	-0.438661	-0.772916
H99	H	1.500678	-0.452159	-0.675286
H100	H	1.493655	-0.394454	-0.740833
H101	H	1.640117	-0.542879	-0.230233
O102	O	1.650790	-0.667215	-0.223877
C103	C	1.784169	-0.660253	-0.144101
C104	C	1.710206	-0.624139	-0.188374
H105	H	1.832242	-0.625442	-0.115395
H106	H	1.736018	-0.691057	-0.111128
H107	H	1.839056	-0.691005	-0.173043
H108	H	1.655304	-0.593353	-0.159483
H109	H	1.758422	-0.593374	-0.221350
O110	O	1.385794	-0.537738	-0.382580
C111	C	1.371541	-0.463441	-0.467518
C112	C	1.445466	-0.499590	-0.423251
H113	H	1.419756	-0.432580	-0.500403
H114	H	1.323535	-0.498209	-0.496320
H115	H	1.316589	-0.432739	-0.438568
H116	H	1.500482	-0.530293	-0.452152
H117	H	1.493398	-0.464788	-0.394447
O118	O	1.650979	-0.223704	-0.939305
C119	C	1.784389	-0.143867	-0.946277
C120	C	1.710428	-0.188167	-0.982386
H121	H	1.832488	-0.115133	-0.981092
H122	H	1.736235	-0.110921	-0.915504
H123	H	1.839252	-0.172790	-0.915494
H124	H	1.655551	-0.159295	-1.013203
H125	H	1.758647	-0.221115	-1.013119
H126	H	1.396389	-0.376287	-0.543476
H127	H	1.396537	-1.063042	-0.376284
O128	O	1.126996	-0.223727	-0.224111
C129	C	1.250990	-0.138748	-0.215794
C130	C	1.190630	-0.183130	-0.259971
H131	H	1.302469	-0.105923	-0.244769
H132	H	1.192980	-0.109887	-0.187088
H133	H	1.302261	-0.167611	-0.182809
H134	H	1.139357	-0.154315	-0.292994
H135	H	1.248696	-0.211993	-0.288633
H136	H	1.640461	-1.062982	-0.230335
H137	H	1.640378	-0.230041	-1.063639
O138	O	0.910609	-0.382683	-0.382538
C139	C	0.786758	-0.391288	-0.467499
C140	C	0.847107	-0.346960	-0.423262
H141	H	0.735385	-0.362425	-0.500426
H142	H	0.844773	-0.420093	-0.496256
H143	H	0.735380	-0.424173	-0.438527
H144	H	0.898487	-0.314037	-0.452184
H145	H	0.789035	-0.318200	-0.394502
O146	O	1.386014	-0.382512	-1.068767
C147	C	1.371805	-0.467458	-1.143004
C148	C	1.445709	-0.423149	-1.106865
H149	H	1.420038	-0.500315	-1.173825
H150	H	1.323777	-0.496287	-1.108230
H151	H	1.316873	-0.438538	-1.173746
H152	H	1.500705	-0.452020	-1.076123
H153	H	1.493663	-0.394318	-1.141673
O154	O	1.385865	-0.667437	-0.382562
C155	C	1.371711	-0.741595	-0.467579
C156	C	1.445594	-0.705390	-0.423318
H157	H	1.419973	-0.772280	-0.500550
H158	H	1.316833	-0.772461	-0.438688
H159	H	1.323623	-0.706808	-0.496293
H160	H	1.493750	-0.740132	-0.394594
H161	H	1.500403	-0.674515	-0.452245
H162	H	1.396457	-0.943773	-0.376260
