data_functionalizedCrystal
_audit_creation_method	'MofGen! by Chris Wilmer'
_symmetry_space_group_name_H-M	'P1'
_symmetry_Int_Tables_number	1
_symmetry_cell_setting	triclinic
loop_
_symmetry_equiv_pos_as_xyz
  x,y,z
_cell_length_a	6.817900
_cell_length_b	9.514063
_cell_length_c	12.200875
_cell_angle_alpha	89.403086
_cell_angle_beta	107.143593
_cell_angle_gamma	118.843314
loop_
_atom_site_label
_atom_site_type_symbol
_atom_site_fract_x
_atom_site_fract_y
_atom_site_fract_z
V1	V	-4.153274	-0.222572	-0.358568
V2	V	-3.819941	0.110762	-0.025235
V3	V	-3.486607	0.444095	0.308099
O4	O	-4.051100	0.010320	-0.350810
O5	O	-3.717767	0.343653	-0.017477
O6	O	-3.384433	0.676987	0.315856
O7	O	-4.187867	-0.440961	-0.357012
O8	O	-3.854534	-0.107628	-0.023679
O9	O	-3.521201	0.225706	0.309654
O10	O	-4.121753	-0.219313	-0.514543
O11	O	-3.788420	0.114021	-0.181210
O12	O	-3.455087	0.447354	0.152124
O13	O	-4.117672	-0.212863	-0.192189
O14	O	-3.784339	0.120471	0.141144
O15	O	-3.451005	0.453804	0.474478
V16	V	-4.623961	-0.194696	-0.338559
V17	V	-4.290627	0.138638	-0.005226
V18	V	-3.957294	0.471971	0.328108
O19	O	-4.442690	-0.283720	-0.402460
O20	O	-4.109356	0.049613	-0.069127
O21	O	-3.776023	0.382947	0.264207
O22	O	-4.784742	-0.133547	-0.294667
O23	O	-4.451409	0.199786	0.038666
O24	O	-4.118076	0.533119	0.371999
O25	O	-4.366161	0.023694	-0.340115
O26	O	-4.032827	0.357027	-0.006782
O27	O	-3.699494	0.690360	0.326552
O28	O	-4.843531	-0.427587	-0.346317
O29	O	-4.510198	-0.094254	-0.012983
O30	O	-4.176865	0.239079	0.320350
O31	O	-4.776960	-0.204405	-0.504938
O32	O	-4.443626	0.128929	-0.171605
O33	O	-4.110293	0.462262	0.161729
O34	O	-4.432275	-0.197954	-0.182584
O35	O	-4.098942	0.135379	0.150749
O36	O	-3.765608	0.468712	0.484083
C37	C	-4.052512	-0.494195	-0.351587
C38	C	-3.719179	-0.160861	-0.018254
C39	C	-3.385845	0.172472	0.315080
C40	C	-4.162195	-0.672732	-0.351354
C41	C	-3.828862	-0.339398	-0.018021
C42	C	-3.495529	-0.006065	0.315312
C43	C	-3.968175	-0.211458	-0.552532
C44	C	-3.634841	0.121875	-0.219199
C45	C	-3.301508	0.455209	0.114135
C46	C	-4.024236	-0.210239	-0.680048
C47	C	-3.690902	0.123095	-0.346715
C48	C	-3.357569	0.456428	-0.013381
C49	C	-4.126836	-0.208008	-0.913513
C50	C	-3.793503	0.125325	-0.580180
C51	C	-3.460169	0.458659	-0.246847
C52	C	-4.069733	-0.209248	-0.783596
C53	C	-3.736400	0.124085	-0.450263
C54	C	-3.403067	0.457418	-0.116930
C55	C	-4.164861	0.076919	-0.345537
C56	C	-3.831528	0.410252	-0.012204
C57	C	-3.498194	0.743586	0.321130
C58	C	-4.034417	0.255455	-0.345777
C59	C	-3.701084	0.588788	-0.012444
C60	C	-3.367751	0.922121	0.320890
C61	C	-4.249197	-0.205814	-0.144589
C62	C	-3.915863	0.127519	0.188744
C63	C	-3.582530	0.460852	0.522077
C64	C	-4.172371	-0.207026	-0.017072
C65	C	-3.839038	0.126308	0.316261
C66	C	-3.505704	0.459641	0.649595
H67	H	-4.355494	-0.747832	-0.355937
H68	H	-4.022161	-0.414499	-0.022604
H69	H	-3.688828	-0.081165	0.310730
H70	H	-3.841094	-0.669433	-0.341177
H71	H	-3.507761	-0.336100	-0.007844
H72	H	-3.174427	-0.002766	0.325490
