data_functionalizedCrystal
_audit_creation_method	'MofGen! by Chris Wilmer'
_symmetry_space_group_name_H-M	'P1'
_symmetry_Int_Tables_number	1
_symmetry_cell_setting	triclinic
loop_
_symmetry_equiv_pos_as_xyz
  x,y,z
_cell_length_a	14.519731
_cell_length_b	10.654550
_cell_length_c	12.996460
_cell_angle_alpha	89.990231
_cell_angle_beta	90.001271
_cell_angle_gamma	95.913122
loop_
_atom_site_label
_atom_site_type_symbol
_atom_site_fract_x
_atom_site_fract_y
_atom_site_fract_z
O1	O	0.129525	-1.666613	0.085654
O2	O	0.629525	-1.166613	0.585654
O3	O	0.141866	-1.301017	0.085638
O4	O	0.641866	-0.801017	0.585638
O5	O	0.001508	-1.493495	0.085637
O6	O	0.501508	-0.993495	0.585637
O7	O	0.269882	-1.474136	0.085655
O8	O	0.769882	-0.974136	0.585655
O9	O	0.001516	-1.493470	-0.085497
O10	O	0.501516	-0.993470	0.414503
O11	O	0.141874	-1.300993	-0.085496
O12	O	0.641874	-0.800993	0.414504
O13	O	0.129533	-1.666589	-0.085480
O14	O	0.629533	-1.166589	0.414520
Cu15	Cu	0.135704	-1.483788	-0.101114
Cu16	Cu	0.635704	-0.983788	0.398886
Cu17	Cu	0.135694	-1.483818	0.101272
Cu18	Cu	0.635694	-0.983818	0.601272
O19	O	0.269890	-1.474111	-0.085479
O20	O	0.769890	-0.974111	0.414521
C21	C	0.140964	-1.254216	0.000069
C22	C	0.640964	-0.754216	0.500069
C23	C	0.138253	-1.114798	0.000062
C24	C	0.638253	-0.614798	0.500062
C25	C	-0.032852	-1.492575	0.000070
C26	C	0.467148	-0.992575	0.500070
C27	C	-0.135246	-1.489857	0.000069
C28	C	0.364754	-0.989857	0.500069
C29	C	0.130435	-1.713390	0.000092
C30	C	0.630435	-1.213390	0.500092
C31	C	0.133146	-1.852808	0.000105
C32	C	0.633146	-1.352808	0.500105
C33	C	-0.218402	-1.487649	0.000071
C34	C	0.281598	-0.987649	0.500071
C35	C	-0.322725	-1.484889	0.000079
C36	C	0.177275	-0.984889	0.500079
C37	C	-0.405875	-1.482699	0.000086
C38	C	0.094125	-0.982699	0.500086
C39	C	-0.510205	-1.479939	0.000091
C40	C	-0.010205	-0.979939	0.500091
C41	C	0.304250	-1.475031	0.000090
C42	C	0.804250	-0.975031	0.500090
C43	C	0.406645	-1.477749	0.000098
C44	C	0.906645	-0.977749	0.500098
N45	N	0.135710	-1.483777	-0.243461
N46	N	0.635710	-0.983777	0.256539
C47	C	0.220893	-1.034527	0.000083
C48	C	0.720893	-0.534527	0.500083
C49	C	0.218340	-0.903530	0.000100
C50	C	0.718340	-0.403530	0.500100
C51	C	0.050499	-0.933090	0.000081
C52	C	0.550499	-0.433090	0.500081
C53	C	0.053053	-1.064084	0.000056
C54	C	0.553053	-0.564084	0.500056
C55	C	0.317794	-1.017459	0.000098
C56	C	0.817794	-0.517459	0.500098
C57	C	0.315241	-0.886463	0.000116
C58	C	0.815241	-0.386463	0.500116
C59	C	0.135712	-1.483783	-0.336567
C60	C	0.635712	-0.983783	0.163433
C61	C	0.135706	-1.483794	-0.453372
C62	C	0.635706	-0.983794	0.046628
C63	C	0.135696	-1.483810	-0.546470
C64	C	0.635696	-0.983810	-0.046470
C65	C	0.135691	-1.483823	-0.663283
C66	C	0.635691	-0.983823	-0.163283
N67	N	0.135681	-1.483839	0.243619
N68	N	0.635681	-0.983839	0.743619
H69	H	-0.018867	-0.891782	0.000092
H70	H	0.481133	-0.391782	0.500092
H71	H	0.355696	-1.046420	-0.071523
H72	H	0.855696	-0.546420	0.428477
C73	C	0.361960	-0.698640	0.096809
C74	C	0.861960	-0.198640	0.596809
C75	C	0.364516	-0.829657	0.096809
C76	C	0.864516	-0.329657	0.596809
H77	H	0.392383	-0.663574	0.156498
H78	H	0.892383	-0.163574	0.656498
H79	H	0.299398	-0.679942	0.096805
H80	H	0.799398	-0.179942	0.596805
H81	H	0.392383	-0.663551	0.037128
H82	H	0.892383	-0.163551	0.537128
H83	H	0.334087	-0.864748	0.156486
H84	H	0.834087	-0.364748	0.656486
H85	H	0.427090	-0.848366	0.096822
H86	H	0.927090	-0.348366	0.596822
H87	H	0.348646	-1.052832	0.073986
H88	H	0.848646	-0.552832	0.573986
H89	H	-0.014241	-1.129437	0.000025
H90	H	0.485759	-0.629437	0.500025
C91	C	0.383352	-0.917253	-0.165132
C92	C	0.883352	-0.417253	0.334868
C93	C	0.354781	-0.824404	-0.099614
C94	C	0.854781	-0.324404	0.400386
H95	H	0.407765	-0.878935	-0.226697
H96	H	0.907765	-0.378935	0.273303
H97	H	0.331934	-0.976489	-0.181179
H98	H	0.831934	-0.476489	0.318821
H99	H	0.429749	-0.959290	-0.131958
H100	H	0.929749	-0.459290	0.368042
H101	H	0.308379	-0.782373	-0.132786
H102	H	0.808379	-0.282373	0.367214
H103	H	0.406205	-0.765146	-0.083570
H104	H	0.906205	-0.265146	0.416430
