data_functionalizedCrystal
_audit_creation_method	'MofGen! by Chris Wilmer'
_symmetry_space_group_name_H-M	'P1'
_symmetry_Int_Tables_number	1
_symmetry_cell_setting	triclinic
loop_
_symmetry_equiv_pos_as_xyz
  x,y,z
_cell_length_a	23.532407
_cell_length_b	22.610064
_cell_length_c	15.944493
_cell_angle_alpha	89.992417
_cell_angle_beta	83.161895
_cell_angle_gamma	90.011311
loop_
_atom_site_label
_atom_site_type_symbol
_atom_site_fract_x
_atom_site_fract_y
_atom_site_fract_z
O1	O	0.755649	0.049140	0.101959
O2	O	1.255649	0.549140	0.601959
O3	O	0.589840	0.049148	0.116712
O4	O	1.089840	0.549148	0.616712
O5	O	0.677290	0.049149	-0.012981
O6	O	1.177290	0.549149	0.487019
O7	O	0.668199	0.049139	0.231652
O8	O	1.168199	0.549139	0.731652
O9	O	0.677265	-0.049220	-0.012966
O10	O	1.177265	0.450780	0.487034
O11	O	0.589816	-0.049221	0.116727
O12	O	1.089816	0.450779	0.616727
O13	O	0.755624	-0.049229	0.101973
O14	O	1.255624	0.450771	0.601973
Zn15	Zn	0.672716	-0.064843	0.109353
Zn16	Zn	1.172716	0.435157	0.609353
Zn17	Zn	0.672748	0.064762	0.109333
Zn18	Zn	1.172748	0.564762	0.609333
O19	O	0.668175	-0.049230	0.231667
O20	O	1.168175	0.450770	0.731667
C21	C	0.568611	-0.000035	0.116344
C22	C	1.068611	0.499965	0.616344
C23	C	0.505389	-0.000032	0.115214
C24	C	1.005389	0.499968	0.615214
C25	C	0.238918	-0.000045	0.033806
C26	C	0.738918	0.499955	0.533806
C27	C	0.298322	-0.000044	0.034856
C28	C	0.798322	0.499956	0.534856
O29	O	0.334826	-0.000062	-0.029724
O30	O	0.834826	0.499938	0.470276
N31	N	0.321236	-0.000043	0.111958
N32	N	0.821236	0.499957	0.611958
C33	C	0.284742	-0.000048	0.188017
C34	C	0.784742	0.499952	0.688017
O35	O	0.309687	-0.000048	0.253695
O36	O	0.809687	0.499952	0.753695
C37	C	0.225339	-0.000053	0.186966
C38	C	0.725339	0.499947	0.686966
C39	C	0.202429	-0.000048	0.109859
C40	C	0.702429	0.499952	0.609859
C41	C	0.216007	-0.000040	-0.043295
C42	C	0.716007	0.499960	0.456705
C43	C	0.156607	-0.000039	-0.044344
C44	C	0.656607	0.499961	0.455656
C45	C	0.120118	-0.000043	0.031708
C46	C	0.620118	0.499957	0.531708
C47	C	0.143029	-0.000047	0.108810
C48	C	0.643029	0.499953	0.608810
C49	C	0.188847	-0.000062	0.263024
C50	C	0.688847	0.499938	0.763024
C51	C	0.129441	-0.000067	0.261967
C52	C	0.629441	0.499933	0.761967
C53	C	0.106530	-0.000062	0.184859
C54	C	0.606530	0.499938	0.684859
C55	C	0.047140	-0.000049	0.183813
C56	C	0.547140	0.499951	0.683813
N57	N	0.024226	-0.000050	0.106711
N58	N	0.524226	0.499950	0.606711
C59	C	0.060715	-0.000047	0.030658
C60	C	0.560715	0.499953	0.530658
C61	C	0.409493	-0.000040	0.190216
C62	C	0.909493	0.499960	0.690216
C63	C	0.468895	-0.000032	0.191267
C64	C	0.968895	0.499968	0.691267
C65	C	0.482471	-0.000029	0.038106
C66	C	0.982471	0.499971	0.538106
C67	C	0.423068	-0.000033	0.037056
C68	C	0.923068	0.499967	0.537056
C69	C	0.386579	-0.000041	0.113114
C70	C	0.886579	0.499959	0.613114
C71	C	-0.064030	-0.000044	0.028461
C72	C	0.435970	0.499956	0.528461
C73	C	-0.123436	-0.000041	0.027419
C74	C	0.376564	0.499959	0.527419
C75	C	-0.137006	-0.000047	0.180580
C76	C	0.362994	0.499953	0.680580
C77	C	-0.077606	-0.000047	0.181622
C78	C	0.422394	0.499953	0.681622
C79	C	-0.041118	-0.000048	0.105556
C80	C	0.458882	0.499952	0.605556
O81	O	0.010602	-0.000034	0.248359
O82	O	0.510602	0.499966	0.748359
O83	O	0.035762	-0.000055	-0.035009
O84	O	0.535762	0.499945	0.464991
N85	N	0.672698	-0.153296	0.109365
N86	N	1.172698	0.346704	0.609365
C87	C	0.638201	-0.438133	0.058640
C88	C	1.138201	0.061867	0.558640
C89	C	0.638196	-0.376213	0.058644
C90	C	1.138196	0.123787	0.558644
O91	O	0.608842	-0.344185	0.015518
O92	O	1.108842	0.155815	0.515518
N93	N	0.672721	-0.345248	0.109338
N94	N	1.172721	0.154752	0.609338
C95	C	0.707259	-0.376206	0.160026
C96	C	1.207259	0.123794	0.660026
O97	O	0.736626	-0.344182	0.203145
O98	O	1.236626	0.155818	0.703145
C99	C	0.707267	-0.438125	0.160016
C100	C	1.207267	0.061875	0.660016
C101	C	0.672735	-0.469087	0.109325
C102	C	1.172735	0.030913	0.609325
C103	C	0.603672	-0.469095	0.007952
C104	C	1.103672	0.030905	0.507952
C105	C	0.603677	-0.531011	0.007949
C106	C	1.103677	-0.031011	0.507949
C107	C	0.638211	-0.561964	0.058635
C108	C	1.138211	-0.061964	0.558635
C109	C	0.672740	-0.531002	0.109322
C110	C	1.172740	-0.031002	0.609322
C111	C	0.741808	-0.469082	0.210699
C112	C	1.241808	0.030918	0.710699
C113	C	0.741814	-0.531005	0.210684
C114	C	1.241814	-0.031005	0.710684
C115	C	0.707281	-0.561967	0.159993
C116	C	1.207281	-0.061967	0.659993
C117	C	0.707279	-0.623872	0.160005
C118	C	1.207279	-0.123872	0.660005
N119	N	0.672753	-0.654837	0.109310
N120	N	1.172753	-0.154837	0.609310
C121	C	0.638219	-0.623883	0.058625
C122	C	1.138219	-0.123883	0.558625
C123	C	0.707240	-0.246172	0.160040
C124	C	1.207240	0.253828	0.660040
C125	C	0.707230	-0.184255	0.160054
C126	C	1.207230	0.315745	0.660054
C127	C	0.638167	-0.184266	0.058671
C128	C	1.138167	0.315734	0.558671
C129	C	0.638175	-0.246185	0.058662
C130	C	1.138175	0.253815	0.558662
C131	C	0.672715	-0.277138	0.109346
C132	C	1.172715	0.222862	0.609346
C133	C	0.638231	-0.753910	0.058624
C134	C	1.138231	-0.253910	0.558624
C135	C	0.638237	-0.815832	0.058628
C136	C	1.138237	-0.315832	0.558628
C137	C	0.707302	-0.815815	0.160008
C138	C	1.207302	-0.315815	0.660008
C139	C	0.707294	-0.753899	0.160007
C140	C	1.207294	-0.253899	0.660007
C141	C	0.672757	-0.722948	0.109308
C142	C	1.172757	-0.222948	0.609308
O143	O	0.736619	-0.655939	0.203106
O144	O	1.236619	-0.155939	0.703106
O145	O	0.608862	-0.655915	0.015505
O146	O	1.108862	-0.155915	0.515505
C147	C	0.776854	-0.000044	0.102342
C148	C	1.276854	0.499956	0.602342
C149	C	0.840075	-0.000044	0.103471
C150	C	1.340075	0.499956	0.603471
C151	C	0.676906	-0.000033	-0.044265
C152	C	1.176906	0.499967	0.455735
C153	C	0.675792	-0.000026	-0.137504
C154	C	1.175792	0.499974	0.362496
N155	N	0.672771	0.153215	0.109314
N156	N	1.172771	0.653215	0.609314
C157	C	0.727266	-0.000039	-0.373698
C158	C	1.227266	0.499961	0.126302
C159	C	0.699520	0.048463	-0.424040
C160	C	1.199520	0.548463	0.075960
C161	C	0.673728	-0.000033	-0.308208
C162	C	1.173728	0.499967	0.191792
C163	C	0.699483	-0.048522	-0.424001
C164	C	1.199483	0.451478	0.075999
C165	C	0.671738	-0.000042	-0.473101
C166	C	1.171738	0.499958	0.026899
C167	C	0.645996	0.048509	-0.357321
C168	C	1.145996	0.548509	0.142679
C169	C	0.645967	-0.048518	-0.357279
C170	C	1.145967	0.451482	0.142721
C171	C	0.618182	-0.000004	-0.407588
C172	C	1.118182	0.499996	0.092412
C173	C	0.674876	-0.000027	-0.213218
C174	C	1.174876	0.499973	0.286782
C175	C	0.670586	-0.000044	-0.568088
C176	C	1.170586	0.499956	-0.068088
C177	C	0.668559	-0.000046	0.262951
C178	C	1.168559	0.499954	0.762951
C179	C	0.669672	-0.000050	0.356190
C180	C	1.169672	0.499950	0.856190
H181	H	-0.142086	-0.000035	-0.035374
H182	H	0.357914	0.499965	0.464626
H183	H	0.245711	-0.000039	-0.105230
H184	H	0.745711	0.499961	0.394770
H185	H	-0.058951	-0.000051	0.244410
H186	H	0.441049	0.499949	0.744410
H187	H	0.575550	-0.443899	-0.033326
H188	H	1.075550	0.056101	0.466674
H189	H	0.572029	0.000025	-0.422665
H190	H	1.072029	0.500025	0.077335
H191	H	0.735417	-0.841028	0.201276
H192	H	1.235417	-0.341028	0.701276
H193	H	0.610055	-0.271390	0.017385
H194	H	1.110055	0.228610	0.517385
H195	H	0.512191	-0.000026	-0.023820
H196	H	1.012191	0.499974	0.476180
H197	H	0.773383	0.000007	-0.358458
H198	H	1.273383	0.500007	0.141542
H199	H	-0.034329	-0.000045	-0.033479
H200	H	0.465671	0.499955	0.466521
H201	H	0.769942	-0.556203	0.251957
H202	H	1.269942	-0.056203	0.751957
H203	H	0.099734	-0.000076	0.323904
H204	H	0.599734	0.499924	0.823904
H205	H	-0.166726	-0.000047	0.242500
H206	H	0.333274	0.499953	0.742500
H207	H	0.722141	0.089466	-0.453182
H208	H	1.222141	0.589466	0.046818
H209	H	0.404418	-0.000030	-0.025732
H210	H	0.904418	0.499970	0.474268
H211	H	0.722094	-0.089524	-0.453116
H212	H	1.222094	0.410476	0.046884
H213	H	0.735405	-0.728688	0.201296
H214	H	1.235405	-0.228688	0.701296
H215	H	0.610114	-0.841038	0.017350
H216	H	1.110114	-0.341038	0.517350
H217	H	0.623409	0.089558	-0.328317
H218	H	1.123409	0.589558	0.171683
H219	H	0.610107	-0.728718	0.017341
H220	H	1.110107	-0.228718	0.517341
H221	H	0.575559	-0.556215	-0.033332
H222	H	1.075559	-0.056215	0.466668
H223	H	0.487543	-0.000027	0.254056
H224	H	0.987543	0.499973	0.754056
H225	H	0.137959	-0.000038	-0.107133
H226	H	0.637959	0.499962	0.392867
H227	H	0.379787	-0.000043	0.252156
H228	H	0.879787	0.499957	0.752156
H229	H	0.769929	-0.443883	0.251975
H230	H	1.269929	0.056117	0.751975
H231	H	0.207490	-0.000063	0.325813
H232	H	0.707490	0.499937	0.825813
H233	H	0.610047	-0.159053	0.017401
H234	H	1.110047	0.340947	0.517401
H235	H	0.735343	-0.159051	0.201343
H236	H	1.235343	0.340949	0.701343
H237	H	0.735365	-0.271370	0.201320
H238	H	1.235365	0.228630	0.701320
H239	H	0.623366	-0.089523	-0.328122
H240	H	1.123366	0.410477	0.171878
