data_functionalizedCrystal
_audit_creation_method	'MofGen! by Chris Wilmer'
_symmetry_space_group_name_H-M	'P1'
_symmetry_Int_Tables_number	1
_symmetry_cell_setting	triclinic
loop_
_symmetry_equiv_pos_as_xyz
  x,y,z
_cell_length_a	12.594516
_cell_length_b	17.077404
_cell_length_c	17.077396
_cell_angle_alpha	90.017442
_cell_angle_beta	89.976020
_cell_angle_gamma	89.986879
loop_
_atom_site_label
_atom_site_type_symbol
_atom_site_fract_x
_atom_site_fract_y
_atom_site_fract_z
Zn1	Zn	-0.423817	-1.200074	-0.443876
Zn2	Zn	-0.090483	-0.866741	-0.110543
Zn3	Zn	0.242850	-0.533408	0.222791
Zn4	Zn	-0.601820	-1.200002	-0.312622
Zn5	Zn	-0.268487	-0.866669	0.020711
Zn6	Zn	0.064847	-0.533336	0.354045
Zn7	Zn	-0.423847	-1.068811	-0.312623
Zn8	Zn	-0.090513	-0.735478	0.020710
Zn9	Zn	0.242820	-0.402145	0.354043
Zn10	Zn	-0.601744	-1.068790	-0.443845
Zn11	Zn	-0.268411	-0.735457	-0.110512
Zn12	Zn	0.064922	-0.402123	0.222821
O13	O	-0.512807	-1.134419	-0.378242
O14	O	-0.179474	-0.801086	-0.044908
O15	O	0.153860	-0.467753	0.288425
O16	O	-0.447448	-1.309912	-0.426477
O17	O	-0.114115	-0.976578	-0.093144
O18	O	0.219219	-0.643245	0.240190
O19	O	-0.578256	-1.182578	-0.202775
O20	O	-0.244922	-0.849245	0.130558
O21	O	0.088411	-0.515912	0.463891
O22	O	-0.274897	-1.086263	-0.330048
O23	O	0.058436	-0.752930	0.003286
O24	O	0.391770	-0.419596	0.336619
O25	O	-0.578226	-1.309859	-0.330046
O26	O	-0.244893	-0.976525	0.003288
O27	O	0.088440	-0.643192	0.336621
O28	O	-0.274875	-1.182701	-0.426478
O29	O	0.058459	-0.849368	-0.093145
O30	O	0.391792	-0.516035	0.240188
O31	O	-0.447500	-1.086193	-0.202776
O32	O	-0.114166	-0.752860	0.130557
O33	O	0.219167	-0.419526	0.463890
O34	O	-0.447426	-0.958962	-0.330018
O35	O	-0.114093	-0.625628	0.003315
O36	O	0.219240	-0.292295	0.336649
O37	O	-0.578098	-1.086226	-0.553696
O38	O	-0.244764	-0.752893	-0.220363
O39	O	0.088569	-0.419560	0.112970
O40	O	-0.578127	-0.958946	-0.426426
O41	O	-0.244794	-0.625612	-0.093093
O42	O	0.088540	-0.292279	0.240241
O43	O	-0.447375	-1.182680	-0.553719
O44	O	-0.114042	-0.849347	-0.220386
O45	O	0.219292	-0.516014	0.112948
O46	O	-0.750756	-1.182558	-0.330016
O47	O	-0.417422	-0.849224	0.003317
O48	O	-0.084089	-0.515891	0.336651
O49	O	-0.750700	-1.086156	-0.426425
O50	O	-0.417367	-0.752823	-0.093092
O51	O	-0.084034	-0.419490	0.240242
C52	C	-0.512772	-0.930472	-0.378219
C53	C	-0.179439	-0.597138	-0.044886
C54	C	0.153894	-0.263805	0.288447
C55	C	-0.512783	-0.843222	-0.378228
C56	C	-0.179450	-0.509889	-0.044895
C57	C	0.153883	-0.176555	0.288438
C58	C	-0.444807	-0.802260	-0.428516
C59	C	-0.111474	-0.468927	-0.095183
C60	C	0.221859	-0.135593	0.238151
C61	C	-0.444812	-0.720280	-0.428518
C62	C	-0.111479	-0.386946	-0.095184
C63	C	0.221854	-0.053613	0.238149
C64	C	-0.512800	-0.679262	-0.378235
C65	C	-0.179466	-0.345929	-0.044902
C66	C	0.153867	-0.012596	0.288431
C67	C	-0.580779	-0.720230	-0.327942
C68	C	-0.247445	-0.386897	0.005391
C69	C	0.085888	-0.053563	0.338725
C70	C	-0.580767	-0.802209	-0.327937
C71	C	-0.247434	-0.468876	0.005396
C72	C	0.085899	-0.135542	0.338730
C73	C	-0.580799	-0.549360	-0.327958
C74	C	-0.247466	-0.216027	0.005376
C75	C	0.085867	0.117307	0.338709
C76	C	-0.580812	-0.467375	-0.327963
C77	C	-0.247479	-0.134042	0.005370
C78	C	0.085854	0.199291	0.338703
C79	C	-0.444844	-0.467431	-0.428538
C80	C	-0.111511	-0.134097	-0.095205
C81	C	0.221823	0.199236	0.238128
C82	C	-0.444833	-0.549410	-0.428533
C83	C	-0.111499	-0.216076	-0.095200
C84	C	0.221834	0.117257	0.238133
C85	C	-0.512814	-0.590371	-0.378241
C86	C	-0.179480	-0.257038	-0.044908
C87	C	0.153853	0.076295	0.288426
C88	C	-0.789348	-1.134368	-0.378234
C89	C	-0.456015	-0.801035	-0.044901
C90	C	-0.122681	-0.467701	0.288433
C91	C	-0.907653	-1.134418	-0.378257
C92	C	-0.574320	-0.801085	-0.044924
C93	C	-0.240987	-0.467751	0.288410
C94	C	-0.976915	-1.081980	-0.430657
C95	C	-0.643582	-0.748647	-0.097324
C96	C	-0.310248	-0.415313	0.236010
C97	C	-1.047775	-1.062859	-0.359029
C98	C	-0.714442	-0.729526	-0.025696
C99	C	-0.381109	-0.396192	0.307637
C100	C	-1.047592	-1.153611	-0.449897
C101	C	-0.714259	-0.820277	-0.116564
C102	C	-0.380925	-0.486944	0.216770
C103	C	-0.976955	-1.115259	-0.306591
C104	C	-0.643622	-0.781925	0.026742
C105	C	-0.310289	-0.448592	0.360075
C106	C	-0.976766	-1.206044	-0.397507
C107	C	-0.643433	-0.872710	-0.064174
C108	C	-0.310099	-0.539377	0.269159
C109	C	-1.047594	-1.186950	-0.325830
C110	C	-0.714261	-0.853616	0.007503
C111	C	-0.380928	-0.520283	0.340836
C112	C	-0.235186	-1.134493	-0.378267
C113	C	0.098147	-0.801159	-0.044933
C114	C	0.431481	-0.467826	0.288400
C115	C	-0.116881	-1.134524	-0.378277
C116	C	0.216453	-0.801190	-0.044944
C117	C	0.549786	-0.467857	0.288389
C118	C	-0.512724	-1.134459	-0.582986
C119	C	-0.179391	-0.801126	-0.249653
C120	C	0.153942	-0.467792	0.083681
C121	C	-0.512689	-1.134476	-0.670236
C122	C	-0.179356	-0.801142	-0.336903
C123	C	0.153977	-0.467809	-0.003569
C124	C	-0.512837	-0.339164	-0.378259
C125	C	-0.179504	-0.005830	-0.044925
C126	C	0.153830	0.327503	0.288408
C127	C	-0.512836	-0.426414	-0.378251
C128	C	-0.179503	-0.093080	-0.044918
C129	C	0.153831	0.240253	0.288416
C130	C	-0.444596	-1.084303	-0.711226
C131	C	-0.111263	-0.750970	-0.377893
C132	C	0.222070	-0.417636	-0.044559
C133	C	-0.444572	-1.084316	-0.793206
C134	C	-0.111239	-0.750983	-0.459873
C135	C	0.222094	-0.417649	-0.126540
C136	C	-0.512636	-1.134506	-0.834195
C137	C	-0.179303	-0.801173	-0.500862
C138	C	0.154030	-0.467839	-0.167529
C139	C	-0.580737	-1.184681	-0.793200
C140	C	-0.247403	-0.851347	-0.459866
C141	C	0.085930	-0.518014	-0.126533
C142	C	-0.580766	-1.184663	-0.711221
C143	C	-0.247432	-0.851330	-0.377887
C144	C	0.085901	-0.517997	-0.044554
C145	C	-0.580670	-1.184715	-0.964070
C146	C	-0.247337	-0.851381	-0.630736
C147	C	0.085996	-0.518048	-0.297403
C148	C	-0.580640	-1.184733	-1.046054
C149	C	-0.247307	-0.851400	-0.712721
C150	C	0.086026	-0.518067	-0.379388
C151	C	-0.444477	-1.084367	-1.046056
C152	C	-0.111144	-0.751034	-0.712722
C153	C	0.222190	-0.417701	-0.379389
C154	C	-0.444506	-1.084350	-0.964077
C155	C	-0.111172	-0.751017	-0.630743
C156	C	0.222161	-0.417683	-0.297410
C157	C	-0.512605	-1.134526	-0.923086
C158	C	-0.179272	-0.801193	-0.589753
C159	C	0.154062	-0.467859	-0.256420
C160	C	-0.512812	-1.134425	-0.174294
C161	C	-0.179479	-0.801092	0.159039
C162	C	0.153854	-0.467759	0.492373
C163	C	-0.512548	-1.134561	-0.087044
C164	C	-0.179214	-0.801227	0.246289
C165	C	0.154119	-0.467894	0.579622
H166	H	-0.636130	-0.686827	-0.286997
H167	H	-0.302797	-0.353494	0.046336
H168	H	0.030537	-0.020161	0.379669
H169	H	-0.946056	-1.098998	-0.245998
H170	H	-0.612722	-0.765665	0.087336
H171	H	-0.279389	-0.432332	0.420669
H172	H	-1.078620	-1.169801	-0.510474
H173	H	-0.745287	-0.836468	-0.177141
H174	H	-0.411953	-0.503134	0.156192
Br175	Br	-1.098995	-1.260941	-0.251907
Br176	Br	-0.765662	-0.927607	0.081427
Br177	Br	-0.432328	-0.594274	0.414760
H178	H	-0.389077	-1.043484	-0.930706
H179	H	-0.055744	-0.710151	-0.597372
H180	H	0.277590	-0.376818	-0.264039
Br181	Br	-0.673022	-0.857801	-0.259685
Br182	Br	-0.339689	-0.524468	0.073648
Br183	Br	-0.006356	-0.191135	0.406981
Br184	Br	-0.925185	-1.007943	-0.504410
Br185	Br	-0.591851	-0.674609	-0.171077
Br186	Br	-0.258518	-0.341276	0.162256
H187	H	-0.389128	-1.043457	-0.826577
H188	H	-0.055795	-0.710124	-0.493244
H189	H	0.277538	-0.376791	-0.159910
H190	H	-0.636154	-0.582709	-0.287002
H191	H	-0.302820	-0.249375	0.046331
H192	H	0.030513	0.083958	0.379665
H193	H	-0.945555	-1.266553	-0.413807
H194	H	-0.612221	-0.933220	-0.080474
H195	H	-0.278888	-0.599887	0.252859
Br196	Br	-0.352051	-1.016275	-1.101684
Br197	Br	-0.018718	-0.682942	-0.768350
Br198	Br	0.314616	-0.349608	-0.435017
Br199	Br	-0.352210	-1.016190	-0.655606
Br200	Br	-0.018877	-0.682857	-0.322273
Br201	Br	0.314456	-0.349524	0.011061
H202	H	-0.636064	-1.225602	-1.079425
H203	H	-0.302731	-0.892269	-0.746092
H204	H	0.030602	-0.558936	-0.412759
Br205	Br	-0.352576	-0.605076	-0.496783
Br206	Br	-0.019242	-0.271742	-0.163450
Br207	Br	0.314091	0.061591	0.169883
Br208	Br	-0.673098	-1.252806	-0.908441
Br209	Br	-0.339765	-0.919473	-0.575107
Br210	Br	-0.006432	-0.586140	-0.241774
Br211	Br	-0.673121	-1.252790	-0.848827
Br212	Br	-0.339787	-0.919456	-0.515493
Br213	Br	-0.006454	-0.586123	-0.182160
Br214	Br	-0.352584	-0.411841	-0.496792
Br215	Br	-0.019251	-0.078508	-0.163459
Br216	Br	0.314083	0.254826	0.169874
H217	H	-1.078989	-1.002336	-0.342764
H218	H	-0.745656	-0.669002	-0.009430
H219	H	-0.412323	-0.335669	0.323903
H220	H	-0.389447	-0.835650	-0.469464
H221	H	-0.056113	-0.502317	-0.136131
H222	H	0.277220	-0.168984	0.197203
Br223	Br	-0.352556	-0.664691	-0.496769
Br224	Br	-0.019222	-0.331358	-0.163436
Br225	Br	0.314111	0.001975	0.169898
H226	H	-0.636206	-1.225525	-0.677848
H227	H	-0.302872	-0.892192	-0.344514
H228	H	0.030461	-0.558858	-0.011181
H229	H	-0.636174	-0.433981	-0.287019
H230	H	-0.302841	-0.100648	0.046314
H231	H	0.030492	0.232685	0.379647
