data_functionalizedCrystal
_audit_creation_method	'MofGen! by Chris Wilmer'
_symmetry_space_group_name_H-M	'P1'
_symmetry_Int_Tables_number	1
_symmetry_cell_setting	triclinic
loop_
_symmetry_equiv_pos_as_xyz
  x,y,z
_cell_length_a	10.686285
_cell_length_b	10.685980
_cell_length_c	10.686551
_cell_angle_alpha	81.591741
_cell_angle_beta	80.915481
_cell_angle_gamma	89.665709
loop_
_atom_site_label
_atom_site_type_symbol
_atom_site_fract_x
_atom_site_fract_y
_atom_site_fract_z
Zn1	Zn	-0.282820	2.015981	-0.846602
Zn2	Zn	-0.511409	2.015879	-0.618091
Zn3	Zn	-0.317939	1.789915	-0.615570
Zn4	Zn	-0.511286	1.819994	-0.814010
O5	O	-0.405864	1.910442	-0.723568
O6	O	-0.298497	2.192555	-0.830984
O7	O	-0.500493	1.973273	-0.439076
O8	O	-0.136699	1.807358	-0.658802
O9	O	-0.466440	2.192480	-0.663098
O10	O	-0.110898	1.973447	-0.828540
O11	O	-0.358352	1.807259	-0.437224
O12	O	-0.358233	1.617317	-0.627199
O13	O	-0.466231	1.858622	-0.997014
O14	O	-0.500284	1.639416	-0.772992
O15	O	-0.298378	2.002613	-1.020959
O16	O	-0.687974	2.002439	-0.631495
O17	O	-0.687884	1.858523	-0.775436
C18	C	-0.433057	1.582579	-0.696286
C19	C	-0.444719	1.442323	-0.684642
C20	C	-0.733709	1.933770	-0.700233
C21	C	-0.873950	1.943869	-0.690303
C22	C	-0.076733	1.887059	-0.747025
C23	C	0.063523	1.877094	-0.757021
C24	C	-0.378373	1.933984	-1.056611
C25	C	-0.366658	1.944017	-1.198535
C26	C	-0.378565	2.239585	-0.750958
C27	C	-0.366931	2.379846	-0.762630
C28	C	-0.433150	1.887057	-0.391833
C29	C	-0.444489	1.877244	-0.249956
H30	H	-0.520242	1.388504	-0.608955
N31	N	-0.865284	1.791128	-0.842749
H32	H	-0.771832	1.795860	-0.837934
H33	H	-0.879052	1.818770	-0.933982
H34	H	-0.291062	2.008869	-1.263093
N35	N	-0.945163	2.029815	-0.604552
H36	H	-0.990643	2.095807	-0.657524
H37	H	-0.883446	2.072853	-0.561454
N38	N	-0.266897	1.451115	-0.862887
H39	H	-0.272467	1.544568	-0.857282
H40	H	-0.281054	1.436008	-0.950749
N41	N	-0.544635	1.791356	-1.164463
H42	H	-0.539092	1.796123	-1.071796
H43	H	-0.530575	1.701460	-1.181603
