data_functionalizedCrystal
_audit_creation_method	'MofGen! by Chris Wilmer'
_symmetry_space_group_name_H-M	'P1'
_symmetry_Int_Tables_number	1
_symmetry_cell_setting	triclinic
loop_
_symmetry_equiv_pos_as_xyz
  x,y,z
_cell_length_a	14.971487
_cell_length_b	8.140239
_cell_length_c	14.971486
_cell_angle_alpha	90.003728
_cell_angle_beta	96.385734
_cell_angle_gamma	90.003450
loop_
_atom_site_label
_atom_site_type_symbol
_atom_site_fract_x
_atom_site_fract_y
_atom_site_fract_z
O1	O	-1.186942	0.136379	0.116564
O2	O	-0.926542	0.136434	0.130522
O3	O	-1.063722	0.136393	-0.006657
O4	O	-1.049763	0.136420	0.253743
O5	O	-1.063714	-0.136834	-0.006658
O6	O	-0.926535	-0.136793	0.130521
O7	O	-1.186935	-0.136848	0.116563
Zn8	Zn	-1.056733	-0.180201	0.123541
Zn9	Zn	-1.056743	0.179787	0.123544
O10	O	-1.049755	-0.136807	0.253742
C11	C	-0.893214	-0.000173	0.129897
C12	C	-0.793917	-0.000152	0.128026
N13	N	-1.056733	-0.425884	0.123540
C14	C	-0.736691	-0.000144	0.208615
C15	C	-0.643392	-0.000165	0.206852
C16	C	-0.607320	-0.000182	0.124499
C17	C	-0.664552	-0.000195	0.043903
C18	C	-0.757850	-0.000186	0.045668
C19	C	-0.470090	-0.000210	0.040232
C20	C	-0.376786	-0.000217	0.038467
C21	C	-0.355632	-0.000190	0.201416
C22	C	-0.448929	-0.000180	0.203181
C23	C	-0.506156	-0.000190	0.122585
C24	C	-0.220263	-0.000228	0.117187
C25	C	-0.319560	-0.000209	0.119056
C26	C	-1.063094	-0.000220	-0.039982
C27	C	-1.061223	-0.000218	-0.139279
N28	N	-1.056751	0.425470	0.123538
C29	C	-1.141812	-0.000236	-0.196504
C30	C	-1.140049	-0.000219	-0.289804
C31	C	-1.057696	-0.000196	-0.325876
C32	C	-0.977100	-0.000173	-0.268644
C33	C	-0.978864	-0.000178	-0.175346
C34	C	-0.973429	-0.000166	-0.463107
C35	C	-0.971665	-0.000164	-0.556411
C36	C	-1.134614	-0.000207	-0.577564
C37	C	-1.136378	-0.000212	-0.484266
C38	C	-1.055782	-0.000192	-0.427040
C39	C	-1.050383	-0.000191	0.287067
C40	C	-1.052254	-0.000182	0.386364
H41	H	-0.766053	-0.000129	0.275677
H42	H	-0.913240	-0.000163	-0.128754
Br43	Br	-0.864048	-0.000133	-0.385443
H44	H	-0.596802	-0.000157	0.272476
Br45	Br	-0.277969	-0.000174	0.310797
H46	H	-1.203437	-0.000243	-0.454900
Br47	Br	-1.253583	-0.000291	-0.147559
H48	H	-0.910047	-0.000143	-0.298021
Br49	Br	-0.327830	-0.000295	-0.073299
H50	H	-0.516682	-0.000221	-0.025398
H51	H	-0.635175	-0.000233	-0.023150
Br52	Br	-0.497885	-0.000132	0.314947
H53	H	-1.200238	-0.000218	-0.624162
Br54	Br	-0.835515	-0.000211	-0.063708
H55	H	-1.205673	-0.000237	-0.336394
H56	H	-0.904606	-0.000171	-0.585777
