data_functionalizedCrystal
_audit_creation_method	'MofGen! by Chris Wilmer'
_symmetry_space_group_name_H-M	'P1'
_symmetry_Int_Tables_number	1
_symmetry_cell_setting	triclinic
loop_
_symmetry_equiv_pos_as_xyz
  x,y,z
_cell_length_a	19.188928
_cell_length_b	17.666332
_cell_length_c	17.699083
_cell_angle_alpha	90.005385
_cell_angle_beta	83.213413
_cell_angle_gamma	90.022693
loop_
_atom_site_label
_atom_site_type_symbol
_atom_site_fract_x
_atom_site_fract_y
_atom_site_fract_z
O1	O	-0.926253	-0.063243	-0.094482
O2	O	-0.426253	0.436757	0.405518
O3	O	-0.722956	-0.063180	-0.107204
O4	O	-0.222956	0.436820	0.392796
O5	O	-0.830348	-0.063206	0.009353
O6	O	-0.330348	0.436794	0.509353
O7	O	-0.818861	-0.063216	-0.211040
O8	O	-0.318861	0.436784	0.288960
O9	O	-0.830336	0.062690	0.009356
O10	O	-0.330336	0.562690	0.509356
O11	O	-0.722944	0.062717	-0.107202
O12	O	-0.222944	0.562717	0.392798
O13	O	-0.926241	0.062654	-0.094480
O14	O	-0.426241	0.562654	0.405520
Cu15	Cu	-0.824591	0.074181	-0.100841
Cu16	Cu	-0.324591	0.574181	0.399159
Cu17	Cu	-0.824606	-0.074707	-0.100844
Cu18	Cu	-0.324606	0.425293	0.399156
O19	O	-0.818849	0.062680	-0.211038
O20	O	-0.318849	0.562680	0.288962
C21	C	-0.696938	-0.000224	-0.106791
C22	C	-0.196938	0.499776	0.393209
C23	C	-0.619432	-0.000200	-0.105556
C24	C	-0.119432	0.499800	0.394444
N25	N	-0.824586	0.178900	-0.100838
N26	N	-0.324586	0.678900	0.399162
C27	C	-0.872168	0.780939	-0.049244
C28	C	-0.372168	1.280939	0.450756
C29	C	-0.872170	0.701691	-0.049246
C30	C	-0.372170	1.201691	0.450754
C31	C	-0.824604	0.662082	-0.100838
C32	C	-0.324604	1.162082	0.399162
C33	C	-0.777046	0.701726	-0.152445
C34	C	-0.277046	1.201726	0.347555
C35	C	-0.777051	0.780973	-0.152447
C36	C	-0.277051	1.280973	0.347553
N37	N	-0.762804	0.537688	-0.110647
N38	N	-0.262804	1.037688	0.389353
N39	N	-0.762802	0.462407	-0.110640
N40	N	-0.262802	0.962407	0.389360
C41	C	-0.824589	0.423318	-0.100836
C42	C	-0.324589	0.923318	0.399164
N43	N	-0.886380	0.462352	-0.091024
N44	N	-0.386380	0.962352	0.408976
N45	N	-0.886382	0.537640	-0.091026
N46	N	-0.386382	1.037640	0.408974
C47	C	-0.824594	0.576153	-0.100842
C48	C	-0.324594	1.076153	0.399158
C49	C	-0.872149	0.297753	-0.049237
C50	C	-0.372149	0.797753	0.450763
C51	C	-0.872151	0.218504	-0.049244
C52	C	-0.372151	0.718504	0.450756
C53	C	-0.777021	0.218541	-0.152440
C54	C	-0.277021	0.718541	0.347560
C55	C	-0.777025	0.297789	-0.152437
C56	C	-0.277025	0.797789	0.347563
C57	C	-0.824588	0.337390	-0.100832
C58	C	-0.324588	0.837390	0.399168
C59	C	-0.574585	-0.000212	-0.173948
C60	C	-0.074585	0.499788	0.326052
C61	C	-0.501760	-0.000217	-0.172787
C62	C	-0.001760	0.499783	0.327213
C63	C	-0.473785	-0.000224	-0.103230
C64	C	0.026215	0.499776	0.396770
C65	C	-0.518642	-0.000207	-0.034829
C66	C	-0.018642	0.499793	0.465171
C67	C	-0.591466	-0.000195	-0.035992
C68	C	-0.091466	0.499805	0.464008
N69	N	-0.365750	-0.043094	-0.050064
N70	N	0.134250	0.456906	0.449936
N71	N	-0.296570	-0.043107	-0.048964
N72	N	0.203430	0.456893	0.451036
C73	C	-0.254372	-0.000258	-0.099722
C74	C	0.245628	0.499742	0.400278
N75	N	-0.283967	0.042595	-0.151633
N76	N	0.216033	0.542595	0.348367
N77	N	-0.353153	0.042605	-0.152735
N78	N	0.146847	0.542605	0.347265
C79	C	-0.394821	-0.000236	-0.101961
C80	C	0.105179	0.499764	0.398039
C81	C	-0.130559	-0.000274	-0.166859
C82	C	0.369441	0.499726	0.333141
C83	C	-0.057733	-0.000274	-0.165696
C84	C	0.442267	0.499726	0.334304
C85	C	-0.074617	-0.000271	-0.027735
C86	C	0.425383	0.499729	0.472265
C87	C	-0.147442	-0.000264	-0.028901
C88	C	0.352558	0.499736	0.471099
C89	C	-0.175408	-0.000269	-0.098465
C90	C	0.324592	0.499731	0.401535
C91	C	0.047742	-0.000291	-0.094895
C92	C	0.547742	0.499709	0.405105
C93	C	-0.029764	-0.000280	-0.096138
C94	C	0.470236	0.499720	0.403862
C95	C	-0.829931	-0.000258	0.037551
C96	C	-0.329931	0.499742	0.537551
C97	C	-0.828696	-0.000257	0.121568
C98	C	-0.328696	0.499743	0.621568
N99	N	-0.824614	0.820574	-0.100842
N100	N	-0.324614	1.320574	0.399158
C101	C	-0.819266	-0.000270	-0.239235
C102	C	-0.319266	0.499730	0.260765
C103	C	-0.820501	-0.000275	-0.323252
C104	C	-0.320501	0.499725	0.176748
C105	C	-0.891733	-0.000276	0.170272
C106	C	-0.391733	0.499724	0.670272
C107	C	-0.890568	-0.000282	0.249214
C108	C	-0.390568	0.499718	0.749214
C109	C	-0.826366	-0.000264	0.279450
C110	C	-0.326366	0.499736	0.779450
C111	C	-0.763324	-0.000248	0.230739
C112	C	-0.263324	0.499752	0.730739
C113	C	-0.764489	-0.000247	0.151799
C114	C	-0.264489	0.499753	0.651799
C115	C	-0.758624	-0.000253	0.549096
C116	C	-0.258624	0.499747	1.049096
C117	C	-0.757464	-0.000252	0.628042
C118	C	-0.257464	0.499748	1.128042
C119	C	-0.884703	-0.000287	0.646511
C120	C	-0.384703	0.499713	1.146511
C121	C	-0.885868	-0.000287	0.567571
C122	C	-0.385868	0.499713	1.067571
C123	C	-0.822826	-0.000274	0.518867
C124	C	-0.322826	0.499726	1.018867
C125	C	-0.824090	-0.000269	0.433269
C126	C	-0.324090	0.499731	0.933269
C127	C	-0.825102	-0.000264	0.365046
C128	C	-0.325102	0.499736	0.865046
H129	H	-0.910898	0.813180	-0.007226
H130	H	-0.410898	1.313180	0.492774
O131	O	-0.697341	-0.000333	0.501871
O132	O	-0.197341	0.499667	1.001871
C133	C	-0.658365	-0.065532	0.515528
C134	C	-0.158365	0.434468	1.015528
H135	H	-0.675618	-0.087277	0.575467
H136	H	-0.175618	0.412723	1.075467
H137	H	-0.600123	-0.050846	0.509789
H138	H	-0.100123	0.449154	1.009789
H139	H	-0.667836	-0.111192	0.472373
H140	H	-0.167836	0.388808	0.972373
H141	H	-0.183958	-0.000258	0.026791
H142	H	0.316042	0.499742	0.526791
H143	H	-0.944014	-0.000285	0.145661
H144	H	-0.444014	0.499715	0.645661
O145	O	-0.918415	0.336110	0.000919
O146	O	-0.418415	0.836110	0.500919
C147	C	-0.960380	0.284129	0.046473
C148	C	-0.460380	0.784129	0.546473
H149	H	-0.961122	0.227639	0.015440
H150	H	-0.461122	0.727639	0.515440
H151	H	-1.016154	0.307005	0.058182
H152	H	-0.516154	0.807005	0.558182
H153	H	-0.937799	0.275709	0.102631
H154	H	-0.437799	0.775709	0.602631
H155	H	-0.910896	0.669414	-0.007227
H156	H	-0.410896	1.169414	0.492773
H157	H	-0.713158	-0.000233	0.112143
H158	H	-0.213158	0.499767	0.612143
O159	O	-0.701019	-0.000198	0.260233
O160	O	-0.201019	0.499802	0.760233
C161	C	-0.713506	-0.000219	0.340352
C162	C	-0.213506	0.499781	0.840352
H163	H	-0.768021	0.023599	0.359074
H164	H	-0.268021	0.523599	0.859074
H165	H	-0.672428	0.036345	0.364456
H166	H	-0.172428	0.536345	0.864456
H167	H	-0.710165	-0.060617	0.362312
H168	H	-0.210165	0.439383	0.862312
H169	H	-0.738319	0.669473	-0.194454
H170	H	-0.238319	1.169473	0.305546
H171	H	-0.051841	-0.000324	0.028899
H172	H	0.448159	0.499676	0.528899
O173	O	-0.918184	0.180000	0.001058
O174	O	-0.418184	0.680000	0.501058
C175	C	-0.880741	0.134316	0.047641
C176	C	-0.380741	0.634316	0.547641
H177	H	-0.826127	0.122386	0.017207
H178	H	-0.326127	0.622386	0.517207
H179	H	-0.909895	0.078610	0.059932
H180	H	-0.409895	0.578610	0.559932
H181	H	-0.875924	0.165009	0.103450
H182	H	-0.375924	0.665009	0.603450
H183	H	-0.941899	-0.000295	0.288867
H184	H	-0.441899	0.499705	0.788867
O185	O	-0.458213	-0.000369	-0.239245
O186	O	0.041787	0.499631	0.260755
C187	C	-0.470919	-0.065566	-0.281494
C188	C	0.029081	0.434434	0.218506
H189	H	-0.495906	-0.111128	-0.241450
H190	H	0.004094	0.388872	0.258550
H191	H	-0.419209	-0.087470	-0.312009
H192	H	0.080791	0.412530	0.187991
H193	H	-0.507914	-0.050823	-0.325185
H194	H	-0.007914	0.449177	0.174815
H195	H	-0.495861	-0.000223	0.021805
H196	H	0.004139	0.499777	0.521805
H197	H	-0.938148	-0.000297	0.542958
H198	H	-0.438148	0.499703	1.042958
H199	H	-0.021218	-0.000280	-0.221391
H200	H	0.478782	0.499720	0.278609
O201	O	-0.730783	0.819361	-0.202597
O202	O	-0.230783	1.319361	0.297403
C203	C	-0.688813	0.767412	-0.248151
C204	C	-0.188813	1.267412	0.251849
H205	H	-0.688076	0.710924	-0.217125
H206	H	-0.188076	1.210924	0.282875
H207	H	-0.633038	0.790334	-0.259849
H208	H	-0.133038	1.290334	0.240151
H209	H	-0.711386	0.758970	-0.304316
H210	H	-0.211386	1.258970	0.195684
O211	O	-0.635006	-0.000322	0.030468
O212	O	-0.135006	0.499678	0.530468
C213	C	-0.622363	-0.065516	0.072722
C214	C	-0.122363	0.434484	0.572722
H215	H	-0.597424	-0.111092	0.032682
H216	H	-0.097424	0.388908	0.532682
H217	H	-0.674093	-0.087397	0.103244
H218	H	-0.174093	0.412603	0.603244
H219	H	-0.585350	-0.050777	0.116409
H220	H	-0.085350	0.449223	0.616409
H221	H	-0.738296	0.186292	-0.194451
H222	H	-0.238296	0.686292	0.305549
O223	O	-0.730757	0.336177	-0.202583
O224	O	-0.230757	0.836177	0.297417
C225	C	-0.688786	0.284227	-0.248135
C226	C	-0.188786	0.784227	0.251865
H227	H	-0.688047	0.227742	-0.217105
H228	H	-0.188047	0.727742	0.282895
H229	H	-0.633012	0.307151	-0.259834
H230	H	-0.133012	0.807151	0.240166
H231	H	-0.711359	0.275781	-0.304298
H232	H	-0.211359	0.775781	0.195702
H233	H	-0.936034	-0.000301	0.686176
H234	H	-0.436034	0.499699	1.186176
O235	O	-0.601777	-0.000357	-0.241505
O236	O	-0.101777	0.499643	0.258495
C237	C	-0.643436	-0.065550	-0.246292
C238	C	-0.143436	0.434450	0.253708
H239	H	-0.626308	-0.111114	-0.206784
H240	H	-0.126308	0.388886	0.293216
H241	H	-0.636794	-0.087453	-0.307307
H242	H	-0.136794	0.412547	0.192693
H243	H	-0.700891	-0.050801	-0.228659
H244	H	-0.200891	0.449199	0.271341
O245	O	-0.695111	-0.000108	0.657450
O246	O	-0.195111	0.499892	1.157450
C247	C	-0.690626	0.065086	0.702580
C248	C	-0.190626	0.565086	1.202580
H249	H	-0.727068	0.110654	0.684031
H250	H	-0.227068	0.610654	1.184031
H251	H	-0.634339	0.086981	0.695312
H252	H	-0.134339	0.586981	1.195312
H253	H	-0.706844	0.050343	0.764887
H254	H	-0.206844	0.550343	1.264887
H255	H	-0.153330	-0.000267	-0.223503
H256	H	0.346670	0.499733	0.276497
