data_functionalizedCrystal
_audit_creation_method	'MofGen! by Chris Wilmer'
_symmetry_space_group_name_H-M	'P1'
_symmetry_Int_Tables_number	1
_symmetry_cell_setting	triclinic
loop_
_symmetry_equiv_pos_as_xyz
  x,y,z
_cell_length_a	16.109302
_cell_length_b	16.109301
_cell_length_c	9.130313
_cell_angle_alpha	89.995471
_cell_angle_beta	89.994534
_cell_angle_gamma	83.461682
loop_
_atom_site_label
_atom_site_type_symbol
_atom_site_fract_x
_atom_site_fract_y
_atom_site_fract_z
O1	O	1.103130	0.106870	-0.121865
O2	O	0.861069	0.120169	-0.121854
O3	O	0.988749	-0.007512	-0.121850
O4	O	0.975450	0.234550	-0.121869
O5	O	0.988740	-0.007515	0.121749
O6	O	0.861060	0.120165	0.121745
O7	O	1.103122	0.106866	0.121734
Cu8	Cu	0.982090	0.113515	0.143982
Cu9	Cu	0.982100	0.113520	-0.144102
O10	O	0.975441	0.234547	0.121730
C11	C	0.830089	0.119628	-0.000053
C12	C	0.737794	0.118013	-0.000048
C13	C	0.525448	0.114275	0.132723
C14	C	0.438728	0.112749	0.132718
C15	C	0.438748	0.112757	-0.132866
C16	C	0.525468	0.114278	-0.132860
C17	C	0.568815	0.115041	-0.000061
C18	C	0.395375	0.111994	-0.000072
C19	C	0.301350	0.110338	-0.000079
C20	C	0.662847	0.116695	-0.000054
C21	C	0.988206	-0.038488	-0.000051
C22	C	0.986591	-0.130784	-0.000053
C23	C	1.057074	-0.439782	-0.000082
C24	C	1.058599	-0.353062	-0.000073
C25	C	0.907111	-0.333189	-0.000047
C26	C	0.905586	-0.419907	-0.000045
C27	C	0.980570	-0.473202	-0.000070
C28	C	0.983620	-0.299763	-0.000063
C29	C	0.985273	-0.205737	-0.000054
C30	C	0.978917	-0.567234	-0.000076
C31	C	1.134101	0.107407	-0.000070
C32	C	1.226396	0.109022	-0.000085
C33	C	0.975984	0.265523	-0.000072
C34	C	0.977600	0.357819	-0.000080
N35	N	0.982089	0.113512	0.346605
N36	N	0.982108	0.113517	-0.346725
C37	C	1.038645	0.056998	0.423258
C38	C	1.038653	0.056999	0.576595
C39	C	0.925546	0.170032	0.576611
C40	C	0.925535	0.170028	0.423277
H41	H	0.403444	0.112136	-0.240987
Cl42	Cl	0.579990	0.115234	-0.299803
H43	H	1.118131	-0.483172	-0.000102
Cl44	Cl	0.854427	0.241074	0.326903
Cl45	Cl	1.154780	-0.311052	-0.000094
Cl46	Cl	0.812850	-0.266185	-0.000028
H47	H	0.560739	0.114897	0.240857
Cl48	Cl	1.109752	-0.014051	0.672955
H49	H	0.403423	0.112125	0.240845
H50	H	0.843284	-0.447118	-0.000028
H51	H	0.879502	0.216048	0.639053
H52	H	1.084693	0.010979	0.360835
