data_functionalizedCrystal
_audit_creation_method	'MofGen! by Chris Wilmer'
_symmetry_space_group_name_H-M	'P1'
_symmetry_Int_Tables_number	1
_symmetry_cell_setting	triclinic
loop_
_symmetry_equiv_pos_as_xyz
  x,y,z
_cell_length_a	18.215405
_cell_length_b	18.050591
_cell_length_c	18.215399
_cell_angle_alpha	90.025700
_cell_angle_beta	90.030551
_cell_angle_gamma	90.020891
loop_
_atom_site_label
_atom_site_type_symbol
_atom_site_fract_x
_atom_site_fract_y
_atom_site_fract_z
Zn1	Zn	-0.293070	1.135345	0.416218
Zn2	Zn	-0.416141	1.135252	0.293146
Zn3	Zn	-0.293085	1.011154	0.293152
Zn4	Zn	-0.416091	1.011119	0.416158
O5	O	-0.354597	1.073217	0.354669
O6	O	-0.309411	1.239257	0.399914
O7	O	-0.399845	1.118766	0.190162
O8	O	-0.190099	1.027681	0.309505
O9	O	-0.399831	1.239189	0.309494
O10	O	-0.190088	1.118924	0.399921
O11	O	-0.309436	1.027591	0.190167
O12	O	-0.309387	0.907224	0.309447
O13	O	-0.399745	1.027622	0.519150
O14	O	-0.399759	0.907199	0.399819
O15	O	-0.309362	1.118890	0.519194
O16	O	-0.519119	1.118733	0.309436
O17	O	-0.519082	1.027533	0.399813
C18	C	-0.545803	1.073139	0.354633
C19	C	-0.627602	1.073173	0.354643
C20	C	-0.354569	0.880265	0.354628
C21	C	-0.354575	0.797720	0.354628
C22	C	-0.815791	1.120773	0.307670
C23	C	-0.892650	1.120806	0.307688
C24	C	-0.892651	1.025757	0.401720
C25	C	-0.815794	1.025728	0.401705
C26	C	-0.777365	1.073235	0.354676
C27	C	-0.931082	1.073297	0.354709
C28	C	-1.014415	1.073333	0.354728
C29	C	-0.694027	1.073201	0.354657
C30	C	-0.305374	0.598261	0.305597
C31	C	-0.372499	0.548844	0.287483
C32	C	-0.354598	0.646589	0.354661
C33	C	-0.287496	0.548925	0.372773
C34	C	-0.354613	0.500604	0.354692
C35	C	-0.421758	0.598259	0.336512
C36	C	-0.336710	0.598344	0.421833
C37	C	-0.403881	0.548949	0.403745
C38	C	-0.354588	0.730687	0.354642
C39	C	-0.354631	0.416508	0.354712
C40	C	-0.162644	1.073316	0.354720
C41	C	-0.080845	1.073359	0.354742
C42	C	-0.354546	1.073263	0.546622
C43	C	-0.354524	1.073282	0.628420
C44	C	-0.354625	1.266923	0.354710
C45	C	-0.354637	1.349469	0.354727
C46	C	-0.354594	1.073215	0.163462
C47	C	-0.354409	1.073340	0.081664
C48	C	-0.307418	1.120822	0.816639
C49	C	-0.307397	1.120831	0.893497
C50	C	-0.401517	1.025794	0.893440
C51	C	-0.401534	1.025782	0.816583
C52	C	-0.354486	1.073300	0.778184
C53	C	-0.354447	1.073321	0.931900
C54	C	-0.354424	1.073331	1.015234
C55	C	-0.354508	1.073290	0.694845
H56	H	-0.784504	1.159457	0.269377
N57	N	-0.934095	1.172080	0.256990
H58	H	-0.898086	1.202169	0.227198
H59	H	-0.966032	1.141884	0.222909
N60	N	-0.256675	1.172070	0.775221
H61	H	-0.226854	1.202175	0.811247
H62	H	-0.222622	1.141852	0.743333
N63	N	-0.934098	0.974517	0.452439
H64	H	-0.988618	0.981745	0.445314
H65	H	-0.920709	0.921480	0.440924
N66	N	-0.256623	1.172078	0.934974
H67	H	-0.226820	1.202174	0.898984
H68	H	-0.286568	1.206438	0.966870
N69	N	-0.452259	0.974554	0.934870
H70	H	-0.504847	0.986057	0.921485
H71	H	-0.440763	0.921514	0.921472
H72	H	-0.387640	0.527102	0.230690
H73	H	-0.439862	0.987079	0.785273
H74	H	-0.445563	0.527434	0.445250
H75	H	-0.784506	0.987017	0.439987
N76	N	-0.250294	0.626950	0.250583
H77	H	-0.263912	0.608943	0.199866
H78	H	-0.250372	0.682897	0.251357
N79	N	-0.212325	0.520212	0.393052
H80	H	-0.175180	0.538150	0.355941
H81	H	-0.198489	0.538997	0.443431
H82	H	-0.478528	0.619840	0.321143
N83	N	-0.316635	0.627167	0.497042
H84	H	-0.265906	0.609254	0.510670
H85	H	-0.317296	0.683112	0.496533
