data_functionalizedCrystal
_audit_creation_method	'MofGen! by Chris Wilmer'
_symmetry_space_group_name_H-M	'P1'
_symmetry_Int_Tables_number	1
_symmetry_cell_setting	triclinic
loop_
_symmetry_equiv_pos_as_xyz
  x,y,z
_cell_length_a	6.817900
_cell_length_b	16.676521
_cell_length_c	9.582880
_cell_angle_alpha	91.411969
_cell_angle_beta	68.792966
_cell_angle_gamma	111.715340
loop_
_atom_site_label
_atom_site_type_symbol
_atom_site_fract_x
_atom_site_fract_y
_atom_site_fract_z
V1	V	-4.156386	-0.118659	0.461609
O2	O	-4.100351	0.006076	0.457975
O3	O	-4.146526	-0.235640	0.453496
O4	O	-4.146493	-0.116670	0.665194
O5	O	-4.100384	-0.113718	0.244812
V6	V	-4.630030	-0.103759	0.436281
O7	O	-4.439314	-0.151344	0.517170
O8	O	-4.797299	-0.071074	0.380720
O9	O	-4.416683	0.013222	0.444393
O10	O	-4.803462	-0.228493	0.439915
O11	O	-4.803429	-0.108700	0.653078
O12	O	-4.416716	-0.105748	0.232696
C13	C	-3.999657	-0.264163	0.444936
C14	C	-4.073139	-0.359795	0.439660
C15	C	-3.999613	-0.112403	0.714975
C16	C	-4.073063	-0.111551	0.881374
C17	C	-4.226910	0.041741	0.452951
C18	C	-4.130911	0.139168	0.458358
V19	V	-4.231649	0.297645	0.453461
O20	O	-4.142986	0.424562	0.446219
O21	O	-4.256496	0.175811	0.453408
O22	O	-4.255841	0.294746	0.665164
O23	O	-4.143645	0.304803	0.232997
V24	V	-4.650967	0.336912	0.387561
O25	O	-4.506315	0.276342	0.490054
O26	O	-4.783100	0.380294	0.314199
O27	O	-4.424430	0.447799	0.405844
O28	O	-4.845710	0.215753	0.385215
O29	O	-4.845050	0.335511	0.598438
O30	O	-4.425085	0.328864	0.194088
C31	C	-4.226938	-0.110017	0.182907
C32	C	-4.132725	-0.110865	0.016507
C33	C	-4.245798	0.467930	0.428373
C34	C	-4.132821	0.562542	0.435376
C35	C	-4.130087	0.290880	0.728485
C36	C	-4.223769	0.291705	0.894911
C37	C	-4.246633	0.316217	0.158255
C38	C	-4.134188	0.314378	-0.006476
