data_functionalizedCrystal
_audit_creation_method	'MofGen! by Chris Wilmer'
_symmetry_space_group_name_H-M	'P1'
_symmetry_Int_Tables_number	1
_symmetry_cell_setting	triclinic
loop_
_symmetry_equiv_pos_as_xyz
  x,y,z
_cell_length_a	15.944551
_cell_length_b	15.995350
_cell_length_c	14.472310
_cell_angle_alpha	90.003052
_cell_angle_beta	90.008536
_cell_angle_gamma	96.504444
loop_
_atom_site_label
_atom_site_type_symbol
_atom_site_fract_x
_atom_site_fract_y
_atom_site_fract_z
O1	O	-1.114529	0.107983	-0.076736
O2	O	-0.781196	0.441316	0.256597
O3	O	-0.447862	0.774650	0.589931
O4	O	-0.869979	0.121297	-0.076758
O5	O	-0.536645	0.454630	0.256575
O6	O	-0.203312	0.787964	0.589909
O7	O	-0.998939	-0.007247	-0.076750
O8	O	-0.665606	0.326086	0.256583
O9	O	-0.332272	0.659419	0.589917
O10	O	-0.985569	0.236527	-0.076744
O11	O	-0.652236	0.569861	0.256589
O12	O	-0.318902	0.903194	0.589923
O13	O	-0.998906	-0.007240	0.076932
O14	O	-0.665572	0.326093	0.410265
O15	O	-0.332239	0.659427	0.743599
O16	O	-0.869946	0.121304	0.076924
O17	O	-0.536612	0.454638	0.410257
O18	O	-0.203279	0.787971	0.743591
O19	O	-1.114496	0.107990	0.076946
O20	O	-0.781163	0.441324	0.410279
O21	O	-0.447829	0.774657	0.743613
Cu22	Cu	-0.992218	0.114648	0.090967
Cu23	Cu	-0.658884	0.447981	0.424301
Cu24	Cu	-0.325551	0.781315	0.757634
Cu25	Cu	-0.992257	0.114639	-0.090779
Cu26	Cu	-0.658924	0.447973	0.242554
Cu27	Cu	-0.325590	0.781306	0.575887
O28	O	-0.985536	0.236535	0.076938
O29	O	-0.652202	0.569868	0.410271
O30	O	-0.318869	0.903201	0.743605
C31	C	-0.838668	0.120748	0.000080
C32	C	-0.505335	0.454081	0.333413
C33	C	-0.172002	0.787415	0.666747
C34	C	-0.745422	0.119091	0.000071
C35	C	-0.412089	0.452424	0.333405
C36	C	-0.078756	0.785758	0.666738
C37	C	-0.998370	-0.038438	0.000088
C38	C	-0.665036	0.294895	0.333421
C39	C	-0.331703	0.628228	0.666755
C40	C	-0.996712	-0.131389	0.000079
C41	C	-0.663379	0.201944	0.333413
C42	C	-0.330046	0.535278	0.666746
C43	C	-1.145806	0.108539	0.000106
C44	C	-0.812473	0.441873	0.333439
C45	C	-0.479140	0.775206	0.666773
C46	C	-1.239052	0.110196	0.000109
C47	C	-0.905719	0.443530	0.333442
C48	C	-0.572386	0.776863	0.666775
C49	C	-0.530570	0.035452	0.000087
C50	C	-0.197237	0.368786	0.333421
C51	C	0.136096	0.702119	0.666754
C52	C	-0.469564	0.074288	-0.075685
C53	C	-0.136231	0.407621	0.257648
C54	C	0.197102	0.740954	0.590981
C55	C	-0.574697	0.116093	0.000082
C56	C	-0.241363	0.449426	0.333416
C57	C	0.091970	0.782760	0.666749
C58	C	-0.469554	0.074314	0.075833
C59	C	-0.136220	0.407647	0.409167
C60	C	0.197113	0.740981	0.742500
C61	C	-0.409784	0.113192	0.000097
C62	C	-0.076451	0.446525	0.333430
C63	C	0.256883	0.779858	0.666763
C64	C	-0.514919	0.154950	-0.075753
C65	C	-0.181585	0.488284	0.257581
C66	C	0.151748	0.821617	0.590914
C67	C	-0.514915	0.154966	0.075834
C68	C	-0.181581	0.488299	0.409167
C69	C	0.151752	0.821632	0.742500
C70	C	-0.453926	0.193859	0.000043
C71	C	-0.120593	0.527193	0.333376
C72	C	0.212740	0.860526	0.666709
C73	C	-0.669699	0.117762	0.000073
C74	C	-0.336365	0.451096	0.333406
C75	C	-0.003032	0.784429	0.666740
C76	C	-0.314783	0.111529	0.000099
C77	C	0.018550	0.444862	0.333433
C78	C	0.351884	0.778195	0.666766
C79	C	-0.986105	0.267726	0.000098
C80	C	-0.652772	0.601059	0.333431
C81	C	-0.319438	0.934392	0.666765
C82	C	-0.987762	0.360676	0.000101
C83	C	-0.654429	0.694009	0.333434
C84	C	-0.321096	1.027343	0.666767
N85	N	-0.992196	0.114654	0.218798
N86	N	-0.658863	0.447987	0.552132
N87	N	-0.325530	0.781320	0.885465
C88	C	-0.993713	0.698424	0.000087
C89	C	-0.660380	1.031757	0.333420
C90	C	-0.327047	1.365091	0.666753
C91	C	-1.085556	0.650995	-0.000248
C92	C	-0.752223	0.984328	0.333085
C93	C	-0.418890	1.317662	0.666419
C94	C	-1.083899	0.554305	0.000103
C95	C	-0.750566	0.887638	0.333437
C96	C	-0.417232	1.220971	0.666770
C97	C	-0.990761	0.530863	0.000093
C98	C	-0.657428	0.864197	0.333426
C99	C	-0.324095	1.197530	0.666760
C100	C	-0.945442	0.571948	0.087846
C101	C	-0.612109	0.905281	0.421179
C102	C	-0.278776	1.238614	0.754512
C103	C	-0.947749	0.668584	0.087914
C104	C	-0.614416	1.001917	0.421248
C105	C	-0.281083	1.335250	0.754581
C106	C	-0.945890	0.668923	-0.086851
C107	C	-0.612556	1.002256	0.246482
C108	C	-0.279223	1.335589	0.579816
C109	C	-0.945912	0.571977	-0.088006
C110	C	-0.612578	0.905311	0.245327
C111	C	-0.279245	1.238644	0.578661
C112	C	-0.989088	0.436166	0.000100
C113	C	-0.655755	0.769499	0.333433
C114	C	-0.322422	1.102832	0.666766
C115	C	-0.995384	0.793122	0.000086
C116	C	-0.662050	1.126455	0.333420
C117	C	-0.328717	1.459789	0.666753
N118	N	-0.992285	0.114627	-0.218610
N119	N	-0.658952	0.447960	0.114723
N120	N	-0.325618	0.781294	0.448056
C121	C	-0.992256	0.114636	0.592890
C122	C	-0.658922	0.447969	0.926223
C123	C	-0.325589	0.781303	1.259556
C124	C	-0.923020	0.183187	0.553719
C125	C	-0.589687	0.516520	0.887053
C126	C	-0.256354	0.849853	1.220386
C127	C	-0.923180	0.183437	0.446631
C128	C	-0.589847	0.516770	0.779965
C129	C	-0.256513	0.850103	1.113298
C130	C	-0.992226	0.114645	0.407298
C131	C	-0.658892	0.447978	0.740632
C132	C	-0.325559	0.781311	1.073965
C133	C	-1.079868	0.133731	0.446144
C134	C	-0.746535	0.467065	0.779478
C135	C	-0.413201	0.800398	1.112811
C136	C	-1.079479	0.134219	0.553266
C137	C	-0.746146	0.467552	0.886599
C138	C	-0.412812	0.800885	1.219932
C139	C	-0.974631	0.026795	0.553415
C140	C	-0.641297	0.360129	0.886748
C141	C	-0.307964	0.693462	1.220081
C142	C	-0.972621	0.027381	0.446287
C143	C	-0.639287	0.360714	0.779620
C144	C	-0.305954	0.694048	1.112954
C145	C	-0.992214	0.114648	0.302410
C146	C	-0.658881	0.447981	0.635744
C147	C	-0.325547	0.781315	0.969077
C148	C	-0.992273	0.114634	0.697778
C149	C	-0.658940	0.447968	1.031111
C150	C	-0.325607	0.781301	1.364444
H151	H	-0.563907	-0.031473	-0.000008
H152	H	-0.230574	0.301861	0.333325
H153	H	0.102760	0.635194	0.666659
H154	H	-0.449470	0.040177	-0.139747
H155	H	-0.116137	0.373510	0.193586
H156	H	0.217197	0.706843	0.526920
H157	H	-0.877995	0.556606	-0.093315
H158	H	-0.544662	0.889940	0.240018
H159	H	-0.211328	1.223273	0.573351
F160	F	-0.990908	0.692519	0.173664
F161	F	-0.657574	1.025853	0.506997
F162	F	-0.324241	1.359186	0.840331
F163	F	-0.937535	0.267912	0.588880
F164	F	-0.604202	0.601245	0.922213
F165	F	-0.270868	0.934579	1.255546
H166	H	-1.025121	-0.024218	0.578744
H167	H	-0.691788	0.309115	0.912077
H168	H	-0.358454	0.642449	1.245411
F169	F	-1.034258	-0.042422	0.411305
F170	F	-0.700925	0.290912	0.744639
F171	F	-0.367591	0.624245	1.077972
H172	H	-0.908150	0.012896	0.420898
H173	H	-0.574817	0.346229	0.754232
H174	H	-0.241483	0.679563	1.087565
H175	H	-0.534918	0.189029	-0.139882
H176	H	-0.201585	0.522363	0.193451
H177	H	0.131748	0.855696	0.526784
H178	H	-0.979003	0.544673	-0.152925
H179	H	-0.645670	0.878006	0.180409
H180	H	-0.312337	1.211340	0.513742
F181	F	-1.100657	0.216510	0.411072
F182	F	-0.767323	0.549843	0.744405
F183	F	-0.433990	0.883176	1.077738
H184	H	-0.420764	0.260854	0.000002
H185	H	-0.087431	0.594187	0.333335
H186	H	0.245903	0.927520	0.666669
H187	H	-0.535030	0.189048	0.139899
H188	H	-0.201697	0.522382	0.473232
H189	H	0.131636	0.855715	0.806565
F190	F	-1.133309	0.676615	0.081554
F191	F	-0.799976	1.009948	0.414888
F192	F	-0.466643	1.343281	0.748221
H193	H	-1.122274	0.669512	-0.063187
H194	H	-0.788941	1.002845	0.270146
H195	H	-0.455608	1.336178	0.603480
F196	F	-0.443285	0.029720	0.159562
F197	F	-0.109952	0.363053	0.492896
F198	F	0.223381	0.696386	0.826229
H199	H	-1.119526	0.525877	-0.062798
H200	H	-0.786193	0.859211	0.270536
H201	H	-0.452859	1.192544	0.603869
H202	H	-1.119731	0.526449	0.063125
H203	H	-0.786398	0.859783	0.396459
H204	H	-0.453064	1.193116	0.729792
H205	H	-0.880319	0.700828	0.091897
H206	H	-0.546986	1.034162	0.425230
H207	H	-0.213653	1.367495	0.758564
F208	F	-0.857380	0.710427	-0.087633
F209	F	-0.524047	1.043760	0.245700
F210	F	-0.190713	1.377093	0.579034
F211	F	-0.937864	0.268646	0.413125
F212	F	-0.604531	0.601979	0.746458
F213	F	-0.271197	0.935312	1.079792
H214	H	-0.877016	0.557819	0.091102
H215	H	-0.543682	0.891152	0.424435
H216	H	-0.210349	1.224486	0.757768
F217	F	-0.986552	0.534871	0.173217
F218	F	-0.653219	0.868204	0.506550
F219	F	-0.319885	1.201537	0.839883
F220	F	-1.148820	0.070207	0.412845
F221	F	-0.815487	0.403540	0.746178
F222	F	-0.482153	0.736873	1.079511
F223	F	-0.985151	0.695770	-0.173791
F224	F	-0.651817	1.029103	0.159543
F225	F	-0.318484	1.362436	0.492876
F226	F	-0.838017	0.168615	0.412302
F227	F	-0.504684	0.501948	0.745635
F228	F	-0.171351	0.835281	1.078969
F229	F	-0.837589	0.168557	0.587399
F230	F	-0.504255	0.501891	0.920733
F231	F	-0.170922	0.835224	1.254066
H232	H	-1.095010	0.198280	0.578245
H233	H	-0.761677	0.531614	0.911578
H234	H	-0.428344	0.864947	1.244911
H235	H	-1.132608	0.086259	0.579175
H236	H	-0.799275	0.419592	0.912508
H237	H	-0.465941	0.752925	1.245842
H238	H	-0.912110	0.008443	0.580476
H239	H	-0.578776	0.341777	0.913809
H240	H	-0.245443	0.675110	1.247143
