data_functionalizedCrystal
_audit_creation_method	'MofGen! by Chris Wilmer'
_symmetry_space_group_name_H-M	'P1'
_symmetry_Int_Tables_number	1
_symmetry_cell_setting	triclinic
loop_
_symmetry_equiv_pos_as_xyz
  x,y,z
_cell_length_a	14.971482
_cell_length_b	14.519731
_cell_length_c	13.448316
_cell_angle_alpha	89.992415
_cell_angle_beta	89.993798
_cell_angle_gamma	83.650731
loop_
_atom_site_label
_atom_site_type_symbol
_atom_site_fract_x
_atom_site_fract_y
_atom_site_fract_z
O1	O	1.187026	0.120166	-0.082681
O2	O	1.520359	0.453500	0.250652
O3	O	1.853693	0.786833	0.583985
O4	O	0.926634	0.134562	-0.082686
O5	O	1.259968	0.467895	0.250647
O6	O	1.593301	0.801229	0.583980
O7	O	1.063724	-0.006877	-0.082675
O8	O	1.397058	0.326456	0.250659
O9	O	1.730391	0.659790	0.583992
O10	O	1.049936	0.261606	-0.082693
O11	O	1.383270	0.594939	0.250640
O12	O	1.716603	0.928272	0.583974
O13	O	1.063707	-0.006886	0.082709
O14	O	1.397040	0.326447	0.416043
O15	O	1.730374	0.659781	0.749376
O16	O	0.926617	0.134553	0.082697
O17	O	1.259951	0.467887	0.416031
O18	O	1.593284	0.801220	0.749364
O19	O	1.187009	0.120158	0.082703
O20	O	1.520342	0.453491	0.416036
O21	O	1.853675	0.786824	0.749369
Cu22	Cu	1.056811	0.127355	0.097801
Cu23	Cu	1.390145	0.460688	0.431134
Cu24	Cu	1.723478	0.794021	0.764468
Cu25	Cu	1.056832	0.127365	-0.097785
Cu26	Cu	1.390165	0.460698	0.235549
Cu27	Cu	1.723498	0.794032	0.568882
O28	O	1.049919	0.261597	0.082691
O29	O	1.383252	0.594930	0.416024
O30	O	1.716586	0.928264	0.749358
C31	C	0.893301	0.133915	0.000005
C32	C	1.226634	0.467248	0.333338
C33	C	1.559967	0.800581	0.666672
C34	C	0.794002	0.131987	0.000003
C35	C	1.127336	0.465320	0.333337
C36	C	1.460669	0.798654	0.666670
C37	C	0.747348	0.131075	0.090155
C38	C	1.080681	0.464408	0.423489
C39	C	1.414014	0.797741	0.756822
C40	C	0.654048	0.129249	0.090156
C41	C	0.987381	0.462582	0.423490
C42	C	1.320715	0.795915	0.756823
C43	C	0.607404	0.128342	0.000005
C44	C	0.940737	0.461676	0.333338
C45	C	1.274070	0.795009	0.666671
C46	C	0.654065	0.129252	-0.090154
C47	C	0.987399	0.462585	0.243179
C48	C	1.320732	0.795919	0.576513
C49	C	0.747364	0.131071	-0.090154
C50	C	1.080697	0.464405	0.243179
C51	C	1.414031	0.797738	0.576512
C52	C	0.459601	0.125463	-0.090147
C53	C	0.792934	0.458796	0.243186
C54	C	1.126268	0.792129	0.576519
C55	C	0.366296	0.123645	-0.090148
C56	C	0.699629	0.456978	0.243186
C57	C	1.032962	0.790312	0.576519
C58	C	0.366285	0.123640	0.090163
C59	C	0.699618	0.456974	0.423497
C60	C	1.032952	0.790307	0.756830
C61	C	0.459584	0.125459	0.090163
C62	C	0.792917	0.458793	0.423496
C63	C	1.126250	0.792126	0.756830
C64	C	0.506238	0.126371	0.000004
C65	C	0.839572	0.459704	0.333337
C66	C	1.172905	0.793038	0.666671
C67	C	1.063069	-0.041241	0.000018
C68	C	1.396403	0.292093	0.333351
C69	C	1.729736	0.625426	0.666684
C70	C	1.061134	-0.143620	0.000018
C71	C	1.394467	0.189714	0.333351
C72	C	1.727800	0.523047	0.666685
C73	C	1.059560	-0.226763	0.000016
C74	C	1.392894	0.106571	0.333349
C75	C	1.726227	0.439904	0.666682
C76	C	1.057595	-0.331070	0.000008
C77	C	1.390928	0.002263	0.333341
C78	C	1.724262	0.335596	0.666675
C79	C	1.056035	-0.414208	0.000002
C80	C	1.389368	-0.080875	0.333335
C81	C	1.722702	0.252458	0.666668
C82	C	1.054070	-0.518523	-0.000004
C83	C	1.387403	-0.185189	0.333329
C84	C	1.720736	0.148144	0.666663
C85	C	1.220342	0.120805	0.000009
C86	C	1.553676	0.454139	0.333342
C87	C	1.887009	0.787472	0.666676
C88	C	1.319641	0.122733	0.000004
C89	C	1.652974	0.456066	0.333338
C90	C	1.986308	0.789399	0.666671
C91	C	1.050574	0.295960	-0.000003
C92	C	1.383907	0.629294	0.333330
C93	C	1.717240	0.962627	0.666663
C94	C	1.052510	0.398339	-0.000011
C95	C	1.385843	0.731673	0.333323
C96	C	1.719176	1.065006	0.666656
N97	N	1.056804	0.127347	0.235365
N98	N	1.390137	0.460680	0.568699
N99	N	1.723470	0.794014	0.902032
N100	N	1.056847	0.127366	-0.235349
N101	N	1.390180	0.460699	0.097984
N102	N	1.723513	0.794032	0.431318
C103	C	1.117526	0.064743	0.287411
C104	C	1.450859	0.398077	0.620744
C105	C	1.784192	0.731410	0.954077
C106	C	1.117531	0.064743	0.391514
C107	C	1.450865	0.398076	0.724847
C108	C	1.784198	0.731409	1.058181
C109	C	1.056818	0.127351	0.443570
C110	C	1.390152	0.460684	0.776903
C111	C	1.723485	0.794017	1.110236
C112	C	0.996090	0.189957	0.391517
C113	C	1.329423	0.523290	0.724850
C114	C	1.662756	0.856624	1.058184
C115	C	0.996080	0.189953	0.287416
C116	C	1.329414	0.523286	0.620749
C117	C	1.662747	0.856619	0.954082
C118	C	0.996114	0.189963	0.608497
C119	C	1.329448	0.523297	0.941830
C120	C	1.662781	0.856630	1.275164
C121	C	0.996124	0.189969	0.712606
C122	C	1.329458	0.523302	1.045939
C123	C	1.662791	0.856636	1.379272
C124	C	1.117565	0.064753	0.712595
C125	C	1.450899	0.398087	1.045929
C126	C	1.784232	0.731420	1.379262
C127	C	1.117556	0.064749	0.608494
C128	C	1.450890	0.398082	0.941827
C129	C	1.784223	0.731416	1.275161
C130	C	1.056828	0.127357	0.556448
C131	C	1.390162	0.460690	0.889782
C132	C	1.723495	0.794023	1.223115
H133	H	0.785349	0.131816	-0.163565
H134	H	1.118682	0.465149	0.169768
H135	H	1.452015	0.798483	0.503101
H136	H	0.785318	0.131820	0.163567
H137	H	1.118651	0.465154	0.496901
H138	H	1.451984	0.798487	0.830234
Br139	Br	0.913662	0.274912	0.216782
Br140	Br	1.246995	0.608246	0.550115
Br141	Br	1.580329	0.941579	0.883449
Br142	Br	1.199984	-0.020209	0.783232
Br143	Br	1.533317	0.313124	1.116565
Br144	Br	1.866651	0.646458	1.449898
Br145	Br	0.913724	0.274941	0.783245
Br146	Br	1.247058	0.608274	1.116579
Br147	Br	1.580391	0.941607	1.449912
H148	H	0.946660	0.240942	0.566125
H149	H	1.279994	0.574276	0.899458
H150	H	1.613327	0.907609	1.232792
H151	H	1.166969	0.013765	0.245034
H152	H	1.500302	0.347098	0.578367
H153	H	1.833636	0.680431	0.911700
Br154	Br	0.590732	0.128026	0.212511
Br155	Br	0.924065	0.461359	0.545844
Br156	Br	1.257399	0.794692	0.879178
Br157	Br	0.590769	0.127981	-0.212505
Br158	Br	0.924102	0.461314	0.120829
Br159	Br	1.257435	0.794648	0.454162
Br160	Br	1.199960	-0.020210	0.537843
Br161	Br	1.533293	0.313123	0.871177
Br162	Br	1.866626	0.646456	1.204510
H163	H	0.497558	0.126203	0.163573
H164	H	0.830891	0.459537	0.496906
H165	H	1.164225	0.792870	0.830239
H166	H	1.166975	0.013766	0.433889
H167	H	1.500309	0.347099	0.767222
H168	H	1.833642	0.680432	1.100556
H169	H	0.497584	0.126205	-0.163565
H170	H	0.830918	0.459539	0.169769
H171	H	1.164251	0.792872	0.503102
Br172	Br	0.913684	0.274921	0.462160
Br173	Br	1.247018	0.608254	0.795493
Br174	Br	1.580351	0.941587	1.128827
H175	H	0.328294	0.122898	0.163574
H176	H	0.661627	0.456232	0.496907
H177	H	0.994961	0.789565	0.830241
H178	H	0.328320	0.122908	-0.163557
H179	H	0.661654	0.456241	0.169776
H180	H	0.994987	0.789574	0.503110
