data_functionalizedCrystal
_audit_creation_method	'MofGen! by Chris Wilmer'
_symmetry_space_group_name_H-M	'P1'
_symmetry_Int_Tables_number	1
_symmetry_cell_setting	triclinic
loop_
_symmetry_equiv_pos_as_xyz
  x,y,z
_cell_length_a	17.038272
_cell_length_b	17.699083
_cell_length_c	16.098538
_cell_angle_alpha	92.736382
_cell_angle_beta	92.929602
_cell_angle_gamma	92.802714
loop_
_atom_site_label
_atom_site_type_symbol
_atom_site_fract_x
_atom_site_fract_y
_atom_site_fract_z
O1	O	0.102353	-1.007452	0.069140
O2	O	0.115216	-0.787924	0.069168
O3	O	-0.005029	-0.896383	0.069148
O4	O	0.222598	-0.898992	0.069160
O5	O	-0.012032	-0.902714	-0.069366
O6	O	0.108213	-0.794254	-0.069346
O7	O	0.095350	-1.013783	-0.069374
Zn8	Zn	0.100669	-0.905024	-0.091352
Zn9	Zn	0.109897	-0.896683	0.091146
O10	O	0.215595	-0.905323	-0.069354
C11	C	0.111254	-0.762861	-0.000086
C12	C	0.109872	-0.678751	-0.000076
C13	C	-0.037655	-0.897175	-0.000109
C14	C	-0.124436	-0.890094	-0.000108
N15	N	0.094372	-0.910721	-0.215902
C16	C	-0.174657	-0.955105	-0.000117
C17	C	-0.256196	-0.948447	-0.000108
C18	C	-0.287513	-0.876778	-0.000096
C19	C	-0.237286	-0.811762	-0.000085
C20	C	-0.155748	-0.818421	-0.000088
C21	C	-0.533232	-0.853254	-0.000082
C22	C	-0.614777	-0.846601	-0.000082
C23	C	-0.633681	-0.983286	-0.000103
C24	C	-0.552141	-0.989939	-0.000111
C25	C	-0.501921	-0.924923	-0.000095
C26	C	-0.370860	-0.869971	-0.000090
C27	C	-0.418576	-0.931731	-0.000096
C28	C	0.248221	-0.904531	-0.000095
C29	C	0.335003	-0.911611	-0.000091
C30	C	0.099312	-1.038845	-0.000118
C31	C	0.100695	-1.122955	-0.000123
C32	C	0.180453	-0.634800	-0.000072
C33	C	0.179149	-0.555771	-0.000083
C34	C	0.107263	-0.520694	-0.000091
C35	C	0.036676	-0.564651	-0.000098
C36	C	0.037981	-0.643679	-0.000093
C37	C	0.031412	-0.245941	-0.000118
C38	C	0.030113	-0.166907	-0.000121
C39	C	0.172580	-0.158033	-0.000108
C40	C	0.173885	-0.237061	-0.000104
C41	C	0.103298	-0.281011	-0.000114
C42	C	0.104713	-0.366703	-0.000104
C43	C	0.105847	-0.435003	-0.000096
N44	N	0.116188	-0.890990	0.215696
C45	C	0.065248	-0.937126	0.259273
C46	C	0.069648	-0.933142	0.346463
C47	C	0.124984	-0.883018	0.390074
C48	C	0.175929	-0.836881	0.346492
C49	C	0.171533	-0.840869	0.259303
C50	C	0.140920	-0.868572	0.653327
C51	C	0.145311	-0.864586	0.740521
C52	C	0.039031	-0.960849	0.740486
C53	C	0.034636	-0.964829	0.653296
C54	C	0.085584	-0.918695	0.609721
C55	C	0.129481	-0.878943	0.479196
C56	C	0.081090	-0.922774	0.520601
H57	H	-0.149165	-1.013466	-0.000132
H58	H	0.020185	-0.977939	0.223770
H59	H	0.230054	-0.122239	-0.000104
Cl60	Cl	-0.319328	-1.030180	-0.000122
Cl61	Cl	-0.470109	-0.771519	-0.000060
H62	H	-0.026064	-0.281716	-0.000128
Cl63	Cl	-0.696818	-1.065015	-0.000121
Cl64	Cl	-0.060265	-0.122811	-0.000132
H65	H	-0.021855	-0.536086	-0.000116
Cl66	Cl	0.245500	-0.773871	0.401316
Cl67	Cl	-0.512775	-1.080040	-0.000099
H68	H	0.182403	-0.831006	0.617855
Cl69	Cl	0.214883	-0.801566	0.795341
Cl70	Cl	0.235578	-0.782870	0.204522
Cl71	Cl	0.011530	-0.985787	0.465775
H72	H	0.236623	-0.519989	-0.000079
H73	H	-0.019493	-0.679463	-0.000095
H74	H	0.028169	-0.970710	0.381942
Cl75	Cl	0.199044	-0.815930	0.534026
H76	H	-0.002448	-0.998410	0.775973
H77	H	-0.640272	-0.788237	-0.000086
Cl78	Cl	-0.034931	-1.027841	0.598470
H79	H	-0.262791	-0.753407	-0.000070
Cl80	Cl	-0.092613	-0.736689	-0.000073
H81	H	-0.393073	-0.990083	-0.000087
H82	H	-0.396367	-0.811617	-0.000082
H83	H	0.238991	-0.663354	-0.000064
H84	H	0.232422	-0.265616	-0.000093
