data_functionalizedCrystal
_audit_creation_method	'MofGen! by Chris Wilmer'
_symmetry_space_group_name_H-M	'P1'
_symmetry_Int_Tables_number	1
_symmetry_cell_setting	triclinic
loop_
_symmetry_equiv_pos_as_xyz
  x,y,z
_cell_length_a	17.699083
_cell_length_b	22.610064
_cell_length_c	17.699083
_cell_angle_alpha	89.996827
_cell_angle_beta	83.283015
_cell_angle_gamma	90.002185
loop_
_atom_site_label
_atom_site_type_symbol
_atom_site_fract_x
_atom_site_fract_y
_atom_site_fract_z
O1	O	1.004081	0.049103	0.095701
O2	O	1.337414	0.382436	0.429034
O3	O	1.670748	0.715769	0.762368
O4	O	0.783703	0.049122	0.108153
O5	O	1.117036	0.382456	0.441487
O6	O	1.450369	0.715789	0.774820
O7	O	0.900118	0.049107	-0.008262
O8	O	1.233451	0.382440	0.325071
O9	O	1.566785	0.715773	0.658405
O10	O	0.887666	0.049118	0.212116
O11	O	1.220999	0.382452	0.545450
O12	O	1.554332	0.715785	0.878783
O13	O	0.900098	-0.049262	-0.008245
O14	O	1.233431	0.284071	0.325088
O15	O	1.566764	0.617404	0.658422
O16	O	0.783682	-0.049247	0.108170
O17	O	1.117015	0.284086	0.441504
O18	O	1.450349	0.617420	0.774837
O19	O	1.004060	-0.049266	0.095718
O20	O	1.337394	0.284067	0.429051
O21	O	1.670727	0.617400	0.762385
Zn22	Zn	0.893868	-0.064875	0.101947
Zn23	Zn	1.227201	0.268458	0.435280
Zn24	Zn	1.560535	0.601792	0.768614
Zn25	Zn	0.893895	0.064731	0.101924
Zn26	Zn	1.227228	0.398064	0.435258
Zn27	Zn	1.560562	0.731397	0.768591
O28	O	0.887645	-0.049251	0.212133
O29	O	1.220978	0.284082	0.545467
O30	O	1.554312	0.617416	0.878800
C31	C	0.755495	-0.000060	0.107716
C32	C	1.088829	0.333274	0.441049
C33	C	1.422162	0.666607	0.774382
C34	C	0.671477	-0.000053	0.106377
C35	C	1.004811	0.333281	0.439710
C36	C	1.338144	0.666614	0.773044
N37	N	0.893855	-0.153327	0.101962
N38	N	1.227188	0.180006	0.435295
N39	N	1.560522	0.513339	0.768628
C40	C	0.622856	-0.000049	0.174711
C41	C	0.956190	0.333284	0.508044
C42	C	1.289523	0.666618	0.841377
C43	C	0.543913	-0.000057	0.173448
C44	C	0.877246	0.333276	0.506782
C45	C	1.210580	0.666610	0.840115
C46	C	0.513592	-0.000064	0.103852
C47	C	0.846926	0.333270	0.437185
C48	C	1.180259	0.666603	0.770518
C49	C	0.562219	-0.000069	0.035513
C50	C	0.895553	0.333264	0.368846
C51	C	1.228886	0.666598	0.702180
C52	C	0.641161	-0.000065	0.036776
C53	C	0.974495	0.333268	0.370110
C54	C	1.307828	0.666601	0.703443
C55	C	0.243856	-0.000084	0.030418
C56	C	0.577190	0.333250	0.363751
C57	C	0.910523	0.666583	0.697085
C58	C	0.164908	-0.000085	0.029160
C59	C	0.498242	0.333248	0.362493
C60	C	0.831575	0.666581	0.695827
C61	C	0.146608	-0.000075	0.167090
C62	C	0.479942	0.333258	0.500423
C63	C	0.813275	0.666591	0.833757
C64	C	0.225550	-0.000072	0.168353
C65	C	0.558883	0.333262	0.501686
C66	C	0.892217	0.666595	0.835020
C67	C	0.274170	-0.000080	0.100015
C68	C	0.607504	0.333253	0.433348
C69	C	0.940837	0.666587	0.766681
C70	C	0.359769	-0.000073	0.101384
C71	C	0.693103	0.333261	0.434718
C72	C	1.026436	0.666594	0.768051
C73	C	0.427995	-0.000067	0.102481
C74	C	0.761328	0.333267	0.435815
C75	C	1.094661	0.666600	0.769148
C76	C	0.945446	-0.561976	0.050384
C77	C	1.278780	-0.228642	0.383717
C78	C	1.612113	0.104691	0.717050
C79	C	0.945450	-0.623895	0.050378
C80	C	1.278783	-0.290562	0.383711
C81	C	1.612117	0.042771	0.717045
O82	O	0.989282	-0.655920	0.006536
O83	O	1.322616	-0.322587	0.339869
O84	O	1.655949	0.010747	0.673203
N85	N	0.893895	-0.654864	0.101909
N86	N	1.227228	-0.321531	0.435242
N87	N	1.560561	0.011802	0.768575
C88	C	0.842327	-0.623910	0.153443
C89	C	1.175660	-0.290577	0.486776
C90	C	1.508993	0.042756	0.820110
O91	O	0.798475	-0.655938	0.197273
O92	O	1.131808	-0.322604	0.530606
O93	O	1.465141	0.010729	0.863940
C94	C	0.842320	-0.561992	0.153444
C95	C	1.175653	-0.228658	0.486778
C96	C	1.508986	0.104675	0.820111
C97	C	0.893884	-0.531026	0.101916
C98	C	1.227217	-0.197692	0.435249
C99	C	1.560550	0.135641	0.768582
C100	C	0.997005	-0.531010	-0.001142
C101	C	1.330339	-0.197676	0.332192
C102	C	1.663672	0.135657	0.665525
C103	C	0.997002	-0.469094	-0.001135
C104	C	1.330336	-0.135761	0.332198
C105	C	1.663669	0.197573	0.665532
C106	C	0.945440	-0.438144	0.050397
C107	C	1.278773	-0.104811	0.383730
C108	C	1.612107	0.228522	0.717064
C109	C	0.893881	-0.469110	0.101922
C110	C	1.227214	-0.135777	0.435255
C111	C	1.560547	0.197557	0.768589
C112	C	0.790749	-0.531038	0.204975
C113	C	1.124082	-0.197705	0.538308
C114	C	1.457416	0.135628	0.871641
C115	C	0.790746	-0.469115	0.204971
C116	C	1.124079	-0.135782	0.538304
C117	C	1.457413	0.197551	0.871638
C118	C	0.842310	-0.438150	0.153442
C119	C	1.175643	-0.104816	0.486775
C120	C	1.508977	0.228517	0.820109
C121	C	0.842315	-0.376245	0.153461
C122	C	1.175649	-0.042911	0.486794
C123	C	1.508982	0.290422	0.820127
N124	N	0.893871	-0.345276	0.101930
N125	N	1.227204	-0.011942	0.435263
N126	N	1.560537	0.321391	0.768597
C127	C	0.945433	-0.376226	0.050398
C128	C	1.278766	-0.042892	0.383731
C129	C	1.612100	0.290441	0.717065
C130	C	0.842344	-0.753944	0.153436
C131	C	1.175677	-0.420611	0.486769
C132	C	1.509011	-0.087277	0.820102
C133	C	0.842354	-0.815862	0.153439
C134	C	1.175687	-0.482528	0.486772
C135	C	1.509021	-0.149195	0.820105
C136	C	0.945477	-0.815842	0.050372
C137	C	1.278810	-0.482509	0.383706
C138	C	1.612143	-0.149176	0.717039
C139	C	0.945470	-0.753924	0.050374
C140	C	1.278803	-0.420590	0.383707
C141	C	1.612136	-0.087257	0.717040
C142	C	0.893900	-0.722975	0.101905
C143	C	1.227233	-0.389642	0.435238
C144	C	1.560566	-0.056308	0.768572
C145	C	0.945423	-0.246198	0.050416
C146	C	1.278756	0.087135	0.383750
C147	C	1.612090	0.420468	0.717083
C148	C	0.945417	-0.184277	0.050430
C149	C	1.278751	0.149056	0.383763
C150	C	1.612084	0.482390	0.717096
C151	C	0.842292	-0.184302	0.153493
C152	C	1.175626	0.149032	0.486826
C153	C	1.508959	0.482365	0.820160
C154	C	0.842300	-0.246217	0.153483
C155	C	1.175634	0.087116	0.486816
C156	C	1.508967	0.420449	0.820149
C157	C	0.893869	-0.277164	0.101938
C158	C	1.227202	0.056169	0.435271
C159	C	1.560535	0.389503	0.768605
O160	O	0.798503	-0.344181	0.197279
O161	O	1.131836	-0.010847	0.530612
O162	O	1.465170	0.322486	0.863945
O163	O	0.989271	-0.344191	0.006569
O164	O	1.322604	-0.010857	0.339902
O165	O	1.655938	0.322476	0.673236
C166	C	1.032268	-0.000083	0.096156
C167	C	1.365601	0.333250	0.429489
C168	C	1.698934	0.666584	0.762822
C169	C	1.116286	-0.000086	0.097494
C170	C	1.449619	0.333247	0.430828
C171	C	1.782953	0.666580	0.764161
C172	C	0.899662	-0.000078	-0.036451
C173	C	1.232995	0.333256	0.296883
C174	C	1.566328	0.666589	0.630216
C175	C	0.898323	-0.000078	-0.120469
C176	C	1.231656	0.333255	0.212865
C177	C	1.564990	0.666589	0.546198
N178	N	0.893914	0.153183	0.101904
N179	N	1.227247	0.486517	0.435237
N180	N	1.560581	0.819850	0.768570
C181	C	0.966656	-0.000085	-0.169090
C182	C	1.299990	0.333248	0.164244
C183	C	1.633323	0.666582	0.497577
C184	C	0.965394	-0.000079	-0.248033
C185	C	1.298727	0.333254	0.085300
C186	C	1.632061	0.666587	0.418634
C187	C	0.895798	-0.000071	-0.278354
C188	C	1.229131	0.333262	0.054980
C189	C	1.562464	0.666595	0.388313
C190	C	0.827459	-0.000063	-0.229727
C191	C	1.160792	0.333271	0.103607
C192	C	1.494126	0.666604	0.436940
C193	C	0.828722	-0.000064	-0.150785
C194	C	1.162055	0.333269	0.182549
C195	C	1.495389	0.666603	0.515882
C196	C	0.822364	-0.000058	-0.548090
C197	C	1.155697	0.333276	-0.214756
C198	C	1.489030	0.666609	0.118577
C199	C	0.821106	-0.000058	-0.627038
C200	C	1.154439	0.333275	-0.293704
C201	C	1.487773	0.666608	0.039629
C202	C	0.959036	-0.000073	-0.645338
C203	C	1.292369	0.333260	-0.312004
C204	C	1.625702	0.666594	0.021329
C205	C	0.960299	-0.000074	-0.566396
C206	C	1.293632	0.333259	-0.233063
C207	C	1.626966	0.666592	0.100271
C208	C	0.891961	-0.000062	-0.517776
C209	C	1.225294	0.333271	-0.184442
C210	C	1.558627	0.666604	0.148891
C211	C	0.893330	-0.000067	-0.432177
C212	C	1.226664	0.333266	-0.098843
C213	C	1.559997	0.666600	0.234490
C214	C	0.894427	-0.000071	-0.363951
C215	C	1.227761	0.333262	-0.030618
C216	C	1.561094	0.666596	0.302715
C217	C	0.888102	-0.000065	0.240322
C218	C	1.221435	0.333268	0.573655
C219	C	1.554768	0.666602	0.906989
C220	C	0.889440	-0.000061	0.324340
C221	C	1.222773	0.333272	0.657673
C222	C	1.556107	0.666606	0.991007
H223	H	0.647537	-0.000043	0.231384
H224	H	0.980870	0.333290	0.564717
H225	H	1.314204	0.666624	0.898051
H226	H	0.773078	-0.000058	-0.111198
H227	H	1.106411	0.333275	0.222136
H228	H	1.439745	0.666608	0.555469
H229	H	1.014680	-0.000080	-0.684934
H230	H	1.348013	0.333254	-0.351601
H231	H	1.681347	0.666587	-0.018268
O232	O	1.041725	-0.000094	-0.136394
O233	O	1.375059	0.333239	0.196940
O234	O	1.708392	0.666573	0.530273
H235	H	1.031126	-0.000099	-0.073332
H236	H	1.364460	0.333234	0.260002
H237	H	1.697793	0.666568	0.593335
H238	H	0.800351	-0.728748	0.195405
H239	H	1.133685	-0.395415	0.528738
H240	H	1.467018	-0.062082	0.862071
H241	H	0.283434	-0.000091	-0.025228
H242	H	0.616767	0.333242	0.308106
H243	H	0.950101	0.666576	0.641439
H244	H	1.016971	-0.000084	-0.541714
H245	H	1.350305	0.333250	-0.208380
H246	H	1.683638	0.666583	0.124953
O247	O	0.491469	-0.000053	0.247150
O248	O	0.824802	0.333280	0.580483
O249	O	1.158136	0.666613	0.913817
H250	H	0.525815	-0.000041	0.295756
H251	H	0.859149	0.333292	0.629090
H252	H	1.192482	0.666626	0.962423
O253	O	1.001051	-0.279566	-0.005173
O254	O	1.334384	0.053767	0.328160
O255	O	1.667718	0.387100	0.661494
H256	H	0.969276	-0.307772	-0.041936
H257	H	1.302610	0.025561	0.291397
H258	H	1.635943	0.358894	0.624731
H259	H	0.250232	-0.000063	0.225025
H260	H	0.583566	0.333270	0.558359
H261	H	0.916899	0.666603	0.891692
O262	O	0.693608	-0.000067	-0.036925
O263	O	1.026942	0.333266	0.296408
O264	O	1.360275	0.666599	0.629741
H265	H	0.659264	-0.000067	-0.085533
H266	H	0.992597	0.333266	0.247800
H267	H	1.325931	0.666599	0.581134
O268	O	0.752394	-0.000061	-0.262429
O269	O	1.085727	0.333272	0.070904
O270	O	1.419061	0.666606	0.404238
H271	H	0.748527	0.040028	-0.297969
H272	H	1.081861	0.373362	0.035364
H273	H	1.415194	0.706695	0.368697
O274	O	0.746038	-0.000045	-0.659745
O275	O	1.079372	0.333288	-0.326412
O276	O	1.412705	0.666622	0.006921
H277	H	0.698730	-0.000031	-0.612675
H278	H	1.032063	0.333302	-0.279342
H279	H	1.365396	0.666636	0.053992
O280	O	0.748660	-0.000060	-0.495653
O281	O	1.081994	0.333273	-0.162320
O282	O	1.415327	0.666607	0.171013
H283	H	0.700056	-0.000065	-0.530002
H284	H	1.033389	0.333268	-0.196669
H285	H	1.366723	0.666602	0.136664
H286	H	0.748761	-0.556242	0.246934
H287	H	1.082094	-0.222909	0.580267
H288	H	1.415427	0.110424	0.913600
H289	H	0.107012	-0.000072	0.222734
H290	H	0.440345	0.333262	0.556067
H291	H	0.773678	0.666595	0.889401
H292	H	0.537526	-0.000083	-0.021154
H293	H	0.870859	0.333250	0.312180
H294	H	1.204193	0.666584	0.645513
O295	O	0.132201	-0.000103	-0.045908
O296	O	0.465534	0.333230	0.287426
O297	O	0.798867	0.666564	0.620759
H298	H	0.179271	-0.000116	-0.093216
H299	H	0.512604	0.333217	0.240117
H300	H	0.845938	0.666550	0.573451
H301	H	1.038988	-0.443885	-0.043096
H302	H	1.372321	-0.110552	0.290237
H303	H	1.705655	0.222781	0.623570
H304	H	0.987410	-0.159067	0.008469
H305	H	1.320743	0.174267	0.341802
H306	H	1.654076	0.507600	0.675135
H307	H	1.038994	-0.556204	-0.043109
H308	H	1.372327	-0.222870	0.290225
H309	H	1.705660	0.110463	0.623558
O310	O	1.001077	-0.720525	-0.005210
O311	O	1.334410	-0.387192	0.328123
O312	O	1.667743	-0.053859	0.661457
H313	H	1.036926	-0.752455	-0.041044
H314	H	1.370259	-0.419122	0.292290
H315	H	1.703592	-0.085789	0.625623
O316	O	1.039096	-0.000097	-0.300477
O317	O	1.372429	0.333237	0.032856
O318	O	1.705762	0.666570	0.366190
H319	H	1.087702	-0.000113	-0.266131
H320	H	1.421036	0.333220	0.067203
H321	H	1.754369	0.666553	0.400536
O322	O	1.001087	-0.849229	-0.005219
O323	O	1.334421	-0.515896	0.328115
O324	O	1.667754	-0.182562	0.661448
H325	H	0.992418	-0.897486	0.003436
H326	H	1.325752	-0.564153	0.336769
H327	H	1.659085	-0.230820	0.670102
H328	H	0.800374	-0.841070	0.195406
H329	H	1.133707	-0.507736	0.528739
H330	H	1.467041	-0.174403	0.862073
O331	O	0.735127	-0.435734	0.260556
O332	O	1.068461	-0.102400	0.593890
O333	O	1.401794	0.230933	0.927223
H334	H	0.699281	-0.467673	0.296387
H335	H	1.032615	-0.134340	0.629721
H336	H	1.365948	0.198994	0.963054
O337	O	0.786689	-0.279622	0.209059
O338	O	1.120022	0.053711	0.542393
O339	O	1.453356	0.387044	0.875726
H340	H	0.750832	-0.247696	0.244891
H341	H	1.084165	0.085638	0.578224
H342	H	1.417499	0.418971	0.911558
H343	H	0.800313	-0.159093	0.195452
H344	H	1.133646	0.174241	0.528785
H345	H	1.466980	0.507574	0.862119
