data_functionalizedCrystal
_audit_creation_method	'MofGen! by Chris Wilmer'
_symmetry_space_group_name_H-M	'P1'
_symmetry_Int_Tables_number	1
_symmetry_cell_setting	triclinic
loop_
_symmetry_equiv_pos_as_xyz
  x,y,z
_cell_length_a	17.640112
_cell_length_b	16.625545
_cell_length_c	17.640968
_cell_angle_alpha	78.769372
_cell_angle_beta	92.139080
_cell_angle_gamma	101.250346
loop_
_atom_site_label
_atom_site_type_symbol
_atom_site_fract_x
_atom_site_fract_y
_atom_site_fract_z
Zn1	Zn	1.247777	-0.023167	-0.195080
Zn2	Zn	1.222000	-0.189521	-0.068100
Zn3	Zn	1.095107	-0.075617	-0.093727
Zn4	Zn	1.120741	-0.178908	-0.220682
O5	O	1.171406	-0.116803	-0.144397
O6	O	1.350628	-0.027726	-0.156797
O7	O	1.183651	-0.200804	0.034773
O8	O	1.115419	0.044187	-0.107182
O9	O	1.331689	-0.149945	-0.063505
O10	O	1.227585	0.082722	-0.181646
O11	O	1.090423	-0.117119	0.015945
O12	O	0.992237	-0.106828	-0.132007
O13	O	1.159109	-0.131856	-0.323559
O14	O	1.011070	-0.182714	-0.225280
O15	O	1.252442	-0.017434	-0.304749
O16	O	1.208508	-0.300960	-0.088330
O17	O	1.134113	-0.293162	-0.200431
C18	C	0.974099	-0.149311	-0.184203
C19	C	0.889694	-0.163233	-0.201250
C20	C	1.171319	-0.326314	-0.144390
C21	C	1.171356	-0.415925	-0.144398
C22	C	0.563039	-0.011024	-0.014898
C23	C	0.483729	-0.024119	-0.030927
C24	C	0.503361	-0.103324	-0.127885
C25	C	0.582674	-0.090231	-0.111867
C26	C	0.612506	-0.044082	-0.055372
C27	C	0.632142	-0.123289	-0.152341
C28	C	0.711447	-0.110201	-0.136321
C29	C	0.741285	-0.064056	-0.079827
C30	C	0.691812	-0.030994	-0.039352
C31	C	0.602307	-0.169444	-0.208831
C32	C	0.651775	-0.202502	-0.249305
C33	C	0.731083	-0.189409	-0.233290
C34	C	0.760921	-0.143263	-0.176796
C35	C	0.780556	-0.222471	-0.273765
C36	C	0.859862	-0.209383	-0.257745
C37	C	0.840227	-0.130176	-0.160776
C38	C	1.171389	-0.488699	-0.144407
C39	C	1.171436	-0.579996	-0.144415
C40	C	1.171478	-0.652764	-0.144417
C41	C	1.171524	-0.744067	-0.144424
C42	C	1.369484	-0.084169	-0.104436
C43	C	1.453892	-0.070262	-0.087407
C44	C	1.211510	-0.067610	-0.342480
C45	C	1.228600	-0.046647	-0.426890
C46	C	1.171518	0.093533	-0.144417
C47	C	1.171566	0.183165	-0.144425
C48	C	1.041868	-0.275571	-0.753467
C49	C	1.057942	-0.255860	-0.832780
C50	C	1.155122	-0.136723	-0.813185
C51	C	1.139053	-0.156421	-0.733869
C52	C	1.082426	-0.225847	-0.704016
C53	C	1.179610	-0.106697	-0.684418
C54	C	1.163545	-0.126397	-0.605108
C55	C	1.106922	-0.195821	-0.575249
C56	C	1.066361	-0.245547	-0.624706
C57	C	1.236241	-0.037276	-0.714272
C58	C	1.276799	0.012448	-0.664821
C59	C	1.260730	-0.007248	-0.585510
C60	C	1.204107	-0.076672	-0.555651
C61	C	1.301292	0.042478	-0.536053
C62	C	1.285227	0.022778	-0.456743
C63	C	1.188042	-0.096371	-0.476341
C64	C	1.131502	-0.165739	0.052923
C65	C	1.114559	-0.186451	0.137363
H66	H	0.864519	-0.092581	-0.114784
H67	H	1.249321	-0.021240	-0.778851
Br68	Br	1.353651	0.106662	-0.705342
H69	H	1.201230	-0.080198	-0.837502
Br70	Br	0.740056	-0.285124	-0.350415
Br71	Br	1.111181	-0.190585	-0.435821
Br72	Br	0.416593	0.020740	0.024017
H73	H	1.347403	0.098999	-0.560371
H74	H	0.537731	-0.180099	-0.221873
Br75	Br	1.002892	-0.323350	-0.899892
H76	H	0.805861	-0.053403	-0.066784
H77	H	1.318252	0.063269	-0.416479
H78	H	0.716105	0.006601	0.006640
H79	H	0.587331	0.026571	0.031094
Br80	Br	0.462865	-0.165969	-0.204542
Br81	Br	0.927001	-0.254253	-0.312670
Br82	Br	0.611279	-0.265147	-0.325962
H83	H	1.093846	-0.211862	-0.510668
Br84	Br	0.989500	-0.339760	-0.584186
H85	H	0.995738	-0.332088	-0.729163
