data_functionalizedCrystal
_audit_creation_method	'MofGen! by Chris Wilmer'
_symmetry_space_group_name_H-M	'P1'
_symmetry_Int_Tables_number	1
_symmetry_cell_setting	triclinic
loop_
_symmetry_equiv_pos_as_xyz
  x,y,z
_cell_length_a	11.169416
_cell_length_b	11.169417
_cell_length_c	16.959455
_cell_angle_alpha	90.003566
_cell_angle_beta	90.003897
_cell_angle_gamma	90.011219
loop_
_atom_site_label
_atom_site_type_symbol
_atom_site_fract_x
_atom_site_fract_y
_atom_site_fract_z
Zn1	Zn	-0.478001	1.834770	0.446893
Zn2	Zn	0.021999	2.334770	0.946893
Zn3	Zn	-0.678647	1.834716	0.314727
Zn4	Zn	-0.178647	2.334716	0.814727
Zn5	Zn	-0.477980	1.634113	0.314735
Zn6	Zn	0.022020	2.134113	0.814735
Zn7	Zn	-0.678644	1.634063	0.446871
Zn8	Zn	-0.178644	2.134063	0.946871
O9	O	-0.578318	1.734415	0.380807
O10	O	-0.078318	2.234415	0.880807
O11	O	-0.504628	2.002712	0.429366
O12	O	-0.004628	2.502712	0.929366
O13	O	-0.652021	1.808104	0.204117
O14	O	-0.152021	2.308104	0.704117
O15	O	-0.310033	1.660773	0.332279
O16	O	0.189967	2.160773	0.832279
O17	O	-0.652042	2.002673	0.332265
O18	O	-0.152042	2.502673	0.832265
O19	O	-0.310049	1.808195	0.429374
O20	O	0.189951	2.308195	0.929374
O21	O	-0.504591	1.660721	0.204123
O22	O	-0.004591	2.160721	0.704123
O23	O	-0.504588	1.466156	0.332258
O24	O	-0.004588	1.966156	0.832258
O25	O	-0.652036	1.660689	0.557485
O26	O	-0.152036	2.160689	1.057485
O27	O	-0.652015	1.466120	0.429337
O28	O	-0.152015	1.966120	0.929337
O29	O	-0.504625	1.808147	0.557501
O30	O	-0.004625	2.308147	1.057501
O31	O	-0.846597	1.808056	0.332244
O32	O	-0.346597	2.308056	0.832244
O33	O	-0.846594	1.660637	0.429329
O34	O	-0.346594	2.160637	0.929329
C35	C	-0.578300	1.422591	0.380796
C36	C	-0.078300	1.922591	0.880796
C37	C	-0.578321	1.289191	0.380811
C38	C	-0.078321	1.789191	0.880811
C39	C	-0.890143	1.734368	0.380801
C40	C	-0.390143	2.234368	0.880801
C41	C	-1.023543	1.734457	0.380824
C42	C	-0.523543	2.234457	0.880824
C43	C	-0.265276	1.734496	0.380830
C44	C	0.234724	2.234496	0.880830
C45	C	-0.131876	1.734530	0.380840
C46	C	0.368124	2.234530	0.880840
C47	C	-0.578332	1.734419	0.586975
C48	C	-0.078332	2.234419	1.086975
C49	C	-0.578338	1.734420	0.674831
C50	C	-0.078338	2.234420	1.174831
C51	C	-0.578337	2.047458	0.380817
C52	C	-0.078337	2.547458	0.880817
C53	C	-0.578346	2.180858	0.380822
C54	C	-0.078346	2.680858	0.880822
C55	C	-0.655093	1.657647	0.716098
C56	C	-0.155093	2.157647	1.216098
C57	C	-0.501582	1.811187	0.716118
C58	C	-0.001582	2.311187	1.216118
C59	C	-0.501580	1.811186	0.798664
C60	C	-0.001580	2.311186	1.298664
C61	C	-0.578335	1.734414	0.839931
C62	C	-0.078335	2.234414	1.339931
C63	C	-0.655091	1.657642	0.798652
C64	C	-0.155091	2.157642	1.298652
C65	C	-0.424817	1.887948	0.839948
C66	C	0.075183	2.387948	1.339948
C67	C	-0.424811	1.887950	0.922499
C68	C	0.075189	2.387950	1.422499
C69	C	-0.501573	1.811182	0.963768
C70	C	-0.001573	2.311182	1.463768
C71	C	-0.578333	1.734408	0.922484
C72	C	-0.078333	2.234408	1.422484
C73	C	-0.655087	1.657636	0.963751
C74	C	-0.155087	2.157636	1.463751
C75	C	-0.731854	1.580867	0.922469
C76	C	-0.231854	2.080867	1.422469
C77	C	-0.731852	1.580874	0.839921
C78	C	-0.231852	2.080874	1.339921
C79	C	-0.501575	1.811175	1.046317
C80	C	-0.001575	2.311175	1.546317
C81	C	-0.655086	1.657630	1.046305
C82	C	-0.155086	2.157630	1.546305
C83	C	-0.578332	1.734403	1.175440
C84	C	-0.078332	2.234403	1.675440
C85	C	-0.578329	1.734402	1.087584
C86	C	-0.078329	2.234402	1.587584
H87	H	-0.717593	1.595116	1.079899
H88	H	-0.217593	2.095116	1.579899
C89	C	-0.417136	1.895614	1.091723
C90	C	0.082864	2.395614	1.591723
N91	N	-0.353535	1.959222	1.125923
N92	N	0.146465	2.459222	1.625923
H93	H	-0.794341	1.518352	0.956080
H94	H	-0.294341	2.018352	1.456080
H95	H	-0.717598	1.595147	0.682483
H96	H	-0.217598	2.095147	1.182483
C97	C	-0.816277	1.496425	0.794504
C98	C	-0.316277	1.996425	1.294504
N99	N	-0.879860	1.432813	0.760293
N100	N	-0.379860	1.932813	1.260293
C101	C	-0.340385	1.972384	0.794550
C102	C	0.159615	2.472384	1.294550
N103	N	-0.276787	2.035983	0.760352
N104	N	0.223213	2.535983	1.260352
C105	C	-0.417151	1.895626	0.670721
C106	C	0.082849	2.395626	1.170721
N107	N	-0.353555	1.959230	0.636525
N108	N	0.146445	2.459230	1.136525
C109	C	-0.340375	1.972404	0.967902
C110	C	0.159625	2.472404	1.467902
N111	N	-0.276780	2.036020	1.002101
N112	N	0.223220	2.536020	1.502101
