data_functionalizedCrystal
_audit_creation_method	'MofGen! by Chris Wilmer'
_symmetry_space_group_name_H-M	'P1'
_symmetry_Int_Tables_number	1
_symmetry_cell_setting	triclinic
loop_
_symmetry_equiv_pos_as_xyz
  x,y,z
_cell_length_a	16.120484
_cell_length_b	19.805407
_cell_length_c	19.805399
_cell_angle_alpha	90.019197
_cell_angle_beta	92.871043
_cell_angle_gamma	87.078256
loop_
_atom_site_label
_atom_site_type_symbol
_atom_site_fract_x
_atom_site_fract_y
_atom_site_fract_z
Zn1	Zn	-0.332012	-1.021072	-0.396374
Zn2	Zn	0.167988	-0.521072	0.103626
Zn3	Zn	-0.471430	-1.015249	-0.288922
Zn4	Zn	0.028570	-0.515249	0.211078
Zn5	Zn	-0.332026	-0.907886	-0.283200
Zn6	Zn	0.167974	-0.407886	0.216800
Zn7	Zn	-0.471376	-0.902114	-0.402067
Zn8	Zn	0.028624	-0.402114	0.097933
O9	O	-0.401711	-0.961580	-0.342641
O10	O	0.098289	-0.461580	0.157359
O11	O	-0.350523	-1.115015	-0.382132
O12	O	0.149477	-0.615015	0.117868
O13	O	-0.452966	-1.000985	-0.193447
O14	O	0.047034	-0.500985	0.306553
O15	O	-0.215358	-0.927752	-0.293435
O16	O	0.284642	-0.427752	0.206565
O17	O	-0.452953	-1.110737	-0.303188
O18	O	0.047047	-0.610737	0.196812
O19	O	-0.215348	-1.010910	-0.376583
O20	O	0.284652	-0.510910	0.123417
O21	O	-0.350546	-0.922106	-0.189243
O22	O	0.149454	-0.422106	0.310757
O23	O	-0.350494	-0.812404	-0.298956
O24	O	0.149506	-0.312404	0.201044
O25	O	-0.452861	-0.917916	-0.496028
O26	O	0.047139	-0.417916	0.003972
O27	O	-0.452874	-0.808164	-0.386287
O28	O	0.047126	-0.308164	0.113713
O29	O	-0.350471	-1.005313	-0.491844
O30	O	0.149529	-0.505313	0.008156
O31	O	-0.588088	-0.995389	-0.308709
O32	O	-0.088088	-0.495389	0.191291
O33	O	-0.588049	-0.912270	-0.391836
O34	O	-0.088049	-0.412270	0.108164
C35	C	-0.401680	-0.785725	-0.342619
C36	C	0.098320	-0.285725	0.157381
C37	C	-0.401687	-0.710493	-0.342626
C38	C	0.098313	-0.210493	0.157374
C39	C	-0.348446	-0.677373	-0.383801
C40	C	0.151554	-0.177373	0.116199
C41	C	-0.348448	-0.606685	-0.383802
C42	C	0.151552	-0.106685	0.116198
C43	C	-0.401697	-0.569117	-0.342631
C44	C	0.098303	-0.069117	0.157369
C45	C	-0.454942	-0.602242	-0.301452
C46	C	0.045058	-0.102242	0.198548
C47	C	-0.454934	-0.672929	-0.301447
C48	C	0.045066	-0.172929	0.198553
C49	C	-0.454972	-0.317167	-0.301467
C50	C	0.045028	0.182833	0.198533
C51	C	-0.454977	-0.246475	-0.301475
C52	C	0.045023	0.253525	0.198525
C53	C	-0.348486	-0.250923	-0.383822
C54	C	0.151514	0.249077	0.116178
C55	C	-0.348479	-0.321610	-0.383817
C56	C	0.151521	0.178390	0.116183
C57	C	-0.401719	-0.354729	-0.342635
C58	C	0.098281	0.145271	0.157365
C59	C	-0.401715	-0.431378	-0.342634
C60	C	0.098285	0.068622	0.157366
C61	C	-0.401707	-0.492470	-0.342636
C62	C	0.098293	0.007530	0.157364
C63	C	-0.618319	-0.952590	-0.351526
C64	C	-0.118319	-0.452590	0.148474
C65	C	-0.710985	-0.948805	-0.355349
C66	C	-0.210985	-0.448805	0.144651
C67	C	-0.880646	-0.941900	-0.362344
C68	C	-0.380646	-0.441900	0.137656
C69	C	-0.921935	-0.981382	-0.322948
C70	C	-0.421935	-0.481382	0.177052
C71	C	-1.016341	-0.977540	-0.326840
C72	C	-0.516341	-0.477540	0.173160
C73	C	-0.786232	-0.945741	-0.358453
C74	C	-0.286232	-0.445741	0.141547
C75	C	-0.184257	-0.970624	-0.333736
C76	C	0.315743	-0.470624	0.166264
C77	C	-0.091591	-0.974478	-0.329941
C78	C	0.408409	-0.474478	0.170059
C79	C	-0.401658	-0.961620	-0.519181
C80	C	0.098342	-0.461620	-0.019181
C81	C	-0.401636	-0.961637	-0.594412
C82	C	0.098364	-0.461637	-0.094412
C83	C	-0.401736	-0.138122	-0.342657
C84	C	0.098264	0.361878	0.157343
C85	C	-0.401730	-0.213354	-0.342647
C86	C	0.098270	0.286646	0.157353
C87	C	-0.348319	-1.007146	-0.627579
C88	C	0.151681	-0.507146	-0.127579
C89	C	-0.348295	-1.007154	-0.698267
C90	C	0.151705	-0.507154	-0.198267
C91	C	-0.401593	-0.961656	-0.735786
C92	C	0.098407	-0.461656	-0.235786
C93	C	-0.454912	-0.916142	-0.702614
C94	C	0.045088	-0.416142	-0.202614
C95	C	-0.454932	-0.916132	-0.631928
C96	C	0.045068	-0.416132	-0.131928
C97	C	-0.454834	-0.916184	-0.987685
C98	C	0.045166	-0.416184	-0.487685
C99	C	-0.454813	-0.916199	-1.058376
C100	C	0.045187	-0.416199	-0.558376
C101	C	-0.348197	-1.007206	-1.054024
C102	C	0.151803	-0.507206	-0.554024
C103	C	-0.348217	-1.007196	-0.983337
C104	C	0.151783	-0.507196	-0.483337
C105	C	-0.401533	-0.961680	-0.950171
C106	C	0.098467	-0.461680	-0.450171
C107	C	-0.401557	-0.961671	-0.873524
C108	C	0.098443	-0.461671	-0.373524
C109	C	-0.401573	-0.961668	-0.812433
C110	C	0.098427	-0.461668	-0.312433
C111	C	-0.401703	-0.961582	-0.166784
C112	C	0.098297	-0.461582	0.333216
C113	C	-0.401491	-0.961705	-0.091544
C114	C	0.098509	-0.461705	0.408456
H115	H	-0.498341	-0.215889	-0.267946
H116	H	0.001659	0.284111	0.232054
H117	H	-0.305095	-0.579722	-0.417333
H118	H	0.194905	-0.079722	0.082667
N119	N	-0.290675	-1.056292	-1.089791
N120	N	0.209325	-0.556292	-0.589791
H121	H	-0.303637	-1.104112	-1.078030
H122	H	0.196363	-0.604112	-0.578030
H123	H	-0.298766	-1.049339	-1.140253
H124	H	0.201234	-0.549339	-0.640253
H125	H	-0.916196	-0.905216	-0.398992
H126	H	-0.416196	-0.405216	0.101008
N127	N	-0.512285	-0.867116	-1.098850
N128	N	-0.012285	-0.367116	-0.598850
H129	H	-0.550919	-0.893016	-1.129767
H130	H	-0.050919	-0.393016	-0.629767
H131	H	-0.546007	-0.838286	-1.067074
H132	H	-0.046007	-0.338286	-0.567074
H133	H	-0.304920	-1.044198	-0.597036
H134	H	0.195080	-0.544198	-0.097036
H135	H	-0.305132	-0.223949	-0.417352
H136	H	0.194868	0.276051	0.082648
N137	N	-0.512430	-0.867041	-0.596151
N138	N	-0.012430	-0.367041	-0.096151
H139	H	-0.546191	-0.838219	-0.630644
H140	H	-0.046191	-0.338219	-0.130644
H141	H	-0.551027	-0.892977	-0.568404
H142	H	-0.051027	-0.392977	-0.068404
N143	N	-0.291017	-0.717888	-0.428214
N144	N	0.208983	-0.217888	0.071786
H145	H	-0.324950	-0.745818	-0.460926
H146	H	0.175050	-0.245818	0.039074
H147	H	-0.257304	-0.686131	-0.454252
H148	H	0.242696	-0.186131	0.045748
N149	N	-0.291051	-0.362130	-0.428227
N150	N	0.208949	0.137870	0.071773
H151	H	-0.257321	-0.330422	-0.454311
H152	H	0.242679	0.169578	0.045689
H153	H	-0.252422	-0.393047	-0.399139
H154	H	0.247578	0.106953	0.100861
N155	N	-0.512391	-0.352883	-0.257049
N156	N	-0.012391	0.147117	0.242951
H157	H	-0.546124	-0.318356	-0.230971
H158	H	-0.046124	0.181644	0.269029
H159	H	-0.551016	-0.380626	-0.286127
H160	H	-0.051016	0.119374	0.213873
H161	H	-0.498294	-0.571649	-0.267926
H162	H	0.001706	-0.071649	0.232074
H163	H	-0.498289	-0.699894	-0.267918
H164	H	0.001711	-0.199894	0.232082
H165	H	-0.886383	-1.018068	-0.286296
H166	H	-0.386383	-0.518068	0.213704
H167	H	-0.304880	-1.044214	-0.725268
H168	H	0.195120	-0.544214	-0.225268
N169	N	-0.512333	-0.867103	-0.951902
N170	N	-0.012333	-0.367103	-0.451902
H171	H	-0.478443	-0.837147	-0.921184
H172	H	0.021557	-0.337147	-0.421184
H173	H	-0.546092	-0.838323	-0.986428
H174	H	-0.046092	-0.338323	-0.486428
N175	N	-0.290736	-1.056272	-0.942870
N176	N	0.209264	-0.556272	-0.442870
H177	H	-0.256954	-1.085103	-0.974608
H178	H	0.243046	-0.585103	-0.474608
H179	H	-0.252159	-1.030320	-0.911957
H180	H	0.247841	-0.530320	-0.411957
H181	H	-0.498305	-0.879094	-0.733168
H182	H	0.001695	-0.379094	-0.233168
