data_functionalizedCrystal
_audit_creation_method	'MofGen! by Chris Wilmer'
_symmetry_space_group_name_H-M	'P1'
_symmetry_Int_Tables_number	1
_symmetry_cell_setting	triclinic
loop_
_symmetry_equiv_pos_as_xyz
  x,y,z
_cell_length_a	14.519709
_cell_length_b	8.559649
_cell_length_c	7.088929
_cell_angle_alpha	84.674985
_cell_angle_beta	96.236165
_cell_angle_gamma	76.729405
loop_
_atom_site_label
_atom_site_type_symbol
_atom_site_fract_x
_atom_site_fract_y
_atom_site_fract_z
O1	O	0.020642	-2.103670	-0.158956
O2	O	0.520642	-1.603670	0.341044
O3	O	-0.026977	-1.638600	-0.158968
O4	O	0.473023	-1.138600	0.341032
O5	O	0.131957	-1.883467	-0.158944
O6	O	0.631957	-1.383467	0.341056
O7	O	-0.138292	-1.858803	-0.158979
O8	O	0.361708	-1.358803	0.341021
O9	O	0.153240	-1.916191	0.159034
O10	O	0.653240	-1.416191	0.659034
O11	O	-0.005694	-1.671324	0.159010
O12	O	0.494306	-1.171324	0.659010
O13	O	0.041925	-2.136393	0.159023
O14	O	0.541925	-1.636393	0.659023
Cu15	Cu	0.020059	-1.906847	0.188050
Cu16	Cu	0.520059	-1.406847	0.688050
Cu17	Cu	-0.005111	-1.868147	-0.187996
Cu18	Cu	0.494889	-1.368147	0.312004
O19	O	-0.117009	-1.891526	0.158999
O20	O	0.382991	-1.391526	0.658999
C21	C	0.176876	-1.898680	0.000045
C22	C	0.676876	-1.398680	0.500045
C23	C	0.279010	-1.895236	0.000046
C24	C	0.779010	-1.395236	0.500046
C25	C	-0.019944	-1.595443	0.000020
C26	C	0.480056	-1.095443	0.500020
C27	C	-0.030686	-1.418093	0.000015
C28	C	0.469314	-0.918093	0.500015
C29	C	-0.161928	-1.876313	0.000005
C30	C	0.338072	-1.376313	0.500005
C31	C	-0.264063	-1.879756	-0.000008
C32	C	0.235937	-1.379756	0.499992
C33	C	0.652993	-1.882552	-0.000004
C34	C	1.152993	-1.382552	0.499996
C35	C	0.548938	-1.886074	0.000011
C36	C	1.048938	-1.386074	0.500011
C37	C	0.466005	-1.888894	0.000023
C38	C	0.966005	-1.388894	0.500023
C39	C	0.361944	-1.892417	0.000034
C40	C	0.861944	-1.392417	0.500034
C41	C	0.034892	-2.179551	0.000031
C42	C	0.534892	-1.679551	0.500031
C43	C	0.045633	-2.356899	0.000022
C44	C	0.545633	-1.856899	0.500022
N45	N	0.037763	-1.934078	0.452541
N46	N	0.537763	-1.434078	0.952541
N47	N	-0.022807	-1.840929	-0.452487
N48	N	0.477193	-1.340929	0.047513
H49	H	0.119190	-1.440186	0.000023
H50	H	0.619190	-0.940186	0.500023
C51	C	-0.121778	-1.145837	-0.000002
C52	C	0.378222	-0.645837	0.499998
C53	C	-0.129996	-1.305659	0.000000
C54	C	0.370004	-0.805659	0.500000
H55	H	-0.183087	-1.076430	-0.000001
H56	H	0.316913	-0.576430	0.499999
H57	H	-0.095768	-1.114932	-0.110880
H58	H	0.404232	-0.614932	0.389120
H59	H	-0.080916	-1.137757	0.110893
H60	H	0.419084	-0.637757	0.610893
H61	H	-0.170853	-1.313741	-0.110903
H62	H	0.329147	-0.813741	0.389097
H63	H	-0.156019	-1.336573	0.110889
H64	H	0.343981	-0.836573	0.610889
H65	H	-0.085574	-1.744390	0.465858
H66	H	0.414426	-1.244390	0.965858
H67	H	0.100529	-2.030634	0.534206
H68	H	0.600529	-1.530634	1.034206
