data_functionalizedCrystal
_audit_creation_method	'MofGen! by Chris Wilmer'
_symmetry_space_group_name_H-M	'P1'
_symmetry_Int_Tables_number	1
_symmetry_cell_setting	triclinic
loop_
_symmetry_equiv_pos_as_xyz
  x,y,z
_cell_length_a	14.908571
_cell_length_b	16.625546
_cell_length_c	14.908308
_cell_angle_alpha	93.264070
_cell_angle_beta	90.175053
_cell_angle_gamma	86.718495
loop_
_atom_site_label
_atom_site_type_symbol
_atom_site_fract_x
_atom_site_fract_y
_atom_site_fract_z
Zn1	Zn	1.345280	-0.420778	-0.587557
Zn2	Zn	1.353856	-0.548312	-0.437189
Zn3	Zn	1.203596	-0.405291	-0.428555
Zn4	Zn	1.194884	-0.547354	-0.578841
O5	O	1.274404	-0.480434	-0.508036
O6	O	1.472243	-0.444578	-0.574871
O7	O	1.341159	-0.523260	-0.310220
O8	O	1.222448	-0.294517	-0.449681
O9	O	1.478544	-0.538277	-0.464397
O10	O	1.326543	-0.305896	-0.566499
O11	O	1.230763	-0.418182	-0.303876
O12	O	1.076615	-0.417254	-0.441230
O13	O	1.207599	-0.536644	-0.705821
O14	O	1.070214	-0.521627	-0.551644
O15	O	1.318095	-0.443649	-0.712225
O16	O	1.332711	-0.661013	-0.455945
O17	O	1.215914	-0.660309	-0.560016
C18	C	1.040789	-0.467656	-0.494555
C19	C	0.940846	-0.462211	-0.488810
C20	C	0.746435	-0.560814	-0.592833
C21	C	0.652530	-0.555700	-0.587437
C22	C	0.659128	-0.446865	-0.472629
C23	C	0.753033	-0.451979	-0.478024
C24	C	0.796683	-0.508956	-0.538127
C25	C	0.890591	-0.514074	-0.543517
C26	C	0.897187	-0.405236	-0.428714
C27	C	0.803282	-0.400121	-0.423318
C28	C	1.274321	-0.689918	-0.507993
C29	C	1.274366	-0.779542	-0.508010
C30	C	1.274517	-1.107731	-0.508112
C31	C	1.274472	-1.016419	-0.508086
C32	C	1.274441	-0.943640	-0.508060
C33	C	1.274397	-0.852322	-0.508035
C34	C	1.508931	-0.493262	-0.521569
C35	C	1.608873	-0.498728	-0.527336
C36	C	1.260918	-0.491767	-0.742560
C37	C	1.255172	-0.496597	-0.842501
C38	C	1.274511	-0.270134	-0.508099
C39	C	1.274556	-0.180516	-0.508127
C40	C	1.359429	-0.408817	-1.036969
C41	C	1.354033	-0.413353	-1.130872
C42	C	1.238977	-0.510198	-1.124211
C43	C	1.244374	-0.505662	-1.030308
C44	C	1.304603	-0.454971	-0.986690
C45	C	1.310004	-0.450441	-0.892786
C46	C	1.194945	-0.547281	-0.886127
C47	C	1.189548	-0.551817	-0.980030
C48	C	1.287889	-0.469089	-0.274426
C49	C	1.293810	-0.464042	-0.174497
H50	H	0.781976	-0.607211	-0.641766
H51	H	1.359047	-0.409167	-0.857274
H52	H	0.611620	-0.597926	-0.631986
H53	H	0.926129	-0.560469	-0.592455
O54	O	0.761017	-0.344709	-0.364915
C55	C	0.825509	-0.300051	-0.317767
H56	H	0.890341	-0.302733	-0.358447
H57	H	0.839401	-0.326732	-0.249997
C58	C	0.709988	-0.208312	-0.252898
C59	C	0.789613	-0.211600	-0.302866
H60	H	0.687845	-0.153752	-0.243702
H61	H	0.666538	-0.238400	-0.284659
H62	H	0.721576	-0.230550	-0.196428
H63	H	0.778023	-0.189372	-0.359338
H64	H	0.833061	-0.181506	-0.271114
O65	O	0.946099	-0.354971	-0.375529
C66	C	1.003715	-0.400947	-0.320467
H67	H	1.015961	-0.464385	-0.352870
H68	H	0.971333	-0.404525	-0.251739
C69	C	1.078813	-0.282722	-0.269591
C70	C	1.093860	-0.360636	-0.309393
H71	H	1.134417	-0.257855	-0.262756
H72	H	1.039994	-0.251746	-0.306684
H73	H	1.051825	-0.285715	-0.212322
H74	H	1.120836	-0.357642	-0.366665
H75	H	1.132686	-0.391611	-0.272309
O76	O	0.616575	-0.391565	-0.414302
C77	C	0.522916	-0.398145	-0.421311
H78	H	0.508392	-0.461139	-0.449862
H79	H	0.493560	-0.351276	-0.467801
C80	C	0.497719	-0.306178	-0.292533
C81	C	0.479880	-0.383552	-0.327592
H82	H	0.471171	-0.297173	-0.234724
H83	H	0.560819	-0.301743	-0.287812
H84	H	0.473256	-0.267130	-0.331283
H85	H	0.504353	-0.422599	-0.288848
H86	H	0.416783	-0.387994	-0.332304
H87	H	1.408475	-0.367547	-1.001455
H88	H	1.398676	-0.375767	-1.171805
H89	H	1.189942	-0.551467	-1.159741
O90	O	1.131172	-0.601150	-1.022453
C91	C	1.179219	-0.658630	-1.079729
H92	H	1.251661	-0.666112	-1.055515
H93	H	1.178235	-0.637305	-1.151080
C94	C	1.046200	-0.730930	-1.108359
C95	C	1.135173	-0.740124	-1.078614
H96	H	1.019028	-0.781199	-1.107676
H97	H	1.013828	-0.692203	-1.069774
H98	H	1.045392	-0.713157	-1.167816
H99	H	1.135979	-0.757888	-1.019155
H100	H	1.167544	-0.778857	-1.117189
H101	H	1.150303	-0.584866	-0.845180
