data_functionalizedCrystal
_audit_creation_method	'MofGen! by Chris Wilmer'
_symmetry_space_group_name_H-M	'P1'
_symmetry_Int_Tables_number	1
_symmetry_cell_setting	triclinic
loop_
_symmetry_equiv_pos_as_xyz
  x,y,z
_cell_length_a	13.032831
_cell_length_b	16.625546
_cell_length_c	13.032268
_cell_angle_alpha	97.144614
_cell_angle_beta	90.886977
_cell_angle_gamma	82.826778
loop_
_atom_site_label
_atom_site_type_symbol
_atom_site_fract_x
_atom_site_fract_y
_atom_site_fract_z
Zn1	Zn	1.498429	-0.544521	-0.780776
Zn2	Zn	1.520160	-0.664651	-0.608784
Zn3	Zn	1.348291	-0.510838	-0.587021
Zn4	Zn	1.326409	-0.660292	-0.758909
O5	O	1.423322	-0.595075	-0.683873
O6	O	1.645231	-0.576377	-0.776220
O7	O	1.515614	-0.631976	-0.461981
O8	O	1.368270	-0.402484	-0.612767
O9	O	1.661197	-0.664636	-0.649858
O10	O	1.478576	-0.427231	-0.755118
O11	O	1.389342	-0.518970	-0.445992
O12	O	1.201469	-0.514743	-0.591563
O13	O	1.330976	-0.657206	-0.905725
O14	O	1.185392	-0.624546	-0.717849
O15	O	1.457358	-0.572150	-0.921791
O16	O	1.494396	-0.776895	-0.628654
O17	O	1.352048	-0.773692	-0.738951
C18	C	1.156114	-0.565517	-0.649972
C19	C	1.041798	-0.552893	-0.635494
C20	C	1.423230	-0.804552	-0.683817
C21	C	1.423281	-0.894180	-0.683840
C22	C	0.982917	-0.601664	-0.691429
C23	C	0.864766	-0.588618	-0.676466
C24	C	1.423447	-1.222385	-0.683970
C25	C	1.423397	-1.131068	-0.683936
C26	C	1.423363	-1.058285	-0.683904
C27	C	1.423315	-0.966963	-0.683872
C28	C	1.691574	-0.624750	-0.717906
C29	C	1.805887	-0.637396	-0.732409
C30	C	1.389302	-0.617949	-0.952117
C31	C	1.374805	-0.627696	-1.066427
C32	C	1.423440	-0.384786	-0.683954
C33	C	1.423490	-0.295173	-0.683989
C34	C	1.430873	-0.589958	-1.125339
C35	C	1.415890	-0.600031	-1.243485
C36	C	1.457270	-0.572239	-0.416679
C37	C	1.471966	-0.562287	-0.302395
H38	H	1.019978	-0.653074	-0.750398
H39	H	1.356786	-0.639795	-1.280509
C40	C	0.814715	-0.519156	-0.596800
C41	C	0.844187	-0.517227	-0.481713
C42	C	0.794135	-0.447767	-0.402049
C43	C	0.714611	-0.380235	-0.437472
C44	C	0.685134	-0.382160	-0.552565
C45	C	0.735187	-0.451621	-0.632229
H46	H	0.903059	-0.567221	-0.455485
H47	H	0.815955	-0.446342	-0.316849
H48	H	0.677559	-0.328816	-0.378499
H49	H	0.626262	-0.332167	-0.578792
H50	H	0.713366	-0.453046	-0.717428
C51	C	1.551805	-0.508557	-1.252391
C52	C	1.516577	-0.434074	-1.172885
C53	C	1.596414	-0.380344	-1.122882
C54	C	1.711479	-0.401096	-1.152385
C55	C	1.746713	-0.475582	-1.231895
C56	C	1.666876	-0.529312	-1.281898
H57	H	1.431394	-0.418709	-1.151041
H58	H	1.570331	-0.325204	-1.064023
H59	H	1.770579	-0.361322	-1.115370
H60	H	1.831896	-0.490948	-1.253739
H61	H	1.692959	-0.584452	-1.340757
C62	C	1.294969	-0.681421	-1.116440
C63	C	1.179903	-0.660667	-1.086940
C64	C	1.100065	-0.714394	-1.136950
C65	C	1.135293	-0.788874	-1.216459
C66	C	1.250365	-0.809632	-1.245963
C67	C	1.330203	-0.755905	-1.195953
H68	H	1.153820	-0.605529	-1.028079
H69	H	1.014881	-0.699027	-1.115108
H70	H	1.076193	-0.828646	-1.253479
H71	H	1.276448	-0.864770	-1.304824
H72	H	1.415386	-0.771272	-1.217795
C73	C	0.855934	-0.706860	-0.812075
C74	C	0.935455	-0.774394	-0.776652
C75	C	0.985501	-0.843858	-0.856316
C76	C	0.956025	-0.845787	-0.971403
C77	C	0.876500	-0.778250	-1.006831
C78	C	0.826454	-0.708786	-0.927167
H79	H	0.957278	-0.772968	-0.691453
H80	H	1.044371	-0.893853	-0.830089
H81	H	0.993072	-0.897208	-1.030375
H82	H	0.854676	-0.779676	-1.092030
H83	H	0.767584	-0.658791	-0.953394
H84	H	1.489963	-0.550187	-1.088309
H85	H	1.004736	-0.501477	-0.576533
