data_functionalizedCrystal
_audit_creation_method	'MofGen! by Chris Wilmer'
_symmetry_space_group_name_H-M	'P1'
_symmetry_Int_Tables_number	1
_symmetry_cell_setting	triclinic
loop_
_symmetry_equiv_pos_as_xyz
  x,y,z
_cell_length_a	6.817900
_cell_length_b	17.982783
_cell_length_c	16.015572
_cell_angle_alpha	78.159762
_cell_angle_beta	104.485554
_cell_angle_gamma	102.448572
loop_
_atom_site_label
_atom_site_type_symbol
_atom_site_fract_x
_atom_site_fract_y
_atom_site_fract_z
V1	V	-3.990105	-0.030701	-0.269497
O2	O	-3.983625	0.078252	-0.263999
O3	O	-3.936766	-0.134716	-0.268009
O4	O	-3.928047	0.003460	-0.386873
O5	O	-3.992405	-0.060880	-0.144312
V6	V	-4.476142	-0.021650	-0.254481
O7	O	-4.245847	-0.050556	-0.302437
O8	O	-4.670598	-0.001794	-0.221542
O9	O	-4.306275	0.082365	-0.255970
O10	O	-4.600019	-0.130603	-0.259980
O11	O	-4.591239	0.008529	-0.379667
O12	O	-4.314994	-0.055810	-0.137106
C13	C	-3.781008	-0.161125	-0.263849
C14	C	-3.818593	-0.245942	-0.263414
C15	C	-3.805786	-0.296833	-0.184124
C16	C	-3.841121	-0.376527	-0.183719
C17	C	-3.889248	-0.405328	-0.262604
C18	C	-3.902060	-0.354431	-0.341900
C19	C	-3.866740	-0.274739	-0.342305
C20	C	-4.044505	-0.675821	-0.340270
C21	C	-4.079819	-0.755520	-0.339858
C22	C	-4.018886	-0.777610	-0.181683
C23	C	-3.983566	-0.697917	-0.182088
C24	C	-3.996392	-0.647027	-0.261384
C25	C	-3.958082	-0.560614	-0.261823
C26	C	-3.927543	-0.491740	-0.262166
C27	C	-3.769884	0.015132	-0.415471
C28	C	-3.800395	0.042374	-0.511428
C29	C	-4.077549	-0.199424	-0.889883
C30	C	-4.106225	-0.173801	-0.980046
C31	C	-4.035531	-0.041239	-0.954888
C32	C	-4.006838	-0.066850	-0.864721
C33	C	-4.027854	-0.145944	-0.832227
C34	C	-3.957143	-0.013370	-0.807065
C35	C	-3.928464	-0.038980	-0.716906
C36	C	-3.949480	-0.118070	-0.684405
C37	C	-3.999175	-0.171553	-0.742069
C38	C	-3.936143	0.065723	-0.839561
C39	C	-3.886448	0.119203	-0.781905
C40	C	-3.857753	0.093593	-0.691744
C41	C	-3.878770	0.014503	-0.659243
C42	C	-3.808059	0.147077	-0.634080
C43	C	-3.779380	0.121467	-0.543922
C44	C	-3.850091	-0.011106	-0.569084
C45	C	-4.125375	0.108770	-0.260127
C46	C	-4.067028	0.193587	-0.260568
C47	C	-4.136499	-0.067486	-0.108503
C48	C	-4.085227	-0.094725	-0.012545
H49	H	-4.119010	-0.778966	-0.404100
H50	H	-3.738914	0.165016	-0.496976
H51	H	-4.094634	-0.263829	-0.863424
H52	H	-3.766583	-0.273390	-0.119886
F53	F	-3.880381	-0.220576	-0.426697
H54	H	-3.944370	-0.674472	-0.117851
H55	H	-4.016260	-0.235958	-0.715610
H56	H	-3.867176	-0.075511	-0.542625
F57	F	-3.918963	-0.145327	-0.588449
F58	F	-4.058144	-0.621670	-0.424663
F59	F	-4.159124	-0.230729	-1.041407
F60	F	-4.013172	0.042935	-0.989481
F61	F	-3.953295	-0.385086	-0.425857
H62	H	-3.959466	0.086572	-0.912974
H63	H	-4.008454	-0.819055	-0.117116
H64	H	-3.830696	-0.417960	-0.119153
F65	F	-3.864089	0.203377	-0.816498
H66	H	-3.790974	0.211474	-0.660552
