data_functionalizedCrystal
_audit_creation_method	'MofGen! by Chris Wilmer'
_symmetry_space_group_name_H-M	'P1'
_symmetry_Int_Tables_number	1
_symmetry_cell_setting	triclinic
loop_
_symmetry_equiv_pos_as_xyz
  x,y,z
_cell_length_a	16.120530
_cell_length_b	12.759400
_cell_length_c	12.759393
_cell_angle_alpha	90.031769
_cell_angle_beta	92.917895
_cell_angle_gamma	87.110362
loop_
_atom_site_label
_atom_site_type_symbol
_atom_site_fract_x
_atom_site_fract_y
_atom_site_fract_z
Zn1	Zn	1.274616	-0.499752	0.675425
Zn2	Zn	1.274534	-0.675466	0.499740
Zn3	Zn	1.135195	-0.490887	0.490856
Zn4	Zn	1.135184	-0.666468	0.666477
O5	O	1.204882	-0.583143	0.583125
O6	O	1.391272	-0.530536	0.659583
O7	O	1.256022	-0.651037	0.351539
O8	O	1.153728	-0.345044	0.515366
O9	O	1.391212	-0.659633	0.530508
O10	O	1.256160	-0.351557	0.650968
O11	O	1.153650	-0.515427	0.345012
O12	O	1.018527	-0.506703	0.506690
O13	O	1.153709	-0.644298	0.814687
O14	O	1.018518	-0.635702	0.635718
O15	O	1.256149	-0.521812	0.821261
O16	O	1.256010	-0.821291	0.521832
O17	O	1.153630	-0.814681	0.644333
C18	C	1.204833	-0.856107	0.583100
C19	C	1.204888	-0.972888	0.583129
C20	C	0.988272	-0.569264	0.569270
C21	C	0.895606	-0.563352	0.563367
C22	C	1.258257	-1.031161	0.519421
C23	C	1.258308	-1.140888	0.519456
C24	C	1.151614	-1.134059	0.646911
C25	C	1.151568	-1.024334	0.646880
C26	C	1.311576	-0.979714	0.455669
C27	C	1.364949	-1.037987	0.391955
C28	C	1.365000	-1.147715	0.391990
C29	C	1.311679	-1.199169	0.455741
C30	C	0.725942	-0.552534	0.552601
C31	C	0.684662	-0.613830	0.613726
C32	C	0.590256	-0.607810	0.607735
C33	C	0.820357	-0.558552	0.558590
C34	C	1.422338	-0.597077	0.597034
C35	C	1.515005	-0.603015	0.602962
C36	C	1.204936	-0.583040	0.857162
C37	C	1.204959	-0.582996	0.973940
C38	C	1.204955	-0.309115	0.583174
C39	C	1.204985	-0.192340	0.583195
C40	C	1.204876	-0.583174	0.310157
C41	C	1.205015	-0.582932	0.193390
C42	C	1.151677	-0.512373	1.025411
C43	C	1.151702	-0.512343	1.135136
C44	C	1.258300	-0.653563	1.141911
C45	C	1.258269	-0.653596	1.032187
C46	C	1.098367	-0.441772	0.967163
C47	C	1.045081	-0.371143	1.018634
C48	C	1.045106	-0.371113	1.128360
C49	C	1.098417	-0.441713	1.186615
H50	H	1.311538	-0.890369	0.455630
Cl51	Cl	0.671042	-0.464541	0.464862
Cl52	Cl	1.084476	-0.951071	0.726974
Cl53	Cl	0.739562	-0.701824	0.701475
Cl54	Cl	0.978103	-0.282343	1.193062
Cl55	Cl	1.098444	-0.441676	1.324557
H56	H	1.301705	-0.711039	1.189351
Cl57	Cl	0.978063	-0.282397	0.945401
Cl58	Cl	1.325250	-0.742386	0.967475
Cl59	Cl	1.098335	-0.441800	0.829223
H60	H	1.408464	-1.195158	0.340119
H61	H	1.311731	-1.288517	0.455773
Cl62	Cl	1.431985	-0.973305	0.311827
H63	H	1.108202	-1.175962	0.698812
