data_functionalizedCrystal
_audit_creation_method	'MofGen! by Chris Wilmer'
_symmetry_space_group_name_H-M	'P1'
_symmetry_Int_Tables_number	1
_symmetry_cell_setting	triclinic
loop_
_symmetry_equiv_pos_as_xyz
  x,y,z
_cell_length_a	33.428889
_cell_length_b	33.428139
_cell_length_c	33.424847
_cell_angle_alpha	60.004234
_cell_angle_beta	60.008465
_cell_angle_gamma	59.994972
loop_
_atom_site_label
_atom_site_type_symbol
_atom_site_fract_x
_atom_site_fract_y
_atom_site_fract_z
O1	O	0.055565	-0.584504	0.488714
O2	O	0.555565	-0.084504	0.988714
O3	O	0.020982	-0.455083	0.393778
O4	O	0.520982	0.044917	0.893778
O5	O	0.102943	-0.536959	0.393689
O6	O	0.602943	-0.036959	0.893689
O7	O	-0.026396	-0.502628	0.488803
O8	O	0.473604	-0.002628	0.988803
O9	O	0.130140	-0.509767	0.420792
O10	O	0.630140	-0.009767	0.920792
O11	O	0.048179	-0.427891	0.420881
O12	O	0.548179	0.072109	0.920881
O13	O	0.082762	-0.557312	0.515817
O14	O	0.582762	-0.057312	1.015817
Cu15	Cu	0.067954	-0.490119	0.470823
Cu16	Cu	0.567954	0.009881	0.970823
Cu17	Cu	0.035790	-0.522276	0.438771
Cu18	Cu	0.535790	-0.022276	0.938771
O19	O	0.000801	-0.475436	0.515906
O20	O	0.500801	0.024564	1.015906
N21	N	0.090577	-0.467504	0.493370
N22	N	0.590577	0.032496	0.993370
N23	N	0.013171	-0.544895	0.416225
N24	N	0.513171	-0.044895	0.916225
C25	C	0.143377	-0.280390	0.546067
C26	C	0.643377	0.219610	1.046067
C27	C	0.143515	-0.414755	0.680369
C28	C	0.643515	0.085245	1.180369
C29	C	0.143392	-0.414735	0.546069
C30	C	0.643392	0.085265	1.046069
C31	C	0.277766	-0.414702	0.545966
C32	C	0.777766	0.085298	1.045966
C33	C	0.158177	-0.324719	0.560828
C34	C	0.658177	0.175281	1.060828
C35	C	0.158255	-0.399967	0.636038
C36	C	0.658255	0.100033	1.136038
C37	C	0.233434	-0.399936	0.560773
C38	C	0.733434	0.100064	1.060773
C39	C	0.158186	-0.399955	0.560829
C40	C	0.658186	0.100045	1.060829
C41	C	0.124540	-0.223964	0.527278
C42	C	0.624540	0.276036	1.027278
C43	C	0.124565	-0.433545	0.527281
C44	C	0.624565	0.066455	1.027281
C45	C	0.177014	-0.381145	0.579617
C46	C	0.677014	0.118855	1.079617
C47	C	0.359814	-0.400540	0.502735
C48	C	0.859814	0.099460	1.002735
C49	C	0.411105	-0.417624	0.485606
C50	C	0.911105	0.082376	0.985606
C51	C	0.411136	-0.500620	0.517255
C52	C	0.911136	-0.000620	1.017255
C53	C	0.359845	-0.483534	0.534385
C54	C	0.859845	0.016466	1.034385
C55	C	0.136887	-0.198305	0.476855
C56	C	0.636887	0.301695	0.976855
C57	C	0.119761	-0.147011	0.459777
C58	C	0.619761	0.352989	0.959777
C59	C	0.077945	-0.147038	0.543547
C60	C	0.577945	0.352962	1.043547
C61	C	0.095072	-0.198332	0.560625
C62	C	0.595072	0.301668	1.060625
C63	C	0.074134	-0.421169	0.539710
C64	C	0.574134	0.078831	1.039710
C65	C	0.057023	-0.438269	0.522625
C66	C	0.557023	0.061731	1.022625
C67	C	0.140770	-0.480120	0.480694
C68	C	0.640770	0.019880	0.980694
C69	C	0.157883	-0.463020	0.497773
C70	C	0.657883	0.036980	0.997773
C71	C	0.074339	-0.421208	0.762475
C72	C	0.574339	0.078792	1.262475
C73	C	0.057288	-0.438323	0.813768
C74	C	0.557288	0.061677	1.313768
C75	C	0.141075	-0.480183	0.813699
C76	C	0.641075	0.019817	1.313699
C77	C	0.158125	-0.463069	0.762404
C78	C	0.658125	0.036931	1.262404
C79	C	0.124756	-0.433580	0.736794
C80	C	0.624756	0.066420	1.236794
C81	C	0.334186	-0.433494	0.527123
C82	C	0.834186	0.066506	1.027123
C83	C	-0.173769	-0.597444	0.363037
C84	C	0.326231	-0.097444	0.863037
C85	C	-0.039302	-0.597595	0.228856
C86	C	0.460698	-0.097595	0.728856
C87	C	-0.039496	-0.597587	0.363300
C88	C	0.460504	-0.097587	0.863300
C89	C	-0.039512	-0.731889	0.363237
C90	C	0.460488	-0.231889	0.863237
C91	C	-0.129442	-0.612265	0.348329
C92	C	0.370558	-0.112265	0.848329
C93	C	-0.054138	-0.612351	0.273187
C94	C	0.445862	-0.112351	0.773187
C95	C	-0.054257	-0.687554	0.348440
C96	C	0.445743	-0.187554	0.848440
C97	C	-0.054247	-0.612346	0.348477
C98	C	0.445753	-0.112346	0.848477
C99	C	-0.230191	-0.578579	0.381758
C100	C	0.269809	-0.078579	0.881758
C101	C	-0.020722	-0.578803	0.382168
C102	C	0.479278	-0.078803	0.882168
C103	C	-0.073020	-0.631130	0.329609
C104	C	0.426980	-0.131130	0.829609
C105	C	-0.053713	-0.813916	0.406386
C106	C	0.446287	-0.313916	0.906386
C107	C	-0.036654	-0.865210	0.423504
C108	C	0.463346	-0.365210	0.923504
C109	C	0.046338	-0.865293	0.391984
C110	C	0.546338	-0.365293	0.891984
C111	C	0.029278	-0.813999	0.374865
C112	C	0.529278	-0.313999	0.874865
C113	C	-0.255900	-0.590938	0.432169
C114	C	0.244100	-0.090938	0.932169
C115	C	-0.307191	-0.573786	0.449185
C116	C	0.192809	-0.073786	0.949185
C117	C	-0.307060	-0.531922	0.365377
C118	C	0.192940	-0.031922	0.865377
C119	C	-0.255769	-0.549074	0.348360
C120	C	0.244231	-0.049074	0.848360
C121	C	-0.033081	-0.528377	0.369764
C122	C	0.466919	-0.028377	0.869764
C123	C	-0.016014	-0.511306	0.386922
C124	C	0.483986	-0.011306	0.886922
C125	C	0.025770	-0.595083	0.428877
C126	C	0.525770	-0.095083	0.928877
C127	C	0.008703	-0.612156	0.411725
C128	C	0.508703	-0.112156	0.911725
C129	C	-0.032755	-0.528393	0.146761
C130	C	0.467245	-0.028393	0.646761
C131	C	-0.015585	-0.511324	0.095468
C132	C	0.484415	-0.011324	0.595468
C133	C	0.026262	-0.595106	0.095516
C134	C	0.526262	-0.095106	0.595516
C135	C	0.009094	-0.612174	0.146811
C136	C	0.509094	-0.112174	0.646811
C137	C	-0.020417	-0.578816	0.172432
C138	C	0.479583	-0.078816	0.672432
C139	C	-0.020748	-0.788312	0.382068
C140	C	0.479252	-0.288312	0.882068
N141	N	0.436037	-0.467415	0.493101
N142	N	0.936037	0.032585	0.993101
O143	O	0.592642	-0.471896	0.376066
O144	O	1.092642	0.028104	0.876066
O145	O	0.592838	-0.567146	0.505347
O146	O	1.092838	-0.067146	1.005347
O147	O	0.592754	-0.566928	0.423360
O148	O	1.092754	-0.066928	0.923360
O149	O	0.592727	-0.472113	0.458053
O150	O	1.092727	0.027887	0.958053
O151	O	0.511269	-0.539835	0.450606
O152	O	1.011269	-0.039835	0.950606
O153	O	0.511353	-0.540052	0.532594
O154	O	1.011353	-0.040052	1.032594
O155	O	0.511157	-0.444802	0.403312
O156	O	1.011157	0.055198	0.903312
Cu157	Cu	0.503815	-0.489954	0.470441
Cu158	Cu	1.003815	0.010046	0.970441
Cu159	Cu	0.600180	-0.521995	0.438219
Cu160	Cu	1.100180	-0.021995	0.938219
O161	O	0.511242	-0.445020	0.485300
O162	O	1.011242	0.054980	0.985300
N163	N	0.667959	-0.544533	0.415554
N164	N	1.167959	-0.044533	0.915554
N165	N	0.090544	-0.122107	0.493359
N166	N	0.590544	0.377893	0.993359
O167	O	-0.026406	0.034587	0.488773
O168	O	0.473594	0.534587	0.988773
O169	O	0.102877	0.034627	0.393499
O170	O	0.602877	0.534627	0.893499
O171	O	0.020848	0.034591	0.393771
O172	O	0.520848	0.534591	0.893771
O173	O	0.055623	0.034623	0.488500
O174	O	0.555623	0.534623	0.988500
O175	O	0.048051	-0.046899	0.420925
O176	O	0.548051	0.453101	0.920925
O177	O	0.130080	-0.046864	0.420653
O178	O	0.630080	0.453136	0.920653
O179	O	0.000796	-0.046903	0.515927
O180	O	0.500796	0.453097	1.015927
Cu181	Cu	0.067922	-0.054324	0.470769
Cu182	Cu	0.567922	0.445676	0.970769
Cu183	Cu	0.035752	0.042048	0.438656
Cu184	Cu	0.535752	0.542048	0.938656
O185	O	0.082825	-0.046867	0.515655
O186	O	0.582825	0.453133	1.015655
N187	N	0.013123	0.109830	0.416068
N188	N	0.513123	0.609830	0.916068
N189	N	0.090892	-0.467554	0.838649
N190	N	0.590892	0.032446	1.338649
O191	O	0.086330	-0.584488	0.995334
O192	O	0.586330	-0.084488	1.495334
O193	O	-0.008902	-0.455160	0.995379
O194	O	0.491098	0.044840	1.495379
O195	O	-0.008679	-0.537172	0.995355
O196	O	0.491321	-0.037172	1.495355
O197	O	0.086107	-0.502475	0.995358
O198	O	0.586107	-0.002475	1.495358
O199	O	0.018452	-0.509990	0.913868
O200	O	0.518452	-0.009990	1.413868
O201	O	0.018230	-0.427978	0.913891
O202	O	0.518230	0.072022	1.413891
O203	O	0.113461	-0.557306	0.913847
O204	O	0.613461	-0.057306	1.413847
Cu205	Cu	0.068323	-0.490160	0.906429
Cu206	Cu	0.568323	0.009840	1.406429
Cu207	Cu	0.036237	-0.522306	1.002797
Cu208	Cu	0.536237	-0.022306	1.502797
O209	O	0.113239	-0.475293	0.913870
O210	O	0.613239	0.024707	1.413870
N211	N	0.013667	-0.544916	1.070577
N212	N	0.513667	-0.044916	1.570577
C213	C	0.031339	-0.425179	0.394250
C214	C	0.531339	0.074821	0.894250
C215	C	0.132837	-0.526572	0.394139
C216	C	0.632837	-0.026572	0.894139
C217	C	0.072405	-0.587216	0.515344
C218	C	0.572405	-0.087216	1.015344
C219	C	-0.029093	-0.485823	0.515455
C220	C	0.470907	0.014177	1.015455
C221	C	0.552119	-0.566716	0.535258
C222	C	1.052119	-0.066716	1.035258
C223	C	0.552016	-0.566447	0.433726
C224	C	1.052016	-0.066447	0.933726
C225	C	0.551873	-0.445232	0.373402
C226	C	1.051873	0.054768	0.873402
C227	C	0.551980	-0.445502	0.474933
C228	C	1.051980	0.054498	0.974933
C229	C	0.132731	-0.006013	0.393923
C230	C	0.632731	0.493987	0.893923
C231	C	0.031182	-0.006158	0.394293
C232	C	0.531182	0.493842	0.894293
C233	C	-0.029092	-0.006163	0.515469
C234	C	0.470908	0.493837	1.015469
C235	C	0.072491	-0.006119	0.515133
C236	C	0.572491	0.493881	1.015133
C237	C	-0.008451	-0.425276	0.954641
C238	C	0.491549	0.074724	1.454641
C239	C	-0.008170	-0.526833	0.954596
C240	C	0.491830	-0.026833	1.454596
C241	C	0.113010	-0.587190	0.954585
C242	C	0.613010	-0.087190	1.454585
C243	C	0.112735	-0.485627	0.954611
C244	C	0.612735	0.014373	1.454611
H245	H	0.016234	-0.428240	0.834672
H246	H	0.516234	0.071760	1.334672
C247	C	0.098917	-0.214102	0.637242
C248	C	0.598917	0.285898	1.137242
C249	C	0.081501	-0.226521	0.616055
C250	C	0.581501	0.273479	1.116055
H251	H	0.090540	-0.231504	0.671464
H252	H	0.590540	0.268496	1.171464
H253	H	0.084504	-0.179886	0.631826
H254	H	0.584504	0.320114	1.131826
H255	H	0.133522	-0.222504	0.622809
H256	H	0.633522	0.277496	1.122809
H257	H	0.046896	-0.218116	0.630485
H258	H	0.546896	0.281884	1.130485
H259	H	0.095913	-0.260745	0.621475
H260	H	0.595913	0.239255	1.121475
C261	C	-0.061491	-0.503494	0.912654
C262	C	0.438509	-0.003494	1.412654
C263	C	-0.048356	-0.536833	0.954549
C264	C	0.451644	-0.036833	1.454549
H265	H	-0.086303	-0.509666	0.912628
H266	H	0.413697	-0.009666	1.412628
H267	H	-0.033622	-0.507147	0.884248
H268	H	0.466378	-0.007147	1.384248
H269	H	-0.073464	-0.471057	0.912678
H270	H	0.426536	0.028943	1.412678
H271	H	-0.036380	-0.569270	0.954523
H272	H	0.463620	-0.069270	1.454523
H273	H	-0.076231	-0.533184	0.982963
H274	H	0.423769	-0.033184	1.482963
H275	H	0.142910	-0.624330	0.954565
H276	H	0.642910	-0.124330	1.454565
C277	C	0.166107	-0.508931	0.996484
C278	C	0.666107	-0.008931	1.496484
C279	C	0.152938	-0.475606	0.954604
C280	C	0.652938	0.024394	1.454604
H281	H	0.190924	-0.502742	0.996479
H282	H	0.690924	-0.002742	1.496479
H283	H	0.178079	-0.541368	0.996471
H284	H	0.678079	-0.041368	1.496471
H285	H	0.138248	-0.505278	1.024904
H286	H	0.638248	-0.005278	1.524904
H287	H	0.180796	-0.479262	0.926184
H288	H	0.680796	0.020738	1.426184
H289	H	0.140968	-0.443161	0.954613
H290	H	0.640968	0.056839	1.454613
H291	H	0.023733	-0.006162	0.364531
H292	H	0.523733	0.493838	0.864531
H293	H	-0.066220	-0.006175	0.545378
H294	H	0.433780	0.493825	1.045378
C295	C	0.191754	-0.575819	0.342530
C296	C	0.691754	-0.075819	0.842530
C297	C	0.182983	-0.536445	0.353817
C298	C	0.682983	-0.036445	0.853817
H299	H	0.222714	-0.581915	0.317639
H300	H	0.722714	-0.081915	0.817639
H301	H	0.166829	-0.568069	0.331292
H302	H	0.666829	-0.068069	0.831292
H303	H	0.191676	-0.604179	0.371004
H304	H	0.691676	-0.104179	0.871004
H305	H	0.183058	-0.508084	0.325344
H306	H	0.683058	-0.008084	0.825344
H307	H	0.207915	-0.544193	0.365054
H308	H	0.707915	-0.044193	0.865054
C309	C	0.219680	-0.047479	0.369805
C310	C	0.719680	0.452521	0.869805
C311	C	0.182750	-0.005692	0.353446
C312	C	0.682750	0.494308	0.853446
H313	H	0.250560	-0.047279	0.344818
H314	H	0.750560	0.452721	0.844818
H315	H	0.213866	-0.075960	0.377427
H316	H	0.713866	0.424040	0.877427
H317	H	0.219664	-0.047532	0.398260
H318	H	0.719664	0.452468	0.898260
H319	H	0.182765	-0.005641	0.324993
H320	H	0.682765	0.494359	0.824993
H321	H	0.188566	0.022797	0.345818
H322	H	0.688566	0.522797	0.845818
H323	H	0.079939	-0.006110	0.544893
H324	H	0.579939	0.493890	1.044893
C325	C	-0.031372	-0.344795	0.954668
C326	C	0.468628	0.155205	1.454668
C327	C	-0.048815	-0.375136	0.954660
C328	C	0.451185	0.124864	1.454660
H329	H	-0.056293	-0.313843	0.954683
H330	H	0.443707	0.186157	1.454683
H331	H	-0.003541	-0.340501	0.926250
H332	H	0.496459	0.159499	1.426250
H333	H	-0.022459	-0.359463	0.983083
H334	H	0.477541	0.140537	1.483083
H335	H	-0.057725	-0.360470	0.926243
H336	H	0.442275	0.139530	1.426243
H337	H	-0.076654	-0.379430	0.983081
H338	H	0.423346	0.120570	1.483081
H339	H	-0.066242	-0.478508	0.545321
H340	H	0.433758	0.021492	1.045321
C341	C	-0.010197	-0.381547	0.767701
C342	C	0.489803	0.118453	1.267701
C343	C	0.037656	-0.388792	0.734326
C344	C	0.537656	0.111208	1.234326
H345	H	-0.032842	-0.361539	0.750321
H346	H	0.467158	0.138461	1.250321
H347	H	-0.015104	-0.365891	0.787703
H348	H	0.484896	0.134109	1.287703
H349	H	-0.015099	-0.412300	0.787706
H350	H	0.484901	0.087700	1.287706
H351	H	0.042560	-0.358040	0.714322
H352	H	0.542560	0.141960	1.214322
H353	H	0.042566	-0.404447	0.714315
H354	H	0.542566	0.095553	1.214315
H355	H	0.199181	-0.473148	0.741498
H356	H	0.699181	0.026852	1.241498
C357	C	0.207241	-0.555336	0.829436
C358	C	0.707241	-0.055336	1.329436
C359	C	0.177752	-0.512595	0.841855
C360	C	0.677752	-0.012595	1.341855
H361	H	0.229880	-0.575350	0.846822
H362	H	0.729880	-0.075350	1.346822
H363	H	0.224612	-0.546912	0.795218
H364	H	0.724612	-0.046912	1.295218
H365	H	0.187230	-0.572737	0.837855
H366	H	0.687230	-0.072737	1.337855
H367	H	0.197764	-0.495192	0.833433
H368	H	0.697764	0.004808	1.333433
H369	H	0.160380	-0.521019	0.876081
H370	H	0.660380	-0.021019	1.376081
C371	C	0.007990	-0.346016	0.546505
C372	C	0.507990	0.153984	1.046505
C373	C	0.037510	-0.388764	0.572138
C374	C	0.537510	0.111236	1.072138
H375	H	-0.014619	-0.326009	0.566525
H376	H	0.485381	0.173991	1.066525
H377	H	-0.009416	-0.354432	0.538112
H378	H	0.490584	0.145568	1.038112
H379	H	0.027985	-0.328611	0.517496
H380	H	0.527985	0.171389	1.017496
H381	H	0.017515	-0.406171	0.601146
H382	H	0.517515	0.093829	1.101146
H383	H	0.054916	-0.380349	0.580537
H384	H	0.554916	0.119651	1.080537
C385	C	-0.019590	-0.442093	0.587303
C386	C	0.480410	0.057907	1.087303
C387	C	0.001589	-0.424676	0.536286
C388	C	0.501589	0.075324	1.036286
H389	H	-0.053812	-0.433704	0.595735
H390	H	0.446188	0.066296	1.095735
H391	H	-0.014173	-0.427688	0.601698
H392	H	0.485827	0.072312	1.101698
H393	H	-0.005155	-0.476701	0.599073
H394	H	0.494845	0.023299	1.099073
H395	H	-0.012843	-0.390067	0.524516
H396	H	0.487157	0.109933	1.024516
H397	H	-0.003832	-0.439078	0.521885
H398	H	0.496168	0.060922	1.021885
H399	H	0.167905	-0.504126	0.456671
H400	H	0.667905	-0.004126	0.956671
H401	H	0.198948	-0.473094	0.487648
H402	H	0.698948	0.026906	0.987648
H403	H	0.079796	-0.624394	0.545162
H404	H	0.579796	-0.124394	1.045162
C405	C	0.552213	-0.589636	0.615715
C406	C	1.052213	-0.089636	1.115715
C407	C	0.552194	-0.607086	0.585381
C408	C	1.052194	-0.107086	1.085381
H409	H	0.552262	-0.614561	0.646657
H410	H	1.052262	-0.114561	1.146657
H411	H	0.523782	-0.561812	0.620032
H412	H	1.023782	-0.061812	1.120032
H413	H	0.580613	-0.580707	0.601029
H414	H	1.080613	-0.080707	1.101029
H415	H	0.523791	-0.616012	0.600065
H416	H	1.023791	-0.116012	1.100065
H417	H	0.580628	-0.634919	0.581065
H418	H	1.080628	-0.134919	1.081065
H419	H	0.552029	-0.596233	0.426301
H420	H	1.052029	-0.096233	0.926301
C421	C	0.365036	-0.567289	0.563943
C422	C	0.865036	-0.067289	1.063943
C423	C	0.331677	-0.519761	0.561192
C424	C	0.831677	-0.019761	1.061192
H425	H	0.347645	-0.589653	0.580490
H426	H	0.847645	-0.089653	1.080490
H427	H	0.385061	-0.575864	0.581401
H428	H	0.885061	-0.075864	1.081401
H429	H	0.385019	-0.568583	0.531801
H430	H	0.885019	-0.068583	1.031801
H431	H	0.311696	-0.518465	0.593334
H432	H	0.811696	-0.018465	1.093334
H433	H	0.311644	-0.511183	0.543735
H434	H	0.811644	-0.011183	1.043735
H435	H	0.551811	-0.415327	0.336274
H436	H	1.051811	0.084673	0.836274
C437	C	0.426841	-0.346786	0.416794
C438	C	0.926841	0.153214	0.916794
C439	C	0.439280	-0.381401	0.458792
C440	C	0.939280	0.118599	0.958792
H441	H	0.444239	-0.324426	0.400238
H442	H	0.944239	0.175574	0.900238
H443	H	0.392627	-0.329449	0.425959
H444	H	0.892627	0.170551	0.925959
H445	H	0.435231	-0.363007	0.395698
H446	H	0.935231	0.136993	0.895698
H447	H	0.430887	-0.365180	0.479890
H448	H	0.930887	0.134820	0.979890
H449	H	0.473503	-0.398739	0.449628
H450	H	0.973503	0.101261	0.949628
C451	C	0.302087	-0.327811	0.467076
C452	C	0.802087	0.172189	0.967076
C453	C	0.331608	-0.345533	0.494753
C454	C	0.831608	0.154467	0.994753
H455	H	0.284678	-0.293852	0.462145
H456	H	0.784678	0.206148	0.962145
H457	H	0.279483	-0.344988	0.484053
H458	H	0.779483	0.155012	0.984053
H459	H	0.322081	-0.332567	0.436255
H460	H	0.822081	0.167433	0.936255
H461	H	0.311613	-0.340780	0.525575
H462	H	0.811613	0.159220	1.025575
H463	H	0.354214	-0.328350	0.477776
H464	H	0.854214	0.171650	0.977776
H465	H	0.432025	-0.541365	0.523165
H466	H	0.932025	-0.041365	1.023165
H467	H	0.129813	-0.126117	0.418717
H468	H	0.629813	0.373883	0.918717
C469	C	0.176490	-0.193122	0.392332
C470	C	0.676490	0.306878	0.892332
C471	C	0.169276	-0.226478	0.440198
C472	C	0.669276	0.273522	0.940198
H473	H	0.196483	-0.210518	0.369704
H474	H	0.696483	0.289482	0.869704
H475	H	0.192148	-0.173110	0.387392
H476	H	0.692148	0.326890	0.887392
H477	H	0.145729	-0.173123	0.387437
H478	H	0.645729	0.326877	0.887437
H479	H	0.200037	-0.246475	0.445095
H480	H	0.700037	0.253525	0.945095
H481	H	0.153619	-0.246499	0.445140
H482	H	0.653619	0.253501	0.945140
C483	C	-0.080166	-0.434629	0.079571
C484	C	0.419834	0.065371	0.579571
C485	C	-0.029160	-0.455895	0.067255
C486	C	0.470840	0.044105	0.567255
H487	H	-0.088544	-0.400410	0.062151
H488	H	0.411456	0.099590	0.562151
H489	H	-0.094609	-0.440022	0.113782
H490	H	0.405391	0.059978	0.613782
H491	H	-0.091935	-0.449026	0.071126
H492	H	0.408065	0.050974	0.571126
H493	H	-0.017391	-0.441500	0.075704
H494	H	0.482609	0.058500	0.575704
H495	H	-0.014712	-0.450498	0.033036
H496	H	0.485288	0.049502	0.533036
C497	C	-0.042162	-0.499011	0.204480
C498	C	0.457838	0.000989	0.704480
C499	C	-0.065196	-0.491723	0.174921
C500	C	0.434804	0.008277	0.674921
H501	H	-0.062190	-0.476374	0.221867
H502	H	0.437810	0.023626	0.721867
H503	H	-0.011409	-0.494116	0.184517
H504	H	0.488591	0.005884	0.684517
H505	H	-0.037274	-0.531485	0.227110
H506	H	0.462726	-0.031485	0.727110
H507	H	-0.070081	-0.459250	0.152289
H508	H	0.429919	0.040750	0.652289
H509	H	-0.095958	-0.496614	0.194886
H510	H	0.404042	0.003386	0.694886
C511	C	0.065893	-0.679638	0.100717
C512	C	0.565893	-0.179638	0.600717
C513	C	0.058691	-0.631774	0.067354
C514	C	0.558691	-0.131774	0.567354
H515	H	0.085918	-0.702273	0.083330
H516	H	0.585918	-0.202273	0.583330
H517	H	0.035136	-0.684525	0.120675
H518	H	0.535136	-0.184525	0.620675
H519	H	0.081519	-0.684577	0.120769
H520	H	0.581519	-0.184577	0.620769
H521	H	0.043062	-0.626834	0.047304
H522	H	0.543062	-0.126834	0.547304
H523	H	0.089454	-0.626885	0.047387
H524	H	0.589454	-0.126885	0.547387
C525	C	0.100176	-0.798295	0.306149
C526	C	0.600176	-0.298295	0.806149
C527	C	0.065518	-0.785860	0.348135
C528	C	0.565518	-0.285860	0.848135
H529	H	0.122552	-0.780925	0.289650
H530	H	0.622552	-0.280925	0.789650
H531	H	0.083998	-0.789870	0.285003
H532	H	0.583998	-0.289870	0.785003
H533	H	0.117488	-0.832522	0.315322
H534	H	0.617488	-0.332522	0.815322
H535	H	0.048203	-0.751633	0.338962
H536	H	0.548203	-0.251633	0.838962
H537	H	0.081697	-0.794281	0.369286
H538	H	0.581697	-0.294281	0.869286
H539	H	0.019144	-0.653235	0.167709
H540	H	0.519144	-0.153235	0.667709
C541	C	-0.108194	-0.462191	0.362899
C542	C	0.391806	0.037809	0.862899
C543	C	-0.065433	-0.491713	0.337284
C544	C	0.434567	0.008287	0.837284
H545	H	-0.128168	-0.439557	0.342848
H546	H	0.371832	0.060443	0.842848
H547	H	-0.099794	-0.444812	0.371339
H548	H	0.400206	0.055188	0.871339
H549	H	-0.125624	-0.482184	0.391880
H550	H	0.374376	0.017816	0.891880
H551	H	-0.048001	-0.471719	0.308305
H552	H	0.451999	0.028281	0.808305
H553	H	-0.073832	-0.509093	0.328837
H554	H	0.426168	-0.009093	0.828837
C555	C	-0.012102	-0.434691	0.322271
C556	C	0.487898	0.065309	0.822271
C557	C	-0.029580	-0.455878	0.373283
C558	C	0.470420	0.044122	0.873283
H559	H	-0.020471	-0.400474	0.313851
H560	H	0.479529	0.099526	0.813851
H561	H	-0.026484	-0.440076	0.307827
H562	H	0.473516	0.059924	0.807827
H563	H	0.022503	-0.449150	0.310543
H564	H	0.522503	0.050850	0.810543
H565	H	-0.064186	-0.441422	0.385011
H566	H	0.435814	0.058578	0.885011
H567	H	-0.015200	-0.450490	0.387733
H568	H	0.484800	0.049510	0.887733
C569	C	0.100881	-0.661277	0.435754
C570	C	0.600881	-0.161277	0.935754
C571	C	0.058120	-0.631749	0.461363
C572	C	0.558120	-0.131749	0.961363
H573	H	0.120850	-0.683913	0.455811
H574	H	0.620850	-0.183913	0.955811
H575	H	0.118314	-0.641291	0.406776
H576	H	0.618314	-0.141291	0.906776
H577	H	0.092479	-0.678658	0.427314
H578	H	0.592479	-0.178658	0.927314
H579	H	0.066522	-0.614365	0.469799
H580	H	0.566522	-0.114365	0.969799
H581	H	0.040684	-0.651738	0.490349
H582	H	0.540684	-0.151738	0.990349
C583	C	0.004829	-0.688789	0.476365
C584	C	0.504829	-0.188789	0.976365
C585	C	0.022288	-0.667586	0.425354
C586	C	0.522288	-0.167586	0.925354
H587	H	0.013220	-0.723009	0.484776
H588	H	0.513220	-0.223009	0.984776
H589	H	-0.029774	-0.674352	0.488104
H590	H	0.470226	-0.174352	0.988104
H591	H	0.019208	-0.683393	0.490808
H592	H	0.519208	-0.183393	0.990808
H593	H	0.007907	-0.672979	0.410911
H594	H	0.507907	-0.172979	0.910911
H595	H	0.056898	-0.682028	0.413609
H596	H	0.556898	-0.182028	0.913609
C597	C	0.552026	-0.422947	0.532756
C598	C	1.052026	0.077053	1.032756
C599	C	0.551965	-0.405290	0.484950
C600	C	1.051965	0.094710	0.984950
H601	H	0.552013	-0.398120	0.538940
H602	H	1.052013	0.101880	1.038940
H603	H	0.580465	-0.450791	0.536373
H604	H	1.080465	0.049209	1.036373
H605	H	0.523634	-0.431898	0.555376
H606	H	1.023634	0.068102	1.055376
H607	H	0.580359	-0.396342	0.462329
H608	H	1.080359	0.103658	0.962329
H609	H	0.523522	-0.377437	0.481329
H610	H	1.023522	0.122563	0.981329
C611	C	-0.026444	-0.344759	0.371587
C612	C	0.473556	0.155241	0.871587
C613	C	0.021365	-0.374992	0.353993
C614	C	0.521365	0.125008	0.853993
H615	H	-0.032601	-0.313777	0.346733
H616	H	0.467399	0.186223	0.846733
H617	H	-0.030093	-0.340511	0.399426
H618	H	0.469907	0.159489	0.899426
H619	H	-0.049061	-0.359482	0.380529
H620	H	0.450939	0.140518	0.880529
H621	H	0.043983	-0.360271	0.345055
H622	H	0.543983	0.139729	0.845055
H623	H	0.025019	-0.379239	0.326146
H624	H	0.525019	0.120761	0.826146
H625	H	0.087072	-0.886205	0.386121
H626	H	0.587072	-0.386205	0.886121
H627	H	-0.063498	-0.886058	0.443304
H628	H	0.436502	-0.386058	0.943304
C629	C	-0.134029	-0.818988	0.439231
C630	C	0.365971	-0.318988	0.939231
C631	C	-0.108701	-0.785679	0.414282
C632	C	0.391299	-0.285679	0.914282
H633	H	-0.167975	-0.801556	0.444099
H634	H	0.332025	-0.301556	0.944099
H635	H	-0.129332	-0.838984	0.470075
H636	H	0.370668	-0.338984	0.970075
H637	H	-0.121961	-0.839009	0.420434
H638	H	0.378039	-0.339009	0.920434
H639	H	-0.120767	-0.765661	0.433081
H640	H	0.379233	-0.265661	0.933081
H641	H	-0.113401	-0.765675	0.383433
H642	H	0.386599	-0.265675	0.883433
H643	H	0.053957	-0.126168	0.570702
H644	H	0.553957	0.373832	1.070702
H645	H	-0.235077	-0.614964	0.459366
H646	H	0.264923	-0.114964	0.959366
H647	H	-0.328125	-0.583847	0.490235
H648	H	0.171875	-0.083847	0.990235
H649	H	-0.234840	-0.539009	0.307312
H650	H	0.265160	-0.039009	0.807312
C651	C	-0.301780	-0.492274	0.280824
C652	C	0.198220	0.007726	0.780824
C653	C	-0.335179	-0.499493	0.328667
C654	C	0.164821	0.000507	0.828667
H655	H	-0.319139	-0.472250	0.258162
H656	H	0.180861	0.027750	0.758162
H657	H	-0.281785	-0.523028	0.275923
H658	H	0.218215	-0.023028	0.775923
H659	H	-0.281770	-0.476639	0.275940
H660	H	0.218230	0.023361	0.775940
H661	H	-0.355187	-0.515131	0.333552
H662	H	0.144813	-0.015131	0.833552
H663	H	-0.355183	-0.468733	0.333570
H664	H	0.144817	0.031267	0.833570
