data_functionalizedCrystal
_audit_creation_method	'MofGen! by Chris Wilmer'
_symmetry_space_group_name_H-M	'P1'
_symmetry_Int_Tables_number	1
_symmetry_cell_setting	triclinic
loop_
_symmetry_equiv_pos_as_xyz
  x,y,z
_cell_length_a	19.077105
_cell_length_b	18.050590
_cell_length_c	19.077174
_cell_angle_alpha	92.271281
_cell_angle_beta	85.483752
_cell_angle_gamma	87.714864
loop_
_atom_site_label
_atom_site_type_symbol
_atom_site_fract_x
_atom_site_fract_y
_atom_site_fract_z
Zn1	Zn	1.093742	-0.360842	-0.441837
Zn2	Zn	1.593742	0.139158	0.058163
Zn3	Zn	1.088938	-0.479834	-0.323947
Zn4	Zn	1.588938	0.020166	0.176053
Zn5	Zn	0.971126	-0.350461	-0.319234
Zn6	Zn	1.471126	0.149539	0.180766
Zn7	Zn	0.975832	-0.479786	-0.437065
Zn8	Zn	1.475832	0.020214	0.062935
O9	O	1.032409	-0.417731	-0.380521
O10	O	1.532409	0.082269	0.119479
O11	O	1.191755	-0.380991	-0.430168
O12	O	1.691755	0.119009	0.069832
O13	O	1.069330	-0.458348	-0.224672
O14	O	1.569330	0.041652	0.275328
O15	O	0.987431	-0.247916	-0.335523
O16	O	1.487431	0.252084	0.164477
O17	O	1.188226	-0.468415	-0.343554
O18	O	1.688226	0.031585	0.156446
O19	O	1.077517	-0.255543	-0.425598
O20	O	1.577517	0.244457	0.074402
O21	O	0.982774	-0.363298	-0.221210
O22	O	1.482774	0.136702	0.278790
O23	O	0.873099	-0.363251	-0.330896
O24	O	1.373099	0.136749	0.169104
O25	O	0.995453	-0.468332	-0.536347
O26	O	1.495453	0.031668	-0.036347
O27	O	0.876557	-0.458265	-0.417465
O28	O	1.376557	0.041735	0.082535
O29	O	1.082081	-0.380944	-0.539853
O30	O	1.582081	0.119056	-0.039853
O31	O	1.073894	-0.583750	-0.338927
O32	O	1.573894	-0.083750	0.161073
O33	O	0.990796	-0.583714	-0.422034
O34	O	1.490796	-0.083714	0.077966
C35	C	0.849249	-0.409627	-0.373152
C36	C	1.349249	0.090373	0.126848
C37	C	0.770893	-0.406179	-0.370016
C38	C	1.270893	0.093821	0.129984
C39	C	0.735897	-0.454096	-0.413544
C40	C	1.235897	0.045904	0.086456
C41	C	0.662274	-0.450847	-0.410601
C42	C	1.162274	0.049153	0.089399
C43	C	0.623647	-0.399683	-0.364126
C44	C	1.123647	0.100317	0.135874
C45	C	0.658648	-0.351760	-0.320596
C46	C	1.158648	0.148240	0.179404
C47	C	0.732271	-0.355006	-0.323543
C48	C	1.232271	0.144994	0.176457
C49	C	0.403265	-0.384657	-0.350489
C50	C	0.903265	0.115343	0.149511
C51	C	0.329637	-0.381416	-0.347544
C52	C	0.829637	0.118584	0.152456
C53	C	0.333268	-0.480502	-0.437550
C54	C	0.833268	0.019498	0.062450
C55	C	0.406892	-0.483747	-0.440490
C56	C	0.906892	0.016253	0.059510
C57	C	0.441886	-0.435822	-0.396963
C58	C	0.941886	0.064178	0.103037
N59	N	0.548392	-0.396361	-0.361115
N60	N	1.048392	0.103639	0.138885
N61	N	0.517140	-0.439140	-0.399978
N62	N	1.017140	0.060860	0.100022
C63	C	1.032354	-0.610679	-0.380490
C64	C	1.532354	-0.110679	0.119510
C65	C	1.032396	-0.693227	-0.380504
C66	C	1.532396	-0.193227	0.119496
C67	C	1.077685	-0.892678	-0.335380
C68	C	1.577685	-0.392678	0.164620
C69	C	1.097487	-0.945608	-0.400410
C70	C	1.597487	-0.445608	0.099590
C71	C	1.032437	-0.844361	-0.380533
C72	C	1.532437	-0.344361	0.119467
C73	C	1.012709	-0.938516	-0.315535
C74	C	1.512709	-0.438516	0.184465
C75	C	1.032478	-0.990348	-0.380556
C76	C	1.532478	-0.490348	0.119444
C77	C	1.052272	-0.896207	-0.445599
C78	C	1.552272	-0.396207	0.054401
C79	C	0.967463	-0.889108	-0.360679
C80	C	1.467463	-0.389108	0.139321
C81	C	0.987242	-0.942016	-0.425753
C82	C	1.487242	-0.442016	0.074247
C83	C	1.032415	-0.760261	-0.380519
C84	C	1.532415	-0.260261	0.119481
C85	C	1.032500	-1.074447	-0.380578
C86	C	1.532500	-0.574447	0.119422
C87	C	1.216285	-0.425867	-0.387919
C88	C	1.716285	0.074133	0.112081
C89	C	1.294641	-0.429334	-0.391072
C90	C	1.794641	0.070666	0.108928
C91	C	1.039828	-0.425791	-0.564394
C92	C	1.539828	0.074209	-0.064394
C93	C	1.042989	-0.429225	-0.642750
C94	C	1.542989	0.070775	-0.142750
C95	C	1.032485	-0.224030	-0.380567
C96	C	1.532485	0.275970	0.119433
C97	C	1.032517	-0.141487	-0.380587
C98	C	1.532517	0.358513	0.119413
C99	C	0.999411	-0.381352	-0.677759
C100	C	1.499411	0.118648	-0.177759
C101	C	1.002378	-0.384586	-0.751383
C102	C	1.502378	0.115414	-0.251383
C103	C	1.048928	-0.435689	-0.789997
C104	C	1.548928	0.064311	-0.289997
C105	C	1.092508	-0.483567	-0.754983
C106	C	1.592508	0.016433	-0.254983
C107	C	1.089536	-0.480337	-0.681360
C108	C	1.589536	0.019663	-0.181360
C109	C	1.062644	-0.450660	-1.010378
C110	C	1.562644	0.049340	-0.510378
C111	C	1.065614	-0.453885	-1.084005
C112	C	1.565614	0.046115	-0.584005
C113	C	0.975483	-0.354904	-1.080400
C114	C	1.475483	0.145096	-0.580400
C115	C	0.972519	-0.351676	-1.006777
C116	C	1.472519	0.148324	-0.506777
C117	C	1.016096	-0.399556	-0.971769
C118	C	1.516096	0.100444	-0.471769
N119	N	1.051964	-0.438994	-0.865252
N120	N	1.551964	0.061006	-0.365252
N121	N	1.013056	-0.396255	-0.896515
N122	N	1.513056	0.103745	-0.396515
C123	C	1.025061	-0.409650	-0.197364
C124	C	1.525061	0.090350	0.302636
C125	C	1.022036	-0.406012	-0.119014
C126	C	1.522036	0.093988	0.380986
H127	H	0.298189	-0.339744	-0.309703
H128	H	0.798189	0.160256	0.190297
N129	N	0.936576	-0.970547	-0.476394
N130	N	1.436576	-0.470547	0.023606
H131	H	0.887642	-0.949122	-0.461825
H132	H	1.387642	-0.449122	0.038175
H133	H	0.951636	-0.955156	-0.525446
H134	H	1.451636	-0.455156	-0.025446
N135	N	1.170288	-0.978337	-0.422677
N136	N	1.670288	-0.478337	0.077323
H137	H	1.203433	-0.937021	-0.432332
H138	H	1.703433	-0.437021	0.067668
H139	H	1.187473	-1.009028	-0.383826
H140	H	1.687473	-0.509028	0.116174
H141	H	0.961509	-0.339735	-0.646325
H142	H	1.461509	0.160265	-0.146325
N143	N	0.990570	-0.963294	-0.242716
N144	N	1.490570	-0.463294	0.257284
H145	H	1.029446	-0.995784	-0.225544
H146	H	1.529446	-0.495784	0.274456
H147	H	0.980937	-0.918359	-0.209600
H148	H	1.480937	-0.418359	0.290400
N149	N	1.074481	-0.871561	-0.518447
N150	N	1.574481	-0.371561	-0.018447
H151	H	1.118325	-0.842174	-0.516819
H152	H	1.618325	-0.342174	-0.016819
H153	H	1.084496	-0.916564	-0.551409
H154	H	1.584496	-0.416564	-0.051409
H155	H	0.966889	-0.345605	-0.779883
H156	H	1.466889	0.154395	-0.279883
N157	N	0.922312	-0.296565	-0.965120
N158	N	1.422312	0.203435	-0.465120
H159	H	0.949749	-0.262083	-0.935737
H160	H	1.449749	0.237917	-0.435737
H161	H	0.895160	-0.266773	-0.998505
H162	H	1.395160	0.233227	-0.498505
H163	H	0.912513	-0.864390	-0.343854
H164	H	1.412513	-0.364390	0.156146
N165	N	0.928470	-0.303278	-1.118157
N166	N	1.428470	0.196722	-0.618157
H167	H	0.937409	-0.313082	-1.170655
H168	H	1.437409	0.186918	-0.670655
H169	H	0.877603	-0.312060	-1.103251
H170	H	1.377603	0.187940	-0.603251
H171	H	1.125028	-0.519315	-0.652857
H172	H	1.625028	-0.019315	-0.152857
H173	H	1.115966	-0.871017	-0.297236
H174	H	1.615966	-0.371017	0.202764
N175	N	1.115827	-0.509003	-1.125656
N176	N	1.615827	-0.009003	-0.625656
H177	H	1.142982	-0.538846	-1.092308
H178	H	1.642982	-0.038846	-0.592308
H179	H	1.088350	-0.543436	-1.155043
H180	H	1.588350	-0.043436	-0.655043
N181	N	1.109643	-0.502298	-0.972622
N182	N	1.609643	-0.002298	-0.472622
H183	H	1.139585	-0.535159	-1.008256
H184	H	1.639585	-0.035159	-0.508256
H185	H	1.141046	-0.472173	-0.943395
H186	H	1.641046	0.027827	-0.443395
H187	H	0.431748	-0.345639	-0.315041
H188	H	0.931748	0.154361	0.184959
H189	H	0.633784	-0.489867	-0.446045
H190	H	1.133784	0.010133	0.053955
H191	H	1.130406	-0.525180	-0.786428
H192	H	1.630406	-0.025180	-0.286428
H193	H	0.767342	-0.495762	-0.451386
H194	H	1.267342	0.004238	0.048614
N195	N	0.616990	-0.296588	-0.270455
N196	N	1.116990	0.203412	0.229545
H197	H	0.565040	-0.301809	-0.275185
H198	H	1.065040	0.198191	0.224815
H199	H	0.627825	-0.306442	-0.220610
H200	H	1.127825	0.193558	0.279390
H201	H	0.304767	-0.519519	-0.472988
H202	H	0.804767	-0.019519	0.027012
N203	N	0.448552	-0.538935	-0.490613
N204	N	0.948552	-0.038935	0.009387
H205	H	0.415210	-0.568799	-0.517741
H206	H	0.915210	-0.068799	-0.017741
H207	H	0.480433	-0.511542	-0.524512
H208	H	0.980433	-0.011542	-0.024512
N209	N	0.770020	-0.303320	-0.276600
N210	N	1.270020	0.196680	0.223400
H211	H	0.734380	-0.270414	-0.246711
H212	H	1.234380	0.229586	0.253289
H213	H	0.799237	-0.333406	-0.245146
H214	H	1.299237	0.166594	0.254854
