data_functionalizedCrystal
_audit_creation_method	'MofGen! by Chris Wilmer'
_symmetry_space_group_name_H-M	'P1'
_symmetry_Int_Tables_number	1
_symmetry_cell_setting	triclinic
loop_
_symmetry_equiv_pos_as_xyz
  x,y,z
_cell_length_a	23.096457
_cell_length_b	17.917603
_cell_length_c	17.917603
_cell_angle_alpha	60.136374
_cell_angle_beta	57.011910
_cell_angle_gamma	90.000847
loop_
_atom_site_label
_atom_site_type_symbol
_atom_site_fract_x
_atom_site_fract_y
_atom_site_fract_z
Zr1	Zr	0.526432	-0.063411	0.824395
O2	O	0.549976	-0.187991	0.835757
O3	O	0.435453	-0.025225	0.820914
O4	O	0.423962	-0.180574	0.991109
O5	O	0.665813	0.089906	0.531307
O6	O	0.419843	-0.174718	1.113651
O7	O	0.561467	-0.032641	0.665562
O8	O	0.440398	0.103173	0.809203
O9	O	0.645258	-0.187985	0.835755
O10	O	0.494776	-0.004563	0.910878
O11	O	0.575723	0.082523	0.719233
O12	O	0.562194	-0.100381	0.919616
O13	O	0.643141	-0.013295	0.727971
Zr14	Zr	0.686283	0.141378	0.805713
Zr15	Zr	0.519862	-0.054071	1.019835
Zr16	Zr	0.692853	0.132039	0.610273
Zr17	Zr	0.678397	-0.063402	0.824391
Zr18	Zr	0.534319	0.141369	0.805717
O19	O	0.777263	0.103192	0.809194
O20	O	0.540634	-0.174712	1.113648
O21	O	0.786604	0.089913	0.531303
O22	O	0.662740	0.265958	0.794351
O23	O	0.426111	-0.011946	1.098804
O24	O	0.672082	0.252679	0.516460
O25	O	0.546902	-0.011939	1.098801
O26	O	0.788754	0.258541	0.638999
O27	O	0.792873	0.252685	0.516457
O28	O	0.651249	0.110608	0.964546
O29	O	0.640036	-0.180562	0.991103
O30	O	0.572680	0.258529	0.639005
O31	O	0.567458	0.265952	0.794353
O32	O	0.435175	0.110596	0.964552
O33	O	0.777540	-0.032629	0.665556
O34	O	0.772318	-0.025206	0.820905
O35	O	0.650521	0.178348	0.710492
O36	O	0.569575	0.091263	0.902136
O37	O	0.636992	-0.004555	0.910874
O38	O	0.717939	0.082530	0.719230
C39	C	0.416274	0.038973	0.815059
C40	C	0.351761	0.038969	0.815061
C41	C	0.616222	0.295132	0.791691
C42	C	0.619570	0.382066	0.783762
C43	C	0.596493	-0.217165	0.838417
C44	C	0.593145	-0.304099	0.846346
C45	C	0.279204	-0.006492	0.915095
C46	C	0.218588	-0.006484	0.915096
C47	C	0.230532	0.038972	0.815058
C48	C	0.303103	0.084444	0.715010
C49	C	0.363717	0.084443	0.715012
N50	N	0.165112	0.028640	0.744623
N51	N	0.107528	0.028636	0.744629
C52	C	0.047908	0.038980	0.815048
N53	N	0.048039	0.049310	0.885479
N54	N	0.105627	0.049309	0.885476
C55	C	0.164811	0.038979	0.815045
C56	C	-0.090379	-0.006475	0.915090
C57	C	-0.150995	-0.006460	0.915086
C58	C	-0.066478	0.084461	0.714998
C59	C	-0.005864	0.084453	0.715004
C60	C	-0.017820	0.038980	0.815053
C61	C	0.796442	0.038994	0.815049
C62	C	0.860955	0.038998	0.815047
C63	C	0.614576	0.027302	0.570588
C64	C	0.617365	0.023337	0.487619
C65	C	0.625692	0.541219	0.769278
C66	C	0.587025	0.536756	0.860825
C67	C	0.590432	0.625313	0.852767
C68	C	0.622287	0.452654	0.777334
C69	C	0.622461	0.016097	0.335707
C70	C	0.590256	0.061868	0.294396
C71	C	0.593092	0.057840	0.209867
C72	C	0.619626	0.020124	0.420244
C73	C	0.598140	0.050665	1.059520
C74	C	0.595350	0.054630	1.142489
C75	C	0.398191	-0.205493	1.082888
C76	C	0.327541	-0.288467	1.173788
C77	C	0.408056	0.050655	1.059525
C78	C	0.340754	0.054616	1.142496
C79	C	0.624441	0.283450	0.547225
C80	C	0.630578	0.366420	0.456327
C81	C	0.804660	0.027312	0.570583
C82	C	0.871962	0.023351	0.487612
C83	C	0.814525	0.283461	0.547220
C84	C	0.885175	0.366434	0.456320
C85	C	0.588275	-0.205483	1.082883
C86	C	0.582138	-0.288453	1.173781
C87	C	0.329554	-0.377456	1.221046
C88	C	0.263176	-0.455425	1.306469
C89	C	0.194786	-0.444404	1.344626
C90	C	0.192775	-0.355405	1.297364
C91	C	0.259152	-0.277438	1.211948
C92	C	0.270097	0.006448	1.186032
C93	C	0.206853	0.010151	1.264005
C94	C	0.214267	0.062028	1.298434
C95	C	0.284931	0.110198	1.254894
C96	C	0.348173	0.106489	1.176929
C97	C	0.672511	0.455411	0.409067
C98	C	0.678292	0.533378	0.323647
C99	C	0.642136	0.522350	0.285492
C100	C	0.600201	0.433349	0.332756
C101	C	0.594424	0.355385	0.418169
C102	C	0.942618	0.071511	0.444085
C103	C	1.005861	0.067787	0.366136
C104	C	0.998446	0.015907	0.331709
C105	C	0.927782	-0.032259	0.375245
C106	C	0.864541	-0.028539	0.453198
C107	C	0.953551	0.355383	0.418185
C108	C	1.019940	0.433336	0.332764
C109	C	1.017951	0.522341	0.285485
C110	C	0.949567	0.533390	0.323623
C111	C	0.883180	0.455437	0.409037
C112	C	0.618300	-0.277395	1.211913
C113	C	0.612531	-0.355346	1.297332
C114	C	0.570604	-0.444353	1.344612
C115	C	0.534438	-0.455408	1.306476
C116	C	0.540203	-0.377458	1.221065
H117	H	0.269465	-0.043516	0.996560
H118	H	0.712439	0.605839	0.285178
H119	H	1.072013	0.585808	0.215935
F120	F	0.489824	-0.550144	1.356800
F121	F	0.440943	0.132832	0.608537
H122	H	0.551363	0.466425	0.945254
H123	H	0.510756	-0.386474	1.190022
F124	F	0.265332	-0.550136	1.356750
H125	H	0.137083	-0.346445	1.328446
F126	F	0.549788	0.260675	0.468462
H127	H	0.661351	0.611543	0.684856
H128	H	0.947959	0.605868	0.285116
H129	H	0.385234	-0.386448	1.189987
H130	H	0.560555	0.104080	0.322511
F131	F	0.146952	0.065968	1.381412
H132	H	0.159501	-0.043506	0.996558
F133	F	0.315815	0.132828	0.608543
H134	H	0.652159	-0.026113	0.307595
H135	H	0.701957	0.464408	0.440119
F136	F	0.648290	0.605336	0.194586
H137	H	0.955184	0.282918	0.456669
F138	F	0.919903	-0.087468	0.338592
H139	H	-0.100115	-0.043498	0.996556
H140	H	0.264045	-0.035807	1.158021
F141	F	0.256999	-0.182731	1.161650
F142	F	0.124147	-0.527394	1.435534
F143	F	-0.228221	-0.054852	1.021562
H144	H	0.948670	0.113764	0.472099
H145	H	-0.056751	0.121473	0.633546
F146	F	0.131654	-0.041117	1.310326
F147	F	0.292811	0.165409	1.291545
F148	F	0.423370	0.157765	1.130596
H149	H	0.053216	0.121469	0.633546
F150	F	1.092710	0.421557	0.292189
H151	H	0.570765	0.424384	0.301677
H152	H	1.063392	0.107013	0.330697
F153	F	1.065761	0.011957	0.248741
F154	F	0.789345	-0.079796	0.499510
F155	F	0.810412	0.467213	0.449618
F156	F	0.662925	-0.182674	1.161609
F157	F	0.651031	-0.343561	1.337898
H158	H	0.565917	-0.507817	1.414158
