data_functionalizedCrystal
_audit_creation_method	'MofGen! by Chris Wilmer'
_symmetry_space_group_name_H-M	'P1'
_symmetry_Int_Tables_number	1
_symmetry_cell_setting	triclinic
loop_
_symmetry_equiv_pos_as_xyz
  x,y,z
_cell_length_a	17.077403
_cell_length_b	18.215407
_cell_length_c	17.077396
_cell_angle_alpha	90.017722
_cell_angle_beta	90.017592
_cell_angle_gamma	89.995225
loop_
_atom_site_label
_atom_site_type_symbol
_atom_site_fract_x
_atom_site_fract_y
_atom_site_fract_z
Zn1	Zn	-0.312623	1.125195	0.443865
Zn2	Zn	-0.443898	1.125155	0.312624
Zn3	Zn	-0.312637	1.002128	0.312617
Zn4	Zn	-0.443838	1.002145	0.443851
O5	O	-0.378249	1.063656	0.378239
O6	O	-0.330056	1.228174	0.426464
O7	O	-0.426517	1.108812	0.202776
O8	O	-0.202789	1.018462	0.330030
O9	O	-0.426503	1.228145	0.330042
O10	O	-0.202778	1.108879	0.426457
O11	O	-0.330080	1.018424	0.202771
O12	O	-0.330023	0.899146	0.330017
O13	O	-0.426401	1.018492	0.553700
O14	O	-0.426415	0.899159	0.426434
O15	O	-0.329998	1.108896	0.553710
O16	O	-0.553737	1.108829	0.330029
O17	O	-0.553693	1.018454	0.426441
C18	C	-0.378215	0.872450	0.378224
C19	C	-0.378219	0.790651	0.378236
C20	C	-0.328126	0.525603	0.428526
C21	C	-0.328113	0.602461	0.428524
C22	C	-0.428398	0.602450	0.327969
C23	C	-0.428414	0.525593	0.327976
C24	C	-0.378273	0.487171	0.378254
C25	C	-0.378245	0.640887	0.378244
C26	C	-0.378231	0.724221	0.378241
C27	C	-0.378288	0.403832	0.378258
C28	C	-0.582197	1.063659	0.378251
C29	C	-0.669447	1.063727	0.378283
C30	C	-0.173505	1.063673	0.378244
C31	C	-0.086255	1.063680	0.378246
C32	C	-0.045269	1.016611	0.328045
C33	C	0.036711	1.016617	0.328054
C34	C	0.077704	1.063696	0.378263
C35	C	0.036713	1.110767	0.428470
C36	C	-0.045266	1.110757	0.428464
C37	C	0.207583	1.110785	0.428479
C38	C	0.289567	1.110796	0.428485
C39	C	0.289560	1.016645	0.328070
C40	C	0.207581	1.016635	0.328063
C41	C	0.166595	1.063708	0.378270
C42	C	-0.378191	1.063700	0.582984
C43	C	-0.378167	1.063719	0.670233
C44	C	-0.378284	1.255609	0.378255
C45	C	-0.378299	1.337408	0.378262
C46	C	-0.378250	1.063654	0.174291
C47	C	-0.378054	1.063777	0.087042
C48	C	-0.327965	1.110794	0.711230
C49	C	-0.327939	1.110803	0.793210
C50	C	-0.378119	1.063740	0.834193
C51	C	-0.428322	1.016660	0.793191
C52	C	-0.428344	1.016648	0.711212
C53	C	-0.428275	1.016690	0.964061
C54	C	-0.428255	1.016702	1.046045
C55	C	-0.327870	1.110845	1.046060
C56	C	-0.327892	1.110833	0.964081
C57	C	-0.378097	1.063753	0.923084
H58	H	-0.469254	0.494301	0.287038
Br59	Br	-0.100895	0.952721	0.259895
H60	H	-0.287279	0.633749	0.469462
H61	H	-0.469219	0.633743	0.287034
H62	H	0.070082	0.978289	0.287177
H63	H	0.174207	0.978304	0.287175
H64	H	-0.287298	0.494322	0.469465
H65	H	0.322936	0.978318	0.287190
Br66	Br	0.345201	1.174691	0.496623
Br67	Br	0.151959	1.174670	0.496617
H68	H	0.070094	1.149097	0.469355
H69	H	-0.287036	1.149160	0.930715
Br70	Br	-0.259738	1.174742	1.101696
Br71	Br	-0.496349	0.952823	1.101665
H72	H	-0.078636	1.149080	0.469349
H73	H	-0.287105	1.149121	0.677868
Br74	Br	-0.496420	0.952783	0.848809
Br75	Br	-0.496408	0.952793	0.908423
Br76	Br	-0.496472	0.952753	0.655572
Br77	Br	-0.259842	1.174728	0.848846
