data_functionalizedCrystal
_audit_creation_method	'MofGen! by Chris Wilmer'
_symmetry_space_group_name_H-M	'P1'
_symmetry_Int_Tables_number	1
_symmetry_cell_setting	triclinic
loop_
_symmetry_equiv_pos_as_xyz
  x,y,z
_cell_length_a	17.699083
_cell_length_b	17.038272
_cell_length_c	16.176319
_cell_angle_alpha	89.993159
_cell_angle_beta	89.998611
_cell_angle_gamma	87.197286
loop_
_atom_site_label
_atom_site_type_symbol
_atom_site_fract_x
_atom_site_fract_y
_atom_site_fract_z
O1	O	1.010620	0.098861	-0.068631
O2	O	1.343954	0.432194	0.264703
O3	O	1.677287	0.765528	0.598036
O4	O	0.791093	0.111723	-0.068658
O5	O	1.124426	0.445056	0.264675
O6	O	1.457760	0.778390	0.598009
O7	O	0.899552	-0.008521	-0.068638
O8	O	1.232885	0.324812	0.264695
O9	O	1.566219	0.658145	0.598029
O10	O	0.902161	0.219105	-0.068651
O11	O	1.235495	0.552439	0.264683
O12	O	1.568828	0.885772	0.598016
O13	O	0.899535	-0.008529	0.068855
O14	O	1.232869	0.324805	0.402189
O15	O	1.566202	0.658138	0.735522
O16	O	0.791077	0.111715	0.068835
O17	O	1.124410	0.445049	0.402169
O18	O	1.457743	0.778382	0.735502
O19	O	1.010604	0.098853	0.068862
O20	O	1.343937	0.432187	0.402196
O21	O	1.677271	0.765520	0.735529
Cu22	Cu	0.900839	0.105284	0.081403
Cu23	Cu	1.234172	0.438617	0.414736
Cu24	Cu	1.567505	0.771950	0.748070
Cu25	Cu	0.900858	0.105293	-0.081199
Cu26	Cu	1.234192	0.438626	0.252135
Cu27	Cu	1.567525	0.771959	0.585468
O28	O	0.902145	0.219098	0.068842
O29	O	1.235478	0.552431	0.402176
O30	O	1.568812	0.885764	0.735509
C31	C	0.762857	0.111258	0.000085
C32	C	1.096191	0.444592	0.333419
C33	C	1.429524	0.777925	0.666752
C34	C	0.678748	0.109876	0.000075
C35	C	1.012081	0.443209	0.333408
C36	C	1.345414	0.776542	0.666742
C37	C	0.634797	0.180457	0.000071
C38	C	0.968130	0.513790	0.333405
C39	C	1.301464	0.847123	0.666738
C40	C	0.555767	0.179153	0.000082
C41	C	0.889101	0.512486	0.333415
C42	C	1.222434	0.845819	0.666749
C43	C	0.520690	0.107267	0.000091
C44	C	0.854023	0.440601	0.333424
C45	C	1.187357	0.773934	0.666757
C46	C	0.564647	0.036681	0.000097
C47	C	0.897980	0.370014	0.333430
C48	C	1.231313	0.703348	0.666764
C49	C	0.643675	0.037986	0.000092
C50	C	0.977008	0.371319	0.333425
C51	C	1.310341	0.704652	0.666759
C52	C	0.245935	0.031418	0.000118
C53	C	0.579269	0.364752	0.333451
C54	C	0.912602	0.698085	0.666784
C55	C	0.166901	0.030119	0.000120
C56	C	0.500235	0.363452	0.333453
C57	C	0.833568	0.696786	0.666787
C58	C	0.158028	0.172585	0.000108
C59	C	0.491361	0.505919	0.333441
C60	C	0.824695	0.839252	0.666774
C61	C	0.237056	0.173890	0.000103
C62	C	0.570390	0.507223	0.333436
C63	C	0.903723	0.840557	0.666769
C64	C	0.281006	0.103304	0.000113
C65	C	0.614339	0.436637	0.333447
C66	C	0.947672	0.769971	0.666780
C67	C	0.366699	0.104719	0.000103
C68	C	0.700032	0.438052	0.333437
C69	C	1.033365	0.771385	0.666770
C70	C	0.434999	0.105852	0.000095
C71	C	0.768332	0.439185	0.333428
C72	C	1.101665	0.772519	0.666762
C73	C	0.897170	-0.037649	0.000108
C74	C	1.230504	0.295684	0.333442
C75	C	1.563837	0.629017	0.666775
C76	C	0.890090	-0.124431	0.000107
C77	C	1.223423	0.208903	0.333440
C78	C	1.556756	0.542236	0.666774
C79	C	0.955100	-0.174651	0.000116
C80	C	1.288433	0.158683	0.333449
C81	C	1.621767	0.492016	0.666783
C82	C	0.948442	-0.256191	0.000107
C83	C	1.281776	0.077143	0.333441
C84	C	1.615109	0.410476	0.666774
C85	C	0.876773	-0.287509	0.000096
C86	C	1.210107	0.045825	0.333429
C87	C	1.543440	0.379158	0.666762
C88	C	0.811758	-0.237282	0.000084
C89	C	1.145092	0.096051	0.333418
C90	C	1.478425	0.429385	0.666751
C91	C	0.818417	-0.155744	0.000087
C92	C	1.151750	0.177589	0.333420
C93	C	1.485083	0.510923	0.666754
C94	C	0.853251	-0.533228	0.000081
C95	C	1.186584	-0.199895	0.333415
C96	C	1.519917	0.133439	0.666748
C97	C	0.846597	-0.614773	0.000081
C98	C	1.179930	-0.281439	0.333415
C99	C	1.513264	0.051894	0.666748
C100	C	0.983282	-0.633676	0.000103
C101	C	1.316615	-0.300342	0.333436
C102	C	1.649948	0.032991	0.666769
C103	C	0.989934	-0.552135	0.000110
C104	C	1.323267	-0.218802	0.333444
C105	C	1.656600	0.114532	0.666777
C106	C	0.924919	-0.501916	0.000095
C107	C	1.258252	-0.168582	0.333428
C108	C	1.591585	0.164751	0.666761
C109	C	0.869967	-0.370855	0.000089
C110	C	1.203300	-0.037522	0.333423
C111	C	1.536633	0.295812	0.666756
C112	C	0.931726	-0.418571	0.000095
C113	C	1.265059	-0.085238	0.333428
C114	C	1.598393	0.248096	0.666762
C115	C	1.038840	0.099318	0.000117
C116	C	1.372173	0.432651	0.333451
C117	C	1.705506	0.765985	0.666784
C118	C	1.122949	0.100701	0.000122
C119	C	1.456282	0.434034	0.333455
C120	C	1.789616	0.767367	0.666789
C121	C	0.904526	0.248226	0.000094
C122	C	1.237860	0.581559	0.333428
C123	C	1.571193	0.914893	0.666761
C124	C	0.911607	0.335007	0.000090
C125	C	1.244941	0.668341	0.333423
C126	C	1.578274	1.001674	0.666757
N127	N	0.900830	0.105277	0.195768
N128	N	1.234164	0.438610	0.529102
N129	N	1.567497	0.771944	0.862435
N130	N	0.900872	0.105293	-0.195564
N131	N	1.234205	0.438627	0.137770
N132	N	1.567539	0.771960	0.471103
C133	C	0.948873	0.052054	0.239041
C134	C	1.282206	0.385388	0.572375
C135	C	1.615540	0.718721	0.905708
C136	C	0.948877	0.052054	0.325588
C137	C	1.282210	0.385387	0.658922
C138	C	1.615543	0.718720	0.992255
C139	C	0.900841	0.105280	0.368861
C140	C	1.234175	0.438613	0.702194
C141	C	1.567508	0.771946	1.035527
C142	C	0.852793	0.158505	0.325582
C143	C	1.186127	0.491838	0.658915
C144	C	1.519460	0.825171	0.992248
C145	C	0.852786	0.158501	0.239036
C146	C	1.186120	0.491834	0.572370
C147	C	1.519453	0.825168	0.905703
C148	C	0.852820	0.158519	0.674610
C149	C	1.186154	0.491853	1.007943
C150	C	1.519487	0.825186	1.341277
C151	C	0.852833	0.158520	0.761162
C152	C	1.186166	0.491854	1.094495
C153	C	1.519499	0.825187	1.427828
C154	C	0.948911	0.052072	0.761162
C155	C	1.282244	0.385405	1.094495
C156	C	1.615577	0.718738	1.427829
C157	C	0.948904	0.052068	0.674617
C158	C	1.282237	0.385402	1.007950
C159	C	1.615570	0.718735	1.341283
C160	C	0.900853	0.105290	0.631345
C161	C	1.234187	0.438623	0.964678
C162	C	1.567520	0.771957	1.298012
C163	C	0.900849	0.105289	0.537501
C164	C	1.234182	0.438623	0.870834
C165	C	1.567515	0.771956	1.204168
C166	C	0.900849	0.105285	0.462703
C167	C	1.234183	0.438618	0.796037
C168	C	1.567516	0.771951	1.129370
H169	H	0.281710	-0.026057	0.000127
H170	H	0.615043	0.307276	0.333460
H171	H	0.948377	0.640609	0.666794
H172	H	0.265612	0.232426	0.000092
H173	H	0.598945	0.565760	0.333425
H174	H	0.932279	0.899093	0.666759
Cl175	Cl	0.102772	0.261324	0.000098
Cl176	Cl	0.436106	0.594657	0.333432
Cl177	Cl	0.769439	0.927990	0.666765
H178	H	0.663351	0.238994	0.000064
H179	H	0.996684	0.572327	0.333397
H180	H	1.330018	0.905661	0.666730
Cl181	Cl	0.520549	-0.053690	0.000113
Cl182	Cl	0.853882	0.279643	0.333446
Cl183	Cl	1.187216	0.612977	0.666779
H184	H	0.987992	0.008715	0.203814
H185	H	1.321326	0.342048	0.537148
H186	H	1.654659	0.675382	0.870481
H187	H	0.788233	-0.640268	0.000085
H188	H	1.121566	-0.306935	0.333418
H189	H	1.454900	0.026399	0.666752
H190	H	0.519986	0.236627	0.000078
H191	H	0.853319	0.569960	0.333411
H192	H	1.186653	0.903294	0.666745
H193	H	0.765478	-0.114855	0.000080
H194	H	1.098811	0.218478	0.333413
H195	H	1.432145	0.551812	0.666746
H196	H	0.990079	-0.393068	0.000086
H197	H	1.323412	-0.059735	0.333420
H198	H	1.656745	0.273598	0.666753
Cl199	Cl	0.698927	-0.050748	0.000100
Cl200	Cl	1.032261	0.282585	0.333434
Cl201	Cl	1.365594	0.615918	0.666767
H202	H	0.138344	-0.028422	0.000128
H203	H	0.471678	0.304911	0.333461
H204	H	0.805011	0.638245	0.666795
H205	H	1.013460	-0.149159	0.000131
H206	H	1.346794	0.184175	0.333464
H207	H	1.680127	0.517508	0.666797
Cl208	Cl	0.779871	-0.410233	0.000070
Cl209	Cl	1.113204	-0.076900	0.333404
Cl210	Cl	1.446538	0.256433	0.666737
Cl211	Cl	1.009273	-0.014857	0.379990
Cl212	Cl	1.342607	0.318477	0.713324
Cl213	Cl	1.675940	0.651810	1.046657
Cl214	Cl	1.009295	-0.014844	0.620220
Cl215	Cl	1.342629	0.318489	0.953553
Cl216	Cl	1.675962	0.651823	1.286887
Cl217	Cl	0.771516	-0.470106	0.000060
Cl218	Cl	1.104849	-0.136773	0.333393
Cl219	Cl	1.438183	0.196561	0.666726
H220	H	1.001381	-0.297077	0.000116
H221	H	1.334714	0.036256	0.333450
H222	H	1.668047	0.369590	0.666783
H223	H	1.048294	-0.526642	0.000120
H224	H	1.381627	-0.193309	0.333453
H225	H	1.714961	0.140024	0.666787
H226	H	1.036213	-0.674572	0.000114
H227	H	1.369546	-0.341239	0.333447
H228	H	1.702880	-0.007906	0.666781
H229	H	0.753404	-0.262788	0.000070
H230	H	1.086737	0.070546	0.333403
H231	H	1.420071	0.403879	0.666736
H232	H	0.988034	0.008733	0.796403
H233	H	1.321367	0.342066	1.129736
H234	H	1.654700	0.675400	1.463070
Cl235	Cl	0.792384	0.225410	0.184637
Cl236	Cl	1.125718	0.558743	0.517970
Cl237	Cl	1.459051	0.892076	0.851303
Cl238	Cl	0.792440	0.225437	0.815561
Cl239	Cl	1.125773	0.558770	1.148894
Cl240	Cl	1.459106	0.892104	1.482227
H241	H	0.813698	0.201856	0.639385
H242	H	1.147031	0.535189	0.972718
H243	H	1.480364	0.868522	1.306052
Cl244	Cl	0.792401	0.225415	0.379980
Cl245	Cl	1.125734	0.558748	0.713313
Cl246	Cl	1.459068	0.892082	1.046646
