data_functionalizedCrystal
_audit_creation_method	'MofGen! by Chris Wilmer'
_symmetry_space_group_name_H-M	'P1'
_symmetry_Int_Tables_number	1
_symmetry_cell_setting	triclinic
loop_
_symmetry_equiv_pos_as_xyz
  x,y,z
_cell_length_a	13.897449
_cell_length_b	10.686285
_cell_length_c	10.686551
_cell_angle_alpha	80.915481
_cell_angle_beta	85.604174
_cell_angle_gamma	85.632943
loop_
_atom_site_label
_atom_site_type_symbol
_atom_site_fract_x
_atom_site_fract_y
_atom_site_fract_z
Zn1	Zn	1.541007	-0.450121	-0.679016
Zn2	Zn	1.540929	-0.678701	-0.450513
Zn3	Zn	1.368204	-0.466480	-0.466777
Zn4	Zn	1.391196	-0.662322	-0.662716
O5	O	1.460334	-0.564406	-0.564756
O6	O	1.675980	-0.480451	-0.648720
O7	O	1.508362	-0.664250	-0.275040
O8	O	1.381537	-0.286687	-0.508558
O9	O	1.675923	-0.648388	-0.480840
O10	O	1.508495	-0.274669	-0.664490
O11	O	1.381461	-0.508332	-0.286989
O12	O	1.236271	-0.492450	-0.492753
O13	O	1.420723	-0.620473	-0.842509
O14	O	1.253163	-0.636335	-0.636709
O15	O	1.530789	-0.464569	-0.854484
O16	O	1.530656	-0.854151	-0.465035
O17	O	1.420648	-0.842117	-0.620939
C18	C	1.478166	-0.894187	-0.539481
C19	C	1.485885	-1.035266	-0.528711
C20	C	1.209717	-0.564391	-0.564728
C21	C	1.102505	-0.564413	-0.564744
C22	C	0.906212	-0.564415	-0.564777
C23	C	1.015443	-0.564410	-0.564755
C24	C	1.711930	-0.564422	-0.564784
C25	C	1.819145	-0.564428	-0.564796
C26	C	1.478330	-0.538869	-0.895842
C27	C	1.485998	-0.527987	-1.036931
C28	C	1.442460	-0.233335	-0.590156
C29	C	1.434843	-0.092252	-0.600981
C30	C	1.442459	-0.589752	-0.234964
C31	C	1.434958	-0.600276	-0.093903
H32	H	1.385239	-1.033112	-0.671095
H33	H	1.535486	-1.094415	-0.458585
H34	H	1.385396	-0.670495	-1.034742
H35	H	1.535571	-0.457773	-1.096098
