data_functionalizedCrystal
_audit_creation_method	'MofGen! by Chris Wilmer'
_symmetry_space_group_name_H-M	'P1'
_symmetry_Int_Tables_number	1
_symmetry_cell_setting	triclinic
loop_
_symmetry_equiv_pos_as_xyz
  x,y,z
_cell_length_a	11.792241
_cell_length_b	10.723024
_cell_length_c	9.198806
_cell_angle_alpha	89.996352
_cell_angle_beta	89.998200
_cell_angle_gamma	95.669358
loop_
_atom_site_label
_atom_site_type_symbol
_atom_site_fract_x
_atom_site_fract_y
_atom_site_fract_z
O1	O	-0.159192	1.656767	-0.120865
O2	O	0.340808	2.156767	0.379135
O3	O	-0.174430	1.293574	-0.120869
O4	O	0.325570	1.793574	0.379131
O5	O	-0.001660	1.483984	-0.120876
O6	O	0.498340	1.983984	0.379124
O7	O	-0.331962	1.466357	-0.120858
O8	O	0.168038	1.966357	0.379142
O9	O	-0.001659	1.483969	0.120909
O10	O	0.498341	1.983969	0.620909
O11	O	-0.174430	1.293559	0.120916
O12	O	0.325570	1.793559	0.620916
O13	O	-0.159192	1.656751	0.120920
O14	O	0.340808	2.156751	0.620920
Cu15	Cu	-0.166811	1.475154	0.142995
Cu16	Cu	0.333189	1.975154	0.642995
Cu17	Cu	-0.166811	1.475172	-0.142944
Cu18	Cu	0.333189	1.975172	0.357056
O19	O	-0.331962	1.466341	0.120927
O20	O	0.168038	1.966341	0.620927
C21	C	-0.173321	1.247070	0.000023
C22	C	0.326679	1.747070	0.500023
C23	C	-0.170003	1.108524	0.000021
C24	C	0.329997	1.608524	0.500021
C25	C	-0.266676	1.033286	0.000025
C26	C	0.233324	1.533286	0.500025
C27	C	-0.263249	0.890091	0.000023
C28	C	0.236751	1.390091	0.500023
C29	C	-0.374255	1.467456	0.000036
C30	C	0.125745	1.967456	0.500036
C31	C	-0.500276	1.470770	0.000043
C32	C	-0.000276	1.970770	0.500043
C33	C	-0.731002	1.476865	0.000006
C34	C	-0.231002	1.976865	0.500006
C35	C	-0.602609	1.473478	0.000026
C36	C	-0.102609	1.973478	0.500026
C37	C	0.040634	1.482869	0.000011
C38	C	0.540634	1.982869	0.500011
C39	C	0.166655	1.479555	-0.000004
C40	C	0.666655	1.979555	0.499996
C41	C	-0.160301	1.703256	0.000025
C42	C	0.339699	2.203256	0.500025
C43	C	-0.163619	1.841801	0.000017
C44	C	0.336381	2.341801	0.500017
N45	N	-0.166810	1.475150	0.344109
N46	N	0.333190	1.975150	0.844109
N47	N	-0.166803	1.475185	-0.344058
N48	N	0.333197	1.975185	0.155942
C49	C	-0.093948	1.555099	0.416303
C50	C	0.406052	2.055099	0.916303
C51	C	-0.093944	1.555118	0.583715
C52	C	0.406056	2.055118	1.083715
H53	H	-0.346009	0.825440	0.000021
H54	H	0.153991	1.325440	0.500021
H55	H	-0.031569	1.623570	0.645799
H56	H	0.468431	2.123570	1.145799
O57	O	-0.241338	1.393474	0.582122
O58	O	0.258662	1.893474	1.082122
C59	C	-0.309060	1.319135	0.681795
C60	C	0.190940	1.819135	1.181795
H61	H	-0.310714	1.370244	0.790322
H62	H	0.189286	1.870244	1.290322
H63	H	-0.399538	1.301010	0.637715
H64	H	0.100462	1.801010	1.137715
H65	H	-0.271691	1.226038	0.697946
H66	H	0.228309	1.726038	1.197946
O67	O	-0.241071	1.393452	0.418379
O68	O	0.258929	1.893452	0.918379
C69	C	-0.179788	1.315913	0.506406
C70	C	0.320212	1.815913	1.006406
H71	H	-0.091265	1.364778	0.529040
H72	H	0.408735	1.864778	1.029040
H73	H	-0.226952	1.296730	0.613509
H74	H	0.273048	1.796730	1.113509
H75	H	-0.171593	1.223532	0.447855
H76	H	0.328407	1.723532	0.947855
H77	H	-0.031567	1.623528	0.354174
H78	H	0.468433	2.123528	0.854174
H79	H	-0.351978	1.074882	0.000038
H80	H	0.148022	1.574882	0.500038
O81	O	-0.068135	1.059119	0.000077
O82	O	0.431865	1.559119	0.500077
C83	C	0.021086	1.156878	0.000032
C84	C	0.521086	1.656878	0.500032
H85	H	-0.011304	1.245572	0.045811
H86	H	0.488696	1.745572	0.545811
H87	H	0.094184	1.129068	0.070222
H88	H	0.594184	1.629068	0.570222
H89	H	0.052527	1.175044	-0.115967
H90	H	0.552527	1.675044	0.384033
H91	H	-0.080854	0.906445	0.000004
H92	H	0.419146	1.406445	0.500004
