data_functionalizedCrystal
_audit_creation_method	'MofGen! by Chris Wilmer'
_symmetry_space_group_name_H-M	'P1'
_symmetry_Int_Tables_number	1
_symmetry_cell_setting	triclinic
loop_
_symmetry_equiv_pos_as_xyz
  x,y,z
_cell_length_a	14.853566
_cell_length_b	14.853567
_cell_length_c	13.930277
_cell_angle_alpha	89.999243
_cell_angle_beta	89.995631
_cell_angle_gamma	83.634672
loop_
_atom_site_label
_atom_site_type_symbol
_atom_site_fract_x
_atom_site_fract_y
_atom_site_fract_z
O1	O	1.196369	0.117698	-0.079759
O2	O	1.696369	0.617698	0.420241
O3	O	0.933909	0.131721	-0.079774
O4	O	1.433909	0.631721	0.420226
O5	O	1.072150	-0.006520	-0.079769
O6	O	1.572150	0.493480	0.420231
O7	O	1.058129	0.255939	-0.079764
O8	O	1.558129	0.755939	0.420236
O9	O	1.072131	-0.006523	0.079893
O10	O	1.572131	0.493477	0.579893
O11	O	0.933890	0.131718	0.079888
O12	O	1.433890	0.631718	0.579888
O13	O	1.196350	0.117695	0.079903
O14	O	1.696350	0.617695	0.579903
Zn15	Zn	1.065117	0.124706	0.105245
Zn16	Zn	1.565117	0.624706	0.605245
Zn17	Zn	1.065142	0.124710	-0.105116
Zn18	Zn	1.565142	0.624710	0.394884
O19	O	1.058109	0.255936	0.079898
O20	O	1.558109	0.755936	0.579898
C21	C	0.900311	0.131084	0.000055
C22	C	1.400311	0.631084	0.500055
C23	C	0.800227	0.129181	0.000049
C24	C	1.300227	0.629181	0.500049
C25	C	0.377053	0.121132	-0.086966
C26	C	0.877053	0.621132	0.413034
C27	C	0.377053	0.121129	0.087103
C28	C	0.877053	0.621129	0.587103
C29	C	0.471087	0.122916	0.087101
C30	C	0.971087	0.622916	0.587101
C31	C	0.518108	0.123813	0.000063
C32	C	1.018108	0.623813	0.500063
C33	C	0.471095	0.122922	-0.086972
C34	C	0.971095	0.622922	0.413028
C35	C	0.518106	0.123817	0.174134
C36	C	1.018106	0.623817	0.674134
C37	C	0.612146	0.125605	0.174134
C38	C	1.112146	0.625605	0.674134
C39	C	0.659170	0.126495	0.087095
C40	C	1.159170	0.626495	0.587095
C41	C	0.612151	0.125603	0.000057
C42	C	1.112151	0.625603	0.500057
C43	C	0.659172	0.126499	-0.086980
C44	C	1.159172	0.626499	0.413020
C45	C	0.612156	0.125601	-0.174019
C46	C	1.112156	0.625601	0.325981
C47	C	0.518119	0.123812	-0.174010
C48	C	1.018119	0.623812	0.325990
C49	C	0.753206	0.128284	0.087086
C50	C	1.253206	0.628284	0.587086
C51	C	0.753214	0.128290	-0.086986
C52	C	1.253214	0.628290	0.413014
C53	C	1.071505	-0.040111	0.000059
C54	C	1.571505	0.459889	0.500059
C55	C	1.069601	-0.140194	0.000051
C56	C	1.569601	0.359806	0.500051
C57	C	0.979435	-0.552728	0.000064
C58	C	1.479435	-0.052728	0.500064
C59	C	1.143668	-0.574009	0.000073
C60	C	1.643668	-0.074009	0.500073
C61	C	1.145458	-0.479976	0.000067
C62	C	1.645458	0.020024	0.500067
C63	C	1.064236	-0.422313	0.000061
C64	C	1.564236	0.077687	0.500061
C65	C	0.981223	-0.458685	0.000061
C66	C	1.481223	0.041315	0.500061
C67	C	1.228470	-0.443597	0.000078
C68	C	1.728470	0.056403	0.500078
C69	C	1.230263	-0.349558	0.000073
C70	C	1.730263	0.150442	0.500073
C71	C	1.149040	-0.291894	0.000060
C72	C	1.649040	0.208106	0.500060
C73	C	1.066023	-0.328271	0.000059
C74	C	1.566023	0.171729	0.500059
C75	C	0.984801	-0.270608	0.000053
C76	C	1.484801	0.229392	0.500053
C77	C	0.901784	-0.306984	0.000045
C78	C	1.401784	0.193016	0.500045
C79	C	0.899999	-0.401021	0.000048
C80	C	1.399999	0.098979	0.500048
C81	C	1.150824	-0.197856	0.000057
C82	C	1.650824	0.302144	0.500057
C83	C	0.986588	-0.176566	0.000050
C84	C	1.486588	0.323434	0.500050
C85	C	1.229948	0.118332	0.000072
C86	C	1.729948	0.618332	0.500072
C87	C	1.330032	0.120235	0.000071
C88	C	1.830032	0.620235	0.500071
C89	C	1.058754	0.289526	0.000068
C90	C	1.558754	0.789526	0.500068
C91	C	1.060658	0.389610	0.000070
C92	C	1.560658	0.889610	0.500070
N93	N	1.065106	0.124703	0.248811
N94	N	1.565106	0.624703	0.748811
N95	N	1.065160	0.124706	-0.248682
N96	N	1.565160	0.624706	0.251318
C97	C	1.003927	0.185899	0.701078
C98	C	1.503927	0.685899	1.201078
C99	C	1.126382	0.063514	0.701052
C100	C	1.626382	0.563514	1.201052
C101	C	1.126372	0.063511	0.600556
C102	C	1.626372	0.563511	1.100556
C103	C	1.065139	0.124704	0.550317
C104	C	1.565139	0.624704	1.050317
C105	C	1.003916	0.185900	0.600573
C106	C	1.503916	0.685900	1.100573
C107	C	1.187599	0.002322	0.550292
C108	C	1.687599	0.502322	1.050292
C109	C	1.187592	0.002318	0.449791
C110	C	1.687592	0.502318	0.949791
C111	C	1.126353	0.063507	0.399549
C112	C	1.626353	0.563507	0.899549
C113	C	1.065128	0.124705	0.449812
C114	C	1.565128	0.624705	0.949812
C115	C	1.003895	0.185898	0.399572
C116	C	1.503895	0.685898	0.899572
C117	C	0.942664	0.247092	0.449833
C118	C	1.442664	0.747092	0.949833
C119	C	0.942678	0.247089	0.550332
C120	C	1.442678	0.747089	1.050332
C121	C	1.126339	0.063510	0.299050
C122	C	1.626339	0.563510	0.799050
C123	C	1.003884	0.185899	0.299067
C124	C	1.503884	0.685899	0.799067
H125	H	0.650452	0.126337	-0.244885
H126	H	1.150452	0.626337	0.255115
H127	H	1.237458	-0.047495	0.591201
H128	H	1.737458	0.452505	1.091201
H129	H	1.218415	-0.168244	0.000070
H130	H	1.718415	0.331756	0.500070
H131	H	1.237447	-0.047510	0.408874
H132	H	1.737447	0.452490	0.908874
Br133	Br	0.817009	0.129514	0.205200
Br134	Br	1.317009	0.629514	0.705200
H135	H	1.297861	-0.319950	0.000079
H136	H	1.797861	0.180050	0.500079
H137	H	0.892811	0.296920	0.408917
H138	H	1.392811	0.796920	0.908917
H139	H	0.650419	0.126335	0.245007
H140	H	1.150419	0.626335	0.745007
Br141	Br	0.787344	-0.450393	0.000031
Br142	Br	1.287344	0.049607	0.500031
H143	H	0.911845	-0.582349	0.000053
H144	H	1.411845	-0.082349	0.500053
H145	H	0.835653	-0.260023	0.000046
H146	H	1.335653	0.239977	0.500046
Br147	Br	1.209490	-0.019523	0.769230
Br148	Br	1.709490	0.480477	1.269230
H149	H	1.176196	0.013690	0.258133
H150	H	1.676196	0.513690	0.758133
Br151	Br	1.253894	-0.652265	0.000102
Br152	Br	1.753894	-0.152265	0.500102
Br153	Br	0.859587	0.330133	0.618544
Br154	Br	1.359587	0.830133	1.118544
Br155	Br	1.338693	-0.521855	0.000112
Br156	Br	1.838693	-0.021855	0.500112
Br157	Br	0.920770	0.268944	0.230893
Br158	Br	1.420770	0.768944	0.730893
Br159	Br	0.313237	0.119926	0.205220
Br160	Br	0.813237	0.619926	0.705220
H161	H	0.791493	0.129017	-0.157863
H162	H	1.291493	0.629017	0.342137
Br163	Br	0.454287	0.122615	0.292248
Br164	Br	0.954287	0.622615	0.792248
Br165	Br	0.876351	-0.098316	0.000031
Br166	Br	1.376351	0.401684	0.500031
Br167	Br	0.454312	0.122551	-0.292124
Br168	Br	0.954312	0.622551	0.207876
Br169	Br	0.313254	0.119880	-0.205085
Br170	Br	0.813254	0.619880	0.294915
H171	H	0.954071	0.235720	0.742003
H172	H	1.454071	0.735720	1.242003
