data_functionalizedCrystal
_audit_creation_method	'MofGen! by Chris Wilmer'
_symmetry_space_group_name_H-M	'P1'
_symmetry_Int_Tables_number	1
_symmetry_cell_setting	triclinic
loop_
_symmetry_equiv_pos_as_xyz
  x,y,z
_cell_length_a	13.033293
_cell_length_b	12.827892
_cell_length_c	12.827885
_cell_angle_alpha	89.970214
_cell_angle_beta	82.790076
_cell_angle_gamma	97.185404
loop_
_atom_site_label
_atom_site_type_symbol
_atom_site_fract_x
_atom_site_fract_y
_atom_site_fract_z
Zn1	Zn	1.597787	-0.213254	-0.794158
Zn2	Zn	1.847787	0.036746	-0.544158
Zn3	Zn	2.097787	0.286746	-0.294158
Zn4	Zn	2.347787	0.536746	-0.044158
Zn5	Zn	1.597681	-0.388045	-0.619405
Zn6	Zn	1.847681	-0.138045	-0.369405
Zn7	Zn	2.097681	0.111955	-0.119405
Zn8	Zn	2.347681	0.361955	0.130595
Zn9	Zn	1.423015	-0.235480	-0.597193
Zn10	Zn	1.673015	0.014520	-0.347193
Zn11	Zn	1.923015	0.264520	-0.097193
Zn12	Zn	2.173015	0.514520	0.152807
Zn13	Zn	1.423001	-0.410131	-0.771878
Zn14	Zn	1.673001	-0.160131	-0.521878
Zn15	Zn	1.923001	0.089869	-0.271878
Zn16	Zn	2.173001	0.339869	-0.021878
O17	O	1.510371	-0.311727	-0.695658
O18	O	1.760371	-0.061727	-0.445658
O19	O	2.010371	0.188273	-0.195658
O20	O	2.260371	0.438273	0.054342
O21	O	1.744019	-0.217896	-0.789597
O22	O	1.994019	0.032104	-0.539597
O23	O	2.244019	0.282104	-0.289597
O24	O	2.494019	0.532104	-0.039597
O25	O	1.574473	-0.367865	-0.470217
O26	O	1.824473	-0.117865	-0.220217
O27	O	2.074473	0.132135	0.029783
O28	O	2.324473	0.382135	0.279783
O29	O	1.446250	-0.086289	-0.623349
O30	O	1.696250	0.163711	-0.373349
O31	O	1.946250	0.413711	-0.123349
O32	O	2.196250	0.663711	0.126651
O33	O	1.743942	-0.346314	-0.661206
O34	O	1.993942	-0.096314	-0.411206
O35	O	2.243942	0.153686	-0.161206
O36	O	2.493942	0.403686	0.088794
O37	O	1.574653	-0.069960	-0.768059
O38	O	1.824653	0.180040	-0.518059
O39	O	2.074653	0.430040	-0.268059
O40	O	2.324653	0.680040	-0.018059
O41	O	1.446147	-0.255777	-0.453898
O42	O	1.696147	-0.005777	-0.203898
O43	O	1.946147	0.244223	0.046102
O44	O	2.196147	0.494223	0.296102
O45	O	1.276767	-0.277193	-0.601745
O46	O	1.526767	-0.027193	-0.351745
O47	O	1.776767	0.222807	-0.101745
O48	O	2.026767	0.472807	0.148255
O49	O	1.446224	-0.383956	-0.921074
O50	O	1.696224	-0.133956	-0.671074
O51	O	1.946224	0.116044	-0.421074
O52	O	2.196224	0.366044	-0.171074
O53	O	1.276756	-0.405508	-0.730085
O54	O	1.526756	-0.155508	-0.480085
O55	O	1.776756	0.094492	-0.230085
O56	O	2.026756	0.344492	0.019915
O57	O	1.574639	-0.239311	-0.937443
O58	O	1.824639	0.010689	-0.687443
O59	O	2.074639	0.260689	-0.437443
O60	O	2.324639	0.510689	-0.187443
O61	O	1.574459	-0.537217	-0.639602
O62	O	1.824459	-0.287217	-0.389602
O63	O	2.074459	-0.037217	-0.139602
O64	O	2.324459	0.212783	0.110398
O65	O	1.446122	-0.553443	-0.751623
O66	O	1.696122	-0.303443	-0.501623
O67	O	1.946122	-0.053443	-0.251623
O68	O	2.196122	0.196557	-0.001623
C69	C	1.510305	-0.583246	-0.695632
C70	C	1.760305	-0.333246	-0.445632
C71	C	2.010305	-0.083246	-0.195632
C72	C	2.260305	0.166754	0.054368
C73	C	1.510373	-0.699390	-0.695667
C74	C	1.760373	-0.449390	-0.445667
C75	C	2.010373	-0.199390	-0.195667
C76	C	2.260373	0.050610	0.054333
C77	C	1.238841	-0.346159	-0.661088
C78	C	1.488841	-0.096159	-0.411088
C79	C	1.738841	0.153841	-0.161088
C80	C	1.988841	0.403841	0.088912
C81	C	1.122679	-0.360915	-0.646323
C82	C	1.372679	-0.110915	-0.396323
C83	C	1.622679	0.139085	-0.146323
C84	C	1.872679	0.389085	0.103677
C85	C	1.573954	-0.743101	-0.640316
C86	C	1.823954	-0.493101	-0.390316
C87	C	2.073954	-0.243101	-0.140316
C88	C	2.323954	0.006899	0.109684
C89	C	1.574025	-0.863143	-0.640351
C90	C	1.824025	-0.613143	-0.390351
C91	C	2.074025	-0.363143	-0.140351
C92	C	2.324025	-0.113143	0.109649
C93	C	1.070929	-0.304053	-0.703364
C94	C	1.320929	-0.054053	-0.453364
C95	C	1.570929	0.195947	-0.203364
C96	C	1.820929	0.445947	0.046636
C97	C	0.950870	-0.319302	-0.688105
C98	C	1.200870	-0.069302	-0.438105
C99	C	1.450870	0.180698	-0.188105
C100	C	1.700870	0.430698	0.061895
C101	C	1.782961	-0.277162	-0.730365
C102	C	2.032961	-0.027162	-0.480365
C103	C	2.282961	0.222838	-0.230365
C104	C	2.532961	0.472838	0.019635
C105	C	1.899123	-0.262432	-0.745154
C106	C	2.149123	-0.012432	-0.495154
C107	C	2.399123	0.237568	-0.245154
C108	C	2.649123	0.487568	0.004846
C109	C	1.510442	-0.311618	-0.968238
C110	C	1.760442	-0.061618	-0.718238
C111	C	2.010442	0.188382	-0.468238
C112	C	2.260442	0.438382	-0.218238
C113	C	1.510472	-0.311571	-1.084395
C114	C	1.760472	-0.061571	-0.834395
C115	C	2.010472	0.188429	-0.584395
C116	C	2.260472	0.438429	-0.334395
C117	C	1.510465	-0.039145	-0.695712
C118	C	1.760465	0.210855	-0.445712
C119	C	2.010465	0.460855	-0.195712
C120	C	2.260465	0.710855	0.054288
C121	C	1.510505	0.077013	-0.695734
C122	C	1.760505	0.327013	-0.445734
C123	C	2.010505	0.577013	-0.195734
C124	C	2.260505	0.827013	0.054266
C125	C	1.574023	-0.239983	-1.144280
C126	C	1.824023	0.010017	-0.894280
C127	C	2.074023	0.260017	-0.644280
C128	C	2.324023	0.510017	-0.394280
C129	C	1.574056	-0.239934	-1.264335
C130	C	1.824056	0.010066	-1.014335
C131	C	2.074056	0.260066	-0.764335
C132	C	2.324056	0.510066	-0.514335
C133	C	1.510360	-0.311753	-0.424147
C134	C	1.760360	-0.061753	-0.174147
C135	C	2.010360	0.188247	0.075853
C136	C	2.260360	0.438247	0.325853
C137	C	1.510532	-0.311480	-0.308016
C138	C	1.760532	-0.061480	-0.058016
C139	C	2.010532	0.188520	0.191984
C140	C	2.260532	0.438520	0.441984
H141	H	1.628339	-0.691656	-0.592905
H142	H	1.878339	-0.441656	-0.342905
H143	H	2.128339	-0.191656	-0.092905
H144	H	2.378339	0.058344	0.157095
Cl145	Cl	1.139745	-0.211456	-0.796202
Cl146	Cl	1.389745	0.038544	-0.546202
Cl147	Cl	1.639745	0.288544	-0.296202
Cl148	Cl	1.889745	0.538544	-0.046202
Cl149	Cl	1.426450	-0.864917	-0.768898
Cl150	Cl	1.676450	-0.614917	-0.518898
Cl151	Cl	1.926450	-0.364917	-0.268898
Cl152	Cl	2.176450	-0.114917	-0.018898
H153	H	0.943695	-0.202451	-0.805285
H154	H	1.193695	0.047549	-0.555285
H155	H	1.443695	0.297549	-0.305285
H156	H	1.693695	0.547549	-0.055285
Cl157	Cl	1.426529	-0.406119	-1.228565
Cl158	Cl	1.676529	-0.156119	-0.978565
Cl159	Cl	1.926529	0.093881	-0.728565
Cl160	Cl	2.176529	0.343881	-0.478565
H161	H	1.628467	-0.178647	-1.315805
H162	H	1.878467	0.071353	-1.065805
H163	H	2.128467	0.321353	-0.815805
H164	H	2.378467	0.571353	-0.565805
H165	H	0.906296	-0.379274	-0.627968
H166	H	1.156296	-0.129274	-0.377968
H167	H	1.406296	0.120726	-0.127968
H168	H	1.656296	0.370726	0.122032
Cl169	Cl	1.426498	-0.406140	-1.142451
Cl170	Cl	1.676498	-0.156140	-0.892451
Cl171	Cl	1.926498	0.093860	-0.642451
Cl172	Cl	2.176498	0.343860	-0.392451
Cl173	Cl	1.053863	-0.453502	-0.553476
Cl174	Cl	1.303863	-0.203502	-0.303476
Cl175	Cl	1.553863	0.046498	-0.053476
Cl176	Cl	1.803863	0.296498	0.196524
H177	H	1.628456	-0.900765	-0.592960
H178	H	1.878456	-0.650765	-0.342960
H179	H	2.128456	-0.400765	-0.092960
H180	H	2.378456	-0.150765	0.157040
H181	H	1.455997	-0.750837	-0.743087
H182	H	1.705997	-0.500837	-0.493087
H183	H	1.955997	-0.250837	-0.243087
H184	H	2.205997	-0.000837	0.006913
H185	H	1.628403	-0.178728	-1.106670
H186	H	1.878403	0.071272	-0.856670
H187	H	2.128403	0.321272	-0.606670
H188	H	2.378403	0.571272	-0.356670
