data_functionalizedCrystal
_audit_creation_method	'MofGen! by Chris Wilmer'
_symmetry_space_group_name_H-M	'P1'
_symmetry_Int_Tables_number	1
_symmetry_cell_setting	triclinic
loop_
_symmetry_equiv_pos_as_xyz
  x,y,z
_cell_length_a	11.026607
_cell_length_b	8.140239
_cell_length_c	9.065218
_cell_angle_alpha	90.003526
_cell_angle_beta	96.800951
_cell_angle_gamma	89.999534
loop_
_atom_site_label
_atom_site_type_symbol
_atom_site_fract_x
_atom_site_fract_y
_atom_site_fract_z
O1	O	1.616966	0.136603	0.619589
O2	O	1.262884	0.136606	0.549036
O3	O	1.447244	0.136601	0.371495
O4	O	1.432606	0.136608	0.797130
O5	O	1.447242	-0.136626	0.371483
O6	O	1.262883	-0.136621	0.549024
O7	O	1.616964	-0.136625	0.619577
Zn8	Zn	1.439923	-0.180003	0.584299
Zn9	Zn	1.439925	0.179985	0.584314
O10	O	1.432605	-0.136619	0.797118
C11	C	1.445836	-0.000010	0.316152
C12	C	1.441630	-0.000002	0.151260
C13	C	1.217530	-0.000007	0.536015
C14	C	1.082389	-0.000006	0.497214
C15	C	1.009761	-0.000003	0.604348
C16	C	0.870086	-0.000001	0.564249
C17	C	1.662319	-0.000008	0.632598
C18	C	1.797460	0.000001	0.671399
N19	N	1.439927	0.425668	0.584314
N20	N	1.439931	-0.425686	0.584289
C21	C	1.434012	-0.000005	0.852461
C22	C	1.438219	-0.000002	1.017353
H23	H	0.828866	0.000039	0.442833
H24	H	1.050987	-0.000010	0.725756
H25	H	0.838678	-0.000007	0.792815
H26	H	1.041163	0.000035	0.375807
