data_functionalizedCrystal
_audit_creation_method	'MofGen! by Chris Wilmer'
_symmetry_space_group_name_H-M	'P1'
_symmetry_Int_Tables_number	1
_symmetry_cell_setting	triclinic
loop_
_symmetry_equiv_pos_as_xyz
  x,y,z
_cell_length_a	10.654545
_cell_length_b	14.044190
_cell_length_c	9.130313
_cell_angle_alpha	89.990619
_cell_angle_beta	89.996934
_cell_angle_gamma	88.837428
loop_
_atom_site_label
_atom_site_type_symbol
_atom_site_fract_x
_atom_site_fract_y
_atom_site_fract_z
O1	O	1.681234	0.133211	-0.121803
O2	O	2.181234	0.633211	0.378197
O3	O	1.317031	0.145909	-0.121811
O4	O	1.817031	0.645909	0.378189
O5	O	1.493661	0.001540	-0.121778
O6	O	1.993661	0.501540	0.378222
O7	O	1.504604	0.277581	-0.121836
O8	O	2.004604	0.777581	0.378164
O9	O	1.493647	0.001535	0.121821
O10	O	1.993647	0.501535	0.621821
O11	O	1.317017	0.145905	0.121788
O12	O	1.817017	0.645905	0.621788
O13	O	1.681220	0.133207	0.121796
O14	O	2.181220	0.633207	0.621796
Cu15	Cu	1.499117	0.139556	0.144034
Cu16	Cu	1.999117	0.639556	0.644034
Cu17	Cu	1.499133	0.139561	-0.144050
Cu18	Cu	1.999133	0.639561	0.355950
O19	O	1.504590	0.277577	0.121763
O20	O	2.004590	0.777577	0.621763
C21	C	1.270132	0.144976	-0.000012
C22	C	1.770132	0.644976	0.499988
C23	C	1.130409	0.142189	-0.000014
C24	C	1.630409	0.642189	0.499986
C25	C	1.064765	0.140875	0.132773
C26	C	1.564765	0.640875	0.632773
C27	C	0.933481	0.138241	0.132774
C28	C	1.433481	0.638241	0.632774
C29	C	0.933495	0.138239	-0.132811
C30	C	1.433495	0.638239	0.367189
C31	C	1.064778	0.140866	-0.132810
C32	C	1.564778	0.640866	0.367190
C33	C	1.488867	-0.033808	0.000025
C34	C	1.988867	0.466192	0.500025
C35	C	1.474588	-0.139128	0.000038
C36	C	1.974588	0.360872	0.500038
C37	C	1.549753	-0.388921	-0.000018
C38	C	2.049753	0.111079	0.499982
C39	C	1.448503	-0.331957	-0.000010
C40	C	1.948503	0.168043	0.499990
C41	C	1.463020	-0.224657	0.000017
C42	C	1.963020	0.275343	0.500017
C43	C	1.535238	-0.496231	-0.000045
C44	C	2.035238	0.003769	0.499955
C45	C	1.728119	0.134141	-0.000006
C46	C	2.228119	0.634141	0.499994
C47	C	1.867842	0.136927	-0.000014
C48	C	2.367842	0.636927	0.499986
C49	C	1.509384	0.312925	-0.000044
C50	C	2.009384	0.812925	0.499956
C51	C	1.523663	0.418244	-0.000066
C52	C	2.023663	0.918244	0.499934
N53	N	1.499115	0.139552	0.346657
N54	N	1.999115	0.639552	0.846657
N55	N	1.499145	0.139557	-0.346672
N56	N	1.999145	0.639557	0.153328
C57	C	1.577359	0.075652	0.423323
C58	C	2.077359	0.575652	0.923323
C59	C	1.577371	0.075652	0.576660
C60	C	2.077371	0.575652	1.076660
C61	C	1.420893	0.203460	0.576651
C62	C	1.920893	0.703460	1.076651
C63	C	1.420875	0.203454	0.423317
C64	C	1.920875	0.703454	0.923317
H65	H	0.880039	0.137171	0.240902
H66	H	1.380039	0.637171	0.740902
Br67	Br	0.844419	0.136415	-0.313026
Br68	Br	1.344419	0.636415	0.186974
H69	H	1.118226	0.141934	-0.240948
H70	H	1.618226	0.641934	0.259052
Br71	Br	1.314670	0.290174	0.319257
Br72	Br	1.814670	0.790174	0.819257
H73	H	1.641082	0.023618	0.639078
H74	H	2.141082	0.523618	1.139078
H75	H	1.350917	-0.363772	-0.000021
H76	H	1.850917	0.136228	0.499979
H77	H	1.647332	-0.357107	-0.000001
H78	H	2.147332	0.142893	0.499999
Br79	Br	1.683538	-0.011075	0.319290
Br80	Br	2.183538	0.488925	0.819290
H81	H	1.118198	0.141952	0.240904
H82	H	1.618198	0.641952	0.740904
Br83	Br	1.314716	0.290184	0.680694
Br84	Br	1.814716	0.790184	1.180694
