data_functionalizedCrystal
_audit_creation_method	'MofGen! by Chris Wilmer'
_symmetry_space_group_name_H-M	'P1'
_symmetry_Int_Tables_number	1
_symmetry_cell_setting	triclinic
loop_
_symmetry_equiv_pos_as_xyz
  x,y,z
_cell_length_a	10.489741
_cell_length_b	17.699083
_cell_length_c	16.776229
_cell_angle_alpha	89.998886
_cell_angle_beta	90.003071
_cell_angle_gamma	96.088906
loop_
_atom_site_label
_atom_site_type_symbol
_atom_site_fract_x
_atom_site_fract_y
_atom_site_fract_z
O1	O	-0.161296	1.005134	-0.066170
O2	O	0.338704	1.505134	0.433830
O3	O	-0.182281	0.784893	-0.066195
O4	O	0.317719	1.284893	0.433805
O5	O	0.013903	0.900025	-0.066184
O6	O	0.513903	1.400025	0.433816
O7	O	-0.357479	0.890002	-0.066182
O8	O	0.142521	1.390002	0.433818
O9	O	0.013915	0.900009	0.066392
O10	O	0.513915	1.400009	0.566392
O11	O	-0.182269	0.784877	0.066381
O12	O	0.317731	1.284877	0.566381
O13	O	-0.161284	1.005118	0.066406
O14	O	0.338716	1.505118	0.566406
Zn15	Zn	-0.171774	0.894995	0.087443
Zn16	Zn	0.328226	1.394995	0.587443
Zn17	Zn	-0.171790	0.895016	-0.087232
Zn18	Zn	0.328210	1.395016	0.412768
O19	O	-0.357467	0.889986	0.066395
O20	O	0.142533	1.389986	0.566395
C21	C	-0.181523	0.756683	0.000089
C22	C	0.318477	1.256683	0.500089
C23	C	-0.179267	0.672650	0.000080
C24	C	0.320733	1.172650	0.500080
C25	C	-0.294422	0.624782	0.000081
C26	C	0.205578	1.124782	0.500081
C27	C	-0.292295	0.545825	0.000091
C28	C	0.207705	1.045825	0.500091
C29	C	-0.175011	0.514737	0.000094
C30	C	0.324989	1.014737	0.500094
C31	C	-0.059847	0.562611	0.000096
C32	C	0.440153	1.062611	0.500096
C33	C	-0.061975	0.641567	0.000091
C34	C	0.438025	1.141567	0.500091
C35	C	-0.051260	0.244192	0.000115
C36	C	0.448740	0.744192	0.500115
C37	C	-0.049140	0.165230	0.000118
C38	C	0.450860	0.665230	0.500118
C39	C	-0.281580	0.148450	0.000115
C40	C	0.218420	0.648450	0.500115
C41	C	-0.283709	0.227406	0.000110
C42	C	0.216291	0.727406	0.500110
C43	C	-0.168545	0.275273	0.000116
C44	C	0.331455	0.775273	0.500116
C45	C	-0.170853	0.360887	0.000106
C46	C	0.329147	0.860887	0.500106
C47	C	-0.172702	0.429124	0.000098
C48	C	0.327298	0.929124	0.500098
C49	C	-0.404991	0.890751	0.000107
C50	C	0.095009	1.390751	0.500107
C51	C	-0.546578	0.893016	0.000109
C52	C	-0.046578	1.393016	0.500109
C53	C	-0.613357	0.966271	0.000111
C54	C	-0.113357	1.466271	0.500111
C55	C	-0.706115	0.931658	0.065474
C56	C	-0.206115	1.431658	0.565474
C57	C	-0.706105	0.931656	-0.065236
C58	C	-0.206105	1.431656	0.434764
C59	C	-0.637471	0.858373	0.065525
C60	C	-0.137471	1.358373	0.565525
C61	C	-0.637451	0.858381	-0.065243
C62	C	-0.137451	1.358381	0.434757
C63	C	-0.730183	0.823715	0.000135
C64	C	-0.230183	1.323715	0.500135
C65	C	0.061427	0.899260	0.000102
C66	C	0.561427	1.399260	0.500102
C67	C	0.203014	0.896995	0.000095
C68	C	0.703014	1.396995	0.500095
C69	C	-0.162042	1.033328	0.000120
C70	C	0.337958	1.533328	0.500120
C71	C	-0.164297	1.117361	0.000124
C72	C	0.335703	1.617361	0.500124
N73	N	-0.171763	0.894987	0.206654
N74	N	0.328237	1.394987	0.706654
N75	N	-0.171791	0.895030	-0.206443
N76	N	0.328209	1.395030	0.293557
C77	C	-0.084928	0.945983	0.248376
C78	C	0.415072	1.445983	0.748376
C79	C	-0.084927	0.945987	0.331829
C80	C	0.415073	1.445987	0.831829
C81	C	-0.171767	0.894998	0.373557
C82	C	0.328233	1.394998	0.873557
C83	C	-0.258606	0.843996	0.331829
C84	C	0.241394	1.343996	0.831829
C85	C	-0.258600	0.843989	0.248379
C86	C	0.241400	1.343989	0.748379
C87	C	-0.258631	0.844024	0.668376
C88	C	0.241369	1.344024	1.168376
C89	C	-0.258633	0.844037	0.751833
C90	C	0.241367	1.344037	1.251833
C91	C	-0.084958	0.946022	0.751826
C92	C	0.415042	1.446022	1.251826
C93	C	-0.084952	0.946015	0.668376
C94	C	0.415048	1.446015	1.168376
C95	C	-0.171786	0.895011	0.626655
C96	C	0.328214	1.395011	1.126655
C97	C	-0.171784	0.895006	0.536167
C98	C	0.328216	1.395006	1.036167
C99	C	-0.171776	0.895006	0.464044
C100	C	0.328224	1.395006	0.964044
H101	H	-0.386067	0.506854	0.000091
H102	H	0.113933	1.006854	0.500091
H103	H	0.042514	0.283156	0.000121
H104	H	0.542514	0.783156	0.500121
H105	H	0.035648	0.537293	0.000110
H106	H	0.535648	1.037293	0.500110
F107	F	0.007470	1.000286	0.623969
F108	F	0.507470	1.500286	1.123969
F109	F	0.060589	0.692511	0.000093
F110	F	0.560589	1.192511	0.500093
F111	F	-0.546996	1.044995	0.000203
F112	F	-0.046996	1.544995	0.500203
F113	F	-0.351018	0.789709	0.203976
F114	F	0.148982	1.289709	0.703976
F115	F	-0.351024	0.789725	0.376241
F116	F	0.148976	1.289725	0.876241
F117	F	-0.408538	0.260487	0.000102
F118	F	0.091462	0.760487	0.500102
F119	F	-0.404149	0.097500	0.000112
F120	F	0.095851	0.597500	0.500112
H121	H	0.046372	0.139922	0.000122
H122	H	0.546372	0.639922	0.500122
F123	F	0.007463	1.000304	0.796235
F124	F	0.507463	1.500304	1.296235
H125	H	-0.014218	0.987507	0.214406
H126	H	0.485782	1.487507	0.714406
H127	H	-0.607208	0.827395	0.120845
H128	H	-0.107208	1.327395	0.620845
H129	H	-0.736543	0.962647	0.120740
H130	H	-0.236543	1.462647	0.620740
F131	F	-0.796240	0.744918	0.000166
F132	F	-0.296240	1.244918	0.500166
F133	F	-0.597631	0.817909	-0.137485
F134	F	-0.097631	1.317909	0.362515
F135	F	-0.351064	0.789764	0.796242
F136	F	0.148936	1.289764	1.296242
F137	F	-0.745859	0.972195	-0.137461
F138	F	-0.245859	1.472195	0.362539
F139	F	0.007493	1.000262	0.376233
F140	F	0.507493	1.500262	0.876233
H141	H	-0.329336	0.802496	0.634414
H142	H	0.170664	1.302496	1.134414
H143	H	-0.389929	0.650088	0.000077
H144	H	0.110071	1.150088	0.500077
