data_functionalizedCrystal
_audit_creation_method	'MofGen! by Chris Wilmer'
_symmetry_space_group_name_H-M	'P1'
_symmetry_Int_Tables_number	1
_symmetry_cell_setting	triclinic
loop_
_symmetry_equiv_pos_as_xyz
  x,y,z
_cell_length_a	15.995350
_cell_length_b	16.992695
_cell_length_c	16.053802
_cell_angle_alpha	87.258926
_cell_angle_beta	92.577622
_cell_angle_gamma	87.080299
loop_
_atom_site_label
_atom_site_type_symbol
_atom_site_fract_x
_atom_site_fract_y
_atom_site_fract_z
O1	O	-1.121056	-0.097771	-0.069359
O2	O	-0.621056	0.402229	0.430641
O3	O	-0.878117	-0.110251	-0.069376
O4	O	-0.378117	0.389749	0.430624
O5	O	-0.998613	0.010132	-0.069361
O6	O	-0.498613	0.510132	0.430639
O7	O	-1.000561	-0.218153	-0.069374
O8	O	-0.500561	0.281847	0.430626
O9	O	-0.991978	0.003533	0.069497
O10	O	-0.491978	0.503533	0.569497
O11	O	-0.871483	-0.116849	0.069482
O12	O	-0.371483	0.383151	0.569482
O13	O	-1.114422	-0.104370	0.069499
O14	O	-0.614422	0.395630	0.569499
Zn15	Zn	-0.991899	-0.111657	0.091537
Zn16	Zn	-0.491899	0.388343	0.591537
Zn17	Zn	-1.000640	-0.102963	-0.091414
Zn18	Zn	-0.500640	0.397037	0.408586
O19	O	-0.993927	-0.224752	0.069484
O20	O	-0.493927	0.275248	0.569484
C21	C	-0.992790	0.036045	0.000068
C22	C	-0.492790	0.536045	0.500068
C23	C	-0.985314	0.123089	0.000067
C24	C	-0.485314	0.623089	0.500067
C25	C	-0.843571	-0.113034	0.000051
C26	C	-0.343571	0.386966	0.500051
C27	C	-0.750517	-0.111487	0.000044
C28	C	-0.250517	0.388513	0.500044
C29	C	-1.148969	-0.101586	0.000071
C30	C	-0.648969	0.398414	0.500071
C31	C	-1.242022	-0.103133	0.000072
C32	C	-0.742022	0.396867	0.500072
C33	C	-0.412397	-0.105932	0.000062
C34	C	0.087603	0.394068	0.500062
C35	C	-0.454079	-0.020213	0.000377
C36	C	0.045921	0.479787	0.500377
C37	C	-0.550888	-0.021745	0.000058
C38	C	-0.050888	0.478255	0.500058
C39	C	-0.580143	-0.108688	0.000054
C40	C	-0.080143	0.391312	0.500054
C41	C	-0.545673	-0.147206	-0.079240
C42	C	-0.045673	0.352794	0.420760
C43	C	-0.448896	-0.145050	-0.079301
C44	C	0.051104	0.354950	0.420699
C45	C	-0.441132	-0.154325	0.078607
C46	C	0.058868	0.345675	0.578607
C47	C	-0.538026	-0.154355	0.079649
C48	C	-0.038026	0.345645	0.579649
C49	C	-0.674945	-0.110249	0.000046
C50	C	-0.174945	0.389751	0.500046
C51	C	-0.317595	-0.104373	0.000064
C52	C	0.182405	0.395627	0.500064
C53	C	-0.999750	-0.250665	0.000054
C54	C	-0.499750	0.249335	0.500054
C55	C	-1.007226	-0.337709	0.000049
C56	C	-0.507226	0.162291	0.500049
N57	N	-0.985940	-0.117590	0.216397
N58	N	-0.485940	0.382410	0.716397
C59	C	-1.057449	0.173329	0.000073
C60	C	-0.557449	0.673329	0.500073
C61	C	-1.050419	0.255116	0.000065
C62	C	-0.550419	0.755116	0.500065
C63	C	-0.971254	0.286661	0.000056
C64	C	-0.471254	0.786661	0.500056
C65	C	-0.899114	0.236415	0.000048
C66	C	-0.399114	0.736415	0.500048
C67	C	-0.906144	0.154630	0.000050
C68	C	-0.406144	0.654630	0.500050
C69	C	-0.942116	0.530260	0.000043
C70	C	-0.442116	1.030260	0.500043
C71	C	-0.935091	0.612051	0.000043
C72	C	-0.435091	1.112051	0.500043
C73	C	-1.086398	0.630747	0.000058
C74	C	-0.586398	1.130747	0.500058
C75	C	-1.093421	0.548959	0.000066
C76	C	-0.593421	1.048959	0.500066
C77	C	-1.021281	0.498720	0.000053
C78	C	-0.521281	0.998720	0.500053
N79	N	-0.964067	0.370260	0.000050
N80	N	-0.464067	0.870260	0.500050
N81	N	-1.028469	0.415123	0.000053
N82	N	-0.528469	0.915123	0.500053
N83	N	-1.006606	-0.097024	-0.216274
N84	N	-0.506606	0.402976	0.283726
C85	C	-1.037232	-0.066386	0.260097
C86	C	-0.537232	0.433614	0.760097
C87	C	-1.033072	-0.070544	0.347504
C88	C	-0.533072	0.429456	0.847504
C89	C	-0.977623	-0.125910	0.391208
C90	C	-0.477623	0.374090	0.891208
C91	C	-0.926325	-0.177117	0.347501
C92	C	-0.426325	0.322883	0.847501
C93	C	-0.930482	-0.172955	0.260097
C94	C	-0.430482	0.327045	0.760097
C95	C	-0.959465	-0.144068	0.652615
C96	C	-0.459465	0.355932	1.152615
C97	C	-0.955314	-0.148228	0.740026
C98	C	-0.455314	0.351772	1.240026
C99	C	-1.062060	-0.041653	0.740022
C100	C	-0.562060	0.458347	1.240022
C101	C	-1.066215	-0.037499	0.652616
C102	C	-0.566215	0.462501	1.152616
C103	C	-1.014914	-0.088703	0.608917
C104	C	-0.514914	0.411297	1.108917
N105	N	-0.973371	-0.130163	0.480551
N106	N	-0.473371	0.369837	0.980551
N107	N	-1.019162	-0.084446	0.519575
N108	N	-0.519162	0.415554	1.019575
H109	H	-0.430547	0.011355	0.057242
H110	H	0.069453	0.511355	0.557242
O111	O	-0.864311	0.476076	0.000050
O112	O	-0.364311	0.976076	0.500050
H113	H	-0.808083	0.511754	0.000059
H114	H	-0.308083	1.011754	0.500059
O115	O	-0.875147	-0.228183	0.212970
O116	O	-0.375147	0.271817	0.712970
H117	H	-0.834134	-0.193249	0.173176
H118	H	-0.334134	0.306751	0.673176
O119	O	-0.570224	-0.231632	-0.083150
O120	O	-0.070224	0.268368	0.416850
H121	H	-0.545104	-0.257477	-0.139717
H122	H	-0.045104	0.242523	0.360283
O123	O	-0.582006	0.018712	0.075347
O124	O	-0.082006	0.518712	0.575347
H125	H	-0.651338	0.017655	0.075196
H126	H	-0.151338	0.517655	0.575196
O127	O	-0.404622	-0.238087	0.079330
O128	O	0.095378	0.261913	0.579330
H129	H	-0.366194	-0.245257	0.024051
H130	H	0.133806	0.254743	0.524051
O131	O	-0.428673	0.028543	-0.074516
O132	O	0.071327	0.528543	0.425484
H133	H	-0.449473	0.000678	-0.132507
H134	H	0.050527	0.500678	0.367493
O135	O	-1.117386	0.013570	0.787159
O136	O	-0.617386	0.513570	1.287159
H137	H	-1.156646	0.052764	0.742084
H138	H	-0.656646	0.552764	1.242084
O139	O	-0.407652	-0.120973	0.158219
O140	O	0.092348	0.379027	0.658219
H141	H	-0.367439	-0.166929	0.194352
H142	H	0.132561	0.333071	0.694352
H143	H	-0.557405	-0.217983	0.084436
H144	H	-0.057405	0.282017	0.584436
H145	H	-0.834656	0.262105	0.000036
H146	H	-0.334656	0.762105	0.500036
H147	H	-0.870621	0.637730	0.000049
H148	H	-0.370621	1.137730	0.500049
O149	O	-0.828342	0.100435	0.000053
O150	O	-0.328342	0.600435	0.500053
H151	H	-0.772111	0.136108	0.000056
H152	H	-0.272111	0.636108	0.500056
H153	H	-1.157885	0.523282	0.000073
H154	H	-0.657885	1.023282	0.500073
H155	H	-1.082388	-0.021304	0.224519
H156	H	-0.582388	0.478696	0.724519
O157	O	-0.895497	-0.207948	0.787158
O158	O	-0.395497	0.292052	1.287158
H159	H	-0.931397	-0.247981	0.826958
H160	H	-0.431397	0.252019	1.326958
H161	H	-0.917695	-0.185762	0.617042
H162	H	-0.417695	0.314238	1.117042
H163	H	-0.421032	-0.207824	-0.082902
H164	H	0.078968	0.292176	0.417098
O165	O	-1.088409	-0.015331	0.394641
O166	O	-0.588409	0.484669	0.894641
H167	H	-1.127677	0.023857	0.349567
H168	H	-0.627677	0.523857	0.849567
H169	H	-1.111366	0.007585	0.617034
H170	H	-0.611366	0.507585	1.117034
H171	H	-0.881173	-0.222195	0.383090
H172	H	-0.381173	0.277805	0.883090
H173	H	-0.431356	-0.111395	-0.138572
H174	H	0.068644	0.388605	0.361428
O175	O	-0.588439	0.026158	-0.075363
O176	O	-0.088439	0.526158	0.424637
H177	H	-0.537442	0.050503	-0.111756
H178	H	-0.037442	0.550503	0.388244
O179	O	-0.584372	-0.104583	-0.157409
O180	O	-0.084372	0.395417	0.342591
H181	H	-0.653472	-0.108401	-0.158322
H182	H	-0.153472	0.391599	0.341678
O183	O	-0.567756	-0.117166	0.157360
O184	O	-0.067756	0.382834	0.657360
H185	H	-0.612345	-0.066370	0.139379
H186	H	-0.112345	0.433630	0.639379
O187	O	-1.142837	0.139312	0.000073
O188	O	-0.642837	0.639312	0.500073
H189	H	-1.175067	0.156813	0.056665
H190	H	-0.675067	0.656813	0.556665
O191	O	-1.128220	0.309306	0.000085
O192	O	-0.628220	0.809306	0.500085
H193	H	-1.184449	0.273630	0.000107
H194	H	-0.684449	0.773630	0.500107
H195	H	-1.145130	0.671660	0.000067
H196	H	-0.645130	1.171660	0.500067
