data_functionalizedCrystal
_audit_creation_method	'MofGen! by Chris Wilmer'
_symmetry_space_group_name_H-M	'P1'
_symmetry_Int_Tables_number	1
_symmetry_cell_setting	triclinic
loop_
_symmetry_equiv_pos_as_xyz
  x,y,z
_cell_length_a	15.297475
_cell_length_b	17.640280
_cell_length_c	15.296720
_cell_angle_alpha	89.704419
_cell_angle_beta	88.382886
_cell_angle_gamma	67.467946
loop_
_atom_site_label
_atom_site_type_symbol
_atom_site_fract_x
_atom_site_fract_y
_atom_site_fract_z
Zn1	Zn	1.417125	-0.622537	0.611407
Zn2	Zn	1.472679	-0.737717	0.443610
Zn3	Zn	1.284185	-0.577601	0.447963
Zn4	Zn	1.298838	-0.729855	0.566194
O5	O	1.368207	-0.666928	0.517293
O6	O	1.552884	-0.659913	0.606249
O7	O	1.464792	-0.700962	0.324484
O8	O	1.272438	-0.471640	0.490387
O9	O	1.593699	-0.744535	0.482969
O10	O	1.370108	-0.504655	0.610469
O11	O	1.326306	-0.583325	0.327682
O12	O	1.157739	-0.575701	0.446546
O13	O	1.297411	-0.731134	0.691895
O14	O	1.168505	-0.687561	0.533410
O15	O	1.384317	-0.652289	0.725113
O16	O	1.479001	-0.848596	0.439128
O17	O	1.351280	-0.842819	0.529189
C18	C	1.129832	-0.625902	0.485544
C19	C	1.027857	-0.608374	0.471978
C20	C	0.763060	-0.792215	0.614251
C21	C	0.858873	-0.808690	0.626993
C22	C	0.901123	-0.758612	0.588241
C23	C	0.847552	-0.692057	0.536744
C24	C	0.751731	-0.675584	0.523995
C25	C	0.889795	-0.641981	0.497984
C26	C	0.836223	-0.575426	0.446487
C27	C	0.740412	-0.558956	0.433741
C28	C	0.698161	-0.609034	0.472493
C29	C	0.985615	-0.658454	0.510734
C30	C	0.974287	-0.541823	0.420477
C31	C	0.878474	-0.525349	0.407735
C32	C	1.422781	-0.874735	0.478802
C33	C	1.446208	-0.963653	0.462375
C34	C	1.190566	-1.241111	0.642449
C35	C	1.212585	-1.324661	0.626986
C36	C	1.345637	-1.330638	0.533325
C37	C	1.323632	-1.247088	0.548783
C38	C	1.246095	-1.202331	0.603345
C39	C	1.379161	-1.208307	0.509680
C40	C	1.357155	-1.124764	0.525133
C41	C	1.279619	-1.080001	0.579690
C42	C	1.224088	-1.118787	0.618798
C43	C	1.456695	-1.253065	0.455113
C44	C	1.512223	-1.214284	0.416010
C45	C	1.490221	-1.130740	0.431468
C46	C	1.412686	-1.085977	0.486025
C47	C	1.545752	-1.091954	0.392360
C48	C	1.523746	-1.008410	0.407814
C49	C	1.390679	-1.002434	0.501479
C50	C	1.607512	-0.708114	0.549167
C51	C	1.709490	-0.725665	0.562750
C52	C	1.336302	-0.695847	0.740410
C53	C	1.322705	-0.708171	0.835489
C54	C	1.313441	-0.458316	0.555957
C55	C	1.290104	-0.369418	0.572433
C56	C	1.400025	-0.638072	0.295063
C57	C	1.413740	-0.625554	0.200050
C58	C	1.465377	-0.578714	1.172680
C59	C	1.478158	-0.567138	1.083349
C60	C	1.439295	-0.602395	1.021380
C61	C	1.387651	-0.649231	1.048750
C62	C	1.374876	-0.660813	1.138089
C63	C	1.348794	-0.684494	0.986789
C64	C	1.297150	-0.731330	1.014159
C65	C	1.284376	-0.742910	1.103490
C66	C	1.323238	-0.707653	1.165459
C67	C	1.361569	-0.672911	0.897450
C68	C	1.271068	-0.755010	0.862859
C69	C	1.258288	-0.766587	0.952190
H70	H	1.327546	-0.965993	0.545916
H71	H	0.620142	-0.595622	0.462123
H72	H	0.979139	-0.772030	0.598619
C73	C	0.917128	-0.881027	0.682754
C74	C	0.992502	-0.935397	0.632060
C75	C	1.046182	-1.002050	0.683400
H76	H	0.941248	-0.861854	0.730717
H77	H	0.878291	-0.908542	0.703993
H78	H	1.031334	-0.907886	0.610835
H79	H	0.968410	-0.954592	0.584099
H80	H	1.007344	-1.029566	0.704638
H81	H	1.070295	-0.982869	0.731361
H82	H	1.097324	-1.038952	0.649010
C83	C	1.429797	-1.379381	0.474137
C84	C	1.437193	-1.460848	0.468980
C85	C	1.514713	-1.505773	0.414468
H86	H	1.421116	-1.356049	0.417359
H87	H	1.486053	-1.377936	0.497448
H88	H	1.380951	-1.462289	0.445666
H89	H	1.445888	-1.484203	0.525743
H90	H	1.570969	-1.504329	0.437778
H91	H	1.506026	-1.482435	0.357693
H92	H	1.519747	-1.561055	0.410968
C93	C	1.019987	-0.487376	0.378290
C94	C	0.952574	-0.425582	0.330437
C95	C	0.994649	-0.375423	0.291554
H96	H	1.043539	-0.463167	0.422411
H97	H	1.070702	-0.519479	0.340236
H98	H	0.901877	-0.393484	0.368488
H99	H	0.929018	-0.449767	0.286302
H100	H	1.045363	-0.407526	0.253500
H101	H	1.018199	-0.351221	0.335681
H102	H	0.948918	-0.333495	0.259075
H103	H	1.474612	-1.321092	0.442536
H104	H	1.568963	-0.976835	0.375970
H105	H	1.403618	-0.634776	0.875174
H106	H	0.728652	-0.832985	0.645792
C107	C	1.453226	-0.589693	0.924432
C108	C	1.506749	-0.541111	0.913725
C109	C	1.519588	-0.529378	0.824427
H110	H	1.485561	-0.641358	0.896670
H111	H	1.393287	-0.563006	0.898883
H112	H	1.566678	-0.567799	0.939263
H113	H	1.474430	-0.489437	0.941467
H114	H	1.459648	-0.502691	0.798878
H115	H	1.551920	-0.581047	0.796673
H116	H	1.555896	-0.496409	0.817151
H117	H	1.520209	-0.529006	1.061071
C118	C	1.255743	-0.989271	0.596289
C119	C	1.236807	-0.947086	0.516830
C120	C	1.214820	-0.863507	0.532085
H121	H	1.201599	-0.968059	0.634337
H122	H	1.307831	-0.982401	0.622477
H123	H	1.184723	-0.953950	0.490654
H124	H	1.290938	-0.968272	0.478770
H125	H	1.266909	-0.856638	0.558274
H126	H	1.160678	-0.842304	0.570135
H127	H	1.201978	-0.834876	0.478175
C128	C	1.152378	-1.366904	0.669331
C129	C	1.188227	-1.449643	0.644103
C130	C	1.132781	-1.488580	0.683080
H131	H	1.153880	-1.363037	0.731143
H132	H	1.088942	-1.341064	0.651056
H133	H	1.251647	-1.475476	0.662384
H134	H	1.186723	-1.453535	0.582297
H135	H	1.069345	-1.462740	0.664805
H136	H	1.134288	-1.484707	0.744891
H137	H	1.157092	-1.544721	0.665963
H138	H	1.029224	-0.712644	0.552664
H139	H	1.497020	-0.550018	1.223141
H140	H	0.696799	-0.504770	0.391798
H141	H	1.575352	-1.250736	0.371583
C142	C	1.228242	-0.793758	1.133034
C143	C	1.196920	-0.822139	1.059649
C144	C	1.145196	-0.868973	1.086830
H145	H	1.267418	-0.839219	1.166075
H146	H	1.175210	-0.760806	1.168203
H147	H	1.249944	-0.855089	1.024495
H148	H	1.157731	-0.776695	1.026600
H149	H	1.092164	-0.836021	1.121998
H150	H	1.184378	-0.914429	1.119871
H151	H	1.123930	-0.888228	1.037043
H152	H	0.834842	-0.471159	0.365805
H153	H	1.216238	-0.804721	0.974487
C154	C	1.106327	-1.192645	0.701696
C155	C	1.062396	-1.244484	0.732630
C156	C	0.984793	-1.199865	0.787203
H157	H	1.127366	-1.170886	0.749754
H158	H	1.062434	-1.148977	0.669662
H159	H	1.106280	-1.288137	0.764663
H160	H	1.041335	-1.266245	0.684591
H161	H	0.940900	-1.156197	0.755169
H162	H	1.005840	-1.178108	0.835256
H163	H	0.954971	-1.235029	0.808192
H164	H	1.608877	-1.128405	0.347929
C165	C	1.309416	-0.720394	1.262421
C166	C	1.348564	-0.804399	1.280985
C167	C	1.335840	-0.816166	1.370295
H168	H	1.339951	-0.692758	1.295500
H169	H	1.243686	-0.699038	1.277329
H170	H	1.414282	-0.825746	1.266086
H171	H	1.318037	-0.832053	1.247927
H172	H	1.270109	-0.794810	1.385203
H173	H	1.366375	-0.788526	1.403366
H174	H	1.362391	-0.873164	1.382901
H175	H	1.239425	-0.783721	0.812402
H176	H	1.160955	-1.082346	0.663235
