data_functionalizedCrystal
_audit_creation_method	'MofGen! by Chris Wilmer'
_symmetry_space_group_name_H-M	'P1'
_symmetry_Int_Tables_number	1
_symmetry_cell_setting	triclinic
loop_
_symmetry_equiv_pos_as_xyz
  x,y,z
_cell_length_a	16.109301
_cell_length_b	17.699083
_cell_length_c	15.186229
_cell_angle_alpha	89.995368
_cell_angle_beta	89.999362
_cell_angle_gamma	83.372248
loop_
_atom_site_label
_atom_site_type_symbol
_atom_site_fract_x
_atom_site_fract_y
_atom_site_fract_z
O1	O	1.102963	0.097285	-0.073175
O2	O	1.602963	0.597285	0.426825
O3	O	0.860880	0.109391	-0.073189
O4	O	1.360880	0.609391	0.426811
O5	O	0.988761	-0.006841	-0.073174
O6	O	1.488761	0.493159	0.426826
O7	O	0.975082	0.213517	-0.073190
O8	O	1.475082	0.713517	0.426810
O9	O	0.988753	-0.006843	0.073284
O10	O	1.488753	0.493157	0.573284
O11	O	0.860872	0.109390	0.073268
O12	O	1.360872	0.609390	0.573268
O13	O	1.102955	0.097283	0.073283
O14	O	1.602955	0.597283	0.573283
Zn15	Zn	0.981912	0.103336	0.096529
Zn16	Zn	1.481912	0.603336	0.596529
Zn17	Zn	0.981923	0.103338	-0.096435
Zn18	Zn	1.481923	0.603338	0.403565
O19	O	0.975074	0.213516	0.073267
O20	O	1.475074	0.713516	0.573267
C21	C	0.829902	0.108900	0.000038
C22	C	1.329902	0.608900	0.500038
C23	C	0.737609	0.107430	0.000033
C24	C	1.237609	0.607430	0.500033
C25	C	0.988267	-0.035040	0.000055
C26	C	1.488267	0.464960	0.500055
C27	C	0.986796	-0.119060	0.000055
C28	C	1.486796	0.380940	0.500055
C29	C	0.515224	0.172981	0.000038
C30	C	1.015224	0.672981	0.500038
C31	C	0.428506	0.171594	0.000044
C32	C	0.928506	0.671594	0.500044
C33	C	0.448618	0.033688	0.000050
C34	C	0.948618	0.533688	0.500050
C35	C	0.535334	0.035076	0.000051
C36	C	1.035334	0.535076	0.500051
C37	C	0.568635	0.104725	0.000040
C38	C	1.068635	0.604725	0.500040
C39	C	0.395200	0.101949	0.000046
C40	C	0.895200	0.601949	0.500046
C41	C	0.301177	0.100445	0.000052
C42	C	0.801177	0.600445	0.500052
C43	C	0.662664	0.106230	0.000036
C44	C	1.162664	0.606230	0.500036
C45	C	1.061860	-0.167574	0.000061
C46	C	1.561860	0.332426	0.500061
C47	C	1.060473	-0.246519	0.000053
C48	C	1.560473	0.253481	0.500053
C49	C	0.984022	-0.276949	0.000046
C50	C	1.484022	0.223051	0.500046
C51	C	0.908953	-0.228429	0.000038
C52	C	1.408953	0.271571	0.500038
C53	C	0.910341	-0.149485	0.000039
C54	C	1.410341	0.350515	0.500039
C55	C	0.903356	-0.546800	0.000030
C56	C	1.403356	-0.046800	0.500030
C57	C	0.901974	-0.625750	0.000031
C58	C	1.401974	-0.125750	0.500031
C59	C	1.053488	-0.643834	0.000044
C60	C	1.553488	-0.143834	0.500044
C61	C	1.054876	-0.564890	0.000046
C62	C	1.554876	-0.064890	0.500046
C63	C	0.979807	-0.516377	0.000033
C64	C	1.479807	-0.016377	0.500033
C65	C	0.981312	-0.430776	0.000040
C66	C	1.481312	0.069224	0.500040
C67	C	0.982517	-0.362549	0.000045
C68	C	1.482517	0.137451	0.500045
C69	C	1.133933	0.097774	0.000054
C70	C	1.633933	0.597774	0.500054
C71	C	1.226226	0.099244	0.000053
C72	C	1.726226	0.599244	0.500053
C73	C	0.975568	0.241714	0.000037
C74	C	1.475568	0.741714	0.500037
C75	C	0.977039	0.325734	0.000031
C76	C	1.477039	0.825734	0.500031
N77	N	0.981910	0.103334	0.228221
N78	N	1.481910	0.603334	0.728221
N79	N	0.981931	0.103334	-0.228128
N80	N	1.481931	0.603334	0.271872
C81	C	1.038555	0.051884	0.453951
C82	C	1.538555	0.551884	0.953951
C83	C	1.038558	0.051882	0.546141
C84	C	1.538558	0.551882	1.046141
C85	C	0.925280	0.154787	0.546136
C86	C	1.425280	0.654787	1.046136
C87	C	0.925274	0.154785	0.453948
C88	C	1.425274	0.654785	0.953948
C89	C	0.981916	0.103334	0.407858
C90	C	1.481916	0.603334	0.907858
C91	C	0.981925	0.103334	0.592236
C92	C	1.481925	0.603334	1.092236
C93	C	0.981927	0.103333	0.692192
C94	C	1.481927	0.603333	1.192192
C95	C	0.981913	0.103334	0.307896
C96	C	1.481913	0.603334	0.807896
H97	H	0.542334	0.229694	0.000036
H98	H	1.042334	0.729694	0.500036
O99	O	0.587342	-0.031163	0.000089
O100	O	1.087342	0.468837	0.500089
C101	C	0.671019	-0.015000	0.000067
C102	C	1.171019	0.485000	0.500067
H103	H	0.674217	0.044447	0.027794
H104	H	1.174217	0.544447	0.527794
H105	H	0.710401	-0.058509	0.042589
H106	H	1.210401	0.441491	0.542589
H107	H	0.696105	-0.017869	-0.070196
H108	H	1.196105	0.482131	0.429804
H109	H	1.124115	-0.142805	0.000072
H110	H	1.624115	0.357195	0.500072
H111	H	1.084675	0.009988	0.416427
H112	H	1.584675	0.509988	0.916427
H113	H	0.385022	0.227175	0.000044
H114	H	0.885022	0.727175	0.500044
H115	H	0.879148	0.196682	0.416417
H116	H	1.379148	0.696682	0.916417
O117	O	0.870347	0.204740	0.591047
O118	O	1.370347	0.704740	1.091047
C119	C	0.882484	0.193700	0.682299
C120	C	1.382484	0.693700	1.182299
H121	H	0.948638	0.165428	0.694887
H122	H	1.448638	0.665428	1.194887
H123	H	0.873122	0.251018	0.717326
H124	H	1.373122	0.751018	1.217326
H125	H	0.835506	0.155730	0.708471
H126	H	1.335506	0.655730	1.208471
O127	O	1.126435	-0.690930	0.000201
O128	O	1.626435	-0.190930	0.500201
C129	C	1.172864	-0.677135	0.076047
C130	C	1.672864	-0.177135	0.576047
H131	H	1.128913	-0.650150	0.129061
H132	H	1.628913	-0.150150	0.629061
H133	H	1.206317	-0.733156	0.101507
H134	H	1.706317	-0.233156	0.601507
H135	H	1.220906	-0.636946	0.058906
H136	H	1.720906	-0.136946	0.558906
H137	H	1.117130	-0.540119	0.000056
H138	H	1.617130	-0.040119	0.500056
O139	O	0.416129	-0.033900	0.000015
O140	O	0.916129	0.466100	0.500015
C141	C	0.328138	-0.020491	0.000033
C142	C	0.828138	0.479509	0.500033
H143	H	0.307653	0.038579	-0.027696
H144	H	0.807653	0.538579	0.472304
H145	H	0.301605	-0.065053	-0.042487
H146	H	0.801605	0.434947	0.457513
H147	H	0.304004	-0.024157	0.070296
H148	H	0.804004	0.475843	0.570296
O149	O	1.093498	0.001933	0.591051
O150	O	1.593498	0.501933	1.091051
C151	C	1.081373	0.012975	0.682303
C152	C	1.581373	0.512975	1.182303
H153	H	1.015219	0.041244	0.694897
H154	H	1.515219	0.541244	1.194897
H155	H	1.090744	-0.044341	0.717343
H156	H	1.590744	0.455659	1.217343
H157	H	1.128352	0.050950	0.708458
H158	H	1.628352	0.550950	1.208458
O159	O	1.133467	-0.293537	0.000104
O160	O	1.633467	0.206463	0.500104
C161	C	1.201241	-0.249751	0.000096
C162	C	1.701241	0.250249	0.500096
H163	H	1.180014	-0.190828	0.027822
H164	H	1.680014	0.309172	0.527822
H165	H	1.253819	-0.278888	0.042625
H166	H	1.753819	0.221112	0.542625
H167	H	1.224694	-0.244130	-0.070162
H168	H	1.724694	0.255870	0.429838
O169	O	0.827684	-0.655274	-0.000139
O170	O	1.327684	-0.155274	0.499861
C171	C	0.781938	-0.630466	-0.075989
C172	C	1.281938	-0.130466	0.424011
H173	H	0.826654	-0.614051	-0.128997
H174	H	1.326654	-0.114051	0.371003
H175	H	0.746671	-0.678282	-0.101456
H176	H	1.246671	-0.178282	0.398544
H177	H	0.735498	-0.579007	-0.058850
H178	H	1.235498	-0.079007	0.441150
O179	O	0.830458	-0.499653	-0.000133
O180	O	1.330458	0.000347	0.499867
C181	C	0.826733	-0.453431	-0.075975
C182	C	1.326733	0.046569	0.424025
H183	H	0.869313	-0.482347	-0.128987
H184	H	1.369313	0.017653	0.371013
H185	H	0.759746	-0.444544	-0.101440
H186	H	1.259746	0.055456	0.398560
H187	H	0.848127	-0.396028	-0.058826
H188	H	1.348127	0.103972	0.441174
H189	H	0.846705	-0.253211	0.000026
H190	H	1.346705	0.246789	0.500026
H191	H	0.849216	-0.109986	0.000034
H192	H	1.349216	0.390014	0.500034
