data_functionalizedCrystal
_audit_creation_method	'MofGen! by Chris Wilmer'
_symmetry_space_group_name_H-M	'P1'
_symmetry_Int_Tables_number	1
_symmetry_cell_setting	triclinic
loop_
_symmetry_equiv_pos_as_xyz
  x,y,z
_cell_length_a	12.837943
_cell_length_b	15.944551
_cell_length_c	11.295483
_cell_angle_alpha	94.094426
_cell_angle_beta	85.461227
_cell_angle_gamma	89.163839
loop_
_atom_site_label
_atom_site_type_symbol
_atom_site_fract_x
_atom_site_fract_y
_atom_site_fract_z
O1	O	1.382450	0.213265	-0.099009
O2	O	1.080644	0.202478	-0.099016
O3	O	1.239788	0.086257	-0.099002
O4	O	1.223306	0.329487	-0.099023
O5	O	1.225810	0.096448	0.099048
O6	O	1.066666	0.212669	0.099034
O7	O	1.368472	0.223456	0.099040
Cu8	Cu	1.216293	0.218993	0.117121
Cu9	Cu	1.232823	0.206941	-0.117096
O10	O	1.209328	0.339677	0.099026
C11	C	1.035034	0.203930	0.000008
C12	C	0.919957	0.193062	0.000006
C13	C	0.679007	0.323714	0.000011
C14	C	0.570881	0.313507	0.000010
C15	C	0.595575	0.162440	0.000011
C16	C	0.703701	0.172648	0.000012
C17	C	0.745413	0.253287	0.000011
C18	C	0.853542	0.263494	0.000003
C19	C	0.878234	0.112428	0.000013
C20	C	0.770107	0.102221	0.000011
C21	C	1.232115	0.060004	0.000023
C22	C	1.230063	-0.033407	0.000024
C23	C	1.126515	-0.256548	0.000005
C24	C	1.167708	-0.308694	0.097657
C25	C	1.226352	-0.204430	0.000015
C26	C	1.181513	-0.318722	-0.097604
C27	C	1.222761	-0.369631	0.000001
C28	C	1.267567	-0.255341	0.097747
C29	C	1.281364	-0.265369	-0.097602
C30	C	1.322627	-0.317491	0.000073
C31	C	1.228418	-0.109262	0.000024
C32	C	1.220702	-0.464796	0.000000
C33	C	1.414082	0.222005	0.000014
C34	C	1.529160	0.232872	0.000008
C35	C	1.217002	0.365931	-0.000001
C36	C	1.219054	0.459340	-0.000010
N37	N	1.204674	0.227469	0.281856
N38	N	1.244451	0.198459	-0.281831
C39	C	1.328092	0.137394	0.531156
C40	C	1.319318	0.143806	0.655819
C41	C	1.178349	0.246701	0.655847
C42	C	1.187123	0.240289	0.531184
C43	C	1.261997	0.185634	0.468843
C44	C	1.270775	0.179227	0.344178
C45	C	1.129802	0.282117	0.344208
C46	C	1.121028	0.288530	0.468871
H47	H	0.736129	0.036567	0.000026
H48	H	1.373138	0.104523	0.706551
H49	H	1.117381	0.291194	0.706621
O50	O	0.719358	0.402104	0.000054
C51	C	0.637561	0.462076	0.000014
H52	H	0.561456	0.434590	0.037513
H53	H	0.628971	0.479323	-0.095004
C54	C	0.756090	0.575179	0.031615
C55	C	0.662619	0.541421	0.077681
H56	H	0.771548	0.624124	0.079518
H57	H	0.811200	0.534775	0.031637
H58	H	0.748921	0.589544	-0.047566
H59	H	0.669795	0.527047	0.156854
H60	H	0.607511	0.581825	0.077673
O61	O	0.555174	0.084065	-0.000143
C62	C	0.596311	0.035336	-0.102730
H63	H	0.673724	0.062456	-0.136933
H64	H	0.538809	0.036377	-0.174551
C65	C	0.519269	-0.089241	-0.029564
C66	C	0.614354	-0.055936	-0.071566
H67	H	0.530394	-0.145543	-0.010344
H68	H	0.491550	-0.056412	0.039550
H69	H	0.471360	-0.088366	-0.089422
H70	H	0.662256	-0.056802	-0.011704
H71	H	0.642081	-0.088768	-0.140669
H72	H	1.389064	0.092898	0.480398
O73	O	0.894241	0.341761	-0.000052
C74	C	1.003914	0.335674	-0.000025
H75	H	1.031941	0.270228	-0.037521
H76	H	1.027311	0.347036	0.094989
C77	C	1.019831	0.482466	-0.031640
C78	C	1.054254	0.402086	-0.077703
H79	H	1.050884	0.523435	-0.079550
H80	H	0.945941	0.486569	-0.031654
H81	H	1.039330	0.491923	0.047537
H82	H	1.034743	0.392627	-0.156872
H83	H	1.128141	0.397984	-0.077704
H84	H	1.043639	-0.229864	0.000101
O85	O	1.110295	-0.331756	0.196018
C86	C	1.026324	-0.381189	0.160964
H87	H	1.046001	-0.410879	0.066876
H88	H	0.952921	-0.339847	0.162836
C89	C	0.983005	-0.414461	0.362803
C90	C	1.007177	-0.450932	0.247246
H91	H	0.971190	-0.457480	0.416028
H92	H	1.039576	-0.381155	0.386421
H93	H	0.921839	-0.380010	0.364346
H94	H	1.068349	-0.485373	0.245702
H95	H	0.950616	-0.484246	0.223630
H96	H	1.060064	0.333026	0.519643
H97	H	0.516815	0.370856	0.000014
O98	O	0.942887	0.044102	0.000061
C99	C	1.047271	0.070397	0.000022
H100	H	1.048786	0.138631	0.037524
H101	H	1.085236	0.064833	-0.094996
C102	C	1.106101	-0.069342	0.031618
C103	C	1.107962	0.014462	0.077687
H104	H	1.143541	-0.103846	0.079519
H105	H	1.035777	-0.087059	0.031639
H106	H	1.137738	-0.073966	-0.047563
H107	H	1.076315	0.019087	0.156860
H108	H	1.178284	0.032179	0.077680
H109	H	1.303925	-0.227723	0.180394
H110	H	1.405566	-0.344011	0.000130
O111	O	1.065444	0.328942	0.283803
C112	C	0.960683	0.308588	0.314257
H113	H	0.954429	0.280874	0.404771
H114	H	0.933564	0.260591	0.244100
C115	C	0.899009	0.422664	0.208854
C116	C	0.891327	0.388633	0.320030
H117	H	0.856226	0.472038	0.212410
H118	H	0.969589	0.436376	0.188332
H119	H	0.876412	0.382659	0.150402
H120	H	0.913936	0.428633	0.378477
H121	H	0.820749	0.374929	0.340562
H122	H	1.329382	-0.246112	-0.180161
H123	H	1.145100	-0.346426	-0.180167
H124	H	1.331744	0.134727	0.293421
