data_functionalizedCrystal
_audit_creation_method	'MofGen! by Chris Wilmer'
_symmetry_space_group_name_H-M	'P1'
_symmetry_Int_Tables_number	1
_symmetry_cell_setting	triclinic
loop_
_symmetry_equiv_pos_as_xyz
  x,y,z
_cell_length_a	14.519709
_cell_length_b	10.654550
_cell_length_c	12.996460
_cell_angle_alpha	89.994020
_cell_angle_beta	90.000034
_cell_angle_gamma	84.082538
loop_
_atom_site_label
_atom_site_type_symbol
_atom_site_fract_x
_atom_site_fract_y
_atom_site_fract_z
O1	O	-1.224722	-0.164625	0.085432
O2	O	-0.724722	0.335375	0.585432
O3	O	-0.956346	-0.184012	0.085464
O4	O	-0.456346	0.315988	0.585464
O5	O	-1.096705	0.008480	0.085441
O6	O	-0.596705	0.508480	0.585441
O7	O	-1.084364	-0.357117	0.085455
O8	O	-0.584364	0.142883	0.585455
O9	O	-1.096690	0.008491	-0.085693
O10	O	-0.596690	0.508491	0.414307
O11	O	-0.956331	-0.184001	-0.085670
O12	O	-0.456331	0.315999	0.414330
O13	O	-1.224708	-0.164615	-0.085701
O14	O	-0.724708	0.335385	0.414299
Cu15	Cu	-1.090518	-0.174307	-0.101311
Cu16	Cu	-0.590518	0.325693	0.398689
Cu17	Cu	-1.090535	-0.174320	0.101074
Cu18	Cu	-0.590535	0.325680	0.601074
O19	O	-1.084349	-0.357107	-0.085678
O20	O	-0.584349	0.142893	0.414322
C21	C	-1.095791	0.055275	-0.000125
C22	C	-0.595791	0.555275	0.499875
C23	C	-1.093080	0.194692	-0.000123
C24	C	-0.593080	0.694692	0.499877
C25	C	-0.921974	-0.183103	-0.000099
C26	C	-0.421974	0.316897	0.499901
C27	C	-0.819579	-0.180396	-0.000087
C28	C	-0.319579	0.319604	0.499913
C29	C	-1.259079	-0.165524	-0.000136
C30	C	-0.759079	0.334476	0.499864
C31	C	-1.361475	-0.168231	-0.000141
C32	C	-0.861475	0.331769	0.499859
C33	C	-0.444631	-0.170428	-0.000134
C34	C	0.055369	0.329572	0.499866
C35	C	-0.548954	-0.173196	-0.000121
C36	C	-0.048954	0.326804	0.499879
C37	C	-0.632102	-0.175412	-0.000110
C38	C	-0.132102	0.324588	0.499890
C39	C	-0.736431	-0.178180	-0.000098
C40	C	-0.236431	0.321820	0.499902
C41	C	-1.085262	-0.403901	-0.000110
C42	C	-0.585262	0.096099	0.499890
C43	C	-1.087973	-0.543318	-0.000105
C44	C	-0.587973	-0.043318	0.499895
N45	N	-1.090512	-0.174297	-0.243659
N46	N	-0.590512	0.325703	0.256341
C47	C	-1.175721	0.274972	-0.000133
C48	C	-0.675721	0.774972	0.499867
C49	C	-1.173168	0.405968	-0.000120
C50	C	-0.673168	0.905968	0.499880
C51	C	-1.005326	0.376391	-0.000093
C52	C	-0.505326	0.876391	0.499907
C53	C	-1.007880	0.245397	-0.000098
C54	C	-0.507880	0.745397	0.499902
C55	C	-1.270505	0.602745	0.059830
C56	C	-0.770505	1.102745	0.559830
C57	C	-1.353150	0.683031	0.059803
C58	C	-0.853150	1.183031	0.559803
C59	C	-1.428065	0.653583	-0.000177
C60	C	-0.928065	1.153583	0.499823
C61	C	-1.420338	0.543852	-0.060156
C62	C	-0.920338	1.043852	0.439844
C63	C	-1.337692	0.463573	-0.060139
C64	C	-0.837692	0.963573	0.439861
C65	C	-1.262780	0.493020	-0.000134
C66	C	-0.762780	0.993020	0.499866
C67	C	-0.910549	0.048619	-0.060057
C68	C	-0.410549	0.548619	0.439943
C69	C	-0.827902	-0.031662	-0.060046
C70	C	-0.327902	0.468338	0.439954
C71	C	-0.752979	-0.002218	-0.000072
C72	C	-0.252979	0.497782	0.499928
C73	C	-0.760696	0.107515	0.059891
C74	C	-0.260696	0.607515	0.559891
C75	C	-0.843344	0.187796	0.059881
C76	C	-0.343344	0.687796	0.559881
C77	C	-0.918267	0.158343	-0.000092
C78	C	-0.418267	0.658343	0.499908
C79	C	-1.090534	-0.174321	-0.663473
C80	C	-0.590534	0.325679	-0.163473
C81	C	-1.090525	-0.174319	-0.546668
C82	C	-0.590525	0.325681	-0.046668
C83	C	-1.090524	-0.174310	-0.453569
C84	C	-0.590524	0.325690	0.046431
C85	C	-1.090514	-0.174306	-0.336757
C86	C	-0.590514	0.325694	0.163243
N87	N	-1.090548	-0.174319	0.243421
N88	N	-0.590548	0.325681	0.743421
H89	H	-1.331399	0.374236	-0.108976
H90	H	-0.831399	0.874236	0.391024
C91	C	-0.905097	0.506545	0.087896
C92	C	-0.405097	1.006545	0.587896
C93	C	-0.911679	0.432137	-0.000077
C94	C	-0.411679	0.932137	0.499923
H95	H	-0.847284	0.540964	0.087898
H96	H	-0.347284	1.040964	0.587898
H97	H	-0.909581	0.456048	0.147562
H98	H	-0.409581	0.956048	0.647562
H99	H	-0.953956	0.573101	0.087879
H100	H	-0.453956	1.073101	0.587879
H101	H	-0.862824	0.365576	-0.000056
H102	H	-0.362824	0.865576	0.499944
H103	H	-0.907186	0.482637	-0.059758
H104	H	-0.407186	0.982637	0.440242
C105	C	-1.576859	0.605129	-0.113452
C106	C	-1.076859	1.105129	0.386548
C107	C	-1.502686	0.511494	-0.126102
C108	C	-1.002686	1.011494	0.373898
H109	H	-1.627699	0.585143	-0.154160
H110	H	-1.127699	1.085143	0.345840
H111	H	-1.558546	0.684233	-0.134516
H112	H	-1.058546	1.184233	0.365484
H113	H	-1.594645	0.609494	-0.043099
H114	H	-1.094645	1.109494	0.456901
H115	H	-1.484896	0.507135	-0.196454
H116	H	-0.984896	1.007135	0.303546
H117	H	-1.521002	0.432368	-0.105043
H118	H	-1.021002	0.932368	0.394957
H119	H	-1.495357	0.718961	-0.000198
H120	H	-0.995357	1.218961	0.499802
C121	C	-1.347956	0.771275	0.229441
C122	C	-0.847956	1.271275	0.729441
C123	C	-1.361650	0.803637	0.125738
C124	C	-0.861650	1.303637	0.625738
H125	H	-1.353212	0.845735	0.270140
H126	H	-0.853212	1.345735	0.770140
H127	H	-1.288020	0.727688	0.238037
H128	H	-0.788020	1.227688	0.738037
H129	H	-1.393363	0.718470	0.250479
H130	H	-0.893363	1.218470	0.750479
H131	H	-1.316239	0.856435	0.104698
H132	H	-0.816239	1.356435	0.604698
H133	H	-1.421595	0.847245	0.117137
H134	H	-0.921595	1.347245	0.617137
H135	H	-1.209512	0.626724	0.108687
H136	H	-0.709512	1.126724	0.608687
H137	H	-0.699680	0.131506	0.108707
H138	H	-0.199680	0.631506	0.608707
H139	H	-0.821619	-0.121006	-0.108885
H140	H	-0.321619	0.378994	0.391115
C141	C	-0.768623	0.317303	0.178460
C142	C	-0.268623	0.817303	0.678460
C143	C	-0.851836	0.308409	0.125808
C144	C	-0.351836	0.808409	0.625808
H145	H	-0.773871	0.391757	0.219165
H146	H	-0.273871	0.891757	0.719165
H147	H	-0.719743	0.320473	0.130262
H148	H	-0.219743	0.820473	0.630262
H149	H	-0.755830	0.245715	0.221674
H150	H	-0.255830	0.745715	0.721674
H151	H	-0.864625	0.379992	0.082587
H152	H	-0.364625	0.879992	0.582587
H153	H	-0.900730	0.305249	0.174011
H154	H	-0.400730	0.805249	0.674011
H155	H	-1.245096	0.233692	-0.000151
H156	H	-0.745096	0.733692	0.499849
C157	C	-0.966712	0.009822	-0.229676
C158	C	-0.466712	0.509822	0.270324
C159	C	-0.992922	0.016267	-0.125973
C160	C	-0.492922	0.516267	0.374027
H161	H	-1.017570	-0.010140	-0.270366
H162	H	-0.517570	0.489860	0.229634
H163	H	-0.916402	-0.053698	-0.238260
H164	H	-0.416402	0.446302	0.261740
H165	H	-0.948404	0.088944	-0.250734
H166	H	-0.448404	0.588944	0.249266
H167	H	-1.011224	-0.062859	-0.104912
H168	H	-0.511224	0.437141	0.395088
H169	H	-1.043248	0.079791	-0.117383
H170	H	-0.543248	0.579791	0.382617
H171	H	-0.685678	-0.067587	-0.000082
H172	H	-0.185678	0.432413	0.499918
