data_functionalizedCrystal
_audit_creation_method	'MofGen! by Chris Wilmer'
_symmetry_space_group_name_H-M	'P1'
_symmetry_Int_Tables_number	1
_symmetry_cell_setting	triclinic
loop_
_symmetry_equiv_pos_as_xyz
  x,y,z
_cell_length_a	13.339070
_cell_length_b	8.559649
_cell_length_c	7.088668
_cell_angle_alpha	82.338181
_cell_angle_beta	85.028605
_cell_angle_gamma	92.703979
loop_
_atom_site_label
_atom_site_type_symbol
_atom_site_fract_x
_atom_site_fract_y
_atom_site_fract_z
O1	O	-1.289986	-0.792504	0.159026
O2	O	-1.003356	-0.690862	0.159020
O3	O	-1.171923	-0.520277	0.159022
O4	O	-1.121419	-0.963090	0.159025
O5	O	-1.156183	-0.484011	-0.158968
O6	O	-0.987615	-0.654597	-0.158970
O7	O	-1.274246	-0.756239	-0.158964
Cu8	Cu	-1.129494	-0.702106	-0.188002
Cu9	Cu	-1.148108	-0.744995	0.188058
O10	O	-1.105678	-0.926824	-0.158965
C11	C	-0.959130	-0.655560	0.000024
C12	C	-0.850804	-0.604383	0.000022
C13	C	-1.167881	-0.444311	0.000030
C14	C	-1.179274	-0.271983	0.000041
C15	C	-1.318472	-0.791541	0.000036
C16	C	-1.426798	-0.842720	0.000051
C17	C	-0.455098	-1.002314	0.000055
C18	C	-0.556875	-1.050403	0.000063
C19	C	-0.630362	-0.938902	0.000052
C20	C	-0.602062	-0.779304	0.000034
C21	C	-0.500276	-0.731211	0.000042
C22	C	-0.675540	-0.667799	0.000039
C23	C	-0.647241	-0.508201	0.000021
C24	C	-0.545464	-0.460116	0.000027
C25	C	-0.471977	-0.571617	0.000038
C26	C	-0.777327	-0.715892	0.000032
C27	C	-0.822505	-0.444789	0.000018
C28	C	-0.720728	-0.396700	0.000010
C29	C	-1.109721	-1.002790	0.000030
C30	C	-1.098329	-1.175120	0.000032
N31	N	-1.116408	-0.671943	-0.452502
N32	N	-1.161202	-0.775149	0.452559
H33	H	-0.713232	-0.978067	0.000063
N34	N	-1.282625	-0.207203	0.000047
H35	H	-1.335021	-0.296324	0.000056
H36	H	-1.285121	-0.127484	-0.117844
N37	N	-0.994986	-0.239906	0.000011
H38	H	-0.992396	-0.319609	0.117890
H39	H	-0.942642	-0.150703	-0.000076
N40	N	-0.375838	-1.122557	0.000082
H41	H	-0.377828	-1.176753	-0.117789
H42	H	-0.389561	-1.203521	0.118047
H43	H	-1.207608	-0.882090	-0.465739
H44	H	-0.800357	-0.845837	0.000038
H45	H	-0.579909	-1.180350	0.000092
H46	H	-0.522428	-0.330163	0.000034
H47	H	-0.389100	-0.532470	0.000030
H48	H	-0.882340	-0.353996	0.000018
N49	N	-0.690189	-0.224569	-0.000015
H50	H	-0.654802	-0.212017	0.117863
H51	H	-0.752220	-0.161320	-0.000099
N52	N	-1.054952	-0.530278	-0.560694
H53	H	-1.055897	-0.532425	-0.702643
H54	H	-0.983174	-0.533211	-0.525838
