data_functionalizedCrystal
_audit_creation_method	'MofGen! by Chris Wilmer'
_symmetry_space_group_name_H-M	'P1'
_symmetry_Int_Tables_number	1
_symmetry_cell_setting	triclinic
loop_
_symmetry_equiv_pos_as_xyz
  x,y,z
_cell_length_a	31.640172
_cell_length_b	31.640171
_cell_length_c	18.878441
_cell_angle_alpha	59.993126
_cell_angle_beta	89.993896
_cell_angle_gamma	59.974735
loop_
_atom_site_label
_atom_site_type_symbol
_atom_site_fract_x
_atom_site_fract_y
_atom_site_fract_z
Zr1	Zr	0.406959	0.462753	-0.093200
O2	O	0.339429	0.550967	-0.206342
O3	O	0.427690	0.374544	-0.058488
O4	O	0.427649	0.462751	-0.206308
O5	O	0.339470	0.462758	0.058048
O6	O	0.497205	0.462744	-0.206312
O7	O	0.339470	0.462759	-0.058523
O8	O	0.497278	0.304957	0.058111
O9	O	0.339397	0.620546	-0.206375
O10	O	0.488405	0.410818	-0.043721
O11	O	0.436496	0.410823	0.043278
O12	O	0.436448	0.514676	-0.130761
O13	O	0.384538	0.514680	-0.043762
Zr14	Zr	0.517893	0.462740	0.092709
Zr15	Zr	0.517894	0.462741	-0.093208
Zr16	Zr	0.406958	0.462751	0.092717
Zr17	Zr	0.406907	0.573723	-0.093252
Zr18	Zr	0.517945	0.351770	0.092761
O19	O	0.497162	0.550948	0.057997
O20	O	0.497163	0.550951	-0.206353
O21	O	0.339428	0.550965	0.058007
O22	O	0.585423	0.374525	0.205852
O23	O	0.585424	0.374528	-0.058498
O24	O	0.427689	0.374542	0.205862
O25	O	0.585382	0.462734	-0.058539
O26	O	0.497203	0.462741	0.205817
O27	O	0.427647	0.462748	0.205821
O28	O	0.585382	0.462733	0.058032
O29	O	0.427574	0.620536	-0.206381
O30	O	0.497278	0.304956	0.205890
O31	O	0.585455	0.304947	0.205884
O32	O	0.585456	0.304948	0.058105
O33	O	0.339396	0.620544	-0.058596
O34	O	0.427574	0.620535	-0.058602
O35	O	0.488404	0.410817	0.130270
O36	O	0.540314	0.410812	0.043271
O37	O	0.488356	0.514670	-0.043769
O38	O	0.436447	0.514674	0.043230
C39	C	0.462491	0.323940	-0.000181
C40	C	0.462514	0.276830	-0.000159
C41	C	0.500767	-0.097741	0.063984
C42	C	0.500813	0.079212	0.064032
O43	O	0.533435	0.069476	0.118647
N44	N	0.462481	0.139692	-0.000198
C45	C	0.424136	0.155933	-0.064449
O46	O	0.391537	0.211435	-0.119085
C47	C	0.424093	-0.021019	-0.064500
C48	C	0.462425	-0.081499	-0.000260
C49	C	0.539096	-0.158217	0.128218
C50	C	0.539083	-0.202453	0.128208
C51	C	0.500740	-0.186211	0.063964
C52	C	0.462411	-0.125734	-0.000270
C53	C	0.385751	-0.004778	-0.128753
C54	C	0.385745	-0.049022	-0.128761
C55	C	0.424076	-0.109502	-0.064521
C56	C	0.424056	-0.153728	-0.064523
N57	N	0.462388	-0.214208	-0.000293
C58	C	0.500730	-0.230449	0.063951
C59	C	0.424161	0.248833	-0.064417
C60	C	0.424171	0.293072	-0.064403
C61	C	0.500849	0.216347	0.064077
C62	C	0.500836	0.172109	0.064066
C63	C	0.462493	0.188354	-0.000186
C64	C	0.500699	-0.323344	0.063926
C65	C	0.500681	-0.367579	0.063912
C66	C	0.424005	-0.290851	-0.064570
C67	C	0.424021	-0.246619	-0.064554
C68	C	0.462373	-0.262870	-0.000302
O69	O	0.391454	-0.144036	-0.119115
O70	O	0.533332	-0.285954	0.118568
C71	C	0.500781	-0.053505	0.063994
C72	C	0.462452	0.006971	-0.000240
C73	C	0.424109	0.023213	-0.064484
C74	C	0.462462	0.051209	-0.000227
C75	C	0.500804	0.034968	0.064017
C76	C	0.539137	-0.025512	0.128248
C77	C	0.539123	-0.069747	0.128238
C78	C	0.385777	0.083692	-0.128714
C79	C	0.385793	0.127925	-0.128699
C80	C	0.424136	0.111683	-0.064455
C81	C	0.323664	0.462760	-0.000236
C82	C	0.276570	0.462765	-0.000233
C83	C	-0.015435	0.462736	-0.064463
C84	C	-0.192422	0.462728	-0.064470
O85	O	-0.215294	0.462702	-0.119065
N86	N	-0.214553	0.462729	-0.000251
C87	C	-0.192432	0.462728	0.063977
O88	O	-0.215314	0.462722	0.118605
C89	C	-0.015445	0.462731	0.063987
C90	C	0.006681	0.462736	-0.000242
C91	C	0.006691	0.462741	-0.128686
C92	C	0.050933	0.462746	-0.128686
C93	C	0.073049	0.462746	-0.064464
C94	C	0.050923	0.462741	-0.000242
C95	C	0.006677	0.462725	0.128218
C96	C	0.050928	0.462725	0.128216
C97	C	0.073053	0.462730	0.063988
C98	C	0.117282	0.462747	0.063979
N99	N	0.139413	0.462746	-0.000239
C100	C	0.117297	0.462746	-0.064461
C101	C	-0.285354	0.462727	0.063967
C102	C	-0.329602	0.462727	0.063964
C103	C	-0.329587	0.462727	-0.064483
C104	C	-0.285341	0.462731	-0.064482
C105	C	-0.263223	0.462727	-0.000252
C106	C	0.210209	0.462757	-0.064458
C107	C	0.254454	0.462765	-0.064455
C108	C	0.254437	0.462762	0.063994
C109	C	0.210194	0.462758	0.063989
C110	C	0.188082	0.462753	-0.000241
O111	O	0.140185	0.462766	0.118552
O112	O	0.140193	0.462738	-0.119069
C113	C	-0.059678	0.462731	-0.064463
C114	C	-0.081804	0.462726	-0.000241
C115	C	-0.059687	0.462726	0.063981
C116	C	-0.126051	0.462726	-0.000244
C117	C	-0.148167	0.462726	-0.064466
C118	C	-0.126036	0.462725	-0.128684
C119	C	-0.081794	0.462730	-0.128685
C120	C	-0.081818	0.462727	0.128200
C121	C	-0.126061	0.462723	0.128195
C122	C	-0.148177	0.462722	0.063973
C123	C	0.601188	0.462732	-0.000255
C124	C	0.648282	0.462727	-0.000258
C125	C	0.462427	0.462748	-0.232799
C126	C	0.462427	0.462749	-0.311726
C127	C	0.462361	0.601553	-0.000310
C128	C	0.462338	0.648662	-0.000332
C129	C	0.500746	0.462746	-0.348808
C130	C	0.500748	0.462741	-0.422963
C131	C	0.462428	0.462744	-0.460039
C132	C	0.424107	0.462745	-0.422950
C133	C	0.424108	0.462745	-0.348792
C134	C	0.424107	0.462746	-0.577519
C135	C	0.424106	0.462747	-0.651683
C136	C	0.500747	0.462741	-0.651691
C137	C	0.500748	0.462742	-0.577533
C138	C	0.462426	0.462744	-0.540450
C139	C	0.462425	0.462744	0.232308
C140	C	0.462425	0.462743	0.311235
C141	C	0.601253	0.323925	-0.000190
C142	C	0.648370	0.276811	-0.000172
C143	C	0.462490	0.323938	0.232372
C144	C	0.462512	0.276827	0.311321
C145	C	0.601252	0.323923	0.232363
C146	C	0.648368	0.276808	0.311308
C147	C	0.323600	0.601569	-0.232854
C148	C	0.276484	0.648684	-0.311799
C149	C	0.323599	0.601567	-0.000300
C150	C	0.276482	0.648681	-0.000319
C151	C	0.462362	0.601555	-0.232863
C152	C	0.462340	0.648665	-0.311812
C153	C	0.643401	0.254689	-0.045580
C154	C	0.687667	0.210426	-0.045580
C155	C	0.736903	0.188283	-0.000166
C156	C	0.741871	0.210409	0.045243
C157	C	0.697605	0.254675	0.045238
C158	C	0.489618	0.254701	0.393813
C159	C	0.489637	0.210442	0.468000
C160	C	0.462552	0.188307	0.459694
C161	C	0.435443	0.210438	0.377194
C162	C	0.435421	0.254699	0.303008
C163	C	0.697596	0.254680	0.302969
C164	C	0.741871	0.210416	0.377140
C165	C	0.736917	0.188279	0.459648
C166	C	0.687685	0.210411	0.467985
C167	C	0.643411	0.254677	0.393816
C168	C	0.227256	0.670818	-0.303460
C169	C	0.182981	0.715095	-0.377631
C170	C	0.187935	0.737235	-0.460139
C171	C	0.237167	0.715099	-0.468476
C172	C	0.281441	0.670826	-0.394307
C173	C	0.281451	0.670808	0.045081
C174	C	0.237185	0.715084	0.045061
C175	C	0.187949	0.737228	-0.000356
C176	C	0.182981	0.715099	-0.045762
C177	C	0.227247	0.670828	-0.045745
C178	C	0.489430	0.670785	-0.303478
C179	C	0.489419	0.715045	-0.377651
C180	C	0.462316	0.737186	-0.460157
C181	C	0.435225	0.715061	-0.468490
C182	C	0.435238	0.670799	-0.394317
H183	H	0.532068	0.203129	0.116389
Br184	Br	0.220493	0.640801	-0.107362
H185	H	0.603330	0.272688	0.400618
Br186	Br	0.526218	0.640747	-0.191514
H187	H	0.683612	0.192415	-0.082557
H188	H	0.392908	0.462743	-0.453138
Br189	Br	-0.156087	0.462721	0.215365
H190	H	0.151880	0.773285	-0.520526
H191	H	0.772943	0.152239	-0.000168
H192	H	0.511714	0.192428	0.535168
H193	H	0.701658	0.272681	0.082219
Br194	Br	0.808695	0.180350	0.106875
Br195	Br	0.526383	0.284728	0.405109
H196	H	-0.267329	0.462735	-0.116782
Br197	Br	0.552753	0.462742	-0.702023
H198	H	0.462574	0.152267	0.520108
H199	H	0.142887	0.733136	-0.082738
H200	H	0.151909	0.773277	-0.000362
H201	H	0.413391	0.192410	0.370443
Br202	Br	-0.359611	0.462727	-0.151640
Br203	Br	0.348266	0.640767	0.106722
Br204	Br	0.372140	0.375148	-0.151576
H205	H	0.413350	0.272709	0.235842
Br206	Br	0.526186	0.745064	-0.366323
H207	H	-0.347618	0.462732	0.116257
Br208	Br	0.704332	0.284717	0.191003
H209	H	0.462308	0.773227	-0.520546
H210	H	0.781954	0.192401	0.370336
Br211	Br	0.243939	0.745105	0.106689
Br212	Br	0.372104	0.462744	-0.298461
Br213	Br	0.398438	0.745121	-0.580470
Br214	Br	0.552704	-0.449660	0.151105
Br215	Br	0.797009	0.128203	0.560300
H216	H	0.531949	0.462747	-0.318629
Br217	Br	0.116173	0.745125	-0.366295
H218	H	0.223213	0.652794	-0.236284
Br219	Br	0.243881	0.745152	-0.580459
H220	H	0.531949	0.462744	-0.547350
H221	H	0.413176	0.652794	-0.401115
Br222	Br	0.284477	0.462776	-0.151630
H223	H	0.683660	0.192380	0.535174
H224	H	0.192175	0.462762	0.116282
H225	H	0.321523	0.652805	-0.401107
H226	H	0.192210	0.462753	-0.116759
Br227	Br	0.591140	-0.180275	0.215419
H228	H	0.532049	0.122866	0.116376
H229	H	0.531951	0.462738	-0.453155
Br230	Br	0.372118	0.270892	-0.151622
H231	H	0.570355	-0.038729	0.180561
H232	H	0.392786	-0.277636	-0.116873
H233	H	-0.063782	0.462735	-0.180985
Br234	Br	0.591108	-0.284529	0.215395
Br235	Br	0.552748	-0.345405	0.151125
Br236	Br	0.333707	-0.026969	-0.215970
Br237	Br	0.333725	0.077295	-0.215939
H238	H	0.570337	-0.118990	0.180549
Br239	Br	0.371995	-0.164538	-0.151731
H240	H	0.392902	0.462748	-0.681865
H241	H	0.354574	0.177171	-0.181010
H242	H	0.354554	0.096926	-0.181031
H243	H	0.068946	0.462748	-0.180984
H244	H	-0.011311	0.462738	-0.180983
Br245	Br	-0.156062	0.462729	-0.215846
Br246	Br	-0.255342	0.462722	0.151143
H247	H	-0.063814	0.462726	0.180498
H248	H	-0.011331	0.462720	0.180518
Br249	Br	0.284458	0.462765	0.151148
Br250	Br	0.080944	0.462715	0.215395
Br251	Br	0.372100	0.462745	-0.527191
Br252	Br	0.576586	0.284731	-0.107223
