data_functionalizedCrystal
_audit_creation_method	'MofGen! by Chris Wilmer'
_symmetry_space_group_name_H-M	'P1'
_symmetry_Int_Tables_number	1
_symmetry_cell_setting	triclinic
loop_
_symmetry_equiv_pos_as_xyz
  x,y,z
_cell_length_a	14.560438
_cell_length_b	18.878441
_cell_length_c	14.560438
_cell_angle_alpha	89.999226
_cell_angle_beta	120.003716
_cell_angle_gamma	60.002079
loop_
_atom_site_label
_atom_site_type_symbol
_atom_site_fract_x
_atom_site_fract_y
_atom_site_fract_z
Zr1	Zr	1.005350	0.682381	0.120622
O2	O	1.196959	0.569273	0.267280
O3	O	0.813742	0.717054	0.075655
O4	O	1.005358	0.717047	0.267274
O5	O	1.005337	0.569285	-0.075482
O6	O	1.005363	0.833615	0.267279
O7	O	1.005343	0.569279	0.075661
O8	O	0.662597	0.833626	-0.075492
O9	O	1.348103	0.569274	0.267290
O10	O	0.892557	0.818835	0.056491
O11	O	0.892548	0.731847	-0.056309
O12	O	1.118152	0.731839	0.169298
O13	O	1.118143	0.644850	0.056498
Zr14	Zr	1.005349	0.868302	-0.120425
Zr15	Zr	1.005359	0.868293	0.120630
Zr16	Zr	1.005340	0.682390	-0.120433
Zr17	Zr	1.246407	0.682382	0.120638
Zr18	Zr	0.764292	0.868301	-0.120440
O19	O	1.196957	0.833630	-0.075458
O20	O	1.196972	0.833616	0.267292
O21	O	1.196945	0.569286	-0.075469
O22	O	0.813740	0.981410	-0.267083
O23	O	0.813754	0.981397	0.075667
O24	O	0.813728	0.717067	-0.267094
O25	O	1.005362	0.981398	0.075679
O26	O	1.005341	0.833636	-0.267077
O27	O	1.005336	0.717068	-0.267082
O28	O	1.005356	0.981404	-0.075464
O29	O	1.348110	0.717049	0.267296
O30	O	0.662589	0.833634	-0.267099
O31	O	0.662596	0.981409	-0.267092
O32	O	0.662604	0.981402	-0.075486
O33	O	1.348095	0.569281	0.075683
O34	O	1.348102	0.717057	0.075689
O35	O	0.892548	0.818844	-0.169101
O36	O	0.892556	0.905833	-0.056301
O37	O	1.118151	0.818837	0.056506
O38	O	1.118142	0.731848	-0.056294
C39	C	0.703824	0.775340	0.000079
C40	C	0.601489	0.775339	0.000073
C41	C	0.636704	0.711116	0.083353
C42	C	0.540564	0.711120	0.083382
C43	C	0.373996	0.839573	-0.083161
C44	C	0.470135	0.839572	-0.083184
C45	C	1.005339	0.542794	0.000088
C46	C	1.005335	0.463869	0.000085
C47	C	0.887578	0.472199	-0.058795
C48	C	0.887583	0.398038	-0.058796
C49	C	1.005345	0.315548	0.000091
C50	C	1.123111	0.307220	0.058972
C51	C	1.123105	0.381380	0.058966
C52	C	1.123115	0.152650	0.058984
C53	C	1.123121	0.078484	0.058992
C54	C	0.887592	0.169308	-0.058778
C55	C	0.887586	0.243468	-0.058784
C56	C	1.005353	0.235134	0.000099
C57	C	1.306875	0.775343	0.000118
C58	C	1.409210	0.775344	0.000125
C59	C	1.005362	0.775330	0.301622
C60	C	1.005366	0.775326	0.403956
C61	C	1.005360	1.007889	0.000109
C62	C	1.005364	1.086814	0.000112
C63	C	1.123124	0.729915	0.510917
C64	C	1.123120	0.729923	0.607067
C65	C	0.887591	0.820755	0.489282
C66	C	0.887597	0.820751	0.393134
C67	C	1.005343	0.775348	0.698579
C68	C	1.005358	0.775338	0.596254
C69	C	0.703835	1.007888	0.000089
C70	C	0.601504	1.086812	0.000086
C71	C	0.703812	0.775352	-0.301444
C72	C	0.601472	0.775355	-0.403785
C73	C	0.703822	1.007899	-0.301434
C74	C	0.601487	1.086827	-0.403771
C75	C	1.306877	0.542784	0.301631
C76	C	1.409213	0.463856	0.403968
C77	C	1.306864	0.542796	0.000108
C78	C	1.409196	0.463871	0.000111
C79	C	1.306888	0.775332	0.301641
C80	C	1.409227	0.775328	0.403982
C81	C	0.553448	1.078463	0.058971
C82	C	0.457310	1.152614	0.058991
C83	C	0.409223	1.235112	0.000118
C84	C	0.457288	1.243458	-0.058769
C85	C	0.553431	1.169309	-0.058781
C86	C	0.553433	1.169308	-0.392949
C87	C	0.457292	1.243476	-0.489097
C88	C	0.409198	1.235162	-0.596065
C89	C	0.457261	1.152673	-0.606885
C90	C	0.553408	1.078507	-0.510738
C91	C	1.457278	0.381375	0.393147
C92	C	1.553449	0.307207	0.489294
C93	C	1.601548	0.315521	0.596262
C94	C	1.553479	0.398010	0.607082
C95	C	1.457315	0.472177	0.510935
C96	C	1.457261	0.472220	-0.058764
C97	C	1.553426	0.398069	-0.058757
C98	C	1.601516	0.315572	0.000119
C99	C	1.553447	0.307225	0.059001
C100	C	1.457291	0.381374	0.059000
C101	C	0.553391	0.820768	-0.510741
C102	C	0.457241	0.820761	-0.606897
C103	C	0.457259	0.729928	-0.489127
C104	C	0.553414	0.729930	-0.392973
H105	H	0.743655	0.658809	0.151140
H106	H	0.418116	0.692946	-0.480338
H107	H	0.592520	1.011350	-0.519565
F108	F	1.406103	0.372507	0.279312
H109	H	1.219019	0.692927	0.519735
F110	F	0.604612	0.990670	0.121640
F111	F	1.406164	0.559957	0.522470
H112	H	0.592522	0.857752	-0.519550
F113	F	1.604587	0.219424	0.477756
F114	F	1.703893	0.236578	0.698582
H115	H	0.791699	0.857735	0.306035
H116	H	0.791707	0.857737	0.480484
H117	H	0.418089	1.145916	-0.693991
F118	F	0.406153	1.331259	-0.477558
H119	H	0.592577	1.176094	-0.305859
F120	F	0.306868	1.314105	-0.698384
H121	H	1.219009	0.692946	0.694156
F122	F	1.604679	0.406845	0.720935
F123	F	0.762255	0.178177	-0.121443
H124	H	0.418187	1.145801	0.106943
F125	F	1.406100	0.560013	-0.121430
H126	H	1.592548	0.404882	-0.106710
H127	H	1.679813	0.255201	0.000111
F128	F	0.406077	0.869093	-0.720728
F129	F	0.762250	0.331260	-0.121450
H130	H	0.330936	1.295482	0.000136
F131	F	1.604639	0.219417	0.121654
H132	H	0.592565	0.692945	-0.305878
H133	H	0.569248	0.658824	0.151199
H134	H	0.418121	1.310638	-0.106700
H135	H	1.418158	0.374565	0.106940
H136	H	1.219013	0.011319	0.106943
H137	H	0.441450	0.891875	-0.151003
F138	F	0.762237	0.559989	-0.121464
F139	F	0.762250	0.406910	-0.121474
F140	F	0.234197	0.907928	-0.171767
F141	F	1.248456	0.143777	0.121651
H142	H	0.592545	1.176118	-0.106739
H143	H	1.218995	0.374592	0.106898
F144	F	1.248443	0.219425	0.121636
