data_functionalizedCrystal
_audit_creation_method	'MofGen! by Chris Wilmer'
_symmetry_space_group_name_H-M	'P1'
_symmetry_Int_Tables_number	1
_symmetry_cell_setting	triclinic
loop_
_symmetry_equiv_pos_as_xyz
  x,y,z
_cell_length_a	14.044220
_cell_length_b	9.065218
_cell_length_c	12.503572
_cell_angle_alpha	86.429307
_cell_angle_beta	86.156832
_cell_angle_gamma	90.897619
loop_
_atom_site_label
_atom_site_type_symbol
_atom_site_fract_x
_atom_site_fract_y
_atom_site_fract_z
O1	O	0.133725	-1.983617	0.089327
O2	O	0.145138	-1.555597	0.089329
O3	O	0.001393	-1.763181	0.089317
O4	O	0.277471	-1.776032	0.089338
O5	O	0.012221	-1.747572	-0.089324
O6	O	0.155967	-1.539988	-0.089312
O7	O	0.144554	-1.968007	-0.089314
Cu8	Cu	0.151249	-1.752572	-0.105625
Cu9	Cu	0.138443	-1.771032	0.105639
O10	O	0.288300	-1.760423	-0.089303
C11	C	0.149456	-1.492684	0.000008
C12	C	0.146176	-1.328478	0.000009
C13	C	-0.028556	-1.749752	-0.000004
C14	C	-0.133925	-1.732975	-0.000005
C15	C	0.140236	-2.030920	0.000009
C16	C	0.143516	-2.195127	0.000015
C17	C	-0.326851	-1.702305	0.000011
C18	C	-0.383463	-1.821294	0.000013
C19	C	-0.490813	-1.804228	0.000022
C20	C	-0.219491	-1.719368	0.000002
C21	C	0.318248	-1.773852	0.000021
C22	C	0.423617	-1.790630	0.000029
N23	N	0.160256	-1.739599	-0.254216
C24	C	0.173513	-1.720517	-0.473330
C25	C	0.116175	-1.803094	-0.526662
C26	C	0.123551	-1.792476	-0.648585
C27	C	0.166138	-1.731133	-0.351397
N28	N	0.129429	-1.784016	0.254231
H29	H	-0.351312	-1.935987	0.000085
H30	H	-0.359005	-1.587627	0.000014
H31	H	0.228139	-1.641852	-0.519233
H32	H	0.061547	-1.881765	-0.480754
