data_functionalizedCrystal
_audit_creation_method	'MofGen! by Chris Wilmer'
_symmetry_space_group_name_H-M	'P1'
_symmetry_Int_Tables_number	1
_symmetry_cell_setting	triclinic
loop_
_symmetry_equiv_pos_as_xyz
  x,y,z
_cell_length_a	12.837932
_cell_length_b	12.837942
_cell_length_c	9.130313
_cell_angle_alpha	89.996012
_cell_angle_beta	89.996786
_cell_angle_gamma	94.829322
loop_
_atom_site_label
_atom_site_type_symbol
_atom_site_fract_x
_atom_site_fract_y
_atom_site_fract_z
O1	O	1.402336	0.272149	-0.121802
O2	O	1.099202	0.258704	-0.121804
O3	O	1.244048	0.113860	-0.121794
O4	O	1.257491	0.416994	-0.121812
O5	O	1.244036	0.113854	0.121805
O6	O	1.099191	0.258698	0.121795
O7	O	1.402325	0.272144	0.121797
Cu8	Cu	1.250757	0.265421	0.144038
Cu9	Cu	1.250770	0.265427	-0.144045
O10	O	1.257480	0.416988	0.121787
C11	C	1.060127	0.254160	-0.000005
C12	C	0.943712	0.240614	-0.000005
C13	C	0.782686	0.127402	0.000004
C14	C	0.892069	0.140122	0.000003
C15	C	0.885965	0.328393	-0.000008
C16	C	0.776582	0.315673	-0.000006
C17	C	0.724947	0.215174	-0.000003
C18	C	0.615562	0.202455	-0.000012
C19	C	0.609460	0.390725	-0.000012
C20	C	0.718843	0.403445	-0.000013
C21	C	1.239501	0.074788	0.000005
C22	C	1.225956	-0.041627	0.000002
C23	C	1.388786	-0.266500	-0.000027
C24	C	1.376064	-0.375883	-0.000030
C25	C	1.187793	-0.369777	-0.000016
C26	C	1.200514	-0.260394	-0.000013
C27	C	1.301014	-0.208760	-0.000017
C28	C	1.313734	-0.099375	-0.000004
C29	C	1.125464	-0.093271	-0.000000
C30	C	1.112742	-0.202654	-0.000003
C31	C	1.441400	0.276688	-0.000005
C32	C	1.557815	0.290233	-0.000014
C33	C	1.262027	0.456060	-0.000015
C34	C	1.275571	0.572475	-0.000022
N35	N	1.250755	0.265416	0.346661
N36	N	1.250780	0.265424	-0.346668
C37	C	1.314919	0.201311	0.423317
C38	C	1.314929	0.201312	0.576654
C39	C	1.186608	0.329532	0.576665
C40	C	1.186593	0.329525	0.423331
H41	H	0.740644	0.045571	-0.000008
O42	O	1.486384	-0.216291	0.000235
C43	C	1.609983	-0.096298	0.126395
C44	C	1.499431	-0.153108	0.126298
H45	H	1.620559	-0.045185	0.228290
H46	H	1.670577	-0.156314	0.126489
H47	H	1.620632	-0.045281	0.024403
H48	H	1.488680	-0.204124	0.228272
H49	H	1.438892	-0.093038	0.126127
H50	H	1.134338	0.381726	0.360913
H51	H	1.105971	-0.411837	-0.000029
O52	O	1.377265	0.138934	0.349066
C53	C	1.504582	0.011798	0.365247
C54	C	1.434011	0.082375	0.449512
H55	H	1.550496	-0.033932	0.446420
H56	H	1.454264	-0.045060	0.293523
H57	H	1.561290	0.062203	0.293396
H58	H	1.377292	0.032055	0.521442
H59	H	1.484395	0.139240	0.521143
O60	O	1.015049	-0.252651	-0.000065
C61	C	0.829652	-0.235048	0.000044
C62	C	0.940232	-0.178298	0.000077
H63	H	0.769133	-0.174960	0.000190
H64	H	0.818921	-0.286065	-0.101930
H65	H	0.819044	-0.286146	0.101962
H66	H	0.950917	-0.127146	-0.101772
H67	H	0.950912	-0.127347	0.102118
H68	H	1.367176	0.149111	0.639064
H69	H	1.447538	-0.422891	-0.000043
H70	H	0.939077	0.068648	0.000009
O71	O	1.124136	0.391689	0.651083
C72	C	0.948173	0.434976	0.697980
C73	C	1.018799	0.364496	0.613639
H74	H	0.862996	0.413031	0.667714
H75	H	0.959116	0.423962	0.820756
H76	H	0.970137	0.520175	0.667830
H77	H	0.996880	0.279271	0.643666
H78	H	1.007846	0.375600	0.490883
H79	H	1.053994	-0.046247	0.000020
H80	H	0.928026	0.410215	0.000002
O81	O	0.565518	0.104782	-0.000202
C82	C	0.537227	-0.060003	-0.126429
C83	C	0.593983	0.050574	-0.126385
H84	H	0.560203	-0.103855	-0.228453
H85	H	0.560257	-0.103991	-0.024548
H86	H	0.449134	-0.053995	-0.126362
H87	H	0.682087	0.044662	-0.126504
H88	H	0.570867	0.094520	-0.228258
H89	H	1.395566	-0.057336	-0.000001
H90	H	0.562437	0.462196	-0.000018
O91	O	0.769171	0.500991	-0.000080
C92	C	0.934975	0.604028	0.000011
C93	C	0.878115	0.493498	0.000055
H94	H	1.023065	0.598007	0.000152
H95	H	0.912048	0.647973	-0.101963
H96	H	0.911892	0.647938	0.101928
H97	H	0.901168	0.449500	-0.101793
H98	H	0.901044	0.449632	0.102097
