data_functionalizedCrystal
_audit_creation_method	'MofGen! by Chris Wilmer'
_symmetry_space_group_name_H-M	'P1'
_symmetry_Int_Tables_number	1
_symmetry_cell_setting	triclinic
loop_
_symmetry_equiv_pos_as_xyz
  x,y,z
_cell_length_a	16.109301
_cell_length_b	16.974813
_cell_length_c	14.586319
_cell_angle_alpha	86.341649
_cell_angle_beta	89.998857
_cell_angle_gamma	83.428501
loop_
_atom_site_label
_atom_site_type_symbol
_atom_site_fract_x
_atom_site_fract_y
_atom_site_fract_z
O1	O	1.103043	0.101635	-0.083729
O2	O	1.603043	0.601635	0.416271
O3	O	0.860971	0.114283	-0.084680
O4	O	1.360971	0.614283	0.415320
O5	O	0.988755	-0.007146	-0.075660
O6	O	1.488755	0.492854	0.424340
O7	O	0.975259	0.223064	-0.092749
O8	O	1.475259	0.723064	0.407251
O9	O	0.988747	-0.007148	0.076821
O10	O	1.488747	0.492852	0.576821
O11	O	0.860962	0.114281	0.067801
O12	O	1.360962	0.614281	0.567801
O13	O	1.103035	0.101633	0.068752
O14	O	1.603035	0.601633	0.568752
Cu15	Cu	0.981997	0.107957	0.082199
Cu16	Cu	1.481997	0.607957	0.582199
Cu17	Cu	0.982008	0.107959	-0.098127
Cu18	Cu	1.482008	0.607959	0.401873
O19	O	0.975250	0.223062	0.059732
O20	O	1.475250	0.723062	0.559732
C21	C	0.829992	0.113769	-0.008403
C22	C	1.329992	0.613769	0.491597
C23	C	0.737698	0.112233	-0.008294
C24	C	1.237698	0.612233	0.491706
C25	C	0.428642	0.179265	-0.013254
C26	C	0.928642	0.679265	0.486746
C27	C	0.515361	0.180716	-0.013367
C28	C	1.015361	0.680716	0.486633
C29	C	0.535358	0.036645	-0.002684
C30	C	1.035358	0.536645	0.497316
C31	C	0.448640	0.035195	-0.002578
C32	C	0.948640	0.535195	0.497422
C33	C	0.395284	0.106508	-0.007858
C34	C	0.895284	0.606508	0.492142
C35	C	0.568721	0.109408	-0.008078
C36	C	1.068721	0.609408	0.491922
C37	C	0.662746	0.110980	-0.008200
C38	C	1.162746	0.610980	0.491800
C39	C	0.301254	0.104935	-0.007738
C40	C	0.801254	0.604935	0.492262
C41	C	0.988238	-0.036606	0.002765
C42	C	1.488238	0.463394	0.502765
C43	C	0.986698	-0.124382	0.009275
C44	C	1.486698	0.375618	0.509275
C45	C	0.985981	-0.165614	-0.070783
C46	C	1.485981	0.334386	0.429217
C47	C	0.984529	-0.248089	-0.064664
C48	C	1.484529	0.251911	0.435336
C49	C	0.983799	-0.289330	0.021515
C50	C	1.483799	0.210670	0.521515
C51	C	0.984514	-0.248092	0.101579
C52	C	1.484514	0.251908	0.601579
C53	C	0.985960	-0.165618	0.095459
C54	C	1.485960	0.334382	0.595459
C55	C	0.979468	-0.535990	0.048733
C56	C	1.479468	-0.035990	0.548733
C57	C	0.978024	-0.618470	0.054847
C58	C	1.478024	-0.118470	0.554847
C59	C	0.978038	-0.618461	-0.111397
C60	C	1.478038	-0.118461	0.388603
C61	C	0.979489	-0.535986	-0.117510
C62	C	1.479489	-0.035986	0.382490
C63	C	0.980199	-0.494755	-0.037445
C64	C	1.480199	0.005245	0.462555
N65	N	0.982318	-0.373633	0.027772
N66	N	1.482318	0.126367	0.527772
N67	N	0.981675	-0.410453	-0.043704
N68	N	1.481675	0.089547	0.456296
C69	C	1.134013	0.102146	-0.007527
C70	C	1.634013	0.602146	0.492473
C71	C	1.226307	0.103682	-0.007642
C72	C	1.726307	0.603682	0.492358
C73	C	0.975768	0.252521	-0.018696
C74	C	1.475768	0.752521	0.481304
C75	C	0.977308	0.340298	-0.025211
C76	C	1.477308	0.840298	0.474789
N77	N	0.981996	0.107955	0.209031
N78	N	1.481996	0.607955	0.709031
N79	N	0.982016	0.107955	-0.224959
N80	N	1.482016	0.607955	0.275041
C81	C	1.038598	0.054204	0.448030
C82	C	1.538598	0.554204	0.948030
C83	C	1.038600	0.054202	0.544012
C84	C	1.538600	0.554202	1.044012
C85	C	0.925408	0.161708	0.536035
C86	C	1.425408	0.661708	1.036035
C87	C	0.925402	0.161705	0.440056
C88	C	1.425402	0.661705	0.940056
C89	C	0.982002	0.107954	0.396056
C90	C	1.482002	0.607954	0.896056
C91	C	0.982010	0.107955	0.588016
C92	C	1.482010	0.607955	1.088016
C93	C	0.982012	0.107953	0.692084
C94	C	1.482012	0.607953	1.192084
C95	C	0.981999	0.107955	0.291982
C96	C	1.481999	0.607955	0.791982
H97	H	0.542516	0.239963	-0.017762
H98	H	1.042516	0.739963	0.482238
H99	H	0.879311	0.205476	0.397735
H100	H	1.379311	0.705476	0.897735
H101	H	0.983949	-0.281657	-0.129856
H102	H	1.483949	0.218343	0.370144
H103	H	0.578811	-0.021416	0.001617
H104	H	1.078811	0.478584	0.501617
O105	O	0.376778	0.248514	-0.018230
O106	O	0.876778	0.748514	0.481770
C107	C	0.326001	0.251979	0.060472
C108	C	0.826001	0.751979	0.560472
H109	H	0.357805	0.211537	0.118671
H110	H	0.857805	0.711537	0.618671
H111	H	0.316175	0.315673	0.082251
H112	H	0.816175	0.815673	0.582251
H113	H	0.262965	0.231529	0.044134
H114	H	0.762965	0.731529	0.544134
O115	O	0.416370	-0.035556	0.002710
O116	O	0.916370	0.464444	0.502710
C117	C	0.482056	-0.098188	0.007333
C118	C	0.982056	0.401812	0.507333
H119	H	0.540942	-0.076043	0.034561
H120	H	1.040942	0.423957	0.534561
H121	H	0.463988	-0.148990	0.055367
H122	H	0.963988	0.351010	0.555367
H123	H	0.494355	-0.120176	-0.064190
H124	H	0.994355	0.379824	0.435810
O125	O	0.986651	-0.125673	-0.154572
O126	O	1.486651	0.374327	0.345428
C127	C	0.985727	-0.179758	-0.223920
C128	C	1.485727	0.320242	0.276080
H129	H	0.958386	-0.235268	-0.195432
H130	H	1.458386	0.264732	0.304568
H131	H	0.945803	-0.150898	-0.284197
H132	H	1.445803	0.349102	0.215803
H133	H	1.052242	-0.196840	-0.248207
H134	H	1.552242	0.303160	0.251793
O135	O	0.986769	-0.125494	0.173167
O136	O	1.486769	0.374506	0.673167
C137	C	1.059582	-0.086773	0.175293
C138	C	1.559582	0.413227	0.675293
H139	H	1.083802	-0.077401	0.102434
H140	H	1.583802	0.422599	0.602434
H141	H	1.044404	-0.026762	0.206022
H142	H	1.544404	0.473238	0.706022
H143	H	1.109417	-0.124842	0.219141
H144	H	1.609417	0.375158	0.719141
O145	O	1.093506	0.002032	0.405143
O146	O	1.593506	0.502032	0.905143
C147	C	1.081336	0.013523	0.309285
C148	C	1.581336	0.513523	0.809285
H149	H	1.050241	0.076394	0.291493
H150	H	1.550241	0.576394	0.791493
H151	H	1.144292	0.004680	0.273439
H152	H	1.644292	0.504680	0.773439
H153	H	1.039638	-0.031214	0.285410
H154	H	1.539638	0.468786	0.785410
O155	O	0.980155	-0.496043	-0.201298
O156	O	1.480155	0.003957	0.298702
C157	C	0.979232	-0.550125	-0.270650
C158	C	1.479232	-0.050125	0.229350
H159	H	0.951890	-0.605636	-0.242166
H160	H	1.451890	-0.105636	0.257834
H161	H	0.939309	-0.521262	-0.330927
H162	H	1.439309	-0.021262	0.169073
H163	H	1.045747	-0.567206	-0.294935
H164	H	1.545747	-0.067206	0.205065
H165	H	0.977458	-0.652040	-0.176581
H166	H	1.477458	-0.152040	0.323419
H167	H	0.977426	-0.652047	0.125028
H168	H	1.477426	-0.152047	0.625028
H169	H	0.980063	-0.502432	0.113927
H170	H	1.480063	-0.002432	0.613927
H171	H	1.084685	0.010433	0.586327
H172	H	1.584685	0.510433	1.086327
O173	O	0.983843	-0.288279	0.185222
O174	O	1.483843	0.211721	0.685222
C175	C	0.982397	-0.369913	0.173459
C176	C	1.482397	0.130087	0.673459
H177	H	1.008509	-0.384453	0.103103
H178	H	1.508509	0.115547	0.603103
H179	H	1.022194	-0.406286	0.229243
H180	H	1.522194	0.093714	0.729243
H181	H	0.915320	-0.385010	0.178520
H182	H	1.415320	0.114990	0.678520
H183	H	0.879327	0.205472	0.571869
H184	H	1.379327	0.705472	1.071869
