data_functionalizedCrystal
_audit_creation_method	'MofGen! by Chris Wilmer'
_symmetry_space_group_name_H-M	'P1'
_symmetry_Int_Tables_number	1
_symmetry_cell_setting	triclinic
loop_
_symmetry_equiv_pos_as_xyz
  x,y,z
_cell_length_a	6.394989
_cell_length_b	17.699083
_cell_length_c	16.176319
_cell_angle_alpha	90.007696
_cell_angle_beta	90.006825
_cell_angle_gamma	84.890363
loop_
_atom_site_label
_atom_site_type_symbol
_atom_site_fract_x
_atom_site_fract_y
_atom_site_fract_z
O1	O	-2.770874	-0.123990	-0.068740
O2	O	-2.162714	-0.130236	-0.068744
O3	O	-2.483976	-0.017099	-0.068735
O4	O	-2.449612	-0.237127	-0.068749
O5	O	-2.483932	-0.017091	0.068758
O6	O	-2.162670	-0.130228	0.068749
O7	O	-2.770830	-0.123982	0.068753
Cu8	Cu	-2.466746	-0.127104	0.081305
Cu9	Cu	-2.466798	-0.127114	-0.081296
O10	O	-2.449568	-0.237119	0.068744
C11	C	-2.482722	0.011114	0.000012
C12	C	-2.479028	0.095170	0.000012
C13	C	-2.450821	-0.265332	-0.000005
C14	C	-2.454515	-0.349388	-0.000011
N15	N	-2.466724	-0.127097	0.195671
C16	C	-2.084876	-0.128997	0.000007
C17	C	-1.848661	-0.125223	0.000010
N18	N	-2.466836	-0.127115	-0.195662
C19	C	-2.667602	0.141867	0.000015
C20	C	-2.664119	0.220846	0.000007
C21	C	-2.472059	0.253126	0.000004
C22	C	-2.283471	0.206424	-0.000001
C23	C	-2.286956	0.127446	0.000000
C24	C	-2.269410	0.524930	-0.000008
C25	C	-2.265939	0.603914	-0.000007
C26	C	-2.646572	0.618330	-0.000001
C27	C	-2.650058	0.539352	0.000000
C28	C	-2.461471	0.492657	-0.000009
C29	C	-2.465250	0.407019	-0.000002
C30	C	-2.468278	0.338763	0.000003
C31	C	-2.609022	-0.077022	0.238939
C32	C	-2.609032	-0.077021	0.325486
C33	C	-2.466754	-0.127100	0.368763
C34	C	-2.324441	-0.177178	0.325489
C35	C	-2.324422	-0.177175	0.238943
C36	C	-2.324512	-0.177193	0.674517
C37	C	-2.324547	-0.177194	0.761069
C38	C	-2.609123	-0.077040	0.761060
C39	C	-2.609104	-0.077036	0.674514
C40	C	-2.466785	-0.127111	0.631247
C41	C	-2.466772	-0.127110	0.537403
C42	C	-2.466774	-0.127105	0.462606
H43	H	-2.817675	0.258863	0.000011
H44	H	-2.133400	0.089426	-0.000002
O45	O	-2.186406	-0.225926	0.196947
C46	C	-2.063236	-0.356329	0.170485
C47	C	-2.219700	-0.301205	0.218081
H48	H	-2.090070	-0.417203	0.187568
H49	H	-2.087654	-0.347789	0.101186
H50	H	-1.896031	-0.344796	0.187509
H51	H	-2.386966	-0.312704	0.201127
H52	H	-2.195099	-0.309756	0.287369
H53	H	-2.109532	0.630193	-0.000008
H54	H	-2.724890	-0.036245	0.203708
O55	O	-2.747643	-0.028463	0.803051
C56	C	-3.111036	0.012380	0.829465
C57	C	-2.954398	-0.042687	0.781877
H58	H	-3.278231	0.000910	0.812350
H59	H	-3.086799	0.003783	0.898765
H60	H	-3.084019	0.073256	0.812464
H61	H	-2.981320	-0.103585	0.798809
H62	H	-2.978673	-0.034024	0.712588
O63	O	-2.186113	-0.225866	0.802982
C64	C	-1.903893	-0.325230	0.793863
C65	C	-2.060508	-0.270142	0.746294
H66	H	-1.802330	-0.361052	0.748051
H67	H	-1.799614	-0.291568	0.834375
H68	H	-1.993908	-0.363889	0.834387
H69	H	-1.970664	-0.231470	0.705724
H70	H	-2.164785	-0.303850	0.705833
O71	O	-2.186577	-0.225879	0.632409
C72	C	-2.141575	-0.328851	0.534737
C73	C	-2.298015	-0.273739	0.582359
H74	H	-2.231611	-0.367569	0.494274
H75	H	-2.037403	-0.295209	0.494176
H76	H	-2.039874	-0.364609	0.580558
H77	H	-2.399854	-0.237967	0.536598
H78	H	-2.402042	-0.307425	0.622933
O79	O	-2.747486	-0.028360	0.367388
C80	C	-3.029726	0.070995	0.358246
C81	C	-2.873058	0.015915	0.310690
H82	H	-3.131262	0.106816	0.312426
H83	H	-3.134025	0.037327	0.398723
H84	H	-2.939755	0.109655	0.398806
H85	H	-2.962857	-0.022758	0.270085
H86	H	-2.768760	0.049630	0.270265
H87	H	-2.208585	-0.217951	0.360730
H88	H	-2.806453	0.513074	0.000008
O89	O	-2.854121	0.110478	0.000164
C90	C	-3.078910	0.029656	0.071368
C91	C	-2.867620	0.065164	0.071316
H92	H	-3.089874	-0.007000	0.128880
H93	H	-3.213171	0.076571	0.071419
H94	H	-3.090045	-0.006933	0.013801
H95	H	-2.856281	0.101747	0.128873
H96	H	-2.733461	0.018212	0.071222
O97	O	-2.086082	0.479658	-0.000117
C98	C	-1.761870	0.443142	-0.071369
C99	C	-1.969401	0.494472	-0.071341
H100	H	-1.667495	0.455090	-0.128955
H101	H	-1.667181	0.455137	-0.013866
H102	H	-1.797373	0.381154	-0.071329
H103	H	-1.934088	0.556478	-0.071409
H104	H	-2.064028	0.482413	-0.128838
O105	O	-2.097034	0.237868	-0.000116
C106	C	-1.872162	0.318624	-0.071372
C107	C	-2.083397	0.283080	-0.071339
H108	H	-1.861049	0.355173	-0.128959
H109	H	-1.860963	0.355295	-0.013870
H110	H	-1.738013	0.271668	-0.071335
H111	H	-2.217667	0.329986	-0.071406
H112	H	-2.094413	0.246391	-0.128837
O113	O	-2.747103	-0.028228	0.632581
C114	C	-2.870034	0.102237	0.606373
C115	C	-2.713608	0.047007	0.653852
H116	H	-2.843037	0.163075	0.623566
H117	H	-2.845740	0.093784	0.537055
H118	H	-3.037250	0.090729	0.623391
H119	H	-2.546330	0.058480	0.636903
H120	H	-2.738085	0.055471	0.723158
H121	H	-2.800129	0.656359	0.000002
