data_functionalizedCrystal
_audit_creation_method	'MofGen! by Chris Wilmer'
_symmetry_space_group_name_H-M	'P1'
_symmetry_Int_Tables_number	1
_symmetry_cell_setting	triclinic
loop_
_symmetry_equiv_pos_as_xyz
  x,y,z
_cell_length_a	10.723022
_cell_length_b	14.853567
_cell_length_c	9.798715
_cell_angle_alpha	90.000647
_cell_angle_beta	89.996609
_cell_angle_gamma	84.051078
loop_
_atom_site_label
_atom_site_type_symbol
_atom_site_fract_x
_atom_site_fract_y
_atom_site_fract_z
O1	O	1.655909	0.126439	-0.113470
O2	O	1.292634	0.138543	-0.113473
O3	O	1.483976	0.001312	-0.113475
O4	O	1.464568	0.263669	-0.113467
O5	O	1.483961	0.001312	0.113507
O6	O	1.292620	0.138543	0.113509
O7	O	1.655895	0.126438	0.113513
Zn8	Zn	1.474255	0.132491	0.149549
Zn9	Zn	1.474274	0.132491	-0.149510
O10	O	1.464554	0.263669	0.113515
C11	C	1.246137	0.137663	0.000017
C12	C	1.107609	0.135028	0.000016
C13	C	1.059848	0.055891	0.000012
C14	C	0.916673	0.053167	0.000011
C15	C	1.483089	-0.032281	0.000012
C16	C	1.480454	-0.132379	-0.000000
C17	C	1.355654	-0.545571	0.000025
C18	C	1.582972	-0.565653	0.000027
C19	C	1.585449	-0.471606	0.000019
C20	C	1.473028	-0.414537	0.000016
C21	C	1.358128	-0.451515	0.000021
C22	C	1.700347	-0.434621	0.000028
C23	C	1.702829	-0.340568	0.000021
C24	C	1.590406	-0.283498	0.000008
C25	C	1.475502	-0.320481	0.000012
C26	C	1.363080	-0.263413	0.000009
C27	C	1.248175	-0.300394	0.000003
C28	C	1.245705	-0.394445	0.000008
C29	C	1.592876	-0.189447	0.000003
C30	C	1.365555	-0.169357	0.000005
C31	C	1.702393	0.127319	0.000019
C32	C	1.840921	0.129954	0.000012
C33	C	1.465441	0.297263	0.000025
C34	C	1.468076	0.397360	0.000028
N35	N	1.474252	0.132490	0.353649
N36	N	1.474288	0.132485	-0.353609
C37	C	1.554593	0.074616	0.421425
C38	C	1.554613	0.074613	0.578588
H39	H	0.875546	-0.014589	-0.000026
C40	C	1.236464	-0.051943	-0.116687
C41	C	1.241973	-0.106630	-0.000003
H42	H	1.160166	-0.013224	-0.116694
H43	H	1.305234	-0.016459	-0.116671
H44	H	1.240235	-0.089061	-0.195832
H45	H	1.238212	-0.069512	0.079142
H46	H	1.173184	-0.142118	-0.000007
H47	H	1.262101	-0.575686	0.000014
C48	C	1.023221	-0.289972	-0.000004
C49	C	1.124602	-0.237659	0.000001
H50	H	0.946937	-0.251237	0.000004
H51	H	1.026985	-0.327068	-0.079155
H52	H	1.026979	-0.327077	0.079153
H53	H	1.120849	-0.200558	-0.079161
H54	H	1.120836	-0.200546	0.079161
H55	H	1.152155	-0.424564	0.000004
C56	C	1.307160	0.252892	0.660485
C57	C	1.381425	0.199382	0.567730
H58	H	1.249837	0.294195	0.611912
H59	H	1.262013	0.215203	0.716219
H60	H	1.359267	0.285580	0.716213
H61	H	1.329319	0.166688	0.512007
H62	H	1.426575	0.237076	0.511972
H63	H	0.882039	0.197713	0.000023
H64	H	1.791874	-0.481092	0.000043
H65	H	1.042502	0.200762	0.000011
H66	H	1.124956	-0.009843	0.000004
H67	H	1.674500	-0.612123	0.000040
H68	H	1.796392	-0.310467	0.000024
C69	C	1.787395	-0.177610	-0.116677
C70	C	1.719163	-0.148792	0.000002
H71	H	1.865359	-0.152505	-0.116682
H72	H	1.802012	-0.241782	-0.116656
H73	H	1.741092	-0.158072	-0.195825
H74	H	1.765462	-0.168336	0.079150
H75	H	1.704549	-0.084606	-0.000006
H76	H	1.405478	0.182032	0.411974
H77	H	1.623358	0.025067	0.363101
H78	H	1.623402	0.025069	0.636872
