data_functionalizedCrystal
_audit_creation_method	'MofGen! by Chris Wilmer'
_symmetry_space_group_name_H-M	'P1'
_symmetry_Int_Tables_number	1
_symmetry_cell_setting	triclinic
loop_
_symmetry_equiv_pos_as_xyz
  x,y,z
_cell_length_a	10.654550
_cell_length_b	8.559649
_cell_length_c	9.130313
_cell_angle_alpha	90.000338
_cell_angle_beta	90.003144
_cell_angle_gamma	77.131784
loop_
_atom_site_label
_atom_site_type_symbol
_atom_site_fract_x
_atom_site_fract_y
_atom_site_fract_z
O1	O	1.644675	0.224181	0.121910
O2	O	1.276990	0.245540	0.121886
O3	O	1.493226	0.002617	0.121899
O4	O	1.428439	0.467103	0.121898
O5	O	1.493227	0.002617	-0.121700
O6	O	1.276991	0.245540	-0.121713
O7	O	1.644676	0.224181	-0.121688
Cu8	Cu	1.460833	0.234860	-0.143943
Cu9	Cu	1.460833	0.234860	0.144141
O10	O	1.428440	0.467103	-0.121701
C11	C	1.230355	0.243972	0.000084
C12	C	1.091396	0.239279	0.000075
C13	C	1.498136	-0.056858	0.000103
C14	C	1.512750	-0.234076	0.000112
C15	C	0.997136	0.382308	0.000096
C16	C	0.866571	0.377890	0.000121
C17	C	0.924542	0.087401	0.000111
C18	C	1.055103	0.091821	0.000075
C19	C	0.963666	0.550020	0.000108
C20	C	0.833101	0.545601	0.000133
C21	C	1.691311	0.225749	0.000117
C22	C	1.830270	0.230441	0.000136
C23	C	1.423530	0.526579	0.000098
C24	C	1.408916	0.703797	0.000099
N25	N	1.460843	0.234860	-0.346566
C26	C	1.527573	0.332555	-0.576576
C27	C	1.527574	0.332566	-0.423239
C28	C	1.394096	0.137149	-0.423237
C29	C	1.394088	0.137148	-0.576571
C30	C	1.604640	0.445373	-0.576577
C31	C	1.604641	0.445383	-0.423240
N32	N	1.460834	0.234848	0.346763
H33	H	0.894975	-0.032654	0.000133
C34	C	1.321596	0.030908	-0.659546
C35	C	1.263172	-0.054685	-0.559590
C36	C	1.196393	-0.152586	-0.635975
H37	H	1.257473	0.095474	-0.719367
H38	H	1.380062	-0.042033	-0.719330
H39	H	1.204711	0.018247	-0.499830
H40	H	1.327266	-0.119281	-0.499765
H41	H	1.254859	-0.225527	-0.695759
H42	H	1.132277	-0.088008	-0.695794
H43	H	1.156755	-0.210684	-0.568167
C44	C	1.737620	0.378759	-0.640213
C45	C	1.774445	0.496192	-0.726473
C46	C	1.896929	0.434875	-0.785136
H47	H	1.797778	0.348594	-0.562878
H48	H	1.735560	0.287676	-0.698855
H49	H	1.776514	0.587246	-0.667833
H50	H	1.714321	0.526369	-0.803831
H51	H	1.894869	0.343793	-0.843779
H52	H	1.957076	0.404712	-0.707793
H53	H	1.921925	0.514539	-0.843681
H54	H	0.782195	0.596286	-0.105035
C55	C	1.545960	0.613287	-0.631790
C56	C	1.510074	0.716002	-0.512269
C57	C	1.455997	0.870685	-0.563075
H58	H	1.607364	0.650721	-0.689557
H59	H	1.472195	0.611107	-0.689546
H60	H	1.583829	0.718188	-0.454537
H61	H	1.448657	0.678620	-0.454489
H62	H	1.382232	0.868505	-0.620831
H63	H	1.517408	0.908103	-0.620843
H64	H	1.431631	0.940393	-0.481989
H65	H	1.308838	-0.213815	0.000088
C66	C	1.742110	0.392764	-0.367780
C67	C	1.795797	0.238147	-0.419006
C68	C	1.922414	0.189626	-0.367913
H69	H	1.791565	0.464776	-0.402416
H70	H	1.742121	0.392695	-0.263725
H71	H	1.795794	0.238228	-0.523039
H72	H	1.746379	0.166099	-0.384374
H73	H	1.922425	0.189557	-0.263858
H74	H	1.971857	0.261649	-0.402553
H75	H	1.958853	0.084709	-0.402651
H76	H	0.784841	0.608792	0.102087
H77	H	1.131848	-0.024647	0.000037
C78	C	0.994000	0.637492	-0.135705
C79	C	1.124611	0.641725	-0.135361
C80	C	1.152599	0.722304	-0.260436
H81	H	0.975272	0.582961	-0.220764
H82	H	0.943123	0.743834	-0.135705
H83	H	1.175471	0.535403	-0.135375
H84	H	1.143370	0.696268	-0.050330
H85	H	1.101723	0.828646	-0.260436
H86	H	1.133865	0.667764	-0.345486
H87	H	1.241217	0.725200	-0.260213
H88	H	1.612835	-0.316473	0.000107
H89	H	0.993805	0.603422	0.105280
H90	H	1.339752	0.057606	-0.360797
H91	H	1.552714	0.565577	-0.375686
