data_functionalizedCrystal
_audit_creation_method	'MofGen! by Chris Wilmer'
_symmetry_space_group_name_H-M	'P1'
_symmetry_Int_Tables_number	1
_symmetry_cell_setting	triclinic
loop_
_symmetry_equiv_pos_as_xyz
  x,y,z
_cell_length_a	16.120297
_cell_length_b	14.908618
_cell_length_c	14.908520
_cell_angle_alpha	89.795563
_cell_angle_beta	95.992230
_cell_angle_gamma	90.249346
loop_
_atom_site_label
_atom_site_type_symbol
_atom_site_fract_x
_atom_site_fract_y
_atom_site_fract_z
Zn1	Zn	-0.566614	-1.321184	-0.466671
Zn2	Zn	-0.434793	-1.320027	-0.610236
Zn3	Zn	-0.418797	-1.179371	-0.450384
Zn4	Zn	-0.565646	-1.162168	-0.608240
O5	O	-0.496463	-1.245688	-0.533883
O6	O	-0.556227	-1.446445	-0.493366
O7	O	-0.316047	-1.308083	-0.583050
O8	O	-0.432116	-1.205866	-0.326398
O9	O	-0.459379	-1.445594	-0.598843
O10	O	-0.540716	-1.310056	-0.338364
O11	O	-0.304295	-1.204744	-0.465608
O12	O	-0.431178	-1.051675	-0.463673
O13	O	-0.682399	-1.176548	-0.595442
O14	O	-0.539067	-1.039036	-0.579649
O15	O	-0.683109	-1.293376	-0.491431
O16	O	-0.458441	-1.291403	-0.736117
O17	O	-0.554578	-1.175425	-0.734651
C18	C	-0.483283	-1.012837	-0.519678
C19	C	-0.477665	-0.913220	-0.513623
C20	C	-0.579319	-0.712915	-0.623185
C21	C	-0.574044	-0.619316	-0.617499
C22	C	-0.461844	-0.632420	-0.496563
C23	C	-0.467119	-0.726020	-0.502249
C24	C	-0.525858	-0.766263	-0.565562
C25	C	-0.531129	-0.859865	-0.571252
C26	C	-0.418933	-0.872968	-0.450312
C27	C	-0.413657	-0.779368	-0.444626
C28	C	-0.713839	-1.233172	-0.545030
C29	C	-0.806472	-1.227839	-0.549781
C30	C	-0.976070	-1.218070	-0.558432
C31	C	-1.017704	-1.273499	-0.509073
C32	C	-1.112074	-1.268063	-0.513887
C33	C	-0.881691	-1.223504	-0.553620
C34	C	-0.279932	-1.258210	-0.522716
C35	C	-0.187297	-1.263732	-0.517722
C36	C	-0.508160	-1.231445	-0.768095
C37	C	-0.513196	-1.225433	-0.868298
C38	C	-0.509688	-0.479448	-0.548136
C39	C	-0.515307	-0.579065	-0.554191
C40	C	-0.422645	-1.335015	-1.058068
C41	C	-0.427375	-1.329369	-1.152218
C42	C	-0.527389	-1.208499	-1.150750
C43	C	-0.522659	-1.214145	-1.056600
C44	C	-0.470285	-1.277404	-1.010262
C45	C	-0.465551	-1.283046	-0.916110
C46	C	-0.565569	-1.162181	-0.914645
C47	C	-0.570299	-1.156534	-1.008795
C48	C	-0.484740	-1.260009	-0.298758
C49	C	-0.479744	-1.266112	-0.198562
H50	H	-0.627143	-0.745682	-0.674742
F51	F	-0.971659	-1.340876	-0.449130
H52	H	-0.578956	-0.892629	-0.622806
F53	F	-1.022116	-1.150714	-0.618390
F54	F	-0.409807	-1.350367	-0.866795
F55	F	-0.366894	-1.402328	-1.008748
F56	F	-0.583135	-1.141189	-1.200083
F57	F	-0.362026	-0.929752	-0.388988
F58	F	-0.630947	-0.562541	-0.678827
F59	F	-0.376672	-1.390688	-1.203093
H60	H	-0.612943	-1.105033	-1.046536
F61	F	-0.616265	-1.100854	-0.863759
H62	H	-0.414026	-0.599637	-0.445011
H63	H	-0.365836	-0.746589	-0.393076
