data_functionalizedCrystal
_audit_creation_method	'MofGen! by Chris Wilmer'
_symmetry_space_group_name_H-M	'P1'
_symmetry_Int_Tables_number	1
_symmetry_cell_setting	triclinic
loop_
_symmetry_equiv_pos_as_xyz
  x,y,z
_cell_length_a	17.699083
_cell_length_b	26.210047
_cell_length_c	17.699083
_cell_angle_alpha	89.996398
_cell_angle_beta	83.283015
_cell_angle_gamma	90.002990
loop_
_atom_site_label
_atom_site_type_symbol
_atom_site_fract_x
_atom_site_fract_y
_atom_site_fract_z
O1	O	1.004082	0.042358	0.095700
O2	O	1.504082	0.542358	0.595700
O3	O	0.783704	0.042375	0.108153
O4	O	1.283704	0.542375	0.608153
O5	O	0.900119	0.042362	-0.008263
O6	O	1.400119	0.542362	0.491737
O7	O	0.887667	0.042372	0.212116
O8	O	1.387667	0.542372	0.712116
O9	O	0.900097	-0.042496	-0.008244
O10	O	1.400097	0.457504	0.491756
O11	O	0.783681	-0.042483	0.108171
O12	O	1.283681	0.457517	0.608171
O13	O	1.004060	-0.042500	0.095719
O14	O	1.504060	0.457500	0.595719
Cu15	Cu	0.893868	-0.050239	0.101946
Cu16	Cu	1.393868	0.449761	0.601946
Cu17	Cu	0.893895	0.050115	0.101925
Cu18	Cu	1.393895	0.550115	0.601925
O19	O	0.887644	-0.042486	0.212134
O20	O	1.387644	0.457514	0.712134
C21	C	0.755495	-0.000052	0.107716
C22	C	1.255495	0.499948	0.607716
C23	C	0.671477	-0.000045	0.106377
C24	C	1.171477	0.499955	0.606377
N25	N	0.893855	-0.120823	0.101961
N26	N	1.393855	0.379177	0.601961
C27	C	0.622856	-0.000042	0.174711
C28	C	1.122856	0.499958	0.674711
C29	C	0.543913	-0.000049	0.173448
C30	C	1.043913	0.499951	0.673448
C31	C	0.513592	-0.000055	0.103852
C32	C	1.013592	0.499945	0.603852
C33	C	0.562219	-0.000059	0.035513
C34	C	1.062219	0.499941	0.535513
C35	C	0.641161	-0.000056	0.036776
C36	C	1.141161	0.499944	0.536776
C37	C	0.243856	-0.000072	0.030418
C38	C	0.743856	0.499928	0.530418
C39	C	0.164908	-0.000074	0.029160
C40	C	0.664908	0.499926	0.529160
C41	C	0.146608	-0.000065	0.167090
C42	C	0.646608	0.499935	0.667090
C43	C	0.225550	-0.000062	0.168353
C44	C	0.725550	0.499938	0.668353
C45	C	0.274170	-0.000069	0.100015
C46	C	0.774170	0.499931	0.600015
C47	C	0.359769	-0.000063	0.101384
C48	C	0.859769	0.499937	0.601384
C49	C	0.427995	-0.000058	0.102481
C50	C	0.927995	0.499942	0.602481
C51	C	0.945438	-0.473343	0.050388
C52	C	1.445438	0.026657	0.550388
C53	C	0.945455	-0.687002	0.050377
C54	C	1.445455	-0.187002	0.550377
O55	O	0.989284	-0.714629	0.006531
O56	O	1.489284	-0.214629	0.506531
N57	N	0.893899	-0.713717	0.101908
N58	N	1.393899	-0.213717	0.601908
C59	C	0.842332	-0.687015	0.153442
C60	C	1.342332	-0.187015	0.653442
O61	O	0.798475	-0.714640	0.197267
O62	O	1.298475	-0.214640	0.697267
C63	C	0.842312	-0.473357	0.153449
C64	C	1.342312	0.026643	0.653449
C65	C	0.893877	-0.446644	0.101919
C66	C	1.393877	0.053356	0.601919
C67	C	0.996998	-0.446631	-0.001138
C68	C	1.496998	0.053369	0.498862
C69	C	0.996996	-0.393219	-0.001132
C70	C	1.496996	0.106781	0.498868
C71	C	0.945434	-0.366520	0.050400
C72	C	1.445434	0.133480	0.550400
C73	C	0.893875	-0.393233	0.101925
C74	C	1.393875	0.106767	0.601925
C75	C	0.790742	-0.446655	0.204978
C76	C	1.290742	0.053345	0.704978
C77	C	0.790740	-0.393238	0.204974
C78	C	1.290740	0.106762	0.704974
C79	C	0.842305	-0.366525	0.153445
C80	C	1.342305	0.133475	0.653445
C81	C	0.842311	-0.313123	0.153463
C82	C	1.342311	0.186877	0.653463
N83	N	0.893867	-0.286407	0.101932
N84	N	1.393867	0.213593	0.601932
C85	C	0.945429	-0.313106	0.050400
C86	C	1.445429	0.186894	0.550400
C87	C	0.842347	-0.799188	0.153436
C88	C	1.342347	-0.299188	0.653436
C89	C	0.842352	-0.852602	0.153436
C90	C	1.342352	-0.352602	0.653436
C91	C	0.945475	-0.852586	0.050370
C92	C	1.445475	-0.352586	0.550370
C93	C	0.945472	-0.799171	0.050374
C94	C	1.445472	-0.299171	0.550374
C95	C	0.893903	-0.772473	0.101905
C96	C	1.393903	-0.272473	0.601905
C97	C	0.945421	-0.200938	0.050417
C98	C	1.445421	0.299062	0.550417
C99	C	0.945417	-0.147522	0.050429
C100	C	1.445417	0.352478	0.550429
C101	C	0.842292	-0.147543	0.153493
C102	C	1.342292	0.352457	0.653493
C103	C	0.842299	-0.200955	0.153483
C104	C	1.342299	0.299045	0.653483
C105	C	0.893866	-0.227651	0.101939
C106	C	1.393866	0.272349	0.601939
O107	O	0.798499	-0.285463	0.197280
O108	O	1.298499	0.214537	0.697280
O109	O	0.989268	-0.285471	0.006571
O110	O	1.489268	0.214529	0.506571
C111	C	0.945440	-0.526755	0.050382
C112	C	1.445440	-0.026755	0.550382
C113	C	0.893880	-0.553467	0.101908
C114	C	1.393880	-0.053467	0.601908
C115	C	0.842319	-0.526769	0.153439
C116	C	1.342319	-0.026769	0.653439
C117	C	0.893886	-0.606881	0.101907
C118	C	1.393886	-0.106881	0.601907
C119	C	0.945448	-0.633580	0.050375
C120	C	1.445448	-0.133580	0.550375
C121	C	0.997004	-0.606865	-0.001156
C122	C	1.497004	-0.106865	0.498844
C123	C	0.997002	-0.553454	-0.001150
C124	C	1.497002	-0.053454	0.498850
C125	C	0.790763	-0.553484	0.204970
C126	C	1.290763	-0.053484	0.704970
C127	C	0.790769	-0.606895	0.204961
C128	C	1.290769	-0.106895	0.704961
C129	C	0.842331	-0.633594	0.153429
C130	C	1.342331	-0.133594	0.653429
C131	C	1.032268	-0.000072	0.096156
C132	C	1.532268	0.499928	0.596156
C133	C	1.116286	-0.000074	0.097494
C134	C	1.616286	0.499926	0.597494
C135	C	0.899662	-0.000067	-0.036451
C136	C	1.399662	0.499933	0.463549
C137	C	0.898323	-0.000067	-0.120469
C138	C	1.398323	0.499933	0.379531
N139	N	0.893914	0.120699	0.101904
N140	N	1.393914	0.620699	0.601904
C141	C	0.966656	-0.000073	-0.169090
C142	C	1.466656	0.499927	0.330910
C143	C	0.965394	-0.000069	-0.248033
C144	C	1.465394	0.499931	0.251967
C145	C	0.895798	-0.000062	-0.278354
C146	C	1.395798	0.499938	0.221646
C147	C	0.827459	-0.000054	-0.229727
C148	C	1.327459	0.499946	0.270273
C149	C	0.828722	-0.000055	-0.150785
C150	C	1.328722	0.499945	0.349215
C151	C	0.822364	-0.000050	-0.548090
C152	C	1.322364	0.499950	-0.048090
C153	C	0.821106	-0.000050	-0.627038
C154	C	1.321106	0.499950	-0.127038
C155	C	0.959036	-0.000063	-0.645338
C156	C	1.459036	0.499937	-0.145338
C157	C	0.960299	-0.000064	-0.566396
C158	C	1.460299	0.499936	-0.066396
C159	C	0.891961	-0.000054	-0.517776
C160	C	1.391961	0.499946	-0.017776
C161	C	0.893330	-0.000058	-0.432177
C162	C	1.393330	0.499942	0.067823
C163	C	0.894427	-0.000061	-0.363951
C164	C	1.394427	0.499939	0.136049
C165	C	0.888102	-0.000056	0.240322
C166	C	1.388102	0.499944	0.740322
C167	C	0.889440	-0.000053	0.324340
C168	C	1.389440	0.499947	0.824340
H169	H	0.647537	-0.000037	0.231384
H170	H	1.147537	0.499963	0.731384
Cl171	Cl	1.047795	-0.000071	-0.528283
Cl172	Cl	1.547795	0.499929	-0.028283
H173	H	1.014680	-0.000069	-0.684934
H174	H	1.514680	0.499931	-0.184934
Cl175	Cl	0.725904	-0.359678	0.269759
Cl176	Cl	1.225904	0.140322	0.769759
Cl177	Cl	0.736452	-0.000036	-0.486977
Cl178	Cl	1.236452	0.499964	0.013023
H179	H	0.770792	-0.000045	-0.254420
H180	H	1.270792	0.499955	0.245580
Cl181	Cl	0.777480	-0.234535	0.218273
Cl182	Cl	1.277480	0.265465	0.718273
H183	H	0.107012	-0.000062	0.222734
H184	H	0.607012	0.499938	0.722734
Cl185	Cl	1.051303	-0.000078	-0.309154
Cl186	Cl	1.551303	0.499922	0.190846
H187	H	0.800313	-0.125797	0.195451
H188	H	1.300313	0.374203	0.695451
H189	H	0.773078	-0.000050	-0.111198
H190	H	1.273078	0.499950	0.388802
H191	H	0.680748	-0.000059	-0.018868
H192	H	1.180748	0.499941	0.481132
Cl193	Cl	1.010247	-0.113943	-0.014354
Cl194	Cl	1.510247	0.386057	0.485646
Cl195	Cl	1.061828	-0.519879	-0.065934
Cl196	Cl	1.561828	-0.019879	0.434066
H197	H	1.038990	-0.628612	-0.043112
H198	H	1.538990	-0.128612	0.456888
Cl199	Cl	0.482792	-0.000042	0.259357
Cl200	Cl	0.982792	0.499958	0.759357
H201	H	0.250232	-0.000055	0.225025
H202	H	0.750232	0.499945	0.725025
H203	H	0.800372	-0.874348	0.195404
H204	H	1.300372	-0.374348	0.695404
Cl205	Cl	1.054154	-0.000087	-0.130980
Cl206	Cl	1.554154	0.499913	0.369020
Cl207	Cl	1.010251	-0.234491	-0.014382
Cl208	Cl	1.510251	0.265509	0.485618
Cl209	Cl	1.061828	-0.480186	-0.065929
Cl210	Cl	1.561828	0.019814	0.434071
H211	H	0.537526	-0.000072	-0.021154
H212	H	1.037526	0.499928	0.478846
Cl213	Cl	0.733606	-0.000040	-0.665153
Cl214	Cl	1.233606	0.499960	-0.165153
H215	H	0.748781	-0.628641	0.246928
H216	H	1.248781	-0.128641	0.746928
H217	H	1.038982	-0.371473	-0.043093
H218	H	1.538982	0.128527	0.456907
Cl219	Cl	1.010297	-0.765595	-0.014409
Cl220	Cl	1.510297	-0.265595	0.485591
H221	H	0.987460	-0.874333	0.008412
H222	H	1.487460	-0.374333	0.508412
H223	H	0.140225	-0.000079	-0.027517
H224	H	0.640225	0.499921	0.472483
H225	H	0.283434	-0.000079	-0.025228
H226	H	0.783434	0.499921	0.474772
Cl227	Cl	0.777513	-0.765631	0.218227
Cl228	Cl	1.277513	-0.265631	0.718227
Cl229	Cl	0.725913	-0.480226	0.269759
Cl230	Cl	1.225913	0.019774	0.769759
H231	H	0.748774	-0.531750	0.246932
H232	H	1.248774	-0.031750	0.746932
