data_functionalizedCrystal
_audit_creation_method	'MofGen! by Chris Wilmer'
_symmetry_space_group_name_H-M	'P1'
_symmetry_Int_Tables_number	1
_symmetry_cell_setting	triclinic
loop_
_symmetry_equiv_pos_as_xyz
  x,y,z
_cell_length_a	14.908783
_cell_length_b	14.908506
_cell_length_c	14.908308
_cell_angle_alpha	96.362085
_cell_angle_beta	89.788727
_cell_angle_gamma	96.790846
loop_
_atom_site_label
_atom_site_type_symbol
_atom_site_fract_x
_atom_site_fract_y
_atom_site_fract_z
Zn1	Zn	1.325984	-0.317645	-0.605038
Zn2	Zn	1.825984	0.182355	-0.105038
Zn3	Zn	1.325883	-0.460296	-0.462406
Zn4	Zn	1.825883	0.039704	0.037594
Zn5	Zn	1.184357	-0.316663	-0.445956
Zn6	Zn	1.684357	0.183337	0.054044
Zn7	Zn	1.165851	-0.477687	-0.604970
Zn8	Zn	1.665851	0.022313	-0.104970
O9	O	1.250519	-0.393073	-0.529592
O10	O	1.750519	0.106927	-0.029592
O11	O	1.452216	-0.329702	-0.593030
O12	O	1.952216	0.170298	-0.093030
O13	O	1.314812	-0.433554	-0.333984
O14	O	1.814812	0.066446	0.166016
O15	O	1.210931	-0.189704	-0.460203
O16	O	1.710931	0.310296	0.039797
O17	O	1.452142	-0.434507	-0.488239
O18	O	1.952142	0.065493	0.011761
O19	O	1.314984	-0.190426	-0.577079
O20	O	1.814984	0.309574	-0.077079
O21	O	1.210834	-0.328027	-0.321898
O22	O	1.710834	0.171973	0.178102
O23	O	1.055656	-0.344889	-0.460136
O24	O	1.555656	0.155111	0.039864
O25	O	1.179390	-0.464146	-0.731218
O26	O	1.679390	0.035854	-0.231218
O27	O	1.042060	-0.463193	-0.576963
O28	O	1.542060	0.036807	-0.076963
O29	O	1.297039	-0.346564	-0.731268
O30	O	1.797039	0.153436	-0.231268
O31	O	1.296868	-0.589693	-0.488173
O32	O	1.796868	-0.089693	0.011827
O33	O	1.179292	-0.602469	-0.592914
O34	O	1.679292	-0.102469	-0.092914
C35	C	1.016124	-0.405822	-0.516758
C36	C	1.516124	0.094178	-0.016758
C37	C	0.915846	-0.411300	-0.511290
C38	C	1.415846	0.088700	-0.011290
C39	C	0.727468	-0.312629	-0.610319
C40	C	1.227468	0.187371	-0.110319
C41	C	0.633248	-0.317773	-0.605184
C42	C	1.133248	0.182227	-0.105184
C43	C	0.633186	-0.426725	-0.495881
C44	C	1.133186	0.073275	0.004119
C45	C	0.727405	-0.421582	-0.501016
C46	C	1.227405	0.078418	-0.001016
C47	C	0.774543	-0.364533	-0.558238
C48	C	1.274543	0.135467	-0.058238
C49	C	0.868764	-0.359394	-0.563377
C50	C	1.368764	0.140606	-0.063377
C51	C	0.868700	-0.468342	-0.454070
C52	C	1.368700	0.031658	0.045930
C53	C	0.774480	-0.473486	-0.448935
C54	C	1.274480	0.026514	0.051065
C55	C	1.236084	-0.629034	-0.542342
C56	C	1.736084	-0.129034	-0.042342
C57	C	1.229989	-0.729976	-0.547831
C58	C	1.729989	-0.229976	-0.047831
C59	C	1.160143	-0.878933	-0.610044
C60	C	1.660143	-0.378933	-0.110044
C61	C	1.165867	-0.784090	-0.604893
C62	C	1.665867	-0.284090	-0.104893
C63	C	1.288394	-0.770712	-0.495919
C64	C	1.788394	-0.270712	0.004081
C65	C	1.282670	-0.865556	-0.501071
C66	C	1.782670	-0.365556	-0.001071
C67	C	1.218541	-0.919664	-0.558134
C68	C	1.718541	-0.419664	-0.058134
C69	C	1.212814	-1.014509	-0.563280
C70	C	1.712814	-0.514509	-0.063280
C71	C	1.335345	-1.001130	-0.454312
C72	C	1.835345	-0.501130	0.045688
C73	C	1.341069	-0.906286	-0.449161
C74	C	1.841069	-0.406286	0.050839
C75	C	1.485829	-0.380274	-0.542477
C76	C	1.985829	0.119726	-0.042477
C77	C	1.586104	-0.374820	-0.547968
C78	C	2.086104	0.125180	-0.047968
C79	C	1.236161	-0.407405	-0.764891
C80	C	1.736161	0.092595	-0.264891
C81	C	1.230043	-0.413512	-0.865162
C82	C	1.730043	0.086488	-0.365162
C83	C	1.265033	-0.156191	-0.516814
C84	C	1.765033	0.343809	-0.016814
C85	C	1.271218	-0.055245	-0.511368
C86	C	1.771218	0.444755	-0.011368
C87	C	1.341053	-0.302530	-1.053633
C88	C	1.841053	0.197470	-0.553633
C89	C	1.335307	-0.308265	-1.147846
C90	C	1.835307	0.191735	-0.647846
C91	C	1.212802	-0.430713	-1.147802
C92	C	1.712802	0.069287	-0.647802
C93	C	1.218548	-0.424978	-1.053589
C94	C	1.718548	0.075022	-0.553589
C95	C	1.282676	-0.360885	-1.006508
C96	C	1.782676	0.139115	-0.506508
C97	C	1.288426	-0.355155	-0.912294
C98	C	1.788426	0.144845	-0.412294
C99	C	1.165917	-0.477598	-0.912251
C100	C	1.665917	0.022402	-0.412251
C101	C	1.160171	-0.483333	-1.006464
C102	C	1.660171	0.016667	-0.506464
C103	C	1.264876	-0.378728	-0.295208
C104	C	1.764876	0.121272	0.204792
C105	C	1.271185	-0.372355	-0.194934
C106	C	1.771185	0.127645	0.305066
H107	H	0.765848	-0.266182	-0.656915
H108	H	1.265848	0.233818	-0.156915
Br109	Br	1.086699	-0.556811	-0.848292
Br110	Br	1.586699	-0.056811	-0.348292
Br111	Br	0.569363	-0.247324	-0.675864
Br112	Br	1.069363	0.252676	-0.175864
H113	H	1.107958	-0.535513	-1.044810
H114	H	1.607958	-0.035513	-0.544810
Br115	Br	0.710500	-0.550900	-0.371276
Br116	Br	1.210500	-0.050900	0.128724
Br117	Br	1.125778	-1.087940	-0.640716
Br118	Br	1.625778	-0.587940	-0.140716
Br119	Br	1.086613	-0.728815	-0.675350
Br120	Br	1.586613	-0.228815	-0.175350
H121	H	0.907038	-0.510613	-0.411669
H122	H	1.407038	-0.010613	0.088331
Br123	Br	1.375433	-0.697266	-0.418499
Br124	Br	1.875433	-0.197266	0.081501
H125	H	0.594791	-0.473161	-0.449283
H126	H	1.094791	0.026839	0.050717
H127	H	1.382897	-1.034302	-0.412043
H128	H	1.882897	-0.534302	0.087957
H129	H	1.382841	-0.260744	-1.186211
H130	H	1.882841	0.239256	-0.686211
Br131	Br	1.073098	-0.952369	-0.687466
Br132	Br	1.573098	-0.452369	-0.187466
Br133	Br	0.932737	-0.281976	-0.641038
Br134	Br	1.432737	0.218024	-0.141038
H135	H	1.393283	-0.862221	-0.402703
H136	H	1.893283	-0.362221	0.097297
H137	H	1.160592	-0.482894	-1.186151
H138	H	1.660592	0.017106	-0.686151
Br139	Br	1.375459	-0.268177	-0.848399
Br140	Br	1.875459	0.231823	-0.348399
H141	H	1.393273	-0.250347	-1.015299
H142	H	1.893273	0.249653	-0.515299
