data_functionalizedCrystal
_audit_creation_method	'MofGen! by Chris Wilmer'
_symmetry_space_group_name_H-M	'P1'
_symmetry_Int_Tables_number	1
_symmetry_cell_setting	triclinic
loop_
_symmetry_equiv_pos_as_xyz
  x,y,z
_cell_length_a	10.723024
_cell_length_b	16.109301
_cell_length_c	9.198806
_cell_angle_alpha	89.999041
_cell_angle_beta	89.998000
_cell_angle_gamma	83.964675
loop_
_atom_site_label
_atom_site_type_symbol
_atom_site_fract_x
_atom_site_fract_y
_atom_site_fract_z
O1	O	0.160389	1.104075	-0.120797
O2	O	0.493723	1.437408	0.212537
O3	O	0.827056	1.770742	0.545870
O4	O	0.180350	0.862130	-0.120819
O5	O	0.513683	1.195464	0.212514
O6	O	0.847017	1.528797	0.545847
O7	O	-0.011280	0.988683	-0.120802
O8	O	0.322053	1.322017	0.212531
O9	O	0.655386	1.655350	0.545865
O10	O	0.352020	0.977522	-0.120814
O11	O	0.685353	1.310855	0.212519
O12	O	1.018687	1.644188	0.545853
O13	O	-0.011281	0.988674	0.120983
O14	O	0.322052	1.322007	0.454316
O15	O	0.655386	1.655341	0.787650
O16	O	0.180349	0.862121	0.120966
O17	O	0.513683	1.195454	0.454299
O18	O	0.847016	1.528788	0.787632
O19	O	0.160389	1.104065	0.120988
O20	O	0.493722	1.437399	0.454322
O21	O	0.827056	1.770732	0.787655
Cu22	Cu	0.170369	0.983092	0.143054
Cu23	Cu	0.503703	1.316426	0.476387
Cu24	Cu	0.837036	1.649759	0.809721
Cu25	Cu	0.170370	0.983103	-0.142885
Cu26	Cu	0.503703	1.316437	0.190448
Cu27	Cu	0.837036	1.649770	0.523782
O28	O	0.352019	0.977512	0.120971
O29	O	0.685353	1.310846	0.454304
O30	O	1.018686	1.644179	0.787638
C31	C	0.179541	0.831146	0.000070
C32	C	0.512874	1.164479	0.333404
C33	C	0.846208	1.497813	0.666737
C34	C	0.177117	0.738836	0.000062
C35	C	0.510450	1.072170	0.333395
C36	C	0.843784	1.405503	0.666728
C37	C	-0.057770	0.987866	0.000089
C38	C	0.275564	1.321200	0.333422
C39	C	0.608897	1.654533	0.666755
C40	C	-0.196292	0.985436	0.000083
C41	C	0.137042	1.318770	0.333417
C42	C	0.470375	1.652103	0.666750
C43	C	0.285190	0.517200	0.000075
C44	C	0.618524	0.850533	0.333408
C45	C	0.951857	1.183867	0.666742
C46	C	0.282903	0.430466	0.000084
C47	C	0.616236	0.763799	0.333418
C48	C	0.949570	1.097133	0.666751
C49	C	0.055540	0.449003	0.000086
C50	C	0.388873	0.782336	0.333419
C51	C	0.722207	1.115669	0.666752
C52	C	0.057829	0.535735	0.000087
C53	C	0.391162	0.869068	0.333420
C54	C	0.724495	1.202401	0.666753
C55	C	0.172657	0.569831	0.000074
C56	C	0.505991	0.903164	0.333407
C57	C	0.839324	1.236498	0.666741
C58	C	0.168081	0.396365	0.000082
C59	C	0.501415	0.729698	0.333416
C60	C	0.834748	1.063031	0.666749
C61	C	0.165600	0.302324	0.000093
C62	C	0.498934	0.635658	0.333426
C63	C	0.832267	0.968991	0.666759
C64	C	0.175139	0.663877	0.000066
C65	C	0.508472	0.997211	0.333400
C66	C	0.841806	1.330544	0.666733
C67	C	-0.272213	1.056249	0.000088
C68	C	0.061120	1.389582	0.333421
C69	C	0.394454	1.722915	0.666755
C70	C	-0.415383	1.053739	0.000082
C71	C	-0.082050	1.387072	0.333416
C72	C	0.251284	1.720405	0.666749
C73	C	0.398508	0.978329	0.000077
C74	C	0.731842	1.311663	0.333411
C75	C	1.065175	1.644996	0.666744
C76	C	0.537031	0.980760	0.000073
C77	C	0.870364	1.314093	0.333406
C78	C	1.203697	1.647426	0.666740
C79	C	0.161198	1.135050	0.000096
C80	C	0.494531	1.468383	0.333429
C81	C	0.827864	1.801716	0.666762
C82	C	0.163622	1.227359	0.000095
C83	C	0.496955	1.560693	0.333428
C84	C	0.830289	1.894026	0.666761
N85	N	0.170368	0.983090	0.344168
N86	N	0.503701	1.316424	0.677501
N87	N	0.837035	1.649757	1.010835
N88	N	0.170361	0.983112	-0.343999
N89	N	0.503694	1.316445	-0.010666
N90	N	0.837028	1.649778	0.322668
C91	C	0.098647	0.934622	0.416397
C92	C	0.431980	1.267956	0.749730
C93	C	0.765313	1.601289	1.083064
C94	C	0.098642	0.934633	0.583809
C95	C	0.431976	1.267967	0.917143
C96	C	0.765309	1.601300	1.250476
H97	H	0.378691	0.544958	0.000076
H98	H	0.712025	0.878291	0.333409
H99	H	1.045358	1.211624	0.666742
H100	H	-0.480619	1.114359	0.000093
H101	H	-0.147286	1.447693	0.333426
H102	H	0.186048	1.781026	0.666759
H103	H	-0.237286	0.922953	0.000068
H104	H	0.096048	1.256286	0.333401
H105	H	0.429381	1.589620	0.666735
H106	H	-0.231219	1.118732	0.000103
H107	H	0.102114	1.452065	0.333436
H108	H	0.435448	1.785399	0.666769
H109	H	0.231775	1.024589	0.406270
H110	H	0.565108	1.357923	0.739603
H111	H	0.898441	1.691256	1.072937
H112	H	-0.037950	0.421231	0.000105
H113	H	0.295384	0.754564	0.333438
H114	H	0.628717	1.087897	0.666771
H115	H	-0.033815	0.578589	0.000090
H116	H	0.299519	0.911923	0.333423
H117	H	0.632852	1.245256	0.666757
H118	H	0.374539	0.387617	0.000088
H119	H	0.707872	0.720950	0.333421
H120	H	1.041205	1.054283	0.666755
H121	H	-0.397741	0.920135	0.000079
H122	H	-0.064407	1.253469	0.333412
H123	H	0.268926	1.586802	0.666746
H124	H	0.037236	0.893140	0.645925
H125	H	0.370569	1.226474	0.979258
H126	H	0.703903	1.559807	1.312591
H127	H	0.037252	0.893116	0.354295
H128	H	0.370585	1.226449	0.687628
H129	H	0.703918	1.559783	1.020962
H130	H	0.231763	1.024612	0.593895
H131	H	0.565097	1.357945	0.927229
H132	H	0.898430	1.691279	1.260562
