data_functionalizedCrystal
_audit_creation_method	'MofGen! by Chris Wilmer'
_symmetry_space_group_name_H-M	'P1'
_symmetry_Int_Tables_number	1
_symmetry_cell_setting	triclinic
loop_
_symmetry_equiv_pos_as_xyz
  x,y,z
_cell_length_a	12.759401
_cell_length_b	10.686285
_cell_length_c	12.759393
_cell_angle_alpha	85.603126
_cell_angle_beta	89.979015
_cell_angle_gamma	85.631564
loop_
_atom_site_label
_atom_site_type_symbol
_atom_site_fract_x
_atom_site_fract_y
_atom_site_fract_z
Zn1	Zn	1.638392	-0.502291	-0.562040
Zn2	Zn	1.651790	-0.713331	-0.372908
Zn3	Zn	1.462698	-0.502352	-0.386367
Zn4	Zn	1.476179	-0.713237	-0.548547
O5	O	1.557265	-0.607803	-0.467465
O6	O	1.787191	-0.530300	-0.536965
O7	O	1.626671	-0.685409	-0.227668
O8	O	1.474755	-0.325768	-0.420950
O9	O	1.797034	-0.685349	-0.398010
O10	O	1.603836	-0.325723	-0.550016
O11	O	1.487747	-0.530404	-0.237556
O12	O	1.317465	-0.530313	-0.407866
O13	O	1.497732	-0.685189	-0.697362
O14	O	1.327369	-0.685249	-0.527019
O15	O	1.616909	-0.530209	-0.707275
O16	O	1.639743	-0.889895	-0.384927
O17	O	1.510723	-0.889826	-0.513968
C18	C	1.284296	-0.607778	-0.467440
C19	C	1.167520	-0.607798	-0.467452
C20	C	1.008043	-0.688431	-0.395050
C21	C	1.117766	-0.688408	-0.395022
C22	C	1.107546	-0.527197	-0.539907
C23	C	0.997825	-0.527215	-0.539930
C24	C	1.013945	-0.781510	-0.311405
C25	C	1.123668	-0.781487	-0.311377
C26	C	1.578179	-0.935644	-0.446546
C27	C	1.587222	-1.075897	-0.437632
C28	C	1.831299	-0.607828	-0.467491
C29	C	1.948077	-0.607839	-0.467502
C30	C	1.557329	-0.607682	-0.741506
C31	C	1.557357	-0.607630	-0.858286
C32	C	1.536298	-0.278681	-0.488489
C33	C	1.527363	-0.138429	-0.497448
C34	C	1.629696	-0.688311	-0.907999
C35	C	1.629725	-0.688257	-1.017726
C36	C	1.485065	-0.526839	-1.028020
C37	C	1.485042	-0.526887	-0.918294
C38	C	1.713212	-0.781508	-0.902057
C39	C	1.713240	-0.781454	-1.011784
C40	C	1.557255	-0.607832	-0.194496
C41	C	1.557408	-0.607528	-0.077739
H42	H	1.148064	-0.461554	-0.598874
H43	H	1.426145	-0.461180	-0.877824
O44	O	1.694715	-0.897955	-1.040052
C45	C	1.673649	-1.029742	-1.182438
C46	C	1.694669	-0.897766	-1.150570
H47	H	1.673583	-1.029626	-1.271793
H48	H	1.737764	-1.101362	-1.148175
H49	H	1.593957	-1.055923	-1.150927
H50	H	1.774328	-0.871467	-1.182072
H51	H	1.630492	-0.826222	-1.184818
O52	O	1.656765	-1.139870	-0.368450
C53	C	1.838100	-1.180299	-0.315136
C54	C	1.759448	-1.107764	-0.393535
H55	H	1.921139	-1.154388	-0.335403
H56	H	1.818148	-1.154511	-0.232008
H57	H	1.833239	-1.285780	-0.320000
H58	H	1.764267	-1.002266	-0.388766
H59	H	1.779425	-1.133656	-0.476630
H60	H	1.159705	-0.879239	-0.326798
H61	H	1.155409	-0.746371	-0.236358
H62	H	0.982443	-0.755229	-0.231753
O63	O	1.802705	-0.739499	-1.055138
C64	C	1.878633	-0.584755	-1.173291
C65	C	1.777244	-0.632121	-1.124247
H66	H	1.858082	-0.497950	-1.229192
H67	H	1.932832	-0.559430	-1.108428
H68	H	1.920046	-0.661891	-1.218616
H69	H	1.735743	-0.555042	-1.078930
H70	H	1.723119	-0.657484	-1.189157
O71	O	1.457829	-1.074360	-0.566576
C72	C	1.276523	-1.033982	-0.620003
C73	C	1.355152	-1.106603	-0.541629
H74	H	1.193493	-1.060044	-0.599875
H75	H	1.281258	-0.928486	-0.615103
H76	H	1.296624	-1.059720	-0.703110
H77	H	1.335103	-1.080971	-0.458487
H78	H	1.350401	-1.212082	-0.546621
H79	H	1.426190	-0.461100	-1.076891
H80	H	0.949003	-0.461579	-0.598920
H81	H	0.985863	-0.874387	-0.334507
H82	H	1.792910	-0.755358	-0.873962
H83	H	1.689981	-0.874355	-0.862089
