data_functionalizedCrystal
_audit_creation_method	'MofGen! by Chris Wilmer'
_symmetry_space_group_name_H-M	'P1'
_symmetry_Int_Tables_number	1
_symmetry_cell_setting	triclinic
loop_
_symmetry_equiv_pos_as_xyz
  x,y,z
_cell_length_a	15.298068
_cell_length_b	15.297327
_cell_length_c	19.076929
_cell_angle_alpha	101.507136
_cell_angle_beta	82.178467
_cell_angle_gamma	110.796215
loop_
_atom_site_label
_atom_site_type_symbol
_atom_site_fract_x
_atom_site_fract_y
_atom_site_fract_z
Zn1	Zn	1.320466	-0.161736	-0.598381
Zn2	Zn	1.299689	-0.311035	-0.498023
Zn3	Zn	1.173353	-0.180240	-0.463299
Zn4	Zn	1.137981	-0.344092	-0.598266
O5	O	1.232872	-0.249276	-0.539492
O6	O	1.446952	-0.159962	-0.599649
O7	O	1.289038	-0.287594	-0.394932
O8	O	1.216366	-0.046731	-0.466733
O9	O	1.431687	-0.269651	-0.525916
O10	O	1.324449	-0.033136	-0.565978
O11	O	1.196220	-0.191500	-0.369420
O12	O	1.039418	-0.223554	-0.466622
O13	O	1.156080	-0.325992	-0.696766
O14	O	1.013431	-0.343935	-0.565782
O15	O	1.290151	-0.192016	-0.696850
O16	O	1.254739	-0.446474	-0.525805
O17	O	1.135933	-0.470761	-0.599453
C18	C	0.992913	-0.289341	-0.512422
C19	C	0.890253	-0.306504	-0.500860
C20	C	0.632578	-0.126841	-0.622152
C21	C	0.729031	-0.110718	-0.633019
C22	C	0.769342	-0.159662	-0.599980
C23	C	0.713188	-0.224734	-0.556073
C24	C	0.616723	-0.240864	-0.545209
C25	C	0.753488	-0.273686	-0.523037
C26	C	0.697334	-0.338757	-0.479130
C27	C	0.600879	-0.354884	-0.468268
C28	C	0.560569	-0.305939	-0.501307
C29	C	0.849952	-0.257556	-0.533901
C30	C	0.834098	-0.371579	-0.456958
C31	C	0.737644	-0.387702	-0.446091
C32	C	1.189268	-0.492595	-0.566402
C33	C	1.170696	-0.596676	-0.577948
C34	C	1.365968	-0.839330	-0.457258
C35	C	1.383417	-0.741541	-0.446407
C36	C	1.330238	-0.705320	-0.479292
C37	C	1.259608	-0.766898	-0.523029
C38	C	1.242153	-0.864697	-0.533876
C39	C	1.206423	-0.730686	-0.555910
C40	C	1.135793	-0.792264	-0.599647
C41	C	1.118342	-0.890053	-0.610493
C42	C	1.171520	-0.926275	-0.577608
C43	C	1.223878	-0.632887	-0.545062
C44	C	1.100063	-0.658254	-0.621680
C45	C	1.082615	-0.756043	-0.632531
C46	C	1.473768	-0.209055	-0.566669
C47	C	1.576423	-0.191916	-0.578250
C48	C	1.221487	-0.260627	-0.723058
C49	C	1.216636	-0.265465	-0.801283
C50	C	1.276671	-0.005003	-0.512495
C51	C	1.295335	0.099092	-0.500990
C52	C	1.181832	-0.300234	-1.241608
C53	C	1.186389	-0.295676	-1.168106
C54	C	1.258475	-0.223647	-1.131403
C55	C	1.326002	-0.156167	-1.168205
C56	C	1.321440	-0.160722	-1.241705
C57	C	1.279601	-0.202540	-0.911585
C58	C	1.284159	-0.197991	-0.838080
C59	C	1.144545	-0.337500	-0.837986
C60	C	1.139992	-0.342052	-0.911488
C61	C	1.207517	-0.274569	-0.948283
N62	N	1.263137	-0.218987	-1.056272
N63	N	1.202850	-0.279225	-1.023412
C64	C	1.244278	-0.237892	-0.356639
C65	C	1.249355	-0.232761	-0.278405
H66	H	0.774744	-0.057739	-0.668771
Br67	Br	0.900246	-0.137780	-0.614729
H68	H	0.895664	-0.204573	-0.569650
H69	H	1.440922	-0.691408	-0.410796
Br70	Br	0.577864	-0.060439	-0.666998
Br71	Br	1.147449	-1.059042	-0.591971
Br72	Br	1.042169	-0.439821	-0.961297
H73	H	1.089570	-0.392440	-0.808019
H74	H	1.342861	-0.139332	-0.808198
Br75	Br	1.319729	-0.549330	-0.485705
H76	H	0.691910	-0.440685	-0.410341
H77	H	0.482028	-0.319069	-0.492466
H78	H	1.123135	-0.358891	-1.271487
Br79	Br	1.027880	-0.609107	-0.666304
Br80	Br	1.438126	-0.888493	-0.412631
Br81	Br	0.888794	-0.438016	-0.412122
Br82	Br	1.022481	-0.973622	-0.669844
H83	H	1.376422	-0.105775	-1.271664
Br84	Br	1.371284	-0.110999	-0.961524
Br85	Br	1.423813	-0.058389	-1.118389
Br86	Br	1.094740	-0.387245	-1.118167
Br87	Br	0.986765	-0.839622	-0.691888
Br88	Br	0.524672	-0.443194	-0.408678
H89	H	1.344448	-0.625695	-0.470453
