data_functionalizedCrystal
_audit_creation_method	'MofGen! by Chris Wilmer'
_symmetry_space_group_name_H-M	'P1'
_symmetry_Int_Tables_number	1
_symmetry_cell_setting	triclinic
loop_
_symmetry_equiv_pos_as_xyz
  x,y,z
_cell_length_a	17.077404
_cell_length_b	12.645330
_cell_length_c	17.077396
_cell_angle_alpha	89.975931
_cell_angle_beta	89.980499
_cell_angle_gamma	90.017917
loop_
_atom_site_label
_atom_site_type_symbol
_atom_site_fract_x
_atom_site_fract_y
_atom_site_fract_z
Zn1	Zn	1.200083	-0.422033	-0.443867
Zn2	Zn	1.200002	-0.599318	-0.312611
Zn3	Zn	1.068815	-0.422070	-0.312615
Zn4	Zn	1.068795	-0.599256	-0.443834
O5	O	1.134424	-0.510669	-0.378232
O6	O	1.309919	-0.445561	-0.426467
O7	O	1.182574	-0.575848	-0.202764
O8	O	1.086270	-0.273718	-0.330041
O9	O	1.309860	-0.575812	-0.330034
O10	O	1.182712	-0.273691	-0.426471
O11	O	1.086192	-0.445624	-0.202767
O12	O	0.958965	-0.445563	-0.330009
O13	O	1.086236	-0.575705	-0.553686
O14	O	0.958950	-0.575741	-0.426416
O15	O	1.182693	-0.445500	-0.553709
O16	O	1.182555	-0.747657	-0.330003
O17	O	1.086157	-0.747611	-0.426412
C18	C	0.930476	-0.510650	-0.378210
C19	C	0.843226	-0.510667	-0.378219
C20	C	0.802249	-0.578553	-0.428338
C21	C	0.720268	-0.578555	-0.428350
C22	C	0.679267	-0.510677	-0.378240
C23	C	0.720250	-0.442783	-0.328119
C24	C	0.802229	-0.442777	-0.328111
C25	C	0.549380	-0.442804	-0.328138
C26	C	0.467395	-0.442812	-0.328145
C27	C	0.467419	-0.578583	-0.428377
C28	C	0.549398	-0.578576	-0.428369
C29	C	0.590376	-0.510684	-0.378247
C30	C	1.134366	-0.786099	-0.378221
C31	C	1.134414	-0.903929	-0.378242
C32	C	1.074020	-1.071508	-0.439080
C33	C	1.073711	-0.948949	-0.438885
C34	C	1.112022	-0.948522	-0.295515
C35	C	1.111653	-1.071120	-0.295885
C36	C	1.217568	-1.071018	-0.399460
C37	C	1.217059	-0.948411	-0.401269
C38	C	1.339168	-0.510689	-0.378254
C39	C	1.426418	-0.510698	-0.378263
C40	C	1.134471	-0.510591	-0.582976
C41	C	1.134491	-0.510558	-0.670226
C42	C	1.134502	-0.234164	-0.378260
C43	C	1.134536	-0.116334	-0.378272
C44	C	1.184718	-0.442755	-0.711230
C45	C	1.184728	-0.442719	-0.793210
C46	C	1.134514	-0.510493	-0.834185
C47	C	1.084281	-0.578300	-0.793176
C48	C	1.084268	-0.578329	-0.711197
C49	C	1.084313	-0.578236	-0.964046
C50	C	1.084326	-0.578208	-1.046031
C51	C	1.184772	-0.442627	-1.046059
C52	C	1.184759	-0.442656	-0.964080
C53	C	1.134528	-0.510464	-0.923076
C54	C	1.134421	-0.510671	-0.174284
C55	C	1.134553	-0.510405	-0.087034
H56	H	0.582741	-0.387510	-0.287331
Br57	Br	1.252947	-0.350606	-1.101706
H58	H	1.043360	-0.633530	-0.677813
H59	H	0.434051	-0.633860	-0.469191
H60	H	0.686908	-0.633836	-0.469161
Br61	Br	0.605043	-0.670709	-0.496369
Br62	Br	1.016127	-0.670274	-0.848784
H63	H	0.434014	-0.387527	-0.287350
H64	H	1.043396	-0.633436	-0.930663
H65	H	0.686860	-0.387511	-0.287322
Br66	Br	0.857842	-0.350637	-0.260095
Br67	Br	1.097059	-0.898685	-0.541125
H68	H	1.087901	-1.100921	-0.500623
Br69	Br	1.252915	-0.350685	-0.908471
H70	H	1.012848	-1.102409	-0.425223
Br71	Br	1.183156	-0.899928	-0.217933
Br72	Br	0.971111	-0.900212	-0.415495
Br73	Br	1.010489	-1.118947	-0.265967
H74	H	1.051958	-0.917910	-0.277242
H75	H	1.237995	-1.101863	-0.458759
Br76	Br	0.857886	-0.670687	-0.496343
Br77	Br	1.181921	-1.120556	-0.217791
H78	H	1.233945	-0.919262	-0.462152
Br79	Br	1.296171	-0.897315	-0.332833
H80	H	1.262654	-1.100005	-0.355171
H81	H	1.043436	-0.633394	-1.079391
H82	H	1.225611	-0.387568	-0.677874
Br83	Br	1.252932	-0.350746	-0.848856
