data_functionalizedCrystal
_audit_creation_method	'MofGen! by Chris Wilmer'
_symmetry_space_group_name_H-M	'P1'
_symmetry_Int_Tables_number	1
_symmetry_cell_setting	triclinic
loop_
_symmetry_equiv_pos_as_xyz
  x,y,z
_cell_length_a	19.805407
_cell_length_b	19.120786
_cell_length_c	19.805399
_cell_angle_alpha	92.468930
_cell_angle_beta	90.019573
_cell_angle_gamma	92.465080
loop_
_atom_site_label
_atom_site_type_symbol
_atom_site_fract_x
_atom_site_fract_y
_atom_site_fract_z
Zn1	Zn	1.023244	-0.279646	0.371215
Zn2	Zn	1.018332	-0.397105	0.253195
Zn3	Zn	0.910058	-0.279666	0.258039
Zn4	Zn	0.905197	-0.397068	0.366343
O5	O	0.964208	-0.338371	0.312198
O6	O	1.117309	-0.295235	0.355571
O7	O	1.003948	-0.381550	0.159120
O8	O	0.929162	-0.181373	0.277118
O9	O	1.113700	-0.381532	0.268862
O10	O	1.012320	-0.181359	0.360269
O11	O	0.924399	-0.295268	0.162679
O12	O	0.814697	-0.295232	0.272394
O13	O	0.920877	-0.381468	0.461707
O14	O	0.811125	-0.381487	0.351965
O15	O	1.007606	-0.295199	0.465287
O16	O	0.999234	-0.495390	0.264138
O17	O	0.916114	-0.495363	0.347268
C18	C	0.788352	-0.338358	0.312177
C19	C	0.713120	-0.338369	0.312183
C20	C	0.956632	-0.520862	0.304663
C21	C	0.953453	-0.598933	0.301462
C22	C	0.675931	-0.383350	0.353543
C23	C	0.605242	-0.383351	0.353552
C24	C	0.571744	-0.338374	0.312198
C25	C	0.608938	-0.293389	0.270837
C26	C	0.679625	-0.293385	0.270831
C27	C	0.323864	-0.293404	0.270859
C28	C	0.253172	-0.293414	0.270866
C29	C	0.249481	-0.383371	0.353579
C30	C	0.320169	-0.383366	0.353574
C31	C	0.357356	-0.338378	0.312216
C32	C	0.434005	-0.338377	0.312207
C33	C	0.495097	-0.338379	0.312203
C34	C	0.995223	-0.635543	0.343286
C35	C	0.992234	-0.708898	0.340279
C36	C	0.947477	-0.745642	0.295446
C37	C	0.905703	-0.709027	0.253621
C38	C	0.908689	-0.635673	0.256631
C39	C	0.936292	-0.967128	0.284192
C40	C	0.933310	-1.040487	0.281184
C41	C	1.019840	-1.040353	0.367844
C42	C	1.022826	-0.966997	0.370847
C43	C	0.981049	-0.930389	0.329025
C44	C	0.944422	-0.820624	0.292370
C45	C	0.984101	-0.855409	0.332104
C46	C	1.140750	-0.338385	0.312220
C47	C	1.215982	-0.338391	0.312229
C48	C	0.964247	-0.338327	0.488743
C49	C	0.964264	-0.338308	0.563976
C50	C	0.971831	-0.155168	0.319777
C51	C	0.975080	-0.077097	0.323007
C52	C	0.964209	-0.338365	0.136342
C53	C	0.964331	-0.338186	0.061118
C54	C	1.009425	-0.293386	0.601185
C55	C	1.009433	-0.293365	0.671874
C56	C	0.964283	-0.338271	0.705353
C57	C	0.919117	-0.383196	0.668139
C58	C	0.919107	-0.383212	0.597451
C59	C	0.919158	-0.383131	0.953215
C60	C	0.919173	-0.383112	1.023908
C61	C	1.009484	-0.293283	1.027638
C62	C	1.009474	-0.293300	0.956950
C63	C	0.964306	-0.338221	0.919742
C64	C	0.964297	-0.338242	0.843093
C65	C	0.964294	-0.338255	0.782001
H66	H	0.574966	-0.419979	0.387231
H67	H	0.882326	-0.419786	0.567156
H68	H	1.046194	-0.256820	0.573932
O69	O	0.889734	-1.076153	0.237707
C70	C	0.773705	-1.098708	0.203799
C71	C	0.822972	-1.058283	0.253087
H72	H	0.719719	-1.084264	0.216207
H73	H	0.778695	-1.157432	0.208835
H74	H	0.786239	-1.084318	0.149826
H75	H	0.810470	-1.072615	0.307081
H76	H	0.817973	-0.999569	0.247992
H77	H	0.581658	-0.256765	0.237169
H78	H	0.347439	-0.419993	0.387246
H79	H	1.059270	-0.937082	0.407354
O80	O	1.053369	-0.249708	0.707915
C81	C	1.142926	-0.160585	0.704157
C82	C	1.093213	-0.210005	0.663258
H83	H	1.175143	-0.128463	0.668069
H84	H	1.177025	-0.192796	0.735907
H85	H	1.113376	-0.123874	0.738781
H86	H	1.122709	-0.246726	0.628597
H87	H	1.059115	-0.177751	0.631552
O88	O	0.213254	-0.427002	0.393743
C89	C	0.102721	-0.466911	0.430386
C90	C	0.143662	-0.417452	0.384885
H91	H	0.046448	-0.459218	0.423230
H92	H	0.117103	-0.454652	0.485503
H93	H	0.114306	-0.523522	0.416076
H94	H	0.132098	-0.360824	0.399134
H95	H	0.129274	-0.429772	0.329780
O96	O	1.032889	-0.744352	0.380921
C97	C	1.119027	-0.736478	0.467196
C98	C	1.073027	-0.696240	0.421199
H99	H	1.151481	-0.697596	0.499782
H100	H	1.153079	-0.770783	0.434765
H101	H	1.086535	-0.770851	0.501127
H102	H	1.105466	-0.661829	0.387260
H103	H	1.038972	-0.661979	0.453670
O104	O	1.053421	-0.249616	1.063680
C105	C	1.142973	-0.160489	1.059918
C106	C	1.093262	-0.209913	1.019021
H107	H	1.175187	-0.128365	1.023829
H108	H	1.177073	-0.192696	1.091669
H109	H	1.113420	-0.123778	1.094541
H110	H	1.122760	-0.246633	0.984361
H111	H	1.059161	-0.177662	0.987314
O112	O	0.708547	-0.426942	0.393753
C113	C	0.787963	-0.436507	0.484749
C114	C	0.751086	-0.387061	0.439243
H115	H	0.822354	-0.404282	0.521548
H116	H	0.819569	-0.473180	0.452138
H117	H	0.749225	-0.468670	0.514280
H118	H	0.789778	-0.354852	0.409703
H119	H	0.719468	-0.350434	0.471890
H120	H	0.225899	-0.256784	0.237190
H121	H	1.020540	-0.825490	0.368610
O122	O	1.053235	-0.249633	0.924362
C123	C	1.066251	-0.154777	0.848529
C124	C	1.016623	-0.204206	0.885376
H125	H	1.036670	-0.118027	0.817011
H126	H	1.100294	-0.186982	0.814057
H127	H	1.098538	-0.122697	0.887284
H128	H	0.984292	-0.236297	0.846670
H129	H	0.982626	-0.171960	0.919860
H130	H	0.354134	-0.256778	0.237177
H131	H	1.053852	-1.070167	0.401894
H132	H	0.902277	-0.937327	0.250138
O133	O	0.868142	-0.600000	0.216071
C134	C	0.834421	-0.487051	0.182275
C135	C	0.880371	-0.527362	0.228257
H136	H	0.844302	-0.428317	0.192101
H137	H	0.779235	-0.501463	0.193520
H138	H	0.845741	-0.501537	0.127121
H139	H	0.869111	-0.512898	0.283426
H140	H	0.935543	-0.512946	0.216953
O141	O	0.715721	-0.249770	0.230551
C142	C	0.738696	-0.215492	0.116887
C143	C	0.697786	-0.264943	0.162423
H144	H	0.724200	-0.227732	0.061798
H145	H	0.794979	-0.223217	0.123929
H146	H	0.727160	-0.158876	0.131235
H147	H	0.709264	-0.321577	0.148105
H148	H	0.641515	-0.257156	0.155375
H149	H	0.882389	-0.419719	0.922928
O150	O	0.862286	-0.744827	0.210086
C151	C	0.819311	-0.857890	0.167066
C152	C	0.868521	-0.817437	0.216391
H153	H	0.824325	-0.916602	0.172157
H154	H	0.831815	-0.843540	0.113074
H155	H	0.765320	-0.843468	0.179484
H156	H	0.922528	-0.831837	0.204035
H157	H	0.855958	-0.831790	0.270369
H158	H	1.031672	-0.605630	0.379791
H159	H	0.882353	-0.419757	0.695403
O160	O	0.900916	-0.856397	0.248906
C161	C	0.806147	-0.939282	0.236313
C162	C	0.855382	-0.898821	0.285609
H163	H	0.769311	-0.973581	0.265969
H164	H	0.835814	-0.973667	0.199558
H165	H	0.776836	-0.900508	0.206915
H166	H	0.884704	-0.937545	0.315053
H167	H	0.825676	-0.864427	0.322320
O168	O	0.875244	-0.426756	1.056324
C169	C	0.785683	-0.515881	1.045168
C170	C	0.835382	-0.466483	1.008371
H171	H	0.753451	-0.548024	1.006413
H172	H	0.751598	-0.483652	1.079572
H173	H	0.815246	-0.552575	1.076766
H174	H	0.805873	-0.429779	0.976736
H175	H	0.869467	-0.498756	0.974007
