data_functionalizedCrystal
_audit_creation_method	'MofGen! by Chris Wilmer'
_symmetry_space_group_name_H-M	'P1'
_symmetry_Int_Tables_number	1
_symmetry_cell_setting	triclinic
loop_
_symmetry_equiv_pos_as_xyz
  x,y,z
_cell_length_a	19.121102
_cell_length_b	13.897448
_cell_length_c	19.120904
_cell_angle_alpha	87.585296
_cell_angle_beta	90.088173
_cell_angle_gamma	92.427934
loop_
_atom_site_label
_atom_site_type_symbol
_atom_site_fract_x
_atom_site_fract_y
_atom_site_fract_z
Zn1	Zn	1.054890	0.471842	-0.442070
Zn2	Zn	1.059823	0.626569	-0.324836
Zn3	Zn	0.942657	0.458122	-0.319853
Zn4	Zn	0.937635	0.625920	-0.437038
O5	O	0.998751	0.545613	-0.380949
O6	O	1.153650	0.498380	-0.430709
O7	O	1.048448	0.598754	-0.226070
O8	O	0.957582	0.324963	-0.336086
O9	O	1.157275	0.612057	-0.344578
O10	O	1.040039	0.335043	-0.425878
O11	O	0.962366	0.474996	-0.222409
O12	O	0.843885	0.474367	-0.331207
O13	O	0.949022	0.610952	-0.535810
O14	O	0.840195	0.597648	-0.417302
O15	O	1.035169	0.497751	-0.539507
O16	O	1.043578	0.761461	-0.339699
O17	O	0.953806	0.760985	-0.422133
C18	C	0.816602	0.534450	-0.373168
C19	C	0.738677	0.529698	-0.369857
C20	C	0.998701	0.796223	-0.380927
C21	C	0.998743	0.903441	-0.380943
C22	C	0.990985	0.555809	-0.563808
C23	C	0.987675	0.560155	-0.641731
C24	C	0.700168	0.591740	-0.413055
C25	C	0.626950	0.587263	-0.409947
C26	C	0.592241	0.520747	-0.363635
C27	C	0.630755	0.458698	-0.320435
C28	C	0.703973	0.463172	-0.323548
C29	C	0.371267	0.504021	-0.352002
C30	C	0.298045	0.499555	-0.348891
C31	C	0.294244	0.628119	-0.438404
C32	C	0.367463	0.632590	-0.441509
C33	C	0.405970	0.570538	-0.398311
C34	C	0.517400	0.516172	-0.360455
C35	C	0.480810	0.575110	-0.401496
C36	C	1.181611	0.556821	-0.388761
C37	C	1.259536	0.561597	-0.392089
C38	C	0.998820	0.294026	-0.380988
C39	C	0.998850	0.186815	-0.381004
C40	C	0.998814	1.099743	-0.380990
C41	C	0.998772	0.990506	-0.380966
C42	C	1.030970	0.503261	-0.680265
C43	C	1.027852	0.507339	-0.753482
C44	C	0.981442	0.568317	-0.788164
C45	C	0.938142	0.625213	-0.749624
C46	C	0.941258	0.621129	-0.676408
C47	C	0.969789	0.583593	-1.009131
C48	C	0.966678	0.587675	-1.082352
C49	C	1.056387	0.469799	-1.086206
C50	C	1.059501	0.465724	-1.012988
C51	C	1.016199	0.522617	-0.974455
C52	C	0.978255	0.572490	-0.863003
C53	C	1.019383	0.518438	-0.899617
C54	C	1.006528	0.535389	-0.198804
C55	C	1.009973	0.530781	-0.120887
H56	H	0.728423	0.645908	-0.450764
F57	F	0.480454	0.445382	-0.311169
F58	F	0.585968	0.653298	-0.455925
F59	F	0.404397	0.703387	-0.490798
H60	H	0.262883	0.678637	-0.473574
F61	F	1.102467	0.409252	-1.127220
F62	F	0.261107	0.428762	-0.299593
F63	F	0.895176	0.681681	-0.635397
H64	H	1.063109	0.461013	-0.784854
H65	H	1.057167	0.468786	-0.871376
H66	H	0.900352	0.674859	-0.777867
H67	H	0.940471	0.622143	-0.891249
H68	H	0.602490	0.404536	-0.282730
H69	H	0.402612	0.453501	-0.316822
H70	H	0.735326	0.412645	-0.288374
F71	F	0.917278	0.652575	-1.119261
H72	H	0.509073	0.629262	-0.439205
H73	H	1.068764	0.453609	-0.652033
H74	H	1.097295	0.416072	-0.984756
F75	F	0.923703	0.644143	-0.968130
