data_functionalizedCrystal
_audit_creation_method	'MofGen! by Chris Wilmer'
_symmetry_space_group_name_H-M	'P1'
_symmetry_Int_Tables_number	1
_symmetry_cell_setting	triclinic
loop_
_symmetry_equiv_pos_as_xyz
  x,y,z
_cell_length_a	16.992694
_cell_length_b	18.266242
_cell_length_c	16.992695
_cell_angle_alpha	90.006314
_cell_angle_beta	90.668223
_cell_angle_gamma	90.003271
loop_
_atom_site_label
_atom_site_type_symbol
_atom_site_fract_x
_atom_site_fract_y
_atom_site_fract_z
O1	O	1.050856	0.060790	0.166918
O2	O	1.550856	0.560790	0.666918
O3	O	0.822456	0.060811	0.165087
O4	O	1.322456	0.560811	0.665087
O5	O	0.935740	0.060795	0.051803
O6	O	1.435740	0.560795	0.551803
O7	O	0.937571	0.060806	0.280203
O8	O	1.437571	0.560806	0.780203
O9	O	0.935719	-0.060967	0.051795
O10	O	1.435719	0.439033	0.551795
O11	O	0.822435	-0.060951	0.165079
O12	O	1.322435	0.439049	0.665079
O13	O	1.050835	-0.060972	0.166911
O14	O	1.550835	0.439028	0.666911
Zn15	Zn	0.936631	-0.080294	0.165994
Zn16	Zn	1.436631	0.419706	0.665994
Zn17	Zn	0.936659	0.080133	0.166004
Zn18	Zn	1.436659	0.580133	0.666004
O19	O	0.937550	-0.060956	0.280195
O20	O	1.437550	0.439044	0.780195
C21	C	0.793085	-0.000067	0.162727
C22	C	1.293085	0.499933	0.662727
C23	C	0.705600	-0.000059	0.155699
C24	C	1.205600	0.499941	0.655699
N25	N	0.936618	-0.189781	0.165987
N26	N	1.436618	0.310219	0.665987
C27	C	0.659610	-0.000056	0.223517
C28	C	1.159610	0.499944	0.723517
C29	C	0.577409	-0.000066	0.216908
C30	C	1.077409	0.499934	0.716908
C31	C	0.541201	-0.000074	0.142480
C32	C	1.041201	0.499926	0.642480
C33	C	0.587198	-0.000079	0.074657
C34	C	1.087198	0.499921	0.574657
C35	C	0.669397	-0.000074	0.081267
C36	C	1.169397	0.499926	0.581267
C37	C	0.295886	-0.000095	0.115086
C38	C	0.795886	0.499905	0.615086
C39	C	0.213681	-0.000098	0.108481
C40	C	0.713681	0.499902	0.608481
C41	C	0.203898	-0.000087	0.250732
C42	C	0.703898	0.499913	0.750732
C43	C	0.286099	-0.000077	0.257335
C44	C	0.786099	0.499923	0.757335
C45	C	0.332089	-0.000086	0.189512
C46	C	0.832089	0.499914	0.689512
N47	N	0.457178	-0.000083	0.135723
N48	N	0.957178	0.499917	0.635723
N49	N	0.416110	-0.000083	0.196270
N50	N	0.916110	0.499917	0.696270
C51	C	0.986800	-0.228097	0.115852
C52	C	1.486800	0.271903	0.615852
C53	C	0.986805	-0.304742	0.115849
C54	C	1.486805	0.195258	0.615849
C55	C	0.936636	-0.343067	0.165994
C56	C	1.436636	0.156933	0.665994
C57	C	0.886445	-0.304742	0.216133
C58	C	1.386445	0.195258	0.716133
C59	C	0.886436	-0.228099	0.216129
C60	C	1.386436	0.271901	0.716129
N61	N	0.930981	-0.463396	0.235021
N62	N	1.430981	0.036604	0.735021
N63	N	0.930994	-0.536204	0.235022
N64	N	1.430994	-0.036204	0.735022
C65	C	0.936659	-0.573990	0.166007
C66	C	1.436659	-0.073990	0.666007
N67	N	0.942326	-0.536217	0.096990
N68	N	1.442326	-0.036217	0.596990
N69	N	0.942317	-0.463403	0.096989
N70	N	1.442317	0.036597	0.596989
C71	C	0.936640	-0.426174	0.166003
C72	C	1.436640	0.073826	0.666003
C73	C	0.986849	-0.695413	0.115864
C74	C	1.486849	-0.195413	0.615864
C75	C	0.986848	-0.772060	0.115860
C76	C	1.486848	-0.272060	0.615860
C77	C	0.886492	-0.772058	0.216151
C78	C	1.386492	-0.272058	0.716151
C79	C	0.886489	-0.695414	0.216148
C80	C	1.386489	-0.195414	0.716148
C81	C	0.936671	-0.657096	0.166006
C82	C	1.436671	-0.157096	0.666006
C83	C	1.080205	-0.000092	0.169270
C84	C	1.580205	0.499908	0.669270
C85	C	1.167690	-0.000096	0.176299
C86	C	1.667690	0.499904	0.676299
C87	C	0.933374	-0.000086	0.022439
C88	C	1.433374	0.499914	0.522439
C89	C	0.926345	-0.000085	-0.065046
C90	C	1.426345	0.499915	0.434954
N91	N	0.936678	0.189620	0.166005
N92	N	1.436678	0.689620	0.666005
C93	C	0.994163	-0.000092	-0.111037
C94	C	1.494163	0.499908	0.388963
C95	C	0.987554	-0.000084	-0.193238
C96	C	1.487554	0.499916	0.306762
C97	C	0.913127	-0.000075	-0.229446
C98	C	1.413127	0.499925	0.270554
C99	C	0.845303	-0.000066	-0.183449
C100	C	1.345303	0.499934	0.316551
C101	C	0.851913	-0.000068	-0.101250
C102	C	1.351913	0.499932	0.398750
C103	C	0.885732	-0.000062	-0.474760
C104	C	1.385732	0.499938	0.025240
C105	C	0.879127	-0.000062	-0.556966
C106	C	1.379127	0.499938	-0.056966
C107	C	1.021379	-0.000080	-0.566749
C108	C	1.521379	0.499920	-0.066749
C109	C	1.027982	-0.000086	-0.484547
C110	C	1.527982	0.499914	0.015453
C111	C	0.960159	-0.000073	-0.438558
C112	C	1.460159	0.499927	0.061442
N113	N	0.906369	-0.000070	-0.313468
N114	N	1.406369	0.499930	0.186532
N115	N	0.966917	-0.000073	-0.354537
N116	N	1.466917	0.499927	0.145463
C117	C	0.939917	-0.000073	0.309559
C118	C	1.439917	0.499927	0.809559
C119	C	0.946945	-0.000069	0.397044
C120	C	1.446945	0.499931	0.897044
H121	H	0.689084	-0.000049	0.284124
H122	H	1.189084	0.499951	0.784124
C123	C	0.831307	-0.814212	0.271313
C124	C	1.331307	-0.314212	0.771313
N125	N	0.789739	-0.845967	0.312861
N126	N	1.289739	-0.345967	0.812861
H127	H	0.818516	-0.000066	-0.586443
H128	H	1.318516	0.499934	-0.086443
H129	H	1.027708	-0.664213	0.075033
H130	H	1.527708	-0.164213	0.575033
C131	C	1.109858	-0.000098	-0.444725
C132	C	1.609858	0.499902	0.055275
N133	N	1.171528	-0.000109	-0.414730
N134	N	1.671528	0.499891	0.085270
C135	C	1.076040	-0.000103	-0.071216
C136	C	1.576040	0.499897	0.428784
N137	N	1.137712	-0.000107	-0.041225
N138	N	1.637712	0.499893	0.458775
C139	C	0.831345	-0.653264	0.271362
C140	C	1.331345	-0.153264	0.771362
N141	N	0.789826	-0.621518	0.312970
N142	N	1.289826	-0.121518	0.812970
C143	C	1.042019	-0.346898	0.060702
C144	C	1.542019	0.153102	0.560702
N145	N	1.083610	-0.378648	0.019169
N146	N	1.583610	0.121352	0.519169
C147	C	0.831266	-0.185950	0.271320
C148	C	1.331266	0.314050	0.771320
N149	N	0.789725	-0.154202	0.312905
N150	N	1.289725	0.345798	0.812905
H151	H	0.184203	-0.000104	0.047870
H152	H	0.684203	0.499896	0.547870
H153	H	0.333322	-0.000103	0.059859
H154	H	0.833322	0.499897	0.559859
C155	C	1.042040	-0.814207	0.060690
C156	C	1.542040	-0.314207	0.560690
N157	N	1.083609	-0.845953	0.019131
N158	N	1.583609	-0.345953	0.519131
H159	H	1.076596	-0.000089	-0.604202
H160	H	1.576596	0.499911	-0.104202
C161	C	0.547365	-0.000090	-0.007215
C162	C	1.047365	0.499910	0.492785
N163	N	0.517365	-0.000094	-0.068882
N164	N	1.017365	0.499906	0.431118
C165	C	0.811124	-0.000044	-0.424182
C166	C	1.311124	0.499956	0.075818
N167	N	0.754925	-0.000028	-0.386083
N168	N	1.254925	0.499972	0.113917
C169	C	1.062160	-0.000104	-0.243824
C170	C	1.562160	0.499896	0.256176
N171	N	1.118357	-0.000123	-0.281926
N172	N	1.618357	0.499877	0.218074
C173	C	0.763432	-0.000061	-0.223281
C174	C	1.263432	0.499939	0.276719
N175	N	0.701765	-0.000064	-0.253282
N176	N	1.201765	0.499936	0.246718
H177	H	0.796688	-0.000062	-0.063804
H178	H	1.296688	0.499938	0.436196
H179	H	0.315574	-0.000062	0.317942
H180	H	0.815574	0.499938	0.817942
C181	C	0.526822	-0.000076	0.291514
C182	C	1.026822	0.499924	0.791514
N183	N	0.488721	-0.000089	0.347710
N184	N	0.988721	0.499911	0.847710
C185	C	1.041994	-0.185951	0.060686
C186	C	1.541994	0.314049	0.560686
N187	N	1.083564	-0.154206	0.019132
N188	N	1.583564	0.345794	0.519132
C189	C	0.831256	-0.346902	0.271290
C190	C	1.331256	0.153098	0.771290
N191	N	0.789683	-0.378657	0.312832
N192	N	1.289683	0.121343	0.812832
H193	H	0.166444	-0.000081	0.305950
H194	H	0.666444	0.499919	0.805950
H195	H	0.706842	-0.000076	0.026042
H196	H	1.206842	0.499924	0.526042
