data_functionalizedCrystal
_audit_creation_method	'MofGen! by Chris Wilmer'
_symmetry_space_group_name_H-M	'P1'
_symmetry_Int_Tables_number	1
_symmetry_cell_setting	triclinic
loop_
_symmetry_equiv_pos_as_xyz
  x,y,z
_cell_length_a	12.837942
_cell_length_b	9.065218
_cell_length_c	11.892295
_cell_angle_alpha	86.053022
_cell_angle_beta	85.692371
_cell_angle_gamma	90.077587
loop_
_atom_site_label
_atom_site_type_symbol
_atom_site_fract_x
_atom_site_fract_y
_atom_site_fract_z
O1	O	0.158740	-1.970396	-0.094004
O2	O	0.171224	-1.542629	-0.094005
O3	O	0.013990	-1.747028	-0.093998
O4	O	0.315975	-1.765997	-0.094011
O5	O	0.000900	-1.764029	0.094005
O6	O	0.158135	-1.559630	0.093997
O7	O	0.145651	-1.987397	0.093999
Zn8	Zn	0.149814	-1.776212	0.123848
Zn9	Zn	0.167061	-1.753813	-0.123854
O10	O	0.302885	-1.782998	0.093991
C11	C	0.163480	-1.495997	-0.000004
C12	C	0.159892	-1.331718	-0.000005
C13	C	-0.031236	-1.749120	0.000003
C14	C	-0.146492	-1.730006	0.000001
C15	C	0.153395	-2.034029	-0.000005
C16	C	0.156983	-2.198307	-0.000012
C17	C	-0.385291	-1.959781	-0.000022
C18	C	-0.493586	-1.941829	-0.000024
C19	C	-0.471376	-1.676151	-0.000013
C20	C	-0.363082	-1.694103	-0.000011
C21	C	-0.320044	-1.835922	-0.000014
C22	C	-0.211748	-1.853874	-0.000004
C23	C	-0.189540	-1.588196	-0.000001
C24	C	-0.297834	-1.570244	-0.000003
C25	C	0.348111	-1.780906	-0.000012
C26	C	0.463368	-1.800019	-0.000017
N27	N	0.138043	-1.791510	0.292897
N28	N	0.178823	-1.738526	-0.292904
C29	C	0.260782	-1.631911	0.529590
C30	C	0.252545	-1.642637	0.647929
C31	C	0.113337	-1.823697	0.647916
C32	C	0.121574	-1.812970	0.529577
C33	C	0.195298	-1.717073	0.470419
C34	C	0.203530	-1.706339	0.352077
C35	C	0.064328	-1.887405	0.352067
C36	C	0.056091	-1.898132	0.470405
H37	H	-0.350250	-2.075257	-0.000013
H38	H	0.053320	-1.901785	0.696099
C39	C	-0.564563	-2.076190	0.000146
C40	C	-0.634143	-2.082381	0.096852
C41	C	-0.699552	-2.206128	0.097037
H42	H	-0.523551	-2.163327	0.000201
H43	H	-0.602765	-2.068780	-0.065382
H44	H	-0.595945	-2.089804	0.162364
H45	H	-0.675178	-1.995273	0.096818
H46	H	-0.737753	-2.198717	0.031508
H47	H	-0.658531	-2.293255	0.097089
H48	H	-0.746775	-2.210337	0.162645
H49	H	-0.332891	-1.454778	-0.000005
C50	C	-0.118876	-1.453531	0.000067
C51	C	-0.179754	-1.325500	0.000099
C52	C	-0.114697	-1.201425	0.000184
H53	H	-0.071575	-1.448868	-0.065471
H54	H	-0.080761	-1.460868	0.065659
H55	H	-0.217852	-1.318163	-0.065486
H56	H	-0.227053	-1.330114	0.065632
H57	H	-0.076581	-1.208762	0.065776
H58	H	-0.067398	-1.196777	-0.065355
H59	H	-0.155993	-1.114543	0.000216
H60	H	-0.003931	-1.976215	0.518586
H61	H	-0.506436	-1.560686	-0.000023
C62	C	0.283737	-1.602429	0.287904
C63	C	0.383968	-1.643369	0.316658
C64	C	0.457887	-1.547696	0.257557
H65	H	0.270299	-1.503962	0.307264
H66	H	0.279337	-1.608248	0.208939
H67	H	0.388365	-1.637535	0.395605
H68	H	0.397440	-1.741820	0.297296
H69	H	0.453487	-1.553515	0.178592
H70	H	0.444439	-1.449234	0.276921
H71	H	0.525902	-1.575468	0.277050
C72	C	-0.007101	-1.979398	0.287844
C73	C	-0.066656	-1.885334	0.220105
C74	C	-0.132587	-1.969917	0.160991
H75	H	-0.052272	-2.037870	0.340035
H76	H	0.033752	-2.042098	0.241483
H77	H	-0.107505	-1.822660	0.266461
H78	H	-0.021512	-1.826861	0.167892
H79	H	-0.091734	-2.032616	0.114630
H80	H	-0.177751	-2.028385	0.213190
H81	H	-0.172995	-1.906107	0.115015
H82	H	0.320804	-1.553816	0.481422
C83	C	0.323696	-1.549990	0.711970
C84	C	0.390001	-1.463689	0.634827
C85	C	0.455553	-1.378306	0.693779
H86	H	0.364309	-1.613226	0.758130
H87	H	0.282566	-1.487352	0.758118
H88	H	0.431127	-1.526321	0.588698
H89	H	0.349416	-1.400424	0.588664
H90	H	0.414423	-1.315667	0.739927
H91	H	0.496159	-1.441553	0.739938
H92	H	0.500542	-1.319731	0.641447
H93	H	-0.176709	-1.969351	-0.000002
