data_functionalizedCrystal
_audit_creation_method	'MofGen! by Chris Wilmer'
_symmetry_space_group_name_H-M	'P1'
_symmetry_Int_Tables_number	1
_symmetry_cell_setting	triclinic
loop_
_symmetry_equiv_pos_as_xyz
  x,y,z
_cell_length_a	10.654550
_cell_length_b	14.853567
_cell_length_c	9.130313
_cell_angle_alpha	89.999276
_cell_angle_beta	89.999724
_cell_angle_gamma	84.059930
loop_
_atom_site_label
_atom_site_type_symbol
_atom_site_fract_x
_atom_site_fract_y
_atom_site_fract_z
O1	O	1.666524	0.126626	-0.121676
O2	O	1.300920	0.138690	-0.121702
O3	O	1.493488	0.001481	-0.121693
O4	O	1.473956	0.263836	-0.121686
O5	O	1.493475	0.001477	0.121906
O6	O	1.300907	0.138686	0.121897
O7	O	1.666511	0.126622	0.121922
Cu8	Cu	1.483708	0.132654	0.144152
Cu9	Cu	1.483723	0.132658	-0.143932
O10	O	1.473943	0.263832	0.121913
C11	C	1.254125	0.137802	0.000094
C12	C	1.114709	0.135152	0.000084
C13	C	1.034384	0.215939	0.000090
C14	C	0.903389	0.213443	0.000115
C15	C	0.933057	0.049367	0.000122
C16	C	1.064049	0.051864	0.000107
C17	C	1.492596	-0.032115	0.000102
C18	C	1.489944	-0.132213	0.000089
C19	C	1.364344	-0.545419	0.000108
C20	C	1.593119	-0.565475	0.000124
C21	C	1.595613	-0.471428	0.000116
C22	C	1.482470	-0.414372	0.000106
C23	C	1.366834	-0.451363	0.000104
C24	C	1.711247	-0.434430	0.000132
C25	C	1.713745	-0.340378	0.000125
C26	C	1.600601	-0.283320	0.000105
C27	C	1.484961	-0.320316	0.000102
C28	C	1.371818	-0.263260	0.000092
C29	C	1.256176	-0.300254	0.000078
C30	C	1.253691	-0.394305	0.000084
C31	C	1.603087	-0.189269	0.000099
C32	C	1.374308	-0.169204	0.000088
C33	C	1.713306	0.127510	0.000123
C34	C	1.852722	0.130160	0.000124
C35	C	1.474835	0.297427	0.000115
C36	C	1.477487	0.397525	0.000118
N37	N	1.483706	0.132650	0.346775
N38	N	1.483735	0.132655	-0.346554
C39	C	1.569003	0.071919	0.423431
C40	C	1.569015	0.071919	0.576767
C41	C	1.398428	0.193389	0.576779
C42	C	1.398411	0.193383	0.423445
H43	H	0.891793	-0.018444	0.000150
F44	F	1.253883	-0.108487	0.000066
F45	F	1.088295	0.304582	0.000071
H46	H	1.638471	0.022466	0.639176
F47	F	1.149543	-0.034126	0.000110
F48	F	1.307659	0.258025	0.658387
H49	H	1.328946	0.242838	0.361028
H50	H	1.697240	-0.159152	0.000120
F51	F	1.135766	-0.239521	0.000079
H52	H	1.159541	-0.424435	0.000074
H53	H	0.837993	0.279228	0.000124
F54	F	1.241276	-0.584791	0.000081
H55	H	1.685234	-0.611935	0.000144
H56	H	1.803361	-0.480891	0.000154
F57	F	1.836819	-0.301014	0.000122
F58	F	1.659779	0.007279	0.341838
