data_functionalizedCrystal
_audit_creation_method	'MofGen! by Chris Wilmer'
_symmetry_space_group_name_H-M	'P1'
_symmetry_Int_Tables_number	1
_symmetry_cell_setting	triclinic
loop_
_symmetry_equiv_pos_as_xyz
  x,y,z
_cell_length_a	14.519709
_cell_length_b	13.596369
_cell_length_c	14.519731
_cell_angle_alpha	90.006971
_cell_angle_beta	83.684499
_cell_angle_gamma	89.999709
loop_
_atom_site_label
_atom_site_type_symbol
_atom_site_fract_x
_atom_site_fract_y
_atom_site_fract_z
O1	O	1.223878	0.081666	0.120892
O2	O	1.473878	0.331666	0.370892
O3	O	1.723878	0.581666	0.620892
O4	O	1.973878	0.831666	0.870892
O5	O	0.955402	0.081696	0.135128
O6	O	1.205402	0.331696	0.385128
O7	O	1.455402	0.581696	0.635128
O8	O	1.705402	0.831696	0.885128
O9	O	1.096748	0.081671	-0.006227
O10	O	1.346748	0.331671	0.243773
O11	O	1.596748	0.581671	0.493773
O12	O	1.846748	0.831671	0.743773
O13	O	1.082532	0.081690	0.262247
O14	O	1.332532	0.331690	0.512247
O15	O	1.582532	0.581690	0.762247
O16	O	1.832532	0.831690	1.012247
O17	O	1.096734	-0.081912	-0.006235
O18	O	1.346734	0.168088	0.243765
O19	O	1.596734	0.418088	0.493765
O20	O	1.846734	0.668088	0.743765
O21	O	0.955388	-0.081887	0.135120
O22	O	1.205388	0.168113	0.385120
O23	O	1.455388	0.418113	0.635120
O24	O	1.705388	0.668113	0.885120
O25	O	1.223864	-0.081917	0.120884
O26	O	1.473864	0.168083	0.370884
O27	O	1.723864	0.418083	0.620884
O28	O	1.973864	0.668083	0.870884
Zn29	Zn	1.089623	-0.107874	0.128001
Zn30	Zn	1.339623	0.142126	0.378001
Zn31	Zn	1.589623	0.392126	0.628001
Zn32	Zn	1.839623	0.642126	0.878001
Zn33	Zn	1.089642	0.107653	0.128011
Zn34	Zn	1.339642	0.357653	0.378011
Zn35	Zn	1.589642	0.607653	0.628011
Zn36	Zn	1.839642	0.857653	0.878011
O37	O	1.082518	-0.081892	0.262239
O38	O	1.332518	0.168108	0.512239
O39	O	1.582518	0.418108	0.762239
O40	O	1.832518	0.668108	1.012239
C41	C	0.921035	-0.000092	0.134461
C42	C	1.171035	0.249908	0.384461
C43	C	1.421035	0.499908	0.634461
C44	C	1.671035	0.749908	0.884461
C45	C	0.818654	-0.000080	0.132473
C46	C	1.068654	0.249920	0.382473
C47	C	1.318654	0.499920	0.632473
C48	C	1.568654	0.749920	0.882473
N49	N	1.089617	-0.254966	0.127994
N50	N	1.339617	-0.004966	0.377994
N51	N	1.589617	0.245034	0.627994
N52	N	1.839617	0.495034	0.877994
C53	C	0.443757	-0.000126	0.125153
C54	C	0.693757	0.249874	0.375153
C55	C	0.943757	0.499874	0.625153
C56	C	1.193757	0.749874	0.875153
C57	C	0.548065	-0.000113	0.127186
C58	C	0.798065	0.249887	0.377186
C59	C	1.048065	0.499887	0.627186
C60	C	1.298065	0.749887	0.877186
C61	C	0.631202	-0.000102	0.128813
C62	C	0.881202	0.249898	0.378813
C63	C	1.131202	0.499898	0.628813
C64	C	1.381202	0.749898	0.878813
C65	C	0.735517	-0.000091	0.130846
C66	C	0.985517	0.249909	0.380846
C67	C	1.235517	0.499909	0.630846
C68	C	1.485517	0.749909	0.880846
C69	C	1.089641	-0.656257	0.128012
C70	C	1.339641	-0.406257	0.378012
C71	C	1.589641	-0.156257	0.628012
C72	C	1.839641	0.093743	0.878012
C73	C	1.089632	-0.544606	0.128010
C74	C	1.339632	-0.294606	0.378010
C75	C	1.589632	-0.044606	0.628010
C76	C	1.839632	0.205394	0.878010
C77	C	1.089630	-0.455615	0.128004
C78	C	1.339630	-0.205615	0.378004
C79	C	1.589630	0.044385	0.628004
C80	C	1.839630	0.294385	0.878004
C81	C	1.089619	-0.343957	0.128000
C82	C	1.339619	-0.093957	0.378000
C83	C	1.589619	0.156043	0.628000
C84	C	1.839619	0.406043	0.878000
C85	C	1.258230	-0.000128	0.121551
C86	C	1.508230	0.249872	0.371551
C87	C	1.758230	0.499872	0.621551
C88	C	2.008230	0.749872	0.871551
C89	C	1.360612	-0.000132	0.123539
C90	C	1.610612	0.249868	0.373539
C91	C	1.860612	0.499868	0.623539
C92	C	2.110612	0.749868	0.873539
N93	N	1.089655	0.254745	0.128011
N94	N	1.339655	0.504745	0.378011
N95	N	1.589655	0.754745	0.628011
N96	N	1.839655	1.004745	0.878011
C97	C	1.096075	-0.000121	-0.040591
C98	C	1.346075	0.249879	0.209409
C99	C	1.596075	0.499879	0.459409
C100	C	1.846075	0.749879	0.709409
C101	C	1.094079	-0.000121	-0.142971
C102	C	1.344079	0.249879	0.107029
C103	C	1.594079	0.499879	0.357029
C104	C	1.844079	0.749879	0.607029
C105	C	1.092457	-0.000119	-0.226115
C106	C	1.342457	0.249881	0.023885
C107	C	1.592457	0.499881	0.273885
C108	C	1.842457	0.749881	0.523885
C109	C	1.090430	-0.000111	-0.330424
C110	C	1.340430	0.249889	-0.080424
C111	C	1.590430	0.499889	0.169576
C112	C	1.840430	0.749889	0.419576
C113	C	1.088822	-0.000104	-0.413563
C114	C	1.338822	0.249896	-0.163563
C115	C	1.588822	0.499896	0.086437
C116	C	1.838822	0.749896	0.336437
C117	C	1.086795	-0.000098	-0.517878
C118	C	1.336795	0.249902	-0.267878
C119	C	1.586795	0.499902	-0.017878
C120	C	1.836795	0.749902	0.232122
C121	C	1.083191	-0.000099	0.296603
C122	C	1.333191	0.249901	0.546603
C123	C	1.583191	0.499901	0.796603
C124	C	1.833191	0.749901	1.046603
C125	C	1.085187	-0.000092	0.398983
C126	C	1.335187	0.249908	0.648983
C127	C	1.585187	0.499908	0.898983
C128	C	1.835187	0.749908	1.148983
