data_functionalizedCrystal
_audit_creation_method	'MofGen! by Chris Wilmer'
_symmetry_space_group_name_H-M	'P1'
_symmetry_Int_Tables_number	1
_symmetry_cell_setting	triclinic
loop_
_symmetry_equiv_pos_as_xyz
  x,y,z
_cell_length_a	10.868271
_cell_length_b	14.853567
_cell_length_c	11.792241
_cell_angle_alpha	96.085827
_cell_angle_beta	90.005281
_cell_angle_gamma	89.998656
loop_
_atom_site_label
_atom_site_type_symbol
_atom_site_fract_x
_atom_site_fract_y
_atom_site_fract_z
O1	O	0.102238	-1.196941	0.148183
O2	O	0.102259	-0.934551	0.165835
O3	O	0.102239	-1.072113	-0.008201
O4	O	0.102258	-1.059378	0.322219
O5	O	-0.102405	-1.072102	-0.008208
O6	O	-0.102386	-0.934539	0.165828
O7	O	-0.102407	-1.196930	0.148176
Zn8	Zn	-0.134888	-1.065733	0.157001
Zn9	Zn	0.134740	-1.065748	0.157010
O10	O	-0.102387	-1.059367	0.322212
C11	C	-0.000061	-0.900953	0.165032
C12	C	-0.000053	-0.800860	0.162635
N13	N	-0.318902	-1.065729	0.156994
C14	C	-0.000083	-1.071308	-0.050491
C15	C	-0.000081	-1.068913	-0.176489
C16	C	-0.569908	-1.065743	0.157007
C17	C	-0.430231	-1.065732	0.157003
N18	N	0.318754	-1.065759	0.157008
C19	C	-0.000084	-1.230527	0.148979
C20	C	-0.000084	-1.330621	0.151376
C21	C	-0.000087	-0.387884	0.049122
C22	C	-0.000074	-0.367408	0.255880
C23	C	-0.000070	-0.461451	0.258134
C24	C	-0.000072	-0.518715	0.155880
C25	C	-0.000079	-0.481936	0.051372
C26	C	-0.000051	-0.498237	0.362640
C27	C	-0.000045	-0.592285	0.364898
C28	C	-0.000057	-0.649550	0.262642
C29	C	-0.000065	-0.612766	0.158131
C30	C	-0.000067	-0.670030	0.055877
C31	C	-0.000084	-0.633248	-0.048637
C32	C	-0.000090	-0.539201	-0.050883
C33	C	-0.000050	-0.743596	0.264889
C34	C	-0.000059	-0.764081	0.058127
C35	C	-0.000060	-1.064511	-0.407174
C36	C	-0.000072	-1.066957	-0.278804
C37	C	-0.000063	-1.060173	0.364501
C38	C	-0.000056	-1.062567	0.490500
H39	H	-0.000077	-0.679884	-0.131891
N40	N	-0.000083	-0.499527	-0.163597
H41	H	-0.000085	-0.550071	-0.228035
H42	H	-0.075945	-0.460949	-0.169039
H43	H	-0.000105	-0.357932	-0.035970
N44	N	-0.000062	-0.305652	0.366164
H45	H	0.075801	-0.266177	0.369835
H46	H	-0.075973	-0.266232	0.369769
N47	N	-0.000076	-0.825842	-0.052163
H48	H	-0.000090	-0.788268	-0.118706
H49	H	0.075792	-0.865306	-0.055738
N50	N	-0.000036	-0.436478	0.472922
H51	H	-0.000049	-0.371319	0.455635
H52	H	-0.075892	-0.448447	0.518462
H53	H	-0.000032	-0.622224	0.449998
H54	H	-0.000039	-0.773540	0.349982
