data_functionalizedCrystal
_audit_creation_method	'MofGen! by Chris Wilmer'
_symmetry_space_group_name_H-M	'P1'
_symmetry_Int_Tables_number	1
_symmetry_cell_setting	triclinic
loop_
_symmetry_equiv_pos_as_xyz
  x,y,z
_cell_length_a	18.050591
_cell_length_b	25.639239
_cell_length_c	18.050582
_cell_angle_alpha	90.024638
_cell_angle_beta	90.020922
_cell_angle_gamma	90.034692
loop_
_atom_site_label
_atom_site_type_symbol
_atom_site_fract_x
_atom_site_fract_y
_atom_site_fract_z
Zn1	Zn	1.135238	-0.208240	0.420021
Zn2	Zn	1.135126	-0.295667	0.295826
Zn3	Zn	1.011058	-0.208242	0.295832
Zn4	Zn	1.010983	-0.295640	0.419962
O5	O	1.073101	-0.251947	0.357910
O6	O	1.239148	-0.219848	0.403568
O7	O	1.118653	-0.284083	0.191902
O8	O	1.027609	-0.135076	0.312333
O9	O	1.239066	-0.284081	0.312323
O10	O	1.118844	-0.135075	0.403574
O11	O	1.027500	-0.219851	0.191906
O12	O	0.907123	-0.219825	0.312276
O13	O	1.027481	-0.284034	0.523894
O14	O	0.907068	-0.284036	0.403473
O15	O	1.118771	-0.219821	0.523938
O16	O	1.118580	-0.368829	0.312266
O17	O	1.027373	-0.368809	0.403468
C18	C	0.880149	-0.251928	0.357869
C19	C	0.797604	-0.251932	0.357869
C20	C	1.072977	-0.387790	0.357876
C21	C	1.072991	-0.445904	0.357886
C22	C	0.598161	-0.216974	0.308390
C23	C	0.548729	-0.264661	0.290112
C24	C	0.646473	-0.251948	0.357903
C25	C	0.548824	-0.204277	0.376179
C26	C	0.500488	-0.251959	0.357934
C27	C	0.598128	-0.299660	0.339589
C28	C	0.598227	-0.239244	0.425688
C29	C	0.548817	-0.286965	0.407435
C30	C	0.730571	-0.251941	0.357883
C31	C	0.416392	-0.251971	0.357954
C32	C	1.120717	-0.806265	0.310502
C33	C	1.120746	-0.860869	0.310512
O34	O	1.161195	-0.889104	0.270187
N35	N	1.073232	-0.888186	0.357959
C36	C	1.025691	-0.860896	0.405405
O37	O	0.985280	-0.889145	0.445764
C38	C	1.025667	-0.806293	0.405398
C39	C	1.073179	-0.778979	0.357943
C40	C	1.168226	-0.778951	0.263051
C41	C	1.168196	-0.724350	0.263040
C42	C	1.120657	-0.697064	0.310481
C43	C	1.073149	-0.724378	0.357932
C44	C	0.978131	-0.779004	0.452847
C45	C	0.978111	-0.724397	0.452837
C46	C	1.025622	-0.697083	0.405381
C47	C	1.025580	-0.642491	0.405362
N48	N	1.073094	-0.615174	0.357914
C49	C	1.120633	-0.642460	0.310474
C50	C	1.025747	-0.975567	0.405416
C51	C	1.025768	-1.030169	0.405420
C52	C	1.120823	-1.030138	0.310528
C53	C	1.120799	-0.975535	0.310521
C54	C	1.073261	-0.948250	0.357969
C55	C	1.120566	-0.527795	0.310455
C56	C	1.120530	-0.473190	0.310446
C57	C	1.025477	-0.473226	0.405340
C58	C	1.025510	-0.527826	0.405347
C59	C	1.073061	-0.555110	0.357901
O60	O	0.985154	-0.614222	0.445668
O61	O	1.161044	-0.614205	0.270129
C62	C	1.266807	-0.251967	0.357952
C63	C	1.349353	-0.251976	0.357970
C64	C	1.073131	-0.251924	0.551616
C65	C	1.073143	-0.251914	0.634162
C66	C	1.073247	-0.115574	0.357961
C67	C	1.073309	-0.057460	0.357982
C68	C	1.073115	-0.251933	0.164958
C69	C	1.073247	-0.251795	0.082413
C70	C	1.023537	-0.286785	0.833589
C71	C	1.091289	-0.299569	0.882987
C72	C	1.073180	-0.251874	0.785292
C73	C	1.005465	-0.239076	0.882976
C74	C	1.073209	-0.251837	0.931277
C75	C	1.140967	-0.264683	0.833603
C76	C	1.055097	-0.204168	0.833588
C77	C	1.122896	-0.216933	0.882963
C78	C	1.073162	-0.251897	0.701194
C79	C	1.073235	-0.251814	1.015374
H80	H	0.619827	-0.187429	0.266473
C81	C	0.973452	-0.945558	0.457620
N82	N	0.934067	-0.922958	0.496943
C83	C	0.627630	-0.224695	0.503088
N84	N	0.649779	-0.213730	0.561385
C85	C	1.173067	-0.945494	0.258319
N86	N	1.212439	-0.922871	0.219000
C87	C	1.034382	-0.149703	0.804246
N88	N	1.018770	-0.108679	0.782143
C89	C	0.519567	-0.149807	0.397049
N90	N	0.497534	-0.108779	0.412763
C91	C	0.519724	-0.326973	0.464016
N92	N	0.497807	-0.357109	0.506628
C93	C	1.218368	-0.279353	0.804429
N94	N	1.276664	-0.290404	0.782453
C95	C	1.220523	-0.808957	0.210854
N96	N	1.259911	-0.831554	0.171531
H97	H	0.526989	-0.275415	0.232800
H98	H	1.164937	-0.187394	0.904505
C99	C	1.111974	-0.354050	0.912305
N100	N	1.127549	-0.395086	0.934385
H101	H	1.159534	-1.052365	0.271902
H102	H	0.948187	-0.228267	0.904665
C103	C	0.627263	-0.354145	0.318627
N104	N	0.649209	-0.395182	0.302836
H105	H	1.159219	-0.450952	0.271799
H106	H	0.981596	-0.316347	0.811910
C107	C	1.172869	-0.557799	0.258258
N108	N	1.212260	-0.580398	0.218939
H109	H	1.206886	-0.702114	0.224400
C110	C	0.973494	-1.060209	0.457618
N111	N	0.934122	-1.082833	0.496938
H112	H	0.939438	-0.801234	0.491487
C113	C	0.973242	-0.557873	0.457547
N114	N	0.933879	-0.580500	0.496871
C115	C	0.925814	-0.694386	0.505035
N116	N	0.886424	-0.671784	0.544349
C117	C	0.973190	-0.443200	0.457525
N118	N	0.933812	-0.420584	0.496836
