data_functionalizedCrystal
_audit_creation_method	'MofGen! by Chris Wilmer'
_symmetry_space_group_name_H-M	'P1'
_symmetry_Int_Tables_number	1
_symmetry_cell_setting	triclinic
loop_
_symmetry_equiv_pos_as_xyz
  x,y,z
_cell_length_a	11.169417
_cell_length_b	19.077432
_cell_length_c	11.169409
_cell_angle_alpha	92.335551
_cell_angle_beta	90.019824
_cell_angle_gamma	87.727994
loop_
_atom_site_label
_atom_site_type_symbol
_atom_site_fract_x
_atom_site_fract_y
_atom_site_fract_z
Zn1	Zn	1.854017	-0.280125	0.659321
Zn2	Zn	2.187350	0.053208	0.992654
Zn3	Zn	2.520684	0.386542	1.325988
Zn4	Zn	1.861914	-0.397845	0.450560
Zn5	Zn	2.195247	-0.064511	0.783894
Zn6	Zn	2.528580	0.268822	1.117227
Zn7	Zn	1.653306	-0.280168	0.458652
Zn8	Zn	1.986639	0.053165	0.791986
Zn9	Zn	2.319972	0.386499	1.125319
Zn10	Zn	1.661314	-0.397787	0.651209
Zn11	Zn	1.994647	-0.064454	0.984542
Zn12	Zn	2.327980	0.268879	1.317876
O13	O	1.757638	-0.338981	0.554936
O14	O	2.090971	-0.005648	0.888269
O15	O	2.424304	0.327685	1.221602
O16	O	2.023015	-0.295747	0.631637
O17	O	2.356348	0.037587	0.964970
O18	O	2.689681	0.370920	1.298303
O19	O	1.834195	-0.382276	0.283681
O20	O	2.167528	-0.048943	0.617014
O21	O	2.500862	0.284390	0.950348
O22	O	1.673274	-0.181672	0.492053
O23	O	2.006607	0.151661	0.825386
O24	O	2.339941	0.484994	1.158720
O25	O	2.028816	-0.382235	0.478261
O26	O	2.362150	-0.048901	0.811594
O27	O	2.695483	0.284432	1.144928
O28	O	1.820736	-0.181641	0.639483
O29	O	2.154069	0.151693	0.972817
O30	O	2.487402	0.485026	1.306150
O31	O	1.680931	-0.295820	0.289626
O32	O	2.014265	0.037513	0.622960
O33	O	2.347598	0.370847	0.956293
O34	O	1.486418	-0.295764	0.484187
O35	O	1.819751	0.037569	0.817521
O36	O	2.153085	0.370902	1.150854
O37	O	1.686923	-0.382137	0.820238
O38	O	2.020256	-0.048804	1.153571
O39	O	2.353590	0.284529	1.486904
O40	O	1.492301	-0.382179	0.625658
O41	O	1.825635	-0.048845	0.958991
O42	O	2.158968	0.284488	1.292324
O43	O	1.828501	-0.295691	0.826198
O44	O	2.161834	0.037642	1.159531
O45	O	2.495168	0.370975	1.492864
O46	O	1.841960	-0.496327	0.470395
O47	O	2.175293	-0.162994	0.803729
O48	O	2.508627	0.170340	1.137062
O49	O	1.694580	-0.496285	0.617811
O50	O	2.027913	-0.162952	0.951144
O51	O	2.361247	0.170382	1.284478
C52	C	1.445812	-0.338971	0.554921
C53	C	1.779145	-0.005637	0.888254
C54	C	2.112479	0.327696	1.221588
C55	C	1.312413	-0.338983	0.554942
C56	C	1.645746	-0.005650	0.888275
C57	C	1.979080	0.327684	1.221609
C58	C	1.770029	-0.521843	0.542371
C59	C	2.103362	-0.188510	0.875704
C60	C	2.436695	0.144823	1.209038
C61	C	1.775439	-0.600073	0.537036
C62	C	2.108773	-0.266739	0.870369
C63	C	2.442106	0.066594	1.203702
C64	C	1.701196	-0.636828	0.611217
C65	C	2.034529	-0.303495	0.944551
C66	C	2.367863	0.029838	1.277884
C67	C	1.706285	-0.710333	0.606200
C68	C	2.039618	-0.377000	0.939533
C69	C	2.372952	-0.043666	1.272866
C70	C	1.785624	-0.747080	0.527005
C71	C	2.118958	-0.413747	0.860339
C72	C	2.452291	-0.080414	1.193672
C73	C	1.859871	-0.710319	0.452816
C74	C	2.193204	-0.376986	0.786149
C75	C	2.526538	-0.043653	1.119482
C76	C	1.854775	-0.636816	0.457828
C77	C	2.188108	-0.303483	0.791161
C78	C	2.521442	0.029851	1.124495
C79	C	1.809094	-0.966911	0.503785
C80	C	2.142428	-0.633578	0.837118
C81	C	2.475761	-0.300245	1.170452
C82	C	1.814187	-1.040420	0.498781
C83	C	2.147521	-0.707086	0.832114
C84	C	2.480854	-0.373753	1.165447
C85	C	1.660599	-1.040429	0.652164
C86	C	1.993932	-0.707095	0.985497
C87	C	2.327266	-0.373762	1.318830
C88	C	1.655515	-0.966924	0.657174
C89	C	1.988849	-0.633590	0.990508
C90	C	2.322182	-0.300257	1.323841
C91	C	1.729757	-0.930169	0.582980
C92	C	2.063090	-0.596836	0.916314
C93	C	2.396424	-0.263502	1.249647
N94	N	1.790831	-0.822214	0.521877
N95	N	2.124164	-0.488881	0.855210
N96	N	2.457498	-0.155547	1.188544
N97	N	1.724544	-0.855037	0.588103
N98	N	2.057877	-0.521704	0.921437
N99	N	2.391210	-0.188370	1.254770
C100	C	2.070681	-0.338992	0.554951
C101	C	2.404014	-0.005659	0.888284
C102	C	2.737347	0.327674	1.221618
C103	C	2.204081	-0.338997	0.554958
C104	C	2.537414	-0.005664	0.888291
C105	C	2.870748	0.327669	1.221624
C106	C	1.757724	-0.338903	0.867984
C107	C	2.091058	-0.005570	1.201317
C108	C	2.424391	0.327764	1.534650
C109	C	1.757761	-0.338870	1.001386
C110	C	2.091095	-0.005536	1.334719
C111	C	2.424428	0.327797	1.668053
C112	C	1.745231	-0.155405	0.567576
C113	C	2.078564	0.177928	0.900909
C114	C	2.411897	0.511262	1.234242
C115	C	1.739944	-0.077176	0.572962
C116	C	2.073277	0.256158	0.906296
C117	C	2.406610	0.589491	1.239629
C118	C	1.757617	-0.339008	0.243109
C119	C	2.090950	-0.005675	0.576442
C120	C	2.424283	0.327658	0.909776
C121	C	1.757799	-0.338843	0.109721
C122	C	2.091132	-0.005510	0.443054
C123	C	2.424465	0.327823	0.776388
H124	H	1.636595	-0.606914	0.675711
H125	H	1.969928	-0.273580	1.009044
H126	H	2.303261	0.059753	1.342378
Cl127	Cl	1.959613	-0.756516	0.353256
Cl128	Cl	2.292946	-0.423183	0.686590
Cl129	Cl	2.626279	-0.089850	1.019923
H130	H	1.645817	-0.740257	0.666595
H131	H	1.979151	-0.406923	0.999929
H132	H	2.312484	-0.073590	1.333262
H133	H	1.915230	-0.606890	0.397420
H134	H	2.248563	-0.273557	0.730753
H135	H	2.581897	0.059777	1.064087
H136	H	1.590911	-0.937006	0.721661
H137	H	1.924244	-0.603672	1.054994
H138	H	2.257577	-0.270339	1.388327
H139	H	1.600154	-1.070362	0.712567
H140	H	1.933488	-0.737029	1.045900
H141	H	2.266821	-0.403695	1.379234
Cl142	Cl	1.913936	-1.086616	0.399214
Cl143	Cl	2.247269	-0.753282	0.732548
Cl144	Cl	2.580602	-0.419949	1.065881
H145	H	1.869547	-0.936991	0.443376
H146	H	2.202881	-0.603658	0.776709
H147	H	2.536214	-0.270325	1.110042
