data_functionalizedCrystal
_audit_creation_method	'MofGen! by Chris Wilmer'
_symmetry_space_group_name_H-M	'P1'
_symmetry_Int_Tables_number	1
_symmetry_cell_setting	triclinic
loop_
_symmetry_equiv_pos_as_xyz
  x,y,z
_cell_length_a	12.594517
_cell_length_b	16.625546
_cell_length_c	16.625539
_cell_angle_alpha	89.969603
_cell_angle_beta	90.020900
_cell_angle_gamma	89.977732
loop_
_atom_site_label
_atom_site_type_symbol
_atom_site_fract_x
_atom_site_fract_y
_atom_site_fract_z
Zn1	Zn	1.627215	0.321004	0.455905
Zn2	Zn	1.627087	0.455848	0.321067
Zn3	Zn	1.449220	0.321032	0.321084
Zn4	Zn	1.449181	0.455798	0.455856
O5	O	1.538176	0.388421	0.388478
O6	O	1.776144	0.338901	0.438031
O7	O	1.603456	0.437996	0.208237
O8	O	1.472901	0.208196	0.338996
O9	O	1.776050	0.437969	0.338967
O10	O	1.603673	0.208176	0.438048
O11	O	1.472778	0.338948	0.208250
O12	O	1.300269	0.338900	0.338949
O13	O	1.472835	0.437885	0.568695
O14	O	1.300241	0.437912	0.437965
O15	O	1.603636	0.338853	0.568731
O16	O	1.603418	0.568673	0.338919
O17	O	1.472711	0.568637	0.437948
C18	C	1.261635	0.388404	0.388454
C19	C	1.143329	0.388417	0.388463
C20	C	1.538075	0.597912	0.388444
C21	C	1.538129	0.687533	0.388457
C22	C	1.538245	0.388361	0.598787
C23	C	1.538275	0.388335	0.688408
C24	C	1.074061	0.334491	0.334711
C25	C	1.003239	0.408038	0.314872
C26	C	1.003352	0.314905	0.408316
C27	C	1.074066	0.462003	0.368586
C28	C	1.074185	0.368821	0.462064
C29	C	1.003395	0.442419	0.442253
C30	C	1.815797	0.388437	0.388502
C31	C	1.934102	0.388445	0.388513
C32	C	1.538306	0.178112	0.388530
C33	C	1.538361	0.088491	0.388552
C34	C	1.538315	1.015708	0.388541
C35	C	1.538260	0.924400	0.388520
C36	C	1.538221	0.851623	0.388498
C37	C	1.538168	0.760309	0.388478
C38	C	1.538168	0.388422	0.178987
C39	C	1.538345	0.388221	0.089367
C40	C	1.538324	0.388245	1.016584
C41	C	1.538307	0.388272	0.925276
C42	C	1.538300	0.388290	0.852499
C43	C	1.538282	0.388317	0.761185
H44	H	0.972079	0.424631	0.252651
C45	C	1.115843	0.546028	0.345825
C46	C	1.236247	0.561530	0.341558
C47	C	1.278026	0.645551	0.318793
C48	C	1.199401	0.714071	0.300297
C49	C	1.078990	0.698571	0.304564
C50	C	1.037210	0.614549	0.327328
H51	H	1.294457	0.510806	0.355250
H52	H	1.367163	0.657025	0.315635
H53	H	1.230329	0.776268	0.283445
H54	H	1.020780	0.749294	0.290871
H55	H	0.948073	0.603075	0.330487
C56	C	1.116294	0.346376	0.546103
C57	C	1.086831	0.398290	0.619464
C58	C	1.128928	0.375834	0.703507
C59	C	1.200487	0.301464	0.714190
C60	C	1.229954	0.249545	0.640828
C61	C	1.187857	0.272001	0.556784
H62	H	1.033855	0.453348	0.611558
H63	H	1.107114	0.414268	0.757815
H64	H	1.231650	0.284840	0.776404
H65	H	1.282930	0.194487	0.648734
H66	H	1.209671	0.233567	0.502476
H67	H	0.972234	0.252734	0.425059
H68	H	0.972562	0.488087	0.487730
H69	H	1.105089	0.288932	0.289199
