data_functionalizedCrystal
_audit_creation_method	'MofGen! by Chris Wilmer'
_symmetry_space_group_name_H-M	'P1'
_symmetry_Int_Tables_number	1
_symmetry_cell_setting	triclinic
loop_
_symmetry_equiv_pos_as_xyz
  x,y,z
_cell_length_a	6.817900
_cell_length_b	11.102294
_cell_length_c	12.200875
_cell_angle_alpha	92.492379
_cell_angle_beta	107.143593
_cell_angle_gamma	108.605785
loop_
_atom_site_label
_atom_site_type_symbol
_atom_site_fract_x
_atom_site_fract_y
_atom_site_fract_z
V1	V	-4.094469	-0.176128	-0.357660
O2	O	-4.053827	0.008167	-0.350853
O3	O	-4.071362	-0.348946	-0.355212
O4	O	-4.063809	-0.173549	-0.513648
O5	O	-4.061432	-0.168445	-0.191320
V6	V	-4.572521	-0.154068	-0.337764
O7	O	-4.367729	-0.224516	-0.401302
O8	O	-4.749458	-0.105680	-0.294122
O9	O	-4.372421	0.018750	-0.340212
O10	O	-4.730560	-0.338363	-0.344571
O11	O	-4.722955	-0.161751	-0.504104
O12	O	-4.379974	-0.156647	-0.181776
C13	C	-3.921942	-0.391071	-0.349570
C14	C	-3.984455	-0.532353	-0.348608
C15	C	-3.912306	-0.167333	-0.551669
C16	C	-3.968689	-0.166368	-0.679190
C17	C	-4.256293	-0.737965	-0.352992
C18	C	-4.197564	-0.605214	-0.353882
C19	C	-3.830060	-0.592247	-0.342432
C20	C	-3.888786	-0.724994	-0.341534
C21	C	-4.071879	-0.164603	-0.912664
C22	C	-4.014448	-0.165585	-0.782742
C23	C	-4.185184	0.060868	-0.345851
C24	C	-4.101910	0.202149	-0.346820
C25	C	-4.194819	-0.162867	-0.143749
C26	C	-4.117674	-0.163826	-0.016227
H27	H	-4.429828	-0.797282	-0.357294
H28	H	-3.656535	-0.532911	-0.338130
H29	H	-4.323282	-0.556461	-0.358906
H30	H	-3.763056	-0.773753	-0.336505
