data_functionalizedCrystal
_audit_creation_method	'MofGen! by Chris Wilmer'
_symmetry_space_group_name_H-M	'P1'
_symmetry_Int_Tables_number	1
_symmetry_cell_setting	triclinic
loop_
_symmetry_equiv_pos_as_xyz
  x,y,z
_cell_length_a	14.044220
_cell_length_b	23.532407
_cell_length_c	12.503572
_cell_angle_alpha	93.496478
_cell_angle_beta	86.164750
_cell_angle_gamma	88.018778
loop_
_atom_site_label
_atom_site_type_symbol
_atom_site_fract_x
_atom_site_fract_y
_atom_site_fract_z
O1	O	1.261903	0.134222	-0.089227
O2	O	0.985982	0.129269	-0.089253
O3	O	1.132262	0.049265	-0.089219
O4	O	1.115623	0.214225	-0.089260
O5	O	1.121261	0.055293	0.089420
O6	O	0.974981	0.135296	0.089386
O7	O	1.250902	0.140249	0.089413
Cu8	Cu	1.111937	0.138323	0.105711
Cu9	Cu	1.124947	0.131195	-0.105551
O10	O	1.104622	0.220253	0.089379
C11	C	0.945188	0.130115	0.000063
C12	C	0.840023	0.123648	0.000054
C13	C	0.647472	0.111828	0.000078
C14	C	0.589407	0.157687	0.000072
C15	C	0.482265	0.151110	0.000085
C16	C	0.754624	0.118404	0.000065
C17	C	1.126337	0.031040	0.000103
C18	C	1.125063	-0.032246	0.000111
C19	C	1.203641	-0.427092	0.000060
C20	C	1.202458	-0.486556	0.000051
O21	O	1.275300	-0.519354	0.000019
N22	N	1.115494	-0.513896	0.000044
C23	C	1.029708	-0.481769	0.000034
O24	O	0.955630	-0.510484	0.000026
C25	C	1.030893	-0.422305	0.000034
C26	C	1.117862	-0.394968	0.000053
C27	C	1.290603	-0.399754	0.000077
C28	C	1.291786	-0.340294	0.000087
C29	C	1.206006	-0.308170	0.000080
C30	C	1.119044	-0.335508	0.000063
C31	C	0.945109	-0.390179	0.000016
C32	C	0.946301	-0.330712	0.000016
C33	C	1.033270	-0.303375	0.000035
C34	C	1.034447	-0.243924	0.000066
N35	N	1.121411	-0.216584	0.000074
C36	C	1.207191	-0.248707	0.000081
C37	C	1.027228	-0.606646	0.000031
C38	C	1.026042	-0.666108	0.000038
C39	C	1.198792	-0.670891	0.000053
C40	C	1.199976	-0.611428	0.000054
C41	C	1.114192	-0.579306	0.000038
C42	C	1.209668	-0.123835	0.000103
C43	C	1.210842	-0.064369	0.000118
C44	C	1.038093	-0.059591	0.000097
C45	C	1.036917	-0.119052	0.000088
C46	C	1.122713	-0.151173	0.000087
O47	O	0.961644	-0.211090	0.000095
O48	O	1.281258	-0.219985	0.000075
C49	C	1.291696	0.139403	0.000094
C50	C	1.396861	0.145869	0.000096
C51	C	1.110547	0.238478	0.000054
C52	C	1.111822	0.301763	0.000039
N53	N	1.102793	0.143337	0.254301
N54	N	1.134098	0.126177	-0.254141
C55	C	1.089342	0.150717	0.473413
C56	C	1.147546	0.118799	0.526753
C57	C	1.140062	0.122905	0.648675
C58	C	1.096825	0.146611	0.351480
H59	H	1.281666	-0.042114	0.000136
H60	H	1.360460	-0.425903	0.000079
H61	H	1.202998	0.088389	0.480853
N62	N	1.293780	-0.581948	0.000070
H63	H	1.302208	-0.559613	-0.066150
H64	H	1.293984	-0.555184	0.066338
H65	H	1.033896	0.181126	0.519308
N66	N	0.606732	0.053285	0.000101
H67	H	0.570312	0.046286	-0.066116
H68	H	0.660454	0.023627	0.000143
N69	N	0.630128	0.216239	0.000041
H70	H	0.666550	0.223250	0.066253
H71	H	0.674635	0.218732	-0.066234
N72	N	1.302201	-0.158475	0.000103
H73	H	1.357464	-0.132126	0.000118
H74	H	1.301397	-0.181022	0.066325
N75	N	1.385588	-0.310813	0.000103
H76	H	1.439742	-0.340193	0.000104
H77	H	1.393925	-0.288475	-0.066120
H78	H	0.957366	-0.580495	0.000027
N79	N	1.291315	-0.705544	0.000061
H80	H	1.277361	-0.747361	0.000054
H81	H	1.333318	-0.698427	-0.066159
N82	N	0.932233	-0.695583	0.000043
H83	H	0.898755	-0.686413	-0.066180
H84	H	0.944560	-0.738119	0.000082
N85	N	0.851305	-0.419654	0.000010
H86	H	0.797153	-0.390273	0.000004
H87	H	0.851119	-0.446451	-0.066214
H88	H	0.876442	-0.304561	0.000002
N89	N	0.943118	-0.148541	0.000083
H90	H	0.888957	-0.119165	0.000083
H91	H	0.942943	-0.175332	-0.066150
N92	N	0.945575	-0.024937	0.000118
H93	H	0.959529	0.016880	0.000130
H94	H	0.911717	-0.036506	-0.066106
