data_functionalizedCrystal
_audit_creation_method	'MofGen! by Chris Wilmer'
_symmetry_space_group_name_H-M	'P1'
_symmetry_Int_Tables_number	1
_symmetry_cell_setting	triclinic
loop_
_symmetry_equiv_pos_as_xyz
  x,y,z
_cell_length_a	19.288867
_cell_length_b	11.792241
_cell_length_c	17.766277
_cell_angle_alpha	89.993523
_cell_angle_beta	89.992126
_cell_angle_gamma	83.665242
loop_
_atom_site_label
_atom_site_type_symbol
_atom_site_fract_x
_atom_site_fract_y
_atom_site_fract_z
O1	O	0.922156	0.141593	-0.062568
O2	O	1.422156	0.641593	0.437432
O3	O	0.720004	0.160690	-0.062575
O4	O	1.220004	0.660690	0.437425
O5	O	0.825986	-0.014103	-0.062566
O6	O	1.325986	0.485897	0.437434
O7	O	0.816175	0.316386	-0.062577
O8	O	1.316175	0.816386	0.437423
O9	O	0.825967	-0.014112	0.062622
O10	O	1.325967	0.485888	0.562622
O11	O	0.719986	0.160681	0.062613
O12	O	1.219986	0.660681	0.562613
O13	O	0.922138	0.141584	0.062620
O14	O	1.422138	0.641584	0.562620
Cu15	Cu	0.821060	0.151132	0.074047
Cu16	Cu	1.321060	0.651132	0.574047
Cu17	Cu	0.821082	0.151142	-0.074002
Cu18	Cu	1.321082	0.651142	0.425998
O19	O	0.816156	0.316378	0.062611
O20	O	1.316156	0.816378	0.562611
C21	C	0.694115	0.160071	0.000018
C22	C	1.194115	0.660071	0.500018
C23	C	0.617001	0.158225	0.000015
C24	C	1.117001	0.658225	0.500015
C25	C	0.061371	0.144935	-0.068216
C26	C	0.561371	0.644935	0.431784
C27	C	0.133828	0.146663	-0.068219
C28	C	0.633828	0.646663	0.431781
C29	C	0.170051	0.147527	0.000021
C30	C	0.670051	0.647527	0.500021
C31	C	0.133813	0.146634	0.068269
C32	C	0.633813	0.646634	0.568269
C33	C	0.061358	0.144896	0.068270
C34	C	0.561358	0.644896	0.568270
C35	C	0.279764	0.216751	0.052300
C36	C	0.779764	0.716751	0.552300
C37	C	0.352217	0.218497	0.052296
C38	C	0.852217	0.718497	0.552296
C39	C	0.393527	0.152885	0.000021
C40	C	0.893527	0.652885	0.500021
C41	C	0.362374	0.085542	-0.052262
C42	C	0.862374	0.585542	0.447738
C43	C	0.289919	0.083803	-0.052261
C44	C	0.789919	0.583803	0.447739
C45	C	0.248617	0.149412	0.000028
C46	C	0.748617	0.649412	0.500028
C47	C	0.508324	0.155642	-0.068225
C48	C	1.008324	0.655642	0.431775
C49	C	0.580783	0.157363	-0.068225
C50	C	1.080783	0.657363	0.431775
C51	C	0.580766	0.157346	0.068265
C52	C	1.080766	0.657346	0.568265
C53	C	0.508309	0.155614	0.068263
C54	C	1.008309	0.655614	0.568263
C55	C	0.472092	0.154768	0.000015
C56	C	0.972092	0.654768	0.500015
C57	C	0.825360	-0.056389	0.000028
C58	C	1.325360	0.443611	0.500028
C59	C	0.823516	-0.182375	0.000027
C60	C	1.323516	0.317625	0.500027
C61	C	0.820124	-0.413036	0.000014
C62	C	1.320124	0.086964	0.500014
C63	C	0.822008	-0.284679	0.000021
C64	C	1.322008	0.215321	0.500021
C65	C	0.948027	0.142204	0.000025
C66	C	1.448027	0.642204	0.500025
C67	C	1.025141	0.144049	0.000023
C68	C	1.525141	0.644049	0.500023
C69	C	0.816782	0.358664	0.000016
C70	C	1.316782	0.858664	0.500016
C71	C	0.818626	0.484649	0.000011
C72	C	1.318626	0.984649	0.500011
N73	N	0.821049	0.151124	0.178178
N74	N	1.321049	0.651124	0.678178
N75	N	0.821098	0.151141	-0.178133
N76	N	1.321098	0.651141	0.321867
C77	C	0.867994	0.073763	0.217569
C78	C	1.367994	0.573763	0.717569
C79	C	0.867998	0.073758	0.296371
C80	C	1.367998	0.573758	0.796371
C81	C	0.821064	0.151133	0.335778
C82	C	1.321064	0.651133	0.835778
C83	C	0.774111	0.228499	0.296378
C84	C	1.274111	0.728499	0.796378
C85	C	0.774104	0.228495	0.217578
C86	C	1.274104	0.728495	0.717578
C87	C	0.812353	0.254544	0.460613
C88	C	1.312353	0.754544	0.960613
C89	C	0.812365	0.254550	0.539412
C90	C	1.312365	0.754550	1.039412
C91	C	0.821083	0.151147	0.578825
C92	C	1.321083	0.651147	1.078825
C93	C	0.829803	0.047733	0.539429
C94	C	1.329803	0.547733	1.039429
C95	C	0.829796	0.047728	0.460629
C96	C	1.329796	0.547728	0.960629
C97	C	0.821067	0.151146	0.421224
C98	C	1.321067	0.651146	0.921224
C99	C	0.868034	0.073774	0.703662
C100	C	1.368034	0.573774	1.203662
C101	C	0.868033	0.073767	0.782465
C102	C	1.368033	0.573767	1.282465
C103	C	0.774150	0.228518	0.782471
C104	C	1.274150	0.728518	1.282471
C105	C	0.774147	0.228515	0.703669
C106	C	1.274147	0.728515	1.203669
C107	C	0.821093	0.151144	0.664269
C108	C	1.321093	0.651144	1.164269
H109	H	0.478834	0.154950	-0.123796
H110	H	0.978834	0.654950	0.376204
H111	H	0.735933	0.291514	0.814556
H112	H	1.235933	0.791514	1.314556
H113	H	0.906258	0.010770	0.671581
H114	H	1.406258	0.510770	1.171581
H115	H	0.478810	0.154897	0.123830
H116	H	0.978810	0.654897	0.623830
O117	O	0.839211	-0.063815	0.581916
O118	O	1.339211	0.436185	1.081916
H119	H	0.792794	-0.070925	0.617822
H120	H	1.292794	0.429075	1.117822
O121	O	0.839188	-0.063799	0.418135
O122	O	1.339188	0.436201	0.918135
H123	H	0.845246	-0.135707	0.458773
H124	H	1.345246	0.364293	0.958773
O125	O	0.619827	0.158307	0.141866
O126	O	1.119827	0.658307	0.641866
H127	H	0.582457	0.157408	0.189319
H128	H	1.082457	0.657408	0.689319
H129	H	0.163331	0.147390	-0.123789
H130	H	0.663331	0.647390	0.376211
O131	O	0.256316	0.011153	-0.108634
O132	O	0.756316	0.511153	0.391366
H133	H	0.297209	-0.034194	-0.144981
H134	H	0.797209	0.465806	0.355019
O135	O	0.802947	0.366071	0.418097
O136	O	1.302947	0.866071	0.918097
H137	H	0.845606	0.417800	0.433193
H138	H	1.345606	0.917800	0.933193
O139	O	0.022188	0.144046	0.141824
O140	O	0.522188	0.644046	0.641824
H141	H	0.041910	0.067072	0.174626
H142	H	0.541910	0.567072	0.674626
H143	H	0.377574	0.273360	0.094853
H144	H	0.877574	0.773360	0.594853
H145	H	0.246135	0.270175	0.094876
H146	H	0.746135	0.770175	0.594876
H147	H	0.163311	0.147336	0.123831
H148	H	0.663311	0.647336	0.623831
O149	O	0.918668	-0.009684	0.824951
O150	O	1.418668	0.490316	1.324951
H151	H	0.910781	0.003305	0.886366
H152	H	1.410781	0.503305	1.386366
H153	H	0.735924	0.291514	0.671595
H154	H	1.235924	0.791514	1.171595
H155	H	0.805269	0.338755	0.571481
H156	H	1.305269	0.838755	1.071481
O157	O	0.619865	0.158319	-0.141829
O158	O	1.119865	0.658319	0.358171
H159	H	0.582504	0.157449	-0.189282
H160	H	1.082504	0.657449	0.310718
H161	H	0.396007	0.032118	-0.094832
H162	H	0.896007	0.532118	0.405168
H163	H	0.906218	0.010761	0.185492
H164	H	1.406218	0.510761	0.685492
O165	O	0.918639	-0.009672	0.338872
O166	O	1.418639	0.490328	0.838872
H167	H	0.951285	-0.063466	0.298236
H168	H	1.451285	0.436534	0.798236
O169	O	0.723492	0.311963	0.338875
O170	O	1.223492	0.811963	0.838875
H171	H	0.731389	0.298980	0.400288
H172	H	1.231389	0.798980	0.900288
H173	H	0.735875	0.291492	0.185505
H174	H	1.235875	0.791492	0.685505
H175	H	0.031887	0.144242	-0.123788
H176	H	0.531887	0.644242	0.376212
