data_functionalizedCrystal
_audit_creation_method	'MofGen! by Chris Wilmer'
_symmetry_space_group_name_H-M	'P1'
_symmetry_Int_Tables_number	1
_symmetry_cell_setting	triclinic
loop_
_symmetry_equiv_pos_as_xyz
  x,y,z
_cell_length_a	19.077236
_cell_length_b	10.686551
_cell_length_c	19.077068
_cell_angle_alpha	88.060269
_cell_angle_beta	94.708605
_cell_angle_gamma	83.488039
loop_
_atom_site_label
_atom_site_type_symbol
_atom_site_fract_x
_atom_site_fract_y
_atom_site_fract_z
Zn1	Zn	1.102509	-0.807525	-0.201386
Zn2	Zn	1.088622	-0.604637	-0.328344
Zn3	Zn	0.974833	-0.588366	-0.215923
Zn4	Zn	0.979840	-0.807419	-0.323970
O5	O	1.036451	-0.701987	-0.267406
O6	O	1.199625	-0.787465	-0.213974
O7	O	1.065621	-0.425895	-0.321345
O8	O	0.995486	-0.610672	-0.115645
O9	O	1.189422	-0.638404	-0.307249
O10	O	1.089289	-0.771687	-0.104965
O11	O	0.982021	-0.413940	-0.238750
O12	O	0.876539	-0.610570	-0.234510
O13	O	1.004020	-0.984017	-0.299795
O14	O	0.880218	-0.771508	-0.313891
O15	O	1.094144	-0.984095	-0.209733
O16	O	1.070476	-0.638302	-0.426113
O17	O	0.990554	-0.787286	-0.422901
C18	C	0.852720	-0.689262	-0.275304
C19	C	0.774120	-0.683850	-0.278698
C20	C	0.742509	-0.759043	-0.231796
C21	C	0.668655	-0.753946	-0.234982
C22	C	0.626414	-0.673662	-0.285075
C23	C	0.658030	-0.598461	-0.331980
C24	C	0.731882	-0.603552	-0.328790
C25	C	0.404969	-0.650095	-0.299814
C26	C	0.331112	-0.645012	-0.303002
C27	C	0.341742	-0.800497	-0.206003
C28	C	0.415595	-0.805586	-0.202820
C29	C	0.447205	-0.730380	-0.249722
N30	N	0.550923	-0.668454	-0.288335
N31	N	0.522694	-0.735583	-0.246459
C32	C	1.051189	-1.031122	-0.252655
C33	C	1.057470	-1.171380	-0.246369
C34	C	1.220900	-0.714762	-0.259478
C35	C	1.299501	-0.720205	-0.256099
C36	C	1.029572	-0.714577	-0.450006
C37	C	1.026695	-0.720010	-0.528118
C38	C	1.021813	-0.374131	-0.282047
C39	C	1.015677	-0.233869	-0.288129
C40	C	1.066993	-0.645064	-0.566461
C41	C	1.064292	-0.650182	-0.639855
C42	C	1.021289	-0.730240	-0.674906
C43	C	0.980990	-0.805194	-0.636558
C44	C	0.983695	-0.800082	-0.563165
C45	C	1.008736	-0.753845	-0.894232
C46	C	1.006032	-0.758948	-0.967631
C47	C	1.089335	-0.603937	-0.970922
C48	C	1.092033	-0.598827	-0.897528
C49	C	1.051737	-0.673786	-0.859186
N50	N	1.018526	-0.735470	-0.749927
N51	N	1.054505	-0.668562	-0.784166
C52	C	1.043378	-0.689376	-0.084091
C53	C	1.046330	-0.684002	-0.005973
H54	H	0.642921	-0.815179	-0.196790
O55	O	0.617102	-0.520365	-0.380665
C56	C	0.660843	-0.455112	-0.421390
H57	H	0.714375	-0.452465	-0.390516
H58	H	0.668762	-0.505395	-0.472401
C59	C	0.559865	-0.322738	-0.476594
C60	C	0.625612	-0.319478	-0.438672
H61	H	0.538132	-0.239074	-0.487258
H62	H	0.530395	-0.366703	-0.449159
H63	H	0.566473	-0.364646	-0.519099
H64	H	0.619002	-0.277585	-0.396164
H65	H	0.655080	-0.275503	-0.466100
H66	H	0.449984	-0.870967	-0.162031
O67	O	1.133874	-0.521042	-0.863588
C68	C	1.168853	-0.455968	-0.913170
H69	H	1.171661	-0.511463	-0.963054
H70	H	1.138422	-0.358845	-0.926427
C71	C	1.240926	-0.372959	-0.820771
C72	C	1.244380	-0.441125	-0.882037
H73	H	1.287513	-0.363797	-0.801566
H74	H	1.217358	-0.416796	-0.787366
H75	H	1.215564	-0.292030	-0.831826
H76	H	1.269733	-0.522057	-0.870979
H77	H	1.267953	-0.397301	-0.915440
H78	H	1.098060	-1.225189	-0.205808
H79	H	0.296720	-0.579635	-0.343797
H80	H	0.945980	-0.870384	-0.665102
H81	H	0.430696	-0.588857	-0.338006
H82	H	0.757618	-0.542320	-0.366982
O83	O	1.108825	-0.567263	-0.532523
C84	C	1.143800	-0.502190	-0.582109
H85	H	1.146612	-0.557694	-0.631989
H86	H	1.113363	-0.405073	-0.595371
C87	C	1.215864	-0.419149	-0.489714
C88	C	1.219324	-0.487326	-0.550976
H89	H	1.262450	-0.409974	-0.470510
H90	H	1.192300	-0.462986	-0.456307
H91	H	1.190498	-0.338226	-0.500774
H92	H	1.244683	-0.568252	-0.539914
H93	H	1.242895	-0.443502	-0.584381
H94	H	0.950882	-0.861112	-0.531947
O95	O	1.128465	-0.531268	-1.008271
C96	C	1.116848	-0.552923	-1.080567
H97	H	1.097625	-0.649357	-1.087223
H98	H	1.075108	-0.476859	-1.106425
C99	C	1.210120	-0.430621	-1.107443
C100	C	1.186515	-0.549067	-1.115618
H101	H	1.253092	-0.428237	-1.129066
H102	H	1.217945	-0.416027	-1.058736
H103	H	1.175330	-0.367247	-1.128991
H104	H	1.221300	-0.612437	-1.094063
H105	H	1.178697	-0.563672	-1.164323
O106	O	0.967349	-1.169560	-0.336557
C107	C	1.002526	-1.099260	-0.383605
H108	H	1.056186	-1.081656	-0.357382
H109	H	1.010571	-1.154097	-0.433109
C110	C	0.891691	-0.993792	-0.435759
C111	C	0.957595	-0.972162	-0.403548
H112	H	0.863974	-0.915395	-0.448064
H113	H	0.867991	-1.041158	-0.404064
H114	H	0.898405	-1.039493	-0.477008
H115	H	0.950880	-0.926476	-0.362296
H116	H	0.981292	-0.924785	-0.435238
O117	O	0.964249	-0.836840	-1.001567
C118	C	0.929250	-0.901886	-0.951990
H119	H	0.960338	-0.904657	-0.898202
H120	H	0.873773	-0.851354	-0.948625
C121	C	0.885784	-1.034052	-1.041101
C122	C	0.923970	-1.037465	-0.975039
H123	H	0.882523	-1.117682	-1.055319
H124	H	0.909361	-0.990227	-1.074503
H125	H	0.839557	-0.991937	-1.038288
H126	H	0.970198	-1.079566	-0.977854
H127	H	0.900401	-1.081301	-0.941637
O128	O	0.969550	-0.826461	-0.856922
C129	C	0.922241	-0.748432	-0.819724
H130	H	0.943353	-0.653807	-0.811941
H131	H	0.868173	-0.732832	-0.850936
C132	C	0.889153	-0.928318	-0.757003
C133	C	0.915086	-0.812101	-0.747438
H134	H	0.884735	-0.967593	-0.712414
H135	H	0.921023	-0.980889	-0.782065
H136	H	0.844098	-0.915301	-0.783015
H137	H	0.960143	-0.825120	-0.721434
H138	H	0.883223	-0.759534	-0.722369
O139	O	0.310957	-0.873602	-0.160539
C140	C	0.270399	-0.954832	-0.198817
H141	H	0.255331	-0.913081	-0.254519
H142	H	0.302764	-1.050823	-0.201199
C143	C	0.221236	-1.021571	-0.093753
C144	C	0.202724	-0.970286	-0.162166
H145	H	0.179493	-1.031109	-0.071144
H146	H	0.248562	-0.966849	-0.067963
H147	H	0.248208	-1.101558	-0.095747
H148	H	0.175760	-0.890294	-0.160170
H149	H	0.175391	-1.024995	-0.187954
H150	H	1.097106	-0.589152	-0.671070
H151	H	0.776897	-0.824423	-0.191006
