data_functionalizedCrystal
_audit_creation_method	'MofGen! by Chris Wilmer'
_symmetry_space_group_name_H-M	'P1'
_symmetry_Int_Tables_number	1
_symmetry_cell_setting	triclinic
loop_
_symmetry_equiv_pos_as_xyz
  x,y,z
_cell_length_a	15.995350
_cell_length_b	15.995350
_cell_length_c	14.472310
_cell_angle_alpha	89.998838
_cell_angle_beta	90.009379
_cell_angle_gamma	83.492375
loop_
_atom_site_label
_atom_site_type_symbol
_atom_site_fract_x
_atom_site_fract_y
_atom_site_fract_z
O1	O	-1.110997	-0.107921	-0.076758
O2	O	-0.867221	-0.121248	-0.076776
O3	O	-0.995773	0.007303	-0.076766
O4	O	-0.982445	-0.236472	-0.076769
O5	O	-0.995740	0.007296	0.076916
O6	O	-0.867188	-0.121256	0.076906
O7	O	-1.110963	-0.107928	0.076924
Cu8	Cu	-0.989073	-0.114593	0.090947
Cu9	Cu	-0.989112	-0.114584	-0.090800
O10	O	-0.982412	-0.236480	0.076913
C11	C	-0.836010	-0.120701	0.000062
C12	C	-0.743060	-0.119049	0.000055
C13	C	-0.995205	0.038494	0.000073
C14	C	-0.993553	0.131444	0.000068
C15	C	-1.142175	-0.108476	0.000083
C16	C	-1.235125	-0.110127	0.000084
C17	C	-0.405312	-0.113117	0.000074
C18	C	-0.452746	-0.021565	0.000418
C19	C	-0.549436	-0.023217	0.000065
C20	C	-0.572873	-0.116060	0.000065
C21	C	-0.531804	-0.161212	-0.087692
C22	C	-0.435169	-0.158912	-0.087759
C23	C	-0.434792	-0.160812	0.087007
C24	C	-0.531737	-0.160790	0.088160
C25	C	-0.667570	-0.117727	0.000057
C26	C	-0.310614	-0.111452	0.000076
C27	C	-0.982980	-0.267671	0.000072
C28	C	-0.984631	-0.360621	0.000071
N29	N	-0.989051	-0.114598	0.218778
C30	C	-0.987621	0.469192	0.000071
C31	C	-0.896069	0.421758	-0.000281
C32	C	-0.897721	0.325068	0.000066
C33	C	-0.990564	0.301631	0.000069
C34	C	-1.035701	0.342705	0.087831
C35	C	-1.033401	0.439340	0.087904
C36	C	-1.035330	0.439707	-0.086861
C37	C	-1.035309	0.342762	-0.088021
C38	C	-0.992231	0.206934	0.000071
C39	C	-0.985956	0.563890	0.000075
N40	N	-0.989140	-0.114572	-0.218631
C41	C	-0.989111	-0.114581	0.592869
C42	C	-0.920095	-0.183135	0.553698
C43	C	-0.920254	-0.183385	0.446610
C44	C	-0.989081	-0.114590	0.407278
C45	C	-1.076445	-0.133671	0.446122
C46	C	-1.076057	-0.134159	0.553243
C47	C	-0.971542	-0.026741	0.553398
C48	C	-0.969538	-0.027327	0.446270
C49	C	-0.989069	-0.114593	0.302390
C50	C	-0.989128	-0.114579	0.697757
H51	H	-0.577852	0.012275	0.062973
H52	H	-0.859626	0.441349	0.062299
H53	H	-1.092297	-0.197002	0.419285
C54	C	-0.849777	0.286670	-0.084911
H55	H	-0.829109	0.330160	-0.119954
H56	H	-0.886678	0.258381	-0.122043
H57	H	-0.803945	0.247790	-0.065156
H58	H	-0.859490	0.440293	-0.063217
H59	H	-1.004324	0.314320	0.153137
C60	C	-1.147514	-0.069272	0.588252
H61	H	-1.176656	-0.042737	0.537003
H62	H	-1.124492	-0.028127	0.624732
H63	H	-1.185490	-0.096931	0.624604
H64	H	-0.545930	-0.229421	-0.090955
H65	H	-1.002307	0.315516	-0.152945
C66	C	-0.407034	-0.120386	0.176867
H67	H	-0.377204	-0.074035	0.162204
H68	H	-0.371555	-0.160790	0.211129
H69	H	-0.455223	-0.101372	0.212696
C70	C	-0.391601	-0.249708	-0.093163
H71	H	-0.432985	-0.287835	-0.095315
H72	H	-0.357073	-0.261269	-0.040248
H73	H	-0.357877	-0.256038	-0.147285
H74	H	-0.854945	-0.171953	0.579481
H75	H	-1.005412	0.460250	-0.153379
H76	H	-0.855314	-0.172016	0.420349
H77	H	-0.434210	0.015027	0.063352
C78	C	-0.568612	-0.116264	0.175867
H79	H	-0.608913	-0.070606	0.158878
H80	H	-0.524711	-0.095698	0.210333
H81	H	-0.594984	-0.155019	0.212491
C82	C	-1.039520	0.042183	0.587623
H83	H	-1.028570	0.095114	0.563541
H84	H	-1.038699	0.044090	0.653218
H85	H	-1.093234	0.029868	0.567212
C86	C	-0.935040	-0.270700	0.590041
H87	H	-0.983159	-0.265661	0.628980
H88	H	-0.887243	-0.294013	0.624142
H89	H	-0.943957	-0.306444	0.539415
C90	C	-0.570144	-0.118837	-0.175922
H91	H	-0.611167	-0.073635	-0.159467
H92	H	-0.595886	-0.158825	-0.211430
H93	H	-0.527026	-0.097889	-0.211295
H94	H	-0.547101	-0.228494	0.093461
H95	H	-0.861973	0.297200	0.063079
H96	H	-1.000459	0.457639	0.153505
H97	H	-1.129029	-0.085068	0.420643
C98	C	-1.124198	0.482909	0.093304
H99	H	-1.162324	0.441525	0.095451
H100	H	-1.135760	0.517429	0.040388
H101	H	-1.130526	0.516639	0.147426
C102	C	-1.127842	0.323619	0.092253
H103	H	-1.139628	0.290349	0.040494
H104	H	-1.164148	0.374906	0.091442
H105	H	-1.136588	0.293810	0.147550
C106	C	-1.126516	0.482611	-0.087665
H107	H	-1.155027	0.464542	-0.140346
H108	H	-1.126200	0.541927	-0.089919
H109	H	-1.154580	0.467819	-0.033221
C110	C	-1.126775	0.322017	-0.095178
H111	H	-1.138928	0.287853	-0.044306
H112	H	-1.133879	0.292675	-0.151190
H113	H	-1.163954	0.372734	-0.094431
C114	C	-0.410446	-0.114420	-0.176372
H115	H	-0.351286	-0.112629	-0.177197
H116	H	-0.438245	-0.058710	-0.177741
H117	H	-0.426546	-0.144487	-0.228853
H118	H	-0.931473	-0.248569	0.420976
H119	H	-1.091540	-0.198219	0.578220
H120	H	-0.909219	-0.008392	0.580461
H121	H	-0.905272	-0.012845	0.420883
C122	C	-1.033029	0.044826	0.410111
H123	H	-1.019703	0.096748	0.434762
H124	H	-1.088211	0.035640	0.428679
H125	H	-1.030333	0.046610	0.344576
C126	C	-0.426294	0.027655	-0.084123
H127	H	-0.386471	-0.007348	-0.119630
H128	H	-0.401747	0.075851	-0.063941
H129	H	-0.474349	0.044813	-0.120966
H130	H	-0.577308	0.012521	-0.062951
H131	H	-0.403031	-0.228313	0.087600
