data_functionalizedCrystal
_audit_creation_method	'MofGen! by Chris Wilmer'
_symmetry_space_group_name_H-M	'P1'
_symmetry_Int_Tables_number	1
_symmetry_cell_setting	triclinic
loop_
_symmetry_equiv_pos_as_xyz
  x,y,z
_cell_length_a	17.019282
_cell_length_b	12.811487
_cell_length_c	11.295483
_cell_angle_alpha	99.530033
_cell_angle_beta	89.768720
_cell_angle_gamma	83.348688
loop_
_atom_site_label
_atom_site_type_symbol
_atom_site_fract_x
_atom_site_fract_y
_atom_site_fract_z
O1	O	1.045899	0.135278	0.022876
O2	O	0.817452	0.150790	0.001114
O3	O	0.938302	-0.010904	-0.003943
O4	O	0.925049	0.296972	0.027933
O5	O	0.927687	0.003276	0.194549
O6	O	0.806837	0.164970	0.199607
O7	O	1.035284	0.149458	0.221368
Cu8	Cu	0.920092	0.158509	0.228612
Cu9	Cu	0.932644	0.141739	-0.006129
O10	O	0.914434	0.311152	0.226426
C11	C	0.782919	0.157015	0.097269
C12	C	0.695834	0.154423	0.088055
C13	C	0.932577	-0.043224	0.091003
C14	C	0.931321	-0.160652	0.078190
C15	C	0.917404	-0.365868	0.270533
C16	C	0.916224	-0.476202	0.258499
C17	C	0.927788	-0.491658	0.042091
C18	C	0.928968	-0.381324	0.054125
C19	C	0.923774	-0.318432	0.168349
C20	C	0.924948	-0.208095	0.180381
C21	C	0.936518	-0.223553	-0.036025
C22	C	0.935338	-0.333888	-0.048059
C23	C	0.649140	0.160933	0.191927
C24	C	0.567317	0.158481	0.183271
C25	C	0.532188	0.149528	0.070743
C26	C	0.578888	0.143014	-0.033137
C27	C	0.660711	0.145458	-0.024481
C28	C	0.285426	0.141755	0.039193
C29	C	0.203596	0.139314	0.030545
C30	C	0.192031	0.154779	0.246954
C31	C	0.273855	0.157229	0.255601
C32	C	0.320549	0.150710	0.151721
C33	C	0.448551	0.147025	0.061893
C34	C	0.404185	0.153205	0.160571
C35	C	1.069818	0.143233	0.125211
C36	C	1.156902	0.145824	0.134417
C37	C	0.920160	0.343471	0.131477
C38	C	0.921415	0.460899	0.144282
N39	N	0.911268	0.170303	0.393716
N40	N	0.941474	0.129937	-0.171234
C41	C	1.004989	0.044977	0.639091
C42	C	0.998327	0.053898	0.764034
C43	C	0.891278	0.197058	0.768547
C44	C	0.897941	0.188138	0.643604
C45	C	0.954798	0.112096	0.578880
C46	C	0.961464	0.103181	0.453936
C47	C	0.854412	0.246336	0.458450
C48	C	0.847750	0.255257	0.583393
H49	H	0.920708	-0.156888	0.273387
H50	H	0.323434	0.136443	-0.045394
H51	H	1.007762	0.041267	0.401239
Cl52	Cl	0.944487	-0.163907	-0.164496
H53	H	0.844981	0.258963	0.821259
H54	H	0.154005	0.160085	0.331528
H55	H	0.913155	-0.314657	0.363537
H56	H	0.932025	-0.542884	-0.050904
H57	H	0.677735	0.168233	0.283561
H58	H	0.813546	0.300992	0.409413
H59	H	1.051290	-0.016932	0.586393
H60	H	0.550280	0.135717	-0.124761
Cl61	Cl	0.448349	0.164458	0.302030
H62	H	0.698728	0.140160	-0.109065
H63	H	1.039196	-0.000758	0.813054
H64	H	0.939569	-0.385109	-0.141057
H65	H	0.529303	0.163765	0.267853
Cl66	Cl	0.776273	0.350845	0.664767
Cl67	Cl	0.404386	0.135722	-0.079572
Cl68	Cl	0.318010	0.168493	0.397072
H69	H	0.911038	-0.514820	0.341708
H70	H	0.174997	0.132026	-0.061093
