data_functionalizedCrystal
_audit_creation_method	'MofGen! by Chris Wilmer'
_symmetry_space_group_name_H-M	'P1'
_symmetry_Int_Tables_number	1
_symmetry_cell_setting	triclinic
loop_
_symmetry_equiv_pos_as_xyz
  x,y,z
_cell_length_a	14.519709
_cell_length_b	10.723024
_cell_length_c	9.198806
_cell_angle_alpha	89.996339
_cell_angle_beta	89.995604
_cell_angle_gamma	84.074007
loop_
_atom_site_label
_atom_site_type_symbol
_atom_site_fract_x
_atom_site_fract_y
_atom_site_fract_z
O1	O	-0.129348	-1.655978	0.120886
O2	O	-0.141729	-1.292710	0.120892
O3	O	-0.001349	-1.483976	0.120876
O4	O	-0.269728	-1.464713	0.120902
O5	O	-0.001348	-1.483961	-0.120909
O6	O	-0.141728	-1.292695	-0.120893
O7	O	-0.129347	-1.655963	-0.120899
Cu8	Cu	-0.135537	-1.474328	-0.142973
Cu9	Cu	-0.135538	-1.474345	0.142966
O10	O	-0.269726	-1.464697	-0.120883
C11	C	-0.140827	-1.246211	-0.000000
C12	C	-0.138132	-1.107682	0.000001
C13	C	0.033016	-1.483070	-0.000017
C14	C	0.135411	-1.480380	-0.000018
C15	C	-0.304091	-1.465603	0.000013
C16	C	-0.406486	-1.468293	0.000024
C17	C	0.510357	-1.470476	0.000020
C18	C	0.406035	-1.473227	0.000009
C19	C	0.322887	-1.475428	-0.000000
C20	C	0.218559	-1.478179	-0.000008
C21	C	-0.130248	-1.702462	-0.000003
C22	C	-0.132944	-1.840991	0.000005
N23	N	-0.135536	-1.474324	-0.344087
C24	C	-0.216681	-1.031965	0.000010
C25	C	-0.213896	-0.888788	0.000012
C26	C	-0.189012	-1.546589	-0.416280
C27	C	-0.189011	-1.546608	-0.583693
N28	N	-0.135533	-1.474359	0.344080
H29	H	-0.281141	-0.823726	0.000025
C30	C	-0.042091	-0.928867	-0.000006
C31	C	-0.020835	-1.022404	-0.125561
C32	C	0.070018	-1.110291	-0.125571
C33	C	0.139614	-1.104639	-0.000026
C34	C	0.118360	-1.011098	0.125539
C35	C	0.027508	-0.923212	0.125549
H36	H	-0.072356	-1.026591	-0.218506
H37	H	0.085751	-1.179536	-0.218524
H38	H	0.206869	-1.169698	-0.000033
H39	H	0.169882	-1.006911	0.218484
H40	H	0.011774	-0.853966	0.218502
C41	C	-0.250866	-1.630194	-0.667552
C42	C	-0.237961	-1.773430	-0.646734
C43	C	-0.299818	-1.857019	-0.730596
C44	C	-0.374580	-1.797372	-0.835276
C45	C	-0.387488	-1.654129	-0.856098
C46	C	-0.325631	-1.570539	-0.772236
H47	H	-0.182614	-1.817592	-0.569240
H48	H	-0.290262	-1.963058	-0.715182
H49	H	-0.420370	-1.859250	-0.897356
H50	H	-0.442835	-1.609967	-0.933592
H51	H	-0.335187	-1.464501	-0.787650
H52	H	-0.068822	-1.066508	0.000032
H53	H	-0.234793	-1.608448	-0.354148
C54	C	-0.310322	-1.087568	0.000021
C55	C	-0.379226	-1.057676	0.125583
C56	C	-0.472872	-1.113273	0.125595
C57	C	-0.497614	-1.198761	0.000046
C58	C	-0.428708	-1.228658	-0.125525
C59	C	-0.335062	-1.173062	-0.125537
H60	H	-0.360913	-0.994388	0.218530
H61	H	-0.523880	-1.091141	0.218552
H62	H	-0.566936	-1.239917	0.000055
H63	H	-0.447022	-1.291946	-0.218472
H64	H	-0.284054	-1.195193	-0.218494
C65	C	-0.073675	-1.390769	-0.572071
C66	C	0.001087	-1.450416	-0.467391
C67	C	0.062944	-1.366827	-0.383529
C68	C	0.050039	-1.223591	-0.404347
C69	C	-0.024727	-1.163936	-0.509031
C70	C	-0.086584	-1.247526	-0.592893
H71	H	0.010643	-1.556455	-0.451977
H72	H	0.118290	-1.410988	-0.306035
H73	H	0.095829	-1.161713	-0.342267
H74	H	-0.034283	-1.057898	-0.524445
H75	H	-0.141930	-1.203364	-0.670387
H76	H	-0.089749	-1.412473	-0.406219
