data_functionalizedCrystal
_audit_creation_method	'MofGen! by Chris Wilmer'
_symmetry_space_group_name_H-M	'P1'
_symmetry_Int_Tables_number	1
_symmetry_cell_setting	triclinic
loop_
_symmetry_equiv_pos_as_xyz
  x,y,z
_cell_length_a	16.109301
_cell_length_b	15.995350
_cell_length_c	15.186229
_cell_angle_alpha	89.998487
_cell_angle_beta	89.999362
_cell_angle_gamma	83.476928
loop_
_atom_site_label
_atom_site_type_symbol
_atom_site_fract_x
_atom_site_fract_y
_atom_site_fract_z
O1	O	1.103160	0.107624	-0.073168
O2	O	0.861101	0.121018	-0.073182
O3	O	0.988747	-0.007569	-0.073174
O4	O	0.975514	0.236210	-0.073176
O5	O	0.988739	-0.007570	0.073283
O6	O	0.861093	0.121016	0.073275
O7	O	1.103151	0.107622	0.073289
Zn8	Zn	0.982121	0.114319	0.096535
Zn9	Zn	0.982132	0.114321	-0.096428
O10	O	0.975505	0.236208	0.073281
C11	C	0.830122	0.120474	0.000045
C12	C	0.737826	0.118848	0.000040
C13	C	0.988196	-0.038764	0.000053
C14	C	0.986556	-0.131714	0.000048
C15	C	0.515573	0.191366	0.000049
C16	C	0.428853	0.189831	0.000055
C17	C	0.448686	0.037268	0.000053
C18	C	0.535405	0.038804	0.000053
C19	C	0.568846	0.115855	0.000047
C20	C	0.395406	0.112785	0.000052
C21	C	0.301380	0.111120	0.000058
C22	C	0.662879	0.117520	0.000043
C23	C	0.980665	-0.469460	0.000050
C24	C	0.889758	-0.422001	-0.000283
C25	C	0.891399	-0.325311	0.000047
C26	C	0.983587	-0.301900	0.000049
C27	C	1.028421	-0.342991	0.083684
C28	C	1.026137	-0.439626	0.083754
C29	C	1.028025	-0.439983	-0.082795
C30	C	1.028003	-0.343037	-0.083901
C31	C	0.985243	-0.207203	0.000051
C32	C	0.979012	-0.564157	0.000054
C33	C	1.134130	0.108166	0.000060
C34	C	1.226426	0.109792	0.000059
C35	C	0.976056	0.267404	0.000052
C36	C	0.977697	0.360354	0.000051
N37	N	0.982119	0.114317	0.228228
N38	N	0.982140	0.114317	-0.228121
C39	C	1.038660	0.057398	0.453954
C40	C	1.038662	0.057396	0.546144
C41	C	0.925593	0.171238	0.546146
C42	C	0.925587	0.171236	0.453958
C43	C	0.982125	0.114316	0.407865
C44	C	0.982134	0.114317	0.592242
C45	C	0.982136	0.114315	0.692198
C46	C	0.982122	0.114317	0.307902
H47	H	0.542798	0.254106	0.000051
C48	C	0.287114	0.255221	0.000058
C49	C	0.370294	0.272835	0.000053
H50	H	0.250964	0.306467	0.000062
H51	H	0.276980	0.223632	-0.051010
H52	H	0.276985	0.223627	0.051137
H53	H	0.380424	0.304423	-0.051029
H54	H	0.380432	0.304436	0.051126
C55	C	0.438896	-0.093236	-0.075240
C56	C	0.411925	-0.047425	0.000048
H57	H	0.416206	-0.145525	-0.075241
H58	H	0.420608	-0.062142	-0.126302
H59	H	0.498168	-0.103122	-0.075228
H60	H	0.352653	-0.037533	0.000032
H61	H	0.430209	-0.078526	0.051123
C62	C	0.776771	-0.229572	-0.053143
C63	C	0.843833	-0.286910	-0.080886
H64	H	0.747410	-0.205862	-0.103111
H65	H	0.740123	-0.257849	-0.017780
H66	H	0.797302	-0.186109	-0.019733
H67	H	0.823301	-0.330377	-0.114291
H68	H	0.880486	-0.258632	-0.116263
H69	H	0.853581	-0.441586	0.059355
C70	C	1.151768	0.039199	0.350226
C71	C	1.100761	-0.005193	0.403265
H72	H	1.190097	0.000548	0.318932
H73	H	1.118097	0.073110	0.309602
H74	H	1.181714	0.074036	0.386178
H75	H	1.070810	-0.040025	0.367312
H76	H	1.134436	-0.039118	0.443893
H77	H	0.855912	-0.297438	0.060099
H78	H	0.879546	0.217586	0.416429
H79	H	1.095050	-0.471762	-0.083356
H80	H	0.998306	-0.460513	-0.146186
C81	C	0.644443	-0.047971	-0.075236
C82	C	0.593972	-0.044203	0.000049
H83	H	0.680602	-0.099211	-0.075232
H84	H	0.610202	-0.045403	-0.126300
H85	H	0.676764	-0.001858	-0.075225
H86	H	0.561646	-0.090313	0.000034
H87	H	0.628217	-0.046779	0.051126
H88	H	0.995224	-0.315779	-0.145772
C89	C	1.119351	-0.234970	-0.095860
C90	C	1.118754	-0.322303	-0.090702
H91	H	1.175378	-0.222164	-0.100043
H92	H	1.089045	-0.214164	-0.146438
H93	H	1.094047	-0.209355	-0.044586
H94	H	1.144052	-0.347917	-0.141979
H95	H	1.149072	-0.343118	-0.040118
C96	C	0.891559	-0.505399	-0.131863
C97	C	0.840701	-0.447009	-0.081241
H98	H	0.861268	-0.520846	-0.181840
H99	H	0.939617	-0.480980	-0.150667
H100	H	0.908270	-0.553978	-0.097413
H101	H	0.823994	-0.398428	-0.115689
H102	H	0.792628	-0.471427	-0.062437
C103	C	1.056716	-0.056556	0.649812
C104	C	1.100809	-0.005171	0.596805
H105	H	1.095086	-0.095187	0.681082
H106	H	1.023058	-0.022659	0.690456
H107	H	1.022113	-0.086682	0.613841
H108	H	1.135408	0.024960	0.632776
H109	H	1.134481	-0.039072	0.556156
C110	C	1.158062	-0.361432	0.163153
C111	C	1.119852	-0.323950	0.087894
H112	H	1.214509	-0.349679	0.165746
H113	H	1.129132	-0.339470	0.214106
H114	H	1.156469	-0.420569	0.160637
H115	H	1.121439	-0.264812	0.090413
H116	H	1.148790	-0.345908	0.036927
C117	C	0.957834	-0.392109	0.218162
C118	C	0.981983	-0.464327	0.168142
H119	H	0.930569	-0.407356	0.270256
H120	H	1.005850	-0.365865	0.233440
H121	H	0.920691	-0.354134	0.184713
H122	H	1.019131	-0.502299	0.201588
H123	H	0.933960	-0.490584	0.152865
C124	C	1.125491	-0.532917	0.164918
C125	C	1.116233	-0.483190	0.088899
H126	H	1.181110	-0.559811	0.168095
H127	H	1.114020	-0.498395	0.215337
H128	H	1.087630	-0.574280	0.162869
H129	H	1.154090	-0.441823	0.090951
H130	H	1.127713	-0.517715	0.038467
H131	H	0.997275	-0.314602	0.145921
H132	H	0.879562	0.217582	0.583685
