data_functionalizedCrystal
_audit_creation_method	'MofGen! by Chris Wilmer'
_symmetry_space_group_name_H-M	'P1'
_symmetry_Int_Tables_number	1
_symmetry_cell_setting	triclinic
loop_
_symmetry_equiv_pos_as_xyz
  x,y,z
_cell_length_a	12.759401
_cell_length_b	18.101397
_cell_length_c	12.759393
_cell_angle_alpha	90.037652
_cell_angle_beta	90.018496
_cell_angle_gamma	90.020627
loop_
_atom_site_label
_atom_site_type_symbol
_atom_site_fract_x
_atom_site_fract_y
_atom_site_fract_z
Zn1	Zn	1.606213	-0.294783	0.593937
Zn2	Zn	1.606090	-0.418644	0.418238
Zn3	Zn	1.430515	-0.294822	0.418276
Zn4	Zn	1.430486	-0.418587	0.593880
O5	O	1.518326	-0.356709	0.506083
O6	O	1.753218	-0.311221	0.570638
O7	O	1.582760	-0.402259	0.271222
O8	O	1.453886	-0.191183	0.441618
O9	O	1.753127	-0.402221	0.441553
O10	O	1.582970	-0.191155	0.570675
O11	O	1.453766	-0.311287	0.271250
O12	O	1.283490	-0.311232	0.441562
O13	O	1.453836	-0.402124	0.740909
O14	O	1.283469	-0.402162	0.570578
O15	O	1.582942	-0.311166	0.740950
O16	O	1.582732	-0.522270	0.441498
O17	O	1.453717	-0.522228	0.570541
C18	C	1.245359	-0.356695	0.506069
C19	C	1.128582	-0.356707	0.506087
C20	C	1.073737	-0.404130	0.573154
C21	C	0.964012	-0.404140	0.573166
C22	C	0.963989	-0.309301	0.439034
C23	C	1.073711	-0.309288	0.439029
C24	C	1.073749	-0.458887	0.650591
C25	C	0.964025	-0.458897	0.650603
C26	C	1.518236	-0.549120	0.506032
C27	C	1.518294	-0.631434	0.506045
C28	C	1.518428	-0.930525	0.506141
C29	C	1.599375	-0.899195	0.424733
C30	C	1.599655	-0.813576	0.424944
C31	C	1.518362	-0.782142	0.506093
C32	C	1.548380	-0.813140	0.616833
C33	C	1.549006	-0.898785	0.616390
C34	C	1.407247	-0.899036	0.477767
C35	C	1.407796	-0.813387	0.475295
C36	C	1.518322	-0.698283	0.506072
C37	C	1.518470	-1.014384	0.506169
C38	C	1.792359	-0.356723	0.506098
C39	C	1.909136	-0.356729	0.506104
C40	C	1.518400	-0.356634	0.780116
C41	C	1.518431	-0.356602	0.896893
C42	C	1.518445	-0.163547	0.506157
C43	C	1.518496	-0.081233	0.506189
C44	C	1.518313	-0.356730	0.233115
C45	C	1.518486	-0.356553	0.116339
C46	C	1.585666	-0.309236	0.951779
C47	C	1.585691	-0.309209	1.061503
C48	C	1.451243	-0.403922	1.061446
C49	C	1.451214	-0.403944	0.951724
C50	C	1.663291	-0.254556	0.951812
C51	C	1.663316	-0.254529	1.061536
H52	H	1.107755	-0.513341	0.621299
H53	H	1.641531	-0.197204	0.922065
F54	F	1.764287	-0.281427	0.907315
H55	H	1.634210	-0.200035	1.095592
F56	F	1.769671	-0.274599	1.100461
H57	H	1.118363	-0.270667	0.384423
H58	H	1.492631	-0.919506	0.679135
H59	H	0.919300	-0.270693	0.384438
H60	H	1.103559	-0.443592	0.732000
H61	H	1.396461	-0.442512	0.907040
H62	H	0.930030	-0.438424	0.727958
H63	H	1.396515	-0.442465	1.106103
F64	F	0.925064	-0.533839	0.621897
H65	H	1.580874	-0.792622	0.342831
F66	F	1.378204	-0.786914	0.368776
F67	F	1.575130	-0.926190	0.317082
H68	H	1.681281	-0.920661	0.443291
H69	H	1.682011	-0.793031	0.443717
H70	H	1.346936	-0.919297	0.537060
H71	H	1.628739	-0.791630	0.641276
F72	F	1.655230	-0.924819	0.647805
F73	F	1.473670	-0.786530	0.698247
H74	H	1.379939	-0.920704	0.398415
F75	F	1.324721	-0.785429	0.547120
