data_functionalizedCrystal
_audit_creation_method	'MofGen! by Chris Wilmer'
_symmetry_space_group_name_H-M	'P1'
_symmetry_Int_Tables_number	1
_symmetry_cell_setting	triclinic
loop_
_symmetry_equiv_pos_as_xyz
  x,y,z
_cell_length_a	11.792241
_cell_length_b	14.853558
_cell_length_c	13.930277
_cell_angle_alpha	90.006822
_cell_angle_beta	90.002535
_cell_angle_gamma	83.912275
loop_
_atom_site_label
_atom_site_type_symbol
_atom_site_fract_x
_atom_site_fract_y
_atom_site_fract_z
O1	O	0.148127	1.196951	0.079819
O2	O	0.648127	1.696951	0.579819
O3	O	0.165790	0.934559	0.079824
O4	O	0.665790	1.434559	0.579824
O5	O	-0.008251	1.072122	0.079815
O6	O	0.491749	1.572122	0.579815
O7	O	0.322169	1.059387	0.079829
O8	O	0.822169	1.559387	0.579829
O9	O	-0.008248	1.072102	-0.079847
O10	O	0.491752	1.572102	0.420153
O11	O	0.165794	0.934539	-0.079838
O12	O	0.665794	1.434539	0.420162
O13	O	0.148131	1.196931	-0.079842
O14	O	0.648131	1.696931	0.420158
Zn15	Zn	0.156963	1.065731	-0.105190
Zn16	Zn	0.656963	1.565731	0.394810
Zn17	Zn	0.156958	1.065758	0.105172
Zn18	Zn	0.656958	1.565758	0.605172
O19	O	0.322172	1.059367	-0.079833
O20	O	0.822172	1.559367	0.420167
C21	C	0.164994	0.900957	-0.000006
C22	C	0.664994	1.400957	0.499994
C23	C	0.162601	0.800863	-0.000005
C24	C	0.662601	1.300863	0.499995
C25	C	0.161477	0.753850	0.087030
C26	C	0.661477	1.253850	0.587030
C27	C	0.161467	0.753826	-0.087039
C28	C	0.661467	1.253826	0.412961
C29	C	0.159213	0.659784	-0.087041
C30	C	0.659213	1.159784	0.412959
C31	C	0.158089	0.612770	-0.000005
C32	C	0.658089	1.112770	0.499995
C33	C	0.159219	0.659799	0.087032
C34	C	0.659219	1.159799	0.587032
C35	C	0.158072	0.612749	-0.174076
C36	C	0.658072	1.112749	0.325924
C37	C	0.155816	0.518701	-0.174081
C38	C	0.655816	1.018701	0.325919
C39	C	0.154700	0.471685	-0.087045
C40	C	0.654700	0.971685	0.412955
C41	C	0.155832	0.518719	-0.000004
C42	C	0.655832	1.018719	0.499996
C43	C	0.154708	0.471706	0.087031
C44	C	0.654708	0.971706	0.587031
C45	C	0.155847	0.518738	0.174072
C46	C	0.655847	1.018738	0.674072
C47	C	0.158104	0.612783	0.174068
C48	C	0.658104	1.112783	0.674068
C49	C	0.152444	0.377640	-0.087040
C50	C	0.652444	0.877640	0.412960
C51	C	0.152450	0.377655	0.087032
C52	C	0.652450	0.877655	0.587032
C53	C	-0.050535	1.071312	-0.000016
C54	C	0.449465	1.571312	0.499984
C55	C	-0.176534	1.068918	-0.000015
C56	C	0.323466	1.568918	0.499985
C57	C	-0.407219	1.064515	0.000001
C58	C	0.092781	1.564515	0.500001
C59	C	-0.278849	1.066961	-0.000007
C60	C	0.221151	1.566961	0.499993
C61	C	0.364457	1.060177	-0.000001
C62	C	0.864457	1.560177	0.499999
C63	C	0.490455	1.062572	0.000005
C64	C	0.990455	1.562572	0.500005
C65	C	0.148927	1.230533	-0.000010
C66	C	0.648927	1.730533	0.499990
C67	C	0.151320	1.330626	-0.000005
C68	C	0.651320	1.830626	0.499995
N69	N	0.156965	1.065720	-0.248756
N70	N	0.656965	1.565720	0.251244
C71	C	0.088004	1.010711	-0.299021
C72	C	0.588004	1.510711	0.200979
C73	C	0.225921	1.120740	-0.298996
C74	C	0.725921	1.620740	0.201004
C75	C	0.225920	1.120751	-0.399492
C76	C	0.725920	1.620751	0.100508
C77	C	0.156959	1.065743	-0.449757
C78	C	0.656959	1.565743	0.050243
C79	C	0.087998	1.010722	-0.399526
C80	C	0.587998	1.510722	0.100474
C81	C	0.294871	1.175777	-0.449730
C82	C	0.794871	1.675777	0.050270
C83	C	0.294872	1.175791	-0.550232
C84	C	0.794872	1.675791	-0.050232
C85	C	0.225916	1.120777	-0.600498
C86	C	0.725916	1.620777	-0.100498
C87	C	0.156953	1.065754	-0.550262
C88	C	0.656953	1.565754	-0.050262
C89	C	0.087992	1.010745	-0.600527
C90	C	0.587992	1.510745	-0.100527
C91	C	0.019034	0.955717	-0.550292
C92	C	0.519034	1.455717	-0.050292
C93	C	0.019042	0.955708	-0.449793
C94	C	0.519042	1.455708	0.050207
C95	C	0.225909	1.120786	-0.700997
C96	C	0.725909	1.620786	-0.200997
C97	C	0.087986	1.010757	-0.701032
C98	C	0.587986	1.510757	-0.201032
N99	N	0.156947	1.065777	0.248738
N100	N	0.656947	1.565777	0.748738
H101	H	0.151527	0.339349	-0.157908
H102	H	0.651527	0.839349	0.342092
C103	C	0.154969	0.466930	-0.269817
C104	C	0.654969	0.966930	0.230183
H105	H	0.153581	0.404175	-0.257354
H106	H	0.653581	0.904175	0.242646
H107	H	0.221592	0.475892	-0.305363
H108	H	0.721592	0.975892	0.194637
H109	H	0.089312	0.488763	-0.305792
H110	H	0.589312	0.988763	0.194208
H111	H	0.351008	1.220569	-0.408796
H112	H	0.851008	1.720569	0.091204
C113	C	0.159309	0.664463	-0.269805
C114	C	0.659309	1.164463	0.230195
H115	H	0.160832	0.727207	-0.257338
H116	H	0.660832	1.227207	0.242662
H117	H	0.092803	0.655608	-0.305568
H118	H	0.592803	1.155608	0.194432
H119	H	0.225079	0.642488	-0.305565
H120	H	0.725079	1.142488	0.194435
C121	C	0.151217	0.325943	0.182770
C122	C	0.651217	0.825943	0.682770
H123	H	0.149715	0.263196	0.170308
H124	H	0.649715	0.763196	0.670308
H125	H	0.085460	0.347917	0.218536
H126	H	0.585460	0.847917	0.718536
H127	H	0.217735	0.334801	0.218524
H128	H	0.717735	0.834801	0.718524
H129	H	0.282060	1.165531	-0.258064
H130	H	0.782060	1.665531	0.241936
H131	H	-0.037119	0.910932	-0.591231
H132	H	0.462881	1.410932	-0.091231
C133	C	0.159339	0.664521	0.269802
C134	C	0.659339	1.164521	0.769802
H135	H	0.160828	0.727265	0.257334
H136	H	0.660828	1.227265	0.757334
H137	H	0.225101	0.642565	0.305570
H138	H	0.725101	1.142565	0.805570
H139	H	0.092826	0.655665	0.305556
H140	H	0.592826	1.155665	0.805556
H141	H	0.351022	1.220598	-0.591124
H142	H	0.851022	1.720598	-0.091124
C143	C	0.162705	0.805538	-0.182769
C144	C	0.662705	1.305538	0.317231
H145	H	0.164217	0.868283	-0.170304
H146	H	0.664217	1.368283	0.329696
H147	H	0.096203	0.796676	-0.218535
H148	H	0.596203	1.296676	0.281465
H149	H	0.228479	0.783567	-0.218526
H150	H	0.728479	1.283567	0.281474
C151	C	0.162726	0.805579	0.182769
C152	C	0.662726	1.305579	0.682769
H153	H	0.164225	0.868324	0.170308
H154	H	0.664225	1.368324	0.670308
H155	H	0.228488	0.783612	0.218531
H156	H	0.728488	1.283612	0.718531
H157	H	0.096213	0.796727	0.218526
H158	H	0.596213	1.296727	0.718526
C159	C	0.012133	0.950241	-0.756316
C160	C	0.512133	1.450241	-0.256316
H161	H	-0.028934	0.917473	-0.712003
H162	H	0.471066	1.417473	-0.212003
H163	H	0.058553	0.908987	-0.795533
H164	H	0.558553	1.408987	-0.295533
H165	H	-0.040034	0.986934	-0.795509
H166	H	0.459966	1.486934	-0.295509
C167	C	-0.056826	0.895203	-0.394534
C168	C	0.443174	1.395203	0.105466
H169	H	-0.046959	0.903088	-0.327482
H170	H	0.453041	1.403088	0.172518
H171	H	-0.035893	0.833621	-0.411007
H172	H	0.464107	1.333621	0.088993
H173	H	-0.134447	0.911594	-0.411009
H174	H	0.365553	1.411594	0.088991
C175	C	0.301746	1.181309	-0.756256
C176	C	0.801746	1.681309	-0.256256
H177	H	0.291863	1.173442	-0.823309
H178	H	0.791863	1.673442	-0.323309
H179	H	0.379369	1.164946	-0.739788
H180	H	0.879369	1.664946	-0.239788
H181	H	0.280777	1.242890	-0.739772
H182	H	0.780777	1.742890	-0.239772
C183	C	0.012153	0.950187	-0.243769
C184	C	0.512153	1.450187	0.256231
H185	H	0.022025	0.958059	-0.176716
H186	H	0.522025	1.458059	0.323284
H187	H	0.033102	0.888611	-0.260259
H188	H	0.533102	1.388611	0.239741
H189	H	-0.065473	0.966568	-0.260236
H190	H	0.434527	1.466568	0.239764
H191	H	0.154926	0.480448	0.244936
H192	H	0.654926	0.980448	0.744936
