data_functionalizedCrystal
_audit_creation_method	'MofGen! by Chris Wilmer'
_symmetry_space_group_name_H-M	'P1'
_symmetry_Int_Tables_number	1
_symmetry_cell_setting	triclinic
loop_
_symmetry_equiv_pos_as_xyz
  x,y,z
_cell_length_a	6.817900
_cell_length_b	7.190334
_cell_length_c	20.713235
_cell_angle_alpha	82.674594
_cell_angle_beta	89.987711
_cell_angle_gamma	60.611776
loop_
_atom_site_label
_atom_site_type_symbol
_atom_site_fract_x
_atom_site_fract_y
_atom_site_fract_z
V1	V	-4.158407	0.665018	-0.088295
O2	O	-4.210606	0.652341	0.005303
O3	O	-4.044402	0.660487	-0.176093
O4	O	-4.196905	0.955047	-0.086472
O5	O	-4.057048	0.355741	-0.084939
V6	V	-4.639276	0.628024	-0.077155
O7	O	-4.425488	0.746167	-0.112732
O8	O	-4.822394	0.546874	-0.052717
O9	O	-4.530075	0.632555	0.010644
O10	O	-4.704475	0.640701	-0.170752
O11	O	-4.858033	0.937300	-0.080510
O12	O	-4.377573	0.337994	-0.078978
C13	C	-3.870631	0.650000	-0.197511
C14	C	-3.859284	0.648229	-0.269284
C15	C	-4.065176	1.025739	-0.083187
C16	C	-4.179612	1.267295	-0.082259
C17	C	-3.661656	0.636112	-0.307883
C18	C	-3.667738	0.463963	-0.344477
C19	C	-3.833015	0.817243	-0.360578
C20	C	-3.865448	0.475957	-0.304926
C21	C	-4.030772	0.829395	-0.321030
C22	C	-4.036976	0.657211	-0.357605
C23	C	-4.367184	0.643036	0.032058
C24	C	-4.357773	0.644821	0.103831
C25	C	-4.526119	0.635863	0.192188
C26	C	-4.542287	0.817007	0.139454
C27	C	-4.341824	0.463733	0.155608
C28	C	-4.357204	0.829374	0.178962
C29	C	-4.156675	0.475939	0.195128
C30	C	-4.172734	0.657135	0.142408
C31	C	-4.331580	0.649855	0.302528
C32	C	-4.341078	0.648059	0.230758
V33	V	-4.059515	0.665172	0.411687
O34	O	-3.840525	0.355960	0.415031
O35	O	-4.321399	0.955078	0.413532
O36	O	-4.168765	0.660519	0.323910
O37	O	-3.994215	0.652558	0.505274
V38	V	-3.540607	0.628726	0.422732
O39	O	-3.876627	0.746568	0.387207
O40	O	-3.273554	0.547823	0.447126
O41	O	-3.501803	0.338574	0.420930
O42	O	-3.642267	0.938066	0.419365
O43	O	-3.488577	0.641468	0.329123
O44	O	-3.654437	0.633133	0.510552
C45	C	-3.828091	0.643437	0.532002
C46	C	-3.839335	0.645204	0.603777
C47	C	-4.526271	1.025601	0.416842
C48	C	-4.662067	1.267154	0.417755
H49	H	-3.514176	0.309441	-0.355097
C50	C	-4.251276	0.669183	-0.386800
H51	H	-4.328290	0.795426	-0.418113
H52	H	-4.210512	0.545442	-0.407281
H53	H	-4.347249	0.674096	-0.353016
C54	C	-4.333239	0.254967	0.141311
H55	H	-4.458960	0.247673	0.158439
H56	H	-4.337951	0.254663	0.095492
H57	H	-4.197525	0.133765	0.161197
H58	H	-3.993641	0.331741	0.219389
H59	H	-4.675514	0.627112	0.213923
C60	C	-3.970947	0.669337	0.113180
H61	H	-3.976800	0.799255	0.121008
H62	H	-3.834177	0.549394	0.132993
H63	H	-3.977414	0.666938	0.067498
H64	H	-3.879144	0.331579	-0.280763
C65	C	-3.447387	0.623776	-0.278512
H66	H	-3.318727	0.493794	-0.286285
H67	H	-3.434531	0.743644	-0.298283
H68	H	-3.456704	0.626226	-0.232838
H69	H	-4.184271	0.983917	-0.310394
H70	H	-3.819115	0.961429	-0.384818
C71	C	-4.762594	1.011786	0.106693
H72	H	-4.727712	1.099620	0.076087
H73	H	-4.846594	0.962183	0.084814
H74	H	-4.849381	1.093743	0.138972
H75	H	-4.363738	0.984068	0.189461
