data_functionalizedCrystal
_audit_creation_method	'MofGen! by Chris Wilmer'
_symmetry_space_group_name_H-M	'P1'
_symmetry_Int_Tables_number	1
_symmetry_cell_setting	triclinic
loop_
_symmetry_equiv_pos_as_xyz
  x,y,z
_cell_length_a	14.044220
_cell_length_b	12.503572
_cell_length_c	14.044220
_cell_angle_alpha	93.843168
_cell_angle_beta	86.811122
_cell_angle_gamma	93.835250
loop_
_atom_site_label
_atom_site_type_symbol
_atom_site_fract_x
_atom_site_fract_y
_atom_site_fract_z
O1	O	1.282200	0.089210	-0.225116
O2	O	1.005530	0.089237	-0.216809
O3	O	1.139712	0.089213	-0.082627
O4	O	1.148019	0.089234	-0.359298
O5	O	1.129622	-0.089427	-0.092737
O6	O	0.995440	-0.089403	-0.226918
O7	O	1.272110	-0.089430	-0.235226
Cu8	Cu	1.132854	-0.105728	-0.231995
Cu9	Cu	1.144786	0.105535	-0.220040
O10	O	1.137929	-0.089406	-0.369407
C11	C	0.964864	-0.000080	-0.218228
C12	C	0.858721	-0.000070	-0.207383
N13	N	1.124469	-0.254319	-0.240404
C14	C	0.664382	-0.000092	-0.187558
C15	C	0.613253	-0.000091	-0.264472
C16	C	0.505116	-0.000104	-0.253441
C17	C	0.772529	-0.000080	-0.198587
C18	C	1.112134	-0.473432	-0.252782
C19	C	1.165511	-0.526768	-0.199249
C20	C	1.158648	-0.648690	-0.206136
C21	C	1.118996	-0.351499	-0.245896
C22	C	1.312777	-0.000111	-0.233807
C23	C	1.418920	-0.000114	-0.244651
C24	C	1.131031	-0.000107	-0.052060
C25	C	1.120187	-0.000107	0.054082
N26	N	1.153179	0.254126	-0.211624
C27	C	1.146609	-0.000084	-0.399974
C28	C	1.157454	-0.000077	-0.506117
C29	C	1.100361	-0.000090	0.248421
C30	C	1.177275	-0.000094	0.299551
C31	C	1.166244	-0.000084	0.407687
C32	C	1.111391	-0.000099	0.140274
H33	H	0.650692	-0.000081	-0.338605
C34	C	1.049907	-0.645928	-0.315226
C35	C	1.043497	-0.535391	-0.321642
H36	H	1.007540	-0.684185	-0.357743
H37	H	1.033017	-0.664291	-0.251677
H38	H	1.113510	-0.664272	-0.331922
H39	H	0.979895	-0.517045	-0.304939
H40	H	1.060381	-0.517021	-0.385205
C41	C	0.514954	-0.000096	-0.095791
C42	C	0.613848	-0.000093	-0.087485
H43	H	0.483751	-0.000086	-0.034010
H44	H	0.493508	-0.062392	-0.133007
H45	H	0.500534	0.062200	-0.125978
H46	H	0.628269	-0.062394	-0.057304
H47	H	0.635302	0.062209	-0.050254
H48	H	1.251413	-0.000029	0.262115
H49	H	1.216364	-0.480864	-0.148245
C50	C	1.008595	-0.000090	0.397850
C51	C	1.000288	-0.000089	0.298955
H52	H	0.946813	-0.000100	0.429053
H53	H	1.045802	0.062205	0.419305
H54	H	1.038789	-0.062387	0.412260
H55	H	0.970100	0.062212	0.284544
H56	H	0.963066	-0.062390	0.277492
