data_functionalizedCrystal
_audit_creation_method	'MofGen! by Chris Wilmer'
_symmetry_space_group_name_H-M	'P1'
_symmetry_Int_Tables_number	1
_symmetry_cell_setting	triclinic
loop_
_symmetry_equiv_pos_as_xyz
  x,y,z
_cell_length_a	17.699083
_cell_length_b	18.266242
_cell_length_c	17.699083
_cell_angle_alpha	89.993977
_cell_angle_beta	96.716985
_cell_angle_gamma	90.002912
loop_
_atom_site_label
_atom_site_type_symbol
_atom_site_fract_x
_atom_site_fract_y
_atom_site_fract_z
O1	O	1.004081	0.060780	-0.095711
O2	O	1.504081	0.560780	0.404289
O3	O	0.783702	0.060804	-0.108164
O4	O	1.283702	0.560804	0.391836
O5	O	0.900118	0.060785	0.008252
O6	O	1.400118	0.560785	0.508252
O7	O	0.887665	0.060799	-0.212126
O8	O	1.387665	0.560799	0.287874
O9	O	0.900098	-0.060977	0.008255
O10	O	1.400098	0.439023	0.508255
O11	O	0.783682	-0.060958	-0.108160
O12	O	1.283682	0.439042	0.391840
O13	O	1.004061	-0.060982	-0.095708
O14	O	1.504061	0.439018	0.404292
Zn15	Zn	0.893869	-0.080302	-0.101933
Zn16	Zn	1.393869	0.419698	0.398067
Zn17	Zn	0.893895	0.080124	-0.101938
Zn18	Zn	1.393895	0.580124	0.398062
O19	O	0.887645	-0.060963	-0.212123
O20	O	1.387645	0.439037	0.287877
C21	C	0.755495	-0.000074	-0.107716
C22	C	1.255495	0.499926	0.392284
C23	C	0.671477	-0.000065	-0.106377
C24	C	1.171477	0.499935	0.393623
N25	N	0.893856	-0.189789	-0.101930
N26	N	1.393856	0.310211	0.398070
C27	C	0.622856	-0.000061	-0.174710
C28	C	1.122856	0.499939	0.325290
C29	C	0.543913	-0.000070	-0.173448
C30	C	1.043913	0.499930	0.326552
C31	C	0.513592	-0.000079	-0.103852
C32	C	1.013592	0.499921	0.396148
C33	C	0.562219	-0.000085	-0.035513
C34	C	1.062219	0.499915	0.464487
C35	C	0.641161	-0.000081	-0.036776
C36	C	1.141161	0.499919	0.463224
C37	C	0.243856	-0.000104	-0.030418
C38	C	0.743856	0.499896	0.469582
C39	C	0.164908	-0.000106	-0.029160
C40	C	0.664908	0.499894	0.470840
C41	C	0.146608	-0.000093	-0.167090
C42	C	0.646608	0.499907	0.332910
C43	C	0.225550	-0.000089	-0.168353
C44	C	0.725550	0.499911	0.331647
C45	C	0.274170	-0.000099	-0.100015
C46	C	0.774170	0.499901	0.399985
C47	C	0.359769	-0.000090	-0.101384
C48	C	0.859769	0.499910	0.398616
C49	C	0.427995	-0.000083	-0.102481
C50	C	0.927995	0.499917	0.397519
C51	C	0.939668	-0.228094	-0.147781
C52	C	1.439668	0.271906	0.352219
C53	C	0.939680	-0.304739	-0.147779
C54	C	1.439680	0.195261	0.352221
C55	C	0.893867	-0.343076	-0.101935
C56	C	1.393867	0.156924	0.398065
C57	C	0.848053	-0.304762	-0.056075
C58	C	1.348053	0.195238	0.443925
C59	C	0.848048	-0.228119	-0.056072
C60	C	1.348048	0.271881	0.443928
N61	N	0.827580	-0.463422	-0.099990
N62	N	1.327580	0.036578	0.400010
N63	N	0.827587	-0.536230	-0.099996
N64	N	1.327587	-0.036230	0.400004
C65	C	0.893882	-0.573999	-0.101937
C66	C	1.393882	-0.073999	0.398063
N67	N	0.960171	-0.536209	-0.103887
N68	N	1.460171	-0.036209	0.396113
N69	N	0.960163	-0.463394	-0.103884
N70	N	1.460163	0.036606	0.396116
C71	C	0.893868	-0.426183	-0.101932
C72	C	1.393868	0.073817	0.398068
C73	C	0.939711	-0.695411	-0.147788
C74	C	1.439711	-0.195411	0.352212
C75	C	0.939725	-0.772057	-0.147781
C76	C	1.439725	-0.272057	0.352219
C77	C	0.848091	-0.772079	-0.056081
C78	C	1.348091	-0.272079	0.443919
C79	C	0.848084	-0.695434	-0.056084
C80	C	1.348084	-0.195434	0.443916
C81	C	0.893893	-0.657104	-0.101942
C82	C	1.393893	-0.157104	0.398058
C83	C	1.032268	-0.000103	-0.096156
C84	C	1.532268	0.499897	0.403844
C85	C	1.116286	-0.000107	-0.097494
C86	C	1.616286	0.499893	0.402506
C87	C	0.899662	-0.000096	0.036451
C88	C	1.399662	0.499904	0.536451
C89	C	0.898323	-0.000096	0.120469
C90	C	1.398323	0.499904	0.620469
N91	N	0.893913	0.189611	-0.101935
N92	N	1.393913	0.689611	0.398065
C93	C	0.888102	-0.000080	-0.240322
C94	C	1.388102	0.499920	0.259678
C95	C	0.889440	-0.000075	-0.324340
C96	C	1.389440	0.499925	0.175660
C97	C	0.966656	-0.000105	0.169090
C98	C	1.466656	0.499895	0.669090
C99	C	0.965394	-0.000098	0.248033
C100	C	1.465394	0.499902	0.748033
C101	C	0.895798	-0.000088	0.278354
C102	C	1.395798	0.499912	0.778354
C103	C	0.827459	-0.000078	0.229727
C104	C	1.327459	0.499922	0.729727
C105	C	0.828722	-0.000079	0.150785
C106	C	1.328722	0.499921	0.650785
C107	C	0.822364	-0.000071	0.548090
C108	C	1.322364	0.499929	1.048090
C109	C	0.821106	-0.000072	0.627038
C110	C	1.321106	0.499928	1.127038
C111	C	0.959036	-0.000091	0.645338
C112	C	1.459036	0.499909	1.145338
C113	C	0.960299	-0.000092	0.566396
C114	C	1.460299	0.499908	1.066396
C115	C	0.891961	-0.000077	0.517776
C116	C	1.391961	0.499923	1.017776
C117	C	0.893330	-0.000083	0.432177
C118	C	1.393330	0.499917	0.932177
C119	C	0.894427	-0.000088	0.363951
C120	C	1.394427	0.499912	0.863951
H121	H	0.647537	-0.000053	-0.231384
H122	H	1.147537	0.499947	0.268616
C123	C	1.066450	-0.795623	-0.177360
C124	C	1.566450	-0.295623	0.322640
C125	C	0.990087	-0.814162	-0.198184
C126	C	1.490087	-0.314162	0.301816
H127	H	1.097540	-0.821614	-0.208482
H128	H	1.597540	-0.321614	0.291518
H129	H	1.080611	-0.808192	-0.125564
H130	H	1.580611	-0.308192	0.374436
H131	H	1.072988	-0.744489	-0.183923
H132	H	1.572988	-0.244489	0.316077
H133	H	0.983548	-0.865295	-0.191615
H134	H	1.483548	-0.365295	0.308385
H135	H	0.975921	-0.801598	-0.249993
H136	H	1.475921	-0.301598	0.250007
C137	C	0.757504	-0.703156	0.034546
C138	C	1.257504	-0.203156	0.534546
C139	C	0.797717	-0.653324	-0.005693
C140	C	1.297717	-0.153324	0.494307
H141	H	0.726406	-0.677157	0.065654
H142	H	1.226406	-0.177157	0.565654
H143	H	0.792394	-0.733046	0.065604
H144	H	1.292394	-0.233046	0.565604
H145	H	0.726431	-0.733051	-0.000334
H146	H	1.226431	-0.233051	0.499666
H147	H	0.828794	-0.623432	0.029188
H148	H	1.328794	-0.123432	0.529188
H149	H	0.762823	-0.623421	-0.036753
H150	H	1.262823	-0.123421	0.463247
C151	C	0.106709	-0.062673	-0.284281
C152	C	0.606709	0.437327	0.215719
C153	C	0.093164	-0.000089	-0.242213
C154	C	0.593164	0.499911	0.257787
H155	H	0.073720	-0.062664	-0.330658
H156	H	0.573720	0.437336	0.169342
H157	H	0.097527	-0.105131	-0.255741
H158	H	0.597527	0.394869	0.244259
H159	H	0.158067	-0.062659	-0.294983
H160	H	0.658067	0.437341	0.205017
H161	H	0.041808	-0.000105	-0.231505
H162	H	0.541808	0.499895	0.268495
H163	H	0.102341	0.042380	-0.270759
H164	H	0.602341	0.542380	0.229241
H165	H	0.770792	-0.000065	0.254420
H166	H	1.270792	0.499935	0.754420
H167	H	0.283434	-0.000113	0.025228
H168	H	0.783434	0.499887	0.525228
C169	C	0.969195	-0.671795	-0.274542
C170	C	1.469195	-0.171795	0.225458
C171	C	0.990070	-0.653273	-0.198185
C172	C	1.490070	-0.153273	0.301815
H173	H	1.000288	-0.645785	-0.305653
H174	H	1.500288	-0.145785	0.194347
H175	H	0.917391	-0.659238	-0.288666
H176	H	1.417391	-0.159238	0.211334
H177	H	0.975761	-0.722925	-0.281093
H178	H	1.475761	-0.222925	0.218907
H179	H	0.983498	-0.602144	-0.191633
H180	H	1.483498	-0.102144	0.308367
H181	H	1.041886	-0.665826	-0.184057
H182	H	1.541886	-0.165826	0.315943
H183	H	0.810753	-0.335981	-0.018747
H184	H	1.310753	0.164019	0.481253
C185	C	1.102871	-0.000111	0.195117
C186	C	1.602871	0.499889	0.695117
C187	C	1.043160	-0.000111	0.135765
C188	C	1.543160	0.499889	0.635765
H189	H	1.150102	-0.000107	0.174543
H190	H	1.650102	0.499893	0.674543
H191	H	1.099506	-0.042570	0.225527
H192	H	1.599506	0.457430	0.725527
H193	H	1.099506	0.042353	0.225523
H194	H	1.599506	0.542353	0.725523
H195	H	1.046522	-0.042577	0.105362
H196	H	1.546522	0.457423	0.605362
H197	H	1.046527	0.042352	0.105342
H198	H	1.546527	0.542352	0.605342
C199	C	0.651327	-0.000082	0.099693
C200	C	1.151327	0.499918	0.599693
C201	C	0.694609	-0.000079	0.038338
C202	C	1.194609	0.499921	0.538338
H203	H	0.684324	-0.000078	0.146066
H204	H	1.184324	0.499922	0.646066
H205	H	0.620159	-0.042542	0.097319
H206	H	1.120159	0.457458	0.597319
H207	H	0.620153	0.042380	0.097309
H208	H	1.120153	0.542380	0.597309
H209	H	0.725779	-0.042544	0.040719
H210	H	1.225779	0.457456	0.540719
H211	H	0.725790	0.042386	0.040713
H212	H	1.225790	0.542386	0.540713
C213	C	0.533753	-0.000046	-0.309916
C214	C	1.033753	0.499954	0.190084
C215	C	0.490469	-0.000062	-0.248563
C216	C	0.990469	0.499938	0.251437
H217	H	0.500757	-0.000038	-0.356289
H218	H	1.000757	0.499962	0.143711
H219	H	0.564924	-0.042502	-0.307541
H220	H	1.064924	0.457498	0.192459
H221	H	0.564924	0.042420	-0.307531
H222	H	1.064924	0.542420	0.192469
H223	H	0.459301	-0.042532	-0.250944
H224	H	0.959301	0.457468	0.249056
H225	H	0.459285	0.042398	-0.250939
H226	H	0.959285	0.542398	0.249061
H227	H	0.773078	-0.000072	0.111198
H228	H	1.273078	0.499928	0.611198
C229	C	0.449335	-0.000091	0.027670
C230	C	0.949335	0.499909	0.527670
C231	C	0.528893	-0.000093	0.040990
C232	C	1.028893	0.499907	0.540990
H233	H	0.428764	-0.000090	0.074902
H234	H	0.928764	0.499910	0.574902
H235	H	0.432641	-0.042548	-0.000453
H236	H	0.932641	0.457452	0.499547
H237	H	0.432646	0.042375	-0.000462
H238	H	0.932646	0.542375	0.499538
H239	H	0.545582	-0.042562	0.069117
H240	H	1.045582	0.457438	0.569117
H241	H	0.545594	0.042368	0.069125
H242	H	1.045594	0.542368	0.569125
C243	C	0.234242	0.062515	-0.286314
C244	C	0.734242	0.562515	0.213686
C245	C	0.258871	-0.000078	-0.244859
C246	C	0.758871	0.499922	0.255141
H247	H	0.254807	0.062516	-0.333549
H248	H	0.754807	0.562516	0.166451
H249	H	0.250946	0.104967	-0.258187
H250	H	0.750946	0.604967	0.241813
H251	H	0.180267	0.062505	-0.295331
H252	H	0.680267	0.562505	0.204669
H253	H	0.312845	-0.000065	-0.235837
H254	H	0.812845	0.499935	0.264163
H255	H	0.242171	-0.042541	-0.272992
H256	H	0.742171	0.457459	0.227008
C257	C	0.156206	0.062463	0.088809
C258	C	0.656206	0.562463	0.588809
C259	C	0.131580	-0.000121	0.047347
C260	C	0.631580	0.499879	0.547347
H261	H	0.135633	0.062451	0.136040
H262	H	0.635633	0.562451	0.636040
H263	H	0.139508	0.104921	0.060683
H264	H	0.639508	0.604921	0.560683
H265	H	0.210180	0.062454	0.097834
H266	H	0.710180	0.562454	0.597834
H267	H	0.077606	-0.000109	0.038317
H268	H	0.577606	0.499891	0.538317
H269	H	0.148274	-0.042590	0.075480
H270	H	0.648274	0.457410	0.575480
H271	H	0.976972	-0.196891	-0.185119
H272	H	1.476972	0.303109	0.314881
C273	C	1.044014	0.062493	0.347408
C274	C	1.544014	0.562493	0.847408
C275	C	1.040511	-0.000105	0.301473
C276	C	1.540511	0.499895	0.801473
H277	H	1.090394	0.062491	0.380395
H278	H	1.590394	0.562491	0.880395
H279	H	1.002393	0.062496	0.376765
H280	H	1.502393	0.562496	0.876765
H281	H	1.041643	0.104946	0.316215
H282	H	1.541643	0.604946	0.816215
H283	H	1.042877	-0.042559	0.332666
H284	H	1.542877	0.457441	0.832666
H285	H	1.082143	-0.000114	0.272114
H286	H	1.582143	0.499886	0.772114
H287	H	0.976985	-0.335933	-0.185118
H288	H	1.476985	0.164067	0.314882
H289	H	1.016971	-0.000104	0.541714
H290	H	1.516971	0.499896	1.041714
H291	H	0.810741	-0.196931	-0.018734
H292	H	1.310741	0.303069	0.481266
H293	H	0.810790	-0.803292	-0.018753
H294	H	1.310790	-0.303292	0.481247
H295	H	1.014680	-0.000099	0.684934
H296	H	1.514680	0.499901	1.184934
H297	H	0.764429	-0.000065	0.651721
H298	H	1.264429	0.499935	1.151721
H299	H	0.766718	-0.000060	0.508512
H300	H	1.266718	0.499940	1.008512
