data_functionalizedCrystal
_audit_creation_method	'MofGen! by Chris Wilmer'
_symmetry_space_group_name_H-M	'P1'
_symmetry_Int_Tables_number	1
_symmetry_cell_setting	triclinic
loop_
_symmetry_equiv_pos_as_xyz
  x,y,z
_cell_length_a	18.101398
_cell_length_b	29.839131
_cell_length_c	29.839125
_cell_angle_alpha	89.982291
_cell_angle_beta	89.982423
_cell_angle_gamma	90.036686
loop_
_atom_site_label
_atom_site_type_symbol
_atom_site_fract_x
_atom_site_fract_y
_atom_site_fract_z
Zn1	Zn	1.132019	-0.178973	-0.254072
Zn2	Zn	1.632019	0.321027	0.245928
Zn3	Zn	1.131907	-0.254085	-0.178942
Zn4	Zn	1.631907	0.245915	0.321058
Zn5	Zn	1.008192	-0.178964	-0.178948
Zn6	Zn	1.508192	0.321036	0.321052
Zn7	Zn	1.008106	-0.254071	-0.254036
Zn8	Zn	1.508106	0.245929	0.245964
O9	O	1.070056	-0.216523	-0.216500
O10	O	1.570056	0.283477	0.283500
O11	O	1.235637	-0.188947	-0.244119
O12	O	1.735637	0.311053	0.255881
O13	O	1.115485	-0.244122	-0.116076
O14	O	1.615485	0.255878	0.383924
O15	O	1.024701	-0.116098	-0.188930
O16	O	1.524701	0.383902	0.311070
O17	O	1.235554	-0.244131	-0.188921
O18	O	1.735554	0.255869	0.311079
O19	O	1.115676	-0.116105	-0.244124
O20	O	1.615676	0.383895	0.255876
O21	O	1.024592	-0.188931	-0.116080
O22	O	1.524592	0.311069	0.383920
O23	O	0.904548	-0.188917	-0.188896
O24	O	1.404548	0.311083	0.311104
O25	O	1.024554	-0.244107	-0.316908
O26	O	1.524554	0.255893	0.183092
O27	O	0.904484	-0.244097	-0.244063
O28	O	1.404484	0.255903	0.255937
O29	O	1.115592	-0.188933	-0.316935
O30	O	1.615592	0.311067	0.183065
O31	O	1.115401	-0.316950	-0.188886
O32	O	1.615401	0.183050	0.311114
O33	O	1.024445	-0.316940	-0.244058
O34	O	1.524445	0.183060	0.255942
C35	C	0.877645	-0.216505	-0.216476
C36	C	1.377645	0.283495	0.283524
C37	C	0.795331	-0.216508	-0.216477
C38	C	1.295331	0.283492	0.283523
C39	C	0.496240	-0.216536	-0.216515
C40	C	0.996240	0.283464	0.283485
C41	C	0.527581	-0.181644	-0.181974
C42	C	1.027581	0.318356	0.318026
C43	C	0.613199	-0.181738	-0.181827
C44	C	1.113199	0.318262	0.318173
C45	C	0.644623	-0.216522	-0.216496
C46	C	1.144623	0.283478	0.283504
C47	C	0.613493	-0.263843	-0.203557
C48	C	1.113493	0.236157	0.296443
C49	C	0.527848	-0.263649	-0.203317
C50	C	1.027848	0.236351	0.296683
C51	C	0.527849	-0.204518	-0.264075
C52	C	1.027849	0.295482	0.235925
C53	C	0.613500	-0.203464	-0.263815
C54	C	1.113500	0.296536	0.236185
C55	C	0.728482	-0.216516	-0.216486
C56	C	1.228482	0.283484	0.283514
C57	C	0.412381	-0.216544	-0.216523
C58	C	0.912381	0.283456	0.283477
C59	C	1.069922	-0.333246	-0.216477
C60	C	1.569922	0.166754	0.283523
C61	C	1.069933	-0.383180	-0.216483
C62	C	1.569933	0.116820	0.283517
C63	C	1.117503	-0.692816	-0.187814
C64	C	1.617503	-0.192816	0.312186
C65	C	1.117594	-0.880489	-0.187831
C66	C	1.617594	-0.380489	0.312169
O67	O	1.157934	-0.904748	-0.163439
O68	O	1.657934	-0.404748	0.336561
N69	N	1.070209	-0.903965	-0.216533
N70	N	1.570209	-0.403965	0.283467
C71	C	1.022802	-0.880520	-0.245235
C72	C	1.522802	-0.380520	0.254765
O73	O	0.982506	-0.904793	-0.269652
O74	O	1.482506	-0.404793	0.230348
C75	C	1.022715	-0.692848	-0.245220
C76	C	1.522715	-0.192848	0.254780
C77	C	1.070097	-0.669374	-0.216513
C78	C	1.570097	-0.169374	0.283487
C79	C	1.164882	-0.669343	-0.159109
C80	C	1.664882	-0.169343	0.340891
C81	C	1.164856	-0.622428	-0.159103
C82	C	1.664856	-0.122428	0.340897
C83	C	1.117450	-0.598985	-0.187802
C84	C	1.617450	-0.098985	0.312198
C85	C	1.070071	-0.622459	-0.216507
C86	C	1.570071	-0.122459	0.283493
C87	C	0.975312	-0.669403	-0.273924
C88	C	1.475312	-0.169403	0.226076
C89	C	0.975295	-0.622482	-0.273918
C90	C	1.475295	-0.122482	0.226082
C91	C	1.022678	-0.599009	-0.245211
C92	C	1.522678	-0.099009	0.254789
C93	C	1.022639	-0.552101	-0.245200
C94	C	1.522639	-0.052101	0.254800
N95	N	1.070024	-0.528626	-0.216498
N96	N	1.570024	-0.028626	0.283502
C97	C	1.117430	-0.552068	-0.187799
C98	C	1.617430	-0.052068	0.312201
C99	C	1.022850	-0.979050	-0.245241
C100	C	1.522850	-0.479050	0.254759
C101	C	1.022871	-1.025968	-0.245244
C102	C	1.522871	-0.525968	0.254756
C103	C	1.117664	-1.025935	-0.187841
C104	C	1.617664	-0.525935	0.312159
C105	C	1.117639	-0.979016	-0.187835
C106	C	1.617639	-0.479016	0.312165
C107	C	1.070235	-0.955575	-0.216539
C108	C	1.570235	-0.455575	0.283461
C109	C	1.117371	-0.453542	-0.187789
C110	C	1.617371	0.046458	0.312211
C111	C	1.117338	-0.406622	-0.187784
C112	C	1.617338	0.093378	0.312216
C113	C	1.022548	-0.406660	-0.245189
C114	C	1.522548	0.093340	0.254811
C115	C	1.022577	-0.453575	-0.245192
C116	C	1.522577	0.046425	0.254808
C117	C	1.069995	-0.477015	-0.216490
C118	C	1.569995	0.022985	0.283510
O119	O	0.982327	-0.527813	-0.269583
O120	O	1.482327	-0.027813	0.230417
O121	O	1.157731	-0.527786	-0.163393
O122	O	1.657731	-0.027786	0.336607
C123	C	1.117529	-0.739732	-0.187820
C124	C	1.617529	-0.239732	0.312180
C125	C	1.070150	-0.763205	-0.216524
C126	C	1.570150	-0.263205	0.283476
C127	C	1.022744	-0.739763	-0.245223
C128	C	1.522744	-0.239763	0.254777
C129	C	1.070170	-0.810123	-0.216528
C130	C	1.570170	-0.310123	0.283472
C131	C	1.117576	-0.833565	-0.187829
C132	C	1.617576	-0.333565	0.312171
C133	C	1.164960	-0.810089	-0.159127
C134	C	1.664960	-0.310089	0.340873
C135	C	1.164934	-0.763174	-0.159121
C136	C	1.664934	-0.263174	0.340879
C137	C	0.975359	-0.763239	-0.273925
C138	C	1.475359	-0.263239	0.226075
C139	C	0.975389	-0.810154	-0.273928
C140	C	1.475389	-0.310154	0.226072
C141	C	1.022794	-0.833596	-0.245230
C142	C	1.522794	-0.333596	0.254770
C143	C	1.263218	-0.216542	-0.216523
C144	C	1.763218	0.283458	0.283477
C145	C	1.345532	-0.216550	-0.216534
C146	C	1.845532	0.283450	0.283466
C147	C	1.070076	-0.216519	-0.333678
C148	C	1.570076	0.283481	0.166322
C149	C	1.070084	-0.216517	-0.383612
C150	C	1.570084	0.283483	0.116388
C151	C	1.070210	-0.099345	-0.216532
C152	C	1.570210	0.400655	0.283468
C153	C	1.070276	-0.049410	-0.216546
C154	C	1.570276	0.450590	0.283454
C155	C	1.117538	-0.187713	-0.693273
C156	C	1.617538	0.312287	-0.193273
C157	C	1.117574	-0.187675	-0.880946
C158	C	1.617574	0.312325	-0.380946
O159	O	1.157866	-0.163227	-0.905225
O160	O	1.657866	0.336773	-0.405225
N161	N	1.070183	-0.216397	-0.904398
N162	N	1.570183	0.283603	-0.404398
C163	C	1.022775	-0.245129	-0.880929
C164	C	1.522775	0.254871	-0.380929
O165	O	0.982460	-0.269555	-0.905182
O166	O	1.482460	0.230445	-0.405182
C167	C	1.022735	-0.245165	-0.693256
C168	C	1.522735	0.254835	-0.193256
C169	C	1.070135	-0.216444	-0.669807
C170	C	1.570135	0.283556	-0.169807
C171	C	1.164934	-0.158994	-0.669823
C172	C	1.664934	0.341006	-0.169823
C173	C	1.164927	-0.159006	-0.622908
C174	C	1.664927	0.340994	-0.122908
C175	C	1.117524	-0.187736	-0.599442
C176	C	1.617524	0.312264	-0.099442
C177	C	1.070128	-0.216455	-0.622891
C178	C	1.570128	0.283545	-0.122891
C179	C	0.975324	-0.273894	-0.669788
C180	C	1.475324	0.226106	-0.169788
C181	C	0.975317	-0.273899	-0.622867
C182	C	1.475317	0.226101	-0.122867
C183	C	1.022717	-0.245178	-0.599417
C184	C	1.522717	0.254822	-0.099417
C185	C	1.022719	-0.245197	-0.552510
C186	C	1.522719	0.254803	-0.052510
N187	N	1.070111	-0.216475	-0.529058
N188	N	1.570111	0.283525	-0.029058
C189	C	1.117513	-0.187745	-0.552524
C190	C	1.617513	0.312255	-0.052524
C191	C	1.022800	-0.245109	-0.979459
C192	C	1.522800	0.254891	-0.479459
C193	C	1.022811	-0.245100	-1.026377
C194	C	1.522811	0.254900	-0.526377
C195	C	1.117610	-0.187646	-1.026391
C196	C	1.617610	0.312354	-0.526391
C197	C	1.117602	-0.187657	-0.979472
C198	C	1.617602	0.312343	-0.479472
C199	C	1.070192	-0.216386	-0.956007
C200	C	1.570192	0.283614	-0.456007
C201	C	1.117496	-0.187771	-0.453998
C202	C	1.617496	0.312229	0.046002
C203	C	1.117487	-0.187787	-0.407078
C204	C	1.617487	0.312213	0.092922
C205	C	1.022686	-0.245240	-0.407068
C206	C	1.522686	0.254760	0.092932
C207	C	1.022697	-0.245226	-0.453984
C208	C	1.522697	0.254774	0.046016
C209	C	1.070105	-0.216488	-0.477448
C210	C	1.570105	0.283512	0.022552
O211	O	0.982443	-0.269629	-0.528202
O212	O	1.482443	0.230371	-0.028202
O213	O	1.157810	-0.163315	-0.528262
O214	O	1.657810	0.336685	-0.028262
C215	C	1.117545	-0.187702	-0.740188
C216	C	1.617545	0.312298	-0.240188
C217	C	1.070149	-0.216420	-0.763638
C218	C	1.570149	0.283580	-0.263638
C219	C	1.022746	-0.245151	-0.740172
C220	C	1.522746	0.254849	-0.240172
C221	C	1.070159	-0.216412	-0.810556
C222	C	1.570159	0.283588	-0.310556
C223	C	1.117562	-0.187682	-0.834021
C224	C	1.617562	0.312318	-0.334021
C225	C	1.164954	-0.158959	-0.810570
C226	C	1.664954	0.341041	-0.310570
C227	C	1.164947	-0.158971	-0.763654
C228	C	1.664947	0.341029	-0.263654
C229	C	0.975354	-0.273873	-0.763624
C230	C	1.475354	0.226127	-0.263624
C231	C	0.975365	-0.273860	-0.810539
C232	C	1.475365	0.226140	-0.310539
C233	C	1.022768	-0.245129	-0.834005
C234	C	1.522768	0.254871	-0.334005
C235	C	1.070078	-0.216495	-0.099777
C236	C	1.570078	0.283505	0.400223
C237	C	1.070213	-0.216370	-0.049843
C238	C	1.570213	0.283630	0.450157
H239	H	0.633853	-0.168641	-0.273571
H240	H	1.133853	0.331359	0.226429
Br241	Br	0.958254	-0.485433	-0.284141
Br242	Br	1.458254	0.014567	0.215859
H243	H	0.984193	-0.268507	-0.960358
H244	H	1.484193	0.231493	-0.460358
H245	H	0.984094	-0.268633	-0.387954
H246	H	1.484094	0.231367	0.112046
Br247	Br	0.958373	-0.284208	-0.485809
Br248	Br	1.458373	0.215792	0.014191
Br249	Br	1.229289	-0.119971	-0.842426
Br250	Br	1.729289	0.380029	-0.342426
Br251	Br	1.181823	-0.148808	-0.375257
Br252	Br	1.681823	0.351192	0.124743
H253	H	0.506036	-0.189499	-0.146937
H254	H	1.006036	0.310501	0.353063
Br255	Br	1.229175	-0.590578	-0.120148
Br256	Br	1.729175	-0.090578	0.379852
Br257	Br	0.910995	-0.312877	-0.701600
Br258	Br	1.410995	0.187123	-0.201600
Br259	Br	0.910968	-0.312890	-0.591024
Br260	Br	1.410968	0.187110	-0.091024
Br261	Br	0.958552	-1.057819	-0.284199
Br262	Br	1.458552	-0.557819	0.215801
Br263	Br	0.958493	-0.284089	-1.058195
Br264	Br	1.458493	0.215911	-0.558195
Br265	Br	1.229255	-0.120023	-0.591091
Br266	Br	1.729255	0.379977	-0.091091
H267	H	1.156097	-0.164369	-0.473097
H268	H	1.656097	0.335631	0.026903
H269	H	1.155984	-0.472621	-0.164418
H270	H	1.655984	0.027379	0.335582
Br271	Br	0.647304	-0.194975	-0.123087
Br272	Br	1.147304	0.305025	0.376913
H273	H	0.936757	-0.744156	-0.297296
H274	H	1.436757	-0.244156	0.202704
H275	H	0.507019	-0.146446	-0.189995
H276	H	1.007019	0.353554	0.310005
Br277	Br	0.494068	-0.246875	-0.306970
Br278	Br	0.994068	0.253125	0.193030
H279	H	1.156207	-0.164252	-1.045505
H280	H	1.656207	0.335748	-0.545505
Br281	Br	1.229244	-0.731325	-0.120160
Br282	Br	1.729244	-0.231325	0.379840
H283	H	1.203545	-0.135583	-0.744566
H284	H	1.703545	0.364417	-0.244566
H285	H	1.203558	-0.829184	-0.135758
H286	H	1.703558	-0.329184	0.364242
Br287	Br	0.494495	-0.280638	-0.145367
Br288	Br	0.994495	0.219362	0.354633
H289	H	0.507113	-0.290526	-0.227378
H290	H	1.007113	0.209474	0.272622
Br291	Br	1.181945	-0.947164	-0.148874
Br292	Br	1.681945	-0.447164	0.351126
Br293	Br	0.649150	-0.242737	-0.309010
Br294	Br	1.149150	0.257263	0.190990
H295	H	1.155922	-0.387512	-0.164406
H296	H	1.655922	0.112488	0.335594
H297	H	1.203489	-0.688425	-0.135739
H298	H	1.703489	-0.188425	0.364261
H299	H	1.156264	-1.045029	-0.164473
H300	H	1.656264	-0.545029	0.335527
H301	H	0.984246	-0.959967	-0.268615
H302	H	1.484246	-0.459967	0.231385
H303	H	0.936724	-0.688507	-0.297298
H304	H	1.436724	-0.188507	0.202702
Br305	Br	0.910960	-0.590671	-0.312877
Br306	Br	1.410960	-0.090671	0.187123
Br307	Br	0.911036	-0.312846	-0.842358
Br308	Br	1.411036	0.187154	-0.342358
H309	H	0.983948	-0.387566	-0.268554
H310	H	1.483948	0.112434	0.231446
Br311	Br	0.649188	-0.281130	-0.146232
Br312	Br	1.149188	0.218870	0.353768
H313	H	0.936753	-0.297270	-0.744522
H314	H	1.436753	0.202730	-0.244522
H315	H	1.203535	-0.135596	-0.688924
H316	H	1.703535	0.364404	-0.188924
Br317	Br	0.648287	-0.123250	-0.195344
Br318	Br	1.148287	0.376750	0.304656
H319	H	0.936798	-0.829262	-0.297305
H320	H	1.436798	-0.329262	0.202695
H321	H	0.633845	-0.290536	-0.227927
H322	H	1.133845	0.209464	0.272073
Br323	Br	0.491911	-0.148005	-0.283681
Br324	Br	0.991911	0.351995	0.216319
H325	H	1.156199	-0.164269	-0.960383
H326	H	1.656199	0.335731	-0.460383
