data_functionalizedCrystal
_audit_creation_method	'MofGen! by Chris Wilmer'
_symmetry_space_group_name_H-M	'P1'
_symmetry_Int_Tables_number	1
_symmetry_cell_setting	triclinic
loop_
_symmetry_equiv_pos_as_xyz
  x,y,z
_cell_length_a	8.597299
_cell_length_b	8.559649
_cell_length_c	7.088899
_cell_angle_alpha	82.338277
_cell_angle_beta	89.211253
_cell_angle_gamma	102.375658
loop_
_atom_site_label
_atom_site_type_symbol
_atom_site_fract_x
_atom_site_fract_y
_atom_site_fract_z
O1	O	0.064888	2.105444	0.148280
O2	O	-0.014970	1.640274	0.161440
O3	O	0.251570	1.885478	0.117529
O4	O	-0.201652	1.860241	0.192191
O5	O	0.226713	1.914782	-0.196352
O6	O	-0.039828	1.669579	-0.152441
O7	O	0.040031	2.134749	-0.165600
Cu8	Cu	-0.002168	1.904840	-0.187681
Cu9	Cu	0.027228	1.870183	0.183520
O10	O	-0.226510	1.889545	-0.121690
C11	C	0.296627	1.899053	-0.048877
C12	C	0.467913	1.895826	-0.077082
C13	C	-0.033451	1.595399	0.005497
C14	C	-0.051465	1.418027	0.008467
C15	C	0.058511	2.179623	-0.009653
C16	C	0.076526	2.356995	-0.012611
C17	C	0.728434	1.875971	0.044722
C18	C	0.557150	1.879201	0.072941
N19	N	-0.022842	1.929227	-0.448763
N20	N	0.047916	1.845809	0.444601
H21	H	0.502510	1.867432	0.222972
H22	H	0.121223	1.759335	-0.485816
O23	O	-0.198535	2.318305	0.032960
C24	C	-0.370716	2.092822	0.226143
C25	C	-0.204081	2.205631	0.198606
H26	H	-0.375265	2.001720	0.360084
H27	H	-0.396131	2.025984	0.097358
H28	H	-0.464160	2.167338	0.241434
H29	H	-0.110531	2.131236	0.183364
H30	H	-0.178803	2.272476	0.327401
O31	O	0.533206	1.909613	-0.255986
C32	C	0.665328	1.786294	-0.478721
C33	C	0.591477	1.770497	-0.276045
H34	H	0.712429	1.673821	-0.495017
H35	H	0.767530	1.897317	-0.504157
H36	H	0.570583	1.799402	-0.587089
H37	H	0.686105	1.757324	-0.167550
H38	H	0.489241	1.659499	-0.250770
H39	H	0.199895	2.440446	-0.032929
H40	H	-0.096161	2.015678	-0.518335
