data_functionalizedCrystal
_audit_creation_method	'MofGen! by Chris Wilmer'
_symmetry_space_group_name_H-M	'P1'
_symmetry_Int_Tables_number	1
_symmetry_cell_setting	triclinic
loop_
_symmetry_equiv_pos_as_xyz
  x,y,z
_cell_length_a	15.944551
_cell_length_b	15.021413
_cell_length_c	15.944493
_cell_angle_alpha	89.992728
_cell_angle_beta	83.486891
_cell_angle_gamma	89.988701
loop_
_atom_site_label
_atom_site_type_symbol
_atom_site_fract_x
_atom_site_fract_y
_atom_site_fract_z
O1	O	1.114489	0.073927	0.108329
O2	O	0.869936	0.073948	0.121686
O3	O	0.998916	0.073945	-0.007271
O4	O	0.985509	0.073931	0.237285
O5	O	0.998931	-0.074120	-0.007263
O6	O	0.869951	-0.074116	0.121694
O7	O	1.114504	-0.074137	0.108337
Zn8	Zn	0.992230	-0.097635	0.115017
Zn9	Zn	0.992210	0.097446	0.115006
O10	O	0.985524	-0.074133	0.237293
C11	C	0.838650	-0.000081	0.121135
C12	C	0.745404	-0.000073	0.119473
C13	C	0.530565	-0.000085	0.035566
C14	C	0.469529	0.072916	0.074526
C15	C	0.574679	-0.000083	0.116465
C16	C	0.469566	-0.073064	0.074553
C17	C	0.409767	-0.000097	0.113555
C18	C	0.514871	0.072979	0.155447
C19	C	0.514915	-0.073067	0.155463
C20	C	0.453897	-0.000048	0.194481
C21	C	0.669681	-0.000074	0.118140
C22	C	0.314766	-0.000099	0.111886
N23	N	0.992249	-0.230772	0.115023
C24	C	1.051901	-0.470433	0.055380
C25	C	0.976005	-0.529755	0.039062
C26	C	0.992230	-0.412379	0.115013
C27	C	1.068108	-0.529800	0.131281
C28	C	0.992218	-0.587803	0.115001
C29	C	0.916295	-0.470394	0.098657
C30	C	1.008448	-0.470434	0.190909
C31	C	0.932497	-0.529728	0.174623
C32	C	0.992238	-0.311322	0.115018
C33	C	0.992201	-0.688859	0.114996
C34	C	1.145790	-0.000106	0.108888
C35	C	1.239036	-0.000108	0.110550
C36	C	0.998375	-0.000084	-0.038562
C37	C	0.996733	-0.000072	-0.131810
N38	N	0.992197	0.230584	0.114993
C39	C	1.072653	-0.000095	-0.367570
C40	C	1.031705	0.072911	-0.418142
C41	C	0.993689	-0.000083	-0.302531
C42	C	1.031701	-0.073069	-0.418110
C43	C	0.990754	-0.000097	-0.467441
C44	C	0.952761	0.072984	-0.351875
C45	C	0.952769	-0.073061	-0.351840
C46	C	0.911763	-0.000037	-0.402379
C47	C	0.995381	-0.000074	-0.207531
C48	C	0.989055	-0.000100	-0.562438
C49	C	0.986064	-0.000103	0.268584
C50	C	0.987707	-0.000109	0.361833
H51	H	0.420724	-0.000011	0.261690
O52	O	1.071622	-0.146676	-0.452533
C53	C	1.201532	-0.229812	-0.474302
C54	C	1.156412	-0.146433	-0.435262
H55	H	1.270097	-0.229634	-0.460369
H56	H	1.168622	-0.292056	-0.445989
H57	H	1.199287	-0.229442	-0.545511
H58	H	1.158643	-0.146717	-0.364054
H59	H	1.189335	-0.084227	-0.463641
H60	H	0.535045	-0.134791	0.189655
O61	O	1.024750	-0.439426	0.267531
C62	C	0.981129	-0.435656	0.417217
C63	C	0.962568	-0.470851	0.330499
H64	H	0.930857	-0.461033	0.468147
H65	H	1.045857	-0.460048	0.431068
H66	H	0.980387	-0.359771	0.416622
H67	H	0.963265	-0.546734	0.331030
H68	H	0.897852	-0.446391	0.316682
O69	O	0.445731	-0.146664	0.033610
C70	C	0.457992	-0.229781	-0.096458
C71	C	0.485066	-0.146410	-0.050178
H72	H	0.489767	-0.229594	-0.164213
H73	H	0.477580	-0.292030	-0.062690
H74	H	0.386526	-0.229409	-0.096741
H75	H	0.556527	-0.146696	-0.049881
H76	H	0.465415	-0.084198	-0.083960
O77	O	1.071613	0.146471	-0.452664
C78	C	1.201462	0.229668	-0.474394
C79	C	1.156367	0.146320	-0.435276
H80	H	1.269988	0.229583	-0.460336
H81	H	1.199329	0.229293	-0.545620
H82	H	1.168426	0.291872	-0.446134
H83	H	1.189369	0.084072	-0.463470
H84	H	1.158493	0.146773	-0.364050
H85	H	0.534846	0.134763	0.189635
O86	O	0.830573	-0.000144	-0.420881
C87	C	0.724023	-0.077114	-0.488610
C88	C	0.815981	-0.077121	-0.467696
H89	H	0.712201	-0.139334	-0.526479
H90	H	0.679276	-0.076549	-0.427539
H91	H	0.712529	-0.015411	-0.527348
H92	H	0.827556	-0.138814	-0.428982
H93	H	0.860680	-0.077640	-0.528799
H94	H	1.132281	-0.555894	0.145047
O95	O	0.912905	-0.146596	-0.317225
C96	C	0.798676	-0.203862	-0.220316
C97	C	0.843722	-0.120501	-0.259465
H98	H	0.742744	-0.182793	-0.173596
H99	H	0.775275	-0.246105	-0.272315
H100	H	0.844708	-0.244407	-0.186010
H101	H	0.797739	-0.079887	-0.293765
H102	H	0.867138	-0.078324	-0.207430
O103	O	0.570292	0.000163	-0.044553
C104	C	0.592333	0.077392	-0.177699
C105	C	0.547300	0.077225	-0.086987
H106	H	0.573747	0.139680	-0.212039
H107	H	0.663581	0.076816	-0.175729
H108	H	0.572963	0.015758	-0.212505
H109	H	0.566601	0.138848	-0.052128
H110	H	0.476061	0.077755	-0.089017
O111	O	0.913143	0.146772	-0.317488
C112	C	0.925296	0.280841	-0.236785
C113	C	0.970263	0.197322	-0.275700
H114	H	0.971452	0.321725	-0.202975
H115	H	0.901481	0.322692	-0.288845
H116	H	0.869636	0.259900	-0.189672
H117	H	1.025955	0.218184	-0.322803
H118	H	0.994016	0.155491	-0.223594
O119	O	0.445629	0.146643	0.033784
C120	C	0.442630	0.306954	0.029511
C121	C	0.469750	0.223537	0.075727
H122	H	0.462105	0.369144	0.063413
H123	H	0.474471	0.306936	-0.038222
H124	H	0.371173	0.306531	0.029157
H125	H	0.541197	0.223905	0.076146
H126	H	0.437848	0.223588	0.143436
H127	H	0.962277	-0.555812	-0.025126
H128	H	1.140671	-0.000028	-0.351942
O129	O	1.111950	-0.439405	-0.004920
C130	C	1.162686	-0.434474	-0.153073
C131	C	1.094622	-0.469657	-0.084872
H132	H	1.148710	-0.458933	-0.217729
H133	H	1.162535	-0.358586	-0.152175
H134	H	1.227244	-0.459908	-0.139793
H135	H	1.030030	-0.444289	-0.098106
H136	H	1.094848	-0.545544	-0.085786
H137	H	0.881974	-0.555599	0.225051
O138	O	0.839776	-0.439254	0.082128
C139	C	0.753915	-0.310246	0.063660
C140	C	0.840616	-0.345394	0.082363
H141	H	0.754560	-0.234357	0.063861
H142	H	0.739930	-0.335140	-0.000850
H143	H	0.703043	-0.335233	0.114187
H144	H	0.891544	-0.320422	0.031889
H145	H	0.854528	-0.320508	0.146898
