data_functionalizedCrystal
_audit_creation_method	'MofGen! by Chris Wilmer'
_symmetry_space_group_name_H-M	'P1'
_symmetry_Int_Tables_number	1
_symmetry_cell_setting	triclinic
loop_
_symmetry_equiv_pos_as_xyz
  x,y,z
_cell_length_a	25.639243
_cell_length_b	25.639240
_cell_length_c	12.645324
_cell_angle_alpha	89.954047
_cell_angle_beta	89.974667
_cell_angle_gamma	90.035481
loop_
_atom_site_label
_atom_site_type_symbol
_atom_site_fract_x
_atom_site_fract_y
_atom_site_fract_z
Zn1	Zn	0.799295	-0.208073	-0.599409
Zn2	Zn	1.299295	0.291927	-0.099409
Zn3	Zn	0.799213	-0.295522	-0.422105
Zn4	Zn	1.299213	0.204478	0.077895
Zn5	Zn	0.711857	-0.208107	-0.422146
Zn6	Zn	1.211857	0.291893	0.077854
Zn7	Zn	0.711825	-0.295483	-0.599313
Zn8	Zn	1.211825	0.204517	-0.099313
O9	O	0.755548	-0.251796	-0.510743
O10	O	1.255548	0.248204	-0.010743
O11	O	0.872449	-0.219676	-0.575912
O12	O	1.372449	0.280324	-0.075912
O13	O	0.787604	-0.283957	-0.273763
O14	O	1.287604	0.216043	0.226237
O15	O	0.723503	-0.134937	-0.445717
O16	O	1.223503	0.365063	0.054283
O17	O	0.872389	-0.283924	-0.445648
O18	O	1.372389	0.216076	0.054352
O19	O	0.787744	-0.134912	-0.575952
O20	O	1.287744	0.365088	-0.075952
O21	O	0.723424	-0.219733	-0.273793
O22	O	1.223424	0.280267	0.226207
O23	O	0.638688	-0.219696	-0.445625
O24	O	1.138688	0.280304	0.054375
O25	O	0.723450	-0.283858	-0.747673
O26	O	1.223450	0.216142	-0.247673
O27	O	0.638664	-0.283891	-0.575789
O28	O	1.138664	0.216109	-0.075789
O29	O	0.787713	-0.219638	-0.747744
O30	O	1.287713	0.280362	-0.247744
O31	O	0.787574	-0.368682	-0.445555
O32	O	1.287574	0.131318	0.054445
O33	O	0.723370	-0.368654	-0.575749
O34	O	1.223370	0.131346	-0.075749
C35	C	0.619705	-0.251793	-0.510701
C36	C	1.119705	0.248207	-0.010701
C37	C	0.561591	-0.251804	-0.510708
C38	C	1.061591	0.248196	-0.010708
C39	C	0.201254	-0.218395	-0.578685
C40	C	0.701254	0.281605	-0.078685
C41	C	0.146649	-0.218394	-0.578692
C42	C	0.646649	0.281606	-0.078692
O43	O	0.118435	-0.189979	-0.636435
O44	O	0.618435	0.310021	-0.136435
N45	N	0.119309	-0.251795	-0.510772
N46	N	0.619309	0.248205	-0.010772
C47	C	0.146575	-0.285194	-0.442835
C48	C	0.646575	0.214806	0.057165
O49	O	0.118305	-0.313604	-0.385064
O50	O	0.618305	0.186396	0.114936
C51	C	0.201178	-0.285192	-0.442823
C52	C	0.701178	0.214808	0.057177
C53	C	0.228516	-0.251793	-0.510755
C54	C	0.728516	0.248207	-0.010755
C55	C	0.228592	-0.184998	-0.646610
C56	C	0.728592	0.315002	-0.146610
C57	C	0.283192	-0.184999	-0.646604
C58	C	0.783192	0.315001	-0.146604
C59	C	0.310455	-0.218397	-0.578674
C60	C	0.810455	0.281603	-0.078674
C61	C	0.283117	-0.251794	-0.510749
C62	C	0.783117	0.248206	-0.010749
C63	C	0.228444	-0.318588	-0.374881
C64	C	0.728444	0.181412	0.125119
C65	C	0.283051	-0.318583	-0.374875
C66	C	0.783051	0.181417	0.125125
C67	C	0.310389	-0.285184	-0.442807
C68	C	0.810389	0.214816	0.057193
C69	C	0.364980	-0.285193	-0.442814
C70	C	0.864980	0.214807	0.057186
N71	N	0.392321	-0.251793	-0.510733
N72	N	0.892321	0.248207	-0.010733
C73	C	0.365058	-0.218395	-0.578663
C74	C	0.865058	0.281605	-0.078663
C75	C	0.031904	-0.285197	-0.442862
C76	C	0.531904	0.214803	0.057138
C77	C	-0.022698	-0.285202	-0.442877
C78	C	0.477302	0.214798	0.057123
C79	C	-0.022620	-0.218401	-0.578733
C80	C	0.477380	0.281599	-0.078733
C81	C	0.031984	-0.218399	-0.578722
C82	C	0.531984	0.281601	-0.078722
C83	C	0.059245	-0.251796	-0.510781
C84	C	0.559245	0.248204	-0.010781
C85	C	0.479723	-0.218400	-0.578647
C86	C	0.979723	0.281600	-0.078647
C87	C	0.534329	-0.218406	-0.578639
C88	C	1.034329	0.281594	-0.078639
C89	C	0.534246	-0.285205	-0.442779
C90	C	1.034246	0.214795	0.057221
C91	C	0.479645	-0.285201	-0.442791
C92	C	0.979645	0.214799	0.057209
C93	C	0.452385	-0.251795	-0.510729
C94	C	0.952385	0.248205	-0.010729
O95	O	0.393229	-0.313593	-0.385096
O96	O	0.893229	0.186407	0.114904
O97	O	0.393334	-0.189985	-0.636414
O98	O	0.893334	0.310015	-0.136414
C99	C	0.755474	-0.387639	-0.510660
C100	C	1.255474	0.112361	-0.010660
C101	C	0.755490	-0.445753	-0.510660
C102	C	1.255490	0.054247	-0.010660
C103	C	0.789014	-0.806065	-0.578679
C104	C	1.289014	-0.306065	-0.078679
C105	C	0.789030	-0.860669	-0.578700
C106	C	1.289030	-0.360669	-0.078700
O107	O	0.817445	-0.888862	-0.636447
O108	O	1.317445	-0.388862	-0.136447
N109	N	0.755620	-0.888035	-0.510846
N110	N	1.255620	-0.388035	-0.010846
C111	C	0.722189	-0.860795	-0.442973
C112	C	1.222189	-0.360795	0.057027
O113	O	0.693773	-0.889086	-0.385260
O114	O	1.193773	-0.389086	0.114740
C115	C	0.722172	-0.806192	-0.442957
C116	C	1.222172	-0.306192	0.057043
C117	C	0.755587	-0.778828	-0.510809
C118	C	1.255587	-0.278828	-0.010809
C119	C	0.822426	-0.778701	-0.646525
C120	C	1.322426	-0.278701	-0.146525
C121	C	0.822412	-0.724100	-0.646502
C122	C	1.322412	-0.224100	-0.146502
C123	C	0.788985	-0.696864	-0.578632
C124	C	1.288985	-0.196864	-0.078632
C125	C	0.755572	-0.724227	-0.510786
C126	C	1.255572	-0.224227	-0.010786
C127	C	0.688739	-0.778952	-0.375091
C128	C	1.188739	-0.278952	0.124909
C129	C	0.688724	-0.724345	-0.375082
C130	C	1.188724	-0.224345	0.124918
C131	C	0.722139	-0.696981	-0.442933
C132	C	1.222139	-0.196981	0.057067
C133	C	0.722130	-0.642390	-0.442893
C134	C	1.222130	-0.142390	0.057107
N135	N	0.755540	-0.615024	-0.510747
N136	N	1.255540	-0.115024	-0.010747
C137	C	0.788967	-0.642260	-0.578617
C138	C	1.288967	-0.142260	-0.078617
C139	C	0.722228	-0.975465	-0.443012
C140	C	1.222228	-0.475465	0.056988
C141	C	0.722248	-1.030068	-0.443021
C142	C	1.222248	-0.530068	0.056979
C143	C	0.789088	-1.029938	-0.578750
C144	C	1.289088	-0.529938	-0.078750
C145	C	0.789070	-0.975335	-0.578735
C146	C	1.289070	-0.475335	-0.078735
C147	C	0.755638	-0.948099	-0.510866
C148	C	1.255638	-0.448099	-0.010866
C149	C	0.788933	-0.527595	-0.578562
C150	C	1.288933	-0.027595	-0.078562
C151	C	0.788917	-0.472990	-0.578530
C152	C	1.288917	0.027010	-0.078530
C153	C	0.722076	-0.473124	-0.442805
C154	C	1.222076	0.026876	0.057195
C155	C	0.722094	-0.527725	-0.442833
C156	C	1.222094	-0.027725	0.057167
C157	C	0.755524	-0.554959	-0.510720
C158	C	1.255524	-0.054959	-0.010720
O159	O	0.693728	-0.614162	-0.385179
O160	O	1.193728	-0.114162	0.114821
O161	O	0.817373	-0.613962	-0.636330
O162	O	1.317373	-0.113962	-0.136330
C163	C	0.891921	-0.251800	-0.510786
C164	C	1.391921	0.248200	-0.010786
C165	C	0.950035	-0.251802	-0.510804
C166	C	1.450035	0.248198	-0.010804
C167	C	0.755587	-0.251740	-0.787249
C168	C	1.255587	0.248260	-0.287249
C169	C	0.755604	-0.251715	-0.905079
C170	C	1.255604	0.248285	-0.405079
C171	C	0.755636	-0.115423	-0.510850
C172	C	1.255636	0.384577	-0.010850
C173	C	0.755674	-0.057309	-0.510895
C174	C	1.255674	0.442691	-0.010895
C175	C	0.796189	-0.211432	-1.072687
C176	C	1.296189	0.288568	-0.572687
C177	C	0.796059	-0.211286	-0.950127
C178	C	1.296059	0.288714	-0.450127
C179	C	0.700526	-0.236745	-0.949560
C180	C	1.200526	0.263255	-0.449560
C181	C	0.700772	-0.236440	-1.072159
C182	C	1.200772	0.263560	-0.572159
C183	C	0.769649	-0.307028	-1.072250
C184	C	1.269649	0.192972	-0.572250
C185	C	0.770854	-0.306750	-0.949645
C186	C	1.270854	0.193250	-0.449645
C187	C	0.755539	-0.251815	-0.235313
C188	C	1.255539	0.248185	0.264687
C189	C	0.755623	-0.251692	-0.117484
C190	C	1.255623	0.248308	0.382516
H191	H	0.206194	-0.345785	-0.319563
H192	H	0.706194	0.154215	0.180437
H193	H	0.694888	-0.550006	-0.387575
H194	H	1.194888	-0.050006	0.112425
O195	O	0.058408	-0.317573	-0.376759
O196	O	0.558408	0.182427	0.123241
C197	C	0.120032	-0.324541	-0.233628
C198	C	0.620032	0.175459	0.266372
C199	C	0.090044	-0.287816	-0.308405
C200	C	0.590044	0.212184	0.191595
H201	H	0.145626	-0.300498	-0.178360
H202	H	0.645626	0.199502	0.321640
H203	H	0.091130	-0.348402	-0.185016
H204	H	0.591130	0.151598	0.314984
H205	H	0.145568	-0.351917	-0.282210
H206	H	0.645568	0.148083	0.217790
H207	H	0.064508	-0.260408	-0.259905
H208	H	0.564508	0.239592	0.240095
H209	H	0.118974	-0.263991	-0.357020
H210	H	0.618974	0.236009	0.142980
H211	H	0.786774	-0.170294	-0.920834
H212	H	1.286774	0.329706	-0.420834
H213	H	0.556585	-0.191208	-0.633960
H214	H	1.056585	0.308792	-0.133960
O215	O	0.453225	-0.185896	-0.644494
O216	O	0.953225	0.314104	-0.144494
C217	C	0.391609	-0.115329	-0.659078
C218	C	0.891609	0.384671	-0.159078
C219	C	0.421594	-0.152094	-0.584380
C220	C	0.921594	0.347906	-0.084380
H221	H	0.366020	-0.087998	-0.610507
H222	H	0.866020	0.412002	-0.110507
H223	H	0.420512	-0.091426	-0.707602
H224	H	0.920512	0.408574	-0.207602
H225	H	0.366069	-0.139376	-0.714442
H226	H	0.866069	0.360624	-0.214442
H227	H	0.447135	-0.128088	-0.528952
H228	H	0.947135	0.371912	-0.028952
H229	H	0.392663	-0.175999	-0.535930
H230	H	0.892663	0.324001	-0.035930
H231	H	0.305244	-0.345779	-0.319546
H232	H	0.805244	0.154221	0.180454
O233	O	0.854853	-0.805235	-0.712423
O234	O	1.354853	-0.305235	-0.212423
C235	C	0.884545	-0.889288	-0.772569
C236	C	1.384545	-0.389288	-0.272569
C237	C	0.847781	-0.859310	-0.697907
C238	C	1.347781	-0.359310	-0.197907
H239	H	0.878849	-0.933013	-0.760843
H240	H	1.378849	-0.433013	-0.260843
H241	H	0.875340	-0.878557	-0.858051
H242	H	1.375340	-0.378557	-0.358051
H243	H	0.926697	-0.878482	-0.754033
H244	H	1.426697	-0.378482	-0.254033
H245	H	0.805617	-0.870099	-0.716348
H246	H	1.305617	-0.370099	-0.216348
H247	H	0.857032	-0.870043	-0.612447
H248	H	1.357032	-0.370043	-0.112447
H249	H	0.688881	-0.195990	-1.100787
H250	H	1.188881	0.304010	-0.600787
H251	H	0.206400	-0.157798	-0.701927
H252	H	0.706400	0.342202	-0.201927
H253	H	0.669479	-0.265168	-0.920376
H254	H	1.169479	0.234832	-0.420376
H255	H	0.457385	-0.312404	-0.387488
H256	H	0.957385	0.187596	0.112512
H257	H	0.837166	-0.220688	-1.102179
H258	H	1.337166	0.279312	-0.602179
O259	O	0.686049	-0.189001	-0.913157
O260	O	1.186049	0.310999	-0.413157
C261	C	0.661898	-0.100901	-0.957953
C262	C	1.161898	0.399099	-0.457953
C263	C	0.678275	-0.154949	-0.999322
C264	C	1.178275	0.345051	-0.499322
H265	H	0.655620	-0.073352	-1.027595
H266	H	1.155620	0.426648	-0.527595
H267	H	0.624114	-0.104621	-0.910981
H268	H	1.124114	0.395379	-0.410981
H269	H	0.693877	-0.084708	-0.904639
H270	H	1.193877	0.415292	-0.404639
H271	H	0.646332	-0.171173	-1.052677
H272	H	1.146332	0.328827	-0.552677
H273	H	0.716074	-0.151196	-1.046233
H274	H	1.216074	0.348804	-0.546233
H275	H	0.054239	-0.191201	-0.634036
H276	H	0.554239	0.308799	-0.134036
H277	H	0.809109	-0.320657	-1.103232
H278	H	1.309109	0.179343	-0.603232
O279	O	0.656192	-0.697865	-0.309303
O280	O	1.156192	-0.197865	0.190697
C281	C	0.585607	-0.636265	-0.294879
C282	C	1.085607	-0.136265	0.205121
C283	C	0.622406	-0.666230	-0.369494
C284	C	1.122406	-0.166230	0.130506
H285	H	0.558289	-0.610673	-0.343513
H286	H	1.058289	-0.110673	0.156487
H287	H	0.561691	-0.665182	-0.246410
H288	H	1.061691	-0.165182	0.253590
H289	H	0.609627	-0.610730	-0.239460
H290	H	1.109627	-0.110730	0.260540
H291	H	0.598426	-0.691765	-0.424977
H292	H	1.098426	-0.191765	0.075023
H293	H	0.646324	-0.637285	-0.417888
H294	H	1.146324	-0.137285	0.082112
H295	H	0.740105	-0.337027	-1.101225
H296	H	1.240105	0.162973	-0.601225
H297	H	0.816152	-0.549763	-0.633850
H298	H	1.316152	-0.049763	-0.133850
O299	O	0.663520	-0.269888	-1.107695
O300	O	1.163520	0.230112	-0.607695
C301	C	0.621096	-0.307803	-1.259291
C302	C	1.121096	0.192197	-0.759291
C303	C	0.663315	-0.269925	-1.219197
C304	C	1.163315	0.230075	-0.719197
H305	H	0.620908	-0.307838	-1.349443
H306	H	1.120908	0.192162	-0.849443
H307	H	0.629778	-0.348811	-1.229182
H308	H	1.129778	0.151189	-0.729182
H309	H	0.581316	-0.294775	-1.228918
H310	H	1.081316	0.205225	-0.728918
H311	H	0.703112	-0.282906	-1.249554
H312	H	1.203112	0.217094	-0.749554
H313	H	0.654587	-0.228926	-1.249295
H314	H	1.154587	0.271074	-0.749295
O315	O	0.656348	-0.805550	-0.309081
O316	O	1.156348	-0.305550	0.190919
C317	C	0.649337	-0.867297	-0.166010
C318	C	1.149337	-0.367297	0.333990
C319	C	0.686084	-0.837198	-0.240679
C320	C	1.186084	-0.337198	0.259321
H321	H	0.673363	-0.892899	-0.110703
H322	H	1.173363	-0.392899	0.389297
H323	H	0.625450	-0.838468	-0.117434
H324	H	1.125450	-0.338468	0.382566
H325	H	0.621985	-0.892834	-0.214674
H326	H	1.121985	-0.392834	0.285326
H327	H	0.713468	-0.811659	-0.192097
H328	H	1.213468	-0.311659	0.307903
H329	H	0.709935	-0.866054	-0.289258
H330	H	1.209935	-0.366054	0.210742
H331	H	-0.044827	-0.191205	-0.634043
H332	H	0.455173	0.308795	-0.134043
O333	O	-0.049170	-0.317667	-0.376798
O334	O	0.450830	0.182333	0.123202
C335	C	-0.043470	-0.383946	-0.242094
C336	C	0.456530	0.116054	0.257906
C337	C	-0.013428	-0.347200	-0.316864
C338	C	0.486572	0.152800	0.183136
H339	H	-0.014585	-0.407841	-0.193634
H340	H	0.485415	0.092159	0.306366
H341	H	-0.069017	-0.359939	-0.186683
H342	H	0.430983	0.140061	0.313317
H343	H	-0.069053	-0.411291	-0.290673
H344	H	0.430947	0.088709	0.209327
H345	H	0.012184	-0.319847	-0.268370
H346	H	0.512184	0.180153	0.231630
H347	H	0.012087	-0.371240	-0.372278
H348	H	0.512087	0.128760	0.127722
H349	H	0.787023	-0.170667	-1.103530
H350	H	1.287023	0.329333	-0.603530
H351	H	0.694861	-0.450940	-0.387543
H352	H	1.194861	0.049060	0.112457
O353	O	0.560793	-0.317671	-0.376941
O354	O	1.060793	0.182329	0.123059
C355	C	0.622382	-0.388263	-0.362393
C356	C	1.122382	0.111737	0.137607
C357	C	0.592357	-0.351525	-0.437080
C358	C	1.092357	0.148475	0.062920
H359	H	0.647900	-0.415651	-0.410986
H360	H	1.147900	0.084349	0.089014
H361	H	0.647981	-0.364249	-0.307080
H362	H	1.147981	0.135751	0.192920
H363	H	0.593458	-0.412112	-0.313813
H364	H	1.093458	0.087888	0.186187
H365	H	0.621243	-0.327668	-0.485728
H366	H	1.121243	0.172332	0.014272
H367	H	0.566750	-0.375568	-0.492322
H368	H	1.066750	0.124432	0.007678
H369	H	0.816130	-0.450712	-0.633782
H370	H	1.316130	0.049288	-0.133782
O371	O	0.854885	-0.697604	-0.712519
O372	O	1.354885	-0.197604	-0.212519
C373	C	0.921203	-0.703259	-0.847101
C374	C	1.421203	-0.203259	-0.347101
C375	C	0.884444	-0.733326	-0.772402
C376	C	1.384444	-0.233326	-0.272402
H377	H	0.945118	-0.732127	-0.895520
H378	H	1.445118	-0.232127	-0.395520
H379	H	0.897204	-0.677706	-0.902553
H380	H	1.397204	-0.177706	-0.402553
H381	H	0.948528	-0.677679	-0.798467
H382	H	1.448528	-0.177679	-0.298467
H383	H	0.857111	-0.758934	-0.820951
H384	H	1.357111	-0.258934	-0.320951
H385	H	0.908475	-0.758846	-0.716948
H386	H	1.408475	-0.258846	-0.216948
H387	H	0.816280	-0.953058	-0.633985
H388	H	1.316280	-0.453058	-0.133985
H389	H	0.836901	-0.220661	-0.920055
H390	H	1.336901	0.279339	-0.420055
H391	H	0.816305	-1.052124	-0.634015
H392	H	1.316305	-0.552124	-0.134015
H393	H	0.695044	-1.052343	-0.387758
H394	H	1.195044	-0.552343	0.112242
O395	O	0.689738	-0.949091	-0.376969
O396	O	1.189738	-0.449091	0.123031
C397	C	0.623425	-0.954994	-0.242390
C398	C	1.123425	-0.454994	0.257610
C399	C	0.660202	-0.984924	-0.317107
C400	C	1.160202	-0.484924	0.182893
H401	H	0.599527	-0.983952	-0.193987
H402	H	1.099527	-0.483952	0.306013
H403	H	0.647409	-0.929449	-0.186923
H404	H	1.147409	-0.429449	0.313077
H405	H	0.596084	-0.929419	-0.291008
H406	H	1.096084	-0.429419	0.208992
H407	H	0.687550	-1.010527	-0.268574
H408	H	1.187550	-0.510527	0.231426
H409	H	0.636185	-1.010436	-0.372577
H410	H	1.136185	-0.510436	0.127423
H411	H	0.811387	-0.318038	-0.920572
H412	H	1.311387	0.181962	-0.420572
H413	H	0.743455	-0.338361	-0.918974
H414	H	1.243455	0.161639	-0.418974
H415	H	0.305446	-0.157801	-0.701919
H416	H	0.805446	0.342199	-0.201919
