data_functionalizedCrystal
_audit_creation_method	'MofGen! by Chris Wilmer'
_symmetry_space_group_name_H-M	'P1'
_symmetry_Int_Tables_number	1
_symmetry_cell_setting	triclinic
loop_
_symmetry_equiv_pos_as_xyz
  x,y,z
_cell_length_a	13.897449
_cell_length_b	17.077402
_cell_length_c	13.897441
_cell_angle_alpha	89.968703
_cell_angle_beta	89.978743
_cell_angle_gamma	90.026055
loop_
_atom_site_label
_atom_site_type_symbol
_atom_site_fract_x
_atom_site_fract_y
_atom_site_fract_z
Zn1	Zn	1.474632	-0.312473	-0.545438
Zn2	Zn	1.474511	-0.443753	-0.384135
Zn3	Zn	1.313327	-0.312507	-0.384149
Zn4	Zn	1.313281	-0.443703	-0.545380
O5	O	1.393938	-0.378109	-0.464776
O6	O	1.609597	-0.329895	-0.524060
O7	O	1.453098	-0.426379	-0.249155
O8	O	1.334794	-0.202656	-0.405575
O9	O	1.609508	-0.426346	-0.405551
O10	O	1.453304	-0.202631	-0.524073
O11	O	1.334677	-0.329953	-0.249166
O12	O	1.178339	-0.329904	-0.405519
O13	O	1.334717	-0.426260	-0.680370
O14	O	1.178306	-0.426293	-0.523974
O15	O	1.453260	-0.329846	-0.680412
O16	O	1.453053	-0.553594	-0.405494
O17	O	1.334599	-0.553557	-0.523960
C18	C	1.143323	-0.378097	-0.464742
C19	C	1.036109	-0.378111	-0.464751
C20	C	1.393834	-0.582057	-0.464741
C21	C	1.393878	-0.669307	-0.464758
C22	C	1.455752	-1.045045	-0.526591
C23	C	1.455708	-0.963064	-0.526568
C24	C	1.394031	-0.922156	-0.464815
C25	C	1.332400	-0.963232	-0.403074
C26	C	1.332449	-1.045211	-0.403093
C27	C	1.332300	-0.792362	-0.403041
C28	C	1.332250	-0.710378	-0.403024
C29	C	1.455560	-0.710215	-0.526516
C30	C	1.455609	-0.792194	-0.526535
C31	C	1.393976	-0.833265	-0.464795
C32	C	0.949040	-0.378114	-0.464767
C33	C	0.839807	-0.378119	-0.464796
C34	C	1.645531	-0.378122	-0.464810
C35	C	1.752745	-0.378127	-0.464825
C36	C	1.393997	-0.378043	-0.716369
C37	C	1.394022	-0.378015	-0.823583
C38	C	1.394068	-0.173365	-0.464832
C39	C	1.394123	-0.086115	-0.464856
C40	C	1.394042	-0.377993	-0.910653
C41	C	1.394069	-0.377958	-1.019885
C42	C	1.393934	-0.378118	-0.214161
C43	C	1.394096	-0.377925	-0.106948
H44	H	1.505967	-1.078346	-0.576886
H45	H	1.505830	-0.825500	-0.576822
H46	H	1.282027	-0.677074	-0.352737
H47	H	1.505744	-0.676771	-0.576787
O48	O	1.522205	-0.918763	-0.593125
H49	H	1.565102	-0.960982	-0.636067
H50	H	1.282114	-0.825799	-0.352764
H51	H	1.282184	-0.929920	-0.352789
O52	O	1.265974	-1.089515	-0.336513
H53	H	1.223070	-1.047298	-0.293576
