data_functionalizedCrystal
_audit_creation_method	'MofGen! by Chris Wilmer'
_symmetry_space_group_name_H-M	'P1'
_symmetry_Int_Tables_number	1
_symmetry_cell_setting	triclinic
loop_
_symmetry_equiv_pos_as_xyz
  x,y,z
_cell_length_a	12.759401
_cell_length_b	21.295417
_cell_length_c	12.759393
_cell_angle_alpha	90.039170
_cell_angle_beta	90.018496
_cell_angle_gamma	90.030668
loop_
_atom_site_label
_atom_site_type_symbol
_atom_site_fract_x
_atom_site_fract_y
_atom_site_fract_z
Zn1	Zn	1.606140	-0.250569	0.593926
Zn2	Zn	1.605986	-0.355853	0.418223
Zn3	Zn	1.430442	-0.250602	0.418265
Zn4	Zn	1.430382	-0.355805	0.593864
O5	O	1.518237	-0.303208	0.506069
O6	O	1.753141	-0.264542	0.570626
O7	O	1.582660	-0.341926	0.271207
O8	O	1.453838	-0.162509	0.441611
O9	O	1.753027	-0.341894	0.441538
O10	O	1.582923	-0.162484	0.570668
O11	O	1.453689	-0.264598	0.271238
O12	O	1.283413	-0.264551	0.441551
O13	O	1.453736	-0.341811	0.740893
O14	O	1.283369	-0.341843	0.570562
O15	O	1.582865	-0.264495	0.740939
O16	O	1.582602	-0.443936	0.441478
O17	O	1.453587	-0.443901	0.570521
C18	C	1.245270	-0.303196	0.506055
C19	C	1.128493	-0.303206	0.506074
C20	C	1.073636	-0.343516	0.573139
C21	C	0.963912	-0.343524	0.573151
C22	C	0.963912	-0.262910	0.439022
C23	C	1.073635	-0.262899	0.439017
C24	C	1.073635	-0.390061	0.650574
C25	C	0.963911	-0.390069	0.650585
C26	C	1.518100	-0.466759	0.506011
C27	C	1.518137	-0.536727	0.506021
C28	C	1.585375	-0.569592	0.438898
C29	C	1.585424	-0.635334	0.438921
C30	C	1.518217	-0.668210	0.506058
C31	C	1.450974	-0.635338	0.573195
C32	C	1.450934	-0.569596	0.573177
N33	N	1.426309	-0.771475	0.514062
N34	N	1.426350	-0.833927	0.514073
C35	C	1.518334	-0.866284	0.506118
N36	N	1.610278	-0.833832	0.498130
N37	N	1.610236	-0.771375	0.498114
C38	C	1.518253	-0.739495	0.506085
C39	C	1.585631	-0.970434	0.439016
C40	C	1.585682	-1.036178	0.439047
C41	C	1.451223	-1.036180	0.573315
C42	C	1.451181	-0.970438	0.573289
C43	C	1.518384	-0.937569	0.506134
C44	C	1.792271	-0.303220	0.506084
C45	C	1.909047	-0.303225	0.506091
C46	C	1.518311	-0.303144	0.780103
C47	C	1.518342	-0.303117	0.896880
C48	C	1.518404	-0.139017	0.506151
C49	C	1.518475	-0.069049	0.506185
C50	C	1.518225	-0.303225	0.233102
C51	C	1.518397	-0.303075	0.116326
C52	C	1.585589	-0.262855	0.951767
C53	C	1.585614	-0.262832	1.061491
C54	C	1.451143	-0.343339	1.061431
C55	C	1.451113	-0.343358	0.951709
C56	C	1.663228	-0.216376	0.951803
C57	C	1.663253	-0.216353	1.061527
H58	H	1.640098	-0.542832	0.384219
H59	H	1.634161	-0.170033	1.095585
F60	F	1.379526	-0.386202	0.893297
F61	F	1.634804	-0.152658	0.912918
F62	F	1.657257	-1.071154	0.367608
F63	F	0.924931	-0.453771	0.621877
H64	H	1.640181	-0.662097	0.384261
H65	H	1.740492	-0.233853	0.917763
F66	F	1.112609	-0.373068	0.756980
F67	F	1.769602	-0.233413	1.100451
F68	F	1.379612	-0.935460	0.644729
F69	F	0.905519	-0.220014	0.367661
F70	F	1.132014	-0.219986	0.367654
H71	H	1.107628	-0.436347	0.621279
F72	F	1.379701	-1.071165	0.644773
F73	F	0.919478	-0.367323	0.751692
F74	F	1.379451	-0.670327	0.644650
H75	H	1.396180	-0.542838	0.627838
H76	H	1.640355	-0.943671	0.384338
H77	H	1.396405	-0.376101	1.106086
