data_functionalizedCrystal
_audit_creation_method	'MofGen! by Chris Wilmer'
_symmetry_space_group_name_H-M	'P1'
_symmetry_Int_Tables_number	1
_symmetry_cell_setting	triclinic
loop_
_symmetry_equiv_pos_as_xyz
  x,y,z
_cell_length_a	19.805407
_cell_length_b	18.215405
_cell_length_c	18.215399
_cell_angle_alpha	90.026474
_cell_angle_beta	90.018864
_cell_angle_gamma	90.019338
loop_
_atom_site_label
_atom_site_type_symbol
_atom_site_fract_x
_atom_site_fract_y
_atom_site_fract_z
Zn1	Zn	1.034763	-0.293045	0.416104
Zn2	Zn	1.368097	0.040289	0.749438
Zn3	Zn	1.701430	0.373622	1.082771
Zn4	Zn	1.034685	-0.416116	0.293041
Zn5	Zn	1.368018	-0.082782	0.626375
Zn6	Zn	1.701351	0.250551	0.959708
Zn7	Zn	0.921576	-0.293062	0.293054
Zn8	Zn	1.254909	0.040271	0.626387
Zn9	Zn	1.588243	0.373605	0.959720
Zn10	Zn	0.921550	-0.416068	0.416068
Zn11	Zn	1.254884	-0.082735	0.749402
Zn12	Zn	1.588217	0.250599	1.082735
O13	O	0.978144	-0.354573	0.354567
O14	O	1.311477	-0.021239	0.687900
O15	O	1.644810	0.312094	1.021234
O16	O	1.129470	-0.309383	0.399790
O17	O	1.462803	0.023950	0.733123
O18	O	1.796136	0.357284	1.066456
O19	O	1.019659	-0.399820	0.190059
O20	O	1.352992	-0.066486	0.523392
O21	O	1.686325	0.266847	0.856725
O22	O	0.936634	-0.190075	0.309397
O23	O	1.269967	0.143258	0.642730
O24	O	1.603301	0.476591	0.976064
O25	O	1.129412	-0.399803	0.309376
O26	O	1.462745	-0.066469	0.642709
O27	O	1.796078	0.266864	0.976042
O28	O	1.019792	-0.190063	0.399802
O29	O	1.353126	0.143271	0.733135
O30	O	1.686459	0.476604	1.066468
O31	O	0.936558	-0.309412	0.190068
O32	O	1.269891	0.023921	0.523401
O33	O	1.603225	0.357254	0.856734
O34	O	0.826856	-0.309366	0.309362
O35	O	1.160189	0.023967	0.642695
O36	O	1.493523	0.357300	0.976029
O37	O	0.936590	-0.399722	0.519057
O38	O	1.269924	-0.066388	0.852391
O39	O	1.603257	0.266945	1.185724
O40	O	0.826837	-0.399738	0.399740
O41	O	1.160170	-0.066405	0.733074
O42	O	1.493504	0.266928	1.066407
O43	O	1.019768	-0.309337	0.519084
O44	O	1.353101	0.023997	0.852417
O45	O	1.686434	0.357330	1.185751
O46	O	1.019634	-0.519094	0.309341
O47	O	1.352967	-0.185760	0.642674
O48	O	1.686300	0.147573	0.976007
O49	O	0.936514	-0.519059	0.399728
O50	O	1.269847	-0.185725	0.733061
O51	O	1.603181	0.147608	1.066395
C52	C	0.978081	-0.545779	0.354545
C53	C	1.311414	-0.212446	0.687878
C54	C	1.644748	0.120888	1.021212
C55	C	0.978116	-0.627578	0.354560
C56	C	1.311449	-0.294244	0.687894
C57	C	1.644783	0.039089	1.021227
C58	C	0.802288	-0.354550	0.354549
C59	C	1.135621	-0.021216	0.687882
C60	C	1.468954	0.312117	1.021216
C61	C	0.727056	-0.354557	0.354559
C62	C	1.060389	-0.021224	0.687892
C63	C	1.393722	0.312109	1.021226
C64	C	1.021457	-0.892571	0.401706
C65	C	1.354790	-0.559238	0.735039
C66	C	1.688124	-0.225904	1.068373
C67	C	1.021434	-0.815712	0.401695
C68	C	1.354768	-0.482379	0.735028
C69	C	1.688101	-0.149046	1.068362
C70	C	0.934917	-0.815833	0.307470
C71	C	1.268250	-0.482500	0.640804
C72	C	1.601583	-0.149166	0.974137
C73	C	0.934943	-0.892690	0.307478
C74	C	1.268277	-0.559357	0.640812
C75	C	1.601610	-0.226024	0.974145
C76	C	0.978212	-0.931057	0.354600
C77	C	1.311546	-0.597724	0.687934
C78	C	1.644879	-0.264391	1.021267
C79	C	0.978163	-0.777341	0.354581
C80	C	1.311496	-0.444008	0.687914
C81	C	1.644830	-0.110675	1.021248
C82	C	0.978138	-0.694008	0.354569
C83	C	1.311472	-0.360674	0.687902
C84	C	1.644805	-0.027341	1.021235
C85	C	0.978239	-1.014396	0.354612
C86	C	1.311572	-0.681063	0.687945
C87	C	1.644905	-0.347730	1.021279
C88	C	0.691742	-0.307559	0.401709
C89	C	1.025075	0.025774	0.735042
C90	C	1.358409	0.359108	1.068376
C91	C	0.621054	-0.307563	0.401712
C92	C	0.954387	0.025770	0.735045
C93	C	1.287720	0.359104	1.068378
C94	C	0.585680	-0.354569	0.354568
C95	C	0.919013	-0.021236	0.687901
C96	C	1.252347	0.312097	1.021234
C97	C	0.620998	-0.401570	0.307412
C98	C	0.954332	-0.068236	0.640746
C99	C	1.287665	0.265097	0.974079
C100	C	0.691686	-0.401562	0.307406
C101	C	1.025019	-0.068228	0.640740
C102	C	1.358352	0.265105	0.974073
C103	C	0.335925	-0.401603	0.307435
C104	C	0.669258	-0.068270	0.640768
C105	C	1.002592	0.265064	0.974102
C106	C	0.265233	-0.401609	0.307446
C107	C	0.598566	-0.068276	0.640779
C108	C	0.931900	0.265058	0.974113
C109	C	0.265293	-0.307604	0.401740
C110	C	0.598627	0.025729	0.735074
C111	C	0.931960	0.359063	1.068407
C112	C	0.335980	-0.307596	0.401734
C113	C	0.669314	0.025737	0.735068
C114	C	1.002647	0.359071	1.068401
C115	C	0.371293	-0.354593	0.354577
C116	C	0.704626	-0.021260	0.687910
C117	C	1.037959	0.312073	1.021243
C118	C	0.447941	-0.354588	0.354573
C119	C	0.781274	-0.021254	0.687906
C120	C	1.114608	0.312079	1.021240
C121	C	0.509033	-0.354579	0.354574
C122	C	0.842366	-0.021246	0.687908
C123	C	1.175700	0.312087	1.021241
C124	C	1.154686	-0.354596	0.354585
C125	C	1.488020	-0.021263	0.687919
C126	C	1.821353	0.312070	1.021252
C127	C	1.229918	-0.354606	0.354593
C128	C	1.563252	-0.021273	0.687926
C129	C	1.896585	0.312060	1.021260
C130	C	0.978185	-0.354522	0.546520
C131	C	1.311518	-0.021188	0.879853
C132	C	1.644851	0.312145	1.213187
C133	C	0.978202	-0.354500	0.628319
C134	C	1.311536	-0.021167	0.961652
C135	C	1.644869	0.312166	1.294986
C136	C	0.978225	-0.162620	0.354605
C137	C	1.311558	0.170714	0.687938
C138	C	1.644892	0.504047	1.021272
C139	C	0.978260	-0.080821	0.354621
C140	C	1.311593	0.252513	0.687954
C141	C	1.644926	0.585846	1.021288
C142	C	0.978141	-0.354570	0.163361
C143	C	1.311475	-0.021237	0.496694
C144	C	1.644808	0.312097	0.830027
C145	C	0.978255	-0.354384	0.081562
C146	C	1.311588	-0.021051	0.414896
C147	C	1.644922	0.312282	0.748229
C148	C	1.021528	-0.307393	0.816528
C149	C	1.354862	0.025941	1.149861
C150	C	1.688195	0.359274	1.483195
C151	C	1.021536	-0.307371	0.893387
C152	C	1.354870	0.025962	1.226720
C153	C	1.688203	0.359295	1.560053
C154	C	0.934924	-0.401494	0.893348
C155	C	1.268258	-0.068160	1.226681
C156	C	1.601591	0.265173	1.560014
C157	C	0.934913	-0.401511	0.816490
C158	C	1.268247	-0.068178	1.149824
C159	C	1.601580	0.265156	1.483157
C160	C	0.978219	-0.354462	0.778082
C161	C	1.311553	-0.021128	1.111416
C162	C	1.644886	0.312205	1.444749
C163	C	0.978238	-0.354423	0.931799
C164	C	1.311572	-0.021090	1.265132
C165	C	1.644905	0.312244	1.598465
C166	C	0.978247	-0.354400	1.015132
C167	C	1.311580	-0.021067	1.348466
C168	C	1.644913	0.312267	1.681799
C169	C	0.978210	-0.354483	0.694743
C170	C	1.311543	-0.021150	1.028077
C171	C	1.644877	0.312183	1.361410
H172	H	1.056687	-0.923807	0.440079
H173	H	1.390020	-0.590474	0.773412
H174	H	1.723353	-0.257140	1.106746
H175	H	1.056802	-0.269042	0.924686
H176	H	1.390135	0.064291	1.258019
H177	H	1.723469	0.397625	1.591352
H178	H	0.899641	-0.439839	0.785187
H179	H	1.232974	-0.106506	1.118521
H180	H	1.566308	0.226827	1.451854
H181	H	0.364778	-0.269321	0.440126
H182	H	0.698112	0.064012	0.773460
H183	H	1.031445	0.397346	1.106793
H184	H	0.592305	-0.269293	0.440108
H185	H	0.925638	0.064040	0.773441
H186	H	1.258971	0.397373	1.106774
Br187	Br	1.080299	-0.243539	0.764405
Br188	Br	1.413632	0.089794	1.097738
Br189	Br	1.746965	0.423128	1.431071
H190	H	0.899687	-0.784587	0.269105
H191	H	1.233020	-0.451253	0.602439
H192	H	1.566354	-0.117920	0.935772
Br193	Br	1.080129	-0.763483	0.465624
Br194	Br	1.413462	-0.430150	0.798957
Br195	Br	1.746795	-0.096817	1.132290
H196	H	0.899668	-0.439801	0.924629
H197	H	1.233001	-0.106468	1.257962
H198	H	1.566334	0.226865	1.591296
H199	H	0.720538	-0.269283	0.440101
H200	H	1.053872	0.064051	0.773435
H201	H	1.387205	0.397384	1.106768
Br202	Br	0.217366	-0.243820	0.465741
Br203	Br	0.550699	0.089513	0.799075
Br204	Br	0.884033	0.422847	1.132408
Br205	Br	0.876255	-0.944927	0.243539
Br206	Br	1.209589	-0.611593	0.576872
Br207	Br	1.542922	-0.278260	0.910205
H208	H	0.236434	-0.439889	0.269053
H209	H	0.569767	-0.106556	0.602386
H210	H	0.903100	0.226778	0.935720
Br211	Br	0.383840	-0.465366	0.243416
Br212	Br	0.717173	-0.132033	0.576749
Br213	Br	1.050507	0.201301	0.910083
H214	H	0.592191	-0.439840	0.269023
H215	H	0.925525	-0.106506	0.602357
H216	H	1.258858	0.226827	0.935690
H217	H	0.720437	-0.439832	0.269011
H218	H	1.053770	-0.106499	0.602345
H219	H	1.387104	0.226835	0.935678
