data_functionalizedCrystal
_audit_creation_method	'MofGen! by Chris Wilmer'
_symmetry_space_group_name_H-M	'P1'
_symmetry_Int_Tables_number	1
_symmetry_cell_setting	triclinic
loop_
_symmetry_equiv_pos_as_xyz
  x,y,z
_cell_length_a	13.032831
_cell_length_b	15.297327
_cell_length_c	13.033109
_cell_angle_alpha	107.902170
_cell_angle_beta	76.665514
_cell_angle_gamma	93.742008
loop_
_atom_site_label
_atom_site_type_symbol
_atom_site_fract_x
_atom_site_fract_y
_atom_site_fract_z
Zn1	Zn	1.587185	-0.634181	-0.919127
Zn2	Zn	2.087185	-0.134181	-0.419127
Zn3	Zn	1.541562	-0.763090	-0.764422
Zn4	Zn	2.041562	-0.263090	-0.264422
Zn5	Zn	1.394822	-0.590304	-0.711221
Zn6	Zn	1.894822	-0.090304	-0.211221
Zn7	Zn	1.386591	-0.763011	-0.919452
Zn8	Zn	1.886591	-0.263011	-0.419452
O9	O	1.477540	-0.687646	-0.828556
O10	O	1.977540	-0.187646	-0.328556
O11	O	1.726493	-0.669677	-0.920734
O12	O	2.226493	-0.169677	-0.420734
O13	O	1.506448	-0.721840	-0.605475
O14	O	2.006448	-0.221840	-0.105475
O15	O	1.442878	-0.469897	-0.716400
O16	O	1.942878	0.030103	-0.216400
O17	O	1.692974	-0.764386	-0.807073
O18	O	2.192974	-0.264386	-0.307073
O19	O	1.584206	-0.502133	-0.869147
O20	O	2.084206	-0.002133	-0.369147
O21	O	1.398639	-0.594895	-0.566389
O22	O	1.898639	-0.094895	-0.066389
O23	O	1.248370	-0.594818	-0.716715
O24	O	1.748370	-0.094818	-0.216715
O25	O	1.428848	-0.764251	-1.071299
O26	O	1.928848	-0.264251	-0.571299
O27	O	1.242322	-0.721705	-0.869701
O28	O	1.742322	-0.221705	-0.369701
O29	O	1.576224	-0.669600	-1.071060
O30	O	2.076224	-0.169600	-0.571060
O31	O	1.498466	-0.889307	-0.807388
O32	O	1.998466	-0.389307	-0.307388
O33	O	1.384610	-0.889249	-0.921288
O34	O	1.884610	-0.389249	-0.421288
C35	C	1.207656	-0.653492	-0.787471
C36	C	1.707656	-0.153492	-0.287471
C37	C	1.092197	-0.638905	-0.769925
C38	C	1.592197	-0.138905	-0.269925
C39	C	1.435725	-0.922014	-0.870174
C40	C	1.935725	-0.422014	-0.370174
C41	C	1.417935	-1.022293	-0.888029
C42	C	1.917935	-0.522293	-0.388029
C43	C	1.037731	-0.695259	-0.837713
C44	C	1.537731	-0.195259	-0.337713
C45	C	0.918398	-0.680185	-0.819580
C46	C	1.418398	-0.180185	-0.319580
C47	C	1.605153	-1.305013	-0.701377
C48	C	2.105153	-0.805013	-0.201377
C49	C	1.621867	-1.210795	-0.684595
C50	C	2.121867	-0.710795	-0.184595
C51	C	1.570886	-1.163665	-0.735453
C52	C	2.070886	-0.663665	-0.235453
C53	C	1.503187	-1.210763	-0.803094
C54	C	2.003187	-0.710763	-0.303094
C55	C	1.486466	-1.304989	-0.819870
C56	C	1.986466	-0.804989	-0.319870
C57	C	1.452198	-1.163641	-0.853946
C58	C	1.952198	-0.663641	-0.353946
C59	C	1.384500	-1.210738	-0.921587
C60	C	1.884500	-0.710738	-0.421587
C61	C	1.367782	-1.304955	-0.938361
C62	C	1.867782	-0.804955	-0.438361
C63	C	1.418763	-1.352085	-0.887504
C64	C	1.918763	-0.852085	-0.387504
C65	C	1.468919	-1.069414	-0.837170
C66	C	1.968919	-0.569414	-0.337170
C67	C	1.350232	-1.069390	-0.955663
C68	C	1.850232	-0.569390	-0.455663
C69	C	1.333519	-1.163608	-0.972444
C70	C	1.833519	-0.663608	-0.472444
C71	C	1.748478	-0.721935	-0.869801
C72	C	2.248478	-0.221935	-0.369801
C73	C	1.863935	-0.736547	-0.887378
C74	C	2.363935	-0.236547	-0.387378
C75	C	1.506707	-0.721811	-1.111664
C76	C	2.006707	-0.221811	-0.611664
C77	C	1.519136	-0.736370	-1.232307
C78	C	2.019136	-0.236370	-0.732307
C79	C	1.519549	-0.452370	-0.786803
C80	C	2.019549	0.047630	-0.286803
C81	C	1.537451	-0.352110	-0.769010
C82	C	2.037451	0.147890	-0.269010
C83	C	1.471336	-0.680051	-1.266755
C84	C	1.971336	-0.180051	-0.766755
C85	C	1.484181	-0.695097	-1.391446
C86	C	1.984181	-0.195097	-0.891446
C87	C	1.448557	-0.653557	-0.546547
C88	C	1.948557	-0.153557	-0.046547
C89	C	1.436374	-0.638770	-0.425889
C90	C	1.936374	-0.138770	0.074111
H91	H	1.079448	-0.754664	-0.909177
H92	H	1.579448	-0.254664	-0.409177
Cl93	Cl	1.562046	-0.786750	-1.488426
Cl94	Cl	2.062046	-0.286750	-0.988426
H95	H	1.646648	-1.343394	-0.659969
H96	H	2.146648	-0.843394	-0.159969
H97	H	0.876688	-0.620771	-0.748118
H98	H	1.376688	-0.120771	-0.248118
Cl99	Cl	1.397288	-1.470429	-0.908093
Cl100	Cl	1.897288	-0.970429	-0.408093
H101	H	0.905647	-0.795954	-0.958850
H102	H	1.405647	-0.295954	-0.458850
Cl103	Cl	1.027802	-0.547178	-0.659595
Cl104	Cl	1.527802	-0.047178	-0.159595
H105	H	1.420898	-0.620698	-1.203935
H106	H	1.920898	-0.120698	-0.703935
Cl107	Cl	1.592213	-1.045289	-0.714695
Cl108	Cl	2.092213	-0.545289	-0.214695
H109	H	1.569568	-0.795727	-1.295128
H110	H	2.069568	-0.295727	-0.795128
Cl111	Cl	1.282670	-1.364161	-1.023390
Cl112	Cl	1.782670	-0.864161	-0.523390
Cl113	Cl	1.248414	-1.222828	-1.057476
Cl114	Cl	1.748414	-0.722828	-0.557476
Cl115	Cl	1.554023	-1.010217	-0.752138
Cl116	Cl	2.054023	-0.510217	-0.252138
H117	H	1.676985	-1.172451	-0.629521
H118	H	2.176985	-0.672451	-0.129521
Cl119	Cl	1.286130	-1.010146	-1.019594
Cl120	Cl	1.786130	-0.510146	-0.519594
Cl121	Cl	1.358472	-0.547139	-1.328912
Cl122	Cl	1.858472	-0.047139	-0.828912
