data_functionalizedCrystal
_audit_creation_method	'MofGen! by Chris Wilmer'
_symmetry_space_group_name_H-M	'P1'
_symmetry_Int_Tables_number	1
_symmetry_cell_setting	triclinic
loop_
_symmetry_equiv_pos_as_xyz
  x,y,z
_cell_length_a	17.699097
_cell_length_b	27.731996
_cell_length_c	16.776229
_cell_angle_alpha	89.987372
_cell_angle_beta	89.989262
_cell_angle_gamma	82.954908
loop_
_atom_site_label
_atom_site_type_symbol
_atom_site_fract_x
_atom_site_fract_y
_atom_site_fract_z
O1	O	1.003515	0.061159	-0.066365
O2	O	0.783066	0.069105	-0.066353
O3	O	0.900158	-0.005242	-0.066342
O4	O	0.886423	0.135506	-0.066376
O5	O	0.900142	-0.005246	0.066234
O6	O	0.783050	0.069101	0.066223
O7	O	1.003500	0.061154	0.066212
Zn8	Zn	0.893273	0.065127	0.087267
Zn9	Zn	0.893293	0.065133	-0.087408
O10	O	0.886408	0.135501	0.066201
C11	C	0.754864	0.068817	-0.000063
C12	C	0.670854	0.067960	-0.000058
C13	C	0.155192	0.062706	-0.072356
C14	C	0.234129	0.063509	-0.072353
C15	C	0.273583	0.063908	-0.000082
C16	C	0.234097	0.063500	0.072189
C17	C	0.155162	0.062694	0.072185
C18	C	0.552431	0.066749	0.072210
C19	C	0.631371	0.067557	0.072209
C20	C	0.631398	0.067564	-0.072328
C21	C	0.552463	0.066758	-0.072332
C22	C	0.512985	0.066347	-0.000061
C23	C	0.427393	0.065476	-0.000066
C24	C	0.359173	0.064783	-0.000076
C25	C	0.899868	-0.023252	-0.000051
C26	C	0.899018	-0.076912	-0.000043
C27	C	0.893680	-0.409645	-0.072349
C28	C	0.890453	-0.611315	-0.072363
O29	O	0.890010	-0.637385	-0.133824
N30	N	0.890044	-0.636536	-0.000096
C31	C	0.890436	-0.611336	0.072179
O32	O	0.890006	-0.637415	0.133646
C33	C	0.893658	-0.409666	0.072192
C34	C	0.894075	-0.384449	-0.000079
C35	C	0.894096	-0.384427	-0.144615
C36	C	0.894907	-0.334013	-0.144611
C37	C	0.895301	-0.308817	-0.072341
C38	C	0.894885	-0.334035	-0.000075
C39	C	0.894045	-0.384467	0.144467
C40	C	0.894848	-0.334046	0.144464
C41	C	0.895265	-0.308828	0.072192
C42	C	0.896091	-0.258424	0.072199
N43	N	0.896500	-0.233203	-0.000068
C44	C	0.896105	-0.258399	-0.072338
C45	C	0.888746	-0.717215	0.072167
C46	C	0.887942	-0.767633	0.072164
C47	C	0.887957	-0.767608	-0.072378
C48	C	0.888767	-0.717190	-0.072374
C49	C	0.889155	-0.691994	-0.000100
C50	C	0.897809	-0.152526	-0.072323
C51	C	0.898623	-0.102108	-0.072313
C52	C	0.898604	-0.102137	0.072229
C53	C	0.897794	-0.152551	0.072219
C54	C	0.897394	-0.177744	-0.000064
O55	O	0.896526	-0.232322	0.133628
O56	O	0.896519	-0.232310	-0.133796
C57	C	0.892869	-0.460059	-0.072353
C58	C	0.892453	-0.485277	-0.000088
C59	C	0.892848	-0.460081	0.072182
C60	C	0.891649	-0.535694	-0.000091
C61	C	0.891254	-0.560890	-0.072361
C62	C	0.891663	-0.535669	-0.144627
C63	C	0.892474	-0.485255	-0.144623
C64	C	0.892439	-0.485302	0.144449
C65	C	0.891629	-0.535716	0.144439
C66	C	0.891234	-0.560912	0.072169
C67	C	1.031702	0.061442	-0.000080
C68	C	1.115711	0.062300	-0.000091
C69	C	0.886698	0.153512	-0.000092
C70	C	0.887547	0.207171	-0.000106
N71	N	0.893264	0.065122	0.206478
N72	N	0.893307	0.065133	-0.206620
C73	C	0.945128	0.032215	0.248200
C74	C	0.945132	0.032215	0.331652
C75	C	0.893276	0.065124	0.373381
C76	C	0.841406	0.098033	0.331653
C77	C	0.841399	0.098031	0.248202
C78	C	0.841434	0.098043	0.668200
C79	C	0.841446	0.098043	0.751657
C80	C	0.945167	0.032226	0.751650
C81	C	0.945160	0.032224	0.668199
C82	C	0.893288	0.065131	0.626479
C83	C	0.893283	0.065131	0.535991
C84	C	0.893284	0.065127	0.463868
H85	H	0.123017	0.062369	0.131031
N86	N	0.788435	0.131643	0.374287
N87	N	0.788448	0.131641	0.448796
H88	H	0.751036	0.155379	0.478907
H89	H	0.897461	-0.173085	0.131068
H90	H	0.897480	-0.173032	-0.131183
H91	H	0.663492	0.067882	0.131064
N92	N	0.998102	-0.001416	0.374249
N93	N	0.997589	-0.046092	0.364918
H94	H	1.034999	-0.069850	0.394994
N95	N	0.998099	-0.001410	0.205593
N96	N	1.044910	0.013866	0.159006
H97	H	1.082321	-0.009889	0.128925
N98	N	0.671737	0.067981	-0.146147
N99	N	0.742214	0.068699	-0.146138
H100	H	0.770704	0.068996	-0.198271
H101	H	0.799165	0.124827	0.214233
H102	H	0.799199	0.124837	0.634238
N103	N	0.512124	0.066329	0.146037
N104	N	0.547362	0.066687	0.210556
H105	H	0.518893	0.066390	0.262701
H106	H	0.987388	0.005428	0.634227
N107	N	0.887508	-0.793388	0.145988
N108	N	0.833682	-0.817000	0.162117
H109	H	0.833370	-0.835188	0.214258
H110	H	0.123074	0.062384	-0.131208
H111	H	0.266271	0.063837	-0.131199
H112	H	0.892813	-0.464727	-0.203474
H113	H	0.266227	0.063822	0.131033
H114	H	0.520343	0.066435	-0.131183
N115	N	0.788458	0.131652	0.794283
N116	N	0.741676	0.116345	0.840871
H117	H	0.704254	0.140079	0.870977
H118	H	0.898964	-0.081578	-0.131168
N119	N	0.895329	-0.308265	-0.218442
N120	N	0.894974	-0.330775	-0.282957
H121	H	0.895270	-0.312594	-0.335106
H122	H	0.987401	0.005430	0.785628
N123	N	0.893688	-0.410151	-0.218450
N124	N	0.894057	-0.387619	-0.282961
H125	H	0.893773	-0.405784	-0.335113
N126	N	0.889196	-0.691441	-0.146204
N127	N	0.888849	-0.713950	-0.210722
H128	H	0.889152	-0.695767	-0.262868
H129	H	0.887637	-0.788131	-0.131223
H130	H	0.889066	-0.696706	0.131026
H131	H	0.893707	-0.404991	0.203318
N132	N	0.895237	-0.308317	0.218300
N133	N	0.894862	-0.330843	0.282816
H134	H	0.895137	-0.312673	0.334964
H135	H	0.898929	-0.081613	0.131069
N136	N	0.891270	-0.561420	-0.218443
N137	N	0.890550	-0.606435	-0.218425
H138	H	0.890271	-0.624624	-0.270554
H139	H	0.891295	-0.556244	0.203295
N140	N	0.892839	-0.459576	0.218282
N141	N	0.892471	-0.482106	0.282795
H142	H	0.892757	-0.463940	0.334945
