data_functionalizedCrystal
_audit_creation_method	'MofGen! by Chris Wilmer'
_symmetry_space_group_name_H-M	'P1'
_symmetry_Int_Tables_number	1
_symmetry_cell_setting	triclinic
loop_
_symmetry_equiv_pos_as_xyz
  x,y,z
_cell_length_a	10.685314
_cell_length_b	19.805407
_cell_length_c	19.805405
_cell_angle_alpha	89.973590
_cell_angle_beta	94.329394
_cell_angle_gamma	85.651913
loop_
_atom_site_label
_atom_site_type_symbol
_atom_site_fract_x
_atom_site_fract_y
_atom_site_fract_z
Zn1	Zn	-0.713459	-1.005408	-0.298746
Zn2	Zn	-0.502445	-1.013997	-0.403278
Zn3	Zn	-0.502475	-0.900896	-0.290110
Zn4	Zn	-0.713375	-0.892190	-0.411895
O5	O	-0.607938	-0.953123	-0.351007
O6	O	-0.685490	-1.101263	-0.312621
O7	O	-0.325876	-1.006232	-0.381046
O8	O	-0.530510	-0.914808	-0.196541
O9	O	-0.530458	-1.107573	-0.389420
O10	O	-0.685519	-0.991593	-0.202886
O11	O	-0.325898	-0.923137	-0.297901
O12	O	-0.530429	-0.805025	-0.306257
O13	O	-0.889959	-0.899971	-0.404106
O14	O	-0.685376	-0.798629	-0.395732
O15	O	-0.890020	-0.983152	-0.320976
O16	O	-0.530377	-0.997790	-0.499136
O17	O	-0.685347	-0.908299	-0.505467
C18	C	-0.607898	-0.777268	-0.350993
C19	C	-0.607910	-0.702036	-0.351004
C20	C	-0.607877	-0.953049	-0.526861
C21	C	-0.607893	-0.953078	-0.602093
C22	C	-0.937053	-0.939632	-0.364465
C23	C	-1.077302	-0.933883	-0.370200
C24	C	-0.280104	-0.966600	-0.337553
C25	C	-0.139856	-0.972480	-0.331627
C26	C	-0.607980	-1.129664	-0.351022
C27	C	-0.607998	-1.204895	-0.351029
C28	C	-0.688461	-0.663384	-0.397653
C29	C	-0.688478	-0.592695	-0.397655
C30	C	-0.607938	-0.560659	-0.351010
C31	C	-0.527384	-0.599316	-0.304356
C32	C	-0.527374	-0.670003	-0.304351
C33	C	-0.527426	-0.314241	-0.304373
C34	C	-0.527440	-0.243548	-0.304382
C35	C	-0.688531	-0.236933	-0.397676
C36	C	-0.688520	-0.307620	-0.397672
C37	C	-0.607971	-0.346270	-0.351016
C38	C	-0.607955	-0.422920	-0.351013
C39	C	-0.607948	-0.484012	-0.351015
C40	C	-0.527285	-0.999714	-0.634122
C41	C	-0.527313	-0.999742	-0.704812
C42	C	-0.607944	-0.953129	-0.743471
C43	C	-0.688561	-0.906490	-0.711438
C44	C	-0.688538	-0.906467	-0.640750
C45	C	-0.688654	-0.906586	-0.996515
C46	C	-0.688668	-0.906613	-1.067207
C47	C	-0.527429	-0.999862	-1.060577
C48	C	-0.527407	-0.999838	-0.989889
C49	C	-0.608028	-0.953202	-0.957862
C50	C	-0.607998	-0.953173	-0.881212
C51	C	-0.607968	-0.953154	-0.820119
C52	C	-0.608027	-0.953214	-0.174468
C53	C	-0.608065	-0.953253	-0.099238
H54	H	-1.086116	-1.009916	-0.294209
O55	O	-0.775350	-0.697927	-0.447961
H56	H	-0.839636	-0.727514	-0.420339
O57	O	-0.775421	-0.195271	-0.448019
H58	H	-0.839772	-0.160449	-0.420438
O59	O	-1.148484	-0.884281	-0.419761
H60	H	-1.123226	-0.896878	-0.471863
O61	O	-0.440324	-1.049999	-0.592434
H62	H	-0.496862	-1.082077	-0.562501
H63	H	-0.754070	-0.561228	-0.435642
O64	O	-0.440580	-0.208990	-0.254065
H65	H	-0.384577	-0.247741	-0.221615
O66	O	-0.440525	-0.355911	-0.254056
H67	H	-0.497093	-0.385813	-0.221964
O68	O	-0.775394	-0.342175	-0.447977
H69	H	-0.831422	-0.303421	-0.480412
H70	H	-0.461813	-0.573226	-0.266374
H71	H	-0.461788	-0.701473	-0.266361
O72	O	-0.440365	-1.050039	-0.739360
H73	H	-0.384280	-1.082440	-0.700601
O74	O	-0.440449	-1.050116	-0.948190
H75	H	-0.384411	-1.082556	-0.982339
O76	O	-0.440503	-1.050183	-1.095120
H77	H	-0.454078	-1.042382	-1.150769
H78	H	-0.754337	-0.868655	-1.098683
O79	O	-0.775566	-0.856269	-0.961973
H80	H	-0.831613	-0.823852	-1.000732
O81	O	-0.775517	-0.856206	-0.753129
H82	H	-0.761977	-0.864049	-0.807664
H83	H	-0.754179	-0.868491	-0.614673
