data_functionalizedCrystal
_audit_creation_method	'MofGen! by Chris Wilmer'
_symmetry_space_group_name_H-M	'P1'
_symmetry_Int_Tables_number	1
_symmetry_cell_setting	triclinic
loop_
_symmetry_equiv_pos_as_xyz
  x,y,z
_cell_length_a	9.065215
_cell_length_b	10.723024
_cell_length_c	8.140239
_cell_angle_alpha	89.997644
_cell_angle_beta	89.997810
_cell_angle_gamma	84.741283
loop_
_atom_site_label
_atom_site_type_symbol
_atom_site_fract_x
_atom_site_fract_y
_atom_site_fract_z
O1	O	1.959361	0.182967	-0.136590
O2	O	1.529991	0.197980	-0.136597
O3	O	1.754580	0.008937	-0.136587
O4	O	1.734772	0.372009	-0.136600
O5	O	1.754568	0.008935	0.136640
O6	O	1.529978	0.197978	0.136630
O7	O	1.959349	0.182964	0.136637
Zn8	Zn	1.744662	0.190471	0.180014
Zn9	Zn	1.744678	0.190474	-0.179974
O10	O	1.734760	0.372007	0.136628
C11	C	1.475006	0.196537	0.000016
C12	C	1.311187	0.192225	0.000013
C13	C	1.753132	-0.037569	0.000024
C14	C	1.748820	-0.176141	0.000019
C15	C	1.874488	-0.250614	0.000018
C16	C	1.870033	-0.393836	0.000012
C17	C	2.014334	0.184408	0.000021
C18	C	2.178152	0.188719	0.000013
C19	C	1.736207	0.418514	0.000012
C20	C	1.740520	0.557085	0.000007
N21	N	1.744661	0.190468	0.425697
N22	N	1.744690	0.190467	-0.425657
H23	H	1.985375	-0.208343	0.000030
O24	O	1.998247	-0.470352	-0.000063
C25	C	1.965257	-0.596316	-0.000025
H26	H	1.849293	-0.602492	-0.051751
H27	H	2.049388	-0.654410	-0.079353
H28	H	1.970412	-0.633905	0.131055
H29	H	1.632932	-0.378926	0.000019
H30	H	1.637933	-0.218413	0.000006
