data_functionalizedCrystal
_audit_creation_method	'MofGen! by Chris Wilmer'
_symmetry_space_group_name_H-M	'P1'
_symmetry_Int_Tables_number	1
_symmetry_cell_setting	triclinic
loop_
_symmetry_equiv_pos_as_xyz
  x,y,z
_cell_length_a	11.792241
_cell_length_b	8.965430
_cell_length_c	11.792254
_cell_angle_alpha	89.999752
_cell_angle_beta	84.196007
_cell_angle_gamma	89.999632
loop_
_atom_site_label
_atom_site_type_symbol
_atom_site_fract_x
_atom_site_fract_y
_atom_site_fract_z
O1	O	1.506916	0.123895	0.155558
O2	O	1.176575	0.123930	0.171591
O3	O	1.349754	0.123901	-0.001595
O4	O	1.333736	0.123924	0.328744
O5	O	1.349740	-0.124178	-0.001583
O6	O	1.176561	-0.124149	0.171603
O7	O	1.506901	-0.124184	0.155570
Cu8	Cu	1.341729	-0.146818	0.163587
Cu9	Cu	1.341747	0.146564	0.163574
O10	O	1.333722	-0.124155	0.328756
C11	C	1.134277	-0.000105	0.170590
C12	C	1.008263	-0.000092	0.167576
N13	N	1.341726	-0.353167	0.163596
C14	C	0.777551	-0.000135	0.162033
C15	C	0.905936	-0.000111	0.165112
C16	C	1.261611	-0.450459	0.243663
C17	C	1.364313	-0.549882	0.266318
C18	C	1.239067	-0.549871	0.140951
C19	C	1.444479	-0.450401	0.186303
C20	C	1.319166	-0.450381	0.060891
C21	C	1.421941	-0.549759	0.083503
C22	C	1.549199	-0.000145	0.156571
C23	C	1.675213	-0.000149	0.159586
C24	C	1.348738	-0.000138	-0.043880
C25	C	1.345718	-0.000136	-0.169893
N26	N	1.341760	0.352913	0.163556
C27	C	1.343264	-0.000130	-0.272229
C28	C	1.340196	-0.000116	-0.400616
C29	C	1.334738	-0.000113	0.371041
C30	C	1.337758	-0.000105	0.497054
H31	H	1.193924	-0.406860	0.311434
H32	H	1.489781	-0.593086	0.015773
H33	H	1.383418	-0.593587	0.353155
C34	C	1.548842	-0.304867	0.311504
C35	C	1.561718	-0.391731	0.212355
H36	H	1.621217	-0.268669	0.327612
H37	H	1.499899	-0.223066	0.300676
H38	H	1.516695	-0.363968	0.373470
H39	H	1.593858	-0.332627	0.150386
H40	H	1.610679	-0.473545	0.223176
H41	H	1.300029	-0.406642	-0.025919
H42	H	1.152236	-0.593569	0.121816
