data_functionalizedCrystal
_audit_creation_method	'MofGen! by Chris Wilmer'
_symmetry_space_group_name_H-M	'P1'
_symmetry_Int_Tables_number	1
_symmetry_cell_setting	triclinic
loop_
_symmetry_equiv_pos_as_xyz
  x,y,z
_cell_length_a	14.853566
_cell_length_b	13.330367
_cell_length_c	12.837942
_cell_angle_alpha	90.001444
_cell_angle_beta	89.231677
_cell_angle_gamma	90.004843
loop_
_atom_site_label
_atom_site_type_symbol
_atom_site_fract_x
_atom_site_fract_y
_atom_site_fract_z
O1	O	1.207850	0.083356	0.135347
O2	O	0.946758	0.083373	0.151472
O3	O	1.071515	0.083359	-0.007502
O4	O	1.083093	0.083370	0.294321
O5	O	1.071494	-0.083489	-0.007498
O6	O	0.946737	-0.083475	0.151476
O7	O	1.207829	-0.083491	0.135350
Cu8	Cu	1.077281	-0.098717	0.143413
Cu9	Cu	1.077306	0.098599	0.143409
O10	O	1.083073	-0.083477	0.294324
C11	C	0.913097	-0.000049	0.150743
C12	C	0.812828	-0.000043	0.148555
N13	N	1.077271	-0.237499	0.143415
C14	C	0.388869	0.090888	0.139295
C15	C	0.388868	-0.091016	0.139299
C16	C	0.483076	-0.091012	0.141354
C17	C	0.530185	-0.000058	0.142382
C18	C	0.483086	0.090894	0.141354
C19	C	0.530182	-0.181962	0.142393
C20	C	0.624396	-0.181963	0.144450
C21	C	0.671507	-0.091007	0.145470
C22	C	0.624402	-0.000052	0.144440
C23	C	0.671511	0.090903	0.145468
C24	C	0.624408	0.181859	0.144431
C25	C	0.530197	0.181849	0.142373
C26	C	0.765718	-0.090997	0.147527
C27	C	0.765728	0.090909	0.147526
C28	C	1.017187	-0.290023	0.080420
C29	C	1.137365	-0.290003	0.206405
C30	C	1.137375	-0.395021	0.206404
C31	C	1.077292	-0.447545	0.143409
C32	C	1.017197	-0.395051	0.080415
C33	C	1.197474	-0.447523	0.269389
C34	C	1.197488	-0.552548	0.269390
C35	C	1.137399	-0.605074	0.206400
C36	C	1.077302	-0.552573	0.143404
C37	C	1.017218	-0.605097	0.080410
C38	C	0.957116	-0.552598	0.017419
C39	C	0.957109	-0.447577	0.017425
C40	C	1.137407	-0.710096	0.206394
C41	C	1.017229	-0.710125	0.080405
C42	C	1.241490	-0.000067	0.136079
C43	C	1.341760	-0.000067	0.138268
C44	C	1.067593	-0.000064	-0.046126
C45	C	1.055927	-0.000062	-0.161220
N46	N	1.077323	0.237380	0.143399
C47	C	1.196173	-0.000050	-0.401977
C48	C	1.185216	-0.000047	-0.510119
C49	C	1.023056	-0.000048	-0.485647
C50	C	1.034013	-0.000050	-0.377505
C51	C	1.120575	-0.000053	-0.335675
C52	C	1.131531	-0.000062	-0.227531
C53	C	0.969372	-0.000055	-0.203061
C54	C	0.958415	-0.000053	-0.311203
C55	C	1.086995	-0.000052	0.332948
C56	C	1.098661	-0.000048	0.448042
H57	H	0.804078	0.164976	0.148360
Cl58	Cl	1.240349	-0.000072	-0.174945
Cl59	Cl	0.881562	-0.381573	-0.061759
H60	H	0.887939	-0.000047	-0.345276
Cl61	Cl	0.881590	-0.618641	-0.061777
H62	H	0.662777	0.255914	0.145274
Cl63	Cl	1.304989	-0.000078	-0.349386
Cl64	Cl	0.941686	-0.776147	0.001212
Cl65	Cl	0.329658	0.205227	0.137961
Cl66	Cl	1.212899	-0.223972	0.285587
H67	H	0.907814	-0.000065	-0.149065
Cl68	Cl	1.280259	-0.000041	-0.593468
Cl69	Cl	1.273008	-0.381489	0.348571
Cl70	Cl	0.470978	0.296183	0.141030
Cl71	Cl	0.914246	-0.000015	-0.538253
Cl72	Cl	0.941630	-0.224028	0.001240
H73	H	1.186344	-0.752836	0.257676
Cl74	Cl	0.329643	-0.205352	0.138019
Cl75	Cl	1.273039	-0.618537	0.348583
H76	H	0.662740	-0.256025	0.145292
H77	H	0.804065	-0.165052	0.148382
Cl78	Cl	0.470955	-0.296297	0.141115
