data_functionalizedCrystal
_audit_creation_method	'MofGen! by Chris Wilmer'
_symmetry_space_group_name_H-M	'P1'
_symmetry_Int_Tables_number	1
_symmetry_cell_setting	triclinic
loop_
_symmetry_equiv_pos_as_xyz
  x,y,z
_cell_length_a	17.019372
_cell_length_b	17.038272
_cell_length_c	10.868271
_cell_angle_alpha	89.994627
_cell_angle_beta	93.872102
_cell_angle_gamma	87.242864
loop_
_atom_site_label
_atom_site_type_symbol
_atom_site_fract_x
_atom_site_fract_y
_atom_site_fract_z
O1	O	1.053348	0.099573	0.009191
O2	O	0.824539	0.112280	-0.015035
O3	O	0.937584	-0.007888	-0.003056
O4	O	0.940304	0.219741	-0.002787
O5	O	0.937574	-0.007892	0.201588
O6	O	0.824529	0.112276	0.189609
O7	O	1.053338	0.099569	0.213835
Zn8	Zn	0.938932	0.105921	0.234213
Zn9	Zn	0.938945	0.105927	-0.035413
O10	O	0.940293	0.219736	0.201856
C11	C	0.795113	0.111797	0.084172
C12	C	0.707447	0.110355	0.074890
C13	C	0.211628	0.102173	0.016717
C14	C	0.293999	0.103528	0.025454
C15	C	0.335171	0.104209	0.141376
C16	C	0.293968	0.103527	0.248566
C17	C	0.211598	0.102166	0.239827
C18	C	0.583874	0.108312	0.173342
C19	C	0.666249	0.109675	0.182073
C20	C	0.666275	0.109675	-0.041040
C21	C	0.583904	0.108319	-0.049768
C22	C	0.542708	0.107633	0.057422
C23	C	0.419368	0.105597	0.150310
C24	C	0.458513	0.106240	0.048487
C25	C	0.935105	-0.037016	0.099004
C26	C	0.927725	-0.123802	0.098222
C27	C	0.995484	-0.173976	0.105398
C28	C	0.988545	-0.255521	0.104651
C29	C	0.913846	-0.286889	0.096738
C30	C	0.846081	-0.236709	0.089558
C31	C	0.853021	-0.155166	0.090296
C32	C	0.889328	-0.532626	0.094125
C33	C	0.882393	-0.614175	0.093392
C34	C	1.024857	-0.632981	0.108483
C35	C	1.031791	-0.551436	0.109227
C36	C	0.964026	-0.501263	0.102041
C37	C	0.906751	-0.370241	0.095979
C38	C	0.971122	-0.417913	0.102791
C39	C	1.082764	0.100052	0.114625
C40	C	1.170430	0.101494	0.123899
C41	C	0.942772	0.248865	0.099794
C42	C	0.950152	0.335651	0.100567
N43	N	0.938928	0.105917	0.418227
N44	N	0.938955	0.105926	-0.219426
C45	C	0.938941	0.105926	0.669235
C46	C	0.938932	0.105923	0.529556
H47	H	0.327539	0.104077	-0.061825
H48	H	0.785260	-0.262256	0.083107
H49	H	0.550387	0.107764	-0.144164
C50	C	0.814792	-0.477438	0.086235
C51	C	0.799969	-0.418798	0.190931
C52	C	0.725430	-0.363604	0.183042
C53	C	0.665714	-0.367051	0.070457
C54	C	0.680535	-0.425694	-0.034247
C55	C	0.755074	-0.480887	-0.026359
H56	H	0.844176	-0.416244	0.274280
H57	H	0.714459	-0.320193	0.260552
H58	H	0.610535	-0.326193	0.064618
H59	H	0.636328	-0.428247	-0.117597
H60	H	0.766045	-0.524299	-0.103868
C61	C	0.778486	-0.099970	0.082405
C62	C	0.718774	-0.103417	-0.030187
C63	C	0.644237	-0.048222	-0.038085
C64	C	0.629410	0.010421	0.066607
C65	C	0.689123	0.013870	0.179207
C66	C	0.763661	-0.041326	0.187105
H67	H	0.729748	-0.146830	-0.107693
H68	H	0.600033	-0.050776	-0.121440
H69	H	0.574233	0.051279	0.060760
H70	H	0.678149	0.057283	0.256713
H71	H	0.807864	-0.038772	0.270460
C72	C	1.099394	-0.688173	0.116372
C73	C	1.114212	-0.746829	0.224201
C74	C	1.188752	-0.802021	0.232086
C75	C	1.248474	-0.798557	0.132141
C76	C	1.233658	-0.739899	0.024304
C77	C	1.159118	-0.684707	0.016420
H78	H	1.070000	-0.749395	0.298193
H79	H	1.199719	-0.845444	0.311914
H80	H	1.303653	-0.839414	0.137977
H81	H	1.277869	-0.737333	-0.049688
H82	H	1.148150	-0.641284	-0.063409
C83	C	0.800222	-0.648689	0.084676
C84	C	0.742394	-0.629733	0.184806
C85	C	0.660229	-0.664251	0.176092
C86	C	0.635893	-0.717725	0.067247
C87	C	0.693723	-0.736685	-0.032891
C88	C	0.775887	-0.702166	-0.024177
H89	H	0.760408	-0.590145	0.265386
H90	H	0.617420	-0.650216	0.250221
H91	H	0.575070	-0.743278	0.060797
H92	H	0.675709	-0.776272	-0.113471
H93	H	0.818697	-0.716201	-0.098306
H94	H	0.699826	0.110233	-0.128308
C95	C	0.711556	0.110431	0.309581
C96	C	0.763767	0.179231	0.345749
C97	C	0.809082	0.179995	0.473243
C98	C	0.802186	0.111957	0.564569
C99	C	0.749973	0.043151	0.528403
C100	C	0.704658	0.042388	0.400909
H101	H	0.768874	0.229601	0.278142
H102	H	0.847734	0.230929	0.500014
H103	H	0.835731	0.112522	0.658947
H104	H	0.744866	-0.007218	0.596010
H105	H	0.666007	-0.008547	0.374138
C106	C	1.053289	-0.383410	0.111498
C107	C	1.077632	-0.329942	0.220347
C108	C	1.159800	-0.295430	0.229060
C109	C	1.217624	-0.314386	0.128924
C110	C	1.193282	-0.367857	0.020066
C111	C	1.111114	-0.402368	0.011353
H112	H	1.034826	-0.315907	0.294481
H113	H	1.177819	-0.255847	0.309644
H114	H	1.278449	-0.288838	0.135373
H115	H	1.236088	-0.381891	-0.054068
H116	H	1.093095	-0.441951	-0.069231
C117	C	0.339246	0.104290	0.376088
C118	C	0.332318	0.036260	0.467415
C119	C	0.377590	0.037033	0.594943
C120	C	0.429790	0.105836	0.631143
C121	C	0.436719	0.173872	0.539814
C122	C	0.391448	0.173099	0.412286
H123	H	0.293675	-0.014677	0.440619
H124	H	0.372460	-0.013332	0.662550
H125	H	0.463303	0.106408	0.725547
H126	H	0.475362	0.224809	0.566610
H127	H	0.396578	0.223463	0.344679
H128	H	0.178111	0.101625	-0.077679
H129	H	0.845930	-0.395790	0.089538
C130	C	1.113964	-0.516939	0.117924
C131	C	1.138325	-0.463478	0.226774
C132	C	1.220500	-0.428983	0.235476
C133	C	1.278314	-0.447949	0.135329
C134	C	1.253955	-0.501412	0.026472
C135	C	1.171779	-0.535907	0.017770
H136	H	1.095526	-0.449436	0.300915
H137	H	1.238532	-0.389405	0.316060
H138	H	1.339145	-0.422413	0.141771
H139	H	1.296753	-0.515454	-0.047669
H140	H	1.153747	-0.575485	-0.062814
H141	H	0.424987	0.105683	-0.045896
H142	H	0.550343	0.107742	0.260624
C143	C	0.166276	0.101422	0.357728
C144	C	0.173176	0.169465	0.450482
C145	C	0.127855	0.168717	0.568387
C146	C	0.075634	0.099926	0.593538
C147	C	0.068731	0.031878	0.500782
C148	C	0.114053	0.032626	0.382877
H149	H	0.211836	0.220393	0.431866
H150	H	0.132965	0.219091	0.637051
H151	H	0.042084	0.099373	0.680818
H152	H	0.030072	-0.019050	0.519398
H153	H	0.108943	-0.017748	0.314213
H154	H	0.452899	0.106152	0.244693
C155	C	1.077656	-0.139476	0.114102
C156	C	1.102023	-0.085995	0.010419
C157	C	1.184197	-0.051498	0.019119
C158	C	1.242003	-0.070480	0.131503
C159	C	1.217637	-0.123963	0.235194
C160	C	1.135463	-0.158461	0.226494
H161	H	1.059231	-0.071941	-0.072781
H162	H	1.202235	-0.011906	-0.057641
H163	H	1.302833	-0.044943	0.137943
H164	H	1.260430	-0.138018	0.318394
H165	H	1.117426	-0.198053	0.303253
H166	H	1.043722	-0.296370	0.110497
