data_functionalizedCrystal
_audit_creation_method	'MofGen! by Chris Wilmer'
_symmetry_space_group_name_H-M	'P1'
_symmetry_Int_Tables_number	1
_symmetry_cell_setting	triclinic
loop_
_symmetry_equiv_pos_as_xyz
  x,y,z
_cell_length_a	19.288864
_cell_length_b	19.188930
_cell_length_c	18.366186
_cell_angle_alpha	89.988632
_cell_angle_beta	89.977106
_cell_angle_gamma	83.140512
loop_
_atom_site_label
_atom_site_type_symbol
_atom_site_fract_x
_atom_site_fract_y
_atom_site_fract_z
O1	O	0.921359	0.087099	-0.060791
O2	O	1.421359	0.587099	0.439209
O3	O	0.719099	0.098849	-0.060743
O4	O	1.219099	0.598849	0.439257
O5	O	0.826066	-0.008682	-0.060754
O6	O	1.326066	0.491318	0.439246
O7	O	0.814393	0.194630	-0.060780
O8	O	1.314393	0.694630	0.439220
O9	O	0.826048	-0.008687	0.060345
O10	O	1.326048	0.491313	0.560345
O11	O	0.719081	0.098843	0.060357
O12	O	1.219081	0.598843	0.560357
O13	O	0.921341	0.087094	0.060308
O14	O	1.421341	0.587094	0.560308
Zn15	Zn	0.820208	0.092968	0.079560
Zn16	Zn	1.320208	0.592968	0.579560
Zn17	Zn	0.820232	0.092975	-0.079994
Zn18	Zn	1.320232	0.592975	0.420006
O19	O	0.814374	0.194625	0.060320
O20	O	1.314374	0.694625	0.560320
C21	C	0.693214	0.098468	-0.000186
C22	C	1.193214	0.598468	0.499814
C23	C	0.616110	0.097333	-0.000167
C24	C	1.116110	0.597333	0.499833
C25	C	0.571419	0.160427	-0.000187
C26	C	1.071419	0.660427	0.499813
C27	C	0.498972	0.159361	-0.000195
C28	C	0.998972	0.659361	0.499805
C29	C	0.471219	0.095197	-0.000198
C30	C	0.971219	0.595197	0.499802
C31	C	0.515921	0.032095	-0.000174
C32	C	1.015921	0.532095	0.499826
C33	C	0.588366	0.033163	-0.000159
C34	C	1.088366	0.533163	0.499841
C35	C	0.362960	0.044759	-0.042642
C36	C	0.862960	0.544759	0.457358
C37	C	0.290515	0.043694	-0.042662
C38	C	0.790515	0.543694	0.457338
C39	C	0.247773	0.091900	-0.000241
C40	C	0.747773	0.591900	0.499759
C41	C	0.277483	0.141184	0.042190
C42	C	0.777483	0.641184	0.542190
C43	C	0.349929	0.142253	0.042205
C44	C	0.849929	0.642253	0.542205
C45	C	0.392665	0.094032	-0.000214
C46	C	0.892665	0.594032	0.499786
C47	C	0.124526	0.153843	-0.000268
C48	C	0.624526	0.653843	0.499732
C49	C	0.052078	0.152774	-0.000272
C50	C	0.552078	0.652774	0.499728
C51	C	0.069028	0.025506	-0.000259
C52	C	0.569028	0.525506	0.499741
C53	C	0.141475	0.026576	-0.000248
C54	C	0.641475	0.526576	0.499752
C55	C	0.169219	0.090747	-0.000256
C56	C	0.669219	0.590747	0.499744
C57	C	0.825679	-0.034696	-0.000202
C58	C	1.325679	0.465304	0.499798
C59	C	0.824544	-0.112200	-0.000196
C60	C	1.324544	0.387800	0.499804
C61	C	0.887309	-0.157129	-0.000207
C62	C	1.387309	0.342871	0.499793
C63	C	0.886243	-0.229953	-0.000219
C64	C	1.386243	0.270047	0.499781
C65	C	0.822408	-0.257844	-0.000204
C66	C	1.322408	0.242156	0.499796
C67	C	0.759636	-0.212906	-0.000196
C68	C	1.259636	0.287094	0.499804
C69	C	0.760704	-0.140084	-0.000192
C70	C	1.260704	0.359916	0.499808
N71	N	0.773609	-0.365847	0.041020
N72	N	1.273609	0.134153	0.541020
N73	N	0.772598	-0.435026	0.041018
N74	N	1.272598	0.064974	0.541018
C75	C	0.819187	-0.477253	-0.000218
C76	C	1.319187	0.022747	0.499782
N77	N	0.866835	-0.447689	-0.041442
N78	N	1.366835	0.052311	0.458558
N79	N	0.867847	-0.378504	-0.041436
N80	N	1.367847	0.121496	0.458564
C81	C	0.821243	-0.336807	-0.000209
C82	C	1.321243	0.163193	0.499791
C83	C	0.880800	-0.601146	-0.000243
C84	C	1.380800	-0.101146	0.499757
C85	C	0.879731	-0.673971	-0.000259
C86	C	1.379731	-0.173971	0.499741
C87	C	0.753122	-0.656922	-0.000229
C88	C	1.253122	-0.156922	0.499771
C89	C	0.754193	-0.584099	-0.000220
C90	C	1.254193	-0.084099	0.499780
C91	C	0.818034	-0.556216	-0.000224
C92	C	1.318034	-0.056216	0.499776
C93	C	0.947227	0.087475	-0.000250
C94	C	1.447227	0.587475	0.499750
C95	C	1.024330	0.088609	-0.000274
C96	C	1.524330	0.588609	0.499726
C97	C	0.814762	0.220638	-0.000234
C98	C	1.314762	0.720638	0.499766
C99	C	0.815896	0.298143	-0.000245
C100	C	1.315896	0.798143	0.499755
N101	N	0.820197	0.092963	0.188451
N102	N	1.320197	0.592963	0.688451
N103	N	0.820249	0.092974	-0.188885
N104	N	1.320249	0.592974	0.311115
C105	C	0.867577	0.045371	0.226546
C106	C	1.367577	0.545371	0.726546
C107	C	0.867582	0.045368	0.302774
C108	C	1.367582	0.545368	0.802774
C109	C	0.820213	0.092968	0.340903
C110	C	1.320213	0.592968	0.840903
C111	C	0.772823	0.140563	0.302799
C112	C	1.272823	0.640563	0.802799
C113	C	0.772816	0.140560	0.226573
C114	C	1.272816	0.640560	0.726573
C115	C	0.810919	0.156585	0.461657
C116	C	1.310919	0.656585	0.961657
C117	C	0.810932	0.156589	0.537882
C118	C	1.310932	0.656589	1.037882
C119	C	0.820232	0.092977	0.576011
C120	C	1.320232	0.592977	1.076011
C121	C	0.829535	0.029359	0.537906
C122	C	1.329535	0.529359	1.037906
C123	C	0.829527	0.029356	0.461679
C124	C	1.329527	0.529356	0.961679
C125	C	0.820215	0.092977	0.423558
C126	C	1.320215	0.592977	0.923558
C127	C	0.867620	0.045378	0.696761
C128	C	1.367620	0.545378	1.196761
C129	C	0.867620	0.045374	0.772990
C130	C	1.367620	0.545374	1.272990
C131	C	0.772864	0.140576	0.773014
C132	C	1.272864	0.640576	1.273014
C133	C	0.772862	0.140574	0.696786
C134	C	1.272862	0.640574	1.196786
C135	C	0.820243	0.092976	0.658664
C136	C	1.320243	0.592976	1.158664
H137	H	0.177864	-0.024802	-0.000236
H138	H	0.677864	0.475198	0.499764
N139	N	0.918675	-0.005967	0.185428
N140	N	1.418675	0.494033	0.685428
H141	H	0.967945	0.001951	0.198667
H142	H	1.467945	0.501951	0.698667
H143	H	0.910771	-0.055478	0.198729
H144	H	1.410771	0.444522	0.698729
N145	N	0.721708	0.191891	0.185479
N146	N	1.221708	0.691891	0.685479
H147	H	0.691697	0.222044	0.221197
H148	H	1.191697	0.722044	0.721197
H149	H	0.748198	0.222691	0.153830
H150	H	1.248198	0.722691	0.653830
N151	N	0.485985	-0.037107	-0.000180
N152	N	0.985985	0.462893	0.499820
H153	H	0.502324	-0.064741	-0.045064
H154	H	1.002324	0.435259	0.454936
H155	H	0.502276	-0.064686	0.044749
H156	H	1.002276	0.435314	0.544749
H157	H	0.939293	-0.134431	-0.000213
H158	H	1.439293	0.365569	0.499787
H159	H	0.937355	-0.266541	-0.000231
H160	H	1.437355	0.233459	0.499769
N161	N	0.686498	-0.535632	-0.000193
N162	N	1.186498	-0.035632	0.499807
H163	H	0.684125	-0.505027	-0.045082
H164	H	1.184125	-0.005027	0.454918
H165	H	0.645934	-0.564397	-0.000156
H166	H	1.145934	-0.064397	0.499844
N167	N	0.039104	-0.043700	-0.000265
N168	N	0.539104	0.456300	0.499735
H169	H	0.078413	-0.083510	-0.000253
H170	H	0.578413	0.416490	0.499747
H171	H	0.009391	-0.046917	0.044623
H172	H	0.509391	0.453083	0.544623
H173	H	0.932783	-0.578442	-0.000249
H174	H	1.432783	-0.078442	0.499751
H175	H	0.624755	-0.018218	-0.000144
H176	H	1.124755	0.481782	0.499856
H177	H	0.707661	-0.235620	-0.000186
H178	H	1.207661	0.264380	0.499814
N179	N	0.918719	-0.005957	0.655637
N180	N	1.418719	0.494043	1.155637
H181	H	0.948732	-0.036112	0.691341
H182	H	1.448732	0.463888	1.191341
H183	H	0.892222	-0.036756	0.624029
H184	H	1.392222	0.463244	1.124029
H185	H	0.906166	0.006612	0.333797
H186	H	1.406166	0.506612	0.833797
N187	N	0.693005	-0.091619	-0.000180
N188	N	1.193005	0.408381	0.499820
H189	H	0.652402	-0.120336	-0.000175
H190	H	1.152402	0.379664	0.499825
H191	H	0.690683	-0.061046	0.044717
H192	H	1.190683	0.438954	0.544717
H193	H	0.837100	-0.022445	0.430657
H194	H	1.337100	0.477555	0.930657
N195	N	0.409058	-0.007237	-0.088401
N196	N	0.909058	0.492763	0.411599
H197	H	0.443090	-0.036784	-0.055894
H198	H	0.943090	0.463216	0.444106
H199	H	0.379195	-0.038567	-0.115281
H200	H	0.879195	0.461433	0.384719
N201	N	0.154452	0.223053	-0.000272
N202	N	0.654452	0.723053	0.499728
H203	H	0.138118	0.250683	0.044616
H204	H	0.638118	0.750683	0.544616
H205	H	0.207124	0.214099	-0.000293
H206	H	0.707124	0.714099	0.499707
H207	H	0.734293	0.179330	0.804059
H208	H	1.234293	0.679330	1.304059
H209	H	0.930844	-0.710552	-0.000272
H210	H	1.430844	-0.210552	0.499728
N211	N	0.684271	-0.686994	-0.000221
N212	N	1.184271	-0.186994	0.499779
H213	H	0.693117	-0.739945	-0.000228
H214	H	1.193117	-0.239945	0.499772
H215	H	0.656806	-0.670555	0.044678
H216	H	1.156806	-0.170555	0.544678
H217	H	0.837108	-0.022440	0.568948
H218	H	1.337108	0.477560	1.068948
N219	N	0.918737	-0.005947	0.814083
N220	N	1.418737	0.494053	1.314083
H221	H	0.948755	-0.036092	0.778363
H222	H	1.448755	0.463908	1.278363
H223	H	0.949351	0.020726	0.845680
H224	H	1.449351	0.520726	1.345680
N225	N	0.721758	0.191904	0.655692
N226	N	1.221758	0.691904	1.155692
H227	H	0.691748	0.222059	0.691411
H228	H	1.191748	0.722059	1.191411
H229	H	0.748246	0.222704	0.624041
H230	H	1.248246	0.722704	1.124041
N231	N	0.800893	0.225202	0.578978
N232	N	1.300893	0.725202	1.078978
H233	H	0.839403	0.254221	0.565683
H234	H	1.339403	0.754221	1.065683
H235	H	0.754215	0.251745	0.565712
H236	H	1.254215	0.751745	1.065712
H237	H	0.803333	0.208389	0.430619
H238	H	1.303333	0.708389	0.930619
N239	N	0.601340	0.229638	-0.000179
N240	N	1.101340	0.729638	0.499821
H241	H	0.654016	0.220743	-0.000165
H242	H	1.154016	0.720743	0.499835
H243	H	0.585004	0.257242	-0.045077
H244	H	1.085004	0.757242	0.454923
N245	N	0.721730	0.191900	0.343924
N246	N	1.221730	0.691900	0.843924
H247	H	0.748178	0.222750	0.375526
H248	H	1.248178	0.722750	0.875526
H249	H	0.691724	0.222002	0.308176
H250	H	1.191724	0.722002	0.808176
N251	N	0.450756	0.227415	-0.000217
N252	N	0.950756	0.727415	0.499783
H253	H	0.479325	0.268228	-0.000220
H254	H	0.979325	0.768228	0.499780
H255	H	0.420358	0.229737	-0.045119
H256	H	0.920358	0.729737	0.454881
H257	H	0.374116	0.182379	0.076756
H258	H	0.874116	0.682379	0.576756
N259	N	0.003870	0.220829	-0.000235
N260	N	0.503870	0.720829	0.499765
H261	H	0.032442	0.261639	-0.000222
H262	H	0.532442	0.761639	0.499778
H263	H	-0.026559	0.223191	-0.045115
H264	H	0.473441	0.723191	0.454885
H265	H	0.266331	0.003566	-0.077215
H266	H	0.766331	0.503566	0.422785
N267	N	0.231394	0.193188	0.087944
N268	N	0.731394	0.693188	0.587944
H269	H	0.180992	0.185034	0.081500
H270	H	0.680992	0.685034	0.581500
H271	H	0.244900	0.186846	0.140866
H272	H	0.744900	0.686846	0.640866
