data_functionalizedCrystal
_audit_creation_method	'MofGen! by Chris Wilmer'
_symmetry_space_group_name_H-M	'P1'
_symmetry_Int_Tables_number	1
_symmetry_cell_setting	triclinic
loop_
_symmetry_equiv_pos_as_xyz
  x,y,z
_cell_length_a	6.817900
_cell_length_b	10.992421
_cell_length_c	10.943624
_cell_angle_alpha	91.800796
_cell_angle_beta	108.838799
_cell_angle_gamma	108.764763
loop_
_atom_site_label
_atom_site_type_symbol
_atom_site_fract_x
_atom_site_fract_y
_atom_site_fract_z
V1	V	-4.115111	-0.177727	-0.402533
O2	O	-4.073223	0.008575	-0.394889
O3	O	-4.092684	-0.352436	-0.399762
O4	O	-4.093080	-0.174978	-0.578100
O5	O	-4.072824	-0.170111	-0.215317
V6	V	-4.591957	-0.155445	-0.380143
O7	O	-4.391017	-0.226605	-0.451648
O8	O	-4.766248	-0.106567	-0.331028
O9	O	-4.391177	0.019264	-0.382914
O10	O	-4.751242	-0.341747	-0.387787
O11	O	-4.751641	-0.163061	-0.567359
O12	O	-4.390782	-0.158194	-0.204576
C13	C	-3.943150	-0.395027	-0.393408
C14	C	-4.006276	-0.537854	-0.392312
C15	C	-3.873921	-0.733142	-0.383483
C16	C	-3.807840	-0.584497	-0.384111
C17	C	-4.076627	-0.576499	-0.271911
C18	C	-4.140860	-0.725043	-0.270636
C19	C	-4.272894	-0.763604	-0.517452
C20	C	-4.203846	-0.615090	-0.520065
C21	C	-3.943653	-0.168660	-0.620893
C22	C	-4.007095	-0.167568	-0.764420
C23	C	-3.851941	-0.160217	-0.841568
C24	C	-4.041064	-0.269328	-0.947547
C25	C	-3.931042	-0.056525	-0.914182
C26	C	-4.195429	-0.276781	-0.868522
C27	C	-4.085327	-0.063882	-0.835133
C28	C	-4.274586	-0.173023	-0.941083
C29	C	-4.204054	0.061848	-0.389265
C30	C	-4.120168	0.204674	-0.390368
C31	C	-4.203550	-0.164516	-0.161776
C32	C	-4.119345	-0.165601	-0.018248
H33	H	-4.317071	-0.765926	-0.270446
C34	C	-3.717224	-0.760960	-0.259691
N35	N	-3.599207	-0.781927	-0.166456
H36	H	-4.306610	-0.369970	-0.847968
C37	C	-4.016677	-0.386656	-1.013677
N38	N	-3.998292	-0.475021	-1.063484
H39	H	-4.222261	-0.546263	-0.273299
C40	C	-4.406246	-0.574289	-0.538227
N41	N	-4.558698	-0.543558	-0.551898
C42	C	-3.886420	-0.503246	-0.144137
N43	N	-3.743146	-0.448076	-0.047899
H44	H	-4.266751	-0.813113	-0.608557
C45	C	-4.137912	-0.582799	-0.640409
N46	N	-4.088243	-0.558467	-0.731050
C47	C	-3.780874	0.069239	-0.942175
N48	N	-3.667754	0.163960	-0.963253
H49	H	-3.672752	-0.154949	-0.798120
C50	C	-3.838692	-0.796826	-0.498196
N51	N	-3.811953	-0.845156	-0.584315
H52	H	-3.658963	-0.532063	-0.292386
H53	H	-4.452757	-0.804720	-0.523763
H54	H	-4.029854	-0.742565	-0.175040
C55	C	-4.109583	0.053462	-0.768958
N56	N	-4.127827	0.141857	-0.719108
C57	C	-4.516822	-0.180396	-0.999556
N58	N	-4.699280	-0.185965	-1.043619
H59	H	-3.750901	-0.558726	-0.470142
