data_functionalizedCrystal
_audit_creation_method	'MofGen! by Chris Wilmer'
_symmetry_space_group_name_H-M	'P1'
_symmetry_Int_Tables_number	1
_symmetry_cell_setting	triclinic
loop_
_symmetry_equiv_pos_as_xyz
  x,y,z
_cell_length_a	23.532407
_cell_length_b	23.532407
_cell_length_c	15.072220
_cell_angle_alpha	89.994175
_cell_angle_beta	89.992868
_cell_angle_gamma	82.848678
loop_
_atom_site_label
_atom_site_type_symbol
_atom_site_fract_x
_atom_site_fract_y
_atom_site_fract_z
O1	O	0.755267	0.069131	-0.073681
O2	O	1.088600	0.402464	0.259653
O3	O	1.421933	0.735798	0.592986
O4	O	0.589403	0.079134	-0.073708
O5	O	0.922737	0.412468	0.259625
O6	O	1.256070	0.745801	0.592959
O7	O	0.677336	-0.008799	-0.073677
O8	O	1.010670	0.324534	0.259656
O9	O	1.344003	0.657868	0.592989
O10	O	0.667333	0.157064	-0.073711
O11	O	1.000667	0.490398	0.259622
O12	O	1.334000	0.823731	0.592955
O13	O	0.677315	-0.008794	0.073888
O14	O	1.010648	0.324539	0.407221
O15	O	1.343981	0.657873	0.740554
O16	O	0.589382	0.079139	0.073857
O17	O	0.922715	0.412473	0.407190
O18	O	1.256048	0.745806	0.740524
O19	O	0.755245	0.069136	0.073884
O20	O	1.088578	0.402469	0.407218
O21	O	1.421912	0.735803	0.740551
Zn22	Zn	0.672310	0.074138	0.097300
Zn23	Zn	1.005643	0.407472	0.430633
Zn24	Zn	1.338976	0.740805	0.763967
Zn25	Zn	0.672338	0.074132	-0.097123
Zn26	Zn	1.005672	0.407465	0.236210
Zn27	Zn	1.339005	0.740798	0.569543
O28	O	0.667312	0.157069	0.073854
O29	O	1.000645	0.490403	0.407187
O30	O	1.333978	0.823736	0.740520
C31	C	0.568176	0.078882	0.000071
C32	C	0.901510	0.412215	0.333405
C33	C	1.234843	0.745549	0.666738
C34	C	0.504959	0.078116	0.000062
C35	C	0.838293	0.411449	0.333395
C36	C	1.171626	0.744783	0.666728
C37	C	0.105856	0.125350	0.000092
C38	C	0.439190	0.458683	0.333425
C39	C	0.772523	0.792016	0.666759
C40	C	0.046456	0.124638	0.000098
C41	C	0.379789	0.457971	0.333431
C42	C	0.713123	0.791305	0.666764
O43	O	0.009711	0.168424	0.000121
O44	O	0.343045	0.501757	0.333454
O45	O	0.676378	0.835091	0.666787
N46	N	0.023830	0.072362	0.000107
N47	N	0.357163	0.405695	0.333440
N48	N	0.690496	0.739028	0.666774
C49	C	0.060607	0.020794	0.000120
C50	C	0.393941	0.354127	0.333453
C51	C	0.727274	0.687460	0.666786
O52	O	0.035908	-0.023737	0.000129
O53	O	0.369241	0.309596	0.333462
O54	O	0.702574	0.642930	0.666796
C55	C	0.120006	0.021506	0.000120
C56	C	0.453340	0.354839	0.333454
C57	C	0.786673	0.688172	0.666787
C58	C	0.142629	0.073785	0.000102
C59	C	0.475962	0.407119	0.333435
C60	C	0.809296	0.740452	0.666769
C61	C	0.128479	0.177625	0.000075
C62	C	0.461813	0.510958	0.333408
C63	C	0.795146	0.844292	0.666741
C64	C	0.187876	0.178336	0.000067
C65	C	0.521209	0.511670	0.333401
C66	C	0.854542	0.845003	0.666734
C67	C	0.224649	0.126772	0.000078
C68	C	0.557982	0.460105	0.333411
C69	C	0.891315	0.793439	0.666744
C70	C	0.202025	0.074497	0.000095
C71	C	0.535359	0.407830	0.333428
C72	C	0.868692	0.741163	0.666762
C73	C	0.156783	-0.030062	0.000139
C74	C	0.490116	0.303271	0.333473
C75	C	0.823450	0.636605	0.666806
C76	C	0.216185	-0.029345	0.000141
C77	C	0.549519	0.303988	0.333474
C78	C	0.882852	0.637321	0.666808
C79	C	0.238808	0.022934	0.000123
C80	C	0.572141	0.356268	0.333456
C81	C	0.905475	0.689601	0.666789
C82	C	0.298194	0.023643	0.000098
C83	C	0.631528	0.356977	0.333431
C84	C	0.964861	0.690310	0.666764
N85	N	0.320820	0.075920	0.000088
N86	N	0.654154	0.409253	0.333422
N87	N	0.987487	0.742586	0.666755
C88	C	0.284048	0.127484	0.000078
C89	C	0.617381	0.460817	0.333412
C90	C	0.950714	0.794151	0.666745
C91	C	-0.064135	0.019302	0.000120
C92	C	0.269198	0.352635	0.333453
C93	C	0.602532	0.685969	0.666786
C94	C	-0.123533	0.018589	0.000112
C95	C	0.209800	0.351923	0.333446
C96	C	0.543134	0.685256	0.666779
C97	C	-0.137680	0.122434	0.000092
C98	C	0.195653	0.455768	0.333425
C99	C	0.528986	0.789101	0.666759
C100	C	-0.078281	0.123146	0.000093
C101	C	0.255052	0.456480	0.333426
C102	C	0.588385	0.789813	0.666760
C103	C	-0.041509	0.071578	0.000110
C104	C	0.291824	0.404912	0.333444
C105	C	0.625158	0.738245	0.666777
C106	C	0.408784	0.128974	0.000062
C107	C	0.742118	0.462307	0.333396
C108	C	1.075451	0.795640	0.666729
C109	C	0.468186	0.129680	0.000051
C110	C	0.801520	0.463014	0.333385
C111	C	1.134853	0.796347	0.666718
C112	C	0.482329	0.025836	0.000077
C113	C	0.815662	0.359169	0.333410
C114	C	1.148995	0.692503	0.666743
C115	C	0.422932	0.025129	0.000083
C116	C	0.756265	0.358462	0.333416
C117	C	1.089598	0.691796	0.666749
C118	C	0.386160	0.076702	0.000079
C119	C	0.719494	0.410036	0.333412
C120	C	1.052827	0.743369	0.666745
O121	O	0.334974	-0.020119	0.000078
O122	O	0.668307	0.313214	0.333411
O123	O	1.001640	0.646547	0.666745
O124	O	0.308755	0.172007	0.000081
O125	O	0.642089	0.505340	0.333414
O126	O	0.975422	0.838674	0.666747
C127	C	0.677071	-0.030013	0.000108
C128	C	1.010404	0.303321	0.333441
C129	C	1.343738	0.636654	0.666774
C130	C	0.676305	-0.093230	0.000114
C131	C	1.009638	0.240104	0.333448
C132	C	1.342972	0.573437	0.666781
C133	C	0.723539	-0.492333	0.000073
C134	C	1.056872	-0.158999	0.333407
C135	C	1.390205	0.174334	0.666740
C136	C	0.722827	-0.551733	0.000066
C137	C	1.056160	-0.218400	0.333400
C138	C	1.389494	0.114934	0.666733
O139	O	0.766613	-0.588478	0.000041
O140	O	1.099946	-0.255144	0.333374
O141	O	1.433280	0.078189	0.666708
N142	N	0.670551	-0.574359	0.000059
N143	N	1.003884	-0.241026	0.333392
N144	N	1.337217	0.092307	0.666725
C145	C	0.618983	-0.537582	0.000048
C146	C	0.952316	-0.204248	0.333382
C147	C	1.285649	0.129085	0.666715
O148	O	0.574452	-0.562281	0.000040
O149	O	0.907785	-0.228948	0.333373
O150	O	1.241119	0.104385	0.666707
C151	C	0.619695	-0.478182	0.000049
C152	C	0.953028	-0.144849	0.333382
C153	C	1.286361	0.188484	0.666716
C154	C	0.671974	-0.455560	0.000066
C155	C	1.005308	-0.122227	0.333399
C156	C	1.338641	0.211107	0.666733
C157	C	0.775814	-0.469710	0.000089
C158	C	1.109147	-0.136376	0.333423
C159	C	1.442481	0.196957	0.666756
C160	C	0.776525	-0.410313	0.000098
C161	C	1.109859	-0.076980	0.333431
C162	C	1.443192	0.256353	0.666764
C163	C	0.724961	-0.373540	0.000090
C164	C	1.058294	-0.040207	0.333424
C165	C	1.391628	0.293126	0.666757
C166	C	0.672685	-0.396164	0.000074
C167	C	1.006019	-0.062830	0.333408
C168	C	1.339352	0.270503	0.666741
C169	C	0.568127	-0.441406	0.000032
C170	C	0.901460	-0.108073	0.333366
C171	C	1.234794	0.225261	0.666699
C172	C	0.568844	-0.382004	0.000032
C173	C	0.902177	-0.048670	0.333366
C174	C	1.235510	0.284663	0.666699
C175	C	0.621123	-0.359381	0.000049
C176	C	0.954457	-0.026048	0.333383
C177	C	1.287790	0.307286	0.666716
C178	C	0.621832	-0.299995	0.000075
C179	C	0.955166	0.033339	0.333409
C180	C	1.288499	0.366672	0.666742
N181	N	0.674109	-0.277368	0.000083
N182	N	1.007442	0.055965	0.333417
N183	N	1.340775	0.389298	0.666750
C184	C	0.725673	-0.314141	0.000091
C185	C	1.059006	0.019192	0.333424
C186	C	1.392340	0.352525	0.666758
C187	C	0.617491	-0.662324	0.000046
C188	C	0.950824	-0.328991	0.333379
C189	C	1.284158	0.004343	0.666712
C190	C	0.616778	-0.721722	0.000052
C191	C	0.950112	-0.388389	0.333385
C192	C	1.283445	-0.055055	0.666718
C193	C	0.720623	-0.735869	0.000068
C194	C	1.053957	-0.402536	0.333401
C195	C	1.387290	-0.069203	0.666735
C196	C	0.721335	-0.676470	0.000069
C197	C	1.054669	-0.343137	0.333402
C198	C	1.388002	-0.009804	0.666735
C199	C	0.669767	-0.639698	0.000054
C200	C	1.003101	-0.306365	0.333387
C201	C	1.336434	0.026969	0.666720
C202	C	0.727163	-0.189405	0.000109
C203	C	1.060496	0.143929	0.333443
C204	C	1.393829	0.477262	0.666776
C205	C	0.727869	-0.130003	0.000122
C206	C	1.061203	0.203331	0.333455
C207	C	1.394536	0.536664	0.666788
C208	C	0.624025	-0.115860	0.000101
C209	C	0.957358	0.217473	0.333434
C210	C	1.290692	0.550806	0.666767
C211	C	0.623318	-0.175257	0.000093
C212	C	0.956651	0.158076	0.333426
C213	C	1.289985	0.491409	0.666760
C214	C	0.674891	-0.212029	0.000094
C215	C	1.008225	0.121305	0.333428
C216	C	1.341558	0.454638	0.666761
O217	O	0.578070	-0.263215	0.000097
O218	O	0.911403	0.070118	0.333431
O219	O	1.244736	0.403451	0.666764
O220	O	0.770196	-0.289433	0.000087
O221	O	1.103529	0.043900	0.333421
O222	O	1.436863	0.377233	0.666754
C223	C	0.776472	0.069388	0.000103
C224	C	1.109805	0.402722	0.333436
C225	C	1.443138	0.736055	0.666770
C226	C	0.839689	0.070154	0.000107
C227	C	1.173022	0.403487	0.333440
C228	C	1.506355	0.736821	0.666774
C229	C	0.667577	0.178283	0.000067
C230	C	1.000910	0.511616	0.333400
C231	C	1.334244	0.844949	0.666734
C232	C	0.668343	0.241500	0.000054
C233	C	1.001676	0.574833	0.333388
C234	C	1.335010	0.908167	0.666721
N235	N	0.672294	0.074142	0.229989
N236	N	1.005628	0.407476	0.563322
N237	N	1.338961	0.740809	0.896655
N238	N	0.672358	0.074123	-0.229812
N239	N	1.005691	0.407456	0.103521
N240	N	1.339025	0.740790	0.436854
C241	C	0.672337	0.074130	0.589190
C242	C	1.005670	0.407463	0.922524
C243	C	1.339004	0.740796	1.255857
C244	C	0.625130	0.121025	0.551567
C245	C	0.958463	0.454358	0.884900
C246	C	1.291796	0.787692	1.218233
C247	C	0.625236	0.121195	0.448741
C248	C	0.958570	0.454528	0.782074
C249	C	1.291903	0.787861	1.115408
C250	C	0.672315	0.074136	0.410986
C251	C	1.005649	0.407469	0.744319
C252	C	1.338982	0.740803	1.077653
C253	C	0.731666	0.086779	0.448284
C254	C	1.065000	0.420112	0.781617
C255	C	1.398333	0.753446	1.114951
C256	C	0.731401	0.087112	0.551142
C257	C	1.064735	0.420445	0.884475
C258	C	1.398068	0.753778	1.217808
C259	C	0.660725	0.014450	0.551300
C260	C	0.994058	0.347783	0.884634
C261	C	1.327391	0.681117	1.217967
C262	C	0.659359	0.014856	0.448437
C263	C	0.992692	0.348190	0.781770
C264	C	1.326026	0.681523	1.115103
C265	C	0.672307	0.074138	0.310273
C266	C	1.005640	0.407472	0.643606
C267	C	1.338974	0.740805	0.976939
C268	C	0.672350	0.074128	0.689904
C269	C	1.005683	0.407462	1.023237
C270	C	1.339016	0.740795	1.356570
H271	H	-0.167632	0.164421	0.000088
H272	H	0.165701	0.497754	0.333421
H273	H	0.499035	0.831087	0.666755
N274	N	0.369139	0.184604	0.000054
N275	N	0.702472	0.517937	0.333387
N276	N	1.035805	0.851270	0.666721
H277	H	0.344180	0.186628	-0.054646
H278	H	0.677514	0.519961	0.278687
H279	H	1.010847	0.853295	0.612021
H280	H	0.344213	0.186602	0.054795
H281	H	0.677546	0.519935	0.388128
H282	H	1.010880	0.853269	0.721462
N283	N	-0.147930	-0.037797	0.000116
N284	N	0.185403	0.295536	0.333449
N285	N	0.518737	0.628869	0.666783
H286	H	-0.115616	-0.070352	0.000121
H287	H	0.217717	0.262981	0.333454
H288	H	0.551050	0.596315	0.666787
H289	H	-0.172268	-0.040356	0.054823
H290	H	0.161065	0.292977	0.388157
H291	H	0.494398	0.626311	0.721490
H292	H	0.138375	-0.072634	0.000155
H293	H	0.471708	0.260700	0.333488
H294	H	0.805041	0.594033	0.666822
H295	H	0.763906	-0.658056	0.000082
H296	H	1.097239	-0.324722	0.333415
H297	H	1.430573	0.008611	0.666748
N298	N	0.398527	-0.031256	0.000086
N299	N	0.731860	0.302077	0.333419
N300	N	1.065194	0.635410	0.666752
H301	H	0.430838	-0.063814	0.000086
H302	H	0.764172	0.269520	0.333420
H303	H	1.097505	0.602853	0.666753
H304	H	0.374191	-0.033813	0.054796
H305	H	0.707524	0.299520	0.388129
H306	H	1.040857	0.632853	0.721462
H307	H	-0.034198	-0.022693	0.000126
H308	H	0.299136	0.310640	0.333459
H309	H	0.632469	0.643973	0.666793
H310	H	0.525555	-0.459814	0.000013
H311	H	0.858889	-0.126481	0.333347
H312	H	1.192222	0.206852	0.666680
H313	H	0.512280	-0.016146	0.000081
H314	H	0.845613	0.317187	0.333415
H315	H	1.178946	0.650520	0.666748
N316	N	0.601525	0.002156	0.416141
N317	N	0.934858	0.335490	0.749474
N318	N	1.268191	0.668823	1.082808
H319	H	0.606248	-0.034539	0.380667
H320	H	0.939582	0.298794	0.714000
H321	H	1.272915	0.632128	1.047334
H322	H	0.575800	-0.002127	0.468732
H323	H	0.909133	0.331207	0.802066
H324	H	1.242466	0.664540	1.135399
H325	H	0.526850	-0.352066	0.000019
H326	H	0.860183	-0.018732	0.333352
H327	H	1.193516	0.314601	0.666686
N328	N	0.212272	0.234724	0.000043
N329	N	0.545605	0.568057	0.333377
N330	N	0.878938	0.901390	0.666710
H331	H	0.179956	0.267277	0.000038
H332	H	0.513289	0.600610	0.333371
H333	H	0.846623	0.933943	0.666704
H334	H	0.236605	0.237289	0.054745
H335	H	0.569938	0.570622	0.388078
H336	H	0.903271	0.903956	0.721411
H337	H	0.580748	-0.193677	0.000104
H338	H	0.914081	0.139656	0.333437
H339	H	1.247414	0.472989	0.666771
H340	H	0.695155	-0.020444	0.575631
H341	H	1.028488	0.312889	0.908964
H342	H	1.361822	0.646223	1.242298
N343	N	0.784259	-0.105603	0.000145
N344	N	1.117592	0.227731	0.333478
N345	N	1.450925	0.561064	0.666812
H346	H	0.816815	-0.137915	0.000146
H347	H	1.150148	0.195418	0.333479
H348	H	1.483482	0.528752	0.666813
H349	H	0.786826	-0.081260	-0.054555
H350	H	1.120160	0.252073	0.278779
H351	H	1.453493	0.585407	0.612112
N352	N	0.255847	-0.084966	0.000166
N353	N	0.589180	0.248367	0.333499
N354	N	0.922514	0.581700	0.666832
H355	H	0.232498	-0.118189	0.000178
H356	H	0.565831	0.215144	0.333511
H357	H	0.899165	0.548477	0.666845
H358	H	0.280804	-0.086940	-0.054539
H359	H	0.614137	0.246393	0.278794
H360	H	0.947471	0.579727	0.612127
H361	H	0.762610	-0.765821	0.000071
H362	H	1.095943	-0.432488	0.333404
H363	H	1.429276	-0.099154	0.666737
H364	H	0.582043	-0.085909	0.000098
H365	H	0.915376	0.247424	0.333431
H366	H	1.248709	0.580757	0.666764
H367	H	0.574207	-0.740136	0.000053
H368	H	0.907540	-0.406802	0.333386
H369	H	1.240874	-0.073469	0.666720
N370	N	0.566786	0.111285	0.415330
N371	N	0.900119	0.444618	0.748663
N372	N	1.233453	0.777952	1.081997
H373	H	0.540719	0.106768	0.467420
H374	H	0.874052	0.440101	0.800753
H375	H	1.207385	0.773435	1.134087
H376	H	0.550231	0.145073	0.378199
H377	H	0.883564	0.478406	0.711533
H378	H	1.216897	0.811740	1.044866
H379	H	0.580859	0.113670	0.576323
H380	H	0.914192	0.447003	0.909656
H381	H	1.247525	0.780337	1.242990
H382	H	0.819097	-0.391900	0.000108
H383	H	1.152430	-0.058567	0.333441
H384	H	1.485763	0.274767	0.666775
N385	N	0.782787	-0.229060	0.000111
N386	N	1.116120	0.104274	0.333445
N387	N	1.449453	0.437607	0.666778
H388	H	0.816007	-0.205707	0.000124
H389	H	1.149340	0.127626	0.333458
H390	H	1.482673	0.460960	0.666791
H391	H	0.784747	-0.254017	0.054814
H392	H	1.118080	0.079316	0.388147
H393	H	1.451414	0.412649	0.721481
N394	N	0.831434	-0.509367	0.000098
N395	N	1.164768	-0.176033	0.333432
N396	N	1.498101	0.157300	0.666765
H397	H	0.864653	-0.486012	0.000109
H398	H	1.197987	-0.152679	0.333443
H399	H	1.531320	0.180654	0.666776
H400	H	0.833394	-0.534320	0.054806
H401	H	1.166727	-0.200987	0.388139
H402	H	1.500061	0.132347	0.721472
N403	N	0.561868	-0.622664	0.000038
N404	N	0.895201	-0.289330	0.333371
N405	N	1.228535	0.044003	0.666704
H406	H	0.528647	-0.646015	0.000034
H407	H	0.861980	-0.312682	0.333367
H408	H	1.195314	0.020651	0.666701
H409	H	0.559891	-0.597714	0.054743
H410	H	0.893225	-0.264381	0.388076
H411	H	1.226558	0.068953	0.721409
N412	N	0.088822	0.233245	0.000114
N413	N	0.422156	0.566579	0.333448
N414	N	0.755489	0.899912	0.666781
H415	H	0.112176	0.266464	0.000120
H416	H	0.445510	0.599798	0.333453
H417	H	0.778843	0.933131	0.666787
H418	H	0.063860	0.235234	-0.054577
H419	H	0.397193	0.568568	0.278757
H420	H	0.730527	0.901901	0.612090
H421	H	0.632406	0.165070	0.577398
H422	H	0.965739	0.498403	0.910731
H423	H	1.299073	0.831737	1.244064
N424	N	0.634859	0.179908	0.416116
N425	N	0.968192	0.513242	0.749449
N426	N	1.301526	0.846575	1.082783
H427	H	0.639068	0.205775	0.468553
H428	H	0.972401	0.539108	0.801886
H429	H	1.305735	0.872442	1.135219
H430	H	0.670826	0.176785	0.378947
H431	H	1.004159	0.510118	0.712280
H432	H	1.337492	0.843452	1.045614
H433	H	-0.059867	0.165717	0.000083
H434	H	0.273467	0.499050	0.333416
H435	H	0.606800	0.832384	0.666750
N436	N	0.745024	0.144748	0.582908
N437	N	1.078357	0.478081	0.916242
N438	N	1.411691	0.811414	1.249575
H439	H	0.751143	0.169700	0.530095
H440	H	1.084477	0.503033	0.863428
H441	H	1.417810	0.836367	1.196762
H442	H	0.712097	0.163653	0.619705
H443	H	1.045431	0.496987	0.953038
H444	H	1.378764	0.830320	1.286372
H445	H	0.767609	0.054284	0.576029
H446	H	1.100942	0.387617	0.909362
H447	H	1.434276	0.720951	1.242695
H448	H	0.767620	0.053517	0.423827
H449	H	1.100953	0.386851	0.757160
H450	H	1.434287	0.720184	1.090494
H451	H	0.742205	0.129794	0.422508
H452	H	1.075538	0.463128	0.755841
H453	H	1.408872	0.796461	1.089175
H454	H	0.618404	0.002210	0.577287
H455	H	0.951738	0.335543	0.910620
H456	H	1.285071	0.668876	1.243953
H457	H	0.691535	-0.021650	0.422741
H458	H	1.024868	0.311683	0.756074
H459	H	1.358202	0.645017	1.089407
H460	H	0.486602	0.172255	0.000036
H461	H	0.819935	0.505588	0.333369
H462	H	1.153269	0.838921	0.666703
