data_functionalizedCrystal
_audit_creation_method	'MofGen! by Chris Wilmer'
_symmetry_space_group_name_H-M	'P1'
_symmetry_Int_Tables_number	1
_symmetry_cell_setting	triclinic
loop_
_symmetry_equiv_pos_as_xyz
  x,y,z
_cell_length_a	13.033286
_cell_length_b	13.031981
_cell_length_c	12.759393
_cell_angle_alpha	97.216555
_cell_angle_beta	82.829597
_cell_angle_gamma	90.919693
loop_
_atom_site_label
_atom_site_type_symbol
_atom_site_fract_x
_atom_site_fract_y
_atom_site_fract_z
Zn1	Zn	1.520241	-0.608990	0.321689
Zn2	Zn	1.498291	-0.781017	0.126830
Zn3	Zn	1.348256	-0.587216	0.170810
Zn4	Zn	1.326422	-0.759129	0.327253
O5	O	1.423302	-0.684088	0.236646
O6	O	1.661233	-0.650083	0.275106
O7	O	1.478341	-0.755357	-0.014357
O8	O	1.389394	-0.446164	0.206902
O9	O	1.645107	-0.776471	0.131944
O10	O	1.515750	-0.462162	0.317752
O11	O	1.368111	-0.612972	0.017955
O12	O	1.201456	-0.591747	0.212297
O13	O	1.352180	-0.739165	0.473536
O14	O	1.185414	-0.718051	0.327235
O15	O	1.494578	-0.628859	0.469448
O16	O	1.457169	-0.922054	0.137339
O17	O	1.330897	-0.905972	0.284589
C18	C	1.156122	-0.650162	0.275143
C19	C	1.041818	-0.635673	0.291634
C20	C	1.389309	-0.951339	0.206814
C21	C	1.374861	-1.065681	0.194073
C22	C	0.982891	-0.691650	0.228065
C23	C	0.864752	-0.676676	0.245108
C24	C	1.430898	-1.124486	0.243308
C25	C	1.415966	-1.242665	0.230141
C26	C	1.691526	-0.718148	0.197998
C27	C	1.805827	-0.732662	0.181529
C28	C	1.423392	-0.683999	0.510679
C29	C	1.423430	-0.683961	0.627456
C30	C	1.457456	-0.415798	0.266613
C31	C	1.472010	-0.301468	0.279383
C32	C	1.423282	-0.684110	-0.036322
C33	C	1.423480	-0.683883	-0.153094
C34	C	1.497583	-0.626515	0.680191
C35	C	1.497606	-0.626473	0.789918
C36	C	1.349319	-0.741332	0.794163
C37	C	1.349293	-0.741367	0.684440
H38	H	1.019904	-0.750663	0.161026
C39	C	1.202740	-0.854865	0.787338
C40	C	1.267836	-0.804439	0.856800
H41	H	1.152433	-0.893822	0.826009
H42	H	1.242525	-0.899911	0.733696
H43	H	1.169103	-0.805056	0.755213
H44	H	1.301479	-0.854248	0.888919
H45	H	1.228046	-0.759389	0.910461
H46	H	1.557987	-0.579692	0.832851
H47	H	1.288901	-0.788145	0.641502
C48	C	1.501419	-1.182185	0.432066
C49	C	1.551705	-1.251339	0.349453
H50	H	1.550621	-1.151235	0.475318
H51	H	1.451344	-1.218430	0.474031
H52	H	1.468201	-1.129982	0.402872
H53	H	1.584917	-1.303547	0.378647
H54	H	1.601799	-1.215093	0.307481
H55	H	0.827743	-0.617666	0.312157
H56	H	0.842833	-0.791684	0.114490
H57	H	1.557948	-0.579768	0.633799
C58	C	0.884499	-0.556593	0.381505
C59	C	0.991863	-0.556007	0.382141
H60	H	0.853665	-0.507405	0.437379
H61	H	0.858177	-0.623509	0.391564
H62	H	0.868845	-0.539245	0.315144
H63	H	1.007519	-0.573363	0.448500
H64	H	1.018195	-0.489077	0.372090
H65	H	1.489923	-1.087341	0.295213
H66	H	1.356928	-1.279807	0.178244
C67	C	1.295803	-1.223186	0.124527
C68	C	1.295170	-1.115817	0.124009
H69	H	1.246607	-1.254134	0.081266
H70	H	1.278518	-1.238783	0.195335
H71	H	1.362713	-1.249459	0.097314
H72	H	1.228261	-1.089543	0.151229
H73	H	1.312448	-1.100212	0.053187
