data_functionalizedCrystal
_audit_creation_method	'MofGen! by Chris Wilmer'
_symmetry_space_group_name_H-M	'P1'
_symmetry_Int_Tables_number	1
_symmetry_cell_setting	triclinic
loop_
_symmetry_equiv_pos_as_xyz
  x,y,z
_cell_length_a	13.635800
_cell_length_b	9.582860
_cell_length_c	19.551833
_cell_angle_alpha	86.175409
_cell_angle_beta	101.663477
_cell_angle_gamma	68.793233
loop_
_atom_site_label
_atom_site_type_symbol
_atom_site_fract_x
_atom_site_fract_y
_atom_site_fract_z
V1	V	2.023298	-0.208624	0.217729
O2	O	1.996311	0.008411	0.213716
O3	O	2.018759	-0.412113	0.216113
O4	O	1.994404	-0.206123	0.312746
O5	O	2.020834	-0.199005	0.116414
V6	V	2.263173	-0.182580	0.205626
O7	O	2.158066	-0.265752	0.244277
O8	O	2.353504	-0.125451	0.179078
O9	O	2.156109	0.020909	0.207242
O10	O	2.348859	-0.399614	0.209639
O11	O	2.324336	-0.192199	0.306941
O12	O	2.180464	-0.185081	0.110609
V13	V	2.523298	-0.208624	0.217729
O14	O	2.496311	0.008411	0.213716
O15	O	2.518759	-0.412113	0.216113
O16	O	2.494404	-0.206123	0.312746
O17	O	2.520834	-0.199005	0.116414
V18	V	2.763173	-0.182580	0.205626
O19	O	2.658066	-0.265752	0.244277
O20	O	2.853504	-0.125451	0.179078
O21	O	2.656109	0.020909	0.207242
O22	O	2.848859	-0.399614	0.209639
O23	O	2.824336	-0.192199	0.306941
O24	O	2.680464	-0.185081	0.110609
C25	C	1.946194	-0.461697	0.212646
C26	C	1.983094	-0.628057	0.211958
C27	C	1.915126	-0.198934	0.335909
C28	C	1.932274	-0.198236	0.413585
C29	C	2.060346	0.070485	0.210708
C30	C	2.013065	0.236844	0.211400
C31	C	2.091414	-0.192274	0.087442
C32	C	2.063885	-0.192965	0.009765
C33	C	2.446194	-0.461697	0.212646
C34	C	2.483094	-0.628057	0.211958
C35	C	2.415126	-0.198934	0.335909
C36	C	2.432274	-0.198236	0.413585
C37	C	2.031942	-0.205420	0.453628
C38	C	2.048054	-0.204764	0.526613
C39	C	1.964499	-0.196955	0.559554
C40	C	1.864815	-0.189761	0.519502
C41	C	1.848702	-0.190402	0.446517
C42	C	1.940960	-0.278325	0.678816
C43	C	1.957078	-0.277694	0.751800
C44	C	2.014191	-0.194971	0.784662
C45	C	2.055205	-0.112901	0.744534
C46	C	2.039092	-0.113541	0.671549
C47	C	1.981960	-0.196258	0.638693
C48	C	2.131336	-0.201442	0.903844
C49	C	2.147442	-0.200777	0.976830
C50	C	1.964204	-0.185789	0.969717
C51	C	1.948096	-0.186439	0.896732
C52	C	2.031668	-0.194273	0.863801
C53	C	2.560346	0.070485	0.210708
C54	C	2.513065	0.236844	0.211400
C55	C	2.591414	-0.192274	0.087442
C56	C	2.563885	-0.192965	0.009765
C57	C	2.531946	-0.205396	0.453620
C58	C	2.548067	-0.204720	0.526604
C59	C	2.464517	-0.196896	0.559553
C60	C	2.364836	-0.189732	0.519513
C61	C	2.348714	-0.190397	0.446529
C62	C	2.465202	-0.200772	-0.023165
C63	C	2.439316	-0.201403	-0.096152
C64	C	2.512118	-0.194237	-0.136205
C65	C	2.610809	-0.186425	-0.103270
C66	C	2.636689	-0.185783	-0.030285
H67	H	2.099993	-0.211793	0.426820
Cl68	Cl	1.822797	-0.177432	0.846392
Cl69	Cl	2.272751	-0.209807	1.027170
H70	H	2.267549	-0.184570	0.413939
H71	H	2.491037	-0.194780	-0.195632
H72	H	2.405909	-0.206606	0.009437
Cl73	Cl	2.636996	-0.215229	0.412214
Cl74	Cl	2.315249	-0.211238	-0.137540
Cl75	Cl	2.673389	-0.213739	0.576926
Cl76	Cl	1.859153	-0.175943	1.011120
Cl77	Cl	2.259818	-0.179918	0.560947
Cl78	Cl	2.702326	-0.177437	-0.153631
H79	H	1.923688	-0.344530	0.784468
Cl80	Cl	2.760765	-0.175992	0.011106
H81	H	2.129221	-0.210622	0.559223
Cl82	Cl	2.090649	-0.010371	0.621105
H83	H	2.101714	-0.045544	0.771289
Cl84	Cl	2.236391	-0.211277	0.862440
H85	H	1.894440	-0.345678	0.652065
H86	H	2.477660	-0.196356	0.618981
H87	H	1.796784	-0.183398	0.546327
H88	H	1.767536	-0.184541	0.413913
