data_functionalizedCrystal
_audit_creation_method	'MofGen! by Chris Wilmer'
_symmetry_space_group_name_H-M	'P1'
_symmetry_Int_Tables_number	1
_symmetry_cell_setting	triclinic
loop_
_symmetry_equiv_pos_as_xyz
  x,y,z
_cell_length_a	15.995350
_cell_length_b	19.188930
_cell_length_c	14.472310
_cell_angle_alpha	89.993787
_cell_angle_beta	89.990621
_cell_angle_gamma	83.318578
loop_
_atom_site_label
_atom_site_type_symbol
_atom_site_fract_x
_atom_site_fract_y
_atom_site_fract_z
O1	O	1.110667	0.089991	-0.076773
O2	O	1.610667	0.589991	0.423227
O3	O	0.866851	0.101105	-0.076794
O4	O	1.366851	0.601105	0.423206
O5	O	0.995795	-0.006090	-0.076765
O6	O	1.495795	0.493910	0.423235
O7	O	0.981723	0.197186	-0.076802
O8	O	1.481723	0.697186	0.423198
O9	O	0.995762	-0.006083	0.076917
O10	O	1.495762	0.493917	0.576917
O11	O	0.866818	0.101111	0.076888
O12	O	1.366818	0.601111	0.576888
O13	O	1.110634	0.089998	0.076909
O14	O	1.610634	0.589998	0.576909
Cu15	Cu	0.988723	0.095555	0.090931
Cu16	Cu	1.488723	0.595555	0.590931
Cu17	Cu	0.988762	0.095547	-0.090816
Cu18	Cu	1.488762	0.595547	0.409184
O19	O	0.981690	0.197192	0.076880
O20	O	1.481690	0.697192	0.576880
C21	C	0.835641	0.100648	0.000045
C22	C	1.335641	0.600648	0.500045
C23	C	0.742696	0.099271	0.000038
C24	C	1.242696	0.599271	0.500038
C25	C	0.404967	0.094324	0.000058
C26	C	0.904967	0.594324	0.500058
C27	C	0.452680	0.017982	0.000415
C28	C	0.952680	0.517982	0.500415
C29	C	0.549365	0.019360	0.000062
C30	C	1.049365	0.519360	0.500062
C31	C	0.572518	0.096778	0.000049
C32	C	1.072518	0.596778	0.500049
C33	C	0.531312	0.134429	-0.087714
C34	C	1.031312	0.634429	0.412286
C35	C	0.434683	0.132511	-0.087781
C36	C	0.934683	0.632511	0.412219
C37	C	0.434301	0.134095	0.086984
C38	C	0.934301	0.634095	0.586984
C39	C	0.531246	0.134077	0.088137
C40	C	1.031246	0.634077	0.588137
C41	C	0.667211	0.098169	0.000040
C42	C	1.167211	0.598169	0.500040
C43	C	0.310274	0.092936	0.000060
C44	C	0.810274	0.592936	0.500060
C45	C	0.995323	-0.032099	0.000079
C46	C	1.495323	0.467901	0.500079
C47	C	0.993955	-0.109607	0.000087
C48	C	1.493955	0.390393	0.500087
C49	C	1.069615	-0.154338	0.000097
C50	C	1.569615	0.345662	0.500097
C51	C	1.068330	-0.227165	0.000082
C52	C	1.568330	0.272835	0.500082
C53	C	0.991380	-0.255258	0.000075
C54	C	1.491380	0.244742	0.500075
C55	C	0.915710	-0.210517	0.000059
C56	C	1.415710	0.289483	0.500059
C57	C	0.916997	-0.137691	0.000065
C58	C	1.416997	0.362309	0.500065
N59	N	0.932550	-0.363410	0.052371
N60	N	1.432550	0.136590	0.552371
N61	N	0.931332	-0.432592	0.052368
N62	N	1.431332	0.067408	0.552368
C63	C	0.987497	-0.474676	0.000056
C64	C	1.487497	0.025324	0.500056
N65	N	1.044938	-0.444967	-0.052240
N66	N	1.544938	0.055033	0.447760
N67	N	1.046158	-0.375779	-0.052233
N68	N	1.546158	0.124221	0.447767
C69	C	0.989976	-0.334224	0.000069
C70	C	1.489976	0.165776	0.500069
C71	C	1.061769	-0.598375	0.000050
C72	C	1.561769	-0.098375	0.500050
C73	C	1.060480	-0.671204	0.000029
C74	C	1.560480	-0.171204	0.500029
C75	C	0.907859	-0.654553	0.000015
C76	C	1.407859	-0.154553	0.500015
C77	C	0.909149	-0.581727	0.000027
C78	C	1.409149	-0.081727	0.500027
C79	C	0.986106	-0.553643	0.000048
C80	C	1.486106	-0.053643	0.500048
C81	C	1.141843	0.090454	0.000068
C82	C	1.641843	0.590454	0.500068
C83	C	1.234789	0.091831	0.000069
C84	C	1.734789	0.591831	0.500069
C85	C	0.982162	0.223201	0.000034
C86	C	1.482162	0.723201	0.500034
C87	C	0.983530	0.300709	0.000020
C88	C	1.483530	0.800709	0.500020
N89	N	0.988701	0.095560	0.218762
N90	N	1.488701	0.595560	0.718762
N91	N	0.988790	0.095537	-0.218647
N92	N	1.488790	0.595537	0.281353
C93	C	0.988761	0.095545	0.592853
C94	C	1.488761	0.595545	1.092853
C95	C	0.919535	0.152710	0.553672
C96	C	1.419535	0.652710	1.053672
C97	C	0.919694	0.152918	0.446584
C98	C	1.419694	0.652918	0.946584
C99	C	0.988731	0.095552	0.407262
C100	C	1.488731	0.595552	0.907262
C101	C	1.076037	0.111464	0.446103
C102	C	1.576037	0.611464	0.946103
C103	C	1.075648	0.111870	0.553224
C104	C	1.575648	0.611870	1.053224
C105	C	0.971460	0.022298	0.553394
C106	C	1.471460	0.522298	1.053394
C107	C	0.969454	0.022787	0.446266
C108	C	1.469454	0.522787	0.946266
C109	C	0.988719	0.095555	0.302374
C110	C	1.488719	0.595555	0.802374
C111	C	0.988778	0.095543	0.697741
C112	C	1.488778	0.595543	1.197741
H113	H	0.416490	0.105049	-0.153377
H114	H	0.916490	0.605049	0.346623
N115	N	1.145920	0.058827	0.587561
N116	N	1.645920	0.558827	1.087561
H117	H	1.146216	0.058679	0.657348
H118	H	1.646216	0.558679	1.157348
H119	H	1.136971	0.010664	0.564180
H120	H	1.636971	0.510664	1.064180
H121	H	1.128770	0.070935	0.420631
H122	H	1.628770	0.570935	0.920631
H123	H	0.930402	0.206759	0.580572
H124	H	1.430402	0.706759	1.080572
N125	N	1.149939	-0.275421	0.000113
N126	N	1.649939	0.224579	0.500113
H127	H	1.137444	-0.325817	0.000111
H128	H	1.637444	0.174183	0.500111
H129	H	1.183511	-0.266328	-0.056848
H130	H	1.683511	0.233672	0.443152
H131	H	1.021946	-0.020242	0.578732
H132	H	1.521946	0.479758	1.078732
N133	N	0.832710	-0.240806	0.000053
N134	N	1.332710	0.259194	0.500053
H135	H	0.828786	-0.270647	-0.056917
H136	H	1.328786	0.229353	0.443083
H137	H	0.828809	-0.270619	0.057061
H138	H	1.328809	0.229381	0.557061
H139	H	1.090934	0.165288	0.578192
H140	H	1.590934	0.665288	1.078192
N141	N	1.152620	-0.124055	0.000114
N142	N	1.652620	0.375945	0.500114
H143	H	1.185768	-0.140366	-0.056853
H144	H	1.685768	0.359634	0.443147
H145	H	1.141895	-0.071137	0.000151
H146	H	1.641895	0.428863	0.500151
N147	N	0.835390	-0.089440	0.000053
N148	N	1.335390	0.410560	0.500053
H149	H	0.786445	-0.118284	0.000043
H150	H	1.286445	0.381716	0.500043
H151	H	0.832587	-0.058869	0.057029
H152	H	1.332587	0.441131	0.557029
N153	N	1.144767	-0.568077	0.000069
N154	N	1.644767	-0.068077	0.500069
H155	H	1.192504	-0.607469	0.000066
H156	H	1.692504	-0.107469	0.500066
H157	H	1.148637	-0.538215	-0.056897
H158	H	1.648637	-0.038215	0.443103
H159	H	0.577889	-0.010236	0.062975
H160	H	1.077889	0.489764	0.562975
N161	N	0.567541	0.097674	0.174144
N162	N	1.067541	0.597674	0.674144
H163	H	0.555843	0.047075	0.173599
H164	H	1.055843	0.547075	0.673599
H165	H	0.630331	0.099713	0.175829
H166	H	1.130331	0.599713	0.675829
N167	N	1.142089	-0.719454	0.000037
N168	N	1.642089	-0.219454	0.500037
H169	H	1.191033	-0.690608	0.000054
H170	H	1.691033	-0.190608	0.500054
H171	H	1.144859	-0.750039	0.057005
H172	H	1.644859	-0.250039	0.557005
H173	H	1.091696	0.164273	0.419257
H174	H	1.591696	0.664273	0.919257
N175	N	0.428283	-0.022438	0.083788
N176	N	0.928283	0.477562	0.583788
H177	H	0.386061	0.008342	0.122137
H178	H	0.886061	0.508342	0.622137
H179	H	0.402505	-0.065364	0.062787
H180	H	0.902505	0.434636	0.562787
N181	N	0.827544	-0.533475	0.000020
N182	N	1.327544	-0.033475	0.500020
H183	H	0.778600	-0.562320	0.000014
H184	H	1.278600	-0.062320	0.500014
H185	H	0.824742	-0.502903	0.056995
H186	H	1.324742	-0.002903	0.556995
N187	N	0.824861	-0.684842	-0.000003
N188	N	1.324861	-0.184842	0.499997
H189	H	0.835524	-0.737765	-0.000008
H190	H	1.335524	-0.237765	0.499992
H191	H	0.791748	-0.668485	0.056966
H192	H	1.291748	-0.168485	0.556966
H193	H	0.909193	0.006998	0.580460
H194	H	1.409193	0.506998	1.080460
H195	H	0.854789	0.143438	0.420324
H196	H	1.354789	0.643438	0.920324
N197	N	0.549755	0.209765	-0.092065
N198	N	1.049755	0.709765	0.407935
H199	H	0.522668	0.232942	-0.149018
H200	H	1.022668	0.732942	0.350982
H201	H	0.526335	0.235567	-0.035181
H202	H	1.026335	0.735567	0.464819
N203	N	0.884357	0.006811	0.412708
N204	N	1.384357	0.506811	0.912708
H205	H	0.858397	0.046534	0.372398
H206	H	1.358397	0.546534	0.872398
H207	H	0.891195	-0.038167	0.375818
H208	H	1.391195	0.461833	0.875818
N209	N	0.833278	0.140368	0.587824
N210	N	1.333278	0.640368	1.087824
H211	H	0.838233	0.097602	0.629029
H212	H	1.338233	0.597602	1.129029
H213	H	0.807872	0.182662	0.623924
H214	H	1.307872	0.682662	1.123924
H215	H	0.930714	0.207273	0.420941
H216	H	1.430714	0.707273	0.920941
N217	N	0.426875	-0.022271	-0.082459
N218	N	0.926875	0.477729	0.417541
H219	H	0.384414	0.008731	-0.120234
H220	H	0.884414	0.508731	0.379766
H221	H	0.478036	-0.037505	-0.121588
H222	H	0.978036	0.462495	0.378412
H223	H	0.559796	0.108273	-0.153020
H224	H	1.059796	0.608273	0.346980
N225	N	1.031936	-0.036205	0.410833
N226	N	1.531936	0.463795	0.910833
H227	H	1.029118	-0.037812	0.341158
H228	H	1.529118	0.462188	0.841158
H229	H	1.090551	-0.028036	0.430633
H230	H	1.590551	0.471964	0.930633
N231	N	0.586426	-0.020106	-0.083412
N232	N	1.086426	0.479894	0.416588
H233	H	0.616150	0.012440	-0.123409
H234	H	1.116150	0.512440	0.376591
H235	H	0.627974	-0.060738	-0.062566
H236	H	1.127974	0.439262	0.437434
N237	N	0.391687	0.206751	-0.093033
N238	N	0.891687	0.706751	0.406967
H239	H	0.435530	0.240577	-0.095303
H240	H	0.935530	0.740577	0.404697
H241	H	0.355775	0.212358	-0.150543
H242	H	0.855775	0.712358	0.349457
H243	H	0.413843	0.109140	0.153506
H244	H	0.913843	0.609140	0.653506
H245	H	0.402333	0.190382	0.087568
H246	H	0.902333	0.690382	0.587568
N247	N	0.551316	0.208861	0.095153
N248	N	1.051316	0.708861	0.595153
H249	H	0.587606	0.219672	0.041085
H250	H	1.087606	0.719672	0.541085
H251	H	0.497259	0.241797	0.094399
H252	H	0.997259	0.741797	0.594399
