data_functionalizedCrystal
_audit_creation_method	'MofGen! by Chris Wilmer'
_symmetry_space_group_name_H-M	'P1'
_symmetry_Int_Tables_number	1
_symmetry_cell_setting	triclinic
loop_
_symmetry_equiv_pos_as_xyz
  x,y,z
_cell_length_a	9.065218
_cell_length_b	15.072220
_cell_length_c	9.065218
_cell_angle_alpha	89.999165
_cell_angle_beta	85.015885
_cell_angle_gamma	90.012623
loop_
_atom_site_label
_atom_site_type_symbol
_atom_site_fract_x
_atom_site_fract_y
_atom_site_fract_z
O1	O	1.960420	0.073781	0.216347
O2	O	2.460420	0.573781	0.716347
O3	O	1.531135	0.073782	0.234094
O4	O	2.031135	0.573782	0.734094
O5	O	1.754650	0.073779	0.010578
O6	O	2.254650	0.573779	0.510578
O7	O	1.736904	0.073783	0.439863
O8	O	2.236904	0.573783	0.939863
O9	O	1.754595	-0.073786	0.010590
O10	O	2.254595	0.426214	0.510590
O11	O	1.531079	-0.073783	0.234106
O12	O	2.031079	0.426217	0.734106
O13	O	1.960364	-0.073784	0.216359
O14	O	2.460364	0.426216	0.716359
Zn15	Zn	1.745713	-0.097213	0.225234
Zn16	Zn	2.245713	0.402787	0.725234
Zn17	Zn	1.745786	0.097210	0.225219
Zn18	Zn	2.245786	0.597210	0.725219
O19	O	1.736848	-0.073782	0.439875
O20	O	2.236848	0.426218	0.939875
C21	C	1.476120	-0.000001	0.232394
C22	C	1.976120	0.499999	0.732394
C23	C	1.312277	-0.000000	0.227294
C24	C	1.812277	0.500000	0.727294
N25	N	1.745673	-0.229902	0.225244
N26	N	2.245673	0.270098	0.725244
C27	C	1.745783	-0.589103	0.225213
C28	C	2.245783	-0.089103	0.725213
C29	C	1.625772	-0.551495	0.344400
C30	C	2.125772	-0.051495	0.844400
C31	C	1.626056	-0.448669	0.344844
C32	C	2.126056	0.051331	0.844844
C33	C	1.745727	-0.410899	0.225229
C34	C	2.245727	0.089101	0.725229
C35	C	1.900137	-0.448191	0.260913
C36	C	2.400137	0.051809	0.760913
C37	C	1.899467	-0.551048	0.261762
C38	C	2.399467	-0.051048	0.761762
C39	C	1.712752	-0.551205	0.070002
C40	C	2.212752	-0.051205	0.570002
C41	C	1.709233	-0.448341	0.070987
C42	C	2.209233	0.051659	0.570987
C43	C	1.745705	-0.310186	0.225234
C44	C	2.245705	0.189814	0.725234
C45	C	1.745815	-0.689817	0.225210
C46	C	2.245815	-0.189817	0.725210
C47	C	2.015378	0.000000	0.218059
C48	C	2.515378	0.500000	0.718059
C49	C	2.179221	0.000005	0.223158
C50	C	2.679221	0.500005	0.723158
C51	C	1.752917	-0.000002	-0.044403
C52	C	2.252917	0.499998	0.455597
C53	C	1.747817	0.000003	-0.208245
C54	C	2.247817	0.500003	0.291755
N55	N	1.745837	0.229899	0.225197
N56	N	2.245837	0.729899	0.725197
C57	C	1.738582	0.000001	0.494855
C58	C	2.238582	0.500001	0.994855
C59	C	1.743681	0.000003	0.658698
C60	C	2.243681	0.500003	1.158698
H61	H	1.511347	-0.423458	0.323280
H62	H	2.011347	0.076542	0.823280
H63	H	1.510697	-0.576256	0.323160
H64	H	2.010697	-0.076256	0.823160
Br65	Br	1.660828	-0.594538	0.535228
Br66	Br	2.160828	-0.094538	1.035228
H67	H	1.928260	-0.575029	0.375019
H68	H	2.428260	-0.075029	0.875019
Br69	Br	1.661499	-0.407635	0.536766
Br70	Br	2.161499	0.092365	1.036766
Br71	Br	2.052689	-0.407418	0.120216
Br72	Br	2.552689	0.092582	0.620216
H73	H	1.991670	-0.575924	0.178485
H74	H	2.491670	-0.075924	0.678485
H75	H	1.929564	-0.422420	0.372892
H76	H	2.429564	0.077580	0.872892
Br77	Br	1.528944	-0.594492	0.013689
Br78	Br	2.028944	-0.094492	0.513689
Br79	Br	1.845210	-0.405508	-0.084038
Br80	Br	2.345210	0.094492	0.415962
H81	H	1.595637	-0.423969	0.043954
H82	H	2.095637	0.076031	0.543954
Br83	Br	1.858580	-0.591736	-0.077870
Br84	Br	2.358580	-0.091736	0.422130
