data_functionalizedCrystal
_audit_creation_method	'MofGen! by Chris Wilmer'
_symmetry_space_group_name_H-M	'P1'
_symmetry_Int_Tables_number	1
_symmetry_cell_setting	triclinic
loop_
_symmetry_equiv_pos_as_xyz
  x,y,z
_cell_length_a	9.065218
_cell_length_b	16.053802
_cell_length_c	9.065218
_cell_angle_alpha	92.605607
_cell_angle_beta	94.984115
_cell_angle_gamma	92.619430
loop_
_atom_site_label
_atom_site_type_symbol
_atom_site_fract_x
_atom_site_fract_y
_atom_site_fract_z
O1	O	1.966543	0.069428	-0.210228
O2	O	1.537259	0.069429	-0.227974
O3	O	1.760774	0.069426	-0.004459
O4	O	1.743028	0.069430	-0.433743
O5	O	1.748470	-0.069432	-0.016710
O6	O	1.524955	-0.069430	-0.240226
O7	O	1.954240	-0.069431	-0.222479
Zn8	Zn	1.737644	-0.091477	-0.233298
Zn9	Zn	1.753854	0.091475	-0.217156
O10	O	1.730724	-0.069429	-0.445995
C11	C	1.476120	-0.000001	-0.232394
C12	C	1.312277	-0.000000	-0.227294
N13	N	1.726591	-0.216338	-0.244313
C14	C	1.821733	-0.260032	-0.149242
C15	C	1.814016	-0.347439	-0.156962
C16	C	1.711163	-0.391149	-0.259761
C17	C	1.616011	-0.347448	-0.354836
C18	C	1.623722	-0.260043	-0.347108
C19	C	1.677478	-0.652559	-0.293476
C20	C	1.669777	-0.739970	-0.301200
C21	C	1.867781	-0.739955	-0.103322
C22	C	1.875489	-0.652548	-0.095609
C23	C	1.780332	-0.608855	-0.190679
N24	N	1.703275	-0.480493	-0.267657
N25	N	1.788214	-0.519512	-0.182775
C26	C	2.015378	0.000000	-0.218059
C27	C	2.179222	0.000005	-0.223158
C28	C	1.752917	-0.000002	0.044402
C29	C	1.747818	0.000002	0.208246
N30	N	1.764918	0.216335	-0.206128
C31	C	1.738582	0.000001	-0.494855
C32	C	1.743682	0.000002	-0.658698
H33	H	1.891487	-0.383015	-0.079546
H34	H	1.600000	-0.616990	-0.370889
C35	C	1.502869	-0.395525	-0.467920
C36	C	1.494450	-0.491667	-0.476504
C37	C	1.381308	-0.539741	-0.589594
C38	C	1.276586	-0.491673	-0.694100
C39	C	1.285001	-0.395525	-0.685520
C40	C	1.398143	-0.347451	-0.572429
H41	H	1.571975	-0.527255	-0.399139
H42	H	1.375079	-0.610916	-0.595946
H43	H	1.192832	-0.527260	-0.777817
H44	H	1.207476	-0.359937	-0.762885
H45	H	1.404372	-0.276276	-0.566078
H46	H	1.586017	-0.775555	-0.384918
H47	H	1.546246	-0.224468	-0.424524
H48	H	1.959240	-0.616961	-0.011902
C49	C	1.934875	-0.211956	-0.036158
C50	C	1.943370	-0.115814	-0.027650
C51	C	2.056512	-0.067740	0.085440
C52	C	2.161158	-0.115808	0.190022
C53	C	2.152667	-0.211956	0.181518
C54	C	2.039525	-0.260030	0.068427
H55	H	1.865901	-0.080226	-0.105071
H56	H	2.062797	0.003435	0.091735
H57	H	2.244912	-0.080221	0.273738
H58	H	2.230135	-0.247544	0.258939
H59	H	2.033240	-0.331205	0.062132
C60	C	1.972438	-0.788017	0.001262
C61	C	1.907981	-0.848119	0.109607
C62	C	2.012640	-0.896181	0.214201
C63	C	2.181755	-0.884141	0.210451
C64	C	2.246221	-0.824036	0.102102
C65	C	2.141563	-0.775975	-0.002493
H66	H	1.782784	-0.857034	0.112387
H67	H	1.964917	-0.940674	0.294408
H68	H	2.259230	-0.919719	0.287878
H69	H	2.371419	-0.815121	0.099322
H70	H	2.189285	-0.731481	-0.082700
