data_functionalizedCrystal
_audit_creation_method	'MofGen! by Chris Wilmer'
_symmetry_space_group_name_H-M	'P1'
_symmetry_Int_Tables_number	1
_symmetry_cell_setting	triclinic
loop_
_symmetry_equiv_pos_as_xyz
  x,y,z
_cell_length_a	14.519709
_cell_length_b	14.519709
_cell_length_c	15.455322
_cell_angle_alpha	92.669304
_cell_angle_beta	87.319028
_cell_angle_gamma	83.680145
loop_
_atom_site_label
_atom_site_type_symbol
_atom_site_fract_x
_atom_site_fract_y
_atom_site_fract_z
O1	O	1.227897	0.116870	-0.072019
O2	O	0.959422	0.131105	-0.072046
O3	O	1.100778	-0.010251	-0.072024
O4	O	1.086542	0.258225	-0.072041
O5	O	1.092693	-0.002200	0.072237
O6	O	0.951338	0.139156	0.072215
O7	O	1.219813	0.124921	0.072242
Cu8	Cu	1.084837	0.132773	0.085400
Cu9	Cu	1.094398	0.123252	-0.085205
O10	O	1.078457	0.266276	0.072220
C11	C	1.096072	-0.040585	0.000106
C12	C	1.094084	-0.142966	0.000107
C13	C	0.921020	0.134467	0.000081
C14	C	0.818639	0.132478	0.000071
C15	C	0.443741	0.125161	0.000111
C16	C	0.548050	0.127193	0.000100
C17	C	0.631187	0.128819	0.000090
C18	C	0.735502	0.130851	0.000080
C19	C	1.086765	-0.517863	0.000083
C20	C	1.088798	-0.413555	0.000090
C21	C	1.090424	-0.330418	0.000096
C22	C	1.092457	-0.226103	0.000101
C23	C	1.258215	0.121559	0.000113
C24	C	1.360596	0.123547	0.000117
C25	C	1.083163	0.296610	0.000087
C26	C	1.085152	0.398991	0.000081
N27	N	1.078119	0.139469	0.205395
C28	C	1.138193	0.079439	0.250798
C29	C	1.133121	0.084511	0.341605
C30	C	1.067979	0.149619	0.387007
C31	C	1.007899	0.209652	0.341598
C32	C	1.012968	0.204575	0.250792
C33	C	1.046104	0.171510	0.658585
C34	C	1.041042	0.176585	0.749397
C35	C	1.166263	0.051442	0.749399
C36	C	1.171329	0.046374	0.658592
C37	C	1.111246	0.106404	0.613190
N38	N	1.062795	0.154807	0.479827
N39	N	1.116426	0.101210	0.520372
N40	N	1.101115	0.116554	0.794801
H41	H	1.191241	0.026425	0.213838
F42	F	1.197056	0.020619	0.389927
F43	F	1.230201	-0.012444	0.797724
H44	H	1.224372	-0.006642	0.621627
H45	H	0.987993	0.229607	0.786359
H46	H	0.997183	0.220390	0.621626
F47	F	0.938565	0.278941	0.389918
H48	H	0.964048	0.253457	0.213825
