data_functionalizedCrystal
_audit_creation_method	'MofGen! by Chris Wilmer'
_symmetry_space_group_name_H-M	'P1'
_symmetry_Int_Tables_number	1
_symmetry_cell_setting	triclinic
loop_
_symmetry_equiv_pos_as_xyz
  x,y,z
_cell_length_a	15.297327
_cell_length_b	15.297621
_cell_length_c	15.296720
_cell_angle_alpha	91.615729
_cell_angle_beta	72.680778
_cell_angle_gamma	88.375711
loop_
_atom_site_label
_atom_site_type_symbol
_atom_site_fract_x
_atom_site_fract_y
_atom_site_fract_z
Zn1	Zn	-0.695117	-1.116329	0.823160
Zn2	Zn	-0.823718	-1.116234	0.694534
Zn3	Zn	-0.644940	-1.005101	0.644430
Zn4	Zn	-0.814934	-0.946193	0.814438
O5	O	-0.744677	-1.045964	0.744141
O6	O	-0.736851	-1.234028	0.830717
O7	O	-0.782680	-1.126105	0.562908
O8	O	-0.526633	-1.044550	0.650820
O9	O	-0.831334	-1.233958	0.736216
O10	O	-0.563497	-1.126268	0.782133
O11	O	-0.651333	-1.044457	0.526097
O12	O	-0.642815	-0.879575	0.642363
O13	O	-0.816362	-0.944148	0.940574
O14	O	-0.767709	-0.836295	0.767267
O15	O	-0.728333	-1.069147	0.946983
O16	O	-0.947516	-1.068984	0.727758
O17	O	-0.941062	-0.944056	0.815851
C18	C	-0.698864	-0.827414	0.698432
C19	C	-0.679290	-0.733908	0.678902
C20	C	-0.884543	-0.380291	0.883684
C21	C	-0.902940	-0.468144	0.902032
C22	C	-0.847029	-0.534589	0.846251
C23	C	-0.772718	-0.513174	0.772119
C24	C	-0.754323	-0.425313	0.753765
C25	C	-0.716809	-0.579611	0.716332
C26	C	-0.642498	-0.558196	0.642199
C27	C	-0.624106	-0.470343	0.623849
C28	C	-0.680017	-0.403898	0.679630
C29	C	-0.735204	-0.667471	0.734686
C30	C	-0.604984	-0.712493	0.604767
C31	C	-0.586587	-0.624641	0.586419
C32	C	-0.976698	-1.000136	0.776320
C33	C	-1.075978	-0.980601	0.790132
C34	C	-1.369207	-1.185867	0.645799
C35	C	-1.275928	-1.204221	0.632817
C36	C	-1.225936	-1.148318	0.672145
C37	C	-1.269232	-1.074057	0.724456
C38	C	-1.362518	-1.055697	0.737434
C39	C	-1.219247	-1.018149	0.763780
C40	C	-1.262543	-0.943888	0.816091
C41	C	-1.355821	-0.925532	0.829067
C42	C	-1.405813	-0.981435	0.789739
C43	C	-1.125961	-1.036508	0.750802
C44	C	-1.119272	-0.906339	0.842437
C45	C	-1.212551	-0.887985	0.855419
C46	C	-0.511758	-1.091991	0.711860
C47	C	-0.412501	-1.111604	0.698104
C48	C	-0.776965	-1.000087	0.977090
C49	C	-0.790724	-0.980537	1.076360
C50	C	-0.790662	-0.265371	0.790020
C51	C	-0.810237	-0.358876	0.809549
C52	C	-0.712461	-1.091724	0.512098
C53	C	-0.698484	-1.111487	0.412829
C54	C	-0.646189	-1.185754	1.369531
C55	C	-0.633264	-1.204127	1.276264
C56	C	-0.672627	-1.148231	1.226284
C57	C	-0.724919	-1.073959	1.269579
C58	C	-0.737851	-1.055587	1.362857
C59	C	-0.764290	-1.018065	1.219609
C60	C	-0.816581	-0.943792	1.262905
C61	C	-0.829510	-0.925424	1.356173
C62	C	-0.790146	-0.981320	1.406154
C63	C	-0.751358	-1.036436	1.126331
C64	C	-0.843020	-0.906269	1.119657
C65	C	-0.855944	-0.887896	1.212924
H66	H	-0.559458	-0.766594	0.559344
F67	F	-1.504997	-0.961693	0.803213
F68	F	-0.604310	-1.245239	1.422731
F69	F	-1.079893	-1.115539	0.695130
F70	F	-0.884921	-0.846780	1.066470
H71	H	-0.898520	-0.827422	1.248188
F72	F	-1.066070	-0.846835	0.884290
H73	H	-0.662101	-1.163196	1.150341
F74	F	-1.126724	-1.167997	0.658556
F75	F	-1.229858	-1.283256	0.577153
F76	F	-0.695707	-1.115480	1.080263
H77	H	-1.409917	-1.231371	0.613778
H78	H	-1.391066	-0.865056	0.871650
H79	H	-1.247816	-0.827521	0.898011
H80	H	-0.590691	-1.264602	1.241020
F81	F	-0.866610	-0.628089	0.865782
H82	H	-0.526082	-0.607192	0.526059
F83	F	-0.803904	-0.961772	1.505423
F84	F	-0.885178	-0.846386	1.402254
H85	H	-0.795709	-0.684898	0.795046
H86	H	-0.930062	-0.326186	0.929088
F87	F	-0.982026	-0.490929	0.980925
F88	F	-0.545022	-0.447555	0.544945
F89	F	-0.660436	-0.310393	0.660110
