data_functionalizedCrystal
_audit_creation_method	'MofGen! by Chris Wilmer'
_symmetry_space_group_name_H-M	'P1'
_symmetry_Int_Tables_number	1
_symmetry_cell_setting	triclinic
loop_
_symmetry_equiv_pos_as_xyz
  x,y,z
_cell_length_a	12.759394
_cell_length_b	12.759395
_cell_length_c	12.759387
_cell_angle_alpha	90.020837
_cell_angle_beta	89.968668
_cell_angle_gamma	89.984599
loop_
_atom_site_label
_atom_site_type_symbol
_atom_site_fract_x
_atom_site_fract_y
_atom_site_fract_z
Zn1	Zn	-0.418199	-1.606253	-0.594048
Zn2	Zn	-0.593915	-1.606147	-0.418366
Zn3	Zn	-0.418252	-1.430555	-0.418380
Zn4	Zn	-0.593838	-1.430543	-0.594000
O5	O	-0.506051	-1.518375	-0.506198
O6	O	-0.441518	-1.753260	-0.570758
O7	O	-0.570667	-1.582816	-0.271347
O8	O	-0.271224	-1.453911	-0.441709
O9	O	-0.570615	-1.753182	-0.441685
O10	O	-0.271185	-1.582995	-0.570771
O11	O	-0.441608	-1.453809	-0.271357
O12	O	-0.441534	-1.283533	-0.441662
O13	O	-0.570485	-1.453890	-0.741027
O14	O	-0.570536	-1.283523	-0.570689
O15	O	-0.441443	-1.582983	-0.741063
O16	O	-0.740926	-1.582804	-0.441638
O17	O	-0.740869	-1.453788	-0.570676
C18	C	-0.506033	-1.245407	-0.506172
C19	C	-0.506051	-1.128630	-0.506186
C20	C	-0.640599	-1.128659	-0.640324
C21	C	-0.707880	-1.073813	-0.707395
C22	C	-0.707891	-0.964092	-0.707405
C23	C	-0.640611	-0.909214	-0.640338
C24	C	-0.573330	-0.964060	-0.573268
C25	C	-0.573329	-1.073784	-0.573263
C26	C	-0.438779	-0.964031	-0.439136
C27	C	-0.438772	-1.073753	-0.439119
C28	C	-0.371499	-0.909153	-0.372070
C29	C	-0.304222	-0.963999	-0.304992
C30	C	-0.304215	-1.073728	-0.304984
C31	C	-0.371491	-1.128599	-0.372049
C32	C	-0.779018	-1.518312	-0.506173
C33	C	-0.895795	-1.518381	-0.506197
C34	C	-0.895800	-1.652826	-0.371931
C35	C	-0.950664	-1.720076	-0.304811
C36	C	-1.060385	-1.720137	-0.304839
C37	C	-1.115246	-1.652944	-0.371998
C38	C	-1.060383	-1.585694	-0.439119
C39	C	-0.950658	-1.585637	-0.439080
C40	C	-1.060377	-1.451256	-0.573388
C41	C	-0.950656	-1.451187	-0.573356
C42	C	-1.115238	-1.384063	-0.640547
C43	C	-1.060374	-1.316806	-0.707664
C44	C	-0.950646	-1.316746	-0.707631
C45	C	-0.895792	-1.383937	-0.640476
C46	C	-0.232017	-1.518467	-0.506247
C47	C	-0.115241	-1.518506	-0.506268
C48	C	-0.505949	-1.518447	-0.780232
C49	C	-0.505906	-1.518478	-0.897009
C50	C	-0.506065	-0.792408	-0.506218
C51	C	-0.506060	-0.909185	-0.506206
C52	C	-0.371461	-1.652970	-1.116489
C53	C	-0.304296	-1.720168	-1.061646
C54	C	-0.304331	-1.720139	-0.951924
C55	C	-0.371541	-1.652905	-0.897044
C56	C	-0.438706	-1.585706	-0.951887
C57	C	-0.438662	-1.585741	-1.061611
C58	C	-0.573072	-1.451279	-0.951852
C59	C	-0.573033	-1.451302	-1.061574
C60	C	-0.640281	-1.384046	-0.896972
C61	C	-0.707443	-1.316840	-0.951815
C62	C	-0.707405	-1.316872	-1.061543
C63	C	-0.640198	-1.384103	-1.116418
C64	C	-0.506076	-1.518363	-0.233231
C65	C	-0.505823	-1.518536	-0.116455
H66	H	-0.762656	-1.118507	-0.762001
F67	F	-0.892270	-1.791588	-0.233344
F68	F	-0.232598	-1.132091	-0.233602
F69	F	-0.778969	-1.245298	-0.893402
H70	H	-0.371572	-1.652896	-0.807702
H71	H	-0.905982	-1.261987	-0.762293
H72	H	-0.640309	-1.384031	-0.807630
H73	H	-0.640617	-0.819873	-0.640361
H74	H	-0.762671	-0.919436	-0.762025
F75	F	-0.371493	-1.245375	-0.372042
H76	H	-0.762103	-1.262154	-1.106191
F77	F	-0.640146	-1.384137	-1.233193
H78	H	-0.806451	-1.383889	-0.640437
H79	H	-0.806459	-1.652769	-0.371888
F80	F	-1.232021	-1.652665	-0.371676
F81	F	-0.640605	-1.245435	-0.640307
H82	H	-0.371509	-0.819812	-0.372087
H83	H	-1.105055	-1.774903	-0.250189
H84	H	-1.204579	-1.384122	-0.640570
F85	F	-0.232620	-0.905589	-0.233631
H86	H	-1.105051	-1.262107	-0.762344
H87	H	-0.249577	-1.774911	-1.106342
F88	F	-0.371403	-1.652991	-1.233265
H89	H	-0.249641	-1.774860	-0.907271
