data_functionalizedCrystal
_audit_creation_method	'MofGen! by Chris Wilmer'
_symmetry_space_group_name_H-M	'P1'
_symmetry_Int_Tables_number	1
_symmetry_cell_setting	triclinic
loop_
_symmetry_equiv_pos_as_xyz
  x,y,z
_cell_length_a	19.805405
_cell_length_b	11.169417
_cell_length_c	19.805399
_cell_angle_alpha	89.985031
_cell_angle_beta	89.970699
_cell_angle_gamma	90.027660
loop_
_atom_site_label
_atom_site_type_symbol
_atom_site_fract_x
_atom_site_fract_y
_atom_site_fract_z
Zn1	Zn	-0.269456	1.834774	-0.382628
Zn2	Zn	-0.382645	1.834623	-0.269437
Zn3	Zn	-0.269477	1.634076	-0.269462
Zn4	Zn	-0.382611	1.634012	-0.382593
O5	O	-0.326047	1.734371	-0.326030
O6	O	-0.284476	2.002704	-0.367618
O7	O	-0.367656	1.807984	-0.174724
O8	O	-0.174758	1.660790	-0.284499
O9	O	-0.367635	2.002593	-0.284456
O10	O	-0.174743	1.808242	-0.367642
O11	O	-0.284512	1.660643	-0.174742
O12	O	-0.284480	1.466118	-0.284465
O13	O	-0.367578	1.660679	-0.477314
O14	O	-0.367599	1.466070	-0.367581
O15	O	-0.284444	1.808179	-0.477340
O16	O	-0.477357	1.807922	-0.284422
O17	O	-0.477332	1.660533	-0.367557
C18	C	-0.326038	1.422547	-0.326022
C19	C	-0.326051	1.289147	-0.326035
C20	C	-0.501903	1.734236	-0.325997
C21	C	-0.577135	1.734288	-0.326006
C22	C	-0.612470	1.811108	-0.282763
C23	C	-0.683158	1.811159	-0.282778
C24	C	-0.718511	1.734383	-0.326033
C25	C	-0.683172	1.657560	-0.369281
C26	C	-0.612484	1.657516	-0.369269
C27	C	-0.968245	1.657737	-0.369331
C28	C	-1.038937	1.657785	-0.369338
C29	C	-1.038919	1.811380	-0.282840
C30	C	-0.968232	1.811336	-0.282828
C31	C	-0.932898	1.734518	-0.326078
C32	C	-0.856250	1.734465	-0.326062
C33	C	-0.795158	1.734429	-0.326046
C34	C	-0.149505	1.734540	-0.326078
C35	C	-0.074273	1.734611	-0.326098
C36	C	-0.326005	1.734439	-0.502573
C37	C	-0.325987	1.734467	-0.577805
C38	C	-0.326057	2.047414	-0.326038
C39	C	-0.326061	2.180814	-0.326042
C40	C	-0.282696	1.811272	-0.613164
C41	C	-0.282677	1.811285	-0.683852
C42	C	-0.325951	1.734497	-0.719180
C43	C	-0.369243	1.657684	-0.683817
C44	C	-0.369259	1.657666	-0.613129
C45	C	-0.369180	1.657752	-0.968890
C46	C	-0.369163	1.657778	-1.039582
C47	C	-0.282598	1.811370	-1.039613
C48	C	-0.282614	1.811352	-0.968926
C49	C	-0.325903	1.734535	-0.933568
C50	C	-0.325923	1.734521	-0.856919
C51	C	-0.325935	1.734516	-0.795828
C52	C	-0.326041	1.734373	-0.150174
C53	C	-0.325869	1.734577	-0.074942
H54	H	-0.583690	1.873623	-0.247536
H55	H	-0.247427	1.873830	-0.712638
H56	H	-0.583716	1.594963	-0.404483
H57	H	-0.711925	1.873713	-0.247564
Cl58	Cl	-1.083379	1.561261	-0.423722
H59	H	-0.939450	1.873850	-0.247603
H60	H	-0.247377	1.873884	-0.940165
Cl61	Cl	-0.923835	1.561163	-0.423701
H62	H	-0.711961	1.595053	-0.404503
H63	H	-0.404504	1.595112	-0.584341
Cl64	Cl	-0.228173	1.907937	-1.084067
Cl65	Cl	-1.083342	1.907960	-0.228471
Cl66	Cl	-0.228294	1.907817	-0.568758
Cl67	Cl	-0.423569	1.561236	-1.083994
H68	H	-0.404439	1.595220	-0.940110
Cl69	Cl	-0.423644	1.561146	-0.728229
