data_functionalizedCrystal
_audit_creation_method	'MofGen! by Chris Wilmer'
_symmetry_space_group_name_H-M	'P1'
_symmetry_Int_Tables_number	1
_symmetry_cell_setting	triclinic
loop_
_symmetry_equiv_pos_as_xyz
  x,y,z
_cell_length_a	11.169417
_cell_length_b	16.625546
_cell_length_c	16.625527
_cell_angle_alpha	89.912139
_cell_angle_beta	89.943455
_cell_angle_gamma	90.023347
loop_
_atom_site_label
_atom_site_type_symbol
_atom_site_fract_x
_atom_site_fract_y
_atom_site_fract_z
Zn1	Zn	1.835296	-0.320524	-0.455827
Zn2	Zn	2.085296	-0.070524	-0.205827
Zn3	Zn	2.335296	0.179476	0.044173
Zn4	Zn	2.585296	0.429476	0.294173
Zn5	Zn	1.835014	-0.455502	-0.320989
Zn6	Zn	2.085014	-0.205502	-0.070989
Zn7	Zn	2.335014	0.044498	0.179011
Zn8	Zn	2.585014	0.294498	0.429011
Zn9	Zn	1.634453	-0.320690	-0.321015
Zn10	Zn	1.884453	-0.070690	-0.071015
Zn11	Zn	2.134453	0.179310	0.178985
Zn12	Zn	2.384453	0.429310	0.428985
Zn13	Zn	1.634547	-0.455320	-0.455787
Zn14	Zn	1.884547	-0.205320	-0.205787
Zn15	Zn	2.134547	0.044680	0.044213
Zn16	Zn	2.384547	0.294680	0.294213
O17	O	1.734828	-0.388009	-0.388405
O18	O	1.984828	-0.138009	-0.138405
O19	O	2.234828	0.111991	0.111595
O20	O	2.484828	0.361991	0.361595
O21	O	2.003209	-0.338436	-0.437946
O22	O	2.253209	-0.088436	-0.187946
O23	O	2.503209	0.161564	0.062054
O24	O	2.753209	0.411564	0.312054
O25	O	1.808252	-0.437765	-0.208160
O26	O	2.058252	-0.187765	0.041840
O27	O	2.308252	0.062235	0.291840
O28	O	2.558252	0.312235	0.541840
O29	O	1.661174	-0.207835	-0.338926
O30	O	1.911174	0.042165	-0.088926
O31	O	2.161174	0.292165	0.161074
O32	O	2.411174	0.542165	0.411074
O33	O	2.003002	-0.437604	-0.338881
O34	O	2.253002	-0.187604	-0.088881
O35	O	2.503002	0.062396	0.161119
O36	O	2.753002	0.312396	0.411119
O37	O	1.808733	-0.207714	-0.437972
O38	O	2.058733	0.042286	-0.187972
O39	O	2.308733	0.292286	0.062028
O40	O	2.558733	0.542286	0.312028
O41	O	1.660901	-0.338718	-0.208179
O42	O	1.910901	-0.088718	0.041821
O43	O	2.160901	0.161282	0.291821
O44	O	2.410901	0.411282	0.541821
O45	O	1.466516	-0.338542	-0.338887
O46	O	1.716516	-0.088542	-0.088887
O47	O	1.966516	0.161458	0.161113
O48	O	2.216516	0.411458	0.411113
O49	O	1.661334	-0.437294	-0.568625
O50	O	1.911334	-0.187294	-0.318625
O51	O	2.161334	0.062706	-0.068625
O52	O	2.411334	0.312706	0.181375
O53	O	1.466585	-0.437454	-0.437903
O54	O	1.716585	-0.187454	-0.187903
O55	O	1.966585	0.062546	0.062097
O56	O	2.216585	0.312546	0.312097
O57	O	1.808824	-0.338260	-0.568654
O58	O	2.058824	-0.088260	-0.318654
O59	O	2.308824	0.161740	-0.068654
O60	O	2.558824	0.411740	0.181346
O61	O	1.808343	-0.568311	-0.338843
O62	O	2.058343	-0.318311	-0.088843
O63	O	2.308343	-0.068311	0.161157
O64	O	2.558343	0.181689	0.411157
O65	O	1.661061	-0.568177	-0.437878
O66	O	1.911061	-0.318177	-0.187878
O67	O	2.161061	-0.068177	0.062122
O68	O	2.411061	0.181823	0.312122
C69	C	1.423003	-0.387997	-0.388394
C70	C	1.673003	-0.137997	-0.138394
C71	C	1.923003	0.112003	0.111606
C72	C	2.173003	0.362003	0.361606
C73	C	1.289603	-0.388011	-0.388409
C74	C	1.539603	-0.138011	-0.138409
C75	C	1.789603	0.111989	0.111591
C76	C	2.039603	0.361989	0.361591
C77	C	1.734714	-0.597500	-0.388371
C78	C	1.984714	-0.347500	-0.138371
C79	C	2.234714	-0.097500	0.111629
C80	C	2.484714	0.152500	0.361629
C81	C	1.734775	-0.687121	-0.388383
C82	C	1.984775	-0.437121	-0.138383
C83	C	2.234775	-0.187121	0.111617
C84	C	2.484775	0.062879	0.361617
C85	C	1.734985	-1.015297	-0.388467
C86	C	1.984985	-0.765297	-0.138467
C87	C	2.234985	-0.515297	0.111533
C88	C	2.484985	-0.265297	0.361533
C89	C	1.734923	-0.923988	-0.388446
C90	C	1.984923	-0.673988	-0.138446
C91	C	2.234923	-0.423988	0.111554
C92	C	2.484923	-0.173988	0.361554
C93	C	1.734879	-0.851212	-0.388425
C94	C	1.984879	-0.601212	-0.138425
C95	C	2.234879	-0.351212	0.111575
C96	C	2.484879	-0.101212	0.361575
C97	C	1.734819	-0.759898	-0.388405
C98	C	1.984819	-0.509898	-0.138405
C99	C	2.234819	-0.259898	0.111595
C100	C	2.484819	-0.009898	0.361595
C101	C	2.047870	-0.388022	-0.388415
C102	C	2.297870	-0.138022	-0.138415
C103	C	2.547870	0.111978	0.111585
C104	C	2.797870	0.361978	0.361585
C105	C	2.181270	-0.388027	-0.388420
C106	C	2.431270	-0.138027	-0.138420
C107	C	2.681270	0.111973	0.111580
C108	C	2.931270	0.361973	0.361580
C109	C	1.735121	-0.387738	-0.598714
C110	C	1.985121	-0.137738	-0.348714
C111	C	2.235121	0.112262	-0.098714
C112	C	2.485121	0.362262	0.151286
C113	C	1.735246	-0.387623	-0.688335
C114	C	1.985246	-0.137623	-0.438335
C115	C	2.235246	0.112377	-0.188335
C116	C	2.485246	0.362377	0.061665
C117	C	1.734975	-0.177700	-0.388456
C118	C	1.984975	0.072300	-0.138456
C119	C	2.234975	0.322300	0.111544
C120	C	2.484975	0.572300	0.361544
C121	C	1.735037	-0.088079	-0.388478
C122	C	1.985037	0.161921	-0.138478
C123	C	2.235037	0.411921	0.111522
C124	C	2.485037	0.661921	0.361522
C125	C	1.734605	-0.388221	-0.178913
C126	C	1.984605	-0.138221	0.071087
C127	C	2.234605	0.111779	0.321087
C128	C	2.484605	0.361779	0.571087
C129	C	1.734713	-0.388109	-0.089292
C130	C	1.984713	-0.138109	0.160708
C131	C	2.234713	0.111891	0.410708
C132	C	2.484713	0.361891	0.660708
C133	C	1.735158	-0.387714	0.238882
C134	C	1.985158	-0.137714	0.488882
C135	C	2.235158	0.112286	0.738882
C136	C	2.485158	0.362286	0.988882
C137	C	1.735038	-0.387827	0.147574
C138	C	1.985038	-0.137827	0.397574
C139	C	2.235038	0.112173	0.647574
C140	C	2.485038	0.362173	0.897574
C141	C	1.734935	-0.387912	0.074798
C142	C	1.984935	-0.137912	0.324798
C143	C	2.234935	0.112088	0.574798
C144	C	2.484935	0.362088	0.824798
C145	C	1.734816	-0.388024	-0.016516
C146	C	1.984816	-0.138024	0.233484
C147	C	2.234816	0.111976	0.483484
C148	C	2.484816	0.361976	0.733484
