data_functionalizedCrystal
_audit_creation_method	'MofGen! by Chris Wilmer'
_symmetry_space_group_name_H-M	'P1'
_symmetry_Int_Tables_number	1
_symmetry_cell_setting	triclinic
loop_
_symmetry_equiv_pos_as_xyz
  x,y,z
_cell_length_a	14.908783
_cell_length_b	12.645330
_cell_length_c	12.645324
_cell_angle_alpha	90.033794
_cell_angle_beta	93.321471
_cell_angle_gamma	93.303653
loop_
_atom_site_label
_atom_site_type_symbol
_atom_site_fract_x
_atom_site_fract_y
_atom_site_fract_z
Zn1	Zn	1.379313	-0.328548	0.693083
Zn2	Zn	1.379227	-0.505863	0.515811
Zn3	Zn	1.228440	-0.338826	0.505584
Zn4	Zn	1.228436	-0.515988	0.682788
O5	O	1.303854	-0.422306	0.599316
O6	O	1.505549	-0.343531	0.678156
O7	O	1.359191	-0.483769	0.366104
O8	O	1.248491	-0.189113	0.530484
O9	O	1.505486	-0.473803	0.547915
O10	O	1.359337	-0.181562	0.668239
O11	O	1.248408	-0.361047	0.358591
O12	O	1.102192	-0.370865	0.520501
O13	O	1.248484	-0.491060	0.832503
O14	O	1.102189	-0.501026	0.650692
O15	O	1.359333	-0.353349	0.840067
O16	O	1.359187	-0.655556	0.537932
O17	O	1.248401	-0.662995	0.660609
C18	C	1.069456	-0.438160	0.583371
C19	C	0.969179	-0.444968	0.576574
C20	C	0.780812	-0.322294	0.699630
C21	C	0.686593	-0.328687	0.693248
C22	C	0.686521	-0.464141	0.557422
C23	C	0.780740	-0.457748	0.563804
C24	C	0.827882	-0.386823	0.634912
C25	C	0.922102	-0.380436	0.641299
C26	C	0.922028	-0.515884	0.505469
C27	C	0.827809	-0.522277	0.499086
C28	C	1.303809	-0.697739	0.599288
C29	C	1.303872	-0.815565	0.599317
C30	C	1.373455	-0.978412	0.521967
C31	C	1.373682	-0.855837	0.522183
C32	C	1.329657	-0.858187	0.712813
C33	C	1.330209	-0.980748	0.712415
C34	C	1.208476	-0.989356	0.564271
C35	C	1.208933	-0.866721	0.561796
C36	C	1.539168	-0.406391	0.615325
C37	C	1.639444	-0.399609	0.622147
C38	C	1.303918	-0.422187	0.875826
C39	C	1.303945	-0.422136	0.993658
C40	C	1.303924	-0.145796	0.599369
C41	C	1.303954	-0.027964	0.599392
C42	C	1.303843	-0.422345	0.323886
C43	C	1.303990	-0.422085	0.206066
C44	C	1.373695	-0.335484	1.043300
C45	C	1.373995	-0.335677	1.165880
C46	C	1.329446	-0.532179	1.163266
C47	C	1.329926	-0.531700	1.040701
C48	C	1.208572	-0.399673	1.032354
C49	C	1.209109	-0.397144	1.154998
H50	H	0.960362	-0.568437	0.452779
H51	H	1.185028	-1.021963	0.482614
H52	H	1.280576	-0.832358	0.772324
H53	H	0.648272	-0.276138	0.745945
N54	N	0.779651	-0.594707	0.426443
N55	N	0.727053	-0.560905	0.355385
H56	H	0.693042	-0.612061	0.304079
H57	H	0.960484	-0.322687	0.699199
N58	N	1.353438	-0.819590	0.416864
N59	N	1.339045	-0.884858	0.342685
H60	H	1.324750	-0.859265	0.268297
N61	N	1.461662	-1.010569	0.552271
N62	N	1.523219	-0.942404	0.577625
H63	H	1.585501	-0.964967	0.599336
N64	N	0.828985	-0.249867	0.772265
N65	N	0.881587	-0.283675	0.843314
H66	H	0.915610	-0.232523	0.894614
N67	N	1.417752	-1.010613	0.748786
N68	N	1.427029	-1.066555	0.829709
H69	H	1.488858	-1.087645	0.855396
N70	N	1.140465	-0.471150	1.188661
N71	N	1.060497	-0.463180	1.155603
H72	H	1.012018	-0.515460	1.179367
N73	N	1.353471	-1.016867	0.416367
N74	N	1.287775	-1.081247	0.396933
H75	H	1.273658	-1.108413	0.322350
H76	H	1.398388	-0.552397	1.198687
H77	H	0.648121	-0.521872	0.499518
N78	N	1.143374	-0.478918	0.991470
N79	N	1.077753	-0.452953	0.933155
H80	H	1.031712	-0.508921	0.904275
H81	H	1.444399	-0.821637	0.545927
H82	H	1.281805	-1.013686	0.772440
N83	N	1.416217	-0.813690	0.749623
N84	N	1.459065	-0.750590	0.692474
H85	H	1.520199	-0.719163	0.718466
N86	N	1.184553	-0.832010	0.456974
N87	N	1.236854	-0.769828	0.410015
H88	H	1.219639	-0.745309	0.335983
N89	N	1.184994	-0.295548	1.189856
N90	N	1.170438	-0.224113	1.123841
H91	H	1.153405	-0.152360	1.148464
H92	H	1.154356	-0.839796	0.613533
N93	N	1.143517	-1.030158	0.634907
N94	N	1.130025	-1.127981	0.645288
H95	H	1.084154	-1.156803	0.695178
N96	N	1.354055	-0.233026	1.202289
N97	N	1.339821	-0.160738	1.137133
H98	H	1.325741	-0.088235	1.162841
H99	H	1.357975	-0.253399	1.012779
N100	N	1.461843	-0.353280	1.010646
N101	N	1.473517	-0.429504	0.950974
H102	H	1.535771	-0.442077	0.927910
N103	N	1.462668	-0.353712	1.208701
N104	N	1.524524	-0.366202	1.148040
H105	H	1.587153	-0.378944	1.178280
H106	H	1.399634	-0.551442	1.016849
H107	H	1.281295	-0.598116	1.007689
N108	N	1.267678	-0.615009	1.195583
N109	N	1.204056	-0.593772	1.250653
H110	H	1.160430	-0.652269	1.273478
H111	H	1.185316	-0.321117	0.999861
