data_functionalizedCrystal
_audit_creation_method	'MofGen! by Chris Wilmer'
_symmetry_space_group_name_H-M	'P1'
_symmetry_Int_Tables_number	1
_symmetry_cell_setting	triclinic
loop_
_symmetry_equiv_pos_as_xyz
  x,y,z
_cell_length_a	10.723023
_cell_length_b	17.019294
_cell_length_c	9.798715
_cell_angle_alpha	86.117884
_cell_angle_beta	89.996770
_cell_angle_gamma	83.929680
loop_
_atom_site_label
_atom_site_type_symbol
_atom_site_fract_x
_atom_site_fract_y
_atom_site_fract_z
O1	O	1.655493	0.110633	-0.126476
O2	O	1.292178	0.121224	-0.127727
O3	O	1.483971	0.001151	-0.113606
O4	O	1.463700	0.230706	-0.140597
O5	O	1.483956	0.001151	0.113376
O6	O	1.292164	0.121224	0.099256
O7	O	1.655479	0.110633	0.100506
Zn8	Zn	1.473819	0.115928	0.135919
Zn9	Zn	1.473838	0.115929	-0.163140
O10	O	1.463686	0.230706	0.086385
C11	C	1.245683	0.120453	-0.014146
C12	C	1.107164	0.118148	-0.013877
C13	C	1.045400	0.117120	0.103827
C14	C	0.902234	0.114737	0.104107
C15	C	1.483195	-0.028243	0.003338
C16	C	1.480889	-0.115825	0.013627
C17	C	1.479816	-0.156967	-0.105266
C18	C	1.477642	-0.239260	-0.095594
C19	C	1.476549	-0.280410	0.032972
C20	C	1.477618	-0.239262	0.151874
C21	C	1.479784	-0.156970	0.142201
C22	C	1.470002	-0.528878	0.068369
C23	C	1.467840	-0.611176	0.078033
C24	C	1.467862	-0.611168	-0.169437
C25	C	1.470035	-0.528875	-0.179098
C26	C	1.471097	-0.487734	-0.060196
C27	C	1.474330	-0.364527	0.042861
C28	C	1.473307	-0.403618	-0.070087
C29	C	1.701973	0.111404	-0.013078
C30	C	1.840492	0.113709	-0.013356
C31	C	1.464462	0.260100	-0.030562
C32	C	1.466767	0.347682	-0.040860
N33	N	1.473815	0.115928	0.340019
N34	N	1.473851	0.115923	-0.367239
C35	C	1.554347	0.065290	0.413751
C36	C	1.554367	0.065287	0.570914
H37	H	0.893599	0.114598	-0.114132
H38	H	1.473445	-0.398040	0.147541
O39	O	1.391763	0.167683	0.557010
C40	C	1.458795	0.216573	0.468624
H41	H	1.556398	0.185544	0.450985
H42	H	1.406807	0.228788	0.366662
H43	H	1.467384	0.274918	0.516752
O44	O	1.391523	0.167539	0.403670
C45	C	1.314475	0.124948	0.491318
H46	H	1.364048	0.063425	0.519805
H47	H	1.294915	0.157726	0.588007
H48	H	1.222159	0.119253	0.437021
H49	H	1.623275	0.021936	0.360526
O50	O	1.636794	0.013641	0.646447
C51	C	1.760410	0.026919	0.610017
H52	H	1.761219	0.090039	0.563231
H53	H	1.822957	0.018146	0.705066
H54	H	1.797014	-0.016688	0.532300
O55	O	1.043928	0.117203	-0.133953
C56	C	1.061366	0.185940	-0.217335
H57	H	1.151152	0.210250	-0.185145
H58	H	1.068896	0.170676	-0.328740
H59	H	0.978154	0.232476	-0.205547
H60	H	1.474188	-0.370109	-0.174765
H61	H	1.098514	0.117999	0.204389
H62	H	0.849118	0.113857	0.204877
O63	O	1.480820	-0.117115	-0.230266
C64	C	1.479436	-0.171081	-0.333128
H65	H	1.438405	-0.226690	-0.290315
H66	H	1.419515	-0.142625	-0.423012
H67	H	1.579266	-0.187567	-0.369234
O68	O	1.480994	-0.116932	0.257603
C69	C	1.590274	-0.077692	0.260428
H70	H	1.626624	-0.068140	0.151883
H71	H	1.567490	-0.017950	0.305779
H72	H	1.665071	-0.115254	0.325907
H73	H	1.476774	-0.272754	-0.192410
H74	H	1.470926	-0.495376	-0.283791
H75	H	1.466994	-0.644674	-0.266240
O76	O	1.466720	-0.651024	0.203038
C77	C	1.468151	-0.597069	0.305912
H78	H	1.430209	-0.535355	0.262389
H79	H	1.406964	-0.616172	0.394685
H80	H	1.568434	-0.596049	0.343848
H81	H	1.470892	-0.495392	0.165188
H82	H	1.476721	-0.272772	0.256556
