data_functionalizedCrystal
_audit_creation_method	'MofGen! by Chris Wilmer'
_symmetry_space_group_name_H-M	'P1'
_symmetry_Int_Tables_number	1
_symmetry_cell_setting	triclinic
loop_
_symmetry_equiv_pos_as_xyz
  x,y,z
_cell_length_a	12.759401
_cell_length_b	17.637651
_cell_length_c	17.640618
_cell_angle_alpha	109.664195
_cell_angle_beta	101.226142
_cell_angle_gamma	101.219647
loop_
_atom_site_label
_atom_site_type_symbol
_atom_site_fract_x
_atom_site_fract_y
_atom_site_fract_z
Zn1	Zn	1.650792	-0.233952	0.399552
Zn2	Zn	1.561604	-0.399691	0.233822
Zn3	Zn	1.430553	-0.261851	0.261738
Zn4	Zn	1.430542	-0.371776	0.371624
O5	O	1.518373	-0.316818	0.316684
O6	O	1.785981	-0.255945	0.377572
O7	O	1.506899	-0.404765	0.122179
O8	O	1.497098	-0.142784	0.303390
O9	O	1.720455	-0.377713	0.255811
O10	O	1.658906	-0.122287	0.404641
O11	O	1.410616	-0.303495	0.142689
O12	O	1.283531	-0.276426	0.276310
O13	O	1.497080	-0.330134	0.490675
O14	O	1.283523	-0.357187	0.357043
O15	O	1.658896	-0.228876	0.511193
O16	O	1.506888	-0.511354	0.228731
O17	O	1.410598	-0.490845	0.329974
C18	C	1.245406	-0.316805	0.316676
C19	C	1.128630	-0.316816	0.316688
C20	C	0.964006	-0.358976	0.358629
C21	C	1.073730	-0.358969	0.358622
C22	C	1.073797	-0.274675	0.274750
C23	C	0.964072	-0.274688	0.274752
C24	C	1.201721	-0.450291	0.368212
C25	C	1.256556	-0.492422	0.410159
C26	C	1.242840	-0.488925	0.487979
C27	C	1.174300	-0.443284	0.523870
C28	C	1.119474	-0.401147	0.481929
C29	C	1.133180	-0.404661	0.404095
C30	C	0.836081	-0.183362	0.265171
C31	C	0.781256	-0.141219	0.223234
C32	C	0.794973	-0.144707	0.145415
C33	C	0.863522	-0.190334	0.109530
C34	C	0.918347	-0.232477	0.151466
C35	C	0.904622	-0.228990	0.229284
C36	C	1.449098	-0.531009	0.273311
C37	C	1.419567	-0.622635	0.254783
C38	C	1.743482	-0.870274	0.457698
C39	C	1.715695	-0.956374	0.440274
C40	C	1.547261	-0.977846	0.334739
C41	C	1.575036	-0.891747	0.352151
C42	C	1.673147	-0.837967	0.413632
C43	C	1.504701	-0.859440	0.308086
C44	C	1.532472	-0.773348	0.325500
C45	C	1.630577	-0.719562	0.386980
C46	C	1.700918	-0.751875	0.431047
C47	C	1.406587	-0.913220	0.246610
C48	C	1.336252	-0.880913	0.202544
C49	C	1.364026	-0.794820	0.219954
C50	C	1.462131	-0.741035	0.281434
C51	C	1.293685	-0.762507	0.175888
C52	C	1.321456	-0.676415	0.193302
C53	C	1.489902	-0.654943	0.298848
C54	C	1.792405	-0.316831	0.316693
C55	C	1.909181	-0.316836	0.316697
C56	C	1.587935	-0.273279	0.531678
C57	C	1.617579	-0.254726	0.623296
C58	C	1.587952	-0.101786	0.360245
C59	C	1.617603	-0.010153	0.378808
C60	C	1.449160	-0.360127	0.102538
C61	C	1.419796	-0.378449	0.010968
C62	C	1.743601	-0.175860	0.763110
C63	C	1.715737	-0.193300	0.677020
C64	C	1.547243	-0.298732	0.655648
C65	C	1.575090	-0.281298	0.741739
C66	C	1.673271	-0.219862	0.795463
C67	C	1.504761	-0.325300	0.774092
C68	C	1.532609	-0.307870	0.860174
C69	C	1.630787	-0.246438	0.913904
C70	C	1.701119	-0.202432	0.881546
C71	C	1.406584	-0.386741	0.720365
C72	C	1.336255	-0.430743	0.752718
C73	C	1.364099	-0.413309	0.838803
C74	C	1.462277	-0.351877	0.892532
C75	C	1.293766	-0.457315	0.871161
C76	C	1.321615	-0.439885	0.957243
C77	C	1.490125	-0.334447	0.978615
H78	H	1.163152	-0.440432	0.587243
H79	H	1.213798	-0.806306	0.125836
C80	C	1.187170	-0.524093	0.812953
C81	C	1.131556	-0.558919	0.859708
C82	C	1.033370	-0.620452	0.806114
H83	H	1.140600	-0.499464	0.785722
H84	H	1.204868	-0.566851	0.772119
H85	H	1.113856	-0.516169	0.900528
H86	H	1.178094	-0.583564	0.886938
H87	H	1.051067	-0.663210	0.765279
H88	H	0.986809	-0.595817	0.778885
H89	H	0.995628	-0.644095	0.837828
C90	C	0.821328	-0.179409	0.349742
C91	C	0.857806	-0.095765	0.407012
C92	C	0.844249	-0.092090	0.484930
H93	H	0.744910	-0.202053	0.343874
H94	H	0.863828	-0.211001	0.369624
H95	H	0.815306	-0.064185	0.387135
H96	H	0.934224	-0.073105	0.412905
H97	H	0.886748	-0.123682	0.504812
H98	H	0.767830	-0.114737	0.479054
H99	H	0.869006	-0.035340	0.523799
C100	C	1.229787	-0.497512	0.694263
C101	C	1.256194	-0.560350	0.634131
C102	C	1.158144	-0.621865	0.580259
H103	H	1.191801	-0.521324	0.725744
H104	H	1.183354	-0.472802	0.667014
H105	H	1.302610	-0.585058	0.661377
H106	H	1.294166	-0.536563	0.602629
H107	H	1.111711	-0.597154	0.553011
H108	H	1.120165	-0.645670	0.611748
H109	H	1.176047	-0.664503	0.539449
C110	C	1.245028	-0.641258	0.145608
C111	C	1.208644	-0.582426	0.202229
C112	C	1.138223	-0.550028	0.158326
H113	H	1.284379	-0.614865	0.116518
H114	H	1.182571	-0.685586	0.106516
H115	H	1.271091	-0.538106	0.241306
H116	H	1.169275	-0.608799	0.231321
H117	H	1.075765	-0.594356	0.119234
H118	H	1.177582	-0.523639	0.129238
H119	H	1.113519	-0.510113	0.196735
H120	H	1.312360	-0.529584	0.380929
H121	H	1.569800	-0.611154	0.348906
H122	H	0.874693	-0.193171	0.046165
C123	C	0.735306	-0.098932	0.099992
C124	C	0.672321	-0.058236	0.148063
C125	C	0.617329	-0.016076	0.106238
H126	H	0.788543	-0.058709	0.091965
H127	H	0.687471	-0.138169	0.047038
H128	H	0.720151	-0.019003	0.201001
H129	H	0.619065	-0.098440	0.156092
H130	H	0.569494	-0.055313	0.053284
H131	H	0.670574	0.024143	0.098213
H132	H	0.574579	0.011535	0.138844
H133	H	1.823380	-0.826485	0.507756
C134	C	1.596646	-0.267744	1.037095
C135	C	1.605964	-0.261890	1.119408
C136	C	1.704065	-0.200451	1.173303
H137	H	1.658861	-0.282597	1.020657
H138	H	1.594646	-0.215177	1.034266
H139	H	1.607974	-0.314445	1.122234
H140	H	1.543773	-0.247027	1.135872
H141	H	1.702065	-0.147884	1.170474
H142	H	1.766272	-0.215309	1.156858
H143	H	1.710395	-0.196465	1.229159
H144	H	1.063674	-0.363984	0.511152
H145	H	1.287495	-0.523229	0.522132
C146	C	1.376543	-0.405676	0.626900
C147	C	1.460544	-0.432462	0.594144
C148	C	1.432905	-0.449904	0.508051
H149	H	1.308047	-0.448587	0.599445
H150	H	1.369327	-0.356417	0.618176
H151	H	1.467747	-0.481716	0.602862
H152	H	1.529048	-0.389564	0.621575
H153	H	1.425690	-0.400645	0.499326
H154	H	1.364407	-0.492813	0.480603
H155	H	1.489900	-0.468073	0.485816
C156	C	1.807789	-0.135722	0.939743
C157	C	1.863437	-0.100922	0.892986
C158	C	1.961706	-0.039478	0.946566
H159	H	1.790222	-0.092930	0.980617
H160	H	1.854282	-0.160446	0.966923
H161	H	1.816954	-0.076197	0.865820
H162	H	1.881032	-0.143693	0.852115
H163	H	2.008198	-0.064203	0.973746
H164	H	1.944128	0.003308	0.987438
H165	H	1.999480	-0.015865	0.914849
H166	H	1.264346	-0.475716	0.983585
H167	H	1.823540	-0.125822	0.806859
C168	C	1.133478	-0.229053	0.229144
C169	C	1.164311	-0.286353	0.166816
C170	C	1.219304	-0.244353	0.124796
H171	H	1.085213	-0.203955	0.204093
H172	H	1.198152	-0.186798	0.267974
H173	H	1.099647	-0.328593	0.127992
H174	H	1.212589	-0.311454	0.191845
H175	H	1.283978	-0.202097	0.163626
H176	H	1.171032	-0.219256	0.099750
H177	H	1.240240	-0.283222	0.082507
C178	C	1.807339	-0.693489	0.497927
C179	C	1.803997	-0.697885	0.575238
C180	C	1.901997	-0.644101	0.636868
H181	H	1.869605	-0.709932	0.483186
H182	H	1.813804	-0.637571	0.502041
H183	H	1.797543	-0.753790	0.571123
H184	H	1.741752	-0.681434	0.590005
H185	H	1.908462	-0.588184	0.640982
H186	H	1.964256	-0.660550	0.622119
H187	H	1.899738	-0.647071	0.689332
C188	C	1.660901	-0.626058	0.406041
C189	C	1.761861	-0.585875	0.469327
C190	C	1.789823	-0.499739	0.486916
H191	H	1.668288	-0.617245	0.356871
H192	H	1.604000	-0.603695	0.424229
H193	H	1.818749	-0.608231	0.451136
H194	H	1.754501	-0.594664	0.518510
H195	H	1.732922	-0.477376	0.505104
H196	H	1.797204	-0.490934	0.437741
H197	H	1.858321	-0.472462	0.529862
H198	H	0.919316	-0.393297	0.392783
H199	H	0.974164	-0.269627	0.122242
C200	C	1.792223	-0.991292	0.488198
C201	C	1.884090	-0.925765	0.545760
C202	C	1.954606	-0.957899	0.589923
H203	H	1.752888	-1.017599	0.517357
H204	H	1.817094	-1.031227	0.449947
H205	H	1.859220	-0.885846	0.584006
H206	H	1.923454	-0.899452	0.516623
H207	H	1.979476	-0.997834	0.551672
H208	H	1.915261	-0.984206	0.619076
H209	H	2.016950	-0.913446	0.628978
C210	C	1.792024	-0.145379	0.641959
C211	C	1.802305	-0.059569	0.679402
C212	C	1.872558	-0.015406	0.647112
H213	H	1.863334	-0.154494	0.653610
H214	H	1.761381	-0.164508	0.583000
H215	H	1.832952	-0.040446	0.738347
H216	H	1.731015	-0.050429	0.667754
H217	H	1.841914	-0.034535	0.588153
H218	H	1.943862	-0.024528	0.658765
H219	H	1.879534	0.042819	0.672507
H220	H	1.467306	-0.348756	0.611894
H221	H	1.212881	-0.453155	0.304839
C222	C	1.440617	-1.036176	0.268100
C223	C	1.349166	-1.011676	0.290207
C224	C	1.250908	-1.065395	0.228843
H225	H	1.442528	-1.033333	0.215544
H226	H	1.434078	-1.092083	0.264046
H227	H	1.355703	-0.955783	0.294252
H228	H	1.347219	-1.014523	0.342753
H229	H	1.244370	-1.121302	0.224788
H230	H	1.252830	-1.062548	0.176290
H231	H	1.188847	-1.048784	0.243837
H232	H	0.725449	-0.104061	0.252463
H233	H	1.383972	-0.983320	0.232441
H234	H	1.256368	-0.924711	0.152489
H235	H	1.653461	-0.232250	0.983997
