data_functionalizedCrystal
_audit_creation_method	'MofGen! by Chris Wilmer'
_symmetry_space_group_name_H-M	'P1'
_symmetry_Int_Tables_number	1
_symmetry_cell_setting	triclinic
loop_
_symmetry_equiv_pos_as_xyz
  x,y,z
_cell_length_a	18.050591
_cell_length_b	18.215405
_cell_length_c	18.215399
_cell_angle_alpha	89.969449
_cell_angle_beta	89.974300
_cell_angle_gamma	90.020891
loop_
_atom_site_label
_atom_site_type_symbol
_atom_site_fract_x
_atom_site_fract_y
_atom_site_fract_z
Zn1	Zn	1.135345	-0.293070	-0.416218
Zn2	Zn	1.135252	-0.416141	-0.293146
Zn3	Zn	1.011154	-0.293085	-0.293152
Zn4	Zn	1.011119	-0.416091	-0.416158
O5	O	1.073217	-0.354597	-0.354669
O6	O	1.239257	-0.309411	-0.399914
O7	O	1.118766	-0.399845	-0.190162
O8	O	1.027681	-0.190099	-0.309505
O9	O	1.239189	-0.399831	-0.309494
O10	O	1.118924	-0.190088	-0.399921
O11	O	1.027591	-0.309436	-0.190167
O12	O	0.907224	-0.309387	-0.309447
O13	O	1.027622	-0.399745	-0.519150
O14	O	0.907199	-0.399759	-0.399819
O15	O	1.118890	-0.309362	-0.519194
O16	O	1.118733	-0.519119	-0.309436
O17	O	1.027533	-0.519082	-0.399813
C18	C	1.073139	-0.545803	-0.354633
C19	C	1.073173	-0.627602	-0.354643
C20	C	0.880265	-0.354569	-0.354628
C21	C	0.797720	-0.354575	-0.354628
C22	C	1.120773	-0.815791	-0.307670
C23	C	1.120806	-0.892650	-0.307688
C24	C	1.025757	-0.892651	-0.401720
C25	C	1.025728	-0.815794	-0.401705
C26	C	1.073235	-0.777365	-0.354676
C27	C	1.073297	-0.931082	-0.354709
C28	C	1.073333	-1.014415	-0.354728
C29	C	1.073201	-0.694027	-0.354657
C30	C	0.598261	-0.305374	-0.305597
C31	C	0.548844	-0.372499	-0.287483
C32	C	0.646589	-0.354598	-0.354661
C33	C	0.548925	-0.287496	-0.372773
C34	C	0.500604	-0.354613	-0.354692
C35	C	0.598259	-0.421758	-0.336512
C36	C	0.598344	-0.336710	-0.421833
C37	C	0.548949	-0.403881	-0.403745
C38	C	0.730687	-0.354588	-0.354642
C39	C	0.416508	-0.354631	-0.354712
C40	C	1.266923	-0.354625	-0.354710
C41	C	1.349469	-0.354637	-0.354727
C42	C	1.073263	-0.354546	-0.546622
C43	C	1.073282	-0.354524	-0.628420
C44	C	1.073316	-0.162644	-0.354720
C45	C	1.073359	-0.080845	-0.354742
C46	C	1.120822	-0.307418	-0.816639
C47	C	1.120831	-0.307397	-0.893497
C48	C	1.025794	-0.401517	-0.893440
C49	C	1.025782	-0.401534	-0.816583
C50	C	1.073300	-0.354486	-0.778184
C51	C	1.073321	-0.354447	-0.931900
C52	C	1.073331	-0.354424	-1.015234
C53	C	1.073290	-0.354508	-0.694845
C54	C	1.073215	-0.354594	-0.163462
C55	C	1.073340	-0.354409	-0.081664
H56	H	1.159457	-0.784504	-0.269377
F57	F	0.975133	-0.774896	-0.451742
H58	H	0.987108	-0.439824	-0.924714
F59	F	1.171404	-0.933541	-0.257659
F60	F	0.975199	-0.933555	-0.451767
F61	F	0.626784	-0.316895	-0.496046
F62	F	0.975197	-0.451629	-0.775655
F63	F	0.520594	-0.213317	-0.392778
F64	F	0.626564	-0.251023	-0.251308
F65	F	0.520424	-0.392290	-0.213252
F66	F	1.171415	-0.257306	-0.934420
H67	H	0.527434	-0.445563	-0.445250
F68	F	0.626463	-0.495960	-0.316420
H69	H	1.159513	-0.269106	-0.785376
