data_functionalizedCrystal
_audit_creation_method	'MofGen! by Chris Wilmer'
_symmetry_space_group_name_H-M	'P1'
_symmetry_Int_Tables_number	1
_symmetry_cell_setting	triclinic
loop_
_symmetry_equiv_pos_as_xyz
  x,y,z
_cell_length_a	25.639242
_cell_length_b	25.639240
_cell_length_c	17.077396
_cell_angle_alpha	90.038257
_cell_angle_beta	90.020548
_cell_angle_gamma	90.025061
loop_
_atom_site_label
_atom_site_type_symbol
_atom_site_fract_x
_atom_site_fract_y
_atom_site_fract_z
Zn1	Zn	0.799279	-0.208258	0.443811
Zn2	Zn	1.299279	0.291742	0.943811
Zn3	Zn	0.799202	-0.295696	0.312523
Zn4	Zn	1.299202	0.204304	0.812523
Zn5	Zn	0.711845	-0.208264	0.312557
Zn6	Zn	1.211845	0.291736	0.812557
Zn7	Zn	0.711809	-0.295653	0.443744
Zn8	Zn	1.211809	0.204347	0.943744
O9	O	0.755534	-0.251968	0.378159
O10	O	1.255534	0.248032	0.878159
O11	O	0.872434	-0.219872	0.426409
O12	O	1.372434	0.280128	0.926409
O13	O	0.787597	-0.284118	0.202680
O14	O	1.287597	0.215882	0.702680
O15	O	0.723491	-0.135098	0.330010
O16	O	1.223491	0.364902	0.830010
O17	O	0.872377	-0.284112	0.329952
O18	O	1.372377	0.215888	0.829952
O19	O	0.787728	-0.135094	0.426442
O20	O	1.287728	0.364906	0.926442
O21	O	0.723416	-0.219883	0.202705
O22	O	1.223416	0.280117	0.702705
O23	O	0.638675	-0.219841	0.329945
O24	O	1.138675	0.280159	0.829945
O25	O	0.723429	-0.284039	0.553600
O26	O	1.223429	0.215961	1.053600
O27	O	0.638649	-0.284045	0.426328
O28	O	1.138649	0.215955	0.926328
O29	O	0.787693	-0.219831	0.553649
O30	O	1.287693	0.280169	1.053649
O31	O	0.787561	-0.368855	0.329887
O32	O	1.287561	0.131145	0.829887
O33	O	0.723354	-0.368824	0.426295
O34	O	1.223354	0.131176	0.926295
C35	C	0.619691	-0.251939	0.378133
C36	C	1.119691	0.248061	0.878133
C37	C	0.561577	-0.251940	0.378141
C38	C	1.061577	0.248060	0.878141
C39	C	0.310421	-0.218577	0.428475
C40	C	0.810421	0.281423	0.928475
C41	C	0.365025	-0.218572	0.428471
C42	C	0.865025	0.281428	0.928471
O43	O	0.393294	-0.190183	0.471262
O44	O	0.893294	0.309817	0.971262
N45	N	0.392303	-0.251962	0.378168
N46	N	0.892303	0.248038	0.878168
C47	C	0.364974	-0.285362	0.327871
C48	C	0.864974	0.214638	0.827871
O49	O	0.393190	-0.313763	0.285084
O50	O	0.893190	0.186237	0.785084
C51	C	0.310370	-0.285370	0.327880
C52	C	0.810370	0.214630	0.827880
C53	C	0.283096	-0.251974	0.378181
C54	C	0.783096	0.248026	0.878181
C55	C	0.283146	-0.185185	0.478773
C56	C	0.783146	0.314815	0.978773
C57	C	0.228546	-0.185190	0.478776
C58	C	0.728546	0.314810	0.978776
C59	C	0.201220	-0.218587	0.428482
C60	C	0.701220	0.281413	0.928482
C61	C	0.228495	-0.251979	0.378184
C62	C	0.728495	0.248021	0.878184
C63	C	0.283042	-0.318772	0.277588
C64	C	0.783042	0.181228	0.777588
C65	C	0.228435	-0.318777	0.277602
C66	C	0.728435	0.181223	0.777602
C67	C	0.201160	-0.285382	0.327903
C68	C	0.701160	0.214618	0.827903
C69	C	0.146569	-0.285380	0.327893
C70	C	0.646569	0.214620	0.827893
N71	N	0.119291	-0.251991	0.378197
N72	N	0.619291	0.248009	0.878197
C73	C	0.146617	-0.218594	0.428491
C74	C	0.646617	0.281406	0.928491
C75	C	0.479644	-0.285345	0.327857
C76	C	0.979644	0.214655	0.827857
C77	C	0.534247	-0.285335	0.327843
C78	C	1.034247	0.214665	0.827843
C79	C	0.534295	-0.218546	0.428445
C80	C	1.034295	0.281454	0.928445
C81	C	0.479691	-0.218553	0.428454
C82	C	0.979691	0.281447	0.928454
C83	C	0.452367	-0.251955	0.378160
C84	C	0.952367	0.248045	0.878160
C85	C	0.031952	-0.218606	0.428493
C86	C	0.531952	0.281394	0.928493
C87	C	-0.022654	-0.218612	0.428490
C88	C	0.477346	0.281388	0.928490
C89	C	-0.022697	-0.285403	0.327892
C90	C	0.477303	0.214597	0.827892
C91	C	0.031904	-0.285395	0.327892
C92	C	0.531904	0.214605	0.827892
C93	C	0.059227	-0.251995	0.378199
C94	C	0.559227	0.248005	0.878199
O95	O	0.118266	-0.313756	0.285127
O96	O	0.618266	0.186244	0.785127
O97	O	0.118394	-0.190203	0.471278
O98	O	0.618394	0.309797	0.971278
C99	C	0.755460	-0.387810	0.378097
C100	C	1.255460	0.112190	0.878097
C101	C	0.755476	-0.445924	0.378097
C102	C	1.255476	0.054076	0.878097
C103	C	0.788998	-0.806247	0.428461
C104	C	1.288998	-0.306247	0.928461
C105	C	0.789014	-0.860851	0.428477
C106	C	1.289014	-0.360851	0.928477
O107	O	0.817428	-0.889053	0.471236
O108	O	1.317428	-0.389053	0.971236
N109	N	0.755606	-0.888207	0.378235
N110	N	1.255606	-0.388207	0.878235
C111	C	0.722177	-0.860956	0.327978
C112	C	1.222177	-0.360956	0.827978
O113	O	0.693763	-0.889238	0.285245
O114	O	1.193763	-0.389238	0.785245
C115	C	0.722160	-0.806352	0.327967
C116	C	1.222160	-0.306352	0.827967
C117	C	0.755573	-0.778999	0.378207
C118	C	1.255573	-0.278999	0.878207
C119	C	0.822409	-0.778893	0.478698
C120	C	1.322409	-0.278893	0.978698
C121	C	0.822394	-0.724293	0.478681
C122	C	1.322394	-0.224293	0.978681
C123	C	0.788969	-0.697045	0.428427
C124	C	1.288969	-0.197045	0.928427
C125	C	0.755558	-0.724399	0.378190
C126	C	1.255558	-0.224399	0.878190
C127	C	0.688728	-0.779102	0.277715
C128	C	1.188728	-0.279102	0.777715
C129	C	0.688713	-0.724495	0.277708
C130	C	1.188713	-0.224495	0.777708
C131	C	0.722127	-0.697142	0.327949
C132	C	1.222127	-0.197142	0.827949
C133	C	0.722118	-0.642551	0.327919
C134	C	1.222118	-0.142551	0.827919
N135	N	0.755526	-0.615195	0.378161
N136	N	1.255526	-0.115195	0.878161
C137	C	0.788951	-0.642442	0.428416
C138	C	1.288951	-0.142442	0.928416
C139	C	0.722216	-0.975626	0.328007
C140	C	1.222216	-0.475626	0.828007
C141	C	0.722236	-1.030229	0.328014
C142	C	1.222236	-0.530229	0.828014
C143	C	0.789072	-1.030120	0.428514
C144	C	1.289072	-0.530120	0.928514
C145	C	0.789054	-0.975517	0.428503
C146	C	1.289054	-0.475517	0.928503
C147	C	0.755624	-0.948270	0.378250
C148	C	1.255624	-0.448270	0.878250
C149	C	0.788918	-0.527777	0.428375
C150	C	1.288918	-0.027777	0.928375
C151	C	0.788901	-0.473172	0.428351
C152	C	1.288901	0.026828	0.928351
C153	C	0.722064	-0.473285	0.327854
C154	C	1.222064	0.026715	0.827854
C155	C	0.722082	-0.527886	0.327875
C156	C	1.222082	-0.027886	0.827875
C157	C	0.755510	-0.555130	0.378142
C158	C	1.255510	-0.055130	0.878142
O159	O	0.693717	-0.614314	0.285184
O160	O	1.193717	-0.114314	0.785184
O161	O	0.817356	-0.614153	0.471149
O162	O	1.317356	-0.114153	0.971149
C163	C	0.891907	-0.251996	0.378185
C164	C	1.391907	0.248004	0.878185
C165	C	0.950021	-0.252009	0.378196
C166	C	1.450021	0.247991	0.878196
C167	C	0.755565	-0.251929	0.582903
C168	C	1.255565	0.248071	1.082903
C169	C	0.755579	-0.251913	0.670153
C170	C	1.255579	0.248087	1.170153
C171	C	0.755622	-0.115595	0.378238
C172	C	1.255622	0.384405	0.878238
C173	C	0.755660	-0.057481	0.378271
C174	C	1.255660	0.442519	0.878271
C175	C	0.755532	-0.251968	0.174211
C176	C	1.255532	0.248032	0.674211
C177	C	0.755620	-0.251838	0.086962
C178	C	1.255620	0.248162	0.586962
C179	C	0.789042	-0.218477	0.711170
C180	C	1.289042	0.281523	1.211170
C181	C	0.789048	-0.218459	0.793151
C182	C	1.289048	0.281541	1.293151
C183	C	0.755594	-0.251881	0.834112
C184	C	1.255594	0.248119	1.334112
C185	C	0.722127	-0.285319	0.793090
C186	C	1.222127	0.214681	1.293090
C187	C	0.722118	-0.285333	0.711111
C188	C	1.222118	0.214667	1.211111
C189	C	0.722148	-0.285287	0.963960
C190	C	1.222148	0.214713	1.463960
C191	C	0.722157	-0.285274	1.045944
C192	C	1.222157	0.214726	1.545944
C193	C	0.789078	-0.218414	1.046000
C194	C	1.289078	0.281586	1.546000
C195	C	0.789069	-0.218428	0.964021
C196	C	1.289069	0.281572	1.464021
C197	C	0.755603	-0.251866	0.923003
C198	C	1.255603	0.248134	1.423003
H199	H	0.556449	-0.312523	0.286875
H200	H	1.056449	0.187477	0.786875
H201	H	-0.044859	-0.191415	0.469451
H202	H	0.455141	0.308585	0.969451
H203	H	0.816288	-1.052315	0.469435
H204	H	1.316288	-0.552315	0.969435
C205	C	0.825693	-0.557739	0.483661
C206	C	1.325693	-0.057739	0.983661
H207	H	0.845590	-0.533621	0.513568
H208	H	1.345590	-0.033621	1.013568
H209	H	0.805693	-0.579036	0.517847
H210	H	1.305693	-0.079036	1.017847
H211	H	0.848494	-0.579037	0.453664
H212	H	1.348494	-0.079037	0.953664
H213	H	0.816286	-0.191262	0.677825
H214	H	1.316286	0.308738	1.177825
C215	C	0.825860	-0.181682	0.838266
C216	C	1.325860	0.318318	1.338266
H217	H	0.845788	-0.161785	0.802130
H218	H	1.345788	0.338215	1.302130
H219	H	0.805881	-0.158889	0.870254
H220	H	1.305881	0.341111	1.370254
H221	H	0.848632	-0.201687	0.870240
H222	H	1.348632	0.298313	1.370240
H223	H	0.694995	-0.953445	0.287078
H224	H	1.194995	-0.453445	0.787078
C225	C	0.825896	-0.181638	1.091115
C226	C	1.325896	0.318362	1.591115
H227	H	0.821109	-0.186413	1.145805
H228	H	1.321109	0.313587	1.645805
H229	H	0.861016	-0.189309	1.077681
H230	H	1.361016	0.310691	1.577681
H231	H	0.818272	-0.146505	1.077702
H232	H	1.318272	0.353495	1.577702
H233	H	0.694851	-0.451092	0.286935
H234	H	1.194851	0.048908	0.786935
C235	C	0.685322	-0.322125	0.665992
C236	C	1.185322	0.177875	1.165992
H237	H	0.665405	-0.342035	0.702127
H238	H	1.165405	0.157965	1.202127
H239	H	0.662547	-0.302137	0.634008
H240	H	1.162547	0.197863	1.134008
H241	H	0.705318	-0.344914	0.634014
H242	H	1.205318	0.155086	1.134014
H243	H	0.816314	-0.191216	0.930672
H244	H	1.316314	0.308784	1.430672
H245	H	0.694888	-0.312508	0.930566
H246	H	1.194888	0.187492	1.430566
C247	C	0.198550	-0.148460	0.534116
C248	C	0.698550	0.351540	1.034116
H249	H	0.222651	-0.128576	0.564070
H250	H	0.722651	0.371424	1.064070
H251	H	0.177246	-0.125652	0.504167
H252	H	0.677246	0.374348	1.004167
H253	H	0.177256	-0.168495	0.568268
H254	H	0.677256	0.331505	1.068268
C255	C	0.651969	-0.809179	0.222455
C256	C	1.151969	-0.309179	0.722455
H257	H	0.632058	-0.785123	0.192537
H258	H	1.132058	-0.285123	0.692537
H259	H	0.671980	-0.830486	0.188278
H260	H	1.171980	-0.330486	0.688278
H261	H	0.629180	-0.830476	0.252464
H262	H	1.129180	-0.330476	0.752464
H263	H	0.457400	-0.312544	0.286896
H264	H	0.957400	0.187456	0.786896
C265	C	0.313196	-0.148442	0.534097
C266	C	0.813196	0.351558	1.034097
H267	H	0.289124	-0.128557	0.564045
H268	H	0.789124	0.371443	1.064045
H269	H	0.334504	-0.168461	0.568245
H270	H	0.834504	0.331539	1.068245
H271	H	0.334491	-0.125629	0.504127
H272	H	0.834491	0.374371	1.004127
H273	H	0.661488	-0.702314	0.236787
H274	H	1.161488	-0.202314	0.736787
H275	H	0.694914	-0.312487	1.079293
H276	H	1.194914	0.187513	1.579293
C277	C	0.198379	-0.355520	0.222279
C278	C	0.698379	0.144480	0.722279
H279	H	0.161952	-0.350746	0.229486
H280	H	0.661952	0.149254	0.729486
H281	H	0.207316	-0.347825	0.169559
H282	H	0.707316	0.152175	0.669559
H283	H	0.207320	-0.390659	0.233675
H284	H	0.707320	0.109341	0.733675
H285	H	0.694885	-0.312529	0.826447
H286	H	1.194885	0.187471	1.326447
C287	C	0.313033	-0.355511	0.222260
C288	C	0.813033	0.144489	0.722260
H289	H	0.288931	-0.375403	0.192320
H290	H	0.788931	0.124597	0.692320
H291	H	0.334331	-0.335486	0.188106
H292	H	0.834331	0.164514	0.688106
H293	H	0.334332	-0.378318	0.252224
H294	H	0.834332	0.121682	0.752224
C295	C	0.061907	-0.322132	0.272567
C296	C	0.561907	0.177868	0.772567
H297	H	0.037811	-0.342025	0.242619
H298	H	0.537811	0.157975	0.742619
H299	H	0.083212	-0.302109	0.238420
H300	H	0.583212	0.197891	0.738420
H301	H	0.083201	-0.344938	0.302542
H302	H	0.583201	0.155062	0.802542
H303	H	0.054191	-0.191408	0.469458
H304	H	0.554191	0.308592	0.969458
H305	H	0.457488	-0.191359	0.469412
H306	H	0.957488	0.308641	0.969412
C307	C	0.859143	-0.694209	0.533952
C308	C	1.359143	-0.194209	1.033952
H309	H	0.854353	-0.657785	0.526751
H310	H	1.354353	-0.157785	1.026751
H311	H	0.851470	-0.703138	0.586682
H312	H	1.351470	-0.203138	1.086682
H313	H	0.894281	-0.703140	0.522513
H314	H	1.394281	-0.203140	1.022513
H315	H	-0.044955	-0.312592	0.286941
H316	H	0.455045	0.187408	0.786941
C317	C	0.564357	-0.181811	0.483774
C318	C	1.064357	0.318189	0.983774
H319	H	0.540296	-0.161921	0.513732
H320	H	1.040296	0.338079	1.013732
H321	H	0.585662	-0.201841	0.517910
H322	H	1.085662	0.298159	1.017910
H323	H	0.585656	-0.159001	0.453804
H324	H	1.085656	0.340999	0.953804
C325	C	0.825653	-0.443086	0.483625
C326	C	1.325653	0.056914	0.983625
H327	H	0.845556	-0.467137	0.513563
H328	H	1.345556	0.032863	1.013563
H329	H	0.848442	-0.421785	0.453630
H330	H	1.348442	0.078215	0.953630
H331	H	0.805628	-0.421783	0.517795
H332	H	1.305628	0.078217	1.017795
H333	H	0.694878	-0.550158	0.286959
H334	H	1.194878	-0.050158	0.786959
C335	C	0.859183	-0.808857	0.533978
C336	C	1.359183	-0.308857	1.033978
H337	H	0.879078	-0.784739	0.563887
H338	H	1.379078	-0.284739	1.063887
H339	H	0.839184	-0.830157	0.568164
H340	H	1.339184	-0.330157	1.068164
H341	H	0.881986	-0.830153	0.503981
H342	H	1.381986	-0.330153	1.003981
H343	H	0.816262	-0.953249	0.469413
H344	H	1.316262	-0.453249	0.969413
H345	H	0.695033	-1.052495	0.287094
H346	H	1.195033	-0.552495	0.787094
