data_functionalizedCrystal
_audit_creation_method	'MofGen! by Chris Wilmer'
_symmetry_space_group_name_H-M	'P1'
_symmetry_Int_Tables_number	1
_symmetry_cell_setting	triclinic
loop_
_symmetry_equiv_pos_as_xyz
  x,y,z
_cell_length_a	13.032831
_cell_length_b	21.295417
_cell_length_c	13.032268
_cell_angle_alpha	82.858212
_cell_angle_beta	89.113023
_cell_angle_gamma	82.833712
loop_
_atom_site_label
_atom_site_type_symbol
_atom_site_fract_x
_atom_site_fract_y
_atom_site_fract_z
Zn1	Zn	1.498345	-0.425104	0.780742
Zn2	Zn	1.998345	0.074896	1.280742
Zn3	Zn	1.520057	-0.518889	0.608741
Zn4	Zn	2.020057	-0.018889	1.108741
Zn5	Zn	1.348211	-0.398808	0.586989
Zn6	Zn	1.848211	0.101192	1.086989
Zn7	Zn	1.326306	-0.515485	0.758867
Zn8	Zn	1.826306	-0.015485	1.258867
O9	O	1.423230	-0.464571	0.683835
O10	O	1.923230	0.035429	1.183835
O11	O	1.645141	-0.449974	0.776184
O12	O	2.145141	0.050026	1.276184
O13	O	1.515515	-0.493379	0.461941
O14	O	2.015515	0.006621	0.961941
O15	O	1.368207	-0.314217	0.612741
O16	O	1.868207	0.185783	1.112741
O17	O	1.661094	-0.518877	0.649816
O18	O	2.161094	-0.018877	1.149816
O19	O	1.478510	-0.333536	0.755091
O20	O	1.978510	0.166464	1.255091
O21	O	1.389261	-0.405156	0.445960
O22	O	1.889261	0.094844	0.945960
O23	O	1.201389	-0.401856	0.591531
O24	O	1.701389	0.098144	1.091531
O25	O	1.330873	-0.513077	0.905684
O26	O	1.830873	-0.013077	1.405684
O27	O	1.185295	-0.487579	0.717809
O28	O	1.685295	0.012421	1.217809
O29	O	1.457269	-0.446673	0.921755
O30	O	1.957269	0.053327	1.421755
O31	O	1.494275	-0.606517	0.628605
O32	O	1.994275	-0.106517	1.128605
O33	O	1.351927	-0.604016	0.738902
O34	O	1.851927	-0.104016	1.238902
C35	C	1.156026	-0.441495	0.649936
C36	C	1.656026	0.058505	1.149936
C37	C	1.041712	-0.431640	0.635459
C38	C	1.541712	0.068360	1.135459
C39	C	0.982824	-0.469715	0.691391
C40	C	1.482824	0.030285	1.191391
C41	C	0.864674	-0.459530	0.676429
C42	C	1.364674	0.040470	1.176429
C43	C	1.423105	-0.628108	0.683766
C44	C	1.923105	-0.128108	1.183766
C45	C	1.423142	-0.698080	0.683783
C46	C	1.923142	-0.198080	1.183783
C47	C	1.480533	-0.740949	0.757947
C48	C	1.980533	-0.240949	1.257947
C49	C	1.480566	-0.806697	0.757977
C50	C	1.980566	-0.306697	1.257977
C51	C	1.423221	-0.829572	0.683826
C52	C	1.923221	-0.329572	1.183826
C53	C	1.365818	-0.786694	0.609656
C54	C	1.865818	-0.286694	1.109656
C55	C	1.365778	-0.720948	0.609635
C56	C	1.865778	-0.220948	1.109635
N57	N	1.426890	-0.926160	0.592840
N58	N	1.926890	-0.426160	1.092840
N59	N	1.426933	-0.988616	0.592864
N60	N	1.926933	-0.488616	1.092864
C61	C	1.423335	-1.027660	0.683888
C62	C	1.923335	-0.527660	1.183888
N63	N	1.419712	-1.001890	0.774891
N64	N	1.919712	-0.501890	1.274891
N65	N	1.419674	-0.939428	0.774866
N66	N	1.919674	-0.439428	1.274866
C67	C	1.423257	-0.900862	0.683842
C68	C	1.923257	-0.400862	1.183842
C69	C	1.480765	-1.141821	0.758090
C70	C	1.980765	-0.641821	1.258090
C71	C	1.480790	-1.207569	0.758121
C72	C	1.980790	-0.707569	1.258121
C73	C	1.366049	-1.187565	0.609792
C74	C	1.866049	-0.687565	1.109792
C75	C	1.366017	-1.121818	0.609769
C76	C	1.866017	-0.621818	1.109769
C77	C	1.423381	-1.098950	0.683918
C78	C	1.923381	-0.598950	1.183918
C79	C	1.691477	-0.487738	0.717866
C80	C	2.191477	0.012262	1.217866
C81	C	1.805788	-0.497610	0.732369
C82	C	2.305788	0.002390	1.232369
C83	C	1.389206	-0.482429	0.952078
C84	C	1.889206	0.017571	1.452078
C85	C	1.374707	-0.490038	1.066387
C86	C	1.874707	0.009962	1.566387
C87	C	1.423380	-0.300400	0.683930
C88	C	1.923380	0.199600	1.183930
C89	C	1.423444	-0.230440	0.683970
C90	C	1.923444	0.269560	1.183970
C91	C	1.457181	-0.446743	0.416643
C92	C	1.957181	0.053257	0.916643
C93	C	1.471879	-0.438974	0.302359
C94	C	1.971879	0.061026	0.802359
C95	C	1.430781	-0.460576	1.125302
C96	C	1.930781	0.039424	1.625302
C97	C	1.415797	-0.468440	1.243447
C98	C	1.915797	0.031560	1.743447
H99	H	0.827625	-0.419387	0.617467
H100	H	1.327625	0.080613	1.117467
N101	N	1.029300	-0.520077	0.765345
N102	N	1.529300	-0.020077	1.265345
N103	N	1.018239	-0.576668	0.756841
N104	N	1.518239	-0.076668	1.256841
H105	H	1.051062	-0.612239	0.809072
H106	H	1.551062	-0.112239	1.309072
N107	N	1.504912	-0.421625	1.078845
N108	N	2.004912	0.078375	1.578845
N109	N	1.516976	-0.415289	0.982937
N110	N	2.016976	0.084711	1.482937
H111	H	1.569332	-0.387778	0.950127
H112	H	2.069332	0.112222	1.450127
N113	N	1.341645	-0.507382	1.289897
N114	N	1.841645	-0.007382	1.789897
N115	N	1.329575	-0.513713	1.385804
N116	N	1.829575	-0.013713	1.885804
H117	H	1.277206	-0.541214	1.418612
H118	H	1.777206	-0.041214	1.918612
H119	H	1.530978	-0.407922	1.265337
H120	H	2.030978	0.092078	1.765337
H121	H	1.527290	-0.841607	0.818381
H122	H	2.027290	-0.341607	1.318381
H123	H	1.319289	-1.086912	0.549374
H124	H	1.819289	-0.586912	1.049374
N125	N	1.300560	-0.528978	1.112842
N126	N	1.800560	-0.028978	1.612842
N127	N	1.288489	-0.535309	1.208749
N128	N	1.788489	-0.035309	1.708749
H129	H	1.236120	-0.562810	1.241557
H130	H	1.736120	-0.062810	1.741557
H131	H	1.004658	-0.391500	0.576501
H132	H	1.504658	0.108500	1.076501
H133	H	0.842834	-0.537748	0.791341
H134	H	1.342834	-0.037748	1.291341
H135	H	1.319351	-1.206189	0.549422
H136	H	1.819351	-0.706189	1.049422
N137	N	1.539131	-0.717602	0.833693
N138	N	2.039131	-0.217602	1.333693
N139	N	1.590369	-0.755891	0.899907
N140	N	2.090369	-0.255891	1.399907
H141	H	1.631754	-0.739402	0.953405
H142	H	2.131754	-0.239402	1.453405
H143	H	1.319125	-0.805323	0.549284
H144	H	1.819125	-0.305323	1.049284
H145	H	1.319043	-0.686042	0.549241
H146	H	1.819043	-0.186042	1.049241
N147	N	1.539361	-1.118467	0.833834
N148	N	2.039361	-0.618467	1.333834
N149	N	1.590594	-1.156754	0.900055
N150	N	2.090594	-0.656754	1.400055
H151	H	1.631980	-1.140263	0.953550
H152	H	2.131980	-0.640263	1.453550
H153	H	1.527524	-1.242473	0.818518
H154	H	2.027524	-0.742473	1.318518
