data_functionalizedCrystal
_audit_creation_method	'MofGen! by Chris Wilmer'
_symmetry_space_group_name_H-M	'P1'
_symmetry_Int_Tables_number	1
_symmetry_cell_setting	triclinic
loop_
_symmetry_equiv_pos_as_xyz
  x,y,z
_cell_length_a	15.297476
_cell_length_b	13.897441
_cell_length_c	15.297327
_cell_angle_alpha	99.644476
_cell_angle_beta	91.626159
_cell_angle_gamma	80.312072
loop_
_atom_site_label
_atom_site_type_symbol
_atom_site_fract_x
_atom_site_fract_y
_atom_site_fract_z
Zn1	Zn	1.278718	-0.889009	-0.580741
Zn2	Zn	1.253248	-0.750089	-0.727208
Zn3	Zn	1.132232	-0.695978	-0.555394
Zn4	Zn	1.106859	-0.879594	-0.701776
O5	O	1.192764	-0.803668	-0.641280
O6	O	1.397908	-0.897168	-0.621421
O7	O	1.237155	-0.607929	-0.704452
O8	O	1.172941	-0.702878	-0.436198
O9	O	1.379196	-0.795104	-0.729030
O10	O	1.280563	-0.844698	-0.454820
O11	O	1.148244	-0.568173	-0.578221
O12	O	1.006297	-0.693748	-0.553560
O13	O	1.129697	-1.015825	-0.685684
O14	O	0.987656	-0.828651	-0.661106
O15	O	1.255961	-1.022743	-0.596761
O16	O	1.212552	-0.785974	-0.846393
O17	O	1.105001	-0.881120	-0.827708
C18	C	0.965196	-0.754307	-0.601824
C19	C	0.867837	-0.733216	-0.584965
C20	C	0.831798	-0.653150	-0.520955
C21	C	0.740325	-0.633332	-0.505114
C22	C	0.684883	-0.693582	-0.553276
C23	C	0.720923	-0.773654	-0.617283
C24	C	0.812404	-0.793469	-0.633131
C25	C	0.665490	-0.833901	-0.665452
C26	C	0.701530	-0.913973	-0.729459
C27	C	0.793002	-0.933785	-0.745303
C28	C	0.848444	-0.873535	-0.697141
C29	C	0.574009	-0.814086	-0.649604
C30	C	0.554616	-0.954405	-0.761780
C31	C	0.646089	-0.974223	-0.777621
C32	C	1.192840	-1.055262	-0.641213
C33	C	1.192872	-1.162477	-0.641185
C34	C	1.192906	-1.358768	-0.641129
C35	C	1.192884	-1.249538	-0.641162
C36	C	1.421221	-0.853222	-0.680890
C37	C	1.518576	-0.874339	-0.697770
C38	C	1.153283	-0.838423	-0.868833
C39	C	1.136474	-0.853342	-0.966195
C40	C	1.192750	-0.553053	-0.641291
C41	C	1.192931	-0.445838	-0.641103
C42	C	1.313268	-0.697452	-1.279464
C43	C	1.329062	-0.683430	-1.187987
C44	C	1.280916	-0.725907	-1.132535
C45	C	1.216974	-0.782407	-1.168567
C46	C	1.201175	-0.796424	-1.260052
C47	C	1.168823	-0.824879	-1.113123
C48	C	1.104881	-0.881379	-1.149156
C49	C	1.089084	-0.895394	-1.240632
C50	C	1.137230	-0.852917	-1.296084
C51	C	1.184622	-0.810863	-1.021638
C52	C	1.072529	-0.909835	-1.002227
C53	C	1.056735	-0.923856	-1.093703
C54	C	1.232423	-0.768802	-0.412842
C55	C	1.249323	-0.753945	-0.315496
H56	H	0.610403	-0.677442	-0.540374
H57	H	0.822341	-0.998978	-0.797430
H58	H	1.381122	-0.637427	-1.158652
H59	H	0.710987	-0.568133	-0.453004
O60	O	1.359952	-0.656264	-1.333454
C61	C	1.385179	-0.633864	-1.482974
C62	C	1.332276	-0.680611	-1.421936
H63	H	1.362810	-0.653513	-1.554522
H64	H	1.458936	-0.663395	-1.477255
H65	H	1.372915	-0.550005	-1.462315
H66	H	1.344466	-0.764471	-1.442555
H67	H	1.258537	-0.651002	-1.427663
O68	O	1.121972	-0.866713	-1.384962
C69	C	1.121743	-0.984196	-1.520039
C70	C	1.139067	-0.968711	-1.419393
H71	H	1.135540	-1.066659	-1.547904
H72	H	1.167167	-0.944207	-1.553528
H73	H	1.049629	-0.953177	-1.533183
H74	H	1.211158	-0.999735	-1.406168
H75	H	1.093587	-1.008679	-1.385956
H76	H	0.876945	-0.604099	-0.481754
O77	O	0.681242	-1.051932	-0.839795
C78	C	0.813583	-1.144674	-0.913875
C79	C	0.773886	-1.056624	-0.843454
H80	H	0.888492	-1.148508	-0.916844
H81	H	0.783409	-1.134510	-0.981394
H82	H	0.798234	-1.216238	-0.895475
H83	H	0.789221	-0.985019	-0.861770
H84	H	0.804061	-1.066874	-0.775954
H85	H	1.033323	-0.944421	-0.957077
O86	O	0.500649	-1.012867	-0.808462
C87	C	0.351120	-1.044491	-0.833797
C88	C	0.412145	-0.978227	-0.780856
H89	H	0.279551	-1.016497	-0.811511
H90	H	0.371730	-1.123873	-0.821616
H91	H	0.356903	-1.042120	-0.907514
H92	H	0.406393	-0.980513	-0.707123
H93	H	0.391518	-0.898875	-0.793112
H94	H	1.236684	-0.764859	-0.992309
H95	H	0.544675	-0.748893	-0.597487
H96	H	1.293778	-0.714486	-1.058051
O97	O	1.026962	-0.950334	-1.275494
C98	C	0.917408	-1.046969	-1.246577
C99	C	0.987750	-0.984793	-1.206984
H100	H	0.885672	-1.074829	-1.191203
H101	H	0.950174	-1.112761	-1.296275
H102	H	0.864256	-0.999280	-1.281567
H103	H	1.040922	-1.032399	-1.171948
H104	H	0.954920	-0.918995	-1.157331
O105	O	0.994721	-0.978887	-1.128687
C106	C	0.947279	-1.137952	-1.149189
C107	C	1.017583	-1.075750	-1.109542
H108	H	0.965728	-1.216272	-1.133708
H109	H	0.944264	-1.140756	-1.224107
H110	H	0.879755	-1.102845	-1.119048
H111	H	1.085143	-1.110809	-1.139613
H112	H	1.020520	-1.072943	-1.034623
H113	H	0.922930	-0.889668	-0.710034
