data_functionalizedCrystal
_audit_creation_method	'MofGen! by Chris Wilmer'
_symmetry_space_group_name_H-M	'P1'
_symmetry_Int_Tables_number	1
_symmetry_cell_setting	triclinic
loop_
_symmetry_equiv_pos_as_xyz
  x,y,z
_cell_length_a	16.974800
_cell_length_b	15.021413
_cell_length_c	16.992695
_cell_angle_alpha	89.996007
_cell_angle_beta	87.021674
_cell_angle_gamma	86.350491
loop_
_atom_site_label
_atom_site_type_symbol
_atom_site_fract_x
_atom_site_fract_y
_atom_site_fract_z
O1	O	1.055459	-0.002038	0.099874
O2	O	1.388793	0.331295	0.433207
O3	O	1.722126	0.664628	0.766540
O4	O	0.826058	0.014497	0.112612
O5	O	1.159392	0.347831	0.445945
O6	O	1.492725	0.681164	0.779278
O7	O	0.939839	0.006289	-0.007899
O8	O	1.273172	0.339622	0.325434
O9	O	1.606506	0.672955	0.658768
O10	O	0.941678	0.006170	0.220384
O11	O	1.275012	0.339504	0.553718
O12	O	1.608345	0.672837	0.887051
O13	O	0.939821	-0.141774	-0.007882
O14	O	1.273154	0.191559	0.325452
O15	O	1.606488	0.524892	0.658785
O16	O	0.826040	-0.133566	0.112629
O17	O	1.159373	0.199768	0.445962
O18	O	1.492707	0.533101	0.779296
O19	O	1.055441	-0.150101	0.099891
O20	O	1.388774	0.183232	0.433224
O21	O	1.722108	0.516565	0.766557
Zn22	Zn	0.940738	-0.165342	0.106263
Zn23	Zn	1.274071	0.167992	0.439596
Zn24	Zn	1.607404	0.501325	0.772929
Zn25	Zn	0.940762	0.029738	0.106240
Zn26	Zn	1.274095	0.363071	0.439573
Zn27	Zn	1.607428	0.696404	0.772907
O28	O	0.941660	-0.141893	0.220401
O29	O	1.274994	0.191441	0.553735
O30	O	1.608327	0.524774	0.887068
C31	C	0.796560	-0.057409	0.112137
C32	C	1.129894	0.275925	0.445471
C33	C	1.463227	0.609258	0.778804
C34	C	0.708692	-0.051075	0.110689
C35	C	1.042026	0.282258	0.444023
C36	C	1.375359	0.615592	0.777356
C37	C	0.667407	-0.128811	0.110016
C38	C	1.000740	0.204523	0.443350
C39	C	1.334073	0.537856	0.776683
C40	C	0.584846	-0.122862	0.108643
C41	C	0.918180	0.210471	0.441976
C42	C	1.251513	0.543805	0.775310
C43	C	0.543573	-0.039177	0.107948
C44	C	0.876906	0.294156	0.441282
C45	C	1.210239	0.627490	0.774615
C46	C	0.584864	0.038564	0.108619
C47	C	0.918198	0.371898	0.441952
C48	C	1.251531	0.705231	0.775286
C49	C	0.667424	0.032615	0.109987
C50	C	1.000757	0.365948	0.443320
C51	C	1.334090	0.699282	0.776653
C52	C	0.296658	-0.012729	0.103852
C53	C	0.629991	0.320604	0.437185
C54	C	0.963325	0.653937	0.770518
C55	C	0.214093	-0.006786	0.102486
C56	C	0.547426	0.326548	0.435820
C57	C	0.880759	0.659881	0.769153
C58	C	0.214080	-0.168213	0.102509
C59	C	0.547414	0.165121	0.435842
C60	C	0.880747	0.498454	0.769176
C61	C	0.296641	-0.174155	0.103881
C62	C	0.629974	0.159179	0.437215
C63	C	0.963307	0.492512	0.770548
C64	C	0.337926	-0.096413	0.104548
C65	C	0.671259	0.236920	0.437881
C66	C	1.004592	0.570253	0.771214
N67	N	0.459183	-0.033095	0.106547
N68	N	0.792516	0.300239	0.439880
N69	N	1.125849	0.633572	0.773214
N70	N	0.422315	-0.102497	0.105943
N71	N	0.755648	0.230837	0.439277
N72	N	1.088981	0.564170	0.772610
N73	N	0.940727	-0.298478	0.106278
N74	N	1.274060	0.034855	0.439611
N75	N	1.607394	0.368188	0.772944
C76	C	0.888104	-0.534365	0.161976
C77	C	1.221438	-0.201032	0.495309
C78	C	1.554771	0.132301	0.828642
C79	C	0.960508	-0.598918	0.177113
C80	C	1.293842	-0.265584	0.510446
C81	C	1.627175	0.067749	0.843779
C82	C	0.940746	-0.480087	0.106258
C83	C	1.274079	-0.146753	0.439591
C84	C	1.607413	0.186580	0.772925
C85	C	0.868363	-0.592278	0.091138
C86	C	1.201696	-0.258944	0.424472
C87	C	1.535029	0.074389	0.757805
C88	C	0.940758	-0.655512	0.106241
C89	C	1.274091	-0.322178	0.439574
C90	C	1.607425	0.011155	0.772907
C91	C	1.013188	-0.543335	0.121430
C92	C	1.346522	-0.210002	0.454764
C93	C	1.679855	0.123331	0.788097
C94	C	0.920993	-0.536687	0.035425
C95	C	1.254327	-0.203353	0.368758
C96	C	1.587660	0.129980	0.702092
C97	C	0.993447	-0.601216	0.050532
C98	C	1.326780	-0.267882	0.383865
C99	C	1.660114	0.065451	0.717199
C100	C	0.940738	-0.379029	0.106270
C101	C	1.274071	-0.045696	0.439603
C102	C	1.607405	0.287638	0.772937
C103	C	0.940774	-0.756568	0.106228
C104	C	1.274107	-0.423235	0.439562
C105	C	1.607441	-0.089901	0.772895
C106	C	1.084939	-0.078194	0.100365
C107	C	1.418272	0.255140	0.433698
C108	C	1.751606	0.588473	0.767032
C109	C	1.172807	-0.084521	0.101813
C110	C	1.506140	0.248812	0.435147
C111	C	1.839474	0.582145	0.768480
C112	C	0.937464	-0.067572	-0.037100
C113	C	1.270797	0.265761	0.296233
C114	C	1.604131	0.599095	0.629566
C115	C	0.930404	-0.067063	-0.124137
C116	C	1.263738	0.266270	0.209197
C117	C	1.597071	0.599604	0.542530
N118	N	0.940778	0.162874	0.106219
N119	N	1.274112	0.496207	0.439552
N120	N	1.607445	0.829541	0.772885
C121	C	0.998520	-0.071974	-0.174453
C122	C	1.331853	0.261359	0.158880
C123	C	1.665186	0.594693	0.492213
C124	C	0.991882	-0.071487	-0.256233
C125	C	1.325215	0.261846	0.077101
C126	C	1.658548	0.595180	0.410434
C127	C	0.917128	-0.066095	-0.287693
C128	C	1.250461	0.267238	0.045640
C129	C	1.583795	0.600571	0.378973
C130	C	0.849008	-0.061182	-0.237370
C131	C	1.182341	0.272152	0.095963
C132	C	1.515674	0.605485	0.429297
C133	C	0.855646	-0.061662	-0.155592
C134	C	1.188980	0.271671	0.177741
C135	C	1.522313	0.605004	0.511074
C136	C	0.889613	-0.064100	-0.531260
C137	C	1.222947	0.269233	-0.197927
C138	C	1.556280	0.602567	0.135407
C139	C	0.882980	-0.063622	-0.613044
C140	C	1.216313	0.269711	-0.279711
C141	C	1.549646	0.603044	0.053623
C142	C	1.025855	-0.073926	-0.631901
C143	C	1.359188	0.259407	-0.298568
C144	C	1.692521	0.592741	0.034765
C145	C	1.032487	-0.074412	-0.550121
C146	C	1.365820	0.258922	-0.216788
C147	C	1.699153	0.592255	0.116545
C148	C	0.964366	-0.069493	-0.499805
C149	C	1.297700	0.263840	-0.166472
C150	C	1.631033	0.597174	0.166862
N151	N	0.910341	-0.065600	-0.371284
N152	N	1.243674	0.267733	-0.037951
N153	N	1.577008	0.601066	0.295382
N154	N	0.971154	-0.069982	-0.416215
N155	N	1.304487	0.263352	-0.082882
N156	N	1.637821	0.596685	0.250451
C157	C	0.944035	-0.068030	0.249603
C158	C	1.277369	0.265303	0.582936
C159	C	1.610702	0.598637	0.916269
C160	C	0.951095	-0.068533	0.336639
C161	C	1.284428	0.264800	0.669972
C162	C	1.617762	0.598133	1.003306
H163	H	0.180457	-0.231505	0.101965
H164	H	0.513791	0.101828	0.435298
H165	H	0.847124	0.435161	0.768632
F166	F	0.783149	-0.056433	-0.102041
F167	F	1.116482	0.276901	0.231292
F168	F	1.449815	0.610234	0.564626
H169	H	0.807144	-0.613951	0.078358
H170	H	1.140477	-0.280617	0.411691
H171	H	1.473811	0.052716	0.745024
F172	F	0.899115	-0.500987	-0.042837
F173	F	1.232448	-0.167654	0.290497
F174	F	1.565782	0.165679	0.623830
H175	H	1.047349	-0.075488	-0.297198
H176	H	1.380682	0.257845	0.036135
H177	H	1.714015	0.591179	0.369469
F178	F	1.078083	-0.077721	-0.140979
F179	F	1.411417	0.255613	0.192355
F180	F	1.744750	0.588946	0.525688
F181	F	0.540938	0.127629	0.107856
F182	F	0.874271	0.460962	0.441189
F183	F	1.207604	0.794295	0.774522
F184	F	0.803413	-0.057888	-0.646524
F185	F	1.136746	0.275445	-0.313191
F186	F	1.470080	0.608778	0.020142
H187	H	0.843638	-0.505142	0.209132
H188	H	1.176971	-0.171808	0.542466
H189	H	1.510304	0.161525	0.875799
F190	F	0.711325	-0.217880	0.110761
F191	F	1.044659	0.115453	0.444094
F192	F	1.377992	0.448786	0.777427
F193	F	0.711363	0.115352	0.110700
F194	F	1.044696	0.448685	0.444033
F195	F	1.378030	0.782019	0.777366
F196	F	1.098348	-0.079159	-0.685456
F197	F	1.431681	0.254174	-0.352123
F198	F	1.765014	0.587508	-0.018790
H199	H	0.834145	-0.060095	-0.490302
H200	H	1.167478	0.273238	-0.156969
H201	H	1.500811	0.606572	0.176365
H202	H	0.180490	0.061364	0.101923
H203	H	0.513823	0.394698	0.435256
H204	H	0.847157	0.728031	0.768589
F205	F	0.340561	-0.263224	0.104625
F206	F	0.673894	0.070110	0.437958
F207	F	1.007228	0.403443	0.771292
H208	H	1.038021	-0.630284	0.003403
H209	H	1.371354	-0.296951	0.336737
H210	H	1.704688	0.036383	0.670070
F211	F	0.982361	-0.634587	0.255398
F212	F	1.315694	-0.301254	0.588731
F213	F	1.649028	0.032080	0.922064
F214	F	1.093230	-0.515159	0.138227
F215	F	1.426563	-0.181825	0.471560
F216	F	1.759897	0.151508	0.804894
H217	H	0.330262	0.050573	0.104392
H218	H	0.663596	0.383907	0.437725
H219	H	0.996929	0.717240	0.771058
H220	H	1.093359	-0.078802	-0.524513
H221	H	1.426692	0.254531	-0.191179
H222	H	1.760026	0.587865	0.142154
F223	F	0.540910	-0.205599	0.107938
F224	F	0.874243	0.127734	0.441271
F225	F	1.207576	0.461067	0.774604
H226	H	0.788141	-0.056786	-0.262991
H227	H	1.121475	0.276547	0.070342
H228	H	1.454808	0.609881	0.403675
