data_functionalizedCrystal
_audit_creation_method	'MofGen! by Chris Wilmer'
_symmetry_space_group_name_H-M	'P1'
_symmetry_Int_Tables_number	1
_symmetry_cell_setting	triclinic
loop_
_symmetry_equiv_pos_as_xyz
  x,y,z
_cell_length_a	6.817900
_cell_length_b	10.943925
_cell_length_c	10.943624
_cell_angle_alpha	91.772910
_cell_angle_beta	108.838799
_cell_angle_gamma	108.844289
loop_
_atom_site_label
_atom_site_type_symbol
_atom_site_fract_x
_atom_site_fract_y
_atom_site_fract_z
V1	V	-4.115532	-0.178599	-0.402534
O2	O	-4.073202	0.008617	-0.394889
O3	O	-4.093518	-0.354165	-0.399763
O4	O	-4.093494	-0.175837	-0.578100
O5	O	-4.073227	-0.170946	-0.215317
V6	V	-4.592325	-0.156208	-0.380143
O7	O	-4.391553	-0.227716	-0.451649
O8	O	-4.766501	-0.107090	-0.331028
O9	O	-4.391132	0.019359	-0.382914
O10	O	-4.752051	-0.343424	-0.387788
O11	O	-4.752026	-0.163861	-0.567359
O12	O	-4.391156	-0.158970	-0.204576
C13	C	-3.944085	-0.396965	-0.393408
C14	C	-4.007548	-0.540493	-0.392314
C15	C	-4.274915	-0.717225	-0.397745
C16	C	-4.085582	-0.611235	-0.288089
C17	C	-4.196062	-0.644571	-0.501935
C18	C	-3.931139	-0.690208	-0.280609
C19	C	-4.041699	-0.723567	-0.494552
C20	C	-3.852230	-0.617606	-0.384865
C21	C	-3.944052	-0.169487	-0.620894
C22	C	-4.007492	-0.168390	-0.764420
C23	C	-3.852320	-0.161003	-0.841568
C24	C	-4.041701	-0.270649	-0.947548
C25	C	-3.931176	-0.056802	-0.914182
C26	C	-4.196083	-0.278139	-0.868523
C27	C	-4.085478	-0.064195	-0.835134
C28	C	-4.274995	-0.173872	-0.941083
C29	C	-4.203907	0.062152	-0.389265
C30	C	-4.119684	0.205678	-0.390368
C31	C	-4.203939	-0.165324	-0.161776
C32	C	-4.119737	-0.166414	-0.018248
H33	H	-3.672911	-0.574321	-0.379394
N34	N	-4.335807	-0.618582	-0.619274
N35	N	-4.540208	-0.655595	-0.644473
H36	H	-4.638917	-0.637242	-0.727338
N37	N	-3.791372	-0.715991	-0.163148
N38	N	-3.817886	-0.831123	-0.143323
H39	H	-3.719181	-0.849337	-0.060368
N40	N	-4.499721	-0.771777	-0.404386
N41	N	-4.556775	-0.734071	-0.316711
H42	H	-4.715539	-0.772596	-0.321395
H43	H	-4.023857	-0.357930	-0.996488
H44	H	-4.307485	-0.371785	-0.847969
N45	N	-4.499947	-0.180736	-0.995322
N46	N	-4.651917	-0.276942	-0.986022
H47	H	-4.810792	-0.281795	-1.024330
N48	N	-3.791497	0.060568	-0.940177
N49	N	-3.873793	0.137923	-0.999859
H50	H	-3.775136	0.220813	-1.018215
H51	H	-3.673119	-0.155709	-0.798120
N52	N	-4.107737	0.045312	-0.773694
N53	N	-3.996924	0.158783	-0.781509
H54	H	-4.012620	0.236134	-0.738112
H55	H	-4.023893	-0.772507	-0.581841
H56	H	-4.103473	-0.562326	-0.200807
