data_functionalizedCrystal
_audit_creation_method	'MofGen! by Chris Wilmer'
_symmetry_space_group_name_H-M	'P1'
_symmetry_Int_Tables_number	1
_symmetry_cell_setting	triclinic
loop_
_symmetry_equiv_pos_as_xyz
  x,y,z
_cell_length_a	19.805407
_cell_length_b	12.759394
_cell_length_c	19.805399
_cell_angle_alpha	90.022273
_cell_angle_beta	90.017803
_cell_angle_gamma	90.011172
loop_
_atom_site_label
_atom_site_type_symbol
_atom_site_fract_x
_atom_site_fract_y
_atom_site_fract_z
Zn1	Zn	1.034795	-0.418366	0.382713
Zn2	Zn	1.034734	-0.594059	0.269535
Zn3	Zn	0.921609	-0.418387	0.269541
Zn4	Zn	0.921598	-0.593995	0.382685
O5	O	0.978184	-0.506202	0.326118
O6	O	1.129503	-0.441690	0.367708
O7	O	1.019708	-0.570792	0.174819
O8	O	0.936654	-0.271363	0.284567
O9	O	1.129459	-0.570771	0.284557
O10	O	1.019811	-0.271348	0.367714
O11	O	0.936595	-0.441726	0.174823
O12	O	0.826891	-0.441664	0.284541
O13	O	0.936634	-0.570662	0.477405
O14	O	0.826883	-0.570682	0.367667
O15	O	1.019799	-0.441628	0.477426
O16	O	1.019696	-0.741072	0.284531
O17	O	0.936575	-0.741025	0.367662
C18	C	0.802328	-0.506169	0.326102
C19	C	0.727096	-0.506180	0.326111
C20	C	0.691776	-0.439087	0.369474
C21	C	0.621087	-0.439092	0.369476
C22	C	0.585720	-0.506197	0.326119
C23	C	0.621046	-0.573294	0.282752
C24	C	0.691733	-0.573282	0.282746
C25	C	0.335972	-0.573341	0.282772
C26	C	0.265280	-0.573350	0.282783
C27	C	0.265327	-0.439151	0.369502
C28	C	0.336014	-0.439139	0.369497
C29	C	0.371333	-0.506232	0.326127
C30	C	0.447981	-0.506223	0.326124
C31	C	0.509073	-0.506212	0.326125
C32	C	0.978146	-0.779169	0.326107
C33	C	0.978192	-0.895946	0.326125
C34	C	1.064719	-0.895772	0.412771
C35	C	1.108003	-0.950546	0.456099
C36	C	1.108043	-1.060267	0.456113
C37	C	1.064793	-1.115218	0.412797
C38	C	1.021508	-1.060444	0.369469
C39	C	1.021474	-0.950720	0.369457
C40	C	0.934980	-1.060618	0.282827
C41	C	0.934942	-0.950896	0.282808
C42	C	0.891729	-1.115568	0.239511
C43	C	0.848447	-1.060795	0.196178
C44	C	0.848409	-0.951066	0.196165
C45	C	0.891657	-0.896123	0.239480
C46	C	1.154727	-0.506236	0.326135
C47	C	1.229959	-0.506250	0.326142
C48	C	0.978222	-0.506136	0.502661
C49	C	0.978238	-0.506108	0.577893
C50	C	0.978240	-0.232169	0.326144
C51	C	0.978264	-0.115392	0.326155
C52	C	0.978185	-0.506192	0.150262
C53	C	0.978300	-0.505924	0.075031
C54	C	1.021543	-0.438916	0.613249
C55	C	1.021550	-0.438886	0.683937
C56	C	0.978255	-0.506053	0.719269
C57	C	0.934945	-0.573247	0.683908
C58	C	0.934935	-0.573271	0.613221
C59	C	0.934983	-0.573149	0.968982
C60	C	0.934998	-0.573122	1.039674
C61	C	1.021598	-0.438763	1.039698
C62	C	1.021588	-0.438788	0.969011
C63	C	0.978276	-0.505978	0.933656
C64	C	0.978268	-0.506009	0.857008
C65	C	0.978266	-0.506028	0.795916
H66	H	0.364806	-0.384499	0.404805
N67	N	0.227233	-0.366781	0.416280
H68	H	0.177086	-0.376964	0.409705
H69	H	0.239592	-0.291723	0.405829
H70	H	1.064697	-0.806431	0.412757
N71	N	1.068257	-0.366426	0.722081
H72	H	1.040762	-0.317724	0.751407
H73	H	1.095681	-0.323948	0.688938
N74	N	0.729834	-0.645650	0.235980
H75	H	0.759150	-0.602880	0.204659
H76	H	0.696663	-0.688151	0.208559
N77	N	0.801804	-1.120056	0.149461
H78	H	0.770439	-1.165589	0.176947
H79	H	0.829394	-1.165519	0.118136
N80	N	0.801720	-0.891991	0.149435
H81	H	0.774330	-0.943455	0.122000
H82	H	0.829270	-0.846466	0.118126
H83	H	0.236487	-0.627998	0.247473
N84	N	0.891614	-0.777781	0.239472
H85	H	0.857630	-0.751416	0.205454
H86	H	0.938065	-0.751391	0.227086
N87	N	0.374062	-0.645699	0.235996
H88	H	0.340929	-0.688211	0.208533
H89	H	0.403401	-0.694373	0.263487
H90	H	1.143216	-0.905796	0.491368
N91	N	0.729918	-0.366718	0.416245
H92	H	0.759243	-0.317969	0.388795
H93	H	0.759212	-0.409560	0.447551
H94	H	0.899726	-0.627875	0.940204
N95	N	0.582904	-0.645663	0.235980
H96	H	0.532764	-0.635491	0.242563
H97	H	0.595259	-0.720718	0.246427
H98	H	1.056846	-0.384097	0.940248
H99	H	0.899665	-0.627975	0.584435
N100	N	1.064834	-1.233559	0.412810
H101	H	1.077308	-1.260010	0.366391
H102	H	1.018394	-1.259944	0.425243
N103	N	1.068245	-0.366478	0.575144
H104	H	1.095679	-0.323907	0.608271
H105	H	1.040701	-0.317862	0.545815
H106	H	1.143282	-1.104864	0.491402
H107	H	0.592332	-0.384460	0.404788
N108	N	1.068314	-0.366288	1.077830
H109	H	1.061751	-0.376458	1.127972
H110	H	1.057796	-0.291256	1.065478
N111	N	0.891776	-1.233910	0.239521
H112	H	0.857811	-1.260407	0.205507
H113	H	0.879344	-1.260235	0.285968
N114	N	0.888299	-0.645569	1.077784
H115	H	0.860858	-0.688136	1.044661
H116	H	0.856994	-0.602781	1.107114
H117	H	0.899691	-0.627932	0.712681
