data_functionalizedCrystal
_audit_creation_method	'MofGen! by Chris Wilmer'
_symmetry_space_group_name_H-M	'P1'
_symmetry_Int_Tables_number	1
_symmetry_cell_setting	triclinic
loop_
_symmetry_equiv_pos_as_xyz
  x,y,z
_cell_length_a	14.908571
_cell_length_b	16.120484
_cell_length_c	14.908308
_cell_angle_alpha	84.013929
_cell_angle_beta	89.824947
_cell_angle_gamma	89.787312
loop_
_atom_site_label
_atom_site_type_symbol
_atom_site_fract_x
_atom_site_fract_y
_atom_site_fract_z
Zn1	Zn	1.320097	-0.434923	0.609960
Zn2	Zn	1.820097	0.065077	1.109960
Zn3	Zn	1.321040	-0.566744	0.466383
Zn4	Zn	1.821040	-0.066744	0.966383
Zn5	Zn	1.179340	-0.418915	0.450134
Zn6	Zn	1.679340	0.081085	0.950134
Zn7	Zn	1.162126	-0.565754	0.607984
Zn8	Zn	1.662126	-0.065754	1.107984
O9	O	1.245651	-0.496584	0.533615
O10	O	1.745651	0.003416	1.033615
O11	O	1.445636	-0.459523	0.598542
O12	O	1.945636	0.040477	1.098542
O13	O	1.309843	-0.540849	0.338080
O14	O	1.809843	-0.040849	0.838080
O15	O	1.204822	-0.304418	0.465363
O16	O	1.704822	0.195582	0.965363
O17	O	1.446329	-0.556371	0.493056
O18	O	1.946329	-0.056371	0.993056
O19	O	1.308235	-0.316179	0.582786
O20	O	1.808235	0.183821	1.082786
O21	O	1.205736	-0.432240	0.326142
O22	O	1.705736	0.067760	0.826142
O23	O	1.051643	-0.431280	0.463446
O24	O	1.551643	0.068720	0.963446
O25	O	1.175482	-0.554684	0.734394
O26	O	1.675482	-0.054684	1.234394
O27	O	1.038995	-0.539162	0.579418
O28	O	1.538995	-0.039162	1.079418
O29	O	1.291543	-0.458562	0.735846
O30	O	1.791543	0.041438	1.235846
O31	O	1.293150	-0.683233	0.491140
O32	O	1.793150	-0.183233	0.991140
O33	O	1.176396	-0.682506	0.595173
O34	O	1.676396	-0.182506	1.095173
C35	C	1.012801	-0.483377	0.519455
C36	C	1.512801	0.016623	1.019455
C37	C	0.913184	-0.477748	0.513419
C38	C	1.413184	0.022252	1.013419
C39	C	1.233031	-0.713110	0.544726
C40	C	1.733031	-0.213110	1.044726
C41	C	1.227712	-0.805747	0.549515
C42	C	1.727712	-0.305747	1.049515
C43	C	0.712871	-0.579666	0.622692
C44	C	1.212871	-0.079666	1.122692
C45	C	0.619272	-0.574380	0.617025
C46	C	1.119272	-0.074380	1.117025
C47	C	0.632384	-0.461887	0.496421
C48	C	1.132384	0.038113	0.996421
C49	C	0.725983	-0.467173	0.502089
C50	C	1.225983	0.032827	1.002089
C51	C	0.766223	-0.526065	0.565226
C52	C	1.266223	-0.026065	1.065226
C53	C	0.859824	-0.531355	0.570888
C54	C	1.359824	-0.031355	1.070888
C55	C	0.872935	-0.418858	0.450290
C56	C	1.372935	0.081142	0.950290
C57	C	0.779335	-0.413572	0.444622
C58	C	1.279335	0.086428	0.944622
C59	C	1.218005	-0.975358	0.558276
C60	C	1.718005	-0.475358	1.058276
C61	C	1.273456	-1.016980	0.508979
C62	C	1.773456	-0.516980	1.008979
C63	C	1.268055	-1.111356	0.513854
C64	C	1.768055	-0.611356	1.013854
C65	C	1.223405	-0.880972	0.553403
C66	C	1.723405	-0.380972	1.053403
C67	C	1.479410	-0.509843	0.547832
C68	C	1.979410	-0.009843	1.047832
C69	C	1.579025	-0.515493	0.553890
C70	C	2.079025	-0.015493	1.053890
C71	C	1.231487	-0.508298	0.768743
C72	C	1.731487	-0.008298	1.268743
C73	C	1.225451	-0.513290	0.868941
C74	C	1.725451	-0.013290	1.368941
C75	C	1.258344	-0.279214	0.522482
C76	C	1.758344	0.220786	1.022482
C77	C	1.263752	-0.186584	0.517738
C78	C	1.763752	0.313416	1.017738
C79	C	1.259815	-0.484858	0.299402
C80	C	1.759815	0.015142	0.799402
C81	C	1.266038	-0.479641	0.199204
C82	C	1.766038	0.020359	0.699204
C83	C	1.334963	-0.422560	1.058735
C84	C	1.834963	0.077440	1.558735
C85	C	1.329294	-0.427248	1.152880
C86	C	1.829294	0.072752	1.652880
C87	C	1.208443	-0.527348	1.151376
C88	C	1.708443	-0.027348	1.651376
C89	C	1.214111	-0.522661	1.057231
C90	C	1.714111	-0.022661	1.557231
C91	C	1.277374	-0.470266	1.010914
C92	C	1.777374	0.029734	1.510914
C93	C	1.283046	-0.465583	0.916769
C94	C	1.783046	0.034417	1.416769
C95	C	1.162191	-0.565679	0.915266
C96	C	1.662191	-0.065679	1.415266
C97	C	1.156523	-0.570366	1.009410
C98	C	1.656523	-0.070366	1.509410
H99	H	0.745635	-0.627623	0.674096
H100	H	1.245635	-0.127623	1.174096
H101	H	0.575836	-0.618026	0.663822
H102	H	1.075836	-0.118026	1.163822
H103	H	1.115300	-0.604527	0.876320
H104	H	1.615300	-0.104527	1.376320
N105	N	1.149741	-1.022037	0.619014
N106	N	1.649741	-0.522037	1.119014
H107	H	1.113480	-0.981112	0.651235
H108	H	1.613480	-0.481112	1.151235
H109	H	1.181644	-1.062256	0.664806
H110	H	1.681644	-0.562256	1.164806
N111	N	1.351279	-0.409078	0.866809
N112	N	1.851279	0.090922	1.366809
H113	H	1.386898	-0.379567	0.911393
H114	H	1.886898	0.120433	1.411393
H115	H	1.319399	-0.366500	0.823552
H116	H	1.819399	0.133500	1.323552
H117	H	0.746559	-0.365621	0.393220
H118	H	1.246559	0.134379	0.893220
H119	H	1.324985	-0.981734	0.463113
H120	H	1.824985	-0.481734	0.963113
N121	N	0.588975	-0.398399	0.428299
N122	N	1.088975	0.101601	0.928299
H123	H	0.521584	-0.403196	0.433422
H124	H	1.021584	0.096804	0.933422
H125	H	0.608462	-0.409034	0.365561
H126	H	1.108462	0.090966	0.865561
N127	N	1.140219	-0.583857	1.201343
N128	N	1.640219	-0.083857	1.701343
H129	H	1.104594	-0.613370	1.156765
H130	H	1.604594	-0.113370	1.656765
H131	H	1.098372	-0.549524	1.236141
H132	H	1.598372	-0.049524	1.736141
N133	N	1.403200	-0.366062	1.008773
N134	N	1.903200	0.133938	1.508773
H135	H	1.438827	-0.336555	1.053354
H136	H	1.938827	0.163445	1.553354
H137	H	1.371325	-0.323481	0.965516
H138	H	1.871325	0.176519	1.465516
N139	N	0.930478	-0.361046	0.388296
N140	N	1.430478	0.138954	0.888296
H141	H	0.995880	-0.373331	0.401463
H142	H	1.495880	0.126669	0.901463
H143	H	0.916733	-0.301324	0.398381
H144	H	1.416733	0.198676	0.898381
H145	H	1.376187	-0.388398	1.191812
H146	H	1.876187	0.111602	1.691812
N147	N	1.088299	-0.626870	1.059385
N148	N	1.588299	-0.126870	1.559385
H149	H	1.099730	-0.686390	1.046907
H150	H	1.599730	-0.186390	1.546907
H151	H	1.026033	-0.609415	1.038427
H152	H	1.526033	-0.109415	1.538427
N153	N	0.903231	-0.594874	0.638978
N154	N	1.403231	-0.094874	1.138978
H155	H	0.855226	-0.628026	0.674523
H156	H	1.355226	-0.128026	1.174523
H157	H	0.941530	-0.565284	0.681366
H158	H	1.441530	-0.065284	1.181366
