data_functionalizedCrystal
_audit_creation_method	'MofGen! by Chris Wilmer'
_symmetry_space_group_name_H-M	'P1'
_symmetry_Int_Tables_number	1
_symmetry_cell_setting	triclinic
loop_
_symmetry_equiv_pos_as_xyz
  x,y,z
_cell_length_a	14.044220
_cell_length_b	16.992694
_cell_length_c	16.053833
_cell_angle_alpha	92.723321
_cell_angle_beta	87.349981
_cell_angle_gamma	88.071450
loop_
_atom_site_label
_atom_site_type_symbol
_atom_site_fract_x
_atom_site_fract_y
_atom_site_fract_z
O1	O	0.198257	-1.051308	0.069327
O2	O	0.698257	-0.551308	0.569327
O3	O	0.196039	-0.822866	0.069352
O4	O	0.696039	-0.322866	0.569352
O5	O	0.058904	-0.933658	0.069332
O6	O	0.558904	-0.433658	0.569332
O7	O	0.335392	-0.940515	0.069347
O8	O	0.835392	-0.440515	0.569347
O9	O	0.066516	-0.940090	-0.069527
O10	O	0.566516	-0.440090	0.430473
O11	O	0.203651	-0.829298	-0.069507
O12	O	0.703651	-0.329298	0.430493
O13	O	0.205869	-1.057739	-0.069531
O14	O	0.705869	-0.557739	0.430469
Zn15	Zn	0.205968	-0.944539	-0.091566
Zn16	Zn	0.705968	-0.444539	0.408434
Zn17	Zn	0.195940	-0.936066	0.091386
Zn18	Zn	0.695940	-0.436066	0.591386
O19	O	0.343004	-0.946947	-0.069511
O20	O	0.843004	-0.446947	0.430489
C21	C	0.196993	-0.796670	-0.000074
C22	C	0.696993	-0.296670	0.499926
C23	C	0.188484	-0.709030	-0.000065
C24	C	0.688484	-0.209030	0.499935
C25	C	0.027168	-0.933872	-0.000098
C26	C	0.527168	-0.433872	0.499902
C27	C	-0.078736	-0.924918	-0.000098
C28	C	0.421264	-0.424918	0.499902
N29	N	0.212812	-0.950328	-0.216425
N30	N	0.712812	-0.450328	0.283575
C31	C	-0.272638	-0.908548	-0.000084
C32	C	0.227362	-0.408548	0.499916
C33	C	-0.325460	-0.972054	-0.000088
C34	C	0.174540	-0.472054	0.499912
C35	C	-0.433354	-0.962945	-0.000080
C36	C	0.066646	-0.462945	0.499920
C37	C	-0.164734	-0.917655	-0.000091
C38	C	0.335266	-0.417655	0.499909
C39	C	0.374740	-0.946733	-0.000080
C40	C	0.874740	-0.446733	0.499920
C41	C	0.480643	-0.955687	-0.000074
C42	C	0.980643	-0.455687	0.499926
C43	C	0.204915	-1.083935	-0.000103
C44	C	0.704915	-0.583935	0.499897
C45	C	0.213424	-1.171575	-0.000107
C46	C	0.713424	-0.671575	0.499893
C47	C	0.270580	-0.664531	-0.000061
C48	C	0.770580	-0.164531	0.499939
C49	C	0.262581	-0.582186	-0.000073
C50	C	0.762581	-0.082186	0.499927
C51	C	0.172483	-0.544340	-0.000083
C52	C	0.672483	-0.044340	0.499917
C53	C	0.090381	-0.588845	-0.000090
C54	C	0.590381	-0.088845	0.499910
C55	C	0.098382	-0.671189	-0.000084
C56	C	0.598382	-0.171189	0.499916
C57	C	0.139322	-0.298424	-0.000107
C58	C	0.639322	0.201576	0.499893
C59	C	0.131327	-0.216073	-0.000111
C60	C	0.631327	0.283927	0.499889
C61	C	0.303528	-0.209420	-0.000096
C62	C	0.803528	0.290580	0.499904
C63	C	0.311521	-0.291766	-0.000085
C64	C	0.811521	0.208234	0.499915
C65	C	0.229419	-0.336264	-0.000096
C66	C	0.729419	0.163736	0.499904
N67	N	0.164304	-0.460170	-0.000093
N68	N	0.664304	0.039830	0.499907
N69	N	0.237599	-0.420433	-0.000092
N70	N	0.737599	0.079567	0.499908
C71	C	0.248143	-0.980108	-0.740056
C72	C	0.748143	-0.480108	-0.240056
C73	C	0.243349	-0.976062	-0.652649
C74	C	0.743349	-0.476062	-0.152649
C75	C	0.179495	-0.922194	-0.608943
C76	C	0.679495	-0.422194	-0.108943
C77	C	0.120438	-0.872364	-0.652647
C78	C	0.620438	-0.372364	-0.152647
C79	C	0.125238	-0.876406	-0.740052
C80	C	0.625238	-0.376406	-0.240052
C81	C	0.158555	-0.904541	-0.347535
C82	C	0.658555	-0.404541	0.152465
C83	C	0.153758	-0.900503	-0.260124
C84	C	0.653758	-0.400503	0.239876
C85	C	0.276670	-1.004201	-0.260132
C86	C	0.776670	-0.504201	0.239868
C87	C	0.281460	-1.008242	-0.347538
C88	C	0.781460	-0.508242	0.152462
C89	C	0.222407	-0.958409	-0.391235
C90	C	0.722407	-0.458409	0.108765
N91	N	0.174591	-0.918059	-0.519599
N92	N	0.674591	-0.418059	-0.019599
N93	N	0.227317	-0.962541	-0.480577
N94	N	0.727317	-0.462541	0.019423
N95	N	0.189089	-0.930283	0.216246
N96	N	0.689089	-0.430283	0.716246
H97	H	-0.289655	-1.033262	-0.000039
H98	H	0.210345	-0.533262	0.499961
H99	H	0.110467	-0.863965	-0.383102
H100	H	0.610467	-0.363965	0.116898
Cl101	Cl	-0.327920	-0.814049	-0.000070
Cl102	Cl	0.172080	-0.314049	0.499930
Cl103	Cl	0.350908	-1.066841	-0.205194
Cl104	Cl	0.850908	-0.566841	0.294806
Cl105	Cl	0.383851	-0.712100	-0.000043
Cl106	Cl	0.883851	-0.212100	0.499957
Cl107	Cl	0.365793	-0.526248	-0.000063
Cl108	Cl	0.865793	-0.026248	0.499937
Cl109	Cl	0.424791	-0.339337	-0.000067
Cl110	Cl	0.924791	0.160663	0.499933
H111	H	0.370371	-0.173182	-0.000089
H112	H	0.870371	0.326818	0.499911
H113	H	0.300137	-1.023975	-0.775635
H114	H	0.800137	-0.523975	-0.275635
H115	H	0.057955	-0.185262	-0.000118
H116	H	0.557955	0.314738	0.499882
Cl117	Cl	0.036106	-0.354353	-0.000120
Cl118	Cl	0.536106	0.145647	0.499880
Cl119	Cl	-0.022885	-0.541267	-0.000107
Cl120	Cl	0.477115	-0.041267	0.499893
Cl121	Cl	-0.004830	-0.727131	-0.000092
Cl122	Cl	0.495170	-0.227131	0.499908
H123	H	0.291436	-1.016636	-0.617074
H124	H	0.791436	-0.516636	-0.117074
Cl125	Cl	0.361740	-1.075962	-0.402477
Cl126	Cl	0.861740	-0.575962	0.097523
Cl127	Cl	0.073450	-0.832802	-0.205179
Cl128	Cl	0.573450	-0.332802	0.294821
Cl129	Cl	0.040169	-0.804640	-0.597701
Cl130	Cl	0.540169	-0.304640	-0.097701
H131	H	0.077151	-0.835832	-0.775630
H132	H	0.577151	-0.335832	-0.275630
