data_functionalizedCrystal
_audit_creation_method	'MofGen! by Chris Wilmer'
_symmetry_space_group_name_H-M	'P1'
_symmetry_Int_Tables_number	1
_symmetry_cell_setting	triclinic
loop_
_symmetry_equiv_pos_as_xyz
  x,y,z
_cell_length_a	17.077404
_cell_length_b	21.295417
_cell_length_c	17.077396
_cell_angle_alpha	89.967856
_cell_angle_beta	89.980499
_cell_angle_gamma	90.029927
loop_
_atom_site_label
_atom_site_type_symbol
_atom_site_fract_x
_atom_site_fract_y
_atom_site_fract_z
Zn1	Zn	1.200017	-0.250605	-0.443823
Zn2	Zn	1.199909	-0.355878	-0.312548
Zn3	Zn	1.068749	-0.250628	-0.312571
Zn4	Zn	1.068702	-0.355841	-0.443772
O5	O	1.134344	-0.303238	-0.378178
O6	O	1.309850	-0.264577	-0.426421
O7	O	1.182485	-0.341942	-0.202704
O8	O	1.086228	-0.162535	-0.330012
O9	O	1.309770	-0.341920	-0.329974
O10	O	1.182670	-0.162519	-0.426442
O11	O	1.086122	-0.264614	-0.202721
O12	O	0.958896	-0.264578	-0.329963
O13	O	1.086146	-0.341856	-0.553626
O14	O	0.958861	-0.341878	-0.426356
O15	O	1.182624	-0.264540	-0.553663
O16	O	1.182439	-0.443963	-0.329925
O17	O	1.086041	-0.443935	-0.426334
C18	C	0.930396	-0.303227	-0.378157
C19	C	0.843147	-0.303237	-0.378166
C20	C	0.802159	-0.343548	-0.428277
C21	C	0.720178	-0.343549	-0.428290
C22	C	0.679187	-0.303242	-0.378187
C23	C	0.720181	-0.262927	-0.328073
C24	C	0.802160	-0.262923	-0.328065
C25	C	0.549311	-0.262940	-0.328092
C26	C	0.467326	-0.262944	-0.328099
C27	C	0.467329	-0.343566	-0.428317
C28	C	0.549308	-0.343562	-0.428309
C29	C	0.590296	-0.303247	-0.378194
C30	C	1.134244	-0.466790	-0.378139
C31	C	1.134273	-0.536758	-0.378148
C32	C	1.184462	-0.569559	-0.428395
C33	C	1.184490	-0.635301	-0.428414
C34	C	1.134337	-0.668240	-0.378173
C35	C	1.084138	-0.635431	-0.327922
C36	C	1.084107	-0.569690	-0.327910
N37	N	1.128408	-0.771504	-0.309474
N38	N	1.128443	-0.833955	-0.309488
C39	C	1.134429	-0.866315	-0.378208
N40	N	1.140394	-0.833864	-0.446915
N41	N	1.140363	-0.771407	-0.446900
C42	C	1.134366	-0.739526	-0.378181
C43	C	1.184650	-0.970402	-0.428480
C44	C	1.184672	-1.036145	-0.428501
C45	C	1.084325	-1.036274	-0.328002
C46	C	1.084299	-0.970532	-0.327988
C47	C	1.134465	-0.937599	-0.378226
C48	C	1.339089	-0.303250	-0.378201
C49	C	1.426338	-0.303255	-0.378210
C50	C	1.134392	-0.303192	-0.582923
C51	C	1.134412	-0.303172	-0.670173
C52	C	1.134466	-0.139048	-0.378235
C53	C	1.134518	-0.069080	-0.378260
C54	C	1.184650	-0.262910	-0.711183
C55	C	1.184659	-0.262889	-0.793164
C56	C	1.134434	-0.303134	-0.834132
C57	C	1.084191	-0.343397	-0.793116
C58	C	1.084178	-0.343415	-0.711137
C59	C	1.084223	-0.343360	-0.963986
C60	C	1.084237	-0.343343	-1.045970
C61	C	1.184703	-0.262834	-1.046013
C62	C	1.184691	-0.262851	-0.964034
C63	C	1.134448	-0.303116	-0.923023
C64	C	1.134342	-0.303239	-0.174231
C65	C	1.134474	-0.303081	-0.086981
H66	H	0.686799	-0.230106	-0.287282
O67	O	1.233548	-0.223843	-0.924193
C68	C	1.339457	-0.215381	-0.831590
C69	C	1.284199	-0.259635	-0.876680
H70	H	1.380412	-0.244300	-0.793152
H71	H	1.375425	-0.186600	-0.874936
H72	H	1.303396	-0.182469	-0.793258
H73	H	1.320199	-0.292585	-0.915013
H74	H	1.248228	-0.288371	-0.833291
O75	O	0.589095	-0.223850	-0.279295
C76	C	0.614105	-0.193146	-0.145835
C77	C	0.569013	-0.237456	-0.201010
H78	H	0.597873	-0.204122	-0.082531
H79	H	0.679747	-0.200071	-0.154368
H80	H	0.598036	-0.142403	-0.159769
H81	H	0.585016	-0.288216	-0.187109
H82	H	0.503382	-0.230476	-0.192467
H83	H	1.043298	-0.376137	-0.930597
O84	O	1.233425	-0.223732	-1.085968
C85	C	1.277988	-0.188034	-1.212281
C86	C	1.222762	-0.232336	-1.167126
H87	H	1.269398	-0.194984	-1.277904
H88	H	1.264232	-0.137266	-1.196228
H89	H	1.341267	-0.199084	-1.196130
H90	H	1.159464	-0.221342	-1.183253
H91	H	1.236586	-0.283090	-1.183182
O92	O	1.233287	-0.667238	-0.477119
C93	C	1.339335	-0.741344	-0.487784
C94	C	1.284109	-0.705232	-0.432538
H95	H	1.380450	-0.772061	-0.451762
H96	H	1.303335	-0.772168	-0.528794
H97	H	1.375142	-0.706496	-0.523703
H98	H	1.248291	-0.740035	-0.396568
H99	H	1.320154	-0.674399	-0.391580
H100	H	1.043302	-0.662255	-0.287017
O101	O	1.035514	-0.382557	-0.832945
C102	C	1.024903	-0.467501	-0.925504
C103	C	1.080118	-0.423199	-0.880434
H104	H	1.060942	-0.500362	-0.963922
H105	H	0.989006	-0.496326	-0.882145
H106	H	0.983872	-0.438575	-0.963855
H107	H	1.121197	-0.452076	-0.842083
H108	H	1.115960	-0.394372	-0.923836
O109	O	0.427397	-0.382666	-0.476978
C110	C	0.301105	-0.418429	-0.521379
C111	C	0.346234	-0.374105	-0.466250
H112	H	0.235477	-0.411532	-0.512713
H113	H	0.317203	-0.407440	-0.584715
H114	H	0.317233	-0.469165	-0.507481
H115	H	0.330130	-0.323354	-0.480077
H116	H	0.330132	-0.385148	-0.402930
O117	O	0.680454	-0.382684	-0.477071
C118	C	0.655387	-0.413377	-0.610525
C119	C	0.700435	-0.369023	-0.555368
H120	H	0.671513	-0.402339	-0.673840
H121	H	0.671492	-0.464127	-0.596673
H122	H	0.589757	-0.406472	-0.601891
H123	H	0.766076	-0.375872	-0.563971
H124	H	0.684265	-0.318289	-0.569233
O125	O	1.035363	-0.382593	-0.671417
C126	C	0.935701	-0.462433	-0.680021
C127	C	0.990957	-0.418104	-0.725099
H128	H	0.899772	-0.491147	-0.723404
H129	H	0.971682	-0.495398	-0.641662
H130	H	0.894702	-0.433536	-0.641618
H131	H	1.031967	-0.446951	-0.763546
H132	H	0.954927	-0.385138	-0.763409
O133	O	1.035270	-0.537796	-0.279206
C134	C	0.929298	-0.463622	-0.268532
C135	C	0.984541	-0.499715	-0.323779
H136	H	0.888280	-0.432814	-0.304546
H137	H	0.893395	-0.498425	-0.232640
H138	H	0.965364	-0.432871	-0.227497
H139	H	0.948535	-0.530467	-0.364861
H140	H	1.020447	-0.464877	-0.359616
H141	H	0.835531	-0.230095	-0.287263
H142	H	1.225542	-1.062851	-0.469422
O143	O	1.035491	-1.068233	-0.279280
C144	C	0.901997	-1.088429	-0.241029
C145	C	0.957217	-1.052206	-0.296265
H146	H	0.838702	-1.075475	-0.254730
H147	H	0.910566	-1.141059	-0.249670
H148	H	0.915852	-1.075537	-0.177748
H149	H	0.943396	-1.065045	-0.359567
H150	H	0.948637	-0.999584	-0.287556
H151	H	0.835528	-0.376372	-0.469075
H152	H	0.582681	-0.376386	-0.469103
O153	O	1.233328	-0.223783	-0.671306
C154	C	1.243929	-0.138783	-0.578826
C155	C	1.188715	-0.183069	-0.623920
H156	H	1.207881	-0.105847	-0.540517
H157	H	1.284938	-0.167655	-0.540388
H158	H	1.279851	-0.110032	-0.622240
H159	H	1.152743	-0.211830	-0.580563
H160	H	1.147758	-0.154161	-0.662370
O161	O	1.233393	-0.938504	-0.477364
C162	C	1.332944	-0.945313	-0.577026
C163	C	1.277774	-0.981513	-0.521715
H164	H	1.368852	-0.980070	-0.612887
H165	H	1.296898	-0.914555	-0.618080
H166	H	1.373967	-0.914508	-0.541012
H167	H	1.236741	-1.012352	-0.557666
H168	H	1.313869	-1.012231	-0.480660
H169	H	1.043434	-0.943823	-0.287069
H170	H	1.225309	-0.542747	-0.469304
H171	H	1.043338	-0.376113	-1.079324
O172	O	1.233424	-0.223690	-0.832910
C173	C	1.271588	-0.116606	-0.858053
C174	C	1.216322	-0.160932	-0.812983
H175	H	1.257770	-0.065856	-0.841971
H176	H	1.334884	-0.127619	-0.841924
H177	H	1.262988	-0.123529	-0.923680
H178	H	1.224853	-0.154033	-0.747345
H179	H	1.153046	-0.149908	-0.829177
H180	H	0.433953	-0.230115	-0.287310
