data_functionalizedCrystal
_audit_creation_method	'MofGen! by Chris Wilmer'
_symmetry_space_group_name_H-M	'P1'
_symmetry_Int_Tables_number	1
_symmetry_cell_setting	triclinic
loop_
_symmetry_equiv_pos_as_xyz
  x,y,z
_cell_length_a	10.540539
_cell_length_b	26.809956
_cell_length_c	10.540510
_cell_angle_alpha	89.993126
_cell_angle_beta	84.519401
_cell_angle_gamma	90.006853
loop_
_atom_site_label
_atom_site_type_symbol
_atom_site_fract_x
_atom_site_fract_y
_atom_site_fract_z
O1	O	1.685878	0.041453	0.178885
O2	O	1.316463	0.041459	0.195741
O3	O	1.509618	0.041456	0.002604
O4	O	1.492723	0.041456	0.372022
O5	O	1.509582	-0.041504	0.002634
O6	O	1.316427	-0.041500	0.195770
O7	O	1.685841	-0.041506	0.178914
Zn8	Zn	1.501128	-0.054675	0.187347
Zn9	Zn	1.501176	0.054628	0.187308
O10	O	1.492686	-0.041503	0.372051
C11	C	1.269142	-0.000020	0.194492
C12	C	1.128194	-0.000018	0.190710
C13	C	0.944783	-0.000211	0.045791
C14	C	1.091401	-0.000019	0.049624
C15	C	1.066535	0.047355	0.258589
C16	C	0.919991	0.047389	0.253774
C17	C	0.919461	-0.046951	0.256678
C18	C	1.066443	-0.047572	0.257977
N19	N	1.501105	-0.129271	0.187373
C20	C	1.586695	-0.473898	0.101809
C21	C	1.586724	-0.682776	0.101790
O22	O	1.659445	-0.709781	0.029047
N23	N	1.501183	-0.708898	0.187281
C24	C	1.415622	-0.682797	0.272777
O25	O	1.342856	-0.709808	0.345483
C26	C	1.415587	-0.473920	0.272789
C27	C	1.501143	-0.447801	0.187301
C28	C	1.672242	-0.447779	0.016327
C29	C	1.672239	-0.395563	0.016337
C30	C	1.586687	-0.369466	0.101829
C31	C	1.501139	-0.395585	0.187311
C32	C	1.330022	-0.447821	0.358278
C33	C	1.330018	-0.395598	0.358271
C34	C	1.415574	-0.369479	0.272783
C35	C	1.415584	-0.317272	0.272813
N36	N	1.501126	-0.291150	0.187323
C37	C	1.586677	-0.317247	0.101830
C38	C	1.415648	-0.792460	0.272766
C39	C	1.415658	-0.844679	0.272765
C40	C	1.586759	-0.844655	0.101776
C41	C	1.586754	-0.792435	0.101784
C42	C	1.501190	-0.766339	0.187275
C43	C	1.586664	-0.207589	0.101859
C44	C	1.586656	-0.155368	0.101881
C45	C	1.415551	-0.155397	0.272865
C46	C	1.415563	-0.207614	0.272848
C47	C	1.501124	-0.233708	0.187335
O48	O	1.342893	-0.290234	0.345508
O49	O	1.659414	-0.290227	0.029116
C50	C	1.586698	-0.526115	0.101798
C51	C	1.501150	-0.552234	0.187280
C52	C	1.415599	-0.526137	0.272772
C53	C	1.501160	-0.604453	0.187279
C54	C	1.586712	-0.630550	0.101787
C55	C	1.672253	-0.604428	0.016296
C56	C	1.672250	-0.552212	0.016306
C57	C	1.330057	-0.552259	0.358263
C58	C	1.330069	-0.604475	0.358247
C59	C	1.415621	-0.630572	0.272755
C60	C	1.733163	-0.000026	0.180164
C61	C	1.874110	-0.000025	0.183946
C62	C	1.508341	-0.000023	-0.044685
C63	C	1.504574	-0.000020	-0.185635
N64	N	1.501210	0.129224	0.187273
C65	C	1.638758	-0.000212	-0.403090
C66	C	1.642776	-0.000022	-0.256495
C67	C	1.433849	0.047354	-0.230410
C68	C	1.430810	0.047391	-0.377171
C69	C	1.427890	-0.046949	-0.376946
C70	C	1.434445	-0.047573	-0.230605
C71	C	1.493964	-0.000023	0.419340
C72	C	1.497731	-0.000023	0.560290
H73	H	0.891802	0.082800	0.203580
H74	H	1.332108	0.049117	-0.183022
Cl75	Cl	1.267690	-0.047441	-0.411146
Cl76	Cl	1.509728	0.101785	-0.182800
H77	H	1.088878	0.049117	0.362198
Cl78	Cl	0.870749	-0.102390	0.186199
H79	H	1.471793	-0.082858	-0.419115
H80	H	1.134005	-0.033978	-0.003787
Cl81	Cl	1.222458	-0.480646	0.465750
H82	H	1.107395	-0.082618	0.208389
H83	H	0.872012	0.049539	0.355240
Cl84	Cl	1.721436	0.051942	-0.470273
H85	H	1.133167	0.033998	-0.004188
H86	H	1.656334	-0.228829	0.032225
H87	H	1.345908	-0.228880	0.342473
Cl88	Cl	1.779808	-0.480578	-0.091163
H89	H	0.916189	-0.034185	-0.009934
H90	H	1.485907	-0.082619	-0.201980
H91	H	1.260389	-0.531014	0.427880
H92	H	1.109144	0.082610	0.211412
H93	H	1.698116	-0.033981	-0.227139
Cl94	Cl	1.779806	-0.637245	-0.091176
Cl95	Cl	1.271226	0.050717	-0.412682
H96	H	1.656421	-0.865912	0.032166
Cl97	Cl	1.103814	-0.051987	0.416795
Cl98	Cl	1.721871	-0.052666	-0.467845
H99	H	0.872223	-0.047271	0.358583
Cl100	Cl	1.505489	0.102061	-0.439287
Cl101	Cl	1.278658	-0.051987	-0.154854
Cl102	Cl	1.728753	0.052498	-0.212647
H103	H	0.914597	0.033572	-0.009722
H104	H	1.656330	-0.134103	0.032266
H105	H	1.741902	-0.374299	-0.053278
Cl106	Cl	1.694311	-0.759605	-0.005693
H107	H	1.260337	-0.374353	0.427887
H108	H	1.346005	-0.865942	0.342390
H109	H	1.345970	-0.771216	0.342386
Cl110	Cl	1.308006	-0.122581	0.380337
Cl111	Cl	1.779809	-0.519383	-0.091172
H112	H	1.260402	-0.625738	0.427873
