data_functionalizedCrystal
_audit_creation_method	'MofGen! by Chris Wilmer'
_symmetry_space_group_name_H-M	'P1'
_symmetry_Int_Tables_number	1
_symmetry_cell_setting	triclinic
loop_
_symmetry_equiv_pos_as_xyz
  x,y,z
_cell_length_a	14.519731
_cell_length_b	14.519731
_cell_length_c	12.996460
_cell_angle_alpha	89.992872
_cell_angle_beta	89.994327
_cell_angle_gamma	83.688853
loop_
_atom_site_label
_atom_site_type_symbol
_atom_site_fract_x
_atom_site_fract_y
_atom_site_fract_z
O1	O	1.223866	0.120985	-0.085571
O2	O	1.557199	0.454319	0.247762
O3	O	1.890533	0.787652	0.581095
O4	O	0.955393	0.135201	-0.085573
O5	O	1.288726	0.468535	0.247760
O6	O	1.622059	0.801868	0.581093
O7	O	1.096737	-0.006143	-0.085563
O8	O	1.430071	0.327190	0.247770
O9	O	1.763404	0.660523	0.581104
O10	O	1.082521	0.262330	-0.085582
O11	O	1.415855	0.595663	0.247752
O12	O	1.749188	0.928996	0.581085
O13	O	1.096723	-0.006151	0.085571
O14	O	1.430056	0.327182	0.418904
O15	O	1.763389	0.660515	0.752238
O16	O	0.955378	0.135193	0.085561
O17	O	1.288711	0.468527	0.418894
O18	O	1.622045	0.801860	0.752227
O19	O	1.223851	0.120977	0.085562
O20	O	1.557184	0.454311	0.418896
O21	O	1.890518	0.787644	0.752229
Cu22	Cu	1.089613	0.128085	0.101187
Cu23	Cu	1.422947	0.461418	0.434521
Cu24	Cu	1.756280	0.794751	0.767854
Cu25	Cu	1.089631	0.128094	-0.101198
Cu26	Cu	1.422964	0.461427	0.232135
Cu27	Cu	1.756297	0.794761	0.565468
O28	O	1.082507	0.262322	0.085552
O29	O	1.415840	0.595655	0.418885
O30	O	1.749173	0.928989	0.752219
C31	C	0.921026	0.134531	-0.000006
C32	C	1.254359	0.467864	0.333327
C33	C	1.587693	0.801198	0.666660
C34	C	0.818645	0.132535	-0.000007
C35	C	1.151979	0.465868	0.333326
C36	C	1.485312	0.799202	0.666660
C37	C	0.735501	0.130913	-0.000011
C38	C	1.068835	0.464247	0.333322
C39	C	1.402168	0.797580	0.666656
C40	C	0.631192	0.128887	-0.000011
C41	C	0.964526	0.462220	0.333322
C42	C	1.297859	0.795553	0.666655
C43	C	0.548053	0.127278	-0.000011
C44	C	0.881386	0.460612	0.333322
C45	C	1.214720	0.793945	0.666656
C46	C	0.443738	0.125252	-0.000013
C47	C	0.777071	0.458585	0.333320
C48	C	1.110404	0.791919	0.666654
C49	C	1.096064	-0.040507	0.000004
C50	C	1.429397	0.292827	0.333338
C51	C	1.762730	0.626160	0.666671
C52	C	1.094068	-0.142887	0.000005
C53	C	1.427401	0.190446	0.333338
C54	C	1.760734	0.523780	0.666671
C55	C	1.092446	-0.226031	0.000002
C56	C	1.425779	0.107302	0.333336
C57	C	1.759113	0.440635	0.666669
C58	C	1.090419	-0.330340	-0.000005
C59	C	1.423753	0.002993	0.333328
C60	C	1.757086	0.336326	0.666661
C61	C	1.088811	-0.413479	-0.000012
C62	C	1.422144	-0.080146	0.333321
C63	C	1.755478	0.253187	0.666655
C64	C	1.086785	-0.517795	-0.000018
C65	C	1.420118	-0.184462	0.333315
C66	C	1.753451	0.148872	0.666649
C67	C	1.258218	0.121648	-0.000007
C68	C	1.591551	0.454981	0.333327
C69	C	1.924885	0.788314	0.666660
C70	C	1.360598	0.123644	-0.000013
C71	C	1.693932	0.456977	0.333320
C72	C	2.027265	0.790310	0.666654
C73	C	1.083180	0.296685	-0.000017
C74	C	1.416513	0.630019	0.333316
C75	C	1.749847	0.963352	0.666649
C76	C	1.085176	0.399066	-0.000025
C77	C	1.418509	0.732399	0.333309
C78	C	1.751843	1.065732	0.666642
N79	N	1.089608	0.128078	0.243534
N80	N	1.422941	0.461411	0.576868
N81	N	1.756274	0.794744	0.910201
N82	N	1.089644	0.128094	-0.243545
N83	N	1.422977	0.461427	0.089788
N84	N	1.756310	0.794760	0.423121
C85	C	1.089629	0.128095	0.663349
C86	C	1.422963	0.461428	0.996682
C87	C	1.756296	0.794762	1.330015
C88	C	1.089621	0.128093	0.546544
C89	C	1.422954	0.461427	0.879877
C90	C	1.756287	0.794760	1.213210
C91	C	1.089619	0.128087	0.453445
C92	C	1.422952	0.461420	0.786779
C93	C	1.756286	0.794754	1.120112
C94	C	1.089609	0.128084	0.336633
C95	C	1.422943	0.461417	0.669966
C96	C	1.756276	0.794750	1.003299
