data_functionalizedCrystal
_audit_creation_method	'MofGen! by Chris Wilmer'
_symmetry_space_group_name_H-M	'P1'
_symmetry_Int_Tables_number	1
_symmetry_cell_setting	triclinic
loop_
_symmetry_equiv_pos_as_xyz
  x,y,z
_cell_length_a	34.408637
_cell_length_b	34.407814
_cell_length_c	34.404193
_cell_angle_alpha	60.004510
_cell_angle_beta	60.009006
_cell_angle_gamma	59.994604
loop_
_atom_site_label
_atom_site_type_symbol
_atom_site_fract_x
_atom_site_fract_y
_atom_site_fract_z
O1	O	0.053973	-0.567860	0.474801
O2	O	0.020377	-0.442124	0.382567
O3	O	0.100004	-0.521670	0.382483
O4	O	-0.025653	-0.488314	0.474886
O5	O	0.126426	-0.495253	0.408816
O6	O	0.046800	-0.415707	0.408900
O7	O	0.080396	-0.541443	0.501134
Zn8	Zn	0.067793	-0.474381	0.459198
Zn9	Zn	0.032980	-0.509186	0.424503
O10	O	0.000769	-0.461897	0.501219
N11	N	0.091552	-0.450631	0.482879
N12	N	0.009225	-0.532940	0.400823
C13	C	0.142848	-0.268847	0.534081
C14	C	0.142979	-0.399386	0.664559
C15	C	0.142862	-0.399365	0.534081
C16	C	0.273409	-0.399338	0.533986
C17	C	0.157225	-0.311914	0.548422
C18	C	0.157300	-0.385019	0.621491
C19	C	0.230339	-0.384991	0.548370
C20	C	0.157235	-0.385007	0.548422
C21	C	0.124548	-0.214028	0.515827
C22	C	0.124571	-0.417639	0.515827
C23	C	0.175526	-0.366733	0.566676
C24	C	0.353121	-0.385580	0.491988
C25	C	0.402952	-0.402180	0.475348
C26	C	0.402981	-0.482812	0.506096
C27	C	0.353151	-0.466211	0.522737
C28	C	0.136544	-0.189099	0.466839
C29	C	0.119905	-0.139265	0.450247
C30	C	0.079280	-0.139291	0.531632
C31	C	0.095918	-0.189125	0.548224
C32	C	0.075577	-0.405615	0.527900
C33	C	0.058953	-0.422228	0.511301
C34	C	0.140315	-0.462889	0.470566
C35	C	0.156941	-0.446276	0.487159
C36	C	0.075772	-0.405653	0.744326
C37	C	0.059206	-0.422280	0.794159
C38	C	0.140607	-0.462951	0.794094
C39	C	0.157172	-0.446325	0.744260
C40	C	0.124753	-0.417674	0.719377
C41	C	0.328223	-0.417595	0.515681
C42	C	-0.172390	-0.583988	0.349141
C43	C	-0.041751	-0.584138	0.218783
C44	C	-0.041941	-0.584130	0.349402
C45	C	-0.041957	-0.714607	0.349338
C46	C	-0.129326	-0.598388	0.334853
C47	C	-0.056165	-0.598473	0.261852
C48	C	-0.056282	-0.671535	0.334962
C49	C	-0.056272	-0.598469	0.334999
C50	C	-0.227205	-0.565659	0.367327
C51	C	-0.023703	-0.565882	0.367734
C52	C	-0.074511	-0.616717	0.316667
C53	C	-0.055754	-0.794298	0.391257
C54	C	-0.039181	-0.844132	0.407888
C55	C	0.041447	-0.844215	0.377269
C56	C	0.024873	-0.794381	0.360637
C57	C	-0.252183	-0.577666	0.416302
C58	C	-0.302014	-0.561001	0.432833
C59	C	-0.301886	-0.520329	0.351410
C60	C	-0.252055	-0.536994	0.334880
C61	C	-0.035709	-0.516892	0.355682
C62	C	-0.019129	-0.500308	0.372353
C63	C	0.021465	-0.581700	0.413115
C64	C	0.004884	-0.598286	0.396450
C65	C	-0.035389	-0.516907	0.139026
C66	C	-0.018707	-0.500324	0.089193
C67	C	0.021949	-0.581721	0.089240
C68	C	0.005268	-0.598303	0.139074
C69	C	-0.023402	-0.565894	0.163965
C70	C	-0.023728	-0.769425	0.367633
N71	N	0.427173	-0.450553	0.482630
O72	O	0.589997	-0.458460	0.365361
O73	O	0.590185	-0.550997	0.490963
O74	O	0.590104	-0.550786	0.411309
O75	O	0.590077	-0.458671	0.445016
O76	O	0.510940	-0.524462	0.437777
O77	O	0.511020	-0.524674	0.517432
O78	O	0.510832	-0.432136	0.391830
Zn79	Zn	0.498357	-0.474225	0.458833
Zn80	Zn	0.602660	-0.508908	0.423960
O81	O	0.510913	-0.432348	0.471484
N82	N	0.673844	-0.532580	0.400158
N83	N	0.091520	-0.115070	0.482873
O84	O	-0.025663	0.047841	0.474857
O85	O	0.099940	0.047877	0.382299
O86	O	0.020247	0.047844	0.382560
O87	O	0.054030	0.047874	0.474596
O88	O	0.046674	-0.031326	0.408942
O89	O	0.126367	-0.031293	0.408680
O90	O	0.000764	-0.031329	0.501238
Zn91	Zn	0.067761	-0.043881	0.459148
Zn92	Zn	0.032943	0.060429	0.424389
O93	O	0.080457	-0.031296	0.500977
N94	N	0.009178	0.131618	0.400665
N95	N	0.091852	-0.450680	0.818332
O96	O	0.083862	-0.567845	0.981235
O97	O	-0.008657	-0.442198	0.981276
O98	O	-0.008441	-0.521875	0.981252
O99	O	0.083646	-0.488168	0.981258
O100	O	0.017919	-0.495468	0.902085
O101	O	0.017703	-0.415791	0.902109
O102	O	0.110222	-0.541438	0.902067
Zn103	Zn	0.068148	-0.474422	0.889518
Zn104	Zn	0.033417	-0.509214	0.993825
O105	O	0.110006	-0.461761	0.902091
N106	N	0.009712	-0.532961	1.065011
C107	C	0.030439	-0.413071	0.383027
C108	C	0.129046	-0.511580	0.382922
C109	C	0.070334	-0.570496	0.500675
C110	C	-0.028274	-0.471987	0.500780
C111	C	0.550625	-0.550579	0.520021
C112	C	0.550527	-0.550317	0.421379
C113	C	0.550389	-0.432554	0.362773
C114	C	0.550491	-0.432816	0.461414
C115	C	0.128944	0.008394	0.382712
C116	C	0.030287	0.008256	0.383068
C117	C	-0.028273	0.008252	0.500793
C118	C	0.070417	0.008292	0.500470
C119	C	-0.008218	-0.413165	0.941698
C120	C	-0.007945	-0.511830	0.941653
C121	C	0.109783	-0.570471	0.941646
C122	C	0.109516	-0.471800	0.941673
H123	H	0.049370	-0.382321	0.724071
C124	C	-0.047458	-0.364417	0.941707
H125	H	-0.075090	-0.364371	0.941703
H126	H	-0.054943	-0.358606	0.969316
H127	H	-0.036550	-0.340198	0.914097
C128	C	0.020518	0.008246	0.344003
H129	H	0.048019	0.008257	0.316288
H130	H	0.012971	-0.019367	0.355007
H131	H	-0.005459	0.035853	0.336607
C132	C	0.080186	0.008301	0.539535
H133	H	0.052683	0.008298	0.567247
H134	H	0.106164	-0.019300	0.546929
H135	H	0.087729	0.035920	0.528528
C136	C	-0.047012	-0.521554	0.941605
H137	H	-0.035372	-0.553071	0.941583
H138	H	-0.074090	-0.518008	0.969207
H139	H	-0.055669	-0.499583	0.913988
C140	C	0.148601	-0.462058	0.941665
H141	H	0.136967	-0.430534	0.941669
H142	H	0.157287	-0.484020	0.969265
H143	H	0.175663	-0.465601	0.914046
H144	H	0.050956	-0.774133	0.341399
H145	H	-0.064344	0.008241	0.529850
H146	H	0.138832	-0.606554	0.941627
C147	C	0.020743	-0.364280	0.343889
H148	H	-0.010771	-0.344350	0.355483
H149	H	0.042720	-0.349981	0.335201
H150	H	0.024290	-0.368410	0.316839
H151	H	0.019320	-0.412483	0.814467
H152	H	0.550674	-0.579628	0.556096
H153	H	0.165136	-0.518689	0.353905
C154	C	0.177570	0.008709	0.343357
H155	H	0.197562	0.008784	0.354816
H156	H	0.191924	-0.018837	0.334579
H157	H	0.173221	0.036382	0.316399
C158	C	0.053477	-0.617369	0.061859
H159	H	0.061692	-0.600477	0.028609
H160	H	0.081625	-0.636836	0.070081
H161	H	0.036559	-0.636781	0.069990
C162	C	-0.077027	-0.462389	0.539978
H163	H	-0.097004	-0.430881	0.528439
H164	H	-0.091293	-0.484392	0.548657
H165	H	-0.072863	-0.465965	0.567021
H166	H	0.167007	-0.486271	0.814352
H167	H	0.550540	-0.579254	0.414165
C168	C	0.550310	-0.393304	0.314045
H169	H	0.550299	-0.404805	0.294048
H170	H	0.522686	-0.366269	0.318244
H171	H	0.577903	-0.384629	0.299779
C172	C	0.550476	-0.393723	0.471155
H173	H	0.550513	-0.405360	0.502667
H174	H	0.578057	-0.385026	0.449175
H175	H	0.522841	-0.366668	0.467639
H176	H	0.049217	-0.382297	0.551240
C177	C	0.211053	-0.459547	0.716820
H178	H	0.227986	-0.478985	0.738778
H179	H	0.219214	-0.476449	0.697377
H180	H	0.219202	-0.431359	0.697381
H181	H	0.019058	-0.412426	0.521121
C182	C	0.080026	-0.619288	0.539812
H183	H	0.052500	-0.619420	0.567503
H184	H	0.087563	-0.643483	0.528858
H185	H	0.105991	-0.625057	0.547227
C186	C	0.175923	-0.494422	0.439065
H187	H	0.159005	-0.502607	0.430921
H188	H	0.195360	-0.477534	0.410874
H189	H	0.195365	-0.522596	0.455982
C190	C	0.210834	-0.459500	0.473882
H191	H	0.216100	-0.445502	0.487869
H192	H	0.224848	-0.493123	0.485327
H193	H	0.224800	-0.448025	0.440255
C194	C	0.325764	-0.501429	0.548801
H195	H	0.292516	-0.484583	0.557707
H196	H	0.333916	-0.517181	0.528300
H197	H	0.333960	-0.524247	0.576485
C198	C	0.430401	-0.536287	0.513854
H199	H	0.408435	-0.552978	0.530352
H200	H	0.449820	-0.540904	0.483909
H201	H	0.449861	-0.547973	0.532098
H202	H	0.423225	-0.376108	0.456057
H203	H	0.332825	-0.345993	0.486242
H204	H	-0.058984	-0.490504	0.332300
C205	C	0.168032	-0.216489	0.431201
H206	H	0.172787	-0.194504	0.399649
H207	H	0.197914	-0.235923	0.435963
H208	H	0.152816	-0.235934	0.436003
H209	H	-0.028474	-0.460433	0.068892
H210	H	0.129672	-0.118967	0.410356
H211	H	0.055974	-0.119015	0.558014
H212	H	-0.058738	-0.490513	0.159288
C213	C	0.082740	-0.216543	0.602110
H214	H	0.063313	-0.194573	0.619026
H215	H	0.065842	-0.235999	0.610306
H216	H	0.110943	-0.235969	0.610243
H217	H	-0.028907	-0.460416	0.362542
C218	C	0.018452	-0.652191	0.166507
H219	H	0.004416	-0.657427	0.199751
H220	H	0.007007	-0.666170	0.158304
H221	H	0.052071	-0.666220	0.158396
C222	C	0.052913	-0.617348	0.444699
H223	H	0.057687	-0.648899	0.449489
H224	H	0.082789	-0.612594	0.429535
H225	H	0.037657	-0.612544	0.474566
H226	H	0.014660	-0.638178	0.406265
H227	H	-0.065262	-0.864385	0.427124
C228	C	0.094907	-0.871668	0.369576
H229	H	0.100189	-0.904910	0.382868
H230	H	0.112320	-0.863523	0.336449
H231	H	0.105189	-0.863515	0.384676
C232	C	-0.109215	-0.766846	0.398944
H233	H	-0.125913	-0.788800	0.415390
H234	H	-0.120928	-0.747398	0.417204
H235	H	-0.113786	-0.747411	0.368976
H236	H	-0.231954	-0.601008	0.442726
H237	H	-0.322352	-0.570775	0.472713
H238	H	-0.322118	-0.496994	0.324987
H239	H	-0.231721	-0.527215	0.295000
