data_functionalizedCrystal
_audit_creation_method	'MofGen! by Chris Wilmer'
_symmetry_space_group_name_H-M	'P1'
_symmetry_Int_Tables_number	1
_symmetry_cell_setting	triclinic
loop_
_symmetry_equiv_pos_as_xyz
  x,y,z
_cell_length_a	23.532407
_cell_length_b	23.532357
_cell_length_c	12.996460
_cell_angle_alpha	89.988323
_cell_angle_beta	89.997089
_cell_angle_gamma	82.838519
loop_
_atom_site_label
_atom_site_type_symbol
_atom_site_fract_x
_atom_site_fract_y
_atom_site_fract_z
O1	O	0.755248	0.069138	-0.085514
O2	O	1.255248	0.569138	0.414486
O3	O	0.589383	0.079141	-0.085532
O4	O	1.089383	0.579141	0.414468
O5	O	0.677332	-0.008794	-0.085502
O6	O	1.177332	0.491206	0.414498
O7	O	0.667299	0.157073	-0.085545
O8	O	1.167299	0.657073	0.414455
O9	O	0.677323	-0.008799	0.085632
O10	O	1.177323	0.491201	0.585632
O11	O	0.589374	0.079137	0.085602
O12	O	1.089374	0.579137	0.585602
O13	O	0.755239	0.069133	0.085620
O14	O	1.255239	0.569133	0.585620
Cu15	Cu	0.672305	0.074134	0.101236
Cu16	Cu	1.172305	0.574134	0.601236
Cu17	Cu	0.672316	0.074140	-0.101149
Cu18	Cu	1.172316	0.574140	0.398851
O19	O	0.667290	0.157069	0.085589
O20	O	1.167290	0.657069	0.585589
C21	C	0.568162	0.078884	0.000033
C22	C	1.068162	0.578884	0.500033
C23	C	0.504945	0.078118	0.000027
C24	C	1.004945	0.578118	0.500027
C25	C	0.677076	-0.030013	0.000069
C26	C	1.177076	0.469987	0.500069
C27	C	0.676322	-0.093232	0.000078
C28	C	1.176322	0.406768	0.500078
C29	C	0.238788	0.022922	0.000069
C30	C	0.738788	0.522922	0.500069
C31	C	0.298188	0.023633	0.000069
C32	C	0.798188	0.523633	0.500069
O33	O	0.334940	-0.020154	0.000116
O34	O	0.834940	0.479846	0.500116
N35	N	0.320805	0.075911	0.000048
N36	N	0.820805	0.575911	0.500048
C37	C	0.284018	0.127480	0.000038
C38	C	0.784018	0.627480	0.500038
O39	O	0.308710	0.172012	0.000022
O40	O	0.808710	0.672012	0.500022
C41	C	0.224619	0.126768	0.000046
C42	C	0.724619	0.626768	0.500046
C43	C	0.202006	0.074487	0.000056
C44	C	0.702006	0.574487	0.500056
C45	C	0.216174	-0.029355	0.000081
C46	C	0.716174	0.470645	0.500081
C47	C	0.156778	-0.030066	0.000079
C48	C	0.656778	0.469934	0.500079
C49	C	0.119996	0.021499	0.000066
C50	C	0.619996	0.521499	0.500066
C51	C	0.142610	0.073776	0.000055
C52	C	0.642610	0.573776	0.500055
C53	C	0.187833	0.178337	0.000044
C54	C	0.687833	0.678337	0.500044
C55	C	0.128431	0.177620	0.000052
C56	C	0.628431	0.677620	0.500052
C57	C	0.105818	0.125339	0.000063
C58	C	0.605818	0.625339	0.500063
C59	C	0.046431	0.124630	0.000041
C60	C	0.546431	0.624630	0.500041
N61	N	0.023815	0.072353	0.000061
N62	N	0.523815	0.572353	0.500061
C63	C	0.060597	0.020787	0.000074
C64	C	0.560597	0.520787	0.500074
C65	C	0.408760	0.128971	0.000024
C66	C	0.908760	0.628971	0.500024
C67	C	0.468158	0.129684	0.000009
C68	C	0.968158	0.629684	0.500009
C69	C	0.482324	0.025837	0.000041
C70	C	0.982324	0.525837	0.500041
C71	C	0.422925	0.025125	0.000049
C72	C	0.922925	0.525125	0.500049
C73	C	0.386143	0.076694	0.000044
C74	C	0.886143	0.576694	0.500044
C75	C	-0.064140	0.019297	0.000070
C76	C	0.435860	0.519297	0.500070
C77	C	-0.123542	0.018591	0.000064
C78	C	0.376458	0.518591	0.500064
C79	C	-0.137702	0.122438	0.000038
C80	C	0.362298	0.622438	0.500038
C81	C	-0.078306	0.123145	0.000038
C82	C	0.421694	0.623145	0.500038
C83	C	-0.041525	0.071570	0.000058
C84	C	0.458475	0.571570	0.500058
O85	O	0.009644	0.168394	-0.000002
O86	O	0.509644	0.668394	0.499998
O87	O	0.035897	-0.023737	0.000104
O88	O	0.535897	0.476263	0.500104
C89	C	0.671590	-0.485240	-0.093263
C90	C	1.171590	0.014760	0.406737
C91	C	0.670873	-0.544640	-0.093269
C92	C	1.170873	-0.044640	0.406731
O93	O	0.670487	-0.575354	-0.172604
O94	O	1.170487	-0.075354	0.327396
N95	N	0.670512	-0.574354	0.000015
N96	N	1.170512	-0.074354	0.500015
C97	C	0.670863	-0.544664	0.093311
C98	C	1.170863	-0.044664	0.593311
O99	O	0.670490	-0.575392	0.172655
O100	O	1.170490	-0.075392	0.672655
C101	C	0.671576	-0.485265	0.093315
C102	C	1.171576	0.014735	0.593315
C103	C	0.671942	-0.455555	0.000026
C104	C	1.171942	0.044445	0.500026
C105	C	0.671956	-0.455530	-0.186545
C106	C	1.171956	0.044470	0.313455
C107	C	0.672674	-0.396135	-0.186539
C108	C	1.172674	0.103865	0.313461
C109	C	0.673026	-0.366450	-0.093250
C110	C	1.173026	0.133550	0.406750
C111	C	0.672661	-0.396160	0.000032
C112	C	1.172661	0.103840	0.500032
C113	C	0.671923	-0.455576	0.186610
C114	C	1.171923	0.044424	0.686610
C115	C	0.672636	-0.396173	0.186607
C116	C	1.172636	0.103827	0.686607
C117	C	0.673002	-0.366463	0.093317
C118	C	1.173002	0.133537	0.593317
C119	C	0.673732	-0.307080	0.093327
C120	C	1.173732	0.192920	0.593327
N121	N	0.674092	-0.277366	0.000043
N122	N	1.174092	0.222634	0.500043
C123	C	0.673740	-0.307051	-0.093245
C124	C	1.173740	0.192949	0.406755
C125	C	0.669364	-0.669406	0.093293
C126	C	1.169364	-0.169406	0.593293
C127	C	0.668655	-0.728804	0.093289
C128	C	1.168655	-0.228804	0.593289
C129	C	0.668664	-0.728775	-0.093290
C130	C	1.168664	-0.228775	0.406710
C131	C	0.669377	-0.669377	-0.093286
C132	C	1.169377	-0.169377	0.406714
C133	C	0.669725	-0.639692	0.000010
C134	C	1.169725	-0.139692	0.500010
C135	C	0.675249	-0.182317	-0.093225
C136	C	1.175249	0.317683	0.406775
C137	C	0.675969	-0.122917	-0.093210
C138	C	1.175969	0.377083	0.406790
C139	C	0.675957	-0.122950	0.093369
C140	C	1.175957	0.377050	0.593369
C141	C	0.675240	-0.182345	0.093355
C142	C	1.175240	0.317655	0.593355
C143	C	0.674883	-0.212027	0.000050
C144	C	1.174883	0.287973	0.500050
O145	O	0.674116	-0.276327	0.172622
O146	O	1.174116	0.223673	0.672622
O147	O	0.674105	-0.276315	-0.172577
O148	O	1.174105	0.223685	0.327423
C149	C	0.776459	0.069390	0.000052
C150	C	1.276459	0.569390	0.500052
C151	C	0.839676	0.070156	0.000052
C152	C	1.339676	0.570156	0.500052
C153	C	0.667545	0.178288	0.000017
C154	C	1.167545	0.678288	0.500017
C155	C	0.668300	0.241506	0.000000
C156	C	1.168300	0.741506	0.500000
N157	N	0.672302	0.074130	0.243584
N158	N	1.172302	0.574130	0.743584
N159	N	0.672324	0.074140	-0.243496
N160	N	1.172324	0.574140	0.256504
C161	C	0.672315	0.074141	0.663398
C162	C	1.172315	0.574141	1.163398
C163	C	0.672310	0.074140	0.546593
C164	C	1.172310	0.574140	1.046593
C165	C	0.672309	0.074136	0.453494
C166	C	1.172309	0.574136	0.953494
C167	C	0.672303	0.074134	0.336682
C168	C	1.172303	0.574134	0.836682
H169	H	-0.141950	-0.023984	0.000070
H170	H	0.358050	0.476016	0.500070
H171	H	0.668366	-0.752990	0.169255
H172	H	1.168366	-0.252990	0.669255
H173	H	0.098485	0.219615	0.000054
H174	H	0.598485	0.719615	0.500054
Br175	Br	0.218507	0.249294	0.000027
Br176	Br	0.718507	0.749294	0.500027
Br177	Br	0.673106	-0.355890	0.313229
Br178	Br	1.173106	0.144110	0.813229
Br179	Br	0.674756	-0.222669	0.219963
Br180	Br	1.174756	0.277331	0.719963
Br181	Br	0.676437	-0.082652	0.219969
Br182	Br	1.176437	0.417348	0.719969
H183	H	0.378815	0.170968	0.000013
H184	H	0.878815	0.670968	0.500013
H185	H	-0.034199	-0.022700	0.000086
H186	H	0.465801	0.477300	0.500086
H187	H	0.676269	-0.098730	-0.169182
H188	H	1.176269	0.401270	0.330818
H189	H	0.138372	-0.072639	0.000092
H190	H	0.638372	0.427361	0.500092
H191	H	0.512283	-0.016151	0.000051
H192	H	1.012283	0.483849	0.500051
H193	H	0.671667	-0.479693	-0.262516
H194	H	1.171667	0.020307	0.237484
H195	H	0.246117	-0.071348	0.000094
H196	H	0.746117	0.428652	0.500094
Br197	Br	0.674764	-0.222590	-0.219854
Br198	Br	1.174764	0.277410	0.280146
Br199	Br	0.669840	-0.629126	0.219920
Br200	Br	1.169840	-0.129126	0.719920
Br201	Br	0.392242	-0.045830	0.000065
Br202	Br	0.892242	0.454170	0.500065
Br203	Br	0.673167	-0.355823	-0.313153
Br204	Br	1.173167	0.144177	0.186847
Br205	Br	0.669874	-0.629062	-0.219897
Br206	Br	1.169874	-0.129062	0.280103
H207	H	0.486564	0.172256	-0.000014
H208	H	0.986564	0.672256	0.499986
H209	H	-0.059893	0.165716	0.000028
H210	H	0.440107	0.665716	0.500028
H211	H	-0.167661	0.164421	0.000022
H212	H	0.332339	0.664421	0.500022
H213	H	0.668375	-0.752956	-0.169251
H214	H	1.168375	-0.252956	0.330749
Br215	Br	0.671423	-0.495881	0.313226
Br216	Br	1.171423	0.004119	0.813226
