data_functionalizedCrystal
_audit_creation_method	'MofGen! by Chris Wilmer'
_symmetry_space_group_name_H-M	'P1'
_symmetry_Int_Tables_number	1
_symmetry_cell_setting	triclinic
loop_
_symmetry_equiv_pos_as_xyz
  x,y,z
_cell_length_a	19.805407
_cell_length_b	19.121063
_cell_length_c	19.805399
_cell_angle_alpha	92.411105
_cell_angle_beta	89.982197
_cell_angle_gamma	92.466276
loop_
_atom_site_label
_atom_site_type_symbol
_atom_site_fract_x
_atom_site_fract_y
_atom_site_fract_z
Zn1	Zn	1.023232	-0.279680	-0.394173
Zn2	Zn	1.018315	-0.397133	-0.285808
Zn3	Zn	0.910046	-0.279694	-0.281002
Zn4	Zn	0.905180	-0.397090	-0.398957
O5	O	0.964193	-0.338399	-0.339985
O6	O	1.117296	-0.295273	-0.379808
O7	O	1.003932	-0.381578	-0.190455
O8	O	0.929154	-0.181408	-0.292001
O9	O	1.113684	-0.381564	-0.300193
O10	O	1.012311	-0.181398	-0.375147
O11	O	0.924387	-0.295296	-0.186924
O12	O	0.814684	-0.295255	-0.296639
O13	O	0.920862	-0.381491	-0.493038
O14	O	0.811110	-0.381505	-0.383300
O15	O	1.007593	-0.295231	-0.489523
O16	O	0.999214	-0.495411	-0.304831
O17	O	0.916094	-0.495380	-0.387961
C18	C	0.788338	-0.338377	-0.339968
C19	C	0.713106	-0.338385	-0.339977
C20	C	0.679640	-0.293532	-0.381502
C21	C	0.608951	-0.293536	-0.381505
C22	C	0.571730	-0.338396	-0.339986
C23	C	0.605201	-0.383251	-0.298456
C24	C	0.675888	-0.383243	-0.298450
C25	C	0.320126	-0.383282	-0.298478
C26	C	0.249434	-0.383288	-0.298489
C27	C	0.253189	-0.293575	-0.381532
C28	C	0.323877	-0.293567	-0.381527
C29	C	0.357342	-0.338419	-0.339995
C30	C	0.433990	-0.338414	-0.339991
C31	C	0.495082	-0.338406	-0.339992
C32	C	0.956611	-0.520880	-0.347452
C33	C	0.953430	-0.598946	-0.350668
C34	C	0.995244	-0.635614	-0.308934
C35	C	0.992256	-0.708966	-0.311964
C36	C	0.947449	-0.745647	-0.356724
C37	C	0.905632	-0.708973	-0.398463
C38	C	0.908625	-0.635623	-0.395436
C39	C	0.936251	-0.967116	-0.368029
C40	C	0.933260	-1.040472	-0.371051
C41	C	1.019885	-1.040459	-0.284552
C42	C	1.022870	-0.967108	-0.281527
C43	C	0.981056	-0.930440	-0.323268
C44	C	0.944392	-0.820624	-0.359820
C45	C	0.984117	-0.855465	-0.320175
C46	C	1.140735	-0.338422	-0.340003
C47	C	1.215967	-0.338431	-0.340011
C48	C	0.964233	-0.338355	-0.516526
C49	C	0.964250	-0.338336	-0.591757
C50	C	0.971823	-0.155206	-0.332504
C51	C	0.975075	-0.077140	-0.329316
C52	C	1.009412	-0.293418	-0.625272
C53	C	1.009420	-0.293398	-0.695960
C54	C	0.964268	-0.338299	-0.733131
C55	C	0.919101	-0.383219	-0.699611
C56	C	0.919091	-0.383236	-0.628925
C57	C	0.919142	-0.383154	-0.984682
C58	C	0.919158	-0.383136	-1.055374
C59	C	1.009472	-0.293316	-1.051717
C60	C	1.009461	-0.293332	-0.981031
C61	C	0.964292	-0.338249	-0.947517
C62	C	0.964283	-0.338270	-0.870869
C63	C	0.964280	-0.338283	-0.809778
C64	C	0.964195	-0.338393	-0.164129
C65	C	0.964317	-0.338214	-0.088890
H66	H	0.581706	-0.257014	-0.415320
O67	O	1.071200	-0.927555	-0.233244
H68	H	1.042284	-0.894194	-0.197399
O69	O	1.058116	-0.244987	-0.585187
H70	H	1.091243	-0.276435	-0.554278
H71	H	1.046248	-0.256740	-1.079013
H72	H	1.046197	-0.256823	-0.723245
H73	H	0.902203	-0.937268	-0.402015
O74	O	1.037354	-0.748517	-0.266949
H75	H	1.026340	-0.734491	-0.213238
H76	H	0.882387	-0.419701	-1.085637
H77	H	0.874575	-0.605768	-0.429421
O78	O	0.719786	-0.245143	-0.426279
H79	H	0.684636	-0.213948	-0.455147
H80	H	1.046230	-0.256771	-0.950769
O81	O	1.032448	-0.815899	-0.271906
H82	H	1.020301	-0.830018	-0.219353
H83	H	0.219130	-0.419821	-0.264677
O84	O	0.217091	-0.245193	-0.426323
H85	H	0.254850	-0.214005	-0.455197
O86	O	0.884925	-1.080042	-0.419323
H87	H	0.913835	-1.113424	-0.455154
O88	O	1.065003	-1.080005	-0.239552
H89	H	1.055406	-1.137172	-0.249183
H90	H	0.354179	-0.257040	-0.415338
H91	H	0.869152	-0.738845	-0.434911
H92	H	0.907908	-0.850498	-0.396263
H93	H	0.882372	-0.419738	-0.957404
O94	O	0.870396	-0.431647	-0.739698
H95	H	0.877993	-0.424094	-0.794482
H96	H	0.882308	-0.419805	-0.601638
H97	H	0.703135	-0.419766	-0.264636
O98	O	0.356217	-0.431653	-0.253684
H99	H	0.318457	-0.462850	-0.224819
H100	H	0.574890	-0.419773	-0.264647
O101	O	1.043575	-0.596051	-0.260659
H102	H	1.072155	-0.633876	-0.232154
