data_functionalizedCrystal
_audit_creation_method	'MofGen! by Chris Wilmer'
_symmetry_space_group_name_H-M	'P1'
_symmetry_Int_Tables_number	1
_symmetry_cell_setting	triclinic
loop_
_symmetry_equiv_pos_as_xyz
  x,y,z
_cell_length_a	6.817900
_cell_length_b	12.200875
_cell_length_c	11.102210
_cell_angle_alpha	92.492480
_cell_angle_beta	108.604261
_cell_angle_gamma	107.143593
loop_
_atom_site_label
_atom_site_type_symbol
_atom_site_fract_x
_atom_site_fract_y
_atom_site_fract_z
V1	V	-4.094460	-0.357658	-0.176127
O2	O	-4.053827	-0.350853	0.008167
O3	O	-4.071345	-0.355210	-0.348945
O4	O	-4.063801	-0.513647	-0.173548
O5	O	-4.061424	-0.191319	-0.168444
V6	V	-4.572513	-0.337763	-0.154068
O7	O	-4.367718	-0.401300	-0.224515
O8	O	-4.749453	-0.294121	-0.105680
O9	O	-4.372422	-0.340212	0.018750
O10	O	-4.730543	-0.344569	-0.338362
O11	O	-4.722946	-0.504103	-0.161751
O12	O	-4.379966	-0.181775	-0.156647
C13	C	-3.921923	-0.349567	-0.391070
C14	C	-3.984428	-0.348605	-0.532351
C15	C	-4.017397	-0.242216	-0.713259
C16	C	-3.958643	-0.243107	-0.580508
C17	C	-4.068954	-0.453217	-0.616954
C18	C	-4.127692	-0.452325	-0.749703
C19	C	-3.694010	-0.114439	-0.373034
C20	C	-3.609518	-0.009829	-0.288437
C21	C	-3.697999	0.079533	-0.319595
C22	C	-3.871019	0.064289	-0.435347
C23	C	-3.955528	-0.040323	-0.519938
C24	C	-3.866999	-0.129680	-0.488780
C25	C	-4.392338	-0.580987	-0.957178
C26	C	-4.476864	-0.685600	-1.041772
C27	C	-4.388401	-0.774972	-1.010620
C28	C	-4.215415	-0.759740	-0.894865
C29	C	-4.130890	-0.655127	-0.810272
C30	C	-4.219353	-0.565754	-0.841433
C31	C	-3.912298	-0.551667	-0.167333
C32	C	-3.968681	-0.679189	-0.166368
C33	C	-4.071871	-0.912663	-0.164602
C34	C	-4.014440	-0.782741	-0.165584
C35	C	-4.185187	-0.345852	0.060868
C36	C	-4.101920	-0.346821	0.202148
C37	C	-4.194811	-0.143748	-0.162867
C38	C	-4.117665	-0.016226	-0.163825
H39	H	-4.464370	-0.508211	-0.982561
H40	H	-3.996402	-0.156309	-0.752457
H41	H	-4.089932	-0.539115	-0.577735
O42	O	-4.120003	-0.856134	-0.861228
H43	H	-3.943756	-0.824996	-0.849505
O44	O	-3.944360	-0.638685	-0.685391
H45	H	-3.802263	-0.563942	-0.683062
O46	O	-4.142110	-0.056775	-0.644787
H47	H	-4.189444	0.022942	-0.652248
O48	O	-4.479569	-0.887816	-1.101848
H49	H	-4.460964	-0.870566	-1.195627
O50	O	-3.966469	0.160672	-0.468954
H51	H	-3.878625	0.235979	-0.390692
O52	O	-3.606924	0.192369	-0.228370
H53	H	-3.430886	0.232832	-0.214116
O54	O	-3.598575	-0.210823	-0.339399
H55	H	-3.422327	-0.179671	-0.327673
H56	H	-4.617726	-0.697997	-1.136024
O57	O	-3.422891	0.006625	-0.163599
H58	H	-3.375518	-0.073080	-0.156154
