data_functionalizedCrystal
_audit_creation_method	'MofGen! by Chris Wilmer'
_symmetry_space_group_name_H-M	'P1'
_symmetry_Int_Tables_number	1
_symmetry_cell_setting	triclinic
loop_
_symmetry_equiv_pos_as_xyz
  x,y,z
_cell_length_a	13.897448
_cell_length_b	12.827893
_cell_length_c	12.827885
_cell_angle_alpha	89.980728
_cell_angle_beta	90.032276
_cell_angle_gamma	89.982337
loop_
_atom_site_label
_atom_site_type_symbol
_atom_site_fract_x
_atom_site_fract_y
_atom_site_fract_z
Zn1	Zn	-0.383969	-1.597653	0.590831
Zn2	Zn	-0.545295	-1.597540	0.416083
Zn3	Zn	-0.384016	-1.422894	0.416104
Zn4	Zn	-0.545224	-1.422873	0.590783
O5	O	-0.464626	-1.510240	0.503450
O6	O	-0.405380	-1.743874	0.567661
O7	O	-0.523951	-1.574335	0.269850
O8	O	-0.249028	-1.446133	0.439311
O9	O	-0.523905	-1.743791	0.439275
O10	O	-0.248994	-1.574527	0.567681
O11	O	-0.405460	-1.446023	0.269865
O12	O	-0.405390	-1.276655	0.439265
O13	O	-0.523783	-1.446096	0.737026
O14	O	-0.523829	-1.276639	0.567601
O15	O	-0.405310	-1.574506	0.737060
O16	O	-0.680267	-1.574314	0.439229
O17	O	-0.680215	-1.445986	0.567580
C18	C	-0.464607	-1.238730	0.503430
C19	C	-0.464623	-1.122577	0.503447
C20	C	-0.715240	-1.510164	0.503420
C21	C	-0.822454	-1.510227	0.503442
C22	C	-0.464533	-1.510311	0.776021
C23	C	-0.464494	-1.510341	0.892174
C24	C	-1.018749	-1.510336	0.503508
C25	C	-0.909517	-1.510272	0.503474
C26	C	-0.213033	-1.510345	0.503504
C27	C	-0.105819	-1.510390	0.503526
C28	C	-0.464645	-1.782810	0.503471
C29	C	-0.464654	-1.898963	0.503480
C30	C	-0.523321	-1.070812	0.566853
C31	C	-0.523338	-0.950762	0.566872
C32	C	-0.464649	-1.510229	0.231940
C33	C	-0.464416	-1.510401	0.115788
C34	C	-0.405858	-1.573890	0.943976
C35	C	-0.405816	-1.573923	1.064026
H36	H	-0.573559	-1.115371	0.621128
H37	H	-0.573595	-0.906245	0.621154
H38	H	-0.414400	-0.943473	0.449188
Br39	Br	-0.380870	-1.048320	0.412994
H40	H	-0.355686	-1.628268	0.899449
H41	H	-0.514656	-1.455953	0.936701
H42	H	-0.355619	-1.628332	1.108575
H43	H	-0.514623	-1.455996	1.071246
