data_functionalizedCrystal
_audit_creation_method	'MofGen! by Chris Wilmer'
_symmetry_space_group_name_H-M	'P1'
_symmetry_Int_Tables_number	1
_symmetry_cell_setting	triclinic
loop_
_symmetry_equiv_pos_as_xyz
  x,y,z
_cell_length_a	25.639242
_cell_length_b	18.215405
_cell_length_c	18.215399
_cell_angle_alpha	90.030551
_cell_angle_beta	89.971544
_cell_angle_gamma	89.979588
loop_
_atom_site_label
_atom_site_type_symbol
_atom_site_fract_x
_atom_site_fract_y
_atom_site_fract_z
Zn1	Zn	0.799308	0.293080	-0.416272
Zn2	Zn	1.132641	0.626413	-0.082939
Zn3	Zn	1.465974	0.959746	0.250395
Zn4	Zn	0.799243	0.416151	-0.293200
Zn5	Zn	1.132576	0.749484	0.040133
Zn6	Zn	1.465909	1.082817	0.373467
Zn7	Zn	0.711874	0.293093	-0.293201
Zn8	Zn	1.045208	0.626426	0.040133
Zn9	Zn	1.378541	0.959760	0.373466
Zn10	Zn	0.711850	0.416099	-0.416206
Zn11	Zn	1.045183	0.749433	-0.082873
Zn12	Zn	1.378517	1.082766	0.250460
O13	O	0.755569	0.354606	-0.354720
O14	O	1.088902	0.687939	-0.021386
O15	O	1.422235	1.021272	0.311947
O16	O	0.872464	0.309421	-0.399973
O17	O	1.205798	0.642754	-0.066640
O18	O	1.539131	0.976088	0.266693
O19	O	0.787636	0.399854	-0.190216
O20	O	1.120969	0.733188	0.143118
O21	O	1.454303	1.066521	0.476451
O22	O	0.723510	0.190107	-0.309554
O23	O	1.056843	0.523440	0.023779
O24	O	1.390177	0.856774	0.357113
O25	O	0.872416	0.399841	-0.309553
O26	O	1.205750	0.733174	0.023781
O27	O	1.539083	1.066508	0.357114
O28	O	0.787747	0.190097	-0.399974
O29	O	1.121080	0.523430	-0.066641
O30	O	1.454414	0.856764	0.266693
O31	O	0.723447	0.309444	-0.190216
O32	O	1.056780	0.642778	0.143117
O33	O	1.390114	0.976111	0.476450
O34	O	0.638706	0.309394	-0.309491
O35	O	0.972039	0.642728	0.023843
O36	O	1.305373	0.976061	0.357176
O37	O	0.723469	0.399753	-0.519199
O38	O	1.056802	0.733087	-0.185866
O39	O	1.390135	1.066420	0.147467
O40	O	0.638688	0.399766	-0.399862
O41	O	0.972022	0.733100	-0.066529
O42	O	1.305355	1.066433	0.266804
O43	O	0.787723	0.309371	-0.519247
O44	O	1.121057	0.642705	-0.185914
O45	O	1.454390	0.976038	0.147419
O46	O	0.787612	0.519128	-0.309489
O47	O	1.120946	0.852462	0.023844
O48	O	1.454279	1.185795	0.357177
O49	O	0.723406	0.519090	-0.399862
O50	O	1.056739	0.852424	-0.066528
O51	O	1.390072	1.185757	0.266805
C52	C	0.619726	0.354577	-0.354670
C53	C	0.953060	0.687910	-0.021336
C54	C	1.286393	1.021243	0.311997
C55	C	0.561612	0.354582	-0.354666
C56	C	0.894945	0.687915	-0.021333
C57	C	1.228279	1.021249	0.312001
C58	C	0.755601	0.354555	-0.546673
C59	C	1.088934	0.687888	-0.213339
C60	C	1.422267	1.021222	0.119994
C61	C	0.755614	0.354533	-0.628472
C62	C	1.088947	0.687867	-0.295138
C63	C	1.422281	1.021200	0.038195
C64	C	0.755514	0.545812	-0.354684
C65	C	1.088847	0.879145	-0.021351
C66	C	1.422180	1.212479	0.311982
C67	C	0.755538	0.627611	-0.354694
C68	C	1.088871	0.960944	-0.021360
C69	C	1.422204	1.294278	0.311973
C70	C	0.201249	0.401741	-0.401732
C71	C	0.534582	0.735074	-0.068398
C72	C	0.867915	1.068408	0.264935
C73	C	0.146644	0.401746	-0.401743
C74	C	0.479978	0.735079	-0.068410
C75	C	0.813311	1.068412	0.264923
O76	O	0.118407	0.441806	-0.441718
O77	O	0.451741	0.775139	-0.108385
O78	O	0.785074	1.108473	0.224949
N79	N	0.119330	0.354626	-0.354768
N80	N	0.452663	0.687959	-0.021434
N81	N	0.785996	1.021293	0.311899
C82	C	0.146622	0.307493	-0.307783
C83	C	0.479955	0.640827	0.025551
C84	C	0.813289	0.974160	0.358884
O85	O	0.118375	0.267414	-0.267828
O86	O	0.451708	0.600748	0.065505
O87	O	0.785041	0.934081	0.398839
C88	C	0.201225	0.307486	-0.307775
C89	C	0.534559	0.640819	0.025558
C90	C	0.867892	0.974152	0.358891
C91	C	0.228537	0.354614	-0.354749
C92	C	0.561871	0.687947	-0.021415
C93	C	0.895204	1.021280	0.311918
C94	C	0.228561	0.448865	-0.448702
C95	C	0.561894	0.782198	-0.115368
C96	C	0.895227	1.115531	0.217965
C97	C	0.283161	0.448861	-0.448689
C98	C	0.616494	0.782194	-0.115356
C99	C	0.949828	1.115528	0.217978
C100	C	0.310450	0.401734	-0.401706
C101	C	0.643783	0.735067	-0.068373
C102	C	0.977116	1.068400	0.264961
C103	C	0.283138	0.354610	-0.354736
C104	C	0.616471	0.687943	-0.021403
C105	C	0.949804	1.021277	0.311931
C106	C	0.228517	0.260350	-0.260795
C107	C	0.561850	0.593683	0.072539
C108	C	0.895183	0.927017	0.405872
C109	C	0.283124	0.260346	-0.260792
C110	C	0.616457	0.593679	0.072542
C111	C	0.949791	0.927013	0.405875
C112	C	0.310436	0.307474	-0.307765
C113	C	0.643769	0.640807	0.025568
C114	C	0.977102	0.974141	0.358901
C115	C	0.365027	0.307479	-0.307740
C116	C	0.698360	0.640812	0.025593
C117	C	1.031694	0.974146	0.358926
N118	N	0.392342	0.354599	-0.354716
N119	N	0.725675	0.687932	-0.021383
N120	N	1.059008	1.021265	0.311951
C121	C	0.365053	0.401726	-0.401699
C122	C	0.698386	0.735059	-0.068365
C123	C	1.031720	1.068393	0.264968
C124	C	0.031951	0.307512	-0.307803
C125	C	0.365285	0.640846	0.025531
C126	C	0.698618	0.974179	0.358864
C127	C	-0.022651	0.307523	-0.307806
C128	C	0.310682	0.640856	0.025528
C129	C	0.644016	0.974190	0.358861
C130	C	-0.022625	0.401774	-0.401767
C131	C	0.310709	0.735108	-0.068434
C132	C	0.644042	1.068441	0.264899
C133	C	0.031979	0.401767	-0.401760
C134	C	0.365312	0.735100	-0.068427
C135	C	0.698645	1.068433	0.264907
C136	C	0.059266	0.354632	-0.354778
C137	C	0.392600	0.687965	-0.021445
C138	C	0.725933	1.021299	0.311888
C139	C	0.479718	0.401715	-0.401668
C140	C	0.813051	0.735048	-0.068335
C141	C	1.146385	1.068382	0.264999
C142	C	0.534324	0.401709	-0.401649
C143	C	0.867657	0.735043	-0.068315
C144	C	1.200990	1.068376	0.265018
C145	C	0.534293	0.307456	-0.307690
C146	C	0.867626	0.640789	0.025643
C147	C	1.200959	0.974122	0.358976
C148	C	0.479692	0.307464	-0.307706
C149	C	0.813025	0.640797	0.025627
C150	C	1.146359	0.974130	0.358960
C151	C	0.452406	0.354596	-0.354701
C152	C	0.785740	0.687929	-0.021368
C153	C	1.119073	1.021263	0.311966
O154	O	0.393299	0.267437	-0.267788
O155	O	0.726632	0.600770	0.065545
O156	O	1.059965	0.934104	0.398879
O157	O	0.393307	0.441792	-0.441654
O158	O	0.726640	0.775125	-0.108320
O159	O	1.059974	1.108458	0.225013
C160	C	0.891942	0.354635	-0.354770
C161	C	1.225275	0.687969	-0.021437
C162	C	1.558608	1.021302	0.311896
C163	C	0.950056	0.354648	-0.354792
C164	C	1.283389	0.687981	-0.021458
C165	C	1.616722	1.021315	0.311875
C166	C	0.755638	0.162653	-0.354771
C167	C	1.088972	0.495986	-0.021438
C168	C	1.422305	0.829319	0.311895
C169	C	0.755668	0.080854	-0.354793
C170	C	1.089001	0.414187	-0.021460
C171	C	1.422335	0.747521	0.311873
C172	C	0.789049	0.815800	-0.307724
C173	C	1.122382	1.149133	0.025610
C174	C	1.455715	1.482467	0.358943
C175	C	0.789072	0.892659	-0.307741
C176	C	1.122405	1.225992	0.025592
C177	C	1.455739	1.559325	0.358925
C178	C	0.722156	0.892659	-0.401769
C179	C	1.055489	1.225993	-0.068435
C180	C	1.388822	1.559326	0.264898
C181	C	0.722135	0.815802	-0.401754
C182	C	1.055469	1.149135	-0.068421
C183	C	1.388802	1.482469	0.264913
C184	C	0.755581	0.777374	-0.354727
C185	C	1.088914	1.110708	-0.021394
C186	C	1.422248	1.444041	0.311939
C187	C	0.755625	0.931090	-0.354760
C188	C	1.088958	1.264424	-0.021426
C189	C	1.422291	1.597757	0.311907
C190	C	0.755650	1.014424	-0.354779
C191	C	1.088983	1.347757	-0.021446
C192	C	1.422317	1.681091	0.311887
C193	C	0.755557	0.694035	-0.354708
C194	C	1.088890	1.027369	-0.021375
C195	C	1.422223	1.360702	0.311958
C196	C	0.789084	0.307427	-0.816692
C197	C	1.122417	0.640761	-0.483359
C198	C	1.455750	0.974094	-0.150025
C199	C	0.789090	0.307406	-0.893551
C200	C	1.122423	0.640739	-0.560217
C201	C	1.455756	0.974073	-0.226884
C202	C	0.722182	0.401525	-0.893489
C203	C	1.055515	0.734859	-0.560156
C204	C	1.388848	1.068192	-0.226823
C205	C	0.722173	0.401543	-0.816632
C206	C	1.055507	0.734876	-0.483299
C207	C	1.388840	1.068209	-0.149965
C208	C	0.755627	0.354495	-0.778235
C209	C	1.088960	0.687828	-0.444902
C210	C	1.422294	1.021161	-0.111569
C211	C	0.755642	0.354456	-0.931951
C212	C	1.088975	0.687789	-0.598618
C213	C	1.422309	1.021123	-0.265285
C214	C	0.755648	0.354433	-1.015285
C215	C	1.088982	0.687767	-0.681952
C216	C	1.422315	1.021100	-0.348618
C217	C	0.755620	0.354516	-0.694896
C218	C	1.088953	0.687850	-0.361563
C219	C	1.422287	1.021183	-0.028230
C220	C	0.755567	0.354603	-0.163513
C221	C	1.088900	0.687936	0.169820
C222	C	1.422234	1.021270	0.503153
C223	C	0.755655	0.354417	-0.081715
C224	C	1.088988	0.687751	0.251618
C225	C	1.422321	1.021084	0.584952
H226	H	0.457508	0.440093	-0.439937
H227	H	0.790842	0.773426	-0.106604
H228	H	1.124175	1.106760	0.226729
O229	O	0.199068	0.209517	-0.210130
O230	O	0.532401	0.542850	0.123203
O231	O	0.865735	0.876183	0.456536
H232	H	0.174211	0.172122	-0.243142
H233	H	0.507545	0.505456	0.090191
H234	H	0.840878	0.838789	0.423524
H235	H	0.206348	0.487242	-0.486965
H236	H	0.539681	0.820575	-0.153632
H237	H	0.873015	1.153908	0.179702
O238	O	0.686082	0.934111	-0.452483
O239	O	1.019415	1.267444	-0.119150
O240	O	1.352748	1.600778	0.214183
H241	H	0.662810	0.894477	-0.485171
H242	H	0.996143	1.227810	-0.151838
H243	H	1.329476	1.561143	0.181496
O244	O	0.825173	0.934108	-0.257052
O245	O	1.158507	1.267441	0.076281
O246	O	1.491840	1.600775	0.409614
H247	H	0.801802	0.969187	-0.219586
H248	H	1.135135	1.302520	0.113748
H249	H	1.468468	1.635853	0.447081
O250	O	0.312617	0.499681	-0.499364
O251	O	0.645950	0.833014	-0.166030
O252	O	0.979283	1.166348	0.167303
H253	H	0.284460	0.532441	-0.532038
H254	H	0.617794	0.865774	-0.198705
H255	H	0.951127	1.199107	0.134628
O256	O	0.825132	0.774358	-0.257014
O257	O	1.158465	1.107691	0.076320
O258	O	1.491798	1.441025	0.409653
H259	H	0.851704	0.739292	-0.289996
H260	H	1.185038	1.072625	0.043338
H261	H	1.518371	1.405959	0.376671
O262	O	0.686070	0.452296	-0.775157
O263	O	1.019403	0.785630	-0.441823
O264	O	1.352737	1.118963	-0.108490
H265	H	0.695009	0.510060	-0.789882
H266	H	1.028342	0.843393	-0.456549
H267	H	1.361675	1.176726	-0.123215
H268	H	0.816323	0.269116	-0.785432
H269	H	1.149656	0.602449	-0.452098
H270	H	1.482989	0.935783	-0.118765
O271	O	0.825171	0.256631	-0.935026
O272	O	1.158504	0.589964	-0.601693
O273	O	1.491838	0.923298	-0.268359
H274	H	0.819552	0.264511	-0.994921
H275	H	1.152885	0.597845	-0.661588
H276	H	1.486219	0.931178	-0.328254
O277	O	0.061384	0.256679	-0.257119
O278	O	0.394717	0.590013	0.076214
O279	O	0.728051	0.923346	0.409547
H280	H	0.086241	0.289569	-0.219619
H281	H	0.419574	0.622903	0.113715
H282	H	0.752908	0.956236	0.447048
H283	H	0.556558	0.440089	-0.439901
H284	H	0.889892	0.773423	-0.106567
H285	H	1.223225	1.106756	0.226766
H286	H	0.694882	0.784514	-0.440034
H287	H	1.028215	1.117847	-0.106700
H288	H	1.361548	1.451180	0.226633
O289	O	0.686100	0.452268	-0.934904
O290	O	1.019433	0.785601	-0.601571
O291	O	1.352767	1.118934	-0.268237
H292	H	0.709491	0.489712	-0.969916
H293	H	1.042824	0.823045	-0.636583
H294	H	1.376157	1.156378	-0.303250
O295	O	0.061436	0.452589	-0.452431
O296	O	0.394769	0.785922	-0.119097
O297	O	0.728103	1.119256	0.214236
H298	H	0.033281	0.485354	-0.485103
H299	H	0.366615	0.818688	-0.151769
H300	H	0.699948	1.152021	0.181564
H301	H	-0.044853	0.440146	-0.440026
H302	H	0.288480	0.773479	-0.106693
H303	H	0.621814	1.106813	0.226641
H304	H	0.457454	0.269090	-0.269455
H305	H	0.790787	0.602423	0.063878
H306	H	1.124120	0.935756	0.397211
O307	O	-0.052111	0.256704	-0.257135
O308	O	0.281222	0.590037	0.076198
O309	O	0.614556	0.923371	0.409531
H310	H	-0.041616	0.198960	-0.269862
H311	H	0.291717	0.532293	0.063471
H312	H	0.625050	0.865626	0.396805
O313	O	0.312557	0.209516	-0.210108
O314	O	0.645890	0.542849	0.123225
O315	O	0.979223	0.876183	0.456558
H316	H	0.284388	0.176757	-0.177444
H317	H	0.617721	0.510090	0.155889
H318	H	0.951055	0.843423	0.489223
O319	O	0.563730	0.256622	-0.257020
O320	O	0.897063	0.589956	0.076313
O321	O	1.230396	0.923289	0.409647
H322	H	0.606286	0.264535	-0.264915
H323	H	0.939620	0.597868	0.068419
H324	H	1.272953	0.931202	0.401752
