data_functionalizedCrystal
_audit_creation_method	'MofGen! by Chris Wilmer'
_symmetry_space_group_name_H-M	'P1'
_symmetry_Int_Tables_number	1
_symmetry_cell_setting	triclinic
loop_
_symmetry_equiv_pos_as_xyz
  x,y,z
_cell_length_a	13.032831
_cell_length_b	17.077402
_cell_length_c	17.077396
_cell_angle_alpha	90.029784
_cell_angle_beta	97.190844
_cell_angle_gamma	82.827244
loop_
_atom_site_label
_atom_site_type_symbol
_atom_site_fract_x
_atom_site_fract_y
_atom_site_fract_z
Zn1	Zn	1.597631	-0.465146	0.595967
Zn2	Zn	2.097631	0.034854	1.095967
Zn3	Zn	1.597508	-0.596409	0.464687
Zn4	Zn	2.097508	-0.096409	0.964687
Zn5	Zn	1.422874	-0.448477	0.448074
Zn6	Zn	1.922874	0.051523	0.948074
Zn7	Zn	1.422832	-0.579673	0.579277
Zn8	Zn	1.922832	-0.079673	1.079277
O9	O	1.510211	-0.522426	0.522001
O10	O	2.010211	-0.022426	1.022001
O11	O	1.743854	-0.496538	0.592490
O12	O	2.243854	0.003462	1.092490
O13	O	1.574308	-0.576813	0.352633
O14	O	2.074308	-0.076813	0.852633
O15	O	1.446126	-0.340848	0.467725
O16	O	1.946126	0.159152	0.967725
O17	O	1.743763	-0.592977	0.496039
O18	O	2.243763	-0.092977	0.996039
O19	O	1.574519	-0.353094	0.576382
O20	O	2.074519	0.146906	1.076382
O21	O	1.446006	-0.468128	0.340428
O22	O	1.946006	0.031872	0.840428
O23	O	1.276629	-0.451900	0.451541
O24	O	1.776629	0.048100	0.951541
O25	O	1.446053	-0.564453	0.691341
O26	O	1.946053	-0.064453	1.191341
O27	O	1.276598	-0.548290	0.547935
O28	O	1.776598	-0.048290	1.047935
O29	O	1.574478	-0.480310	0.703604
O30	O	2.074478	0.019690	1.203604
O31	O	1.574267	-0.704029	0.479855
O32	O	2.074267	-0.204029	0.979855
O33	O	1.445933	-0.691734	0.564044
O34	O	1.945933	-0.191734	1.064044
C35	C	1.510110	-0.726365	0.521960
C36	C	2.010110	-0.226365	1.021960
C37	C	1.510163	-0.813619	0.521978
C38	C	2.010163	-0.313619	1.021978
C39	C	1.238696	-0.496471	0.496125
C40	C	1.738696	0.003529	0.996125
C41	C	1.122540	-0.485386	0.485074
C42	C	1.622540	0.014614	0.985074
C43	C	1.577054	-0.860992	0.478201
C44	C	2.077054	-0.360992	0.978201
C45	C	1.577106	-0.942978	0.478226
C46	C	2.077106	-0.442978	0.978226
C47	C	1.510259	-0.977588	0.522024
C48	C	2.010259	-0.477588	1.022024
C49	C	1.443364	-0.930209	0.565806
C50	C	1.943364	-0.430209	1.065806
C51	C	1.443319	-0.848226	0.565785
C52	C	1.943319	-0.348226	1.065785
C53	C	1.443461	-1.101088	0.565845
C54	C	1.943461	-0.601088	1.065845
C55	C	1.443505	-1.183077	0.565865
C56	C	1.943505	-0.683077	1.065865
C57	C	1.577247	-1.195840	0.478286
C58	C	2.077247	-0.695840	0.978286
C59	C	1.577202	-1.113857	0.478265
C60	C	2.077202	-0.613857	0.978265
C61	C	1.510306	-1.066483	0.522046
C62	C	2.010306	-0.566483	1.022046
C63	C	1.070766	-0.528212	0.527769
C64	C	1.570766	-0.028212	1.027769
C65	C	0.950714	-0.516756	0.516348
C66	C	1.450714	-0.016756	1.016348
C67	C	1.782787	-0.548484	0.547979
C68	C	2.282787	-0.048484	1.047979
C69	C	1.898943	-0.559588	0.559049
C70	C	2.398943	-0.059588	1.059049
C71	C	1.510274	-0.522374	0.726752
C72	C	2.010274	-0.022374	1.226752
C73	C	1.510301	-0.522352	0.814004
C74	C	2.010301	-0.022352	1.314004
C75	C	1.510341	-0.317694	0.522062
C76	C	2.010341	0.182306	1.022062
C77	C	1.510396	-0.230450	0.522088
C78	C	2.010396	0.269550	1.022088
C79	C	1.510208	-0.522427	0.318053
C80	C	2.010208	-0.022427	0.818053
C81	C	1.510384	-0.522247	0.230821
C82	C	2.010384	-0.022247	0.730821
C83	C	1.577175	-0.478535	0.861381
C84	C	2.077175	0.021465	1.361381
C85	C	1.577187	-0.478510	0.943363
C86	C	2.077187	0.021490	1.443363
C87	C	1.510331	-0.522307	0.977966
C88	C	2.010331	-0.022307	1.477966
C89	C	1.443451	-0.566126	0.930583
C90	C	1.943451	-0.066126	1.430583
C91	C	1.443433	-0.566146	0.848603
C92	C	1.943433	-0.066146	1.348603
C93	C	1.443493	-0.566083	1.101457
C94	C	1.943493	-0.066083	1.601457
C95	C	1.443511	-0.566064	1.183444
C96	C	1.943511	-0.066064	1.683444
C97	C	1.577246	-0.478447	1.196217
C98	C	2.077246	0.021553	1.696217
C99	C	1.577229	-0.478467	1.114237
C100	C	2.077229	0.021533	1.614237
C101	C	1.510350	-0.522287	1.066859
C102	C	2.010350	-0.022287	1.566859
H103	H	1.631484	-0.832818	0.442532
H104	H	2.131484	-0.332818	0.942532
H105	H	1.389016	-0.601752	1.062883
H106	H	1.889016	-0.101752	1.562883
F107	F	1.648304	-0.993392	0.431635
F108	F	2.148304	-0.493392	0.931635
F109	F	1.372347	-0.612671	1.220269
F110	F	1.872347	-0.112671	1.720269
F111	F	1.648347	-1.077024	0.431650
F112	F	2.148347	-0.577024	0.931650
H113	H	1.631675	-0.442809	1.086065
H114	H	2.131675	0.057191	1.586065
F115	F	1.372293	-0.612735	0.967413
F116	F	1.872293	-0.112735	1.467413
H117	H	0.943490	-0.604733	0.604066
H118	H	1.443490	-0.104733	1.104066
F119	F	1.064311	-0.426371	0.426247
F120	F	1.564311	0.073629	0.926247
F121	F	1.372227	-0.967046	0.612424
F122	F	1.872227	-0.467046	1.112424
F123	F	1.128995	-0.587225	0.586598
F124	F	1.628995	-0.087225	1.086598
F125	F	1.648339	-0.431924	0.824561
F126	F	2.148339	0.068076	1.324561
F127	F	1.648436	-1.246258	0.431684
F128	F	2.148436	-0.746258	0.931684
H129	H	1.389092	-1.211256	0.601546
H130	H	1.889092	-0.711256	1.101546
F131	F	1.648399	-0.431905	0.993785
F132	F	2.148399	0.068095	1.493785
F133	F	1.648426	-0.431811	1.246641
F134	F	2.148426	0.068189	1.746641
F135	F	1.372255	-0.612780	0.798181
F136	F	1.872255	-0.112780	1.298181
F137	F	1.372265	-1.050672	0.612445
F138	F	1.872265	-0.550672	1.112445
H139	H	0.906164	-0.471603	0.471340
H140	H	1.406164	0.028397	0.971340
F141	F	1.372127	-0.797808	0.612381
F142	F	1.872127	-0.297808	1.112381
