data_functionalizedCrystal
_audit_creation_method	'MofGen! by Chris Wilmer'
_symmetry_space_group_name_H-M	'P1'
_symmetry_Int_Tables_number	1
_symmetry_cell_setting	triclinic
loop_
_symmetry_equiv_pos_as_xyz
  x,y,z
_cell_length_a	10.489741
_cell_length_b	10.868271
_cell_length_c	11.792241
_cell_angle_alpha	90.005281
_cell_angle_beta	84.366295
_cell_angle_gamma	90.001615
loop_
_atom_site_label
_atom_site_type_symbol
_atom_site_fract_x
_atom_site_fract_y
_atom_site_fract_z
O1	O	1.693508	0.102247	0.160137
O2	O	2.193508	0.602247	0.660137
O3	O	1.322261	0.102266	0.175169
O4	O	1.822261	0.602266	0.675169
O5	O	1.516893	0.102247	0.002507
O6	O	2.016893	0.602247	0.502507
O7	O	1.498875	0.102265	0.332799
O8	O	1.998875	0.602265	0.832799
O9	O	1.516877	-0.102397	0.002500
O10	O	2.016877	0.397603	0.502500
O11	O	1.322245	-0.102379	0.175162
O12	O	1.822245	0.397621	0.675162
O13	O	1.693492	-0.102398	0.160130
O14	O	2.193492	0.397602	0.660130
Zn15	Zn	1.507866	-0.134880	0.167645
Zn16	Zn	2.007866	0.365120	0.667645
Zn17	Zn	1.507887	0.134748	0.167654
Zn18	Zn	2.007887	0.634748	0.667654
O19	O	1.498859	-0.102379	0.332792
O20	O	1.998859	0.397621	0.832792
C21	C	1.274725	-0.000054	0.174030
C22	C	1.774725	0.499946	0.674030
C23	C	1.133107	-0.000047	0.170633
C24	C	1.633107	0.499953	0.670633
N25	N	1.507860	-0.318894	0.167638
N26	N	2.007860	0.181106	0.667638
C27	C	1.515753	-0.000075	-0.039791
C28	C	2.015753	0.499925	0.460209
C29	C	1.512366	-0.000073	-0.165813
C30	C	2.012366	0.499927	0.334187
C31	C	1.065341	-0.000065	0.060774
C32	C	1.565341	0.499935	0.560774
C33	C	0.973046	0.100836	0.112674
C34	C	1.473046	0.600836	0.612674
C35	C	0.973064	-0.100927	0.112693
C36	C	1.473064	0.399073	0.612693
C37	C	1.042676	0.100937	0.222579
C38	C	1.542676	0.600937	0.722579
C39	C	1.042704	-0.100917	0.222583
C40	C	1.542704	0.399083	0.722583
C41	C	0.950436	0.000008	0.274563
C42	C	1.450436	0.500008	0.774563
C43	C	1.741027	-0.000075	0.161269
C44	C	2.241027	0.499925	0.661269
C45	C	1.882645	-0.000074	0.164666
C46	C	2.382645	0.499926	0.664666
C47	C	1.507880	-0.569900	0.167652
C48	C	2.007880	-0.069900	0.667652
C49	C	1.507865	-0.430223	0.167648
C50	C	2.007865	0.069777	0.667648
N51	N	1.507902	0.318762	0.167652
N52	N	2.007902	0.818762	0.667652
C53	C	1.506136	-0.000052	-0.396542
C54	C	2.006136	0.499948	0.103458
C55	C	1.509598	-0.000064	-0.268148
C56	C	2.009598	0.499936	0.231852
C57	C	1.499999	-0.000055	0.375090
C58	C	1.999999	0.499945	0.875090
C59	C	1.503387	-0.000048	0.501113
C60	C	2.003387	0.499952	1.001113
H61	H	0.942196	0.186137	0.066193
H62	H	1.442196	0.686137	0.566193
C63	C	1.084439	-0.216152	0.285319
C64	C	1.584439	0.283848	0.785319
H65	H	1.060869	-0.287782	0.246177
H66	H	1.560869	0.212218	0.746177
H67	H	1.043507	-0.216875	0.360837
H68	H	1.543507	0.283125	0.860837
H69	H	1.174704	-0.214907	0.287621
H70	H	1.674704	0.285093	0.787621
H71	H	1.073353	0.186337	0.269029
H72	H	1.573353	0.686337	0.769029
C73	C	0.883239	0.000087	0.396687
C74	C	1.383239	0.500087	0.896687
H75	H	0.907063	0.071831	0.435524
H76	H	1.407063	0.571831	0.935524
H77	H	0.908143	-0.070906	0.436003
H78	H	1.408143	0.429094	0.936003
H79	H	0.793042	-0.000587	0.393871
H80	H	1.293042	0.499413	0.893871
H81	H	1.115339	0.000057	-0.029538
H82	H	1.615339	0.500057	0.470462
C83	C	0.931423	-0.216169	0.049875
C84	C	1.431423	0.283831	0.549875
H85	H	0.971167	-0.216038	-0.026071
H86	H	1.471167	0.283962	0.473929
H87	H	0.840997	-0.215747	0.048766
H88	H	1.340997	0.284253	0.548766
H89	H	0.956444	-0.287819	0.088165
H90	H	1.456444	0.212181	0.588165
