data_functionalizedCrystal
_audit_creation_method	'MofGen! by Chris Wilmer'
_symmetry_space_group_name_H-M	'P1'
_symmetry_Int_Tables_number	1
_symmetry_cell_setting	triclinic
loop_
_symmetry_equiv_pos_as_xyz
  x,y,z
_cell_length_a	17.077404
_cell_length_b	18.101395
_cell_length_c	17.077396
_cell_angle_alpha	90.027467
_cell_angle_beta	90.019501
_cell_angle_gamma	90.031329
loop_
_atom_site_label
_atom_site_type_symbol
_atom_site_fract_x
_atom_site_fract_y
_atom_site_fract_z
Zn1	Zn	1.200010	-0.294825	0.443848
Zn2	Zn	1.533343	0.038508	0.777182
Zn3	Zn	1.866676	0.371841	1.110515
Zn4	Zn	1.199898	-0.418674	0.312585
Zn5	Zn	1.533231	-0.085340	0.645918
Zn6	Zn	1.866565	0.247993	0.979251
Zn7	Zn	1.068742	-0.294851	0.312596
Zn8	Zn	1.402075	0.038482	0.645930
Zn9	Zn	1.735408	0.371816	0.979263
Zn10	Zn	1.068691	-0.418630	0.443808
Zn11	Zn	1.402024	-0.085297	0.777141
Zn12	Zn	1.735357	0.248037	1.110475
O13	O	1.134335	-0.356745	0.378209
O14	O	1.467668	-0.023412	0.711543
O15	O	1.801002	0.309922	1.044876
O16	O	1.309842	-0.311261	0.426448
O17	O	1.643175	0.022072	0.759781
O18	O	1.976509	0.355405	1.093114
O19	O	1.182474	-0.402278	0.202739
O20	O	1.515808	-0.068944	0.536072
O21	O	1.849141	0.264389	0.869406
O22	O	1.086223	-0.191215	0.330029
O23	O	1.419556	0.142119	0.663362
O24	O	1.752889	0.475452	0.996695
O25	O	1.309760	-0.402253	0.330009
O26	O	1.643093	-0.068919	0.663342
O27	O	1.976426	0.264414	0.996676
O28	O	1.182665	-0.191196	0.426459
O29	O	1.515998	0.142138	0.759792
O30	O	1.849332	0.475471	1.093126
O31	O	1.086114	-0.311306	0.202748
O32	O	1.419448	0.022028	0.536081
O33	O	1.752781	0.355361	0.869414
O34	O	0.958888	-0.311263	0.329990
O35	O	1.292221	0.022070	0.663323
O36	O	1.625555	0.355404	0.996656
O37	O	1.086136	-0.402178	0.553660
O38	O	1.419469	-0.068844	0.886994
O39	O	1.752803	0.264489	1.220327
O40	O	0.958851	-0.402203	0.426391
O41	O	1.292184	-0.068870	0.759724
O42	O	1.625517	0.264464	1.093057
O43	O	1.182616	-0.311219	0.553690
O44	O	1.515949	0.022114	0.887023
O45	O	1.849282	0.355448	1.220357
O46	O	1.182425	-0.522301	0.329970
O47	O	1.515758	-0.188968	0.663303
O48	O	1.849092	0.144366	0.996637
O49	O	1.086028	-0.522269	0.426379
O50	O	1.419361	-0.188935	0.759713
O51	O	1.752694	0.144398	1.093046
C52	C	0.930387	-0.356732	0.378188
C53	C	1.263721	-0.023398	0.711521
C54	C	1.597054	0.309935	1.044854
C55	C	0.843137	-0.356744	0.378197
C56	C	1.176471	-0.023410	0.711530
C57	C	1.509804	0.309923	1.044864
C58	C	0.802148	-0.404167	0.428312
C59	C	1.135482	-0.070834	0.761646
C60	C	1.468815	0.262499	1.094979
C61	C	0.720168	-0.404169	0.428325
C62	C	1.053501	-0.070836	0.761658
C63	C	1.386835	0.262498	1.094992
C64	C	0.679178	-0.356750	0.378218
C65	C	1.012511	-0.023417	0.711551
C66	C	1.345845	0.309917	1.044884
C67	C	0.720173	-0.309321	0.328100
C68	C	1.053506	0.024012	0.661433
C69	C	1.386839	0.357346	0.994767
C70	C	0.802152	-0.309316	0.328092
C71	C	1.135485	0.024017	0.661425
C72	C	1.468818	0.357350	0.994759
C73	C	0.549303	-0.309336	0.328119
C74	C	0.882636	0.023998	0.661452
C75	C	1.215969	0.357331	0.994785
C76	C	0.467318	-0.309341	0.328126
C77	C	0.800651	0.023992	0.661459
C78	C	1.133985	0.357325	0.994792
C79	C	0.467319	-0.404188	0.428352
C80	C	0.800652	-0.070855	0.761685
C81	C	1.133986	0.262478	1.095018
C82	C	0.549298	-0.404184	0.428344
C83	C	0.882631	-0.070850	0.761677
C84	C	1.215965	0.262483	1.095010
C85	C	0.590287	-0.356755	0.378225
C86	C	0.923620	-0.023422	0.711558
C87	C	1.256954	0.309911	1.044892
C88	C	1.134230	-0.549156	0.378186
C89	C	1.467563	-0.215822	0.711520
C90	C	1.800897	0.117511	1.044853
C91	C	1.134257	-0.631470	0.378203
C92	C	1.467590	-0.298136	0.711536
C93	C	1.800924	0.035197	1.044869
C94	C	1.134429	-0.930561	0.378245
C95	C	1.467763	-0.597227	0.711578
C96	C	1.801096	-0.263894	1.044912
C97	C	1.073919	-0.899246	0.439054
C98	C	1.407253	-0.565913	0.772387
C99	C	1.740586	-0.232579	1.105720
C100	C	1.073632	-0.813628	0.438863
C101	C	1.406965	-0.480295	0.772197
C102	C	1.740298	-0.146961	1.105530
C103	C	1.134344	-0.782178	0.378225
C104	C	1.467677	-0.448845	0.711558
C105	C	1.801010	-0.115511	1.044891
C106	C	1.111947	-0.813330	0.295495
C107	C	1.445280	-0.479996	0.628828
C108	C	1.778613	-0.146663	0.962162
C109	C	1.111557	-0.898975	0.295859
C110	C	1.444890	-0.565642	0.629192
C111	C	1.778223	-0.232308	0.962526
C112	C	1.217469	-0.898904	0.399437
C113	C	1.550802	-0.565571	0.732771
C114	C	1.884135	-0.232237	1.066104
C115	C	1.216980	-0.813253	0.401252
C116	C	1.550314	-0.479919	0.734585
C117	C	1.883647	-0.146586	1.067918
C118	C	1.134297	-0.698319	0.378208
C119	C	1.467630	-0.364985	0.711541
C120	C	1.800963	-0.031652	1.044875
C121	C	1.134474	-1.014420	0.378256
C122	C	1.467808	-0.681087	0.711589
C123	C	1.801141	-0.347753	1.044923
C124	C	1.339079	-0.356759	0.378231
C125	C	1.672413	-0.023426	0.711565
C126	C	2.005746	0.309908	1.044898
C127	C	1.426329	-0.356765	0.378241
C128	C	1.759662	-0.023432	0.711574
C129	C	2.092996	0.309902	1.044908
C130	C	1.134383	-0.356690	0.582954
C131	C	1.467716	-0.023357	0.916287
C132	C	1.801049	0.309976	1.249620
C133	C	1.134403	-0.356667	0.670203
C134	C	1.467736	-0.023334	1.003537
C135	C	1.801069	0.309999	1.336870
C136	C	1.134462	-0.163583	0.378250
C137	C	1.467795	0.169750	0.711583
C138	C	1.801129	0.503084	1.044916
C139	C	1.134516	-0.081269	0.378267
C140	C	1.467849	0.252064	0.711600
C141	C	1.801183	0.585398	1.044933
C142	C	1.134333	-0.356746	0.174261
C143	C	1.467666	-0.023413	0.507595
C144	C	1.801000	0.309921	0.840928
C145	C	1.134465	-0.356561	0.087012
C146	C	1.467798	-0.023227	0.420345
C147	C	1.801131	0.310106	0.753679
C148	C	1.184642	-0.309301	0.711210
C149	C	1.517975	0.024032	1.044544
C150	C	1.851308	0.357366	1.377877
C151	C	1.184651	-0.309276	0.793191
C152	C	1.517984	0.024057	1.126524
C153	C	1.851318	0.357390	1.459857
C154	C	1.134425	-0.356622	0.834163
C155	C	1.467758	-0.023289	1.167496
C156	C	1.801092	0.310044	1.500830
C157	C	1.084181	-0.403990	0.793150
C158	C	1.417514	-0.070657	1.126484
C159	C	1.750848	0.262676	1.459817
C160	C	1.084168	-0.404011	0.711171
C161	C	1.417501	-0.070677	1.044505
C162	C	1.750835	0.262656	1.377838
C163	C	1.084212	-0.403946	0.964021
C164	C	1.417546	-0.070613	1.297354
C165	C	1.750879	0.262721	1.630687
C166	C	1.084226	-0.403927	1.046005
C167	C	1.417559	-0.070593	1.379339
C168	C	1.750893	0.262740	1.712672
C169	C	1.184695	-0.309211	1.046040
C170	C	1.518029	0.024122	1.379373
C171	C	1.851362	0.357455	1.712707
C172	C	1.184683	-0.309232	0.964061
C173	C	1.518016	0.024102	1.297394
C174	C	1.851349	0.357435	1.630728
C175	C	1.134439	-0.356601	0.923054
C176	C	1.467772	-0.023268	1.256387
C177	C	1.801106	0.310065	1.589721
H178	H	0.433946	-0.270720	0.287333
H179	H	0.767280	0.062614	0.620666
H180	H	1.100613	0.395947	0.954000
H181	H	0.686798	-0.442787	0.469133
H182	H	1.020132	-0.109454	0.802467
H183	H	1.353465	0.223880	1.135800
H184	H	0.835516	-0.442784	0.469113
H185	H	1.168850	-0.109451	0.802446
H186	H	1.502183	0.223883	1.135780
Cl187	Cl	0.600827	-0.463802	0.491332
Cl188	Cl	0.934160	-0.130469	0.824665
Cl189	Cl	1.267494	0.202865	1.157998
H190	H	0.433942	-0.442804	0.469163
H191	H	0.767275	-0.109471	0.802496
H192	H	1.100608	0.223863	1.135829
Cl193	Cl	1.021006	-0.463557	0.659620
Cl194	Cl	1.354339	-0.130224	0.992953
Cl195	Cl	1.687672	0.203110	1.326287
Cl196	Cl	1.095333	-0.930972	0.534073
Cl197	Cl	1.428666	-0.597639	0.867406
Cl198	Cl	1.761999	-0.264306	1.200739
Cl199	Cl	0.979469	-0.932589	0.417671
Cl200	Cl	1.312802	-0.599256	0.751004
Cl201	Cl	1.646136	-0.265923	1.084337
Cl202	Cl	0.600831	-0.249711	0.265111
Cl203	Cl	0.934164	0.083623	0.598444
Cl204	Cl	1.267497	0.416956	0.931778
Cl205	Cl	1.247829	-0.249715	0.912554
Cl206	Cl	1.581163	0.083618	1.245887
Cl207	Cl	1.914496	0.416952	1.579220
Cl208	Cl	0.668642	-0.249703	0.265112
Cl209	Cl	1.001976	0.083630	0.598446
Cl210	Cl	1.335309	0.416963	0.931779
H211	H	1.154633	-0.792959	0.248952
H212	H	1.487966	-0.459626	0.582286
H213	H	1.821299	-0.126293	0.915619
H214	H	1.233870	-0.792890	0.462136
H215	H	1.567203	-0.459556	0.795469
H216	H	1.900537	-0.126223	1.128803
H217	H	1.225604	-0.270640	1.079432
H218	H	1.558937	0.062693	1.412765
H219	H	1.892271	0.396026	1.746098
Cl220	Cl	0.853681	-0.249693	0.265089
Cl221	Cl	1.187014	0.083640	0.598422
Cl222	Cl	1.520348	0.416973	0.931756
H223	H	1.043287	-0.442508	0.930635
H224	H	1.376620	-0.109174	1.263969
H225	H	1.709953	0.224159	1.597302
H226	H	1.051888	-0.791945	0.277221
H227	H	1.385222	-0.458612	0.610554
H228	H	1.718555	-0.125279	0.943888
Cl229	Cl	1.095262	-0.781103	0.533573
Cl230	Cl	1.428595	-0.447770	0.866907
Cl231	Cl	1.761929	-0.114436	1.200240
H232	H	1.043326	-0.442478	1.079363
H233	H	1.376659	-0.109145	1.412696
H234	H	1.709993	0.224188	1.746029
H235	H	1.225544	-0.270749	0.677857
H236	H	1.558877	0.062585	1.011190
H237	H	1.892210	0.395918	1.344523
H238	H	1.012081	-0.793205	0.424826
H239	H	1.345414	-0.459872	0.758159
H240	H	1.678747	-0.126538	1.091492
Cl241	Cl	1.017839	-0.929924	0.268144
Cl242	Cl	1.351172	-0.596590	0.601477
Cl243	Cl	1.684505	-0.263257	0.934810
H244	H	1.153718	-0.919692	0.249007
H245	H	1.487051	-0.586359	0.582340
H246	H	1.820384	-0.253026	0.915673
Cl247	Cl	1.248995	-0.932170	0.490990
Cl248	Cl	1.582328	-0.598836	0.824324
Cl249	Cl	1.915662	-0.265503	1.157657
Cl250	Cl	1.290272	-0.780189	0.337861
Cl251	Cl	1.623606	-0.446856	0.671194
Cl252	Cl	1.956939	-0.113523	1.004527
H253	H	1.262551	-0.919154	0.355148
H254	H	1.595884	-0.585820	0.688481
H255	H	1.929217	-0.252487	1.021815
Cl256	Cl	1.021036	-0.463509	0.844659
Cl257	Cl	1.354370	-0.130175	1.177992
Cl258	Cl	1.687703	0.203158	1.511325
Cl259	Cl	1.247846	-0.249760	0.844739
Cl260	Cl	1.581179	0.083573	1.178072
Cl261	Cl	1.914513	0.416906	1.511405
