data_functionalizedCrystal
_audit_creation_method	'MofGen! by Chris Wilmer'
_symmetry_space_group_name_H-M	'P1'
_symmetry_Int_Tables_number	1
_symmetry_cell_setting	triclinic
loop_
_symmetry_equiv_pos_as_xyz
  x,y,z
_cell_length_a	12.759394
_cell_length_b	21.395364
_cell_length_c	21.395356
_cell_angle_alpha	89.976411
_cell_angle_beta	89.976253
_cell_angle_gamma	90.029788
loop_
_atom_site_label
_atom_site_type_symbol
_atom_site_fract_x
_atom_site_fract_y
_atom_site_fract_z
Zn1	Zn	-0.417874	0.957922	-0.354279
Zn2	Zn	-0.593567	0.957856	-0.249508
Zn3	Zn	-0.417948	0.853139	-0.249515
Zn4	Zn	-0.593557	0.853136	-0.354249
O5	O	-0.505737	0.905513	-0.301888
O6	O	-0.441153	1.045591	-0.340390
O7	O	-0.570305	0.943938	-0.161831
O8	O	-0.270917	0.867068	-0.263428
O9	O	-0.570234	1.045542	-0.263416
O10	O	-0.270863	0.944052	-0.340397
O11	O	-0.441279	0.867004	-0.161837
O12	O	-0.441270	0.765461	-0.263399
O13	O	-0.570218	0.867062	-0.441930
O14	O	-0.570290	0.765458	-0.340346
O15	O	-0.441144	0.944049	-0.441953
O16	O	-0.740587	0.943935	-0.263387
O17	O	-0.740580	0.866997	-0.340339
C18	C	-0.505788	0.742726	-0.301870
C19	C	-0.505835	0.673084	-0.301877
C20	C	-0.438733	0.640419	-0.342020
C21	C	-0.438705	0.574984	-0.342022
C22	C	-0.505798	0.542216	-0.301889
C23	C	-0.572905	0.574889	-0.261739
C24	C	-0.572923	0.640323	-0.261733
C25	C	-0.600414	0.438507	-0.296855
C26	C	-0.600397	0.373074	-0.296865
C27	C	-0.505740	0.340395	-0.301903
C28	C	-0.411097	0.373157	-0.306943
C29	C	-0.411115	0.438591	-0.306938
C30	C	-0.505785	0.471264	-0.301890
C31	C	-0.438602	0.236777	-0.342050
C32	C	-0.438572	0.171341	-0.342048
C33	C	-0.572781	0.171248	-0.261768
C34	C	-0.572802	0.236683	-0.261766
C35	C	-0.505713	0.269444	-0.301911
C36	C	-0.778704	0.905476	-0.301873
C37	C	-0.895481	0.905517	-0.301887
C38	C	-0.895435	0.985692	-0.221817
C39	C	-0.950272	1.025796	-0.181789
C40	C	-1.059994	1.025832	-0.181806
C41	C	-1.114880	0.985762	-0.221857
C42	C	-1.060042	0.945658	-0.261884
C43	C	-0.950318	0.945625	-0.261862
C44	C	-1.060089	0.865487	-0.341957
C45	C	-0.950367	0.865447	-0.341937
C46	C	-1.114975	0.825417	-0.382007
C47	C	-1.060137	0.785309	-0.422033
C48	C	-0.950409	0.785274	-0.422013
C49	C	-0.895529	0.825343	-0.381965
C50	C	-0.231703	0.905568	-0.301917
C51	C	-0.114926	0.905591	-0.301929
C52	C	-0.505671	0.905562	-0.465311
C53	C	-0.505644	0.905583	-0.534952
C54	C	-0.505686	1.068936	-0.301906
C55	C	-0.505664	1.138578	-0.301913
C56	C	-0.438452	0.865534	-0.567658
C57	C	-0.438433	0.865532	-0.633094
C58	C	-0.505594	0.905590	-0.665821
C59	C	-0.572798	0.945642	-0.633107
C60	C	-0.572823	0.945639	-0.567673
C61	C	-0.513829	0.962044	-0.769507
C62	C	-0.513797	0.962048	-0.834940
C63	C	-0.505523	0.905601	-0.867642
C64	C	-0.497259	0.849147	-0.834902
C65	C	-0.497284	0.849143	-0.769468
C66	C	-0.505575	0.905598	-0.736773
C67	C	-0.438307	0.865546	-0.971300
C68	C	-0.438294	0.865543	-1.036737
C69	C	-0.572654	0.945658	-1.036749
C70	C	-0.572672	0.945656	-0.971313
C71	C	-0.505493	0.905601	-0.938593
C72	C	-0.505726	0.905500	-0.139100
C73	C	-0.505457	0.905600	-0.069459
H74	H	-0.334054	0.465263	-0.311040
H75	H	-0.520558	1.008014	-0.742887
Cl76	Cl	-0.657234	0.995998	-0.674248
H77	H	-0.905574	1.058422	-0.149181
Cl78	Cl	-1.129142	0.734946	-0.472380
Cl79	Cl	-0.354340	0.533910	-0.392490
Cl80	Cl	-0.657246	0.533696	-0.211282
Cl81	Cl	-0.657121	0.130060	-0.211309
H82	H	-0.677461	0.346405	-0.292764
H83	H	-0.627538	0.978255	-0.541044
Cl84	Cl	-1.252911	0.825199	-0.381763
Cl85	Cl	-0.292090	0.332082	-0.313276
H86	H	-0.490515	0.803182	-0.861526
H87	H	-0.806188	0.825314	-0.381942
Cl88	Cl	-0.354390	0.681601	-0.392486
Cl89	Cl	-0.657285	0.681390	-0.211262
H90	H	-0.905766	0.752619	-0.454611
Cl91	Cl	-0.757498	0.985825	-0.221968
H92	H	-1.104642	1.058491	-0.149215
Cl93	Cl	-0.719422	0.479583	-0.290513
H94	H	-0.383753	0.832915	-0.541021
Cl95	Cl	-0.353934	0.815194	-0.674219
H96	H	-0.383967	0.263453	-0.374734
Cl97	Cl	-0.486904	0.778176	-0.728311
H98	H	-0.383606	0.832930	-0.944658
Cl99	Cl	-0.353847	0.815172	-1.077854
H100	H	-1.204221	0.985801	-0.221872
Cl101	Cl	-0.657139	0.996011	-0.930195
Cl102	Cl	-0.354202	0.130275	-0.392515
Cl103	Cl	-0.657093	0.996014	-1.077885
H104	H	-0.520520	1.008016	-0.861592
H105	H	-0.627448	0.263279	-0.229080
