data_functionalizedCrystal
_audit_creation_method	'MofGen! by Chris Wilmer'
_symmetry_space_group_name_H-M	'P1'
_symmetry_Int_Tables_number	1
_symmetry_cell_setting	triclinic
loop_
_symmetry_equiv_pos_as_xyz
  x,y,z
_cell_length_a	10.723024
_cell_length_b	9.065218
_cell_length_c	7.540329
_cell_angle_alpha	90.003038
_cell_angle_beta	89.997572
_cell_angle_gamma	95.258123
loop_
_atom_site_label
_atom_site_type_symbol
_atom_site_fract_x
_atom_site_fract_y
_atom_site_fract_z
O1	O	0.182984	-1.959359	-0.147482
O2	O	0.197993	-1.529989	-0.147484
O3	O	0.008953	-1.754578	-0.147476
O4	O	0.372025	-1.734770	-0.147490
O5	O	0.008950	-1.754565	0.147489
O6	O	0.197991	-1.529976	0.147481
O7	O	0.182982	-1.959346	0.147483
Cu8	Cu	0.190486	-1.744660	0.174415
Cu9	Cu	0.190489	-1.744676	-0.174416
O10	O	0.372022	-1.734757	0.147475
C11	C	0.196550	-1.475004	-0.000002
C12	C	0.192237	-1.311186	-0.000003
C13	C	-0.037554	-1.753130	0.000004
C14	C	-0.176126	-1.748817	-0.000002
C15	C	0.184425	-2.014331	-0.000003
C16	C	0.188738	-2.178150	-0.000014
C17	C	-0.250598	-1.874486	-0.000004
C18	C	-0.393819	-1.870031	-0.000011
C19	C	0.418529	-1.736205	-0.000009
C20	C	0.557101	-1.740518	-0.000014
N21	N	0.190483	-1.744659	0.419763
N22	N	0.190482	-1.744688	-0.419764
H23	H	-0.208325	-1.985373	0.000007
H24	H	-0.457815	-1.977613	-0.000004
O25	O	-0.226397	-1.616432	0.000227
C26	C	-0.186576	-1.535698	0.153016
H27	H	-0.095788	-1.576668	0.203956
H28	H	-0.170034	-1.413000	0.118656
H29	H	-0.261705	-1.552137	0.259981
O30	O	-0.366519	-1.612200	-0.000328
C31	C	-0.290379	-1.606649	-0.153066
H32	H	-0.337264	-1.681564	-0.259841
H33	H	-0.276960	-1.487957	-0.204348
H34	H	-0.195346	-1.645936	-0.118520
