data_functionalizedCrystal
_audit_creation_method	'MofGen! by Chris Wilmer'
_symmetry_space_group_name_H-M	'P1'
_symmetry_Int_Tables_number	1
_symmetry_cell_setting	triclinic
loop_
_symmetry_equiv_pos_as_xyz
  x,y,z
_cell_length_a	14.971486
_cell_length_b	19.188930
_cell_length_c	14.048226
_cell_angle_alpha	89.988446
_cell_angle_beta	89.998499
_cell_angle_gamma	83.379455
loop_
_atom_site_label
_atom_site_type_symbol
_atom_site_fract_x
_atom_site_fract_y
_atom_site_fract_z
O1	O	1.186466	0.090988	-0.079062
O2	O	1.686466	0.590988	0.420938
O3	O	0.926009	0.101884	-0.079090
O4	O	1.426009	0.601884	0.420910
O5	O	1.063754	-0.005196	-0.079057
O6	O	1.563754	0.494804	0.420943
O7	O	1.048721	0.198067	-0.079095
O8	O	1.548721	0.698067	0.420905
O9	O	1.063737	-0.005202	0.079265
O10	O	1.563737	0.494798	0.579265
O11	O	0.925992	0.101878	0.079232
O12	O	1.425992	0.601878	0.579232
O13	O	1.186450	0.090982	0.079259
O14	O	1.686450	0.590982	0.579259
Zn15	Zn	1.056218	0.096429	0.104382
Zn16	Zn	1.556218	0.596429	0.604382
Zn17	Zn	1.056240	0.096437	-0.104213
Zn18	Zn	1.556240	0.596437	0.395787
O19	O	1.048705	0.198061	0.079226
O20	O	1.548705	0.698061	0.579226
C21	C	0.892678	0.101393	0.000068
C22	C	1.392678	0.601393	0.500068
C23	C	0.793389	0.099933	0.000058
C24	C	1.293389	0.599933	0.500058
C25	C	0.735831	0.162839	0.000048
C26	C	1.235831	0.662839	0.500048
C27	C	0.642539	0.161463	0.000062
C28	C	1.142539	0.661463	0.500062
C29	C	0.606806	0.097180	0.000080
C30	C	1.106806	0.597180	0.500080
C31	C	0.664371	0.034269	0.000094
C32	C	1.164371	0.534269	0.500094
C33	C	0.757662	0.035646	0.000086
C34	C	1.257662	0.535646	0.500086
C35	C	0.469924	0.031403	0.000108
C36	C	0.969924	0.531403	0.500108
C37	C	0.376627	0.030026	0.000113
C38	C	0.876627	0.530026	0.500113
C39	C	0.354801	0.157221	0.000083
C40	C	0.854801	0.657221	0.500083
C41	C	0.448092	0.158598	0.000076
C42	C	0.948092	0.658598	0.500076
C43	C	0.505650	0.095686	0.000088
C44	C	1.005650	0.595686	0.500088
C45	C	1.063259	-0.031211	0.000107
C46	C	1.563259	0.468789	0.500107
C47	C	1.061797	-0.108721	0.000115
C48	C	1.561797	0.391279	0.500115
C49	C	1.142622	-0.153384	0.000128
C50	C	1.642622	0.346616	0.500128
C51	C	1.141249	-0.226213	0.000112
C52	C	1.641249	0.273787	0.500112
C53	C	1.059047	-0.254374	0.000103
C54	C	1.559047	0.245626	0.500103
C55	C	0.978212	-0.209700	0.000085
C56	C	1.478212	0.290300	0.500085
C57	C	0.979587	-0.136874	0.000091
C58	C	1.479587	0.363126	0.500091
N59	N	0.996208	-0.362583	0.053976
N60	N	1.496208	0.137417	0.553976
N61	N	0.994907	-0.431766	0.053973
N62	N	1.494907	0.068234	0.553973
C63	C	1.054899	-0.473796	0.000084
C64	C	1.554899	0.026204	0.500084
N65	N	1.116254	-0.444031	-0.053790
N66	N	1.616254	0.055969	0.446210
N67	N	1.117558	-0.374842	-0.053782
N68	N	1.617558	0.125158	0.446218
C69	C	1.057547	-0.333341	0.000096
C70	C	1.557547	0.166659	0.500096
C71	C	1.134240	-0.597429	0.000078
C72	C	1.634240	-0.097429	0.500078
C73	C	1.132864	-0.670258	0.000057
C74	C	1.632864	-0.170258	0.500057
C75	C	0.969825	-0.653744	0.000039
C76	C	1.469825	-0.153744	0.500039
C77	C	0.971203	-0.580916	0.000051
C78	C	1.471203	-0.080916	0.500051
C79	C	1.053413	-0.552763	0.000075
C80	C	1.553413	-0.052763	0.500075
C81	C	1.219780	0.091472	0.000100
C82	C	1.719780	0.591472	0.500100
C83	C	1.319070	0.092932	0.000103
C84	C	1.819070	0.592932	0.500103
C85	C	1.049200	0.224077	0.000061
C86	C	1.549200	0.724077	0.500061
C87	C	1.050661	0.301586	0.000046
C88	C	1.550661	0.801586	0.500046
N89	N	1.056210	0.096422	0.246743
N90	N	1.556210	0.596422	0.746743
N91	N	1.056256	0.096437	-0.246573
N92	N	1.556256	0.596437	0.253427
C93	C	1.117223	0.049027	0.296576
C94	C	1.617223	0.549027	0.796576
C95	C	1.117229	0.049027	0.396233
C96	C	1.617229	0.549027	0.896233
C97	C	1.056226	0.096426	0.446057
C98	C	1.556226	0.596426	0.946057
C99	C	0.995207	0.143823	0.396217
C100	C	1.495207	0.643823	0.896217
C101	C	0.995197	0.143819	0.296561
C102	C	1.495197	0.643819	0.796561
C103	C	0.995233	0.143828	0.603931
C104	C	1.495233	0.643828	1.103931
C105	C	0.995243	0.143833	0.703594
C106	C	1.495243	0.643833	1.203594
C107	C	1.117264	0.049035	0.703603
C108	C	1.617264	0.549035	1.203603
C109	C	1.117255	0.049032	0.603948
C110	C	1.617255	0.549032	1.103948
C111	C	1.056236	0.096430	0.554115
C112	C	1.556236	0.596430	1.054115
H113	H	0.764917	0.215186	0.000032
H114	H	1.264917	0.715186	0.500032
H115	H	0.477182	0.210943	0.000052
H116	H	0.977182	0.710943	0.500052
H117	H	0.347537	-0.022319	0.000130
H118	H	0.847537	0.477681	0.500130
H119	H	0.635271	-0.018072	0.000122
H120	H	1.135271	0.481928	0.500122
C121	C	1.282020	-0.145029	-0.081239
C122	C	1.782020	0.354971	0.418761
C123	C	1.232986	-0.122440	0.000143
C124	C	1.732986	0.377560	0.500143
H125	H	1.337805	-0.125921	-0.081232
H126	H	1.837805	0.374079	0.418768
H127	H	1.292763	-0.194789	-0.081233
H128	H	1.792763	0.305211	0.418767
H129	H	1.248750	-0.129687	-0.136447
H130	H	1.748750	0.370313	0.363553
H131	H	1.266254	-0.137787	0.055351
H132	H	1.766254	0.362213	0.555351
H133	H	1.222247	-0.072670	0.000144
H134	H	1.722247	0.427330	0.500144
H135	H	0.945567	0.182429	0.744155
H136	H	1.445567	0.682429	1.244155
H137	H	0.945542	0.182423	0.563361
H138	H	1.445542	0.682423	1.063361
C139	C	0.307472	0.265213	-0.081329
C140	C	0.807472	0.765213	0.418671
C141	C	0.291538	0.226376	0.000074
C142	C	0.791538	0.726376	0.500074
H143	H	0.268409	0.307903	-0.081339
H144	H	0.768409	0.807903	0.418661
H145	H	0.368139	0.275229	-0.081332
H146	H	0.868139	0.775229	0.418668
H147	H	0.296658	0.238849	-0.136522
H148	H	0.796658	0.738849	0.363478
H149	H	0.302359	0.252738	0.055268
H150	H	0.802359	0.752738	0.555268
H151	H	0.230856	0.216362	0.000086
H152	H	0.730856	0.716362	0.500086
C153	C	0.874595	0.237528	0.306555
C154	C	1.374595	0.737528	0.806555
C155	C	0.928134	0.195921	0.241781
C156	C	1.428134	0.695921	0.741781
H157	H	0.833195	0.269696	0.272735
H158	H	1.333195	0.769696	0.772735
H159	H	0.842543	0.208425	0.345437
H160	H	1.342543	0.708425	0.845437
H161	H	0.911739	0.262691	0.345412
H162	H	1.411739	0.762691	0.845412
H163	H	0.890991	0.170754	0.202929
H164	H	1.390991	0.670754	0.702929
H165	H	0.960188	0.225028	0.202883
H166	H	1.460188	0.725028	0.702883
C167	C	0.903714	-0.314007	0.000083
C168	C	1.403714	0.185993	0.500083
C169	C	0.887854	-0.240652	0.000079
C170	C	1.387854	0.259348	0.500079
H171	H	0.847927	-0.333113	0.000082
H172	H	1.347927	0.166887	0.500082
H173	H	0.936982	-0.329321	-0.055120
H174	H	1.436982	0.170679	0.444880
H175	H	0.936977	-0.329335	0.055301
H176	H	1.436977	0.170665	0.555301
H177	H	0.854596	-0.225324	-0.055143
H178	H	1.354596	0.274676	0.444857
H179	H	0.854572	-0.225331	0.055287
H180	H	1.354572	0.274669	0.555287
C181	C	0.482132	-0.094465	0.000118
C182	C	0.982132	0.405535	0.500118
C183	C	0.533194	-0.037750	0.000110
C184	C	1.033194	0.462250	0.500110
H185	H	0.521195	-0.137155	0.000108
H186	H	1.021195	0.362845	0.500108
H187	H	0.445301	-0.092364	0.055330
H188	H	0.945301	0.407636	0.555330
H189	H	0.445282	-0.092344	-0.055091
H190	H	0.945282	0.407656	0.444909
H191	H	0.570040	-0.039867	0.055323
H192	H	1.070040	0.460133	0.555323
H193	H	0.570041	-0.039852	-0.055108
H194	H	1.070041	0.460148	0.444892
C195	C	0.630336	0.287325	0.000019
C196	C	1.130336	0.787325	0.500019
C197	C	0.579272	0.230612	0.000046
C198	C	1.079272	0.730612	0.500046
H199	H	0.591275	0.330016	0.000004
H200	H	1.091275	0.830016	0.500004
H201	H	0.667179	0.285217	0.055221
H202	H	1.167179	0.785217	0.555221
H203	H	0.667175	0.285210	-0.055199
H204	H	1.167175	0.785210	0.444801
H205	H	0.542437	0.232724	0.055268
H206	H	1.042437	0.732724	0.555268
H207	H	0.542413	0.232721	-0.055162
H208	H	1.042413	0.732721	0.444838
H209	H	1.198683	-0.706623	0.000063
H210	H	1.698683	-0.206623	0.500063
H211	H	1.166947	0.010442	0.744183
H212	H	1.666947	0.510442	1.244183
H213	H	0.902894	-0.676672	0.000027
H214	H	1.402894	-0.176672	0.500027
C215	C	0.878167	-0.489448	0.081434
C216	C	1.378167	0.010552	0.581434
C217	C	0.882360	-0.531813	0.000047
C218	C	1.382360	-0.031813	0.500047
H219	H	0.823318	-0.459131	0.081424
H220	H	1.323318	0.040869	0.581424
H221	H	0.881006	-0.518212	0.136632
H222	H	1.381006	-0.018212	0.636632
H223	H	0.927327	-0.462261	0.081432
H224	H	1.427327	0.037739	0.581432
H225	H	0.833203	-0.559005	0.000052
H226	H	1.333203	-0.059005	0.500052
H227	H	0.879512	-0.503047	-0.055166
H228	H	1.379512	-0.003047	0.444834
H229	H	0.804525	-0.015579	0.000094
H230	H	1.304525	0.484421	0.500094
C231	C	1.237828	-0.044680	0.306605
C232	C	1.737828	0.455320	0.806605
C233	C	1.184279	-0.003077	0.241815
C234	C	1.684279	0.496923	0.741815
H235	H	1.279221	-0.076851	0.272798
H236	H	1.779221	0.423149	0.772798
H237	H	1.269888	-0.015574	0.345457
H238	H	1.769888	0.484426	0.845457
H239	H	1.200690	-0.069838	0.345492
H240	H	1.700690	0.430162	0.845492
H241	H	1.221416	0.022085	0.202933
H242	H	1.721416	0.522085	0.702933
H243	H	1.152216	-0.032187	0.202947
H244	H	1.652216	0.467813	0.702947
H245	H	1.207068	-0.262585	0.000119
H246	H	1.707068	0.237415	0.500119
H247	H	0.945533	0.182414	0.436789
H248	H	1.445533	0.682414	0.936789
H249	H	0.913768	-0.100507	0.000080
H250	H	1.413768	0.399493	0.500080
H251	H	1.201180	-0.574506	0.000094
H252	H	1.701180	-0.074506	0.500094
H253	H	1.166909	0.010434	0.436807
H254	H	1.666909	0.510434	0.936807
H255	H	1.166932	0.010440	0.563382
H256	H	1.666932	0.510440	1.063382
