data_functionalizedCrystal
_audit_creation_method	'MofGen! by Chris Wilmer'
_symmetry_space_group_name_H-M	'P1'
_symmetry_Int_Tables_number	1
_symmetry_cell_setting	triclinic
loop_
_symmetry_equiv_pos_as_xyz
  x,y,z
_cell_length_a	27.732066
_cell_length_b	26.809956
_cell_length_c	27.732048
_cell_angle_alpha	90.011154
_cell_angle_beta	97.353621
_cell_angle_gamma	89.984750
loop_
_atom_site_label
_atom_site_type_symbol
_atom_site_fract_x
_atom_site_fract_y
_atom_site_fract_z
O1	O	-0.640935	0.041384	0.057558
O2	O	-0.307602	0.374718	0.390892
O3	O	0.025732	0.708051	0.724225
O4	O	-0.500143	0.041408	0.066295
O5	O	-0.166809	0.374741	0.399628
O6	O	0.166524	0.708075	0.732961
O7	O	-0.574912	0.041386	-0.008470
O8	O	-0.241578	0.374719	0.324863
O9	O	0.091755	0.708053	0.658197
O10	O	-0.566166	0.041406	0.132323
O11	O	-0.232833	0.374740	0.465656
O12	O	0.100500	0.708073	0.798989
O13	O	-0.574878	-0.041573	-0.008471
O14	O	-0.241545	0.291760	0.324862
O15	O	0.091789	0.625093	0.658196
O16	O	-0.500109	-0.041551	0.066294
O17	O	-0.166776	0.291782	0.399627
O18	O	0.166558	0.625116	0.732960
O19	O	-0.640901	-0.041575	0.057557
O20	O	-0.307568	0.291758	0.390891
O21	O	0.025765	0.625092	0.724224
Zn22	Zn	-0.570500	-0.054735	0.061925
Zn23	Zn	-0.237166	0.278599	0.395259
Zn24	Zn	0.096167	0.611932	0.728592
Zn25	Zn	-0.570544	0.054568	0.061927
Zn26	Zn	-0.237211	0.387901	0.395260
Zn27	Zn	0.096122	0.721234	0.728593
O28	O	-0.566132	-0.041553	0.132322
O29	O	-0.232799	0.291781	0.465655
O30	O	0.100534	0.625114	0.798989
C31	C	-0.482119	-0.000069	0.066109
C32	C	-0.148786	0.333265	0.399443
C33	C	0.184547	0.666598	0.732776
C34	C	-0.428465	-0.000060	0.065553
C35	C	-0.095131	0.333273	0.398886
C36	C	0.238202	0.666607	0.732220
C37	C	-0.051392	-0.000088	0.017584
C38	C	0.281941	0.333245	0.350917
C39	C	0.615274	0.666578	0.684250
C40	C	-0.253052	-0.000079	0.019631
C41	C	0.080281	0.333255	0.352964
C42	C	0.413614	0.666588	0.686298
O43	O	-0.284305	-0.000103	-0.017590
O44	O	0.049028	0.333230	0.315744
O45	O	0.382362	0.666563	0.649077
N46	N	-0.272180	-0.000071	0.063965
N47	N	0.061153	0.333263	0.397299
N48	N	0.394487	0.666596	0.730632
C49	C	-0.240889	-0.000068	0.107791
C50	C	0.092445	0.333265	0.441124
C51	C	0.425778	0.666599	0.774458
O52	O	-0.261785	-0.000066	0.145547
O53	O	0.071548	0.333268	0.478881
O54	O	0.404882	0.666601	0.812214
C55	C	-0.039230	-0.000081	0.105743
C56	C	0.294104	0.333252	0.439077
C57	C	0.627437	0.666586	0.772410
C58	C	-0.020105	-0.000084	0.061406
C59	C	0.313228	0.333249	0.394739
C60	C	0.646561	0.666582	0.728073
C61	C	-0.032267	-0.000092	-0.026750
C62	C	0.301066	0.333241	0.306583
C63	C	0.634399	0.666574	0.639917
C64	C	0.018145	-0.000092	-0.027261
C65	C	0.351478	0.333241	0.306072
C66	C	0.684811	0.666575	0.639405
C67	C	0.049432	-0.000088	0.016561
C68	C	0.382765	0.333246	0.349894
C69	C	0.716098	0.666579	0.683228
C70	C	0.030307	-0.000084	0.060895
C71	C	0.363640	0.333249	0.394228
C72	C	0.696973	0.666583	0.727561
C73	C	-0.007940	-0.000082	0.149568
C74	C	0.325394	0.333251	0.482902
C75	C	0.658727	0.666585	0.816235
C76	C	0.042478	-0.000087	0.149052
C77	C	0.375811	0.333247	0.482386
C78	C	0.709144	0.666580	0.815719
C79	C	0.061602	-0.000090	0.104715
C80	C	0.394936	0.333243	0.438048
C81	C	0.728269	0.666577	0.771382
C82	C	0.112006	-0.000080	0.104205
C83	C	0.445339	0.333254	0.437539
C84	C	0.778673	0.666587	0.770872
N85	N	0.131133	-0.000088	0.059871
N86	N	0.464467	0.333245	0.393204
N87	N	0.797800	0.666579	0.726538
C88	C	0.099846	-0.000092	0.016049
C89	C	0.433180	0.333241	0.349382
C90	C	0.766513	0.666575	0.682715
C91	C	-0.346763	-0.000060	0.108863
C92	C	-0.013430	0.333273	0.442197
C93	C	0.319903	0.666607	0.775530
C94	C	-0.397178	-0.000056	0.109375
C95	C	-0.063844	0.333278	0.442709
C96	C	0.269489	0.666611	0.776042
C97	C	-0.409338	-0.000068	0.021215
C98	C	-0.076005	0.333266	0.354548
C99	C	0.257329	0.666599	0.687882
C100	C	-0.358922	-0.000068	0.020703
C101	C	-0.025589	0.333265	0.354037
C102	C	0.307744	0.666598	0.687370
C103	C	-0.327636	-0.000068	0.064529
C104	C	0.005698	0.333265	0.397862
C105	C	0.339031	0.666598	0.731195
C106	C	0.205716	-0.000091	0.014978
C107	C	0.539049	0.333242	0.348311
C108	C	0.872382	0.666576	0.681645
C109	C	0.256133	-0.000088	0.014471
C110	C	0.589466	0.333245	0.347804
C111	C	0.922800	0.666578	0.681137
C112	C	0.268289	-0.000079	0.102631
C113	C	0.601622	0.333254	0.435964
C114	C	0.934955	0.666587	0.769297
C115	C	0.217876	-0.000079	0.103138
C116	C	0.551209	0.333254	0.436472
C117	C	0.884543	0.666588	0.769805
C118	C	0.186590	-0.000087	0.059308
C119	C	0.519924	0.333247	0.392642
C120	C	0.853257	0.666580	0.725975
O121	O	0.143287	-0.000061	0.141406
O122	O	0.476620	0.333273	0.474740
O123	O	0.809954	0.666606	0.808073
O124	O	0.120752	-0.000105	-0.021702
O125	O	0.454085	0.333228	0.311632
O126	O	0.787419	0.666562	0.644965
C127	C	-0.101804	-0.000089	0.018095
C128	C	0.231529	0.333245	0.351428
C129	C	0.564862	0.666578	0.684762
C130	C	-0.120929	-0.000085	0.062429
C131	C	0.212404	0.333248	0.395762
C132	C	0.545737	0.666582	0.729095
C133	C	-0.089642	-0.000081	0.106251
C134	C	0.243691	0.333252	0.439584
C135	C	0.577024	0.666586	0.772918
C136	C	-0.171344	-0.000081	0.062941
C137	C	0.161989	0.333253	0.396274
C138	C	0.495323	0.666586	0.729607
C139	C	-0.202631	-0.000085	0.019119
C140	C	0.130702	0.333248	0.352452
C141	C	0.464036	0.666582	0.685785
C142	C	-0.183504	-0.000093	-0.025216
C143	C	0.149830	0.333240	0.308117
C144	C	0.483163	0.666574	0.641451
C145	C	-0.133091	-0.000093	-0.025727
C146	C	0.200242	0.333241	0.307606
C147	C	0.533575	0.666574	0.640939
C148	C	-0.108770	-0.000073	0.150585
C149	C	0.224564	0.333261	0.483919
C150	C	0.557897	0.666594	0.817252
C151	C	-0.159182	-0.000072	0.151093
C152	C	0.174151	0.333261	0.484427
C153	C	0.507484	0.666594	0.817760
C154	C	-0.190469	-0.000076	0.107271
C155	C	0.142864	0.333257	0.440604
C156	C	0.476197	0.666590	0.773938
N157	N	-0.570473	-0.129331	0.061924
N158	N	-0.237140	0.204003	0.395258
N159	N	0.096194	0.537336	0.728591
C160	C	0.341075	-0.000093	0.057741
C161	C	0.674408	0.333241	0.391074
C162	C	1.007742	0.666574	0.724408
C163	C	0.287420	-0.000084	0.058293
C164	C	0.620753	0.333249	0.391626
C165	C	0.954087	0.666582	0.724960
C166	C	-0.537403	-0.526204	0.095017
C167	C	-0.204070	-0.192871	0.428350
C168	C	0.129263	0.140463	0.761683
C169	C	-0.537378	-0.317326	0.095017
C170	C	-0.204045	0.016007	0.428350
C171	C	0.129288	0.349340	0.761684
O172	O	-0.509200	-0.290317	0.123148
O173	O	-0.175867	0.043016	0.456482
O174	O	0.157466	0.376349	0.789815
N175	N	-0.570490	-0.291209	0.061923
N176	N	-0.237157	0.042124	0.395256
N177	N	0.096177	0.375457	0.728589
C178	C	-0.603608	-0.317315	0.028824
C179	C	-0.270275	0.016019	0.362158
C180	C	0.063059	0.349352	0.695491
O181	O	-0.631768	-0.290307	0.000672
O182	O	-0.298434	0.043026	0.334006
O183	O	0.034899	0.376359	0.667339
C184	C	-0.603631	-0.526191	0.028822
C185	C	-0.270297	-0.192858	0.362155
C186	C	0.063036	0.140475	0.695489
C187	C	-0.570520	-0.552306	0.061922
C188	C	-0.237187	-0.218972	0.395255
C189	C	0.096147	0.114361	0.728588
C190	C	-0.504295	-0.552319	0.128113
C191	C	-0.170962	-0.218985	0.461446
C192	C	0.162371	0.114348	0.794780
C193	C	-0.504304	-0.604535	0.128114
C194	C	-0.170970	-0.271202	0.461448
C195	C	0.162363	0.062132	0.794781
C196	C	-0.537420	-0.630637	0.095019
C197	C	-0.204087	-0.297303	0.428353
C198	C	0.129246	0.036030	0.761686
C199	C	-0.570528	-0.604522	0.061923
C200	C	-0.237195	-0.271189	0.395256
C201	C	0.096138	0.062145	0.728590
C202	C	-0.636746	-0.552296	-0.004278
C203	C	-0.303413	-0.218962	0.329055
C204	C	0.029920	0.114371	0.662388
C205	C	-0.636748	-0.604518	-0.004277
C206	C	-0.303415	-0.271185	0.329057
C207	C	0.029919	0.062149	0.662390
C208	C	-0.603638	-0.630633	0.028823
C209	C	-0.270304	-0.297299	0.362156
C210	C	0.063029	0.036034	0.695489
C211	C	-0.603654	-0.682840	0.028829
C212	C	-0.270320	-0.349507	0.362163
C213	C	0.063013	-0.016173	0.695496
N214	N	-0.570542	-0.708957	0.061923
N215	N	-0.237208	-0.375624	0.395257
N216	N	0.096125	-0.042291	0.728590
C217	C	-0.537425	-0.682856	0.095018
C218	C	-0.204092	-0.349522	0.428352
C219	C	0.129241	-0.016189	0.761685
C220	C	-0.603595	-0.207651	0.028828
C221	C	-0.270261	0.125682	0.362162
C222	C	0.063072	0.459015	0.695495
C223	C	-0.603590	-0.155432	0.028829
C224	C	-0.270256	0.177901	0.362163
C225	C	0.063077	0.511234	0.695496
C226	C	-0.537359	-0.155448	0.095022
C227	C	-0.204026	0.177886	0.428355
C228	C	0.129308	0.511219	0.761688
C229	C	-0.537367	-0.207668	0.095022
C230	C	-0.204033	0.125666	0.428356
C231	C	0.129300	0.458999	0.761689
C232	C	-0.570483	-0.233768	0.061922
C233	C	-0.237150	0.099565	0.395256
C234	C	0.096184	0.432898	0.728589
C235	C	-0.537446	-0.792514	0.095019
C236	C	-0.204112	-0.459180	0.428352
C237	C	0.129221	-0.125847	0.761686
C238	C	-0.537458	-0.844735	0.095019
C239	C	-0.204125	-0.511401	0.428352
C240	C	0.129208	-0.178068	0.761685
C241	C	-0.603687	-0.844714	0.028825
C242	C	-0.270354	-0.511381	0.362158
C243	C	0.062980	-0.178048	0.695492
C244	C	-0.603676	-0.792498	0.028827
C245	C	-0.270343	-0.459165	0.362160
C246	C	0.062990	-0.125831	0.695494
C247	C	-0.570551	-0.766399	0.061926
C248	C	-0.237218	-0.433066	0.395259
C249	C	0.096115	-0.099732	0.728592
O250	O	-0.631813	-0.709881	0.000709
O251	O	-0.298480	-0.376548	0.334042
O252	O	0.034854	-0.043215	0.667376
O253	O	-0.509263	-0.709872	0.123159
O254	O	-0.175929	-0.376538	0.456492
O255	O	0.157404	-0.043205	0.789826
C256	C	-0.537395	-0.473988	0.095015
C257	C	-0.204062	-0.140654	0.428349
C258	C	0.129272	0.192679	0.761682
C259	C	-0.570503	-0.447873	0.061919
C260	C	-0.237170	-0.114540	0.395252
C261	C	0.096163	0.218793	0.728586
C262	C	-0.603620	-0.473975	0.028824
C263	C	-0.270287	-0.140642	0.362157
C264	C	0.063047	0.192692	0.695490
C265	C	-0.570498	-0.395654	0.061920
C266	C	-0.237165	-0.062321	0.395253
C267	C	0.096168	0.271012	0.728587
C268	C	-0.537382	-0.369553	0.095015
C269	C	-0.204048	-0.036219	0.428348
C270	C	0.129285	0.297114	0.761682
C271	C	-0.504270	-0.395670	0.128109
C272	C	-0.170937	-0.062337	0.461442
C273	C	0.162397	0.270997	0.794776
C274	C	-0.504278	-0.447886	0.128110
C275	C	-0.170945	-0.114553	0.461444
C276	C	0.162388	0.218781	0.794777
C277	C	-0.636732	-0.447858	-0.004270
C278	C	-0.303398	-0.114524	0.329063
C279	C	0.029935	0.218809	0.662396
C280	C	-0.636721	-0.395641	-0.004269
C281	C	-0.303388	-0.062308	0.329065
C282	C	0.029946	0.271025	0.662398
C283	C	-0.603604	-0.369540	0.028827
C284	C	-0.270271	-0.036206	0.362160
C285	C	0.063062	0.297127	0.695493
C286	C	-0.574711	-0.000095	-0.026477
C287	C	-0.241378	0.333238	0.306856
C288	C	0.091956	0.666572	0.640189
C289	C	-0.574158	-0.000099	-0.080132
C290	C	-0.240825	0.333234	0.253201
C291	C	0.092508	0.666568	0.586534
N292	N	-0.570575	0.129164	0.061924
N293	N	-0.237242	0.462497	0.395257
N294	N	0.096092	0.795830	0.728590
C295	C	-0.614862	-0.000080	-0.418945
C296	C	-0.281528	0.333253	-0.085611
C297	C	0.051805	0.666586	0.247722
C298	C	-0.612811	-0.000073	-0.620604
C299	C	-0.279477	0.333260	-0.287271
C300	C	0.053856	0.666594	0.046062
O301	O	-0.650031	-0.000057	-0.651858
O302	O	-0.316698	0.333276	-0.318524
O303	O	0.016635	0.666609	0.014809
N304	N	-0.568476	-0.000066	-0.639731
N305	N	-0.235143	0.333267	-0.306398
N306	N	0.098191	0.666601	0.026936
C307	C	-0.524651	-0.000057	-0.608439
C308	C	-0.191317	0.333276	-0.275106
C309	C	0.142016	0.666609	0.058227
O310	O	-0.486894	-0.000046	-0.629335
O311	O	-0.153561	0.333287	-0.296002
O312	O	0.179772	0.666620	0.037332
C313	C	-0.526702	-0.000061	-0.406781
C314	C	-0.193369	0.333272	-0.073447
C315	C	0.139964	0.666605	0.259886
C316	C	-0.571040	-0.000073	-0.387657
C317	C	-0.237707	0.333260	-0.054324
C318	C	0.095627	0.666593	0.279010
C319	C	-0.659196	-0.000092	-0.399821
C320	C	-0.325863	0.333242	-0.066487
C321	C	0.007471	0.666575	0.266846
C322	C	-0.659708	-0.000096	-0.349409
C323	C	-0.326375	0.333237	-0.016075
C324	C	0.006959	0.666570	0.317258
C325	C	-0.615886	-0.000089	-0.318121
C326	C	-0.282553	0.333244	0.015213
C327	C	0.050780	0.666577	0.348546
C328	C	-0.571552	-0.000078	-0.337245
C329	C	-0.238219	0.333255	-0.003912
C330	C	0.095114	0.666589	0.329422
C331	C	-0.482878	-0.000049	-0.375490
C332	C	-0.149544	0.333284	-0.042156
C333	C	0.183789	0.666618	0.291177
C334	C	-0.483394	-0.000049	-0.325072
C335	C	-0.150061	0.333285	0.008261
C336	C	0.183272	0.666618	0.341594
C337	C	-0.527732	-0.000061	-0.305949
C338	C	-0.194399	0.333272	0.027385
C339	C	0.138935	0.666606	0.360718
C340	C	-0.528243	-0.000075	-0.255545
C341	C	-0.194909	0.333258	0.077788
C342	C	0.138424	0.666591	0.411121
N343	N	-0.572578	-0.000082	-0.236419
N344	N	-0.239244	0.333251	0.096915
N345	N	0.094089	0.666584	0.430248
C346	C	-0.616399	-0.000089	-0.267706
C347	C	-0.283066	0.333244	0.065627
C348	C	0.050267	0.666577	0.398960
C349	C	-0.523577	-0.000056	-0.714314
C350	C	-0.190244	0.333277	-0.380980
C351	C	0.143090	0.666610	-0.047647
C352	C	-0.523064	-0.000056	-0.764728
C353	C	-0.189731	0.333277	-0.431395
C354	C	0.143603	0.666610	-0.098061
C355	C	-0.611224	-0.000071	-0.776890
C356	C	-0.277891	0.333262	-0.443556
C357	C	0.055443	0.666596	-0.110223
C358	C	-0.611737	-0.000075	-0.726474
C359	C	-0.278403	0.333259	-0.393141
C360	C	0.054930	0.666592	-0.059808
C361	C	-0.567912	-0.000064	-0.695187
C362	C	-0.234578	0.333270	-0.361854
C363	C	0.098755	0.666603	-0.028520
C364	C	-0.617472	-0.000099	-0.161837
C365	C	-0.284138	0.333234	0.171496
C366	C	0.049195	0.666567	0.504830
C367	C	-0.617980	-0.000106	-0.111420
C368	C	-0.284647	0.333227	0.221913
C369	C	0.048686	0.666561	0.555247
C370	C	-0.529820	-0.000089	-0.099263
C371	C	-0.196487	0.333245	0.234070
C372	C	0.136846	0.666578	0.567404
C373	C	-0.529312	-0.000085	-0.149675
C374	C	-0.195978	0.333249	0.183658
C375	C	0.137355	0.666582	0.516991
C376	C	-0.573141	-0.000088	-0.180962
C377	C	-0.239808	0.333245	0.152372
C378	C	0.093525	0.666578	0.485705
O379	O	-0.491042	-0.000085	-0.224264
O380	O	-0.157709	0.333248	0.109070
O381	O	0.175624	0.666581	0.442403
O382	O	-0.654150	-0.000090	-0.246801
O383	O	-0.320817	0.333244	0.086532
O384	O	0.012516	0.666577	0.419865
C385	C	-0.614349	-0.000076	-0.469357
C386	C	-0.281016	0.333258	-0.136023
C387	C	0.052317	0.666591	0.197310
C388	C	-0.570015	-0.000064	-0.488481
C389	C	-0.236682	0.333269	-0.155148
C390	C	0.096651	0.666602	0.178186
C391	C	-0.526194	-0.000057	-0.457193
C392	C	-0.192860	0.333276	-0.123860
C393	C	0.140473	0.666609	0.209474
C394	C	-0.569502	-0.000064	-0.538895
C395	C	-0.236169	0.333269	-0.205562
C396	C	0.097164	0.666603	0.127771
C397	C	-0.613324	-0.000071	-0.570183
C398	C	-0.279991	0.333262	-0.236850
C399	C	0.053342	0.666596	0.096484
C400	C	-0.657659	-0.000078	-0.551056
C401	C	-0.324326	0.333255	-0.217723
C402	C	0.009008	0.666588	0.115610
C403	C	-0.658171	-0.000083	-0.500644
C404	C	-0.324838	0.333251	-0.167311
C405	C	0.008495	0.666584	0.166022
C406	C	-0.481859	-0.000050	-0.476320
C407	C	-0.148525	0.333283	-0.142986
C408	C	0.184808	0.666616	0.190347
C409	C	-0.481350	-0.000046	-0.526732
C410	C	-0.148017	0.333287	-0.193399
C411	C	0.185317	0.666620	0.139934
C412	C	-0.525172	-0.000053	-0.558020
C413	C	-0.191839	0.333280	-0.224687
C414	C	0.141495	0.666613	0.108647
C415	C	-0.566333	-0.000071	0.150329
C416	C	-0.233000	0.333263	0.483663
C417	C	0.100334	0.666596	0.816996
C418	C	-0.566886	-0.000063	0.203984
C419	C	-0.233552	0.333270	0.537318
C420	C	0.099781	0.666603	0.870651
H421	H	0.293771	-0.000073	0.138310
H422	H	0.627105	0.333260	0.471643
H423	H	0.960438	0.666593	0.804976
H424	H	-0.117525	-0.000096	-0.061831
H425	H	0.215808	0.333238	0.271502
H426	H	0.549141	0.666571	0.604835
N427	N	-0.639328	-0.235796	-0.006865
N428	N	-0.305994	0.097538	0.326468
N429	N	0.027339	0.430871	0.659802
H430	H	-0.634027	-0.226715	-0.041138
H431	H	-0.300694	0.106618	0.292196
H432	H	0.032640	0.439952	0.625529
H433	H	-0.673568	-0.226671	-0.001476
H434	H	-0.340234	0.106663	0.331857
H435	H	-0.006901	0.439996	0.665191
H436	H	-0.663708	-0.531040	-0.031231
H437	H	-0.330374	-0.197707	0.302102
H438	H	0.002959	0.135626	0.635436
N439	N	-0.707531	-0.000095	-0.328788
N440	N	-0.374197	0.333239	0.004545
N441	N	-0.040864	0.666572	0.337879
H442	H	-0.701213	-0.000093	-0.292102
H443	H	-0.367880	0.333241	0.041231
H444	H	-0.034546	0.666574	0.374564
H445	H	-0.726682	-0.030849	-0.340262
H446	H	-0.393348	0.302485	-0.006929
H447	H	-0.060015	0.635818	0.326404
N448	N	-0.658491	-0.000073	-0.810639
N449	N	-0.325158	0.333260	-0.477306
N450	N	0.008176	0.666593	-0.143972
H451	H	-0.677843	-0.030828	-0.804534
H452	H	-0.344510	0.302505	-0.471200
H453	H	-0.011177	0.635839	-0.137867
H454	H	-0.651395	-0.000052	-0.845463
H455	H	-0.318061	0.333281	-0.512130
H456	H	0.015272	0.666615	-0.178796
N457	N	-0.672438	-0.367478	-0.039968
N458	N	-0.339105	-0.034144	0.293365
N459	N	-0.005771	0.299189	0.626698
H460	H	-0.693416	-0.391942	-0.060933
H461	H	-0.360083	-0.058608	0.272401
H462	H	-0.026749	0.274725	0.605734
H463	H	-0.654089	-0.345827	-0.061213
H464	H	-0.320756	-0.012494	0.272120
H465	H	0.012578	0.320840	0.605453
H466	H	-0.630652	-0.865975	0.001881
H467	H	-0.297318	-0.532641	0.335214
H468	H	0.036015	-0.199308	0.668547
H469	H	-0.208987	-0.000094	-0.060897
H470	H	0.124347	0.333240	0.272436
H471	H	0.457680	0.666573	0.605769
N472	N	-0.468562	-0.476049	0.163807
N473	N	-0.135229	-0.142716	0.497140
N474	N	0.198104	0.190618	0.830473
H475	H	-0.447583	-0.451583	0.184767
H476	H	-0.114250	-0.118250	0.518101
H477	H	0.219084	0.215083	0.851434
H478	H	-0.447334	-0.497725	0.145445
H479	H	-0.114001	-0.164391	0.478778
H480	H	0.219333	0.168942	0.812111
H481	H	-0.446773	-0.000036	-0.391051
H482	H	-0.113440	0.333297	-0.057718
H483	H	0.219893	0.666630	0.275616
H484	H	0.202304	-0.000076	0.139241
H485	H	0.535638	0.333257	0.472575
H486	H	0.868971	0.666591	0.805908
H487	H	-0.174748	-0.000066	0.187201
H488	H	0.158585	0.333267	0.520534
H489	H	0.491919	0.666601	0.853867
N490	N	-0.468550	-0.367507	0.163801
N491	N	-0.135217	-0.034174	0.497134
N492	N	0.198116	0.299159	0.830467
H493	H	-0.434288	-0.376609	0.158467
H494	H	-0.100954	-0.043276	0.491800
H495	H	0.232379	0.290058	0.825134
H496	H	-0.473899	-0.376590	0.198058
H497	H	-0.140566	-0.043256	0.531391
H498	H	0.192768	0.290077	0.864724
N499	N	-0.672471	-0.632670	-0.039974
N500	N	-0.339138	-0.299337	0.293359
N501	N	-0.005805	0.033997	0.626693
H502	H	-0.654166	-0.654349	-0.061252
H503	H	-0.320833	-0.321016	0.272082
H504	H	0.012501	0.012318	0.605415
H505	H	-0.693435	-0.608168	-0.060906
H506	H	-0.360102	-0.274835	0.272428
H507	H	-0.026768	0.058499	0.605761
N508	N	-0.417796	-0.000047	0.157199
N509	N	-0.084463	0.333286	0.490532
N510	N	0.248870	0.666620	0.823866
H511	H	-0.438436	-0.030798	0.159378
H512	H	-0.105102	0.302535	0.492711
H513	H	0.228231	0.635868	0.826045
H514	H	-0.438423	0.030728	0.159354
H515	H	-0.105090	0.364061	0.492687
H516	H	0.228244	0.697395	0.826020
H517	H	-0.510472	-0.771270	0.121970
H518	H	-0.177139	-0.437936	0.455304
H519	H	0.156195	-0.104603	0.788637
N520	N	-0.501636	-0.127294	0.130717
N521	N	-0.168303	0.206039	0.464051
N522	N	0.165031	0.539372	0.797384
H523	H	-0.519941	-0.105615	0.151995
H524	H	-0.186608	0.227718	0.485328
H525	H	0.146725	0.561051	0.818662
H526	H	-0.480383	-0.105671	0.112351
H527	H	-0.147050	0.227663	0.445685
H528	H	0.186284	0.560996	0.779018
N529	N	-0.468582	-0.632696	0.163806
N530	N	-0.135248	-0.299363	0.497139
N531	N	0.198085	0.033970	0.830473
H532	H	-0.473883	-0.623598	0.198078
H533	H	-0.140550	-0.290265	0.531411
H534	H	0.192784	0.043069	0.864745
H535	H	-0.434338	-0.623603	0.158421
H536	H	-0.101005	-0.290270	0.491754
H537	H	0.232329	0.043064	0.825087
N538	N	-0.705992	-0.000090	-0.480020
N539	N	-0.372659	0.333243	-0.146687
N540	N	-0.039325	0.666577	0.186646
H541	H	-0.708161	-0.030845	-0.459381
H542	H	-0.374828	0.302489	-0.126048
H543	H	-0.041495	0.635822	0.207286
H544	H	-0.733644	-0.000074	-0.507522
H545	H	-0.400310	0.333259	-0.174189
H546	H	-0.066977	0.666592	0.159144
N547	N	-0.443089	-0.000082	-0.026050
N548	N	-0.109756	0.333251	0.307283
N549	N	0.223577	0.666584	0.640616
H550	H	-0.423328	-0.000091	-0.054218
H551	H	-0.089995	0.333242	0.279116
H552	H	0.243339	0.666575	0.612449
H553	H	-0.464281	0.030671	-0.027761
H554	H	-0.130947	0.364004	0.305573
H555	H	0.202386	0.697338	0.638906
H556	H	-0.510496	-0.865995	0.121974
H557	H	-0.177162	-0.532662	0.455307
H558	H	0.156171	-0.199329	0.788641
H559	H	-0.663699	-0.469106	-0.031221
H560	H	-0.330365	-0.135772	0.302112
H561	H	0.002968	0.197561	0.635446
H562	H	-0.083300	-0.000070	0.186272
H563	H	0.250033	0.333263	0.519605
H564	H	0.583367	0.666597	0.852938
N565	N	-0.338293	-0.000076	-0.027115
N566	N	-0.004960	0.333257	0.306219
N567	N	0.328373	0.666591	0.639552
H568	H	-0.349731	0.030675	-0.046295
H569	H	-0.016398	0.364009	0.287038
H570	H	0.316935	0.697342	0.620372
H571	H	-0.349728	-0.030851	-0.046258
H572	H	-0.016394	0.302482	0.287076
H573	H	0.316939	0.635816	0.620409
H574	H	-0.654087	-0.000117	-0.095853
H575	H	-0.320753	0.333216	0.237481
H576	H	0.012580	0.666550	0.570814
N577	N	-0.664744	-0.000103	-0.195577
N578	N	-0.331410	0.333230	0.137756
N579	N	0.001923	0.666563	0.471089
H580	H	-0.692903	-0.000112	-0.175806
H581	H	-0.359570	0.333221	0.157528
H582	H	-0.026237	0.666554	0.490861
H583	H	-0.666440	-0.030857	-0.216765
H584	H	-0.333107	0.302476	0.116568
H585	H	0.000226	0.635810	0.449902
H586	H	-0.694883	-0.000096	-0.425291
H587	H	-0.361550	0.333238	-0.091957
H588	H	-0.028216	0.666571	0.241376
N589	N	-0.475242	-0.000045	-0.785350
N590	N	-0.141909	0.333288	-0.452016
N591	N	0.191425	0.666622	-0.118683
H592	H	-0.481561	-0.000046	-0.822035
H593	H	-0.148228	0.333288	-0.488702
H594	H	0.185105	0.666621	-0.155368
H595	H	-0.456070	-0.030795	-0.773884
H596	H	-0.122737	0.302539	-0.440551
H597	H	0.210597	0.635872	-0.107217
H598	H	-0.446173	-0.000043	-0.450849
H599	H	-0.112840	0.333290	-0.117516
H600	H	0.220494	0.666623	0.215817
N601	N	-0.476307	-0.000048	-0.680569
N602	N	-0.142974	0.333285	-0.347235
N603	N	0.190360	0.666618	-0.013902
H604	H	-0.456959	0.030707	-0.686682
H605	H	-0.123625	0.364040	-0.353349
H606	H	0.209708	0.697373	-0.020015
H607	H	-0.456977	-0.030820	-0.686707
H608	H	-0.123643	0.302513	-0.353374
H609	H	0.209690	0.635847	-0.020040
N610	N	-0.481492	-0.000074	-0.170306
N611	N	-0.148159	0.333260	0.163027
N612	N	0.185174	0.666593	0.496360
H613	H	-0.479300	-0.030823	-0.190961
H614	H	-0.145967	0.302511	0.142373
H615	H	0.187366	0.635844	0.475706
H616	H	-0.453838	-0.000053	-0.142807
H617	H	-0.120504	0.333281	0.190526
H618	H	0.212829	0.666614	0.523859
N619	N	-0.468571	-0.524171	0.163809
N620	N	-0.135238	-0.190838	0.497142
N621	N	0.198096	0.142495	0.830475
H622	H	-0.447601	-0.548646	0.184771
H623	H	-0.114267	-0.215313	0.518104
H624	H	0.219066	0.118021	0.851437
H625	H	-0.486911	-0.502495	0.185056
H626	H	-0.153578	-0.169161	0.518389
H627	H	0.179756	0.164172	0.851723
H628	H	-0.321293	-0.000059	0.144553
H629	H	0.012040	0.333274	0.477887
H630	H	0.345373	0.666607	0.811220
H631	H	0.067950	-0.000089	0.184741
H632	H	0.401283	0.333244	0.518075
H633	H	0.734616	0.666578	0.851408
H634	H	-0.510405	-0.228927	0.121975
H635	H	-0.177072	0.104406	0.455308
H636	H	0.156262	0.437740	0.788641
H637	H	0.033711	-0.000097	-0.063365
H638	H	0.367044	0.333237	0.269968
H639	H	0.700377	0.666570	0.603301
H640	H	-0.447706	-0.000039	-0.299600
H641	H	-0.114373	0.333294	0.033733
H642	H	0.218961	0.666628	0.367067
H643	H	0.271701	-0.000090	-0.021636
H644	H	0.605034	0.333244	0.311698
H645	H	0.938367	0.666577	0.645031
N646	N	-0.659557	-0.000088	-0.705850
N647	N	-0.326224	0.333245	-0.372516
N648	N	0.007110	0.666579	-0.039183
H649	H	-0.687238	-0.000094	-0.733325
H650	H	-0.353904	0.333239	-0.399991
H651	H	-0.020571	0.666573	-0.066658
H652	H	-0.661706	0.030666	-0.685194
H653	H	-0.328373	0.363999	-0.351861
H654	H	0.004961	0.697333	-0.018528
N655	N	-0.639308	-0.127269	-0.006864
N656	N	-0.305975	0.206065	0.326469
N657	N	0.027359	0.539398	0.659803
H658	H	-0.660285	-0.151733	-0.027829
H659	H	-0.326952	0.181601	0.305505
H660	H	0.006381	0.514934	0.638838
H661	H	-0.620962	-0.105614	-0.028109
H662	H	-0.287629	0.227719	0.305224
H663	H	0.045704	0.561053	0.638558
H664	H	-0.494142	-0.000085	-0.073779
H665	H	-0.160808	0.333248	0.259554
H666	H	0.172525	0.666582	0.592887
N667	N	-0.704925	-0.000090	-0.584808
N668	N	-0.371591	0.333243	-0.251474
N669	N	-0.038258	0.666576	0.081859
H670	H	-0.697867	-0.000086	-0.619645
H671	H	-0.364534	0.333247	-0.286312
H672	H	-0.031201	0.666580	0.047022
H673	H	-0.724277	0.030660	-0.578649
H674	H	-0.390944	0.363993	-0.245316
H675	H	-0.057610	0.697327	0.088018
H676	H	-0.445242	-0.000041	-0.542297
H677	H	-0.111909	0.333293	-0.208964
H678	H	0.221424	0.666626	0.124369
H679	H	0.180248	-0.000097	-0.020713
H680	H	0.513582	0.333237	0.312621
H681	H	0.846915	0.666570	0.645954
N682	N	-0.639383	-0.764318	-0.006867
N683	N	-0.306050	-0.430984	0.326466
N684	N	0.027284	-0.097651	0.659800
H685	H	-0.673652	-0.773380	-0.001540
H686	H	-0.340319	-0.440047	0.331794
H687	H	-0.006985	-0.106714	0.665127
H688	H	-0.634031	-0.773427	-0.041121
H689	H	-0.300697	-0.440094	0.292213
H690	H	0.032636	-0.106760	0.625546
N691	N	-0.066008	-0.000100	-0.074019
N692	N	0.267325	0.333233	0.259314
N693	N	0.600658	0.666566	0.592647
H694	H	-0.046235	-0.000104	-0.102178
H695	H	0.287098	0.333229	0.231156
H696	H	0.620432	0.666562	0.564489
H697	H	-0.087196	0.030655	-0.075730
H698	H	0.246137	0.363989	0.257603
H699	H	0.579471	0.697322	0.590937
H700	H	-0.023501	-0.000077	0.185672
H701	H	0.309832	0.333256	0.519006
H702	H	0.643165	0.666589	0.852339
