data_functionalizedCrystal
_audit_creation_method	'MofGen! by Chris Wilmer'
_symmetry_space_group_name_H-M	'P1'
_symmetry_Int_Tables_number	1
_symmetry_cell_setting	triclinic
loop_
_symmetry_equiv_pos_as_xyz
  x,y,z
_cell_length_a	10.540539
_cell_length_b	14.519709
_cell_length_c	9.016244
_cell_angle_alpha	90.006998
_cell_angle_beta	90.000899
_cell_angle_gamma	84.102818
loop_
_atom_site_label
_atom_site_type_symbol
_atom_site_fract_x
_atom_site_fract_y
_atom_site_fract_z
O1	O	-1.684557	-0.129970	-0.123274
O2	O	-1.315019	-0.142215	-0.123293
O3	O	-1.509586	-0.001907	-0.123269
O4	O	-1.489991	-0.270278	-0.123297
O5	O	-1.509576	-0.001898	0.123411
O6	O	-1.315009	-0.142207	0.123388
O7	O	-1.684547	-0.129961	0.123407
Cu8	Cu	-1.499777	-0.136083	0.145921
Cu9	Cu	-1.499789	-0.136093	-0.145807
O10	O	-1.489980	-0.270270	0.123384
C11	C	-1.267720	-0.141293	0.000046
C12	C	-1.126800	-0.138545	0.000039
C13	C	-1.508668	0.032462	0.000071
C14	C	-1.505931	0.134858	0.000072
C15	C	-1.731846	-0.130884	0.000065
C16	C	-1.872766	-0.133631	0.000062
C17	C	-0.944448	-0.033266	0.000626
C18	C	-1.091038	-0.036051	0.000054
C19	C	-1.064630	-0.187874	-0.140828
C20	C	-0.918122	-0.184376	-0.140930
C21	C	-0.917600	-0.186452	0.139592
C22	C	-1.064572	-0.187396	0.141438
C23	C	-1.490899	-0.304639	0.000040
C24	C	-1.493635	-0.407035	0.000029
N25	N	-1.499777	-0.136076	0.351108
C26	C	-1.495856	0.509808	0.000033
C27	C	-1.498654	0.405485	0.000044
C28	C	-1.500893	0.322337	0.000054
C29	C	-1.503692	0.218007	0.000062
C30	C	-1.603915	-0.061029	0.414044
C31	C	-1.604299	-0.061237	0.585935
C32	C	-1.528393	-0.232625	0.586568
C33	C	-1.529128	-0.232176	0.414624
C34	C	-1.366737	-0.115457	0.414492
C35	C	-1.367638	-0.113286	0.586448
N36	N	-1.499800	-0.136093	0.649007
H37	H	-1.134044	0.002763	0.101034
Br38	Br	-0.836909	-0.307231	-0.151598
Br39	Br	-1.232463	-0.198340	0.657985
H40	H	-1.133187	0.003030	-0.101092
H41	H	-1.455937	-0.289626	0.372987
H42	H	-1.088035	-0.262121	0.149936
H43	H	-1.345933	-0.042267	0.627259
H44	H	-1.702090	-0.074140	0.370808
H45	H	-0.890288	-0.147925	-0.246221
Br46	Br	-1.100642	-0.313320	-0.149617
H47	H	-1.703036	-0.074544	0.627062
Br48	Br	-1.136198	-0.130775	-0.315555
Br49	Br	-1.688247	-0.263285	0.658325
H50	H	-0.914657	0.007051	-0.099827
H51	H	-0.886388	-0.153279	0.246368
Br52	Br	-1.237578	-0.206649	0.346655
H53	H	-0.869617	-0.260483	0.140536
Br54	Br	-0.897481	0.034230	0.169009
H55	H	-1.587322	0.010480	0.628153
Br56	Br	-1.576080	0.058911	0.345174
Br57	Br	-1.133273	-0.127227	0.315134
H58	H	-1.626143	-0.250156	0.374511
H59	H	-1.454551	-0.289872	0.627419
H60	H	-1.339176	-0.046499	0.371147
