data_functionalizedCrystal
_audit_creation_method	'MofGen! by Chris Wilmer'
_symmetry_space_group_name_H-M	'P1'
_symmetry_Int_Tables_number	1
_symmetry_cell_setting	triclinic
loop_
_symmetry_equiv_pos_as_xyz
  x,y,z
_cell_length_a	16.120530
_cell_length_b	17.638891
_cell_length_c	17.640968
_cell_angle_alpha	92.190062
_cell_angle_beta	104.631115
_cell_angle_gamma	76.537080
loop_
_atom_site_label
_atom_site_type_symbol
_atom_site_fract_x
_atom_site_fract_y
_atom_site_fract_z
Zn1	Zn	1.453925	-0.269164	0.571220
Zn2	Zn	1.953925	0.230836	1.071220
Zn3	Zn	1.465075	-0.422236	0.470537
Zn4	Zn	1.965075	0.077764	0.970537
Zn5	Zn	1.289680	-0.288798	0.435134
Zn6	Zn	1.789680	0.211202	0.935134
Zn7	Zn	1.344931	-0.392089	0.590811
Zn8	Zn	1.844931	0.107911	1.090811
O9	O	1.388403	-0.343071	0.516926
O10	O	1.888403	0.156929	1.016926
O11	O	1.574422	-0.293869	0.564482
O12	O	2.074422	0.206131	1.064482
O13	O	1.423352	-0.425369	0.358553
O14	O	1.923352	0.074631	0.858553
O15	O	1.283678	-0.178904	0.430171
O16	O	1.783678	0.321096	0.930171
O17	O	1.582614	-0.406330	0.490510
O18	O	2.082614	0.093670	0.990510
O19	O	1.404349	-0.164479	0.530153
O20	O	1.904349	0.335521	1.030153
O21	O	1.294490	-0.327332	0.332543
O22	O	1.794490	0.172668	0.832543
O23	O	1.177991	-0.298100	0.449168
O24	O	1.677991	0.201900	0.949168
O25	O	1.377846	-0.354949	0.695500
O26	O	1.877846	0.145051	1.195500
O27	O	1.218584	-0.373987	0.563543
O28	O	1.718584	0.126013	1.063543
O29	O	1.457923	-0.264636	0.681107
O30	O	1.957923	0.235364	1.181107
O31	O	1.476927	-0.525526	0.509506
O32	O	1.976927	-0.025526	1.009506
O33	O	1.388657	-0.503376	0.597871
O34	O	1.888657	-0.003376	1.097871
C35	C	1.440023	-0.542267	0.559674
C36	C	1.940023	-0.042267	1.059674
C37	C	1.462189	-0.627482	0.577992
C38	C	1.962189	-0.127482	1.077992
C39	C	1.167428	-0.334903	0.504640
C40	C	1.667428	0.165097	1.004640
C41	C	1.072902	-0.331424	0.499406
C42	C	1.572902	0.168576	0.999406
C43	C	1.422804	-0.304239	0.716900
C44	C	1.922804	0.195761	1.216900
C45	C	1.437464	-0.287691	0.802117
C46	C	1.937464	0.212309	1.302117
C47	C	0.899840	-0.325052	0.489854
C48	C	1.399840	0.174948	0.989854
C49	C	0.877830	-0.361137	0.544066
C50	C	1.377830	0.138863	1.044066
C51	C	0.781533	-0.357592	0.538751
C52	C	1.281533	0.142408	1.038751
C53	C	0.996146	-0.328596	0.495167
C54	C	1.496146	0.171404	0.995167
C55	C	1.610241	-0.351272	0.529260
C56	C	2.110241	0.148728	1.029260
C57	C	1.704775	-0.354767	0.534516
C58	C	2.204775	0.145233	1.034516
C59	C	1.336607	-0.143095	0.474028
C60	C	1.836607	0.356905	0.974028
C61	C	1.314534	-0.057877	0.455748
C62	C	1.814534	0.442123	0.955748
C63	C	1.556111	0.259931	0.655839
C64	C	2.056111	0.759931	1.155839
C65	C	1.535367	0.340001	0.638635
C66	C	2.035367	0.840001	1.138635
C67	C	1.409723	0.324971	0.534532
C68	C	1.909723	0.824971	1.034532
C69	C	1.430454	0.244899	0.551730
C70	C	1.930454	0.744899	1.051730
C71	C	1.503650	0.212385	0.612383
C72	C	2.003650	0.712385	1.112383
C73	C	1.377993	0.197353	0.508275
C74	C	1.877993	0.697353	1.008275
C75	C	1.398726	0.117287	0.525469
C76	C	1.898726	0.617287	1.025469
C77	C	1.471919	0.084767	0.586118
C78	C	1.971919	0.584767	1.086118
C79	C	1.524382	0.132319	0.629577
C80	C	2.024382	0.632319	1.129577
C81	C	1.304802	0.229867	0.447618
C82	C	1.804802	0.729867	0.947618
C83	C	1.252341	0.182321	0.404163
C84	C	1.752341	0.682321	0.904163
C85	C	1.273070	0.102255	0.421360
C86	C	1.773070	0.602255	0.921360
C87	C	1.346263	0.069735	0.482009
C88	C	1.846263	0.569735	0.982009
C89	C	1.220607	0.054702	0.377900
C90	C	1.720607	0.554702	0.877900
C91	C	1.241339	-0.025364	0.395094
C92	C	1.741339	0.474636	0.895094
C93	C	1.366995	-0.010331	0.499203
C94	C	1.866995	0.489669	0.999203
C95	C	1.354170	-0.381699	0.317720
C96	C	1.854170	0.118301	0.817720
C97	C	1.339619	-0.398037	0.232466
C98	C	1.839619	0.101963	0.732466
C99	C	1.277252	-0.468379	1.119857
C100	C	1.777252	0.031621	1.619857
C101	C	1.291043	-0.452821	1.199931
C102	C	1.791043	0.047179	1.699931
C103	C	1.374420	-0.358787	1.184934
C104	C	1.874420	0.141213	1.684934
C105	C	1.360633	-0.374334	1.104857
C106	C	1.860633	0.125666	1.604857
C107	C	1.312049	-0.429132	1.072325
C108	C	1.812049	0.070868	1.572325
C109	C	1.395430	-0.335087	1.057325
C110	C	1.895430	0.164913	1.557325
C111	C	1.381648	-0.350637	0.977256
C112	C	1.881648	0.149363	1.477256
C113	C	1.333068	-0.405434	0.944718
C114	C	1.833068	0.094566	1.444718
C115	C	1.298267	-0.444682	0.992256
C116	C	1.798267	0.055318	1.492256
C117	C	1.444019	-0.280294	1.089859
C118	C	1.944019	0.219706	1.589859
C119	C	1.478816	-0.241046	1.042327
C120	C	1.978816	0.258954	1.542327
C121	C	1.465029	-0.256592	0.962255
C122	C	1.965029	0.243408	1.462255
C123	C	1.416449	-0.311389	0.929718
C124	C	1.916449	0.188611	1.429718
C125	C	1.499830	-0.217344	0.914718
C126	C	1.999830	0.282656	1.414718
C127	C	1.486048	-0.232894	0.834649
C128	C	1.986048	0.267106	1.334649
C129	C	1.402667	-0.326939	0.849649
C130	C	1.902667	0.173061	1.349649
H131	H	0.931307	-0.394692	0.594471
H132	H	1.431307	0.105308	1.094471
Cl133	Cl	0.817280	-0.273248	0.412036
Cl134	Cl	1.317280	0.226752	0.912036
H135	H	1.426584	-0.036802	0.548607
H136	H	1.926584	0.463198	1.048607
H137	H	1.455241	-0.267637	1.155058
H138	H	1.955241	0.232363	1.655058
Cl139	Cl	1.529797	-0.183556	0.774891
Cl140	Cl	2.029797	0.316444	1.274891
Cl141	Cl	1.175391	-0.085141	0.340461
Cl142	Cl	1.675391	0.414859	0.840461
Cl143	Cl	1.498085	-0.015914	0.607634
Cl144	Cl	1.998085	0.484086	1.107634
H145	H	1.583971	0.105849	0.678981
H146	H	2.083971	0.605849	1.178981
H147	H	1.615700	0.233461	0.705243
H148	H	2.115700	0.733461	1.205243
H149	H	1.350129	0.351453	0.485146
H150	H	1.850129	0.851453	0.985146
Cl151	Cl	1.560916	-0.148467	0.955627
Cl152	Cl	2.060916	0.351533	1.455627
H153	H	1.578094	0.378710	0.674026
H154	H	2.078094	0.878710	1.174026
H155	H	1.287928	0.295062	0.433618
H156	H	1.787928	0.795062	0.933618
H157	H	1.363080	-0.371541	0.823155
H158	H	1.863080	0.128459	1.323155
H159	H	1.192747	0.208803	0.354776
H160	H	1.692747	0.708803	0.854776
H161	H	1.161016	0.081184	0.328511
H162	H	1.661016	0.581184	0.828511
H163	H	1.518376	-0.196432	1.068826
H164	H	2.018376	0.303568	1.568826
H165	H	1.258680	-0.489285	0.965762
H166	H	1.758680	0.010715	1.465762
H167	H	1.321852	-0.418096	0.879521
H168	H	1.821852	0.081904	1.379521
Cl169	Cl	1.216165	-0.537262	1.078952
Cl170	Cl	1.716165	-0.037262	1.578952
Cl171	Cl	1.247288	-0.502164	1.259683
Cl172	Cl	1.747288	-0.002164	1.759683
H173	H	1.413980	-0.314172	1.211433
H174	H	1.913980	0.185828	1.711433
