data_functionalizedCrystal
_audit_creation_method	'MofGen! by Chris Wilmer'
_symmetry_space_group_name_H-M	'P1'
_symmetry_Int_Tables_number	1
_symmetry_cell_setting	triclinic
loop_
_symmetry_equiv_pos_as_xyz
  x,y,z
_cell_length_a	23.532355
_cell_length_b	16.109301
_cell_length_c	14.586319
_cell_angle_alpha	89.998390
_cell_angle_beta	90.000005
_cell_angle_gamma	96.855510
loop_
_atom_site_label
_atom_site_type_symbol
_atom_site_fract_x
_atom_site_fract_y
_atom_site_fract_z
O1	O	0.755652	-0.100714	0.076119
O2	O	1.255652	0.399286	0.576119
O3	O	0.589838	-0.115362	0.076148
O4	O	1.089838	0.384638	0.576148
O5	O	0.677300	0.013030	0.076123
O6	O	1.177300	0.513030	0.576123
O7	O	0.668190	-0.229106	0.076144
O8	O	1.168190	0.270894	0.576144
O9	O	0.677289	0.013022	-0.076358
O10	O	1.177289	0.513022	0.423642
O11	O	0.589828	-0.115370	-0.076333
O12	O	1.089828	0.384630	0.423667
O13	O	0.755641	-0.100722	-0.076362
O14	O	1.255641	0.399278	0.423638
Cu15	Cu	0.672733	-0.108047	-0.090270
Cu16	Cu	1.172733	0.391953	0.409730
Cu17	Cu	0.672746	-0.108038	0.090056
Cu18	Cu	1.172746	0.391962	0.590056
O19	O	0.668179	-0.229114	-0.076337
O20	O	1.168179	0.270886	0.423663
C21	C	0.568615	-0.115000	-0.000089
C22	C	1.068615	0.385000	0.499911
C23	C	0.505392	-0.113899	-0.000078
C24	C	1.005392	0.386101	0.499922
C25	C	0.113347	-0.106987	-0.083234
C26	C	0.613347	0.393013	0.416766
C27	C	0.053944	-0.105939	-0.083237
C28	C	0.553944	0.394061	0.416763
O29	O	0.023218	-0.105373	-0.153925
O30	O	0.523218	0.394627	0.346075
N31	N	0.024239	-0.105416	-0.000121
N32	N	0.524239	0.394584	0.499879
C33	C	0.053942	-0.105931	0.083005
C34	C	0.553942	0.394069	0.583005
O35	O	0.023221	-0.105389	0.153703
O36	O	0.523221	0.394611	0.653703
C37	C	0.113345	-0.106973	0.083008
C38	C	0.613345	0.393027	0.583008
C39	C	0.143045	-0.107505	-0.000114
C40	C	0.643045	0.392495	0.499886
C41	C	0.143048	-0.107518	-0.166349
C42	C	0.643048	0.392482	0.333651
C43	C	0.202447	-0.108566	-0.166345
C44	C	0.702447	0.391434	0.333655
C45	C	0.232145	-0.109084	-0.083226
C46	C	0.732145	0.390916	0.416774
C47	C	0.202444	-0.108553	-0.000110
C48	C	0.702444	0.391447	0.499890
C49	C	0.143047	-0.107482	0.166133
C50	C	0.643047	0.392518	0.666133
C51	C	0.202453	-0.108523	0.166129
C52	C	0.702453	0.391477	0.666129
C53	C	0.232154	-0.109055	0.083006
C54	C	0.732154	0.390945	0.583006
C55	C	0.291542	-0.110120	0.083013
C56	C	0.791542	0.389880	0.583013
N57	N	0.321246	-0.110644	-0.000104
N58	N	0.821246	0.389356	0.499896
C59	C	0.291548	-0.110126	-0.083223
C60	C	0.791548	0.389874	0.416777
C61	C	-0.070808	-0.103743	0.082993
C62	C	0.429192	0.396257	0.582993
C63	C	-0.130210	-0.102707	0.082992
C64	C	0.369790	0.397293	0.582992
C65	C	-0.130204	-0.102714	-0.083251
C66	C	0.369796	0.397286	0.416749
C67	C	-0.070801	-0.103755	-0.083249
C68	C	0.429199	0.396245	0.416751
C69	C	-0.041103	-0.104266	-0.000123
C70	C	0.458897	0.395734	0.499877
C71	C	0.416290	-0.112329	-0.083209
C72	C	0.916290	0.387671	0.416791
C73	C	0.475694	-0.113382	-0.083197
C74	C	0.975694	0.386618	0.416803
C75	C	0.475683	-0.113370	0.083045
C76	C	0.975683	0.386630	0.583045
C77	C	0.416284	-0.112323	0.083035
C78	C	0.916284	0.387677	0.583035
C79	C	0.386589	-0.111799	-0.000100
C80	C	0.886589	0.388201	0.499900
O81	O	0.322305	-0.110684	0.153664
O82	O	0.822305	0.389316	0.653664
O83	O	0.322277	-0.110657	-0.153908
O84	O	0.822277	0.389343	0.346092
C85	C	0.676926	0.043998	-0.000118
C86	C	1.176926	0.543998	0.499882
C87	C	0.675819	0.136284	-0.000119
C88	C	1.175819	0.636284	0.499881
C89	C	0.776864	-0.101084	-0.000123
C90	C	1.276864	0.398916	0.499877
C91	C	0.840087	-0.102185	-0.000128
C92	C	1.340087	0.397815	0.499872
N93	N	0.672729	-0.108053	-0.217102
N94	N	1.172729	0.391947	0.282898
C95	C	0.668554	-0.260082	-0.000094
C96	C	1.168554	0.239918	0.499906
C97	C	0.669660	-0.352368	-0.000087
C98	C	1.169660	0.147632	0.499913
C99	C	0.725145	0.358958	-0.000113
C100	C	1.225145	0.858958	0.499887
C101	C	0.724101	0.445670	-0.000105
C102	C	1.224101	0.945670	0.499895
C103	C	0.620331	0.424951	-0.000090
C104	C	1.120331	0.924951	0.499910
C105	C	0.621375	0.338241	-0.000091
C106	C	1.121375	0.838241	0.499909
C107	C	0.673784	0.305247	-0.000107
C108	C	1.173784	0.805247	0.499893
C109	C	0.671695	0.478669	-0.000099
C110	C	1.171695	0.978669	0.499901
C111	C	0.670563	0.572686	-0.000090
C112	C	1.170563	1.072686	0.499910
C113	C	0.674917	0.211224	-0.000114
C114	C	1.174917	0.711224	0.499886
C115	C	0.707269	-0.158200	-0.452110
C116	C	1.207269	0.341800	0.047890
C117	C	0.707275	-0.158194	-0.548092
C118	C	1.207275	0.341806	-0.048092
C119	C	0.638214	-0.057872	-0.548097
C120	C	1.138214	0.442128	-0.048097
C121	C	0.638212	-0.057874	-0.452118
C122	C	1.138212	0.442126	0.047882
C123	C	0.672738	-0.108043	-0.404127
C124	C	1.172738	0.391957	0.095873
C125	C	0.672746	-0.108035	-0.596087
C126	C	1.172746	0.391965	-0.096087
C127	C	0.672752	-0.108028	-0.700155
C128	C	1.172752	0.391972	-0.200155
C129	C	0.672733	-0.108048	-0.300053
C130	C	1.172733	0.391952	0.199947
N131	N	0.672755	-0.108025	0.216888
N132	N	1.172755	0.391975	0.716888
H133	H	0.226625	-0.108995	-0.234032
H134	H	0.726625	0.391005	0.265968
Cl135	Cl	0.513028	-0.114053	-0.187702
Cl136	Cl	1.013028	0.385947	0.312298
Cl137	Cl	0.239784	-0.109163	0.270636
Cl138	Cl	0.739784	0.390837	0.770636
H139	H	0.610092	-0.017025	-0.413048
H140	H	1.110092	0.482975	0.086952
Cl141	Cl	0.105724	-0.106872	-0.270857
Cl142	Cl	0.605724	0.393128	0.229143
H143	H	0.735394	-0.199037	-0.587156
H144	H	1.235394	0.300963	-0.087156
Cl145	Cl	0.594808	0.005187	-0.608435
Cl146	Cl	1.094808	0.505187	-0.108435
Cl147	Cl	0.378969	-0.111671	-0.187722
Cl148	Cl	0.878969	0.388329	0.312278
H149	H	0.577661	0.451826	-0.000079
H150	H	1.077661	0.951826	0.499921
Cl151	Cl	-0.167549	-0.102059	-0.187746
Cl152	Cl	0.332451	0.397941	0.312254
Cl153	Cl	-0.033469	-0.104421	-0.187749
Cl154	Cl	0.466531	0.395579	0.312251
Cl155	Cl	-0.033480	-0.104395	0.187505
Cl156	Cl	0.466520	0.395605	0.687505
Cl157	Cl	-0.167542	-0.102055	0.187493
Cl158	Cl	0.332458	0.397945	0.687493
H159	H	0.579548	0.294507	-0.000084
H160	H	1.079548	0.794507	0.499916
Cl161	Cl	0.105723	-0.106810	0.270637
Cl162	Cl	0.605723	0.393190	0.770637
H163	H	0.392099	-0.111903	0.150720
H164	H	0.892099	0.388097	0.650720
H165	H	0.767820	0.332097	-0.000124
H166	H	1.267820	0.832097	0.499876
Cl167	Cl	0.513030	-0.114016	0.187533
Cl168	Cl	1.013030	0.385984	0.687533
Cl169	Cl	0.750678	-0.221263	-0.391782
Cl170	Cl	1.250678	0.278737	0.108218
H171	H	0.765924	0.489398	-0.000108
H172	H	1.265924	0.989398	0.499892
