data_functionalizedCrystal
_audit_creation_method	'MofGen! by Chris Wilmer'
_symmetry_space_group_name_H-M	'P1'
_symmetry_Int_Tables_number	1
_symmetry_cell_setting	triclinic
loop_
_symmetry_equiv_pos_as_xyz
  x,y,z
_cell_length_a	14.519731
_cell_length_b	14.044190
_cell_length_c	13.596369
_cell_angle_alpha	89.989293
_cell_angle_beta	89.994584
_cell_angle_gamma	88.440315
loop_
_atom_site_label
_atom_site_type_symbol
_atom_site_fract_x
_atom_site_fract_y
_atom_site_fract_z
O1	O	1.233891	0.124370	-0.081805
O2	O	0.966596	0.138983	-0.081808
O3	O	1.096228	-0.006315	-0.081787
O4	O	1.104259	0.269668	-0.081826
O5	O	1.096213	-0.006323	0.081796
O6	O	0.966581	0.138976	0.081775
O7	O	1.233876	0.124362	0.081778
Zn8	Zn	1.100226	0.131668	0.107749
Zn9	Zn	1.100246	0.131678	-0.107779
O10	O	1.104244	0.269661	0.081757
C11	C	0.932174	0.138295	-0.000017
C12	C	0.829628	0.136243	-0.000017
C13	C	0.746349	0.134576	-0.000021
C14	C	0.641872	0.132492	-0.000021
C15	C	0.558600	0.130839	-0.000020
C16	C	0.454117	0.128756	-0.000022
C17	C	1.092707	-0.041640	0.000007
C18	C	1.082228	-0.146884	0.000016
C19	C	1.137393	-0.397073	-0.000022
C20	C	1.063083	-0.339576	-0.000016
C21	C	1.073738	-0.232353	0.000001
C22	C	1.126740	-0.504306	-0.000040
C23	C	1.268298	0.125051	-0.000016
C24	C	1.370844	0.127102	-0.000022
C25	C	1.107765	0.304985	-0.000039
C26	C	1.118244	0.410230	-0.000054
N27	N	1.100220	0.131660	0.254841
N28	N	1.100259	0.131678	-0.254871
C29	C	1.100245	0.131679	0.656132
C30	C	1.100235	0.131677	0.544480
C31	C	1.100233	0.131670	0.455490
C32	C	1.100222	0.131667	0.343831
H33	H	1.209007	-0.365772	-0.000011
C34	C	0.967504	-0.381122	-0.000066
C35	C	0.901038	-0.306999	-0.000075
C36	C	0.812985	-0.345239	-0.000129
H37	H	0.960138	-0.419252	0.056960
H38	H	0.960220	-0.419204	-0.057138
H39	H	0.908319	-0.268933	0.056991
H40	H	0.908374	-0.268863	-0.057096
H41	H	0.805701	-0.383321	-0.057201
H42	H	0.805630	-0.383368	0.056898
H43	H	0.767878	-0.294953	-0.000144
