data_functionalizedCrystal
_audit_creation_method	'MofGen! by Chris Wilmer'
_symmetry_space_group_name_H-M	'P1'
_symmetry_Int_Tables_number	1
_symmetry_cell_setting	triclinic
loop_
_symmetry_equiv_pos_as_xyz
  x,y,z
_cell_length_a	27.731993
_cell_length_b	27.732048
_cell_length_c	26.809956
_cell_angle_alpha	90.024325
_cell_angle_beta	90.008964
_cell_angle_gamma	82.631525
loop_
_atom_site_label
_atom_site_type_symbol
_atom_site_fract_x
_atom_site_fract_y
_atom_site_fract_z
O1	O	0.640955	0.057400	0.041351
O2	O	0.974288	0.390734	0.374684
O3	O	1.307621	0.724067	0.708017
O4	O	0.500157	0.066173	0.041382
O5	O	0.833491	0.399507	0.374715
O6	O	1.166824	0.732840	0.708049
O7	O	0.574929	-0.008611	0.041356
O8	O	0.908262	0.324723	0.374689
O9	O	1.241595	0.658056	0.708023
O10	O	0.566183	0.132184	0.041377
O11	O	0.899516	0.465518	0.374710
O12	O	1.232850	0.798851	0.708043
O13	O	0.574902	-0.008631	-0.041603
O14	O	0.908236	0.324702	0.291730
O15	O	1.241569	0.658036	0.625063
O16	O	0.500131	0.066153	-0.041577
O17	O	0.833464	0.399487	0.291756
O18	O	1.166797	0.732820	0.625089
O19	O	0.640928	0.057380	-0.041609
O20	O	0.974261	0.390714	0.291725
O21	O	1.307595	0.724047	0.625058
Zn22	Zn	0.570525	0.061764	-0.054765
Zn23	Zn	0.903859	0.395097	0.278569
Zn24	Zn	1.237192	0.728430	0.611902
Zn25	Zn	0.570560	0.061790	0.054538
Zn26	Zn	0.903893	0.395123	0.387871
Zn27	Zn	1.237227	0.728457	0.721205
O28	O	0.566157	0.132164	-0.041582
O29	O	0.899490	0.465498	0.291751
O30	O	1.232823	0.798831	0.625084
C31	C	0.482137	0.065983	-0.000094
C32	C	0.815470	0.399317	0.333239
C33	C	1.148803	0.732650	0.666573
C34	C	0.428480	0.065441	-0.000082
C35	C	0.761814	0.398774	0.333251
C36	C	1.095147	0.732108	0.666584
C37	C	0.045335	0.061521	0.045114
C38	C	0.378668	0.394855	0.378447
C39	C	0.712001	0.728188	0.711781
C40	C	0.246992	0.063588	0.045128
C41	C	0.580325	0.396922	0.378461
C42	C	0.913659	0.730255	0.711794
O43	O	0.273077	0.063846	0.083588
O44	O	0.606411	0.397179	0.416921
O45	O	0.939744	0.730512	0.750254
N46	N	0.272198	0.063836	-0.000092
N47	N	0.605531	0.397169	0.333241
N48	N	0.938864	0.730503	0.666574
C49	C	0.246987	0.063564	-0.045319
C50	C	0.580320	0.396897	0.288014
C51	C	0.913653	0.730230	0.621348
O52	O	0.273054	0.063817	-0.083781
O53	O	0.606387	0.397150	0.249552
O54	O	0.939720	0.730483	0.582886
C55	C	0.045331	0.061493	-0.045332
C56	C	0.378664	0.394827	0.288001
C57	C	0.711997	0.728160	0.621334
C58	C	0.020127	0.061251	-0.000109
C59	C	0.353460	0.394584	0.333224
C60	C	0.686793	0.727917	0.666557
C61	C	0.020131	0.061278	0.090333
C62	C	0.353464	0.394611	0.423667
C63	C	0.686797	0.727945	0.757000
C64	C	-0.030281	0.060764	0.090329
C65	C	0.303052	0.394097	0.423663
C66	C	0.636386	0.727431	0.756996
C67	C	-0.055489	0.060493	0.045106
C68	C	0.277844	0.393827	0.378439
C69	C	0.611178	0.727160	0.711773
C70	C	-0.030285	0.060736	-0.000113
C71	C	0.303048	0.394070	0.333220
C72	C	0.636382	0.727403	0.666553
C73	C	0.020121	0.061217	-0.090558
C74	C	0.353454	0.394551	0.242775
C75	C	0.686788	0.727884	0.576108
C76	C	-0.030296	0.060698	-0.090558
C77	C	0.303037	0.394032	0.242776
C78	C	0.636371	0.727365	0.576109
C79	C	-0.055500	0.060456	-0.045335
C80	C	0.277833	0.393789	0.287999
C81	C	0.611167	0.727122	0.621332
C82	C	-0.105905	0.059952	-0.045340
C83	C	0.227429	0.393285	0.287993
C84	C	0.560762	0.726618	0.621326
N85	N	-0.131110	0.059704	-0.000120
N86	N	0.202223	0.393037	0.333213
N87	N	0.535556	0.726371	0.666546
C88	C	-0.105902	0.059975	0.045103
C89	C	0.227431	0.393308	0.378436
C90	C	0.560764	0.726641	0.711770
C91	C	0.352859	0.064652	-0.045309
C92	C	0.686192	0.397985	0.288025
C93	C	1.019525	0.731318	0.621358
C94	C	0.403272	0.065170	-0.045306
C95	C	0.736606	0.398504	0.288028
C96	C	1.069939	0.731837	0.621361
C97	C	0.403274	0.065194	0.045141
C98	C	0.736608	0.398527	0.378475
C99	C	1.069941	0.731861	0.711808
C100	C	0.352859	0.064679	0.045138
C101	C	0.686193	0.398012	0.378471
C102	C	1.019526	0.731346	0.711804
C103	C	0.327653	0.064404	-0.000089
C104	C	0.660986	0.397737	0.333245
C105	C	0.994320	0.731071	0.666578
C106	C	-0.211771	0.058896	0.045091
C107	C	0.121563	0.392229	0.378425
C108	C	0.454896	0.725562	0.711758
C109	C	-0.262187	0.058383	0.045083
C110	C	0.071146	0.391717	0.378417
C111	C	0.404479	0.725050	0.711750
C112	C	-0.262184	0.058357	-0.045363
C113	C	0.071149	0.391690	0.287970
C114	C	0.404482	0.725024	0.621303
C115	C	-0.211773	0.058872	-0.045356
C116	C	0.121561	0.392205	0.287978
C117	C	0.454894	0.725538	0.621311
C118	C	-0.186567	0.059139	-0.000124
C119	C	0.146766	0.392473	0.333209
C120	C	0.480100	0.725806	0.666542
O121	O	-0.132020	0.059689	-0.083780
O122	O	0.201313	0.393022	0.249553
O123	O	0.534646	0.726355	0.582887
O124	O	-0.131977	0.059711	0.083559
O125	O	0.201357	0.393044	0.416893
O126	O	0.534690	0.726377	0.750226
C127	C	0.095746	0.062035	0.045118
C128	C	0.429080	0.395369	0.378451
C129	C	0.762413	0.728702	0.711785
C130	C	0.120950	0.062279	-0.000101
C131	C	0.454283	0.395612	0.333232
C132	C	0.787617	0.728945	0.666565
C133	C	0.095742	0.062008	-0.045325
C134	C	0.429076	0.395341	0.288009
C135	C	0.762409	0.728674	0.621342
C136	C	0.171364	0.062797	-0.000098
C137	C	0.504697	0.396130	0.333235
C138	C	0.838030	0.729464	0.666568
C139	C	0.196572	0.063068	0.045125
C140	C	0.529905	0.396401	0.378458
C141	C	0.863238	0.729735	0.711792
C142	C	0.171366	0.062820	0.090345
C143	C	0.504699	0.396154	0.423678
C144	C	0.838032	0.729487	0.757012
C145	C	0.120954	0.062306	0.090341
C146	C	0.454287	0.395640	0.423674
C147	C	0.787621	0.728973	0.757008
C148	C	0.120948	0.062255	-0.090545
C149	C	0.454281	0.395589	0.242789
C150	C	0.787615	0.728922	0.576122
C151	C	0.171360	0.062770	-0.090537
C152	C	0.504693	0.396103	0.242796
C153	C	0.838026	0.729437	0.576130
C154	C	0.196568	0.063041	-0.045314
C155	C	0.529901	0.396374	0.288019
C156	C	0.863234	0.729708	0.621353
C157	C	0.574732	-0.026628	-0.000125
C158	C	0.908065	0.306706	0.333208
C159	C	1.241399	0.640039	0.666542
C160	C	0.574179	-0.080282	-0.000129
C161	C	0.907512	0.253051	0.333204
C162	C	1.240846	0.586384	0.666538
C163	C	0.614884	-0.419105	-0.000113
C164	C	0.948217	-0.085772	0.333221
C165	C	1.281551	0.247561	0.666554
C166	C	0.612833	-0.620765	-0.000105
C167	C	0.946166	-0.287431	0.333228
C168	C	1.279500	0.045902	0.666562
O169	O	0.650055	-0.652028	-0.000092
O170	O	0.983388	-0.318694	0.333242
O171	O	1.316721	0.014639	0.666575
N172	N	0.568497	-0.639880	-0.000096
N173	N	0.901830	-0.306546	0.333238
N174	N	1.235163	0.026787	0.666571
C175	C	0.524670	-0.608577	-0.000085
C176	C	0.858003	-0.275243	0.333248
C177	C	1.191336	0.058090	0.666582
O178	O	0.486912	-0.629462	-0.000072
O179	O	0.820245	-0.296129	0.333262
O180	O	1.153579	0.037204	0.666595
C181	C	0.526721	-0.406918	-0.000089
C182	C	0.860055	-0.073585	0.333245
C183	C	1.193388	0.259748	0.666578
C184	C	0.571061	-0.387806	-0.000103
C185	C	0.904394	-0.054473	0.333230
C186	C	1.237727	0.278860	0.666563
C187	C	0.659220	-0.399993	-0.000126
C188	C	0.992553	-0.066660	0.333207
C189	C	1.325886	0.266674	0.666540
C190	C	0.659732	-0.349581	-0.000131
C191	C	0.993065	-0.016248	0.333202
C192	C	1.326399	0.317086	0.666536
C193	C	0.615909	-0.318282	-0.000122
C194	C	0.949242	0.015052	0.333212
C195	C	1.282575	0.348385	0.666545
C196	C	0.571573	-0.337394	-0.000108
C197	C	0.904906	-0.004061	0.333226
C198	C	1.238240	0.329272	0.666559
C199	C	0.482895	-0.375616	-0.000074
C200	C	0.816228	-0.042283	0.333259
C201	C	1.149562	0.291051	0.666592
C202	C	0.483412	-0.325199	-0.000074
C203	C	0.816745	0.008135	0.333259
C204	C	1.150079	0.341468	0.666593
C205	C	0.527751	-0.306087	-0.000089
C206	C	0.861085	0.027247	0.333245
C207	C	1.194418	0.360580	0.666578
C208	C	0.528262	-0.255683	-0.000103
C209	C	0.861595	0.077650	0.333230
C210	C	1.194928	0.410983	0.666564
N211	N	0.572598	-0.236568	-0.000112
N212	N	0.905932	0.096765	0.333221
N213	N	1.239265	0.430098	0.666554
C214	C	0.616422	-0.267867	-0.000122
C215	C	0.949755	0.065466	0.333212
C216	C	1.283088	0.398799	0.666545
C217	C	0.523596	-0.714450	-0.000084
C218	C	0.856929	-0.381117	0.333249
C219	C	1.190262	-0.047784	0.666583
C220	C	0.523083	-0.764865	-0.000084
C221	C	0.856416	-0.431531	0.333249
C222	C	1.189749	-0.098198	0.666583
C223	C	0.611246	-0.777049	-0.000103
C224	C	0.944579	-0.443716	0.333230
C225	C	1.277913	-0.110383	0.666564
C226	C	0.611759	-0.726634	-0.000107
C227	C	0.945092	-0.393301	0.333227
C228	C	1.278425	-0.059967	0.666560
C229	C	0.567932	-0.695335	-0.000093
C230	C	0.901266	-0.362002	0.333240
C231	C	1.234599	-0.028669	0.666573
C232	C	0.617494	-0.161999	-0.000132
C233	C	0.950827	0.171335	0.333202
C234	C	1.284161	0.504668	0.666535
C235	C	0.618002	-0.111582	-0.000138
C236	C	0.951336	0.221752	0.333195
C237	C	1.284669	0.555085	0.666528
C238	C	0.529839	-0.099401	-0.000117
C239	C	0.863173	0.233932	0.333217
C240	C	1.196506	0.567265	0.666550
C241	C	0.529331	-0.149814	-0.000113
C242	C	0.862664	0.183520	0.333221
C243	C	1.195997	0.516853	0.666554
C244	C	0.573162	-0.181112	-0.000118
C245	C	0.906495	0.152222	0.333215
C246	C	1.239829	0.485555	0.666548
O247	O	0.491060	-0.224392	-0.000111
O248	O	0.824393	0.108941	0.333222
O249	O	1.157727	0.442275	0.666556
O250	O	0.654174	-0.246972	-0.000124
O251	O	0.987507	0.086361	0.333209
O252	O	1.320841	0.419694	0.666543
C253	C	0.614372	-0.469517	-0.000108
C254	C	0.947705	-0.136184	0.333225
C255	C	1.281038	0.197149	0.666559
C256	C	0.570036	-0.488630	-0.000094
C257	C	0.903369	-0.155297	0.333239
C258	C	1.236703	0.178037	0.666573
C259	C	0.526213	-0.457331	-0.000085
C260	C	0.859546	-0.123997	0.333249
C261	C	1.192879	0.209336	0.666582
C262	C	0.569523	-0.539044	-0.000094
C263	C	0.902856	-0.205711	0.333239
C264	C	1.236190	0.127622	0.666573
C265	C	0.613346	-0.570343	-0.000103
C266	C	0.946680	-0.237010	0.333230
C267	C	1.280013	0.096323	0.666563
C268	C	0.657683	-0.551228	-0.000113
C269	C	0.991016	-0.217895	0.333221
C270	C	1.324349	0.115438	0.666554
C271	C	0.658195	-0.500817	-0.000117
C272	C	0.991528	-0.167483	0.333216
C273	C	1.324862	0.165850	0.666549
C274	C	0.481876	-0.476446	-0.000075
C275	C	0.815210	-0.143112	0.333258
C276	C	1.148543	0.190221	0.666591
C277	C	0.481368	-0.526858	-0.000071
C278	C	0.814701	-0.193525	0.333262
C279	C	1.148034	0.139809	0.666595
C280	C	0.525191	-0.558157	-0.000081
C281	C	0.858524	-0.224824	0.333253
C282	C	1.191858	0.108509	0.666586
C283	C	0.658949	0.057570	-0.000132
C284	C	0.992282	0.390904	0.333202
C285	C	1.325615	0.724237	0.666535
C286	C	0.712605	0.058113	-0.000140
C287	C	1.045938	0.391446	0.333193
C288	C	1.379272	0.724779	0.666527
C289	C	0.566353	0.150181	-0.000100
C290	C	0.899687	0.483515	0.333233
C291	C	1.233020	0.816848	0.666566
C292	C	0.566906	0.203836	-0.000093
C293	C	0.900239	0.537169	0.333240
C294	C	1.233573	0.870503	0.666574
N295	N	0.570505	0.061745	-0.129360
N296	N	0.903838	0.395078	0.203973
N297	N	1.237172	0.728412	0.537306
C298	C	0.541454	0.032657	-0.526251
C299	C	0.874787	0.365990	-0.192918
C300	C	1.208121	0.699323	0.140415
C301	C	0.541431	0.032643	-0.317374
C302	C	0.874765	0.365977	0.015960
C303	C	1.208098	0.699310	0.349293
O304	O	0.516699	0.007870	-0.290379
O305	O	0.850032	0.341204	0.042954
O306	O	1.183365	0.674537	0.376287
N307	N	0.570524	0.061753	-0.291239
N308	N	0.903858	0.395086	0.042094
N309	N	1.237191	0.728419	0.375428
C310	C	0.599628	0.090865	-0.317327
C311	C	0.932961	0.424198	0.016006
C312	C	1.266294	0.757531	0.349340
O313	O	0.624376	0.115620	-0.290305
O314	O	0.957710	0.448953	0.043028
O315	O	1.291043	0.782287	0.376362
C316	C	0.599653	0.090875	-0.526204
C317	C	0.932986	0.424208	-0.192870
C318	C	1.266319	0.757542	0.140463
C319	C	0.570554	0.061768	-0.552336
C320	C	0.903887	0.395101	-0.219002
C321	C	1.237221	0.728434	0.114331
C322	C	0.512358	0.003551	-0.552383
C323	C	0.845691	0.336884	-0.219050
C324	C	1.179025	0.670218	0.114283
C325	C	0.512362	0.003557	-0.604600
C326	C	0.845696	0.336890	-0.271266
C327	C	1.179029	0.670223	0.062067
C328	C	0.541462	0.032668	-0.630684
C329	C	0.874795	0.366001	-0.297351
C330	C	1.208129	0.699334	0.035983
C331	C	0.570558	0.061773	-0.604552
C332	C	0.903891	0.395107	-0.271219
C333	C	1.237225	0.728440	0.062115
C334	C	0.628758	0.119984	-0.552291
C335	C	0.962092	0.453318	-0.218958
C336	C	1.295425	0.786651	0.114376
C337	C	0.628763	0.119984	-0.604513
C338	C	0.962096	0.453317	-0.271180
C339	C	1.295430	0.786650	0.062153
C340	C	0.599664	0.090876	-0.630645
C341	C	0.932997	0.424209	-0.297312
C342	C	1.266331	0.757543	0.036021
C343	C	0.599662	0.090890	-0.682853
C344	C	0.932995	0.424223	-0.349519
C345	C	1.266329	0.757557	-0.016186
N346	N	0.570569	0.061781	-0.708987
N347	N	0.903902	0.395114	-0.375654
N348	N	1.237236	0.728447	-0.042321
C349	C	0.541469	0.032670	-0.682903
C350	C	0.874802	0.366003	-0.349570
C351	C	1.208136	0.699336	-0.016236
C352	C	0.599612	0.090858	-0.207664
C353	C	0.932945	0.424191	0.125670
C354	C	1.266278	0.757525	0.459003
C355	C	0.599605	0.090856	-0.155445
C356	C	0.932938	0.424190	0.177889
C357	C	1.266271	0.757523	0.511222
C358	C	0.541409	0.032634	-0.155495
C359	C	0.874742	0.365967	0.177838
C360	C	1.208076	0.699300	0.511172
C361	C	0.541414	0.032639	-0.207715
C362	C	0.874747	0.365972	0.125618
C363	C	1.208080	0.699305	0.458952
C364	C	0.570519	0.061749	-0.233798
C365	C	0.903852	0.395082	0.099535
C366	C	1.237185	0.728415	0.432868
C367	C	0.541479	0.032684	-0.792561
C368	C	0.874813	0.366017	-0.459228
C369	C	1.208146	0.699351	-0.125894
C370	C	0.541484	0.032694	-0.844782
C371	C	0.874818	0.366027	-0.511448
C372	C	1.208151	0.699360	-0.178115
C373	C	0.599682	0.090914	-0.844727
C374	C	0.933015	0.424247	-0.511394
C375	C	1.266348	0.757580	-0.178060
C376	C	0.599675	0.090906	-0.792511
C377	C	0.933008	0.424240	-0.459177
C378	C	1.266342	0.757573	-0.125844
C379	C	0.570572	0.061787	-0.766429
C380	C	0.903906	0.395121	-0.433096
C381	C	1.237239	0.728454	-0.099762
O382	O	0.624386	0.115646	-0.709879
O383	O	0.957719	0.448979	-0.376546
O384	O	1.291052	0.782313	-0.043212
O385	O	0.516732	0.007910	-0.709934
O386	O	0.850065	0.341243	-0.376600
O387	O	1.183399	0.674577	-0.043267
C388	C	0.541450	0.032651	-0.474035
C389	C	0.874783	0.365984	-0.140702
C390	C	1.208117	0.699318	0.192632
C391	C	0.570546	0.061756	-0.447903
C392	C	0.903879	0.395090	-0.114570
C393	C	1.237213	0.728423	0.218764
C394	C	0.599646	0.090868	-0.473987
C395	C	0.932979	0.424201	-0.140654
C396	C	1.266313	0.757534	0.192679
C397	C	0.570539	0.061755	-0.395684
C398	C	0.903872	0.395088	-0.062351
C399	C	1.237206	0.728421	0.270982
C400	C	0.541439	0.032643	-0.369600
C401	C	0.874773	0.365977	-0.036266
C402	C	1.208106	0.699310	0.297067
C403	C	0.512346	0.003534	-0.395734
C404	C	0.845679	0.336868	-0.062401
C405	C	1.179013	0.670201	0.270932
C406	C	0.512350	0.003540	-0.447951
C407	C	0.845683	0.336873	-0.114617
C408	C	1.179017	0.670206	0.218716
C409	C	0.628739	0.119977	-0.447853
C410	C	0.962072	0.453310	-0.114520
C411	C	1.295406	0.786644	0.218814
C412	C	0.628732	0.119969	-0.395637
C413	C	0.962066	0.453303	-0.062303
C414	C	1.295399	0.786636	0.271030
C415	C	0.599632	0.090858	-0.369552
C416	C	0.932966	0.424191	-0.036219
C417	C	1.266299	0.757525	0.297115
N418	N	0.570584	0.061805	0.129134
N419	N	0.903918	0.395138	0.462467
N420	N	1.237251	0.728471	0.795801
H421	H	-0.282718	0.058139	-0.082183
H422	H	0.050615	0.391472	0.251150
H423	H	0.383949	0.724805	0.584484
F424	F	0.630649	0.121882	-0.764698
F425	F	0.963982	0.455215	-0.431365
F426	F	1.297315	0.788548	-0.098032
H427	H	0.652465	0.143688	-0.625748
H428	H	0.985798	0.477022	-0.292414
H429	H	1.319132	0.810355	0.040919
H430	H	0.517781	0.008973	-0.771331
H431	H	0.851114	0.342306	-0.437998
H432	H	1.184448	0.675639	-0.104665
F433	F	0.326040	0.064420	0.093270
F434	F	0.659373	0.397753	0.426603
F435	F	0.992707	0.731087	0.759936
F436	F	-0.184952	0.059180	0.093231
F437	F	0.148381	0.392514	0.426565
F438	F	0.481715	0.725847	0.759898
F439	F	-0.289008	0.058127	0.093218
F440	F	0.044325	0.391460	0.426551
F441	F	0.377658	0.724793	0.759885
F442	F	0.481393	-0.027426	-0.632405
F443	F	0.814726	0.305908	-0.299071
F444	F	1.148059	0.639241	0.034262
F445	F	0.046951	0.061565	0.138470
F446	F	0.380285	0.394898	0.471804
F447	F	0.713618	0.728232	0.805137
F448	F	0.094137	0.062048	0.138474
F449	F	0.427470	0.395381	0.471807
F450	F	0.760803	0.728714	0.805141
H451	H	0.445259	-0.542414	-0.000064
H452	H	0.778592	-0.209080	0.333269
H453	H	1.111925	0.124253	0.666603
H454	H	0.693365	-0.576721	-0.000122
H455	H	1.026699	-0.243388	0.333211
H456	H	1.360032	0.089945	0.666544
F457	F	0.510511	0.001713	-0.872590
F458	F	0.843844	0.335047	-0.539257
F459	F	1.177178	0.668380	-0.205924
H460	H	0.423807	0.065416	0.081964
H461	H	0.757140	0.398749	0.415297
H462	H	1.090474	0.732083	0.748631
H463	H	0.488661	-0.020157	-0.531151
H464	H	0.821995	0.313176	-0.197818
H465	H	1.155328	0.646509	0.135516
F466	F	0.430090	0.065438	-0.093438
F467	F	0.763423	0.398771	0.239895
F468	F	1.096756	0.732104	0.573229
F469	F	0.630648	0.121897	-0.872497
F470	F	0.963981	0.455230	-0.539164
F471	F	1.297314	0.788564	-0.205830
F472	F	0.436764	-0.291891	-0.000059
F473	F	0.770098	0.041443	0.333275
F474	F	1.103431	0.374776	0.666608
H475	H	0.191876	0.062972	-0.127366
H476	H	0.525209	0.396305	0.205967
H477	H	0.858543	0.729638	0.539301
H478	H	0.652427	0.143677	-0.374364
H479	H	0.985760	0.477010	-0.041031
H480	H	1.319093	0.810344	0.292302
F481	F	0.326038	0.064364	-0.093448
F482	F	0.659371	0.397698	0.239885
F483	F	0.992704	0.731031	0.573218
H484	H	0.694908	-0.425472	-0.000132
H485	H	1.028241	-0.092139	0.333201
H486	H	1.361575	0.241194	0.666535
F487	F	0.435231	-0.443141	-0.000064
F488	F	0.768564	-0.109807	0.333269
F489	F	1.101897	0.223526	0.666603
F490	F	0.482140	-0.170155	-0.000106
F491	F	0.815474	0.163178	0.333227
F492	F	1.148807	0.496512	0.666560
H493	H	0.517719	0.008937	-0.228988
H494	H	0.851052	0.342270	0.104345
H495	H	1.184385	0.675603	0.437679
H496	H	0.494160	-0.073909	-0.000111
H497	H	0.827493	0.259425	0.333223
H498	H	1.160826	0.592758	0.666556
F499	F	0.510439	0.001651	-0.127725
F500	F	0.843772	0.334985	0.205608
F501	F	1.177105	0.668318	0.538941
H502	H	0.486977	-0.780421	-0.000081
H503	H	0.820311	-0.447088	0.333253
H504	H	1.153644	-0.113754	0.666586
F505	F	0.705387	-0.480483	-0.000130
F506	F	1.038721	-0.147149	0.333204
F507	F	1.372054	0.186184	0.666537
F508	F	0.435702	-0.395945	-0.000057
F509	F	0.769036	-0.062612	0.333276
F510	F	1.102369	0.270721	0.666610
F511	F	0.658950	-0.706298	-0.000122
F512	F	0.992283	-0.372965	0.333211
F513	F	1.325617	-0.039632	0.666545
F514	F	0.664144	-0.195301	-0.000138
F515	F	0.997478	0.138032	0.333195
F516	F	1.330811	0.471365	0.666529
H517	H	0.040633	0.061414	-0.127384
H518	H	0.373967	0.394747	0.205949
H519	H	0.707300	0.728080	0.539283
H520	H	-0.050817	0.060479	-0.127387
H521	H	0.282516	0.393812	0.205946
H522	H	0.615849	0.727146	0.539279
H523	H	0.623294	0.114564	-0.134173
H524	H	0.956627	0.447898	0.199161
H525	H	1.289961	0.781231	0.532494
F526	F	0.481379	-0.027441	-0.475756
F527	F	0.814712	0.305893	-0.142422
F528	F	1.148046	0.639226	0.190911
H529	H	0.488650	-0.020167	-0.374487
H530	H	0.821983	0.313166	-0.041154
H531	H	1.155316	0.646500	0.292179
H532	H	0.623314	0.114564	-0.228896
H533	H	0.956647	0.447898	0.104437
H534	H	1.289980	0.781231	0.437771
F535	F	0.659712	0.150963	-0.475607
F536	F	0.993046	0.484296	-0.142274
F537	F	1.326379	0.817630	0.191060
F538	F	0.659721	0.150974	-0.524491
F539	F	0.993054	0.484307	-0.191157
F540	F	1.326388	0.817641	0.142176
F541	F	0.706924	-0.329247	-0.000136
F542	F	1.040258	0.004086	0.333198
F543	F	1.373591	0.337419	0.666531
F544	F	-0.057098	0.060502	0.138462
F545	F	0.276235	0.393836	0.471796
F546	F	0.609569	0.727169	0.805129
H547	H	0.191898	0.063044	0.127167
H548	H	0.525232	0.396377	0.460501
H549	H	0.858565	0.729710	0.793834
F550	F	-0.184949	0.059137	-0.093487
F551	F	0.148384	0.392470	0.239847
F552	F	0.481718	0.725803	0.573180
H553	H	0.100429	0.062032	-0.127372
H554	H	0.433763	0.395366	0.205962
H555	H	0.767096	0.728699	0.539295
H556	H	0.654110	-0.096024	-0.000151
H557	H	0.987444	0.237309	0.333182
H558	H	1.320777	0.570643	0.666515
F559	F	0.476946	-0.681145	-0.000069
F560	F	0.810280	-0.347812	0.333264
F561	F	1.143613	-0.014478	0.666597
F562	F	0.657886	-0.810369	-0.000112
F563	F	0.991220	-0.477036	0.333221
F564	F	1.324553	-0.143702	0.666555
