data_functionalizedCrystal
_audit_creation_method	'MofGen! by Chris Wilmer'
_symmetry_space_group_name_H-M	'P1'
_symmetry_Int_Tables_number	1
_symmetry_cell_setting	triclinic
loop_
_symmetry_equiv_pos_as_xyz
  x,y,z
_cell_length_a	19.188933
_cell_length_b	14.971493
_cell_length_c	14.048226
_cell_angle_alpha	90.002683
_cell_angle_beta	89.996571
_cell_angle_gamma	96.618624
loop_
_atom_site_label
_atom_site_type_symbol
_atom_site_fract_x
_atom_site_fract_y
_atom_site_fract_z
O1	O	0.926506	-0.111675	-0.079127
O2	O	1.426506	0.388325	0.420873
O3	O	0.723244	-0.126705	-0.079136
O4	O	1.223244	0.373295	0.420864
O5	O	0.830320	0.011038	-0.079127
O6	O	1.330320	0.511038	0.420873
O7	O	0.819430	-0.249418	-0.079136
O8	O	1.319430	0.250582	0.420864
O9	O	0.830310	0.011039	0.079194
O10	O	1.330310	0.511039	0.579194
O11	O	0.723234	-0.126704	0.079186
O12	O	1.223234	0.373296	0.579186
O13	O	0.926496	-0.111674	0.079194
O14	O	1.426496	0.388326	0.579194
Zn15	Zn	0.824863	-0.119189	0.104327
Zn16	Zn	1.324863	0.380811	0.604327
Zn17	Zn	0.824877	-0.119190	-0.104268
Zn18	Zn	1.324877	0.380810	0.395732
O19	O	0.819419	-0.249417	0.079186
O20	O	1.319419	0.250583	0.579186
C21	C	0.697226	-0.126218	0.000024
C22	C	1.197226	0.373782	0.500024
C23	C	0.619717	-0.124756	0.000021
C24	C	1.119717	0.375244	0.500021
C25	C	0.066433	-0.114322	-0.086270
C26	C	0.566433	0.385678	0.413730
C27	C	0.139262	-0.115690	-0.086273
C28	C	0.639262	0.384310	0.413727
C29	C	0.175676	-0.116378	0.000027
C30	C	0.675676	0.383622	0.500027
C31	C	0.139257	-0.115674	0.086338
C32	C	0.639257	0.384326	0.586338
C33	C	0.066430	-0.114297	0.086339
C34	C	0.566430	0.385703	0.586339
N35	N	0.284863	-0.169438	0.064263
N36	N	0.784863	0.330562	0.564263
N37	N	0.354045	-0.170748	0.064256
N38	N	0.854045	0.329252	0.564256
C39	C	0.395098	-0.120526	0.000029
C40	C	0.895098	0.379474	0.500029
N41	N	0.364354	-0.068955	-0.064206
N42	N	0.864354	0.431045	0.435794
N43	N	0.295165	-0.067649	-0.064201
N44	N	0.795165	0.432351	0.435799
C45	C	0.254644	-0.117871	0.000035
C46	C	0.754644	0.382129	0.500035
C47	C	0.510478	-0.122707	-0.086281
C48	C	1.010478	0.377293	0.413719
C49	C	0.583308	-0.124070	-0.086281
C50	C	1.083308	0.375930	0.413719
C51	C	0.583301	-0.124063	0.086333
C52	C	1.083301	0.375937	0.586333
C53	C	0.510472	-0.122691	0.086331
C54	C	1.010472	0.377309	0.586331
C55	C	0.474065	-0.122017	0.000021
C56	C	0.974065	0.377983	0.500021
C57	C	0.829827	0.044361	0.000033
C58	C	1.329827	0.544361	0.500033
C59	C	0.828365	0.143650	0.000030
C60	C	1.328365	0.643650	0.500030
C61	C	0.952514	-0.112161	0.000033
C62	C	1.452514	0.387839	0.500033
C63	C	1.030023	-0.113623	0.000030
C64	C	1.530023	0.386377	0.500030
C65	C	0.827685	0.190290	-0.086272
C66	C	1.327685	0.690290	0.413728
C67	C	0.826306	0.283582	-0.086272
C68	C	1.326306	0.783582	0.413728
C69	C	0.825613	0.330233	0.000031
C70	C	1.325613	0.830233	0.500031
C71	C	0.826291	0.283585	0.086339
C72	C	1.326291	0.783585	0.586339
C73	C	0.827664	0.190294	0.086338
C74	C	1.327664	0.690294	0.586338
C75	C	0.823430	0.478033	0.086335
C76	C	1.323430	0.978033	0.586335
C77	C	0.822057	0.571331	0.086337
C78	C	1.322057	1.071331	0.586337
C79	C	0.822072	0.571321	-0.086274
C80	C	1.322072	1.071321	0.413726
C81	C	0.823445	0.478030	-0.086275
C82	C	1.323445	0.978030	0.413725
C83	C	0.824124	0.431390	0.000033
C84	C	1.324124	0.931390	0.500033
N85	N	0.824859	-0.119187	0.246688
N86	N	1.324859	0.380813	0.746688
C87	C	0.819913	0.717260	0.000028
C88	C	1.319913	1.217260	0.500028
C89	C	0.821377	0.617971	0.000035
C90	C	1.321377	1.117971	0.500035
N91	N	0.824886	-0.119185	-0.246629
N92	N	1.324886	0.380815	0.253371
C93	C	0.867247	-0.173305	0.296502
C94	C	1.367247	0.326695	0.796502
C95	C	0.867256	-0.173301	0.396159
C96	C	1.367256	0.326699	0.896159
C97	C	0.824873	-0.119184	0.446001
C98	C	1.324873	0.380816	0.946001
C99	C	0.782483	-0.065060	0.396180
C100	C	1.282483	0.434940	0.896180
C101	C	0.782478	-0.065060	0.296524
C102	C	1.282478	0.434940	0.796524
C103	C	0.782494	-0.065066	0.603894
C104	C	1.282494	0.434934	1.103894
C105	C	0.782498	-0.065067	0.703557
C106	C	1.282498	0.434933	1.203557
C107	C	0.867273	-0.173307	0.703529
C108	C	1.367273	0.326693	1.203529
C109	C	0.867268	-0.173307	0.603873
C110	C	1.367268	0.326693	1.103873
C111	C	0.824877	-0.119184	0.554059
C112	C	1.324877	0.380816	1.054059
H113	H	0.480833	-0.122156	-0.156559
H114	H	0.980833	0.377844	0.343441
O115	O	0.178530	-0.116424	0.179418
O116	O	0.678530	0.383576	0.679418
H117	H	0.158371	-0.177105	0.220801
H118	H	0.658371	0.322895	0.720801
H119	H	0.036785	-0.113731	0.156617
H120	H	0.536785	0.386269	0.656617
O121	O	0.736812	-0.006661	0.550136
O122	O	1.236812	0.493339	1.050136
H123	H	0.699328	-0.049634	0.504705
H124	H	1.199328	0.450366	1.004705
O125	O	0.912960	-0.231683	0.242752
O126	O	1.412960	0.268317	0.742752
H127	H	0.905831	-0.222601	0.165085
H128	H	1.405831	0.277399	0.665085
O129	O	0.622585	-0.124823	-0.179365
O130	O	1.122585	0.375177	0.320635
H131	H	0.585030	-0.124132	-0.239376
H132	H	1.085030	0.375868	0.260624
O133	O	0.828405	0.139983	0.179419
O134	O	1.328405	0.639983	0.679419
H135	H	0.827700	0.188095	0.239432
H136	H	1.327700	0.688095	0.739432
O137	O	0.471183	-0.122103	0.179415
O138	O	0.971183	0.377897	0.679415
H139	H	0.414420	-0.121079	0.164918
H140	H	0.914420	0.378921	0.664918
H141	H	0.612948	-0.124619	0.156601
H142	H	1.112948	0.375381	0.656601
O143	O	0.825538	0.333885	-0.179353
O144	O	1.325538	0.833885	0.320647
H145	H	0.826247	0.285772	-0.239364
H146	H	1.326247	0.785772	0.260636
O147	O	0.824186	0.427714	-0.179359
O148	O	1.324186	0.927714	0.320641
H149	H	0.871471	0.453776	-0.220750
H150	H	1.371471	0.953776	0.279250
O151	O	0.027168	-0.113545	-0.179356
O152	O	0.527168	0.386455	0.320644
H153	H	0.064729	-0.114239	-0.239367
H154	H	0.564729	0.385761	0.260633
O155	O	0.178546	-0.116454	-0.179356
O156	O	0.678546	0.383546	0.320644
H157	H	0.140994	-0.115761	-0.239371
H158	H	0.640994	0.384239	0.260629
O159	O	0.828434	0.139978	-0.179358
O160	O	1.328434	0.639978	0.320642
H161	H	0.781512	0.089314	-0.183483
H162	H	1.281512	0.589314	0.316517
O163	O	0.912977	-0.231671	0.449886
O164	O	1.412977	0.268329	0.949886
H165	H	0.879548	-0.279842	0.495301
H166	H	1.379548	0.220158	0.995301
O167	O	0.821332	0.621617	-0.179368
O168	O	1.321332	1.121617	0.320632
H169	H	0.820250	0.694323	-0.164872
H170	H	1.320250	1.194323	0.335128
H171	H	0.821487	0.609310	0.156612
H172	H	1.321487	1.109310	0.656612
H173	H	0.823967	0.440059	0.156617
H174	H	1.323967	0.940059	0.656617
H175	H	0.825722	0.321575	0.156608
H176	H	1.325722	0.821575	0.656608
O177	O	0.912976	-0.231679	0.550109
O178	O	1.412976	0.268321	1.050109
H179	H	0.942458	-0.269310	0.601488
H180	H	1.442458	0.230690	1.101488
O181	O	0.913003	-0.231677	0.757248
O182	O	1.413003	0.268323	1.257248
H183	H	0.905896	-0.222578	0.834918
H184	H	1.405896	0.277422	1.334918
O185	O	0.736787	-0.006699	0.757322
O186	O	1.236787	0.493301	1.257322
H187	H	0.707316	0.030946	0.705943
H188	H	1.207316	0.530946	1.205943
H189	H	0.747976	-0.020992	0.436769
H190	H	1.247976	0.479008	0.936769
H191	H	0.747961	-0.020992	0.255967
H192	H	1.247961	0.479008	0.755967
