data_functionalizedCrystal
_audit_creation_method	'MofGen! by Chris Wilmer'
_symmetry_space_group_name_H-M	'P1'
_symmetry_Int_Tables_number	1
_symmetry_cell_setting	triclinic
loop_
_symmetry_equiv_pos_as_xyz
  x,y,z
_cell_length_a	10.540510
_cell_length_b	9.616153
_cell_length_c	16.109301
_cell_angle_alpha	89.996316
_cell_angle_beta	96.012604
_cell_angle_gamma	90.007129
loop_
_atom_site_label
_atom_site_type_symbol
_atom_site_fract_x
_atom_site_fract_y
_atom_site_fract_z
O1	O	1.684246	0.115659	-0.117045
O2	O	1.314670	0.115661	-0.128110
O3	O	1.509610	0.115646	-0.001608
O4	O	1.489305	0.115674	-0.243547
O5	O	1.509584	-0.115646	-0.001611
O6	O	1.314643	-0.115631	-0.128113
O7	O	1.684219	-0.115632	-0.117048
Zn8	Zn	1.499427	-0.152354	-0.122581
Zn9	Zn	1.499462	0.152382	-0.122577
O10	O	1.489278	-0.115617	-0.243550
C11	C	1.267365	0.000015	-0.127287
C12	C	1.126450	0.000015	-0.124820
N13	N	1.499412	-0.360329	-0.122583
C14	C	0.907742	0.000557	-0.212701
C15	C	1.054300	0.000027	-0.215332
C16	C	1.082335	-0.132066	-0.078488
C17	C	0.935603	-0.132168	-0.076498
C18	C	0.935854	0.130853	-0.074610
C19	C	1.082134	0.132591	-0.078903
C20	C	1.394820	-0.580691	-0.190026
C21	C	1.395044	-0.419523	-0.190279
C22	C	1.631856	-0.418776	-0.142309
C23	C	1.631285	-0.579994	-0.142786
C24	C	1.472885	-0.580250	-0.035192
C25	C	1.469831	-0.419023	-0.035759
C26	C	1.731524	0.000017	-0.117871
C27	C	1.872439	0.000026	-0.120338
C28	C	1.508775	-0.000001	0.029370
C29	C	1.506309	-0.000003	0.121681
N30	N	1.499487	0.360357	-0.122569
C31	C	1.490114	0.000032	-0.274529
C32	C	1.492580	0.000043	-0.366839
C33	C	1.616249	0.000019	0.343288
C34	C	1.613922	0.000030	0.430023
C35	C	1.382632	0.000026	0.411547
C36	C	1.384960	0.000024	0.324814
C37	C	1.501772	0.000014	0.290687
C38	C	1.497117	0.000027	0.464154
C39	C	1.494593	0.000039	0.558196
C40	C	1.504296	0.000004	0.196640
H41	H	1.083140	0.094712	-0.251579
H42	H	1.082173	-0.094805	-0.251801
N43	N	0.882143	0.256449	-0.110505
N44	N	0.951860	0.342880	-0.141804
H45	H	0.913926	0.431577	-0.167164
H46	H	1.549214	-0.618372	0.015016
H47	H	1.707140	0.000038	0.472848
N48	N	1.117473	0.255173	-0.121179
N49	N	1.190126	0.342551	-0.083557
H50	H	1.215094	0.429122	-0.113417
N51	N	1.731921	-0.628900	-0.083542
N52	N	1.802358	-0.543961	-0.041979
H53	H	1.873437	-0.578494	-0.000141
H54	H	1.711364	0.000013	0.315506
H55	H	1.132145	0.140559	-0.012822
N56	N	0.854496	0.119367	-0.256958
N57	N	0.872555	0.137520	-0.331650
H58	H	0.834946	0.221435	-0.362908
H59	H	1.655856	-0.378378	-0.205335
N60	N	1.263328	0.000039	0.446422
N61	N	1.261263	0.000040	0.523862
H62	H	1.177002	0.000048	0.548493
N63	N	1.731911	-0.370675	-0.082373
N64	N	1.844604	-0.406724	-0.088062
H65	H	1.915268	-0.372752	-0.045732
H66	H	0.914669	0.131738	-0.006653
N67	N	1.416357	-0.371078	-0.271592
N68	N	1.420228	-0.243476	-0.285910
H69	H	1.435286	-0.209259	-0.343340
N70	N	1.268006	0.000033	0.271089
N71	N	1.163720	0.000036	0.301567
H72	H	1.081124	0.000049	0.263624
H73	H	1.378415	-0.620989	-0.016416
N74	N	1.271574	-0.369666	-0.175533
N75	N	1.209412	-0.295092	-0.228811
H76	H	1.122220	-0.259782	-0.218444
H77	H	1.372404	-0.380825	-0.020807
H78	H	0.894924	-0.230893	-0.108163
N79	N	0.852521	-0.117593	-0.256677
N80	N	0.787280	-0.202185	-0.220291
H81	H	0.748278	-0.285632	-0.251346
H82	H	0.913572	-0.138176	-0.008801
N83	N	1.415811	-0.631498	-0.270889
N84	N	1.414313	-0.759379	-0.284864
H85	H	1.429142	-0.795266	-0.341973
H86	H	1.130675	-0.136986	-0.011855
H87	H	1.541108	-0.378735	0.016850
N88	N	1.120413	-0.255371	-0.118867
N89	N	1.038170	-0.340590	-0.148367
H90	H	1.065057	-0.427672	-0.176891
H91	H	1.296060	-0.619503	-0.178341
H92	H	1.654731	-0.617574	-0.206533
