data_functionalizedCrystal
_audit_creation_method	'MofGen! by Chris Wilmer'
_symmetry_space_group_name_H-M	'P1'
_symmetry_Int_Tables_number	1
_symmetry_cell_setting	triclinic
loop_
_symmetry_equiv_pos_as_xyz
  x,y,z
_cell_length_a	17.699097
_cell_length_b	12.837938
_cell_length_c	16.176319
_cell_angle_alpha	89.990327
_cell_angle_beta	89.992685
_cell_angle_gamma	90.941465
loop_
_atom_site_label
_atom_site_type_symbol
_atom_site_fract_x
_atom_site_fract_y
_atom_site_fract_z
O1	O	1.013702	-0.131114	-0.068811
O2	O	0.794577	-0.148152	-0.068797
O3	O	0.899281	0.011258	-0.068804
O4	O	0.908998	-0.290524	-0.068804
O5	O	0.899272	0.011229	0.068689
O6	O	0.794568	-0.148181	0.068696
O7	O	1.013693	-0.131143	0.068682
Cu8	Cu	0.904129	-0.139664	0.081244
Cu9	Cu	0.904140	-0.139630	-0.081358
O10	O	0.908989	-0.290553	0.068690
C11	C	0.766330	-0.147553	-0.000048
C12	C	0.682178	-0.145715	-0.000043
C13	C	0.895993	0.049856	-0.000059
C14	C	0.886203	0.164909	-0.000064
C15	C	0.165636	-0.134430	-0.075024
C16	C	0.244707	-0.136150	-0.075020
C17	C	0.284231	-0.137028	-0.000069
C18	C	0.244681	-0.136174	0.074883
C19	C	0.165612	-0.134447	0.074878
C20	C	0.563557	-0.143141	0.074904
C21	C	0.642631	-0.144872	0.074904
C22	C	0.642652	-0.144845	-0.074993
C23	C	0.563583	-0.143117	-0.074998
C24	C	0.524040	-0.142258	-0.000047
C25	C	0.438303	-0.140391	-0.000052
C26	C	0.369967	-0.138903	-0.000063
C27	C	1.003907	0.406157	-0.000097
C28	C	0.994712	0.514260	-0.000102
C29	C	0.858617	0.489221	-0.000084
C30	C	0.867812	0.381118	-0.000079
C31	C	0.940460	0.339590	-0.000085
C32	C	0.949655	0.231484	-0.000074
C33	C	0.813560	0.206448	-0.000062
C34	C	0.804365	0.314551	-0.000067
C35	C	1.041939	-0.131741	-0.000068
C36	C	1.126092	-0.133580	-0.000078
N37	N	0.904127	-0.139688	0.195609
C38	C	0.912277	0.670849	-0.000066
C39	C	0.922069	0.555796	-0.000094
N40	N	0.904148	-0.139599	-0.195723
C41	C	0.853718	-0.076822	0.761002
C42	C	0.853718	-0.076830	0.674455
C43	C	0.904143	-0.139621	0.631184
C44	C	0.954577	-0.202401	0.674465
C45	C	0.954581	-0.202386	0.761011
C46	C	0.954563	-0.202459	0.325437
C47	C	0.954553	-0.202471	0.238885
C48	C	0.853699	-0.076903	0.238881
C49	C	0.853703	-0.076888	0.325426
C50	C	0.904140	-0.139663	0.368700
C51	C	0.904141	-0.139652	0.462544
C52	C	0.904138	-0.139638	0.537342
H53	H	0.133461	-0.133723	-0.136058
F54	F	1.008238	-0.269276	0.371481
F55	F	0.286790	-0.137051	-0.154788
H56	H	1.046377	0.568456	-0.000115
H57	H	1.008808	0.197675	-0.000075
F58	F	0.746031	0.135595	-0.000040
H59	H	0.995646	-0.253505	0.796244
H60	H	0.799470	0.523053	-0.000089
H61	H	1.063060	0.372344	-0.000093
H62	H	0.995618	-0.253606	0.203657
H63	H	0.531406	-0.142408	-0.136031
F64	F	0.684743	-0.145752	-0.154764
F65	F	0.684695	-0.145805	0.154681
F66	F	0.123527	-0.133534	0.154645
H67	H	0.995638	-0.253521	0.639228
H68	H	0.812653	-0.025695	0.796226
F69	F	0.521482	-0.142249	0.154674
H70	H	0.812655	-0.025708	0.639224
H71	H	0.276868	-0.136882	0.135909
F72	F	0.800031	-0.010062	0.371474
H73	H	0.745217	0.348379	-0.000066
H74	H	0.812633	-0.025785	0.203637
