data_functionalizedCrystal
_audit_creation_method	'MofGen! by Chris Wilmer'
_symmetry_space_group_name_H-M	'P1'
_symmetry_Int_Tables_number	1
_symmetry_cell_setting	triclinic
loop_
_symmetry_equiv_pos_as_xyz
  x,y,z
_cell_length_a	13.897448
_cell_length_b	11.169417
_cell_length_c	11.169409
_cell_angle_alpha	90.020253
_cell_angle_beta	89.964482
_cell_angle_gamma	89.981058
loop_
_atom_site_label
_atom_site_type_symbol
_atom_site_fract_x
_atom_site_fract_y
_atom_site_fract_z
Zn1	Zn	-0.383905	-1.834910	-0.678506
Zn2	Zn	0.116095	-1.334910	-0.178506
Zn3	Zn	-0.545241	-1.834771	-0.477811
Zn4	Zn	-0.045241	-1.334771	0.022189
Zn5	Zn	-0.383965	-1.634193	-0.477841
Zn6	Zn	0.116035	-1.134193	0.022159
Zn7	Zn	-0.545163	-1.634177	-0.678457
Zn8	Zn	-0.045163	-1.134177	-0.178457
O9	O	-0.464569	-1.734513	-0.578154
O10	O	0.035431	-1.234513	-0.078154
O11	O	-0.405314	-2.002841	-0.651891
O12	O	0.094686	-1.502841	-0.151891
O13	O	-0.523904	-1.808112	-0.309865
O14	O	-0.023904	-1.308112	0.190135
O15	O	-0.248975	-1.660883	-0.504493
O16	O	0.251025	-1.160883	-0.004493
O17	O	-0.523847	-2.002739	-0.504442
O18	O	-0.023847	-1.502739	-0.004442
O19	O	-0.248931	-1.808349	-0.651920
O20	O	0.251069	-1.308349	-0.151920
O21	O	-0.405416	-1.660748	-0.309887
O22	O	0.094584	-1.160748	0.190113
O23	O	-0.405341	-1.466241	-0.504446
O24	O	0.094659	-0.966241	-0.004446
O25	O	-0.523715	-1.660857	-0.846414
O26	O	-0.023715	-1.160857	-0.346414
O27	O	-0.523773	-1.466230	-0.651837
O28	O	-0.023773	-0.966230	-0.151837
O29	O	-0.405239	-1.808334	-0.846449
O30	O	0.094761	-1.308334	-0.346449
O31	O	-0.680212	-1.808097	-0.504395
O32	O	-0.180212	-1.308097	-0.004395
O33	O	-0.680155	-1.660722	-0.651808
O34	O	-0.180155	-1.160722	-0.151808
C35	C	-0.715183	-1.734425	-0.578119
C36	C	-0.215183	-1.234425	-0.078119
C37	C	-0.822397	-1.734497	-0.578144
C38	C	-0.322397	-1.234497	-0.078144
C39	C	-0.464556	-1.422688	-0.578140
C40	C	0.035444	-0.922688	-0.078140
C41	C	-0.464573	-1.289288	-0.578163
C42	C	0.035427	-0.789288	-0.078163
C43	C	-0.464462	-1.734609	-0.891196
C44	C	0.035538	-1.234609	-0.391196
C45	C	-0.464416	-1.734650	-1.024597
C46	C	0.035584	-1.234650	-0.524597
C47	C	-1.018692	-1.734623	-0.578220
C48	C	-0.518692	-1.234623	-0.078220
C49	C	-0.909459	-1.734550	-0.578181
C50	C	-0.409459	-1.234550	-0.078181
C51	C	-0.212976	-1.734633	-0.578215
C52	C	0.287024	-1.234633	-0.078215
C53	C	-0.105762	-1.734685	-0.578241
C54	C	0.394238	-1.234685	-0.078241
C55	C	-0.464582	-2.047555	-0.578168
C56	C	0.035418	-1.547555	-0.078168
C57	C	-0.464588	-2.180955	-0.578175
C58	C	0.035412	-1.680955	-0.078175
C59	C	-0.464605	-1.734486	-0.266329
C60	C	0.035395	-1.234486	0.233671
C61	C	-0.464379	-1.734678	-0.132930
C62	C	0.035621	-1.234678	0.367070
