data_functionalizedCrystal
_audit_creation_method	'MofGen! by Chris Wilmer'
_symmetry_space_group_name_H-M	'P1'
_symmetry_Int_Tables_number	1
_symmetry_cell_setting	triclinic
loop_
_symmetry_equiv_pos_as_xyz
  x,y,z
_cell_length_a	9.065218
_cell_length_b	14.519731
_cell_length_c	12.996460
_cell_angle_alpha	89.988498
_cell_angle_beta	90.005633
_cell_angle_gamma	95.647631
loop_
_atom_site_label
_atom_site_type_symbol
_atom_site_fract_x
_atom_site_fract_y
_atom_site_fract_z
O1	O	1.957886	-0.135227	0.085584
O2	O	2.207886	0.114773	0.335584
O3	O	2.457886	0.364773	0.585584
O4	O	2.707886	0.614773	0.835584
O5	O	1.528395	-0.146319	0.085586
O6	O	1.778395	0.103681	0.335586
O7	O	2.028395	0.353681	0.585586
O8	O	2.278395	0.603681	0.835586
O9	O	1.754511	-0.006619	0.085564
O10	O	2.004511	0.243381	0.335564
O11	O	2.254511	0.493381	0.585564
O12	O	2.504511	0.743381	0.835564
O13	O	1.731769	-0.274927	0.085606
O14	O	1.981769	-0.024927	0.335606
O15	O	2.231769	0.225073	0.585606
O16	O	2.481769	0.475073	0.835606
O17	O	1.754488	-0.006611	-0.085570
O18	O	2.004488	0.243389	0.164430
O19	O	2.254488	0.493389	0.414430
O20	O	2.504488	0.743389	0.664430
O21	O	1.528371	-0.146311	-0.085547
O22	O	1.778371	0.103689	0.164453
O23	O	2.028371	0.353689	0.414453
O24	O	2.278371	0.603689	0.664453
O25	O	1.957862	-0.135219	-0.085550
O26	O	2.207862	0.114781	0.164450
O27	O	2.457862	0.364781	0.414450
O28	O	2.707862	0.614781	0.664450
Cu29	Cu	1.743114	-0.140764	-0.101175
Cu30	Cu	1.993114	0.109236	0.148825
Cu31	Cu	2.243114	0.359236	0.398825
Cu32	Cu	2.493114	0.609236	0.648825
Cu33	Cu	1.743142	-0.140774	0.101211
Cu34	Cu	1.993142	0.109226	0.351211
Cu35	Cu	2.243142	0.359226	0.601211
Cu36	Cu	2.493142	0.609226	0.851211
O37	O	1.731746	-0.274919	-0.085528
O38	O	1.981746	-0.024919	0.164472
O39	O	2.231746	0.225081	0.414472
O40	O	2.481746	0.475081	0.664472
C41	C	1.473416	-0.145249	0.000020
C42	C	1.723416	0.104751	0.250020
C43	C	1.973416	0.354751	0.500020
C44	C	2.223416	0.604751	0.750020
C45	C	1.309632	-0.142062	0.000020
C46	C	1.559632	0.107938	0.250020
C47	C	1.809632	0.357938	0.500020
C48	C	2.059632	0.607938	0.750020
C49	C	1.753434	0.027752	-0.000006
C50	C	2.003434	0.277752	0.249994
C51	C	2.253434	0.527752	0.499994
C52	C	2.503434	0.777752	0.749994
C53	C	1.750241	0.130156	-0.000015
C54	C	2.000241	0.380156	0.249985
C55	C	2.250241	0.630156	0.499985
C56	C	2.500241	0.880156	0.749985
C57	C	2.012841	-0.136289	0.000019
C58	C	2.262841	0.113711	0.250019
C59	C	2.512841	0.363711	0.500019
C60	C	2.762841	0.613711	0.750019
C61	C	2.176624	-0.139476	0.000026
C62	C	2.426624	0.110524	0.250026
C63	C	2.676624	0.360524	0.500026
C64	C	2.926624	0.610524	0.750026
N65	N	1.743106	-0.140757	-0.243522
N66	N	1.993106	0.109243	0.006478
N67	N	2.243106	0.359243	0.256478
N68	N	2.493106	0.609243	0.506478
C69	C	1.747646	0.213319	-0.000020
C70	C	1.997646	0.463319	0.249980
C71	C	2.247646	0.713319	0.499980
C72	C	2.497646	0.963319	0.749980
C73	C	1.744404	0.317651	-0.000021
C74	C	1.994404	0.567651	0.249979
C75	C	2.244404	0.817651	0.499979
C76	C	2.494404	1.067651	0.749979
C77	C	1.741831	0.400809	-0.000021
C78	C	1.991831	0.650809	0.249979
C79	C	2.241831	0.900809	0.499979
C80	C	2.491831	1.150809	0.749979
C81	C	1.738589	0.505148	-0.000024
C82	C	1.988589	0.755148	0.249976
C83	C	2.238589	1.005148	0.499976
C84	C	2.488589	1.255148	0.749976
C85	C	1.732823	0.690710	0.000023
C86	C	1.982823	0.940710	0.250023
C87	C	2.232823	1.190710	0.500023
C88	C	2.482823	1.440710	0.750023
C89	C	1.736016	0.588306	-0.000025
C90	C	1.986016	0.838306	0.249975
C91	C	2.236016	1.088306	0.499975
C92	C	2.486016	1.338306	0.749975
C93	C	1.743140	-0.140775	-0.663336
C94	C	1.993140	0.109225	-0.413336
C95	C	2.243140	0.359225	-0.163336
C96	C	2.493140	0.609225	0.086664
C97	C	1.743126	-0.140773	-0.546531
C98	C	1.993126	0.109227	-0.296531
C99	C	2.243126	0.359227	-0.046531
C100	C	2.493126	0.609227	0.203469
C101	C	1.743124	-0.140767	-0.453433
C102	C	1.993124	0.109233	-0.203433
C103	C	2.243124	0.359233	0.046567
C104	C	2.493124	0.609233	0.296567
C105	C	1.743108	-0.140763	-0.336620
C106	C	1.993108	0.109237	-0.086620
C107	C	2.243108	0.359237	0.163380
C108	C	2.493108	0.609237	0.413380
N109	N	1.743163	-0.140774	0.243558
N110	N	1.993163	0.109226	0.493558
N111	N	2.243163	0.359226	0.743558
N112	N	2.493163	0.609226	0.993558
