data_functionalizedCrystal
_audit_creation_method	'MofGen! by Chris Wilmer'
_symmetry_space_group_name_H-M	'P1'
_symmetry_Int_Tables_number	1
_symmetry_cell_setting	triclinic
loop_
_symmetry_equiv_pos_as_xyz
  x,y,z
_cell_length_a	16.959455
_cell_length_b	10.686285
_cell_length_c	10.686551
_cell_angle_alpha	99.084519
_cell_angle_beta	85.603811
_cell_angle_gamma	94.371379
loop_
_atom_site_label
_atom_site_type_symbol
_atom_site_fract_x
_atom_site_fract_y
_atom_site_fract_z
Zn1	Zn	1.262787	0.450274	-0.679005
Zn2	Zn	1.262724	0.678854	-0.450503
Zn3	Zn	1.121183	0.466616	-0.466767
Zn4	Zn	1.140023	0.662461	-0.662706
O5	O	1.196679	0.564551	-0.564745
O6	O	1.373392	0.480618	-0.648708
O7	O	1.236036	0.664400	-0.275030
O8	O	1.132109	0.286825	-0.508549
O9	O	1.373345	0.648554	-0.480828
O10	O	1.236145	0.274819	-0.664479
O11	O	1.132047	0.508469	-0.286979
O12	O	1.013069	0.492573	-0.492745
O13	O	1.164220	0.620614	-0.842499
O14	O	1.026912	0.636460	-0.636700
O15	O	1.254414	0.464722	-0.854473
O16	O	1.254305	0.854303	-0.465024
O17	O	1.164158	0.842259	-0.620929
C18	C	0.991310	0.564511	-0.564719
C19	C	0.903455	0.564523	-0.564736
C20	C	1.211292	0.894334	-0.539471
C21	C	1.217617	1.035414	-0.528701
C22	C	1.211426	0.539016	-0.895831
C23	C	1.217710	0.528135	-1.036921
C24	C	0.524753	0.489550	-0.489962
C25	C	0.539216	0.639651	-0.639593
C26	C	0.621761	0.639634	-0.639587
C27	C	0.655806	0.564574	-0.564766
C28	C	0.607305	0.489533	-0.489951
C29	C	0.670267	0.714684	-0.714391
C30	C	0.752817	0.714670	-0.714386
C31	C	0.786863	0.639603	-0.639571
C32	C	0.738358	0.564557	-0.564754
C33	C	0.772402	0.489498	-0.489933
C34	C	0.723898	0.414445	-0.415122
C35	C	0.641351	0.414466	-0.415135
C36	C	0.869410	0.639582	-0.639557
C37	C	0.854954	0.489481	-0.489921
C38	C	1.402851	0.564592	-0.564772
C39	C	1.490709	0.564609	-0.564783
C40	C	1.182032	0.233478	-0.590146
C41	C	1.175791	0.092394	-0.600971
C42	C	1.182031	0.589895	-0.234954
C43	C	1.175884	0.600419	-0.093893
H44	H	0.882667	0.428350	-0.429000
H45	H	1.135271	0.670633	-1.034732
O46	O	1.271463	1.113746	-0.435806
H47	H	1.333331	1.086591	-0.459591
H48	H	0.751628	0.353338	-0.354196
O49	O	1.271502	0.435109	-1.115295
H50	H	1.316888	0.487310	-1.171358
O51	O	0.589040	0.333569	-0.334402
H52	H	0.525921	0.346220	-0.346955
H53	H	0.485258	0.428439	-0.429057
H54	H	0.511492	0.700769	-0.700501
H55	H	0.642541	0.775802	-0.775296
O56	O	1.121950	1.014062	-0.693860
H57	H	1.125273	0.911828	-0.688042
H58	H	0.792303	0.775782	-0.775303
H59	H	0.908898	0.700693	-0.700463
