data_functionalizedCrystal
_audit_creation_method	'MofGen! by Chris Wilmer'
_symmetry_space_group_name_H-M	'P1'
_symmetry_Int_Tables_number	1
_symmetry_cell_setting	triclinic
loop_
_symmetry_equiv_pos_as_xyz
  x,y,z
_cell_length_a	16.992694
_cell_length_b	8.559649
_cell_length_c	15.455313
_cell_angle_alpha	92.289439
_cell_angle_beta	87.142206
_cell_angle_gamma	80.223444
loop_
_atom_site_label
_atom_site_type_symbol
_atom_site_fract_x
_atom_site_fract_y
_atom_site_fract_z
O1	O	1.023967	0.329735	-0.072017
O2	O	0.795905	0.326044	-0.072043
O3	O	0.930028	0.097853	-0.072027
O4	O	0.889844	0.557925	-0.072033
O5	O	0.922362	0.110845	0.072234
O6	O	0.788239	0.339035	0.072218
O7	O	1.016301	0.342726	0.072244
Cu8	Cu	0.901570	0.342067	0.085403
Cu9	Cu	0.910636	0.326703	-0.085202
O10	O	0.882177	0.570917	0.072228
C11	C	0.763145	0.327794	0.000084
C12	C	0.676954	0.313635	0.000075
C13	C	0.929241	0.045208	0.000102
C14	C	0.938306	-0.131015	0.000099
C15	C	0.618488	0.450242	0.000073
C16	C	0.537502	0.436931	0.000086
C17	C	0.514985	0.287010	0.000093
C18	C	0.573459	0.150392	0.000096
C19	C	0.654442	0.163706	0.000090
C20	C	0.274709	0.231831	0.000117
C21	C	0.193718	0.218527	0.000120
C22	C	0.157767	0.505067	0.000111
C23	C	0.238755	0.518367	0.000099
C24	C	0.297221	0.381750	0.000108
N25	N	0.432205	0.273400	0.000102
N26	N	0.379998	0.395362	0.000104
C27	C	1.049061	0.340976	0.000115
C28	C	1.135252	0.355134	0.000119
C29	C	0.882965	0.623562	0.000097
C30	C	0.873900	0.799784	0.000095
N31	N	0.895199	0.352873	0.205398
N32	N	0.917014	0.315885	-0.205197
C33	C	0.952194	0.255970	0.250799
C34	C	0.947382	0.264158	0.341606
C35	C	0.885578	0.369258	0.387011
C36	C	0.828576	0.466164	0.341604
C37	C	0.833386	0.457968	0.250798
C38	C	0.864822	0.404595	0.658590
C39	C	0.860018	0.412788	0.749402
C40	C	0.978824	0.210778	0.749398
C41	C	0.983631	0.202598	0.658591
C42	C	0.926627	0.299499	0.613191
N43	N	0.880659	0.377633	0.479831
N44	N	0.931543	0.291114	0.520373
H45	H	0.636813	0.572324	0.000067
H46	H	0.818408	0.483499	0.621633
C47	C	1.020182	0.140356	0.200858
C48	C	1.082872	0.033758	0.250804
C49	C	1.150860	-0.081863	0.200866
C50	C	1.156157	-0.090887	0.100984
C51	C	1.093465	0.015714	0.051033
C52	C	1.025477	0.131336	0.100970
H53	H	1.078953	0.040435	0.324748
H54	H	1.197269	-0.160776	0.237844
H55	H	1.206486	-0.176477	0.064017
H56	H	1.097384	0.009038	-0.022911
H57	H	0.979068	0.210249	0.063993
C58	C	1.051613	0.086982	0.608643
C59	C	1.114311	-0.019623	0.658574
C60	C	1.182295	-0.135233	0.608623
C61	C	1.187579	-0.144237	0.508740
C62	C	1.124878	-0.037628	0.458803
C63	C	1.056895	0.077982	0.508754
H64	H	1.110401	-0.012961	0.732518
H65	H	1.228710	-0.214152	0.645590
H66	H	1.237905	-0.229818	0.471763
H67	H	1.128789	-0.044290	0.384859
H68	H	1.010480	0.156901	0.471787
C69	C	0.339012	0.081549	0.000113
C70	C	0.338730	-0.031738	0.075022
C71	C	0.403037	-0.182030	0.075016
C72	C	0.467625	-0.219036	0.000101
C73	C	0.467909	-0.105747	-0.074813
C74	C	0.403602	0.044546	-0.074807
H75	H	0.290916	-0.004346	0.130483
H76	H	0.402826	-0.265894	0.130472
H77	H	0.515228	-0.330291	0.000096
H78	H	0.515723	-0.133138	-0.130274
H79	H	0.403813	0.128410	-0.130264
H80	H	0.489900	0.548172	0.000084
C81	C	1.041521	0.104179	0.799338
C82	C	1.015120	-0.015378	0.861775
C83	C	1.077818	-0.121989	0.911713
C84	C	1.166916	-0.109041	0.899214
C85	C	1.193321	0.010521	0.836774
C86	C	1.130623	0.117132	0.786836
H87	H	0.949160	-0.024967	0.871030
H88	H	1.058271	-0.210497	0.957935
H89	H	1.213329	-0.187961	0.936181
H90	H	1.259281	0.020110	0.827519
H91	H	1.150170	0.205640	0.740614
H92	H	0.555118	0.028324	0.000115
C93	C	0.792025	0.528402	0.799346
C94	C	0.729324	0.634984	0.749405
C95	C	0.661335	0.750596	0.799347
C96	C	0.656047	0.759625	0.899229
C97	C	0.718750	0.653040	0.949176
C98	C	0.786739	0.537428	0.899234
H99	H	0.733237	0.628303	0.675461
H100	H	0.614919	0.829497	0.762373
H101	H	0.605718	0.845208	0.936199
H102	H	0.714837	0.659721	1.023120
H103	H	0.833156	0.458527	0.936208
C104	C	0.760589	0.581778	0.391544
C105	C	0.755326	0.590888	0.491427
C106	C	0.687339	0.706509	0.541364
C107	C	0.624614	0.813021	0.491419
C108	C	0.629874	0.803915	0.391531
C109	C	0.697862	0.688294	0.341593
H110	H	0.801761	0.512038	0.528404
H111	H	0.683445	0.713249	0.615308
H112	H	0.574285	0.898611	0.528386
H113	H	0.583439	0.882765	0.354553
H114	H	0.701755	0.681554	0.267649
H115	H	0.786973	0.536874	0.213833
H116	H	1.000384	-0.206593	0.000112
H117	H	0.257081	0.640447	0.000084
H118	H	0.993792	0.185251	0.378571
H119	H	0.811825	-0.124646	0.000091
H120	H	0.175390	0.096437	0.000125
H121	H	0.702046	0.052465	0.000091
H122	H	0.110156	0.616293	0.000106
