data_functionalizedCrystal
_audit_creation_method	'MofGen! by Chris Wilmer'
_symmetry_space_group_name_H-M	'P1'
_symmetry_Int_Tables_number	1
_symmetry_cell_setting	triclinic
loop_
_symmetry_equiv_pos_as_xyz
  x,y,z
_cell_length_a	19.805407
_cell_length_b	18.215404
_cell_length_c	18.215399
_cell_angle_alpha	89.972485
_cell_angle_beta	90.020634
_cell_angle_gamma	89.976177
loop_
_atom_site_label
_atom_site_type_symbol
_atom_site_fract_x
_atom_site_fract_y
_atom_site_fract_z
Zn1	Zn	1.034755	0.292992	0.416134
Zn2	Zn	1.534755	0.792992	0.916134
Zn3	Zn	1.034673	0.416063	0.293068
Zn4	Zn	1.534673	0.916063	0.793068
Zn5	Zn	0.921567	0.293015	0.293079
Zn6	Zn	1.421567	0.793015	0.793079
Zn7	Zn	0.921538	0.416021	0.416092
Zn8	Zn	1.421538	0.916021	0.916092
O9	O	0.978133	0.354523	0.354593
O10	O	1.478133	0.854523	0.854593
O11	O	1.129461	0.309325	0.399822
O12	O	1.629461	0.809325	0.899822
O13	O	1.019647	0.399768	0.190086
O14	O	1.519647	0.899768	0.690086
O15	O	0.936629	0.190028	0.309425
O16	O	1.436629	0.690028	0.809425
O17	O	1.129400	0.399745	0.309406
O18	O	1.629400	0.899745	0.809406
O19	O	1.019787	0.190011	0.399833
O20	O	1.519787	0.690011	0.899833
O21	O	0.936549	0.309365	0.190094
O22	O	1.436549	0.809365	0.690094
O23	O	0.826847	0.309324	0.309384
O24	O	1.326847	0.809324	0.809384
O25	O	0.936579	0.399674	0.519082
O26	O	1.436579	0.899674	1.019082
O27	O	0.826826	0.399696	0.399761
O28	O	1.326826	0.899696	0.899761
O29	O	1.019759	0.309285	0.519113
O30	O	1.519759	0.809285	1.019113
O31	O	1.019619	0.519042	0.309365
O32	O	1.519619	1.019042	0.809365
O33	O	0.936499	0.519011	0.399750
O34	O	1.436499	1.019011	0.899750
C35	C	0.802277	0.354509	0.354570
C36	C	1.302277	0.854509	0.854570
C37	C	0.727045	0.354520	0.354577
C38	C	1.227045	0.854520	0.854577
C39	C	0.978065	0.545729	0.354568
C40	C	1.478065	1.045729	0.854568
C41	C	0.978098	0.627528	0.354582
C42	C	1.478098	1.127528	0.854582
C43	C	1.021483	0.815713	0.307615
C44	C	1.521483	1.315713	0.807615
C45	C	1.021515	0.892572	0.307637
C46	C	1.521515	1.392572	0.807637
C47	C	0.934887	0.892580	0.401677
C48	C	1.434887	1.392580	0.901677
C49	C	0.934860	0.815723	0.401659
C50	C	1.434860	1.315723	0.901659
C51	C	0.978157	0.777291	0.354623
C52	C	1.478157	1.277291	0.854623
C53	C	0.978216	0.931007	0.354664
C54	C	1.478216	1.431007	0.854664
C55	C	0.978250	1.014341	0.354688
C56	C	1.478250	1.514341	0.854688
C57	C	0.978124	0.693952	0.354600
C58	C	1.478124	1.193952	0.854600
C59	C	0.691708	0.401648	0.401560
C60	C	1.191708	0.901648	0.901560
C61	C	0.621019	0.401649	0.401570
C62	C	1.121019	0.901649	0.901570
C63	C	0.585670	0.354526	0.354593
C64	C	1.085670	0.854526	0.854593
C65	C	0.621012	0.307393	0.307608
C66	C	1.121012	0.807393	0.807608
C67	C	0.691700	0.307389	0.307602
C68	C	1.191700	0.807389	0.807602
C69	C	0.335939	0.307410	0.307633
C70	C	0.835939	0.807410	0.807633
C71	C	0.265247	0.307419	0.307641
C72	C	0.765247	0.807419	0.807641
C73	C	0.265259	0.401670	0.401601
C74	C	0.765259	0.901670	0.901601
C75	C	0.335946	0.401666	0.401594
C76	C	0.835946	0.901666	0.901594
C77	C	0.371282	0.354530	0.354613
C78	C	0.871282	0.854530	0.854613
C79	C	0.447931	0.354529	0.354603
C80	C	0.947931	0.854529	0.854603
C81	C	0.509023	0.354531	0.354599
C82	C	1.009023	0.854531	0.854599
C83	C	1.154676	0.354537	0.354618
C84	C	1.654676	0.854537	0.854618
C85	C	1.229908	0.354544	0.354628
C86	C	1.729908	0.854544	0.854628
C87	C	0.978175	0.354472	0.546546
C88	C	1.478175	0.854472	1.046546
C89	C	0.978192	0.354450	0.628345
C90	C	1.478192	0.854450	1.128345
C91	C	0.978225	1.162570	0.354648
C92	C	1.478225	1.662570	0.854648
C93	C	0.978274	1.080771	0.354706
C94	C	1.478274	1.580771	0.854706
C95	C	0.978131	0.354520	0.163387
C96	C	1.478131	0.854520	0.663387
C97	C	0.978245	0.354334	0.081589
C98	C	1.478245	0.854334	0.581589
C99	C	1.021519	0.307341	0.816557
C100	C	1.521519	0.807341	1.316557
C101	C	1.021528	0.307319	0.893415
C102	C	1.521528	0.807319	1.393415
C103	C	0.934913	0.401446	0.893372
C104	C	1.434913	0.901446	1.393372
C105	C	0.934902	0.401463	0.816515
C106	C	1.434902	0.901463	1.316515
C107	C	0.978209	0.354412	0.778109
C108	C	1.478209	0.854412	1.278109
C109	C	0.978228	0.354373	0.931825
C110	C	1.478228	0.854373	1.431825
C111	C	0.978236	0.354350	1.015159
C112	C	1.478236	0.854350	1.515159
C113	C	0.978200	0.354433	0.694770
C114	C	1.478200	0.854433	1.194770
H115	H	1.056796	0.923852	0.269359
H116	H	1.556796	1.423852	0.769359
H117	H	0.364701	0.269035	0.269372
H118	H	0.864701	0.769035	0.769372
H119	H	0.899578	0.784437	0.439942
H120	H	1.399578	1.284437	0.939942
H121	H	0.899636	0.923880	0.439971
H122	H	1.399636	1.423880	0.939971
O123	O	0.582891	0.256584	0.256920
O124	O	1.082891	0.756584	0.756920
H125	H	0.527800	0.264516	0.264804
H126	H	1.027800	0.764516	0.764804
H127	H	0.364724	0.440041	0.439845
H128	H	0.864724	0.940041	0.939845
H129	H	0.236479	0.440047	0.439858
H130	H	0.736479	0.940047	0.939858
H131	H	1.056794	0.268988	0.924716
H132	H	1.556794	0.768988	1.424716
O133	O	0.227115	0.256585	0.256978
O134	O	0.727115	0.756585	0.756978
H135	H	0.263562	0.223802	0.224313
H136	H	0.763562	0.723802	0.724313
H137	H	0.720484	0.440024	0.439811
H138	H	1.220484	0.940024	0.939811
H139	H	0.720471	0.269009	0.269348
H140	H	1.220471	0.769009	0.769348
H141	H	0.592250	0.440026	0.439828
H142	H	1.092250	0.940026	0.939828
H143	H	0.899628	0.439794	0.785209
H144	H	1.399628	0.939794	1.285209
O145	O	1.068221	0.256590	0.775130
O146	O	1.568221	0.756590	1.275130
H147	H	1.098334	0.223850	0.814780
H148	H	1.598334	0.723850	1.314780
H149	H	0.899655	0.439756	0.924651
H150	H	1.399655	0.939756	1.424651
H151	H	1.056739	0.784424	0.269317
H152	H	1.556739	1.284424	0.769317
