data_functionalizedCrystal
_audit_creation_method	'MofGen! by Chris Wilmer'
_symmetry_space_group_name_H-M	'P1'
_symmetry_Int_Tables_number	1
_symmetry_cell_setting	triclinic
loop_
_symmetry_equiv_pos_as_xyz
  x,y,z
_cell_length_a	13.032831
_cell_length_b	13.897448
_cell_length_c	13.897441
_cell_angle_alpha	89.970373
_cell_angle_beta	82.808717
_cell_angle_gamma	82.822399
loop_
_atom_site_label
_atom_site_type_symbol
_atom_site_fract_x
_atom_site_fract_y
_atom_site_fract_z
Zn1	Zn	1.597690	-0.571557	-0.732365
Zn2	Zn	1.597581	-0.732863	-0.571054
Zn3	Zn	1.422930	-0.551080	-0.550631
Zn4	Zn	1.422904	-0.712292	-0.711863
O5	O	1.510276	-0.641948	-0.641478
O6	O	1.743916	-0.610133	-0.728094
O7	O	1.574379	-0.708788	-0.433359
O8	O	1.446169	-0.418821	-0.574771
O9	O	1.743837	-0.728644	-0.609579
O10	O	1.574564	-0.433865	-0.708291
O11	O	1.446064	-0.575233	-0.418354
O12	O	1.276686	-0.555287	-0.554891
O13	O	1.446124	-0.693584	-0.849569
O14	O	1.276666	-0.673728	-0.673348
O15	O	1.574538	-0.590186	-0.864631
O16	O	1.574354	-0.865109	-0.589700
O17	O	1.446019	-0.849996	-0.693152
C18	C	1.238757	-0.610054	-0.609679
C19	C	1.122600	-0.596433	-0.596098
C20	C	1.510200	-0.892553	-0.641441
C21	C	1.510263	-0.999775	-0.641469
C22	C	1.070832	-0.649057	-0.648566
C23	C	0.950778	-0.634980	-0.634531
C24	C	1.510373	-1.196082	-0.641542
C25	C	1.510309	-1.086843	-0.641504
C26	C	1.782855	-0.673967	-0.673402
C27	C	1.899012	-0.687612	-0.687006
C28	C	1.510340	-0.641874	-0.893079
C29	C	1.510367	-0.641843	-1.000296
C30	C	1.510381	-0.390367	-0.641540
C31	C	1.510426	-0.283159	-0.641566
C32	C	1.510389	-0.641818	-1.087368
C33	C	1.510419	-0.641778	-1.196604
C34	C	1.510273	-0.641959	-0.390863
C35	C	1.510448	-0.641742	-0.283671
H36	H	1.115391	-0.704528	-0.703879
H37	H	0.906223	-0.579498	-0.579221
H38	H	0.943566	-0.743085	-0.742326
H39	H	1.078042	-0.540954	-0.540792
