data_functionalizedCrystal
_audit_creation_method	'MofGen! by Chris Wilmer'
_symmetry_space_group_name_H-M	'P1'
_symmetry_Int_Tables_number	1
_symmetry_cell_setting	triclinic
loop_
_symmetry_equiv_pos_as_xyz
  x,y,z
_cell_length_a	15.995350
_cell_length_b	22.610064
_cell_length_c	15.995350
_cell_angle_alpha	89.997790
_cell_angle_beta	96.507625
_cell_angle_gamma	90.011636
loop_
_atom_site_label
_atom_site_type_symbol
_atom_site_fract_x
_atom_site_fract_y
_atom_site_fract_z
O1	O	1.110999	0.049131	-0.107925
O2	O	1.610999	0.549131	0.392075
O3	O	0.867224	0.049143	-0.121252
O4	O	1.367224	0.549143	0.378748
O5	O	0.995775	0.049137	0.007299
O6	O	1.495775	0.549137	0.507299
O7	O	0.982447	0.049138	-0.236476
O8	O	1.482447	0.549138	0.263524
O9	O	0.995737	-0.049233	0.007299
O10	O	1.495737	0.450767	0.507299
O11	O	0.867186	-0.049226	-0.121252
O12	O	1.367186	0.450774	0.378748
O13	O	1.110961	-0.049238	-0.107924
O14	O	1.610961	0.450762	0.392076
Zn15	Zn	0.989068	-0.064850	-0.114588
Zn16	Zn	1.489068	0.435150	0.385412
Zn17	Zn	0.989117	0.064756	-0.114588
Zn18	Zn	1.489117	0.564756	0.385412
O19	O	0.982410	-0.049231	-0.236476
O20	O	1.482410	0.450769	0.263524
C21	C	0.836010	-0.000040	-0.120701
C22	C	1.336010	0.499960	0.379299
C23	C	0.743060	-0.000035	-0.119049
C24	C	1.243060	0.499965	0.380951
C25	C	0.405312	-0.000048	-0.113117
C26	C	0.905312	0.499952	0.386883
C27	C	0.452746	-0.000268	-0.021565
C28	C	0.952746	0.499732	0.478435
C29	C	0.549436	-0.000042	-0.023217
C30	C	1.049436	0.499958	0.476783
C31	C	0.572873	-0.000042	-0.116060
C32	C	1.072873	0.499958	0.383940
C33	C	0.531807	0.056130	-0.161216
C34	C	1.031807	0.556130	0.338784
C35	C	0.435171	0.056173	-0.158916
C36	C	0.935171	0.556173	0.341084
C37	C	0.434790	-0.055691	-0.160808
C38	C	0.934790	0.444309	0.339192
C39	C	0.531735	-0.056430	-0.160786
C40	C	1.031735	0.443570	0.339214
C41	C	0.667570	-0.000036	-0.117727
C42	C	1.167570	0.499964	0.382273
C43	C	0.310614	-0.000049	-0.111452
C44	C	0.810614	0.499951	0.388548
N45	N	0.989040	-0.153302	-0.114588
N46	N	1.489040	0.346698	0.385412
C47	C	1.039898	-0.561946	-0.165392
C48	C	1.539898	-0.061946	0.334608
C49	C	1.039908	-0.623866	-0.165390
C50	C	1.539908	-0.123866	0.334610
O51	O	1.083116	-0.655887	-0.208580
O52	O	1.583116	-0.155887	0.291420
N53	N	0.989133	-0.654840	-0.114579
N54	N	1.489133	-0.154840	0.385421
C55	C	0.938351	-0.623890	-0.063760
C56	C	1.438351	-0.123890	0.436240
O57	O	0.895164	-0.655921	-0.020540
O58	O	1.395164	-0.155921	0.479460
C59	C	0.938345	-0.561971	-0.063758
C60	C	1.438345	-0.061971	0.436242
C61	C	0.989117	-0.531001	-0.114579
C62	C	1.489117	-0.031001	0.385421
C63	C	1.090666	-0.530976	-0.216208
C64	C	1.590666	-0.030976	0.283792
C65	C	1.090654	-0.469060	-0.216211
C66	C	1.590654	0.030940	0.283789
C67	C	1.039874	-0.438115	-0.165398
C68	C	1.539874	0.061885	0.334602
C69	C	0.989105	-0.469085	-0.114582
C70	C	1.489105	0.030915	0.385418
C71	C	0.887568	-0.531023	-0.012936
C72	C	1.387568	-0.031023	0.487064
C73	C	0.887567	-0.469100	-0.012938
C74	C	1.387567	0.030900	0.487062
C75	C	0.938339	-0.438129	-0.063758
C76	C	1.438339	0.061871	0.436242
C77	C	0.938313	-0.376224	-0.063772
C78	C	1.438313	0.123776	0.436228
N79	N	0.989088	-0.345251	-0.114583
N80	N	1.489088	0.154749	0.385417
C81	C	1.039869	-0.376196	-0.165396
C82	C	1.539869	0.123804	0.334604
C83	C	0.938367	-0.753924	-0.063767
C84	C	1.438367	-0.253924	0.436233
C85	C	0.938367	-0.815841	-0.063772
C86	C	1.438367	-0.315841	0.436228
C87	C	1.039926	-0.815813	-0.165402
C88	C	1.539926	-0.315813	0.334598
C89	C	1.039921	-0.753894	-0.165400
C90	C	1.539921	-0.253894	0.334600
C91	C	0.989142	-0.722950	-0.114578
C92	C	1.489142	-0.222950	0.385422
C93	C	1.039839	-0.246169	-0.165399
C94	C	1.539839	0.253831	0.334601
C95	C	1.039820	-0.184248	-0.165401
C96	C	1.539820	0.315752	0.334599
C97	C	0.938265	-0.184281	-0.063769
C98	C	1.438265	0.315719	0.436231
C99	C	0.938280	-0.246197	-0.063770
C100	C	1.438280	0.253803	0.436230
C101	C	0.989074	-0.277139	-0.114588
C102	C	1.489074	0.222861	0.385412
O103	O	0.895130	-0.344164	-0.020601
O104	O	1.395130	0.155836	0.479399
O105	O	1.083056	-0.344157	-0.208601
O106	O	1.583056	0.155843	0.291399
C107	C	1.142175	-0.000053	-0.108476
C108	C	1.642175	0.499947	0.391524
C109	C	1.235125	-0.000054	-0.110127
C110	C	1.735125	0.499946	0.389873
C111	C	0.995205	-0.000047	0.038494
C112	C	1.495205	0.499953	0.538494
C113	C	0.993553	-0.000044	0.131444
C114	C	1.493553	0.499956	0.631444
N115	N	0.989152	0.153208	-0.114583
N116	N	1.489152	0.653208	0.385417
C117	C	0.982980	-0.000046	-0.267671
C118	C	1.482980	0.499954	0.232329
C119	C	0.984631	-0.000046	-0.360621
C120	C	1.484631	0.499954	0.139379
C121	C	0.987621	-0.000045	0.469192
C122	C	1.487621	0.499955	0.969192
C123	C	0.896069	0.000180	0.421758
C124	C	1.396069	0.500180	0.921758
C125	C	0.897721	-0.000042	0.325068
C126	C	1.397721	0.499958	0.825068
C127	C	0.990564	-0.000044	0.301631
C128	C	1.490564	0.499956	0.801631
C129	C	1.035699	-0.056219	0.342709
C130	C	1.535699	0.443781	0.842709
C131	C	1.033399	-0.056266	0.439345
C132	C	1.533399	0.443734	0.939345
C133	C	1.035333	0.055598	0.439703
C134	C	1.535333	0.555598	0.939703
C135	C	1.035312	0.056341	0.342757
C136	C	1.535312	0.556341	0.842757
C137	C	0.992231	-0.000045	0.206934
C138	C	1.492231	0.499955	0.706934
C139	C	0.985956	-0.000048	0.563890
C140	C	1.485956	0.499952	1.063890
H141	H	0.434208	-0.040550	0.015031
H142	H	0.934208	0.459450	0.515031
H143	H	1.004319	-0.098021	0.314328
H144	H	1.504319	0.401979	0.814328
C145	C	0.570154	0.112606	-0.118842
C146	C	1.070154	0.612606	0.381158
N147	N	0.599035	0.155143	-0.086919
N148	N	1.099035	0.655143	0.413081
C149	C	0.831702	-0.435065	0.042969
C150	C	1.331702	0.064935	0.542969
N151	N	0.789622	-0.409431	0.085075
N152	N	1.289622	0.090569	0.585075
C153	C	0.391604	0.059629	-0.249719
C154	C	0.891604	0.559629	0.250281
N155	N	0.358794	0.062239	-0.318111
N156	N	0.858794	0.562239	0.181889
C157	C	1.127840	-0.059053	0.323610
C158	C	1.627840	0.440947	0.823610
N159	N	1.197238	-0.061189	0.309216
N160	N	1.697238	0.438811	0.809216
H161	H	0.414238	-0.098268	-0.130877
H162	H	0.914238	0.401732	0.369123
H163	H	0.545933	0.058219	-0.229425
H164	H	1.045933	0.558219	0.270575
C165	C	1.146519	-0.435001	-0.272108
C166	C	1.646519	0.064999	0.227892
N167	N	1.188603	-0.409351	-0.314208
N168	N	1.688603	0.090649	0.185792
H169	H	1.005417	0.098175	0.460242
H170	H	1.505417	0.598175	0.960242
H171	H	1.002312	0.097897	0.315508
H172	H	1.502312	0.597897	0.815508
H173	H	1.081165	-0.159034	-0.206789
H174	H	1.581165	0.340966	0.293211
H175	H	0.896927	-0.271414	-0.022399
H176	H	1.396927	0.228586	0.477601
H177	H	0.862241	0.040226	0.296646
H178	H	1.362241	0.540226	0.796646
H179	H	0.896918	-0.159075	-0.022400
H180	H	1.396918	0.340925	0.477600
C181	C	0.568585	-0.112570	-0.116228
C182	C	1.068585	0.387430	0.383772
N183	N	0.596339	-0.154854	-0.082659
N184	N	1.096339	0.345146	0.417341
H185	H	0.859492	0.040464	0.440290
H186	H	1.359492	0.540464	0.940290
C187	C	0.882504	-0.849902	-0.007875
C188	C	1.382504	-0.349902	0.492125
N189	N	0.840430	-0.875554	0.034232
N190	N	1.340430	-0.375554	0.534232
C191	C	1.126783	0.060919	0.322011
C192	C	1.626783	0.560919	0.822011
N193	N	1.195684	0.064362	0.306389
N194	N	1.695684	0.564362	0.806389
C195	C	0.882491	-0.719891	-0.007866
C196	C	1.382491	-0.219891	0.492134
N197	N	0.840405	-0.694260	0.034237
N198	N	1.340405	-0.194260	0.534237
H199	H	0.859624	-0.039876	0.441352
H200	H	1.359624	0.460124	0.941352
H201	H	1.102834	0.055974	0.471463
H202	H	1.602834	0.555974	0.971463
H203	H	0.403028	-0.056071	-0.228308
H204	H	0.903028	0.443929	0.271692
C205	C	0.587825	-0.054437	0.024743
C206	C	1.087825	0.445563	0.524743
N207	N	0.616735	-0.095407	0.060873
N208	N	1.116735	0.404593	0.560873
H209	H	0.547099	-0.059823	-0.228489
H210	H	1.047099	0.440177	0.271511
H211	H	1.081201	-0.271355	-0.206780
H212	H	1.581201	0.228645	0.293220
H213	H	0.861971	-0.040376	0.297203
H214	H	1.361971	0.459624	0.797203
C215	C	0.988883	-0.112989	0.464070
C216	C	1.488883	0.387011	0.964070
N217	N	0.955349	-0.155712	0.482688
N218	N	1.455349	0.344288	0.982688
H219	H	0.433168	0.039793	0.014862
H220	H	0.933168	0.539793	0.514862
C221	C	1.124201	-0.059720	0.482912
C222	C	1.624201	0.440280	0.982912
N223	N	1.192592	-0.062326	0.515724
N224	N	1.692592	0.437674	1.015724
H225	H	0.577310	0.040294	0.012518
H226	H	1.077310	0.540294	0.512518
C227	C	1.095793	-0.849865	-0.221291
C228	C	1.595793	-0.349865	0.278709
N229	N	1.137870	-0.875514	-0.263383
N230	N	1.637870	-0.375514	0.236617
C231	C	0.410458	0.112895	-0.114421
C232	C	0.910458	0.612895	0.385579
N233	N	0.391849	0.155619	-0.080902
N234	N	0.891849	0.655619	0.419098
C235	C	1.146517	-0.565006	-0.272128
C236	C	1.646517	-0.065006	0.227872
N237	N	1.188578	-0.590633	-0.314261
N238	N	1.688578	-0.090633	0.185739
H239	H	1.081264	-0.728682	-0.206783
H240	H	1.581264	-0.228682	0.293217
C241	C	0.831713	-0.565076	0.042972
C242	C	1.331713	-0.065076	0.542972
N243	N	0.789641	-0.590724	0.085086
N244	N	1.289641	-0.090724	0.585086
