data_functionalizedCrystal
_audit_creation_method	'MofGen! by Chris Wilmer'
_symmetry_space_group_name_H-M	'P1'
_symmetry_Int_Tables_number	1
_symmetry_cell_setting	triclinic
loop_
_symmetry_equiv_pos_as_xyz
  x,y,z
_cell_length_a	10.686220
_cell_length_b	18.101395
_cell_length_c	10.686551
_cell_angle_alpha	85.593544
_cell_angle_beta	90.308082
_cell_angle_gamma	94.412841
loop_
_atom_site_label
_atom_site_type_symbol
_atom_site_fract_x
_atom_site_fract_y
_atom_site_fract_z
Zn1	Zn	1.972201	-0.180552	-0.562382
Zn2	Zn	2.472201	0.319448	-0.062382
Zn3	Zn	1.955907	-0.314596	-0.352620
Zn4	Zn	2.455907	0.185404	0.147380
Zn5	Zn	1.746310	-0.199497	-0.368699
Zn6	Zn	2.246310	0.300503	0.131301
Zn7	Zn	1.762338	-0.313095	-0.578398
Zn8	Zn	2.262338	0.186905	-0.078398
O9	O	1.859189	-0.251935	-0.465525
O10	O	2.359189	0.248065	0.034475
O11	O	2.145585	-0.191033	-0.521125
O12	O	2.645585	0.308967	-0.021125
O13	O	1.914577	-0.307884	-0.179207
O14	O	2.414577	0.192116	0.320793
O15	O	1.776386	-0.093345	-0.394418
O16	O	2.276386	0.406655	0.105582
O17	O	2.133614	-0.289514	-0.367014
O18	O	2.633614	0.210486	0.132986
O19	O	1.942347	-0.079426	-0.536716
O20	O	2.442347	0.420574	-0.036716
O21	O	1.760587	-0.223322	-0.191020
O22	O	2.260587	0.276678	0.308980
O23	O	1.572891	-0.221866	-0.409948
O24	O	2.072891	0.278134	0.090052
O25	O	1.803703	-0.286956	-0.751819
O26	O	2.303703	0.213044	-0.251819
O27	O	1.584666	-0.305327	-0.564013
O28	O	2.084666	0.194673	-0.064013
O29	O	1.957888	-0.189578	-0.740052
O30	O	2.457888	0.310422	-0.240052
O31	O	1.930118	-0.418036	-0.382544
O32	O	2.430118	0.081964	0.117456
O33	O	1.787904	-0.416933	-0.548422
O34	O	2.287904	0.083067	-0.048422
C35	C	1.533261	-0.265490	-0.490464
C36	C	2.033261	0.234510	0.009536
C37	C	1.393831	-0.271305	-0.501162
C38	C	1.893831	0.228695	-0.001162
C39	C	1.859018	-0.444354	-0.465501
C40	C	2.359018	0.055646	0.034499
C41	C	1.859063	-0.526665	-0.465524
C42	C	2.359063	-0.026665	0.034476
C43	C	1.859343	-0.825742	-0.465570
C44	C	2.359343	-0.325742	0.034430
C45	C	1.770109	-0.793732	-0.570159
C46	C	2.270109	-0.293732	-0.070159
C47	C	1.769626	-0.708148	-0.569891
C48	C	2.269626	-0.208148	-0.069891
C49	C	1.859204	-0.677366	-0.465548
C50	C	2.359204	-0.177366	0.034452
C51	C	1.813255	-0.716429	-0.336079
C52	C	2.313255	-0.216429	0.163921
C53	C	1.812677	-0.802072	-0.336708
C54	C	2.312677	-0.302072	0.163292
C55	C	1.994649	-0.786916	-0.489270
C56	C	2.494649	-0.286916	0.010730
C57	C	1.994091	-0.701157	-0.492229
C58	C	2.494091	-0.201157	0.007771
C59	C	1.859127	-0.593511	-0.465527
C60	C	2.359127	-0.093511	0.034473
C61	C	1.859417	-0.909597	-0.465582
C62	C	2.359417	-0.409597	0.034418
C63	C	2.186389	-0.238328	-0.440489
C64	C	2.686389	0.261672	0.059511
C65	C	2.325822	-0.232529	-0.429821
C66	C	2.825822	0.267471	0.070179
C67	C	1.884401	-0.235986	-0.792725
C68	C	2.384401	0.264014	-0.292725
C69	C	1.895145	-0.229190	-0.932159
C70	C	2.395145	0.270810	-0.432159
C71	C	1.859396	-0.058762	-0.465574
C72	C	2.359396	0.441238	0.034426
C73	C	1.859485	0.023558	-0.465595
C74	C	2.359485	0.523558	0.034405
C75	C	1.834147	-0.267765	-0.139591
C76	C	2.334147	0.232235	0.360409
C77	C	1.823646	-0.274343	-0.000140
C78	C	2.323646	0.225657	0.499860
H79	H	1.345381	-0.308959	-0.570423
H80	H	1.845381	0.191041	-0.070423
F81	F	1.985915	-0.171866	-0.995513
F82	F	2.485915	0.328134	-0.495513
H83	H	1.374265	-0.194883	-0.360556
H84	H	1.874265	0.305117	0.139444
F85	F	1.808736	-0.673172	-0.695786
F86	F	2.308736	-0.173172	-0.195786
F87	F	1.732894	-0.331671	-0.936790
F88	F	2.232894	0.168329	-0.436790
F89	F	2.046818	-0.807289	-0.609868
F90	F	2.546818	-0.307289	-0.109868
F91	F	1.683003	-0.835371	-0.308924
F92	F	2.183003	-0.335371	0.191076
H93	H	1.799836	-0.808581	-0.666812
H94	H	2.299836	-0.308581	-0.166812
H95	H	2.028557	-0.674945	-0.587462
H96	H	2.528557	-0.174945	-0.087462
H97	H	1.670643	-0.820464	-0.555499
H98	H	2.170643	-0.320464	-0.055499
H99	H	1.874301	-0.823621	-0.256670
H100	H	2.374301	-0.323621	0.243330
F101	F	1.894947	-0.690816	-0.232022
F102	F	2.394947	-0.190816	0.267978
F103	F	1.638805	-0.688226	-0.550424
F104	F	2.138805	-0.188226	-0.050424
F105	F	1.684870	-0.695558	-0.307518
F106	F	2.184870	-0.195558	0.192482
H107	H	2.064908	-0.679774	-0.420795
H108	H	2.564908	-0.179774	0.079205
H109	H	2.061256	-0.807605	-0.412970
H110	H	2.561256	-0.307605	0.087030
