data_functionalizedCrystal
_audit_creation_method	'MofGen! by Chris Wilmer'
_symmetry_space_group_name_H-M	'P1'
_symmetry_Int_Tables_number	1
_symmetry_cell_setting	triclinic
loop_
_symmetry_equiv_pos_as_xyz
  x,y,z
_cell_length_a	15.537862
_cell_length_b	14.044209
_cell_length_c	14.750779
_cell_angle_alpha	76.179005
_cell_angle_beta	82.427132
_cell_angle_gamma	109.773806
loop_
_atom_site_label
_atom_site_type_symbol
_atom_site_fract_x
_atom_site_fract_y
_atom_site_fract_z
O1	O	0.238886	-1.154953	-0.079724
O2	O	0.230929	-0.881715	-0.079751
O3	O	0.102238	-1.071535	-0.079724
O4	O	0.367577	-0.965133	-0.079751
O5	O	0.065863	-1.125194	0.079934
O6	O	0.194554	-0.935373	0.079907
O7	O	0.202511	-1.208612	0.079934
Zn8	Zn	0.192757	-1.080512	0.105270
Zn9	Zn	0.240683	-1.009815	-0.105086
O10	O	0.331202	-1.018791	0.079907
C11	C	0.209256	-0.874428	0.000075
C12	C	0.198859	-0.772778	0.000065
C13	C	0.049888	-1.109497	0.000106
C14	C	-0.051906	-1.142657	0.000110
C15	C	0.179842	-0.586665	0.000084
C16	C	0.253606	-0.503647	0.000080
C17	C	0.243025	-0.400087	0.000090
C18	C	0.190422	-0.690235	0.000073
C19	C	-0.199244	-1.277068	0.000123
C20	C	-0.103593	-1.245899	0.000120
C21	C	-0.095856	-1.070541	0.000098
C22	C	-0.191507	-1.101694	0.000096
C23	C	-0.243194	-1.204959	0.000109
C24	C	-0.235457	-1.029584	0.000082
C25	C	-0.331101	-1.060737	0.000086
C26	C	-0.382795	-1.163998	0.000102
C27	C	-0.338838	-1.236111	0.000112
C28	C	-0.183770	-0.926322	0.000076
C29	C	-0.227720	-0.854212	0.000062
C30	C	-0.323364	-0.885362	0.000059
C31	C	-0.375058	-0.988624	0.000075
C32	C	-0.367321	-0.813249	0.000048
C33	C	-0.462965	-0.844401	0.000052
C34	C	-0.470702	-1.019776	0.000078
C35	C	0.383553	-0.980829	0.000075
C36	C	0.485348	-0.947666	0.000065
C37	C	0.224187	-0.215896	0.000104
C38	C	0.234594	-0.317538	0.000099
N39	N	0.160049	-1.128768	0.248832
N40	N	0.273385	-0.961568	-0.248649
C41	C	0.364693	-0.826810	0.600608
C42	C	0.341780	-0.860629	0.701112
C43	C	0.227872	-1.028726	0.701098
C44	C	0.250772	-0.994918	0.600592
C45	C	0.319184	-0.893960	0.550355
C46	C	0.205263	-1.062068	0.550339
C47	C	0.228165	-1.028265	0.449842
C48	C	0.296577	-0.927313	0.399598
C49	C	0.342086	-0.860157	0.449858
C50	C	0.136856	-1.163029	0.600578
C51	C	0.091347	-1.230179	0.550326
C52	C	0.114245	-1.196374	0.449827
C53	C	0.182656	-1.095421	0.399582
C54	C	0.068735	-1.263529	0.399567
C55	C	0.091637	-1.229726	0.299070
C56	C	0.205558	-1.061618	0.299085
H57	H	0.324704	-0.510349	0.000068
H58	H	0.420394	-0.744595	0.559702
O59	O	0.390861	-0.788196	0.755318
H60	H	0.442273	-0.712315	0.703497
H61	H	-0.498753	-0.785686	0.000052
H62	H	-0.067813	-1.304628	0.000132
O63	O	0.085669	-0.577797	0.000092
H64	H	0.092035	-0.496659	0.000090
H65	H	0.261259	-0.979403	0.258180
H66	H	0.054580	-1.284408	0.258153
H67	H	-0.053760	-0.986463	0.000090
H68	H	-0.512786	-1.103860	0.000075
H69	H	-0.460673	-1.189359	0.000101
H70	H	-0.380921	-1.320195	0.000109
O71	O	-0.255005	-1.388448	0.000136
H72	H	-0.208378	-1.433363	0.000148
H73	H	-0.105892	-0.900963	0.000079
O74	O	-0.171972	-0.742836	0.000047
H75	H	-0.098079	-0.733284	0.000042
O76	O	-0.311573	-0.701876	0.000042
H77	H	-0.237682	-0.692329	0.000042
O78	O	0.321274	-0.890844	0.291203
H79	H	0.347776	-0.945689	0.264685
H80	H	0.397787	-0.777943	0.408952
O81	O	0.154083	-1.137612	0.755283
H82	H	0.145798	-1.149836	0.833608
O83	O	0.112149	-1.199500	0.708973
H84	H	0.085626	-1.144667	0.735487
H85	H	0.035648	-1.312382	0.591240
O86	O	-0.005047	-1.372418	0.453754
H87	H	-0.013327	-1.384641	0.532079
