data_functionalizedCrystal
_audit_creation_method	'MofGen! by Chris Wilmer'
_symmetry_space_group_name_H-M	'P1'
_symmetry_Int_Tables_number	1
_symmetry_cell_setting	triclinic
loop_
_symmetry_equiv_pos_as_xyz
  x,y,z
_cell_length_a	16.992694
_cell_length_b	9.065218
_cell_length_c	16.053802
_cell_angle_alpha	92.605607
_cell_angle_beta	87.249047
_cell_angle_gamma	87.842054
loop_
_atom_site_label
_atom_site_type_symbol
_atom_site_fract_x
_atom_site_fract_y
_atom_site_fract_z
O1	O	-1.045876	-0.307268	0.069319
O2	O	-0.817568	-0.303831	0.069343
O3	O	-0.936441	-0.091345	0.069329
O4	O	-0.927003	-0.519754	0.069333
O5	O	-0.929897	-0.102989	-0.069529
O6	O	-0.811024	-0.315475	-0.069515
O7	O	-1.039333	-0.318912	-0.069539
Zn8	Zn	-0.924139	-0.319043	-0.091574
Zn9	Zn	-0.932761	-0.303701	0.091378
O10	O	-0.920459	-0.531398	-0.069525
C11	C	-0.785052	-0.305234	-0.000082
C12	C	-0.697915	-0.292050	-0.000073
C13	C	-0.932262	-0.042096	-0.000099
C14	C	-0.929550	0.121999	-0.000094
C15	C	-1.071848	-0.317509	-0.000112
C16	C	-1.158986	-0.330693	-0.000116
C17	C	-0.648578	-0.419255	-0.000072
C18	C	-0.566702	-0.406860	-0.000084
C19	C	-0.534166	-0.267257	-0.000090
C20	C	-0.583509	-0.140042	-0.000093
C21	C	-0.665383	-0.152439	-0.000088
C22	C	-0.290202	-0.215875	-0.000113
C23	C	-0.208323	-0.203487	-0.000116
C24	C	-0.191521	-0.470307	-0.000108
C25	C	-0.273397	-0.482691	-0.000098
C26	C	-0.322733	-0.355477	-0.000105
N27	N	-0.450477	-0.254583	-0.000099
N28	N	-0.406421	-0.368152	-0.000102
C29	C	-0.924638	-0.580647	-0.000095
C30	C	-0.927350	-0.744741	-0.000094
N31	N	-0.918261	-0.329513	-0.216433
C32	C	-0.968861	-0.239136	-0.260133
C33	C	-0.964757	-0.246475	-0.347540
C34	C	-0.910056	-0.344199	-0.391244
C35	C	-0.859451	-0.434579	-0.347538
C36	C	-0.863552	-0.427232	-0.260133
C37	C	-0.892141	-0.376252	-0.652652
C38	C	-0.888045	-0.383596	-0.740062
C39	C	-0.993351	-0.195489	-0.740058
C40	C	-0.997450	-0.188156	-0.652652
C41	C	-0.946842	-0.278531	-0.608953
N42	N	-0.905861	-0.351707	-0.480587
N43	N	-0.951034	-0.271015	-0.519611
N44	N	-0.938645	-0.293219	0.216237
H45	H	-0.675062	-0.532935	-0.000066
C46	C	-0.827865	-0.491100	-0.788136
N47	N	-0.782540	-0.572069	-0.824344
H48	H	-0.151344	-0.573878	-0.000104
C49	C	-0.836573	-0.475871	-0.604595
N50	N	-0.794754	-0.550983	-0.568395
H51	H	-1.013408	-0.159566	-0.224555
H52	H	-0.557012	-0.026375	-0.000110
H53	H	-0.814908	-0.514143	-0.383127
C54	C	-0.512434	-0.546799	-0.000098
N55	N	-0.471559	-0.652209	-0.000115
C56	C	-0.309180	-0.636267	-0.000104
N57	N	-0.336131	-0.751942	-0.000110
H58	H	-1.041992	-0.108582	-0.617069
C59	C	-1.049009	-0.096071	-0.788134
N60	N	-1.090930	-0.021180	-0.824344
H61	H	-0.822347	-0.500824	-0.224553
H62	H	-0.181836	-0.089800	-0.000121
C63	C	-1.020402	-0.147015	-0.395606
N64	N	-1.062309	-0.072083	-0.431809
H65	H	-0.330362	-0.112287	-0.000120
H66	H	-0.705553	-0.048854	-0.000088
