data_functionalizedCrystal
_audit_creation_method	'MofGen! by Chris Wilmer'
_symmetry_space_group_name_H-M	'P1'
_symmetry_Int_Tables_number	1
_symmetry_cell_setting	triclinic
loop_
_symmetry_equiv_pos_as_xyz
  x,y,z
_cell_length_a	15.944493
_cell_length_b	15.944551
_cell_length_c	16.176319
_cell_angle_alpha	89.992246
_cell_angle_beta	89.993150
_cell_angle_gamma	83.486891
loop_
_atom_site_label
_atom_site_type_symbol
_atom_site_fract_x
_atom_site_fract_y
_atom_site_fract_z
O1	O	1.114558	0.108102	-0.068737
O2	O	0.870002	0.121509	-0.068742
O3	O	0.998958	-0.007470	-0.068732
O4	O	0.985601	0.237082	-0.068747
O5	O	0.998940	-0.007479	0.068761
O6	O	0.869984	0.121501	0.068752
O7	O	1.114540	0.108094	0.068756
Cu8	Cu	0.992260	0.114797	0.081308
Cu9	Cu	0.992281	0.114807	-0.081294
O10	O	0.985584	0.237074	0.068746
C11	C	0.838698	0.120957	0.000004
C12	C	0.745449	0.119314	0.000003
C13	C	0.509689	0.195235	-0.000002
C14	C	0.459122	0.154290	0.067795
C15	C	0.574728	0.116270	0.000005
C16	C	0.459144	0.154279	-0.067762
C17	C	0.409819	0.113336	0.000003
C18	C	0.525389	0.075347	0.067858
C19	C	0.525415	0.075348	-0.067760
C20	C	0.474880	0.034345	0.000054
C21	C	0.669728	0.117963	0.000007
C22	C	0.314821	0.111637	0.000007
C23	C	0.998395	-0.038768	0.000015
C24	C	0.996732	-0.132014	0.000015
C25	C	0.912826	-0.346853	0.000002
C26	C	0.951780	-0.407883	0.067796
C27	C	0.993725	-0.302739	0.000009
C28	C	0.951817	-0.407858	-0.067762
C29	C	0.990814	-0.467651	-0.000001
C30	C	1.032702	-0.362541	0.067858
C31	C	1.032727	-0.362510	-0.067760
C32	C	1.071741	-0.423521	0.000049
C33	C	0.995399	-0.207737	0.000015
C34	C	0.989146	-0.562652	-0.000001
C35	C	1.145844	0.108646	0.000008
C36	C	1.239092	0.110289	0.000004
C37	C	0.986147	0.268372	-0.000002
C38	C	0.987809	0.361617	-0.000008
N39	N	0.992252	0.114789	0.195673
N40	N	0.992297	0.114807	-0.195659
C41	C	1.049371	0.057701	0.238942
C42	C	1.049375	0.057700	0.325489
C43	C	0.992264	0.114792	0.368766
C44	C	0.935138	0.171884	0.325491
C45	C	0.935131	0.171880	0.238946
C46	C	0.935167	0.171900	0.674519
C47	C	0.935181	0.171901	0.761071
C48	C	1.049411	0.057719	0.761062
C49	C	1.049404	0.057715	0.674517
C50	C	0.992276	0.114804	0.631250
C51	C	0.992271	0.114803	0.537406
C52	C	0.992272	0.114798	0.462608
H53	H	0.459415	-0.033726	0.000097
H54	H	0.525313	0.263254	0.000057
Cl55	Cl	0.569880	0.023888	0.156442
Cl56	Cl	0.898978	-0.438861	-0.156243
Cl57	Cl	1.121182	-0.014071	0.379885
Cl58	Cl	1.121206	-0.014058	0.620115
H59	H	1.066883	-0.342561	0.125235
Cl60	Cl	1.121177	-0.014074	0.184545
H61	H	1.138950	-0.456694	0.000089
Cl62	Cl	0.863317	0.243650	0.184552
Cl63	Cl	0.570133	0.023914	-0.156251
Cl64	Cl	0.414478	0.205793	-0.156244
Cl65	Cl	0.414431	0.205769	0.156281
Cl66	Cl	1.121228	-0.014054	0.815460
H67	H	0.888671	0.218394	0.796306
H68	H	0.845675	-0.313532	0.000069
Cl69	Cl	0.863355	0.243669	0.620132
H70	H	0.917556	-0.427987	0.125108
Cl71	Cl	1.085523	-0.331432	-0.156252
H72	H	0.888633	0.218367	0.360732
