data_functionalizedCrystal
_audit_creation_method	'MofGen! by Chris Wilmer'
_symmetry_space_group_name_H-M	'P1'
_symmetry_Int_Tables_number	1
_symmetry_cell_setting	triclinic
loop_
_symmetry_equiv_pos_as_xyz
  x,y,z
_cell_length_a	27.731993
_cell_length_b	27.732048
_cell_length_c	26.809956
_cell_angle_alpha	90.024325
_cell_angle_beta	90.008964
_cell_angle_gamma	82.631525
loop_
_atom_site_label
_atom_site_type_symbol
_atom_site_fract_x
_atom_site_fract_y
_atom_site_fract_z
O1	O	0.640955	0.057400	0.041351
O2	O	1.140955	0.557400	0.541351
O3	O	0.500157	0.066173	0.041382
O4	O	1.000157	0.566173	0.541382
O5	O	0.574929	-0.008611	0.041356
O6	O	1.074929	0.491389	0.541356
O7	O	0.566183	0.132184	0.041377
O8	O	1.066183	0.632184	0.541377
O9	O	0.574902	-0.008631	-0.041603
O10	O	1.074902	0.491369	0.458397
O11	O	0.500131	0.066153	-0.041577
O12	O	1.000131	0.566153	0.458423
O13	O	0.640928	0.057380	-0.041609
O14	O	1.140928	0.557380	0.458391
Zn15	Zn	0.570525	0.061764	-0.054765
Zn16	Zn	1.070525	0.561764	0.445235
Zn17	Zn	0.570560	0.061790	0.054538
Zn18	Zn	1.070560	0.561790	0.554538
O19	O	0.566157	0.132164	-0.041582
O20	O	1.066157	0.632164	0.458418
C21	C	0.482137	0.065983	-0.000094
C22	C	0.982137	0.565983	0.499906
C23	C	0.428480	0.065441	-0.000082
C24	C	0.928480	0.565441	0.499918
C25	C	0.045335	0.061521	0.045114
C26	C	0.545335	0.561521	0.545114
C27	C	0.246992	0.063588	0.045128
C28	C	0.746992	0.563588	0.545128
O29	O	0.273077	0.063846	0.083588
O30	O	0.773077	0.563846	0.583588
N31	N	0.272198	0.063836	-0.000092
N32	N	0.772198	0.563836	0.499908
C33	C	0.246987	0.063564	-0.045319
C34	C	0.746987	0.563564	0.454681
O35	O	0.273054	0.063817	-0.083781
O36	O	0.773054	0.563817	0.416219
C37	C	0.045331	0.061493	-0.045332
C38	C	0.545331	0.561493	0.454668
C39	C	0.020127	0.061251	-0.000109
C40	C	0.520127	0.561251	0.499891
C41	C	0.020131	0.061278	0.090333
C42	C	0.520131	0.561278	0.590333
C43	C	-0.030281	0.060764	0.090329
C44	C	0.469719	0.560764	0.590329
C45	C	-0.055489	0.060493	0.045106
C46	C	0.444511	0.560493	0.545106
C47	C	-0.030285	0.060736	-0.000113
C48	C	0.469715	0.560736	0.499887
C49	C	0.020121	0.061217	-0.090558
C50	C	0.520121	0.561217	0.409442
C51	C	-0.030296	0.060698	-0.090558
C52	C	0.469704	0.560698	0.409442
C53	C	-0.055500	0.060456	-0.045335
C54	C	0.444500	0.560456	0.454665
C55	C	-0.105905	0.059952	-0.045340
C56	C	0.394095	0.559952	0.454660
N57	N	-0.131110	0.059704	-0.000120
N58	N	0.368890	0.559704	0.499880
C59	C	-0.105902	0.059975	0.045103
C60	C	0.394098	0.559975	0.545103
C61	C	0.352859	0.064652	-0.045309
C62	C	0.852859	0.564652	0.454691
C63	C	0.403272	0.065170	-0.045306
C64	C	0.903272	0.565170	0.454694
C65	C	0.403274	0.065194	0.045141
C66	C	0.903274	0.565194	0.545141
C67	C	0.352859	0.064679	0.045138
C68	C	0.852859	0.564679	0.545138
C69	C	0.327653	0.064404	-0.000089
C70	C	0.827653	0.564404	0.499911
C71	C	-0.211771	0.058896	0.045091
C72	C	0.288229	0.558896	0.545091
C73	C	-0.262187	0.058383	0.045083
C74	C	0.237813	0.558383	0.545083
C75	C	-0.262184	0.058357	-0.045363
C76	C	0.237816	0.558357	0.454637
C77	C	-0.211773	0.058872	-0.045356
C78	C	0.288227	0.558872	0.454644
C79	C	-0.186567	0.059139	-0.000124
C80	C	0.313433	0.559139	0.499876
O81	O	-0.132020	0.059689	-0.083780
O82	O	0.367980	0.559689	0.416220
O83	O	-0.131977	0.059711	0.083559
O84	O	0.368023	0.559711	0.583559
C85	C	0.095746	0.062035	0.045118
C86	C	0.595746	0.562035	0.545118
C87	C	0.120950	0.062279	-0.000101
C88	C	0.620950	0.562279	0.499899
C89	C	0.095742	0.062008	-0.045325
C90	C	0.595742	0.562008	0.454675
C91	C	0.171364	0.062797	-0.000098
C92	C	0.671364	0.562797	0.499902
C93	C	0.196572	0.063068	0.045125
C94	C	0.696572	0.563068	0.545125
C95	C	0.171366	0.062820	0.090345
C96	C	0.671366	0.562820	0.590345
C97	C	0.120954	0.062306	0.090341
C98	C	0.620954	0.562306	0.590341
C99	C	0.120948	0.062255	-0.090545
C100	C	0.620948	0.562255	0.409455
C101	C	0.171360	0.062770	-0.090537
C102	C	0.671360	0.562770	0.409463
C103	C	0.196568	0.063041	-0.045314
C104	C	0.696568	0.563041	0.454686
C105	C	0.574732	-0.026628	-0.000125
C106	C	1.074732	0.473372	0.499875
C107	C	0.574179	-0.080282	-0.000129
C108	C	1.074179	0.419718	0.499871
C109	C	0.614884	-0.419105	-0.000113
C110	C	1.114884	0.080895	0.499887
C111	C	0.612833	-0.620765	-0.000105
C112	C	1.112833	-0.120765	0.499895
O113	O	0.650055	-0.652028	-0.000092
O114	O	1.150055	-0.152028	0.499908
N115	N	0.568497	-0.639880	-0.000096
N116	N	1.068497	-0.139880	0.499904
C117	C	0.524670	-0.608577	-0.000085
C118	C	1.024670	-0.108577	0.499915
O119	O	0.486912	-0.629462	-0.000072
O120	O	0.986912	-0.129462	0.499928
C121	C	0.526721	-0.406918	-0.000089
C122	C	1.026721	0.093082	0.499911
C123	C	0.571061	-0.387806	-0.000103
C124	C	1.071061	0.112194	0.499897
C125	C	0.659220	-0.399993	-0.000126
C126	C	1.159220	0.100007	0.499874
C127	C	0.659732	-0.349581	-0.000131
C128	C	1.159732	0.150419	0.499869
C129	C	0.615909	-0.318282	-0.000122
C130	C	1.115909	0.181718	0.499878
C131	C	0.571573	-0.337394	-0.000108
C132	C	1.071573	0.162606	0.499892
C133	C	0.482895	-0.375616	-0.000074
C134	C	0.982895	0.124384	0.499926
C135	C	0.483412	-0.325199	-0.000074
C136	C	0.983412	0.174801	0.499926
C137	C	0.527751	-0.306087	-0.000089
C138	C	1.027751	0.193913	0.499911
C139	C	0.528262	-0.255683	-0.000103
C140	C	1.028262	0.244317	0.499897
N141	N	0.572598	-0.236568	-0.000112
N142	N	1.072598	0.263432	0.499888
C143	C	0.616422	-0.267867	-0.000122
C144	C	1.116422	0.232133	0.499878
C145	C	0.523596	-0.714450	-0.000084
C146	C	1.023596	-0.214450	0.499916
C147	C	0.523083	-0.764865	-0.000084
C148	C	1.023083	-0.264865	0.499916
C149	C	0.611246	-0.777049	-0.000103
C150	C	1.111246	-0.277049	0.499897
C151	C	0.611759	-0.726634	-0.000107
C152	C	1.111759	-0.226634	0.499893
C153	C	0.567932	-0.695335	-0.000093
C154	C	1.067932	-0.195335	0.499907
C155	C	0.617494	-0.161999	-0.000132
C156	C	1.117494	0.338001	0.499868
C157	C	0.618002	-0.111582	-0.000138
C158	C	1.118002	0.388418	0.499862
C159	C	0.529839	-0.099401	-0.000117
C160	C	1.029839	0.400599	0.499883
C161	C	0.529331	-0.149814	-0.000113
C162	C	1.029331	0.350186	0.499887
C163	C	0.573162	-0.181112	-0.000118
C164	C	1.073162	0.318888	0.499882
O165	O	0.491060	-0.224392	-0.000111
O166	O	0.991060	0.275608	0.499889
O167	O	0.654174	-0.246972	-0.000124
O168	O	1.154174	0.253028	0.499876
C169	C	0.614372	-0.469517	-0.000108
C170	C	1.114372	0.030483	0.499892
C171	C	0.570036	-0.488630	-0.000094
C172	C	1.070036	0.011370	0.499906
C173	C	0.526213	-0.457331	-0.000085
C174	C	1.026213	0.042669	0.499915
C175	C	0.569523	-0.539044	-0.000094
C176	C	1.069523	-0.039044	0.499906
C177	C	0.613346	-0.570343	-0.000103
C178	C	1.113346	-0.070343	0.499897
C179	C	0.657683	-0.551228	-0.000113
C180	C	1.157683	-0.051228	0.499887
C181	C	0.658195	-0.500817	-0.000117
C182	C	1.158195	-0.000817	0.499883
C183	C	0.481876	-0.476446	-0.000075
C184	C	0.981876	0.023554	0.499925
C185	C	0.481368	-0.526858	-0.000071
C186	C	0.981368	-0.026858	0.499929
C187	C	0.525191	-0.558157	-0.000081
C188	C	1.025191	-0.058157	0.499919
C189	C	0.658949	0.057570	-0.000132
C190	C	1.158949	0.557570	0.499868
C191	C	0.712605	0.058113	-0.000140
C192	C	1.212605	0.558113	0.499860
C193	C	0.566353	0.150181	-0.000100
C194	C	1.066353	0.650181	0.499900
C195	C	0.566906	0.203836	-0.000093
C196	C	1.066906	0.703836	0.499907
N197	N	0.570505	0.061745	-0.129360
N198	N	1.070505	0.561745	0.370640
C199	C	0.541454	0.032657	-0.526251
C200	C	1.041454	0.532657	-0.026251
C201	C	0.541431	0.032643	-0.317374
C202	C	1.041431	0.532643	0.182626
O203	O	0.516699	0.007870	-0.290379
O204	O	1.016699	0.507870	0.209621
N205	N	0.570524	0.061753	-0.291239
N206	N	1.070524	0.561753	0.208761
C207	C	0.599628	0.090865	-0.317327
C208	C	1.099628	0.590865	0.182673
O209	O	0.624376	0.115620	-0.290305
O210	O	1.124376	0.615620	0.209695
C211	C	0.599653	0.090875	-0.526204
C212	C	1.099653	0.590875	-0.026204
C213	C	0.570554	0.061768	-0.552336
C214	C	1.070554	0.561768	-0.052336
C215	C	0.512358	0.003551	-0.552383
C216	C	1.012358	0.503551	-0.052383
C217	C	0.512362	0.003557	-0.604600
C218	C	1.012362	0.503557	-0.104600
C219	C	0.541462	0.032668	-0.630684
C220	C	1.041462	0.532668	-0.130684
C221	C	0.570558	0.061773	-0.604552
C222	C	1.070558	0.561773	-0.104552
C223	C	0.628758	0.119984	-0.552291
C224	C	1.128758	0.619984	-0.052291
C225	C	0.628763	0.119984	-0.604513
C226	C	1.128763	0.619984	-0.104513
C227	C	0.599664	0.090876	-0.630645
C228	C	1.099664	0.590876	-0.130645
C229	C	0.599662	0.090890	-0.682853
C230	C	1.099662	0.590890	-0.182853
N231	N	0.570569	0.061781	-0.708987
N232	N	1.070569	0.561781	-0.208987
C233	C	0.541469	0.032670	-0.682903
C234	C	1.041469	0.532670	-0.182903
C235	C	0.599612	0.090858	-0.207664
C236	C	1.099612	0.590858	0.292336
C237	C	0.599605	0.090856	-0.155445
C238	C	1.099605	0.590856	0.344555
C239	C	0.541409	0.032634	-0.155495
C240	C	1.041409	0.532634	0.344505
C241	C	0.541414	0.032639	-0.207715
C242	C	1.041414	0.532639	0.292285
C243	C	0.570519	0.061749	-0.233798
C244	C	1.070519	0.561749	0.266202
C245	C	0.541479	0.032684	-0.792561
C246	C	1.041479	0.532684	-0.292561
C247	C	0.541484	0.032694	-0.844782
C248	C	1.041484	0.532694	-0.344782
C249	C	0.599682	0.090914	-0.844727
C250	C	1.099682	0.590914	-0.344727
C251	C	0.599675	0.090906	-0.792511
C252	C	1.099675	0.590906	-0.292511
C253	C	0.570572	0.061787	-0.766429
C254	C	1.070572	0.561787	-0.266429
O255	O	0.624386	0.115646	-0.709879
O256	O	1.124386	0.615646	-0.209879
O257	O	0.516732	0.007910	-0.709934
O258	O	1.016732	0.507910	-0.209934
C259	C	0.541450	0.032651	-0.474035
C260	C	1.041450	0.532651	0.025965
C261	C	0.570546	0.061756	-0.447903
C262	C	1.070546	0.561756	0.052097
C263	C	0.599646	0.090868	-0.473987
C264	C	1.099646	0.590868	0.026013
C265	C	0.570539	0.061755	-0.395684
C266	C	1.070539	0.561755	0.104316
C267	C	0.541439	0.032643	-0.369600
C268	C	1.041439	0.532643	0.130400
C269	C	0.512346	0.003534	-0.395734
C270	C	1.012346	0.503534	0.104266
C271	C	0.512350	0.003540	-0.447951
C272	C	1.012350	0.503540	0.052049
C273	C	0.628739	0.119977	-0.447853
C274	C	1.128739	0.619977	0.052147
C275	C	0.628732	0.119969	-0.395637
C276	C	1.128732	0.619969	0.104363
C277	C	0.599632	0.090858	-0.369552
C278	C	1.099632	0.590858	0.130448
N279	N	0.570584	0.061805	0.129134
N280	N	1.070584	0.561805	0.629134
H281	H	-0.282718	0.058139	-0.082183
H282	H	0.217282	0.558139	0.417817
F283	F	0.630649	0.121882	-0.764698
F284	F	1.130649	0.621882	-0.264698
H285	H	0.652465	0.143688	-0.625748
H286	H	1.152465	0.643688	-0.125748
H287	H	0.517781	0.008973	-0.771331
H288	H	1.017781	0.508973	-0.271331
F289	F	0.326040	0.064420	0.093270
F290	F	0.826040	0.564420	0.593270
F291	F	-0.184952	0.059180	0.093231
F292	F	0.315048	0.559180	0.593231
F293	F	-0.289008	0.058127	0.093218
F294	F	0.210992	0.558127	0.593218
F295	F	0.481393	-0.027426	-0.632405
F296	F	0.981393	0.472574	-0.132405
F297	F	0.046951	0.061565	0.138470
F298	F	0.546951	0.561565	0.638470
F299	F	0.094137	0.062048	0.138474
F300	F	0.594137	0.562048	0.638474
H301	H	0.445259	-0.542414	-0.000064
H302	H	0.945259	-0.042414	0.499936
H303	H	0.693365	-0.576721	-0.000122
H304	H	1.193365	-0.076721	0.499878
F305	F	0.510511	0.001713	-0.872590
F306	F	1.010511	0.501713	-0.372590
H307	H	0.423807	0.065416	0.081964
H308	H	0.923807	0.565416	0.581964
H309	H	0.488661	-0.020157	-0.531151
H310	H	0.988661	0.479843	-0.031151
F311	F	0.430090	0.065438	-0.093438
F312	F	0.930090	0.565438	0.406562
F313	F	0.630648	0.121897	-0.872497
F314	F	1.130648	0.621897	-0.372497
F315	F	0.436764	-0.291891	-0.000059
F316	F	0.936764	0.208109	0.499941
H317	H	0.191876	0.062972	-0.127366
H318	H	0.691876	0.562972	0.372634
H319	H	0.652427	0.143677	-0.374364
H320	H	1.152427	0.643677	0.125636
F321	F	0.326038	0.064364	-0.093448
F322	F	0.826038	0.564364	0.406552
H323	H	0.694908	-0.425472	-0.000132
H324	H	1.194908	0.074528	0.499868
F325	F	0.435231	-0.443141	-0.000064
F326	F	0.935231	0.056859	0.499936
F327	F	0.482140	-0.170155	-0.000106
F328	F	0.982140	0.329845	0.499894
H329	H	0.517719	0.008937	-0.228988
H330	H	1.017719	0.508937	0.271012
H331	H	0.494160	-0.073909	-0.000111
H332	H	0.994160	0.426091	0.499889
F333	F	0.510439	0.001651	-0.127725
F334	F	1.010439	0.501651	0.372275
H335	H	0.486977	-0.780421	-0.000081
H336	H	0.986977	-0.280421	0.499919
F337	F	0.705387	-0.480483	-0.000130
F338	F	1.205387	0.019517	0.499870
F339	F	0.435702	-0.395945	-0.000057
F340	F	0.935702	0.104055	0.499943
F341	F	0.658950	-0.706298	-0.000122
F342	F	1.158950	-0.206298	0.499878
F343	F	0.664144	-0.195301	-0.000138
F344	F	1.164144	0.304699	0.499862
H345	H	0.040633	0.061414	-0.127384
H346	H	0.540633	0.561414	0.372616
H347	H	-0.050817	0.060479	-0.127387
H348	H	0.449183	0.560479	0.372613
H349	H	0.623294	0.114564	-0.134173
H350	H	1.123294	0.614564	0.365827
F351	F	0.481379	-0.027441	-0.475756
F352	F	0.981379	0.472559	0.024244
H353	H	0.488650	-0.020167	-0.374487
H354	H	0.988650	0.479833	0.125513
H355	H	0.623314	0.114564	-0.228896
H356	H	1.123314	0.614564	0.271104
F357	F	0.659712	0.150963	-0.475607
F358	F	1.159712	0.650963	0.024393
F359	F	0.659721	0.150974	-0.524491
F360	F	1.159721	0.650974	-0.024491
F361	F	0.706924	-0.329247	-0.000136
F362	F	1.206924	0.170753	0.499864
F363	F	-0.057098	0.060502	0.138462
F364	F	0.442902	0.560502	0.638462
H365	H	0.191898	0.063044	0.127167
H366	H	0.691898	0.563044	0.627167
F367	F	-0.184949	0.059137	-0.093487
F368	F	0.315051	0.559137	0.406513
H369	H	0.100429	0.062032	-0.127372
H370	H	0.600429	0.562032	0.372628
H371	H	0.654110	-0.096024	-0.000151
H372	H	1.154110	0.403976	0.499849
F373	F	0.476946	-0.681145	-0.000069
F374	F	0.976946	-0.181145	0.499931
F375	F	0.657886	-0.810369	-0.000112
F376	F	1.157886	-0.310369	0.499888
