data_functionalizedCrystal
_audit_creation_method	'MofGen! by Chris Wilmer'
_symmetry_space_group_name_H-M	'P1'
_symmetry_Int_Tables_number	1
_symmetry_cell_setting	triclinic
loop_
_symmetry_equiv_pos_as_xyz
  x,y,z
_cell_length_a	17.699083
_cell_length_b	15.995350
_cell_length_c	16.776229
_cell_angle_alpha	89.995580
_cell_angle_beta	89.998886
_cell_angle_gamma	83.387695
loop_
_atom_site_label
_atom_site_type_symbol
_atom_site_fract_x
_atom_site_fract_y
_atom_site_fract_z
O1	O	1.004255	0.105885	-0.066173
O2	O	0.783899	0.119661	-0.066198
O3	O	0.900100	-0.009127	-0.066184
O4	O	0.888053	0.234673	-0.066187
O5	O	0.900085	-0.009135	0.066393
O6	O	0.783884	0.119653	0.066378
O7	O	1.004239	0.105877	0.066404
Zn8	Zn	0.894059	0.112764	0.087441
Zn9	Zn	0.894079	0.112774	-0.087235
O10	O	0.888038	0.234665	0.066390
C11	C	0.755694	0.119163	0.000087
C12	C	0.671673	0.117683	0.000077
C13	C	0.623178	0.193278	0.000076
C14	C	0.544232	0.191882	0.000087
C15	C	0.513783	0.114889	0.000092
C16	C	0.562285	0.039287	0.000095
C17	C	0.641229	0.040685	0.000090
C18	C	0.243912	0.033651	0.000115
C19	C	0.164962	0.032259	0.000117
C20	C	0.146916	0.184848	0.000111
C21	C	0.225860	0.186245	0.000106
C22	C	0.274354	0.110644	0.000114
C23	C	0.359956	0.112159	0.000104
C24	C	0.428183	0.113373	0.000096
C25	C	0.899595	-0.040324	0.000103
C26	C	0.898101	-0.133272	0.000098
C27	C	0.892739	-0.471008	0.000100
C28	C	0.809983	-0.423406	-0.000207
C29	C	0.811476	-0.326719	0.000092
C30	C	0.895399	-0.303453	0.000099
C31	C	0.936209	-0.344618	0.075810
C32	C	0.934130	-0.441250	0.075873
C33	C	0.935857	-0.441602	-0.074891
C34	C	0.935837	-0.344657	-0.075892
C35	C	0.896907	-0.208759	0.000101
C36	C	0.891234	-0.565703	0.000104
C37	C	1.032445	0.106375	0.000117
C38	C	1.116465	0.107856	0.000122
C39	C	0.888544	0.265863	0.000101
C40	C	0.890037	0.358810	0.000101
N41	N	0.894051	0.112756	0.206652
N42	N	0.894094	0.112775	-0.206446
C43	C	0.945520	0.055752	0.248375
C44	C	0.945524	0.055752	0.331827
C45	C	0.894062	0.112760	0.373555
C46	C	0.842587	0.169766	0.331825
C47	C	0.842580	0.169762	0.248375
C48	C	0.842614	0.169783	0.668373
C49	C	0.842627	0.169784	0.751829
C50	C	0.945559	0.055772	0.751825
C51	C	0.945552	0.055768	0.668375
C52	C	0.894074	0.112771	0.626653
C53	C	0.894069	0.112770	0.536164
C54	C	0.894070	0.112765	0.464041
H55	H	0.250646	0.248941	0.000098
H56	H	0.680714	-0.020873	0.000090
C57	C	1.019494	-0.325683	0.079643
C58	C	1.070775	-0.359922	0.149213
C59	C	1.154057	-0.340975	0.153051
C60	C	1.186058	-0.287789	0.087319
C61	C	1.134776	-0.253546	0.017743
C62	C	1.051494	-0.272494	0.013905
H63	H	1.047087	-0.399297	0.197877
H64	H	1.192019	-0.366324	0.204556
H65	H	1.247708	-0.273763	0.090160
H66	H	1.158464	-0.214172	-0.030921
H67	H	1.013532	-0.247145	-0.037600
C68	C	0.785976	0.232477	0.377721
C69	C	0.786016	0.232529	0.469514
C70	C	0.729405	0.295244	0.515406
C71	C	0.672755	0.357908	0.469507
C72	C	0.672713	0.357859	0.377709
C73	C	0.729324	0.295144	0.331816
H74	H	0.827954	0.186139	0.503496
H75	H	0.729437	0.295280	0.583361
H76	H	0.630848	0.404334	0.503479
H77	H	0.630775	0.404249	0.343727
H78	H	0.729292	0.295108	0.263861
C79	C	0.786010	0.232492	0.797732
C80	C	0.786024	0.232496	0.889524
C81	C	0.729412	0.295200	0.935427
C82	C	0.672786	0.357900	0.889537
C83	C	0.672769	0.357898	0.797740
C84	C	0.729382	0.295194	0.751837
H85	H	0.827945	0.186080	0.923499
H86	H	0.729424	0.295202	1.003382
H87	H	0.630878	0.404317	0.923517
H88	H	0.630849	0.404314	0.763765
H89	H	0.729369	0.295192	0.683882
H90	H	0.107421	0.246406	0.000109
H91	H	0.907852	-0.316183	0.132147
H92	H	0.800701	0.216198	0.634409
C93	C	0.899316	-0.469266	-0.152416
C94	C	0.829851	-0.518922	-0.148616
C95	C	0.793301	-0.546586	-0.226136
C96	C	0.826216	-0.524594	-0.307456
C97	C	0.895684	-0.474935	-0.311260
C98	C	0.932234	-0.447271	-0.233740
H99	H	0.805482	-0.535205	-0.088415
H100	H	0.741875	-0.583347	-0.223320
H101	H	0.799159	-0.545072	-0.364841
H102	H	0.920053	-0.458653	-0.371461
H103	H	0.983660	-0.410511	-0.236556
H104	H	0.140174	-0.030442	0.000122
C105	C	0.895551	-0.307683	-0.151539
C106	C	0.810934	-0.317052	-0.165431
C107	C	0.770627	-0.280067	-0.241065
C108	C	0.814937	-0.233714	-0.302807
C109	C	0.899559	-0.224343	-0.288916
C110	C	0.939865	-0.261328	-0.213282
H111	H	0.778129	-0.351367	-0.119725
H112	H	0.707985	-0.287004	-0.251347
H113	H	0.785100	-0.206336	-0.358795
H114	H	0.932364	-0.190028	-0.334622
H115	H	1.002508	-0.254390	-0.203000
H116	H	0.800667	0.216180	0.214404
C117	C	1.016205	-0.484989	0.080540
C118	C	1.083429	-0.431958	0.084201
C119	C	1.165502	-0.475692	0.088878
C120	C	1.180352	-0.572458	0.089893
C121	C	1.113126	-0.625496	0.086232
C122	C	1.031053	-0.581761	0.081555
H123	H	1.072439	-0.360320	0.083450
H124	H	1.215267	-0.436430	0.091588
H125	H	1.241107	-0.604833	0.093354
H126	H	1.124116	-0.697133	0.086983
H127	H	0.981288	-0.621023	0.078845
C128	C	0.893903	-0.465904	0.152316
C129	C	0.821017	-0.509661	0.146528
C130	C	0.780788	-0.534311	0.222971
C131	C	0.813445	-0.515203	0.305203
C132	C	0.886334	-0.471443	0.310994
C133	C	0.926564	-0.446794	0.234551
H134	H	0.796840	-0.523808	0.085652
H135	H	0.726830	-0.566705	0.218683
H136	H	0.783665	-0.533450	0.361791
H137	H	0.910512	-0.457296	0.371870
H138	H	0.980522	-0.414400	0.238839
C139	C	1.018285	-0.484675	-0.075583
C140	C	1.085164	-0.431077	-0.073238
C141	C	1.167589	-0.474152	-0.073923
C142	C	1.183135	-0.570824	-0.076954
C143	C	1.116254	-0.624428	-0.079300
C144	C	1.033829	-0.581353	-0.078614
H145	H	1.073658	-0.359509	-0.070994
H146	H	1.217099	-0.434471	-0.072187
H147	H	1.244151	-0.602711	-0.077462
H148	H	1.127760	-0.695995	-0.081544
H149	H	0.984319	-0.621034	-0.080350
H150	H	0.997038	-0.329419	-0.080458
C151	C	0.297249	-0.049509	0.000119
C152	C	0.384086	-0.047984	0.000121
C153	C	0.437428	-0.131147	0.000126
C154	C	0.403932	-0.215836	0.000129
C155	C	0.317091	-0.217363	0.000127
C156	C	0.263750	-0.134200	0.000121
H157	H	0.408886	0.014710	0.000119
H158	H	0.501714	-0.130016	0.000128
H159	H	0.443419	-0.277398	0.000133
H160	H	0.292292	-0.280058	0.000128
H161	H	0.199464	-0.135331	0.000120
C162	C	0.490887	0.275039	0.000089
C163	C	0.524378	0.359730	0.000080
C164	C	0.471033	0.442890	0.000087
C165	C	0.384197	0.441361	0.000102
C166	C	0.350701	0.356667	0.000111
C167	C	0.404046	0.273506	0.000104
H168	H	0.588663	0.360865	0.000068
H169	H	0.495829	0.505586	0.000080
H170	H	0.344707	0.502921	0.000107
H171	H	0.286416	0.355531	0.000123
H172	H	0.379250	0.210810	0.000111
H173	H	0.987460	0.009350	0.634403
H174	H	0.647962	0.255975	0.000071
H175	H	0.987434	0.009334	0.365798
H176	H	0.537487	-0.023402	0.000111
H177	H	0.779397	-0.298228	-0.054181
H178	H	0.777046	-0.442936	0.053777
C179	C	0.765305	-0.448349	-0.073554
C180	C	0.691485	-0.489432	-0.062436
C181	C	0.646810	-0.514383	-0.135788
C182	C	0.675955	-0.498253	-0.220258
C183	C	0.749779	-0.457168	-0.231380
C184	C	0.794454	-0.432217	-0.158028
H185	H	0.669906	-0.501375	0.000097
H186	H	0.592160	-0.544797	-0.127555
H187	H	0.642884	-0.516723	-0.274558
H188	H	0.771358	-0.445225	-0.293913
H189	H	0.849104	-0.401803	-0.166262
H190	H	0.779168	-0.298792	0.054450
H191	H	0.987430	0.009334	0.214406
H192	H	0.987473	0.009354	0.785804
