data_functionalizedCrystal
_audit_creation_method	'MofGen! by Chris Wilmer'
_symmetry_space_group_name_H-M	'P1'
_symmetry_Int_Tables_number	1
_symmetry_cell_setting	triclinic
loop_
_symmetry_equiv_pos_as_xyz
  x,y,z
_cell_length_a	12.376457
_cell_length_b	10.654550
_cell_length_c	10.654550
_cell_angle_alpha	84.484931
_cell_angle_beta	101.387222
_cell_angle_gamma	78.599412
loop_
_atom_site_label
_atom_site_type_symbol
_atom_site_fract_x
_atom_site_fract_y
_atom_site_fract_z
O1	O	0.093919	-1.691695	-0.152558
O2	O	0.093940	-1.326222	-0.169359
O3	O	0.093922	-1.517360	0.021779
O4	O	0.093937	-1.500558	-0.343696
O5	O	-0.094086	-1.469592	-0.025940
O6	O	-0.094068	-1.278454	-0.217078
O7	O	-0.094089	-1.643927	-0.200277
Zn8	Zn	-0.123928	-1.453607	-0.216254
Zn9	Zn	0.123780	-1.516543	-0.153382
O10	O	-0.094071	-1.452790	-0.391415
C11	C	-0.000061	-1.255541	-0.191984
C12	C	-0.000054	-1.116100	-0.188290
N13	N	-0.292983	-1.410663	-0.259161
C14	C	-0.000081	-1.492242	0.044718
C15	C	-0.000079	-1.488551	0.184161
C16	C	-0.647991	-1.659180	-0.010838
C17	C	-0.529654	-1.689229	0.019194
C18	C	-0.470480	-1.619590	-0.050392
C19	C	-0.529655	-1.519897	-0.150015
C20	C	-0.648004	-1.489852	-0.180056
C21	C	-0.470493	-1.450262	-0.219611
C22	C	-0.529668	-1.350569	-0.319234
C23	C	-0.648005	-1.320528	-0.349269
C24	C	-0.707179	-1.390168	-0.279683
C25	C	-0.352145	-1.480307	-0.189570
C26	C	-0.352158	-1.310979	-0.358788
C27	C	-0.470495	-1.280930	-0.388820
N28	N	0.292834	-1.559496	-0.110465
C29	C	-0.000085	-1.714609	-0.177652
C30	C	-0.000085	-1.854052	-0.181344
C31	C	-0.000052	-1.036614	-0.300831
C32	C	-0.000072	-0.905588	-0.297359
C33	C	-0.000090	-0.933547	-0.068795
C34	C	-0.000078	-1.064568	-0.072269
C35	C	-0.000065	-1.477908	-0.414353
C36	C	-0.000060	-1.481601	-0.553795
C37	C	-0.000085	-1.601091	0.263645
C38	C	-0.000071	-1.597618	0.394670
C39	C	-0.000050	-1.369054	0.366712
C40	C	-0.000056	-1.372530	0.235692
H41	H	-0.303975	-1.561477	-0.108457
O42	O	-0.000301	-0.883501	0.043886
C43	C	-0.097657	-0.899325	0.087866
H44	H	-0.165711	-0.909876	0.002770
H45	H	-0.130345	-0.811204	0.133698
H46	H	-0.075641	-0.989686	0.162691
H47	H	-0.000074	-1.689260	0.459382
H48	H	-0.000041	-1.078564	-0.395304
H49	H	-0.696186	-1.239363	-0.430397
H50	H	-0.518690	-1.199758	-0.469935
O51	O	-0.705414	-1.727003	0.056646
C52	C	-0.676462	-1.858852	0.042452
H53	H	-0.643926	-1.868603	-0.049850
H54	H	-0.754283	-1.901996	0.036566
H55	H	-0.607768	-1.912571	0.129158
O56	O	0.000055	-1.713752	0.213479
C57	C	0.097436	-1.747356	0.163262
H58	H	0.129901	-1.656900	0.139731
H59	H	0.075532	-1.792605	0.071489
H60	H	0.165619	-1.819733	0.237954
O61	O	-0.000088	-1.256449	0.416965
C62	C	-0.000060	-1.277516	0.549657
H63	H	-0.035659	-1.366212	0.570534
H64	H	-0.054639	-1.189340	0.576672
H65	H	0.090138	-1.294029	0.609062
O66	O	0.000150	-1.263286	0.158472
C67	C	0.097506	-1.283219	0.106532
H68	H	0.165556	-1.364315	0.171220
H69	H	0.130201	-1.190491	0.100971
H70	H	0.075487	-1.310967	0.005406
O71	O	-0.355529	-1.648900	-0.021013
C72	C	-0.315988	-1.751842	0.081817
H73	H	-0.384190	-1.755795	0.139114
H74	H	-0.236826	-1.736166	0.148005
H75	H	-0.294972	-1.846805	0.041485
H76	H	-0.000083	-1.129288	0.019380
H77	H	-0.481478	-1.770399	0.100304
H78	H	-0.303979	-1.254275	-0.415454
O79	O	-0.822135	-1.360782	-0.308752
C80	C	-0.861684	-1.231300	-0.292185
H81	H	-0.793490	-1.199086	-0.222338
H82	H	-0.940853	-1.223175	-0.251298
H83	H	-0.882691	-1.166938	-0.389520
O84	O	0.000087	-0.828290	-0.406559
C85	C	0.097464	-0.776411	-0.386678
H86	H	0.129911	-0.777155	-0.278694
H87	H	0.075561	-0.672802	-0.438167
H88	H	0.165660	-0.837322	-0.427096
