data_functionalizedCrystal
_audit_creation_method	'MofGen! by Chris Wilmer'
_symmetry_space_group_name_H-M	'P1'
_symmetry_Int_Tables_number	1
_symmetry_cell_setting	triclinic
loop_
_symmetry_equiv_pos_as_xyz
  x,y,z
_cell_length_a	23.532407
_cell_length_b	23.532407
_cell_length_c	9.730223
_cell_angle_alpha	89.994043
_cell_angle_beta	90.002492
_cell_angle_gamma	82.848712
loop_
_atom_site_label
_atom_site_type_symbol
_atom_site_fract_x
_atom_site_fract_y
_atom_site_fract_z
O1	O	0.755256	0.069133	-0.114217
O2	O	1.255256	0.569133	0.385783
O3	O	0.589393	0.079136	-0.114241
O4	O	1.089393	0.579136	0.385759
O5	O	0.677326	-0.008797	-0.114203
O6	O	1.177326	0.491203	0.385797
O7	O	0.667323	0.157066	-0.114255
O8	O	1.167323	0.657066	0.385745
O9	O	0.677325	-0.008795	0.114377
O10	O	1.177325	0.491205	0.614377
O11	O	0.589392	0.079138	0.114339
O12	O	1.089392	0.579138	0.614339
O13	O	0.755255	0.069135	0.114363
O14	O	1.255255	0.569135	0.614363
Zn15	Zn	0.672323	0.074137	0.150643
Zn16	Zn	1.172323	0.574137	0.650643
Zn17	Zn	0.672325	0.074134	-0.150521
Zn18	Zn	1.172325	0.574134	0.349479
O19	O	0.667322	0.157068	0.114325
O20	O	1.167322	0.657068	0.614325
C21	C	0.568176	0.078882	0.000047
C22	C	1.068176	0.578882	0.500047
C23	C	0.504959	0.078116	0.000039
C24	C	1.004959	0.578116	0.500039
C25	C	0.677071	-0.030012	0.000091
C26	C	1.177071	0.469988	0.500091
C27	C	0.676305	-0.093229	0.000101
C28	C	1.176305	0.406771	0.500101
C29	C	0.238792	0.022921	0.000093
C30	C	0.738792	0.522921	0.500093
C31	C	0.298192	0.023632	0.000093
C32	C	0.798192	0.523632	0.500093
O33	O	0.334937	-0.020153	0.000154
O34	O	0.834937	0.479847	0.500154
N35	N	0.320818	0.075909	0.000067
N36	N	0.820818	0.575909	0.500067
C37	C	0.284041	0.127477	0.000056
C38	C	0.784041	0.627477	0.500056
O39	O	0.308740	0.172007	0.000035
O40	O	0.808740	0.672007	0.500035
C41	C	0.224642	0.126765	0.000066
C42	C	0.724642	0.626765	0.500066
C43	C	0.202019	0.074485	0.000078
C44	C	0.702019	0.574485	0.500078
C45	C	0.216169	-0.029354	0.000107
C46	C	0.716169	0.470646	0.500107
C47	C	0.156772	-0.030066	0.000105
C48	C	0.656772	0.469934	0.500105
C49	C	0.119999	0.021499	0.000089
C50	C	0.619999	0.521499	0.500089
C51	C	0.142623	0.073774	0.000076
C52	C	0.642623	0.573774	0.500076
C53	C	0.187865	0.178333	0.000065
C54	C	0.687865	0.678333	0.500065
C55	C	0.128463	0.177616	0.000077
C56	C	0.628463	0.677616	0.500077
C57	C	0.105840	0.125336	0.000088
C58	C	0.605840	0.625336	0.500088
C59	C	0.046454	0.124627	0.000059
C60	C	0.546454	0.624627	0.500059
N61	N	0.023828	0.072351	0.000085
N62	N	0.523828	0.572351	0.500085
C63	C	0.060600	0.020787	0.000100
C64	C	0.560600	0.520787	0.500100
C65	C	0.408783	0.128968	0.000036
C66	C	0.908783	0.628968	0.500036
C67	C	0.468181	0.129681	0.000016
C68	C	0.968181	0.629681	0.500016
C69	C	0.482328	0.025836	0.000056
C70	C	0.982328	0.525836	0.500056
C71	C	0.422929	0.025124	0.000066
C72	C	0.922929	0.525124	0.500066
C73	C	0.386157	0.076692	0.000062
C74	C	0.886157	0.576692	0.500062
C75	C	-0.064136	0.019297	0.000094
C76	C	0.435864	0.519297	0.500094
C77	C	-0.123538	0.018590	0.000087
C78	C	0.376462	0.518590	0.500087
C79	C	-0.137680	0.122435	0.000055
C80	C	0.362320	0.622435	0.500055
C81	C	-0.078284	0.123142	0.000055
C82	C	0.421716	0.623142	0.500055
C83	C	-0.041512	0.071568	0.000080
C84	C	0.458488	0.571568	0.500080
O85	O	0.009675	0.168390	0.000003
O86	O	0.509675	0.668390	0.500003
O87	O	0.035892	-0.023737	0.000138
O88	O	0.535892	0.476263	0.500138
C89	C	0.723538	-0.492332	0.000032
C90	C	1.223538	0.007668	0.500032
C91	C	0.722827	-0.551733	0.000022
C92	C	1.222827	-0.051733	0.500022
O93	O	0.766613	-0.588477	-0.000023
O94	O	1.266613	-0.088477	0.499977
N95	N	0.670551	-0.574359	0.000015
N96	N	1.170551	-0.074359	0.500015
C97	C	0.618982	-0.537581	0.000005
C98	C	1.118982	-0.037581	0.500005
O99	O	0.574452	-0.562281	-0.000002
O100	O	1.074452	-0.062281	0.499998
C101	C	0.619695	-0.478182	0.000006
C102	C	1.119695	0.021818	0.500006
C103	C	0.671974	-0.455559	0.000027
C104	C	1.171974	0.044441	0.500027
C105	C	0.775814	-0.469709	0.000051
C106	C	1.275814	0.030291	0.500051
C107	C	0.776525	-0.410313	0.000064
C108	C	1.276525	0.089687	0.500064
C109	C	0.724961	-0.373540	0.000059
C110	C	1.224961	0.126460	0.500059
C111	C	0.672685	-0.396163	0.000040
C112	C	1.172685	0.103837	0.500040
C113	C	0.568127	-0.441406	-0.000014
C114	C	1.068127	0.058594	0.499986
C115	C	0.568843	-0.382003	-0.000014
C116	C	1.068843	0.117997	0.499986
C117	C	0.621123	-0.359381	0.000006
C118	C	1.121123	0.140619	0.500006
C119	C	0.621832	-0.299994	0.000047
C120	C	1.121832	0.200006	0.500047
N121	N	0.674109	-0.277368	0.000053
N122	N	1.174109	0.222632	0.500053
C123	C	0.725673	-0.314141	0.000059
C124	C	1.225673	0.185859	0.500059
C125	C	0.617491	-0.662324	0.000002
C126	C	1.117491	-0.162324	0.500002
C127	C	0.616778	-0.721722	0.000011
C128	C	1.116778	-0.221722	0.500011
C129	C	0.720623	-0.735869	0.000025
C130	C	1.220623	-0.235869	0.500025
C131	C	0.721335	-0.676470	0.000025
C132	C	1.221335	-0.176470	0.500025
C133	C	0.669767	-0.639698	0.000008
C134	C	1.169767	-0.139698	0.500008
C135	C	0.727163	-0.189404	0.000088
C136	C	1.227163	0.310596	0.500088
C137	C	0.727869	-0.130002	0.000107
C138	C	1.227869	0.369998	0.500107
C139	C	0.624025	-0.115860	0.000086
C140	C	1.124025	0.384140	0.500086
C141	C	0.623318	-0.175257	0.000074
C142	C	1.123318	0.324743	0.500074
C143	C	0.674891	-0.212028	0.000071
C144	C	1.174891	0.287972	0.500071
O145	O	0.578069	-0.263215	0.000086
O146	O	1.078069	0.236785	0.500086
O147	O	0.770196	-0.289433	0.000049
O148	O	1.270196	0.210567	0.500049
C149	C	0.776472	0.069389	0.000073
C150	C	1.276472	0.569389	0.500073
C151	C	0.839689	0.070155	0.000072
C152	C	1.339689	0.570155	0.500072
C153	C	0.667577	0.178283	0.000029
C154	C	1.167577	0.678283	0.500029
C155	C	0.668343	0.241500	0.000009
C156	C	1.168343	0.741500	0.500009
N157	N	0.672327	0.074139	0.356179
N158	N	1.172327	0.574139	0.856179
N159	N	0.672326	0.074128	-0.356057
N160	N	1.172326	0.574128	0.143943
C161	C	0.711273	0.035215	0.428122
C162	C	1.211273	0.535215	0.928122
C163	C	0.711272	0.035208	0.572005
C164	C	1.211272	0.535208	1.072005
C165	C	0.633375	0.113054	0.571990
C166	C	1.133375	0.613054	1.071990
C167	C	0.633374	0.113057	0.428110
C168	C	1.133374	0.613057	0.928110
C169	C	0.756248	-0.009727	0.428132
C170	C	1.256248	0.490273	0.928132
C171	C	0.756246	-0.009734	0.572015
C172	C	1.256246	0.490266	1.072015
H173	H	-0.034204	-0.022699	0.000114
H174	H	0.465796	0.477301	0.500114
H175	H	0.770443	-0.111587	0.000127
H176	H	1.270443	0.388413	0.500127
N177	N	0.831433	-0.509369	0.000067
N178	N	1.331433	-0.009369	0.500067
H179	H	0.854259	-0.502118	-0.084658
H180	H	1.354259	-0.002118	0.415342
H181	H	0.854203	-0.502102	0.084868
H182	H	1.354203	-0.002102	0.584868
H183	H	-0.167631	0.164417	0.000035
H184	H	0.332369	0.664417	0.500035
N185	N	0.492571	0.186072	-0.000011
N186	N	0.992571	0.686072	0.499989
H187	H	0.516901	0.188687	0.084722
H188	H	1.016901	0.688687	0.584722
H189	H	0.516870	0.188651	-0.084803
H190	H	1.016870	0.688651	0.415197
H191	H	0.743002	-0.050907	0.616641
H192	H	1.243002	0.449093	1.116641
H193	H	0.797403	0.003551	0.383507
H194	H	1.297403	0.503551	0.883507
H195	H	0.580747	-0.193677	0.000096
H196	H	1.080747	0.306323	0.500096
N197	N	0.212248	0.234724	0.000046
N198	N	0.712248	0.734724	0.500046
H199	H	0.198815	0.257295	0.084777
H200	H	0.698815	0.757295	0.584777
H201	H	0.255454	0.227318	-0.000011
H202	H	0.755454	0.727318	0.499989
N203	N	0.513226	-0.342336	-0.000025
N204	N	1.013226	0.157664	0.499975
H205	H	0.490404	-0.349572	-0.084766
H206	H	0.990404	0.150428	0.415234
H207	H	0.490447	-0.349604	0.084759
H208	H	0.990447	0.150396	0.584759
N209	N	0.777721	-0.652072	0.000037
N210	N	1.277721	-0.152072	0.500037
H211	H	0.780332	-0.627747	0.084774
H212	H	1.280332	-0.127747	0.584774
H213	H	0.810243	-0.684417	-0.000006
H214	H	1.310243	-0.184417	0.499994
N215	N	0.832914	-0.385919	0.000045
N216	N	1.332914	0.114081	0.500045
H217	H	0.825549	-0.342710	0.000043
H218	H	1.325549	0.157290	0.500043
H219	H	0.855467	-0.399398	0.084777
H220	H	1.355467	0.100602	0.584777
H221	H	-0.059864	0.165712	0.000044
H222	H	0.440136	0.665712	0.500044
H223	H	0.762610	-0.765821	0.000024
H224	H	1.262610	-0.265821	0.500024
N225	N	0.591363	0.155027	0.649572
N226	N	1.091363	0.655027	1.149572
H227	H	0.597271	0.149118	0.751637
H228	H	1.097271	0.649118	1.251637
H229	H	0.597708	0.195399	0.624424
H230	H	1.097708	0.695399	1.124424
H231	H	0.525555	-0.459814	-0.000039
H232	H	1.025555	0.040186	0.499961
H233	H	0.098525	0.219610	0.000080
H234	H	0.598525	0.719610	0.500080
N235	N	0.560388	-0.746113	0.000020
N236	N	1.060388	-0.246113	0.500020
H237	H	0.537813	-0.732673	-0.084714
H238	H	1.037813	-0.232673	0.415286
H239	H	0.567800	-0.789318	0.000070
H240	H	1.067800	-0.289318	0.500070
N241	N	-0.147938	-0.037799	0.000096
N242	N	0.352062	0.462201	0.500096
H243	H	-0.115626	-0.070355	0.000111
H244	H	0.384374	0.429645	0.500111
H245	H	-0.172274	-0.040356	0.084833
H246	H	0.327726	0.459644	0.584833
N247	N	0.132376	-0.086453	0.000130
N248	N	0.632376	0.413547	0.500130
H249	H	0.164692	-0.119006	0.000146
H250	H	0.664692	0.380994	0.500146
H251	H	0.108045	-0.089009	0.084875
H252	H	0.608045	0.410991	0.584875
N253	N	0.814036	0.002359	0.623763
N254	N	1.314036	0.502359	1.123763
H255	H	0.839824	0.007764	0.543076
H256	H	1.339824	0.507764	1.043076
H257	H	0.809188	0.038309	0.681465
H258	H	1.309188	0.538309	1.181465
N259	N	0.782787	-0.229059	0.000084
N260	N	1.282787	0.270941	0.500084
H261	H	0.816007	-0.205707	0.000101
H262	H	1.316007	0.294293	0.500101
H263	H	0.784754	-0.254018	0.084819
H264	H	1.284754	0.245982	0.584819
N265	N	0.744202	-0.067531	0.376399
N266	N	1.244202	0.432469	0.876399
H267	H	0.738822	-0.093328	0.457093
H268	H	1.238822	0.406672	0.957093
H269	H	0.708249	-0.062712	0.318691
H270	H	1.208249	0.437288	0.818691
N271	N	0.561868	-0.622663	-0.000005
N272	N	1.061868	-0.122663	0.499995
H273	H	0.528647	-0.646015	-0.000007
H274	H	1.028647	-0.146015	0.499993
H275	H	0.559899	-0.597715	0.084734
H276	H	1.059899	-0.097715	0.584734
H277	H	0.404515	-0.017447	0.000076
H278	H	0.904515	0.482553	0.500076
N279	N	0.255826	-0.084975	0.000133
N280	N	0.755826	0.415025	0.500133
H281	H	0.232471	-0.118194	0.000146
H282	H	0.732471	0.381806	0.500146
H283	H	0.280775	-0.086947	-0.084608
H284	H	0.780775	0.413053	0.415392
H285	H	0.601656	0.144747	0.369535
H286	H	1.101656	0.644747	0.869535
N287	N	0.521997	-0.029782	0.000073
N288	N	1.021997	0.470218	0.500073
H289	H	0.563057	-0.021394	0.000070
H290	H	1.063057	0.478606	0.500070
H291	H	0.514708	-0.052578	0.084821
H292	H	1.014708	0.447422	0.584821
N293	N	0.568412	-0.076191	0.000061
N294	N	1.068412	0.423809	0.500061
H295	H	0.535183	-0.099532	0.000045
H296	H	1.035183	0.400468	0.500045
H297	H	0.566443	-0.051240	0.084796
H298	H	1.066443	0.448760	0.584796
N299	N	0.369123	0.184591	0.000078
N300	N	0.869123	0.684591	0.500078
H301	H	0.392475	0.217812	0.000077
H302	H	0.892475	0.717812	0.500077
H303	H	0.344155	0.186576	-0.084639
H304	H	0.844155	0.686576	0.415361
