data_functionalizedCrystal
_audit_creation_method	'MofGen! by Chris Wilmer'
_symmetry_space_group_name_H-M	'P1'
_symmetry_Int_Tables_number	1
_symmetry_cell_setting	triclinic
loop_
_symmetry_equiv_pos_as_xyz
  x,y,z
_cell_length_a	11.295498
_cell_length_b	12.837939
_cell_length_c	12.837942
_cell_angle_alpha	85.171210
_cell_angle_beta	94.530935
_cell_angle_gamma	94.539650
loop_
_atom_site_label
_atom_site_type_symbol
_atom_site_fract_x
_atom_site_fract_y
_atom_site_fract_z
O1	O	-0.099013	-1.408691	0.265783
O2	O	0.400987	-0.908691	0.765783
O3	O	-0.099017	-1.105558	0.252341
O4	O	0.400983	-0.605558	0.752341
O5	O	-0.099008	-1.250402	0.107496
O6	O	0.400992	-0.750402	0.607496
O7	O	-0.099022	-1.263846	0.410628
O8	O	0.400978	-0.763846	0.910628
O9	O	0.099042	-1.237676	0.120198
O10	O	0.599042	-0.737676	0.620198
O11	O	0.099033	-1.092832	0.265042
O12	O	0.599033	-0.592832	0.765042
O13	O	0.099037	-1.395965	0.278485
O14	O	0.599037	-0.895965	0.778485
Cu15	Cu	0.117119	-1.243237	0.272924
Cu16	Cu	0.617119	-0.743237	0.772924
Cu17	Cu	-0.117098	-1.258286	0.257902
Cu18	Cu	0.382902	-0.758286	0.757902
O19	O	0.099028	-1.251121	0.423330
O20	O	0.599028	-0.751121	0.923330
C21	C	0.000007	-1.060126	0.254150
C22	C	0.500007	-0.560126	0.754150
C23	C	0.000005	-0.943711	0.240606
C24	C	0.500005	-0.443711	0.740606
C25	C	0.000016	-0.718836	0.403437
C26	C	0.500016	-0.218836	0.903437
C27	C	0.000015	-0.609453	0.390715
C28	C	0.500015	-0.109453	0.890715
C29	C	0.000012	-0.615561	0.202444
C30	C	0.500012	-0.115561	0.702444
C31	C	0.000012	-0.724943	0.215165
C32	C	0.500012	-0.224943	0.715165
C33	C	0.000013	-0.776577	0.315664
C34	C	0.500013	-0.276577	0.815664
C35	C	0.000005	-0.885962	0.328384
C36	C	0.500005	-0.385962	0.828384
C37	C	0.000010	-0.892067	0.140114
C38	C	0.500010	-0.392067	0.640114
C39	C	0.000009	-0.782684	0.127393
C40	C	0.500009	-0.282684	0.627393
N41	N	0.281854	-1.232659	0.283489
N42	N	0.781854	-0.732659	0.783489
C43	C	0.531151	-1.344993	0.171231
C44	C	1.031151	-0.844993	0.671231
C45	C	0.655814	-1.337007	0.179223
C46	C	1.155814	-0.837007	0.679223
C47	C	0.655846	-1.208698	0.307460
C48	C	1.155846	-0.708698	0.807460
C49	C	0.531183	-1.216683	0.299468
C50	C	1.031183	-0.716683	0.799468
C51	C	0.468840	-1.284834	0.231352
C52	C	0.968840	-0.784834	0.731352
C53	C	0.344174	-1.292824	0.223366
C54	C	0.844174	-0.792824	0.723366
C55	C	0.344208	-1.164510	0.351596
C56	C	0.844208	-0.664510	0.851596
C57	C	0.468871	-1.156525	0.359589
C58	C	0.968871	-0.656525	0.859589
N59	N	0.718166	-1.268863	0.247337
N60	N	1.218166	-0.768863	0.747337
C61	C	0.000017	-1.239498	0.074777
C62	C	0.500017	-0.739498	0.574777
C63	C	0.000014	-1.225954	-0.041638
C64	C	0.500014	-0.725954	0.458362
C65	C	0.000012	-0.441397	0.276676
C66	C	0.500012	0.058603	0.776676
C67	C	0.000011	-0.557812	0.290222
C68	C	0.500011	-0.057812	0.790222
C69	C	-0.000008	-1.388784	-0.266514
C70	C	0.499992	-0.888784	0.233486
C71	C	-0.000010	-1.376063	-0.375896
C72	C	0.499990	-0.876063	0.124104
C73	C	-0.000001	-1.187791	-0.369788
C74	C	0.499999	-0.687791	0.130212
C75	C	0.000001	-1.200513	-0.260405
C76	C	0.500001	-0.700513	0.239595
C77	C	-0.000000	-1.301012	-0.208772
C78	C	0.500000	-0.801012	0.291228
C79	C	0.000010	-1.313732	-0.099387
C80	C	0.500010	-0.813732	0.400613
C81	C	0.000011	-1.125462	-0.093281
C82	C	0.500011	-0.625462	0.406719
C83	C	0.000009	-1.112740	-0.202664
C84	C	0.500009	-0.612740	0.297336
C85	C	0.000001	-1.262025	0.456048
C86	C	0.500001	-0.762025	0.956048
C87	C	-0.000005	-1.275570	0.572463
C88	C	0.499995	-0.775570	1.072463
H89	H	-0.000001	-0.939092	0.068643
H90	H	0.499999	-0.439092	0.568643
N91	N	0.000016	-1.422121	-0.043691
N92	N	0.500016	-0.922121	0.456309
H93	H	0.000008	-1.475793	-0.096873
H94	H	0.500008	-0.975793	0.403127
H95	H	-0.073402	-1.436214	-0.003144
H96	H	0.426598	-0.936214	0.496856
H97	H	-0.000012	-1.105970	-0.411848
H98	H	0.499988	-0.605970	0.088152
N99	N	0.276913	-1.366317	0.149903
N100	N	0.776913	-0.866317	0.649903
H101	H	0.298584	-1.440421	0.170717
H102	H	0.798584	-0.940421	0.670717
H103	H	0.298634	-1.345436	0.075824
H104	H	0.798634	-0.845436	0.575824
H105	H	0.000006	-1.030917	-0.244719
H106	H	0.500006	-0.530917	0.255281
H107	H	0.000002	-1.470614	-0.224472
H108	H	0.500002	-0.970614	0.275528
H109	H	0.293460	-1.115528	0.400554
H110	H	0.793460	-0.615528	0.900554
N111	N	-0.000021	-1.470730	-0.438177
N112	N	0.499979	-0.970730	0.061823
H113	H	-0.000022	-1.536323	-0.388866
H114	H	0.499978	-1.036323	0.111134
H115	H	0.073398	-1.464839	-0.478988
H116	H	0.573398	-0.964839	0.021012
H117	H	0.519645	-1.101035	0.415044
H118	H	1.019645	-0.601035	0.915044
N119	N	0.000026	-1.030784	-0.031003
N120	N	0.500026	-0.530784	0.468997
H121	H	0.000030	-1.054089	0.046126
H122	H	0.500030	-0.554089	0.546126
H123	H	-0.073392	-0.992166	-0.053491
H124	H	0.426608	-0.492166	0.446509
H125	H	0.706622	-1.153204	0.362911
H126	H	1.206622	-0.653204	0.862911
N127	N	-0.000005	-0.941658	0.436773
N128	N	0.499995	-0.441658	0.936773
H129	H	-0.000000	-0.888477	0.490445
H130	H	0.500000	-0.388477	0.990445
H131	H	0.073413	-0.982194	0.450858
H132	H	0.573413	-0.482194	0.950858
N133	N	0.000010	-0.774526	0.511828
N134	N	0.500010	-0.274526	1.011828
H135	H	0.073426	-0.815057	0.526013
H136	H	0.573426	-0.315057	1.026013
H137	H	-0.073457	-0.824433	0.516520
H138	H	0.426543	-0.324433	1.016520
N139	N	0.000065	-0.547170	0.485385
N140	N	0.500065	-0.047170	0.985385
H141	H	0.000080	-0.596481	0.550978
H142	H	0.500080	-0.096481	1.050978
H143	H	-0.073341	-0.506354	0.479529
H144	H	0.426659	-0.006354	0.979529
H145	H	0.000109	-0.573495	0.120628
H146	H	0.500109	-0.073495	0.620628
H147	H	0.480391	-1.400491	0.115776
H148	H	0.980391	-0.900491	0.615776
N149	N	0.000024	-0.726991	0.019003
N150	N	0.500024	-0.226991	0.519003
H151	H	0.000029	-0.648935	0.024262
H152	H	0.500029	-0.148935	0.524262
H153	H	-0.073396	-0.752156	-0.024588
H154	H	0.426604	-0.252156	0.475412
H155	H	0.706545	-1.385993	0.130266
H156	H	1.206545	-0.885993	0.630266
