data_functionalizedCrystal
_audit_creation_method	'MofGen! by Chris Wilmer'
_symmetry_space_group_name_H-M	'P1'
_symmetry_Int_Tables_number	1
_symmetry_cell_setting	triclinic
loop_
_symmetry_equiv_pos_as_xyz
  x,y,z
_cell_length_a	6.817900
_cell_length_b	17.458011
_cell_length_c	17.078481
_cell_angle_alpha	95.903756
_cell_angle_beta	99.306161
_cell_angle_gamma	106.367272
loop_
_atom_site_label
_atom_site_type_symbol
_atom_site_fract_x
_atom_site_fract_y
_atom_site_fract_z
V1	V	-3.994431	-0.110379	-0.248072
O2	O	-3.967309	0.005496	-0.242617
O3	O	-3.960837	-0.219047	-0.247080
O4	O	-3.925238	-0.108597	-0.355944
O5	O	-4.003154	-0.105719	-0.133000
V6	V	-4.478835	-0.096529	-0.234223
O7	O	-4.253757	-0.140760	-0.278451
O8	O	-4.669706	-0.066148	-0.203844
O9	O	-4.289222	0.012140	-0.235215
O10	O	-4.623354	-0.212404	-0.239678
O11	O	-4.587508	-0.101189	-0.349295
O12	O	-4.324821	-0.098311	-0.126352
C13	C	-3.810113	-0.245541	-0.243349
C14	C	-3.863794	-0.334379	-0.243256
C15	C	-4.185523	-0.834863	-0.243076
C16	C	-4.135073	-0.751392	-0.243173
C17	C	-3.927945	-0.705595	-0.239242
C18	C	-3.771256	-0.743272	-0.235206
C19	C	-3.821706	-0.826740	-0.235103
C20	C	-3.757554	-0.455524	-0.239117
C21	C	-3.707116	-0.372050	-0.239223
C22	C	-4.070936	-0.380176	-0.247189
C23	C	-4.121372	-0.463646	-0.247090
C24	C	-3.964678	-0.501315	-0.243050
N25	N	-3.876373	-0.620275	-0.239344
N26	N	-4.016249	-0.586633	-0.242942
C27	C	-3.764701	-0.104649	-0.382214
C28	C	-3.789510	-0.103911	-0.470404
C29	C	-3.983040	-0.107554	-0.515903
C30	C	-4.006339	-0.106860	-0.598767
C31	C	-3.836107	-0.102529	-0.636131
C32	C	-3.642559	-0.098884	-0.590625
C33	C	-3.619260	-0.099572	-0.507762
C34	C	-3.886284	-0.100038	-0.883518
C35	C	-3.909600	-0.099353	-0.966387
C36	C	-4.273377	-0.107327	-0.974523
C37	C	-4.250064	-0.108020	-0.891659
C38	C	-4.056517	-0.104370	-0.846160
N39	N	-3.859919	-0.101822	-0.720831
N40	N	-4.032704	-0.105071	-0.761460
C41	C	-4.103289	0.038629	-0.238945
C42	C	-4.028845	0.127466	-0.239042
C43	C	-4.148701	-0.102261	-0.100078
C44	C	-4.103131	-0.102995	-0.011887
H45	H	-3.538446	-0.334765	-0.236026
C46	C	-3.673389	-0.096032	-0.833482
C47	C	-3.480959	-0.022946	-0.830292
C48	C	-3.268050	-0.018941	-0.780254
C49	C	-3.247571	-0.088022	-0.733406
C50	C	-3.440007	-0.161114	-0.736595
C51	C	-3.652916	-0.165119	-0.786633
H52	H	-3.496113	0.028197	-0.864973
H53	H	-3.125596	0.035167	-0.777894
H54	H	-3.089964	-0.085057	-0.696366
H55	H	-3.424853	-0.212256	-0.701914
H56	H	-3.795370	-0.219226	-0.788993
H57	H	-4.430957	-0.110297	-1.011577
H58	H	-3.503953	-0.095353	-0.621052
H59	H	-4.354186	-0.872146	-0.246281
H60	H	-4.262661	-0.720724	-0.246461
H61	H	-4.290033	-0.500929	-0.250292
H62	H	-3.694122	-0.857412	-0.231825
H63	H	-4.121669	-0.111086	-0.485489
H64	H	-4.163925	-0.109821	-0.635808
H65	H	-4.198502	-0.349497	-0.250477
H66	H	-3.629953	-0.486182	-0.235817
H67	H	-3.602604	-0.705976	-0.232000
H68	H	-4.388688	-0.111545	-0.861243
H69	H	-3.461656	-0.096586	-0.470714
H70	H	-3.770965	-0.095823	-0.996806
