data_functionalizedCrystal
_audit_creation_method	'MofGen! by Chris Wilmer'
_symmetry_space_group_name_H-M	'P1'
_symmetry_Int_Tables_number	1
_symmetry_cell_setting	triclinic
loop_
_symmetry_equiv_pos_as_xyz
  x,y,z
_cell_length_a	16.992694
_cell_length_b	16.992695
_cell_length_c	16.053948
_cell_angle_alpha	92.712453
_cell_angle_beta	92.711578
_cell_angle_gamma	90.668223
loop_
_atom_site_label
_atom_site_type_symbol
_atom_site_fract_x
_atom_site_fract_y
_atom_site_fract_z
O1	O	1.047717	0.163775	-0.069324
O2	O	1.381050	0.497108	0.264009
O3	O	1.714384	0.830442	0.597343
O4	O	0.819316	0.161943	-0.069349
O5	O	1.152649	0.495276	0.263985
O6	O	1.485982	0.828609	0.597318
O7	O	0.932601	0.048659	-0.069330
O8	O	1.265934	0.381992	0.264003
O9	O	1.599268	0.715326	0.597337
O10	O	0.934432	0.277058	-0.069343
O11	O	1.267765	0.610392	0.263990
O12	O	1.601098	0.943725	0.597324
O13	O	0.938867	0.054947	0.069526
O14	O	1.272200	0.388281	0.402860
O15	O	1.605534	0.721614	0.736193
O16	O	0.825582	0.168231	0.069507
O17	O	1.158915	0.501564	0.402841
O18	O	1.492249	0.834898	0.736174
O19	O	1.053983	0.170063	0.069532
O20	O	1.387316	0.503397	0.402865
O21	O	1.720650	0.836730	0.736199
Zn22	Zn	0.940777	0.170146	0.091566
Zn23	Zn	1.274111	0.503479	0.424899
Zn24	Zn	1.607444	0.836812	0.758233
Zn25	Zn	0.932521	0.161860	-0.091383
Zn26	Zn	1.265855	0.495194	0.241950
Zn27	Zn	1.599188	0.828527	0.575284
O28	O	0.940698	0.283347	0.069513
O29	O	1.274031	0.616680	0.402846
O30	O	1.607364	0.950014	0.736180
C31	C	0.793088	0.162731	0.000076
C32	C	1.126422	0.496064	0.333410
C33	C	1.459755	0.829398	0.666743
C34	C	0.705603	0.155702	0.000067
C35	C	1.038937	0.489035	0.333400
C36	C	1.372270	0.822368	0.666734
C37	C	0.659612	0.223520	0.000064
C38	C	0.992946	0.556853	0.333397
C39	C	1.326279	0.890186	0.666730
C40	C	0.577412	0.216911	0.000076
C41	C	0.910746	0.550244	0.333409
C42	C	1.244079	0.883578	0.666742
C43	C	0.541204	0.142484	0.000085
C44	C	0.874538	0.475817	0.333418
C45	C	1.207871	0.809151	0.666751
C46	C	0.587202	0.074661	0.000091
C47	C	0.920535	0.407994	0.333424
C48	C	1.253868	0.741328	0.666757
C49	C	0.669401	0.081271	0.000085
C50	C	1.002734	0.414604	0.333418
C51	C	1.336067	0.747937	0.666751
C52	C	0.295891	0.115090	0.000109
C53	C	0.629224	0.448424	0.333442
C54	C	0.962558	0.781757	0.666775
C55	C	0.213686	0.108486	0.000112
C56	C	0.547019	0.441819	0.333445
C57	C	0.880353	0.775153	0.666779
C58	C	0.203902	0.250737	0.000099
C59	C	0.537236	0.584070	0.333432
C60	C	0.870569	0.917403	0.666766
C61	C	0.286103	0.257339	0.000088
C62	C	0.619436	0.590673	0.333421
C63	C	0.952770	0.924006	0.666755
C64	C	0.332093	0.189517	0.000098
C65	C	0.665427	0.522850	0.333431
C66	C	0.998760	0.856184	0.666765
N67	N	0.457183	0.135727	0.000094
N68	N	0.790516	0.469061	0.333428
N69	N	1.123849	0.802394	0.666761
N70	N	0.416114	0.196275	0.000094
N71	N	0.749447	0.529608	0.333428
N72	N	1.082780	0.862941	0.666761
C73	C	0.933378	0.022443	0.000098
C74	C	1.266712	0.355776	0.333431
C75	C	1.600045	0.689110	0.666764
C76	C	0.926349	-0.065042	0.000097
C77	C	1.259683	0.268292	0.333430
C78	C	1.593016	0.601625	0.666763
C79	C	0.994168	-0.111032	0.000105
C80	C	1.327501	0.222301	0.333438
C81	C	1.660835	0.555635	0.666772
C82	C	0.987559	-0.193233	0.000096
C83	C	1.320892	0.140100	0.333430
C84	C	1.654225	0.473433	0.666763
C85	C	0.913130	-0.229442	0.000086
C86	C	1.246464	0.103891	0.333419
C87	C	1.579797	0.437225	0.666752
C88	C	0.845307	-0.183446	0.000075
C89	C	1.178640	0.149888	0.333408
C90	C	1.511974	0.483221	0.666742
C91	C	0.851917	-0.101246	0.000078
C92	C	1.185250	0.232087	0.333411
C93	C	1.518583	0.565420	0.666744
C94	C	0.885735	-0.474757	0.000071
C95	C	1.219069	-0.141424	0.333404
C96	C	1.552402	0.191910	0.666738
C97	C	0.879131	-0.556962	0.000071
C98	C	1.212464	-0.223629	0.333404
C99	C	1.545797	0.109704	0.666738
C100	C	1.021383	-0.566744	0.000091
C101	C	1.354716	-0.233411	0.333424
C102	C	1.688050	0.099922	0.666758
C103	C	1.027986	-0.484543	0.000099
C104	C	1.361320	-0.151210	0.333432
C105	C	1.694653	0.182124	0.666765
C106	C	0.960163	-0.438554	0.000083
C107	C	1.293496	-0.105220	0.333417
C108	C	1.626829	0.228113	0.666750
N109	N	0.906373	-0.313465	0.000079
N110	N	1.239706	0.019869	0.333413
N111	N	1.573040	0.353202	0.666746
N112	N	0.966921	-0.354533	0.000084
N113	N	1.300254	-0.021200	0.333417
N114	N	1.633587	0.312134	0.666750
C115	C	1.080210	0.169275	0.000105
C116	C	1.413544	0.502608	0.333439
C117	C	1.746877	0.835942	0.666772
C118	C	1.167695	0.176304	0.000109
C119	C	1.501028	0.509637	0.333442
C120	C	1.834362	0.842971	0.666776
C121	C	0.939920	0.309563	0.000084
C122	C	1.273254	0.642896	0.333417
C123	C	1.606587	0.976229	0.666750
C124	C	0.946949	0.397047	0.000079
C125	C	1.280282	0.730380	0.333412
C126	C	1.613616	1.063714	0.666746
N127	N	0.946417	0.175800	0.216424
N128	N	1.279751	0.509133	0.549757
N129	N	1.613084	0.842467	0.883091
N130	N	0.926887	0.156200	-0.216241
N131	N	1.260220	0.489534	0.117093
N132	N	1.593554	0.822867	0.450426
C133	C	0.897673	0.127017	0.260139
C134	C	1.231006	0.460351	0.593473
C135	C	1.564340	0.793684	0.926806
C136	C	0.901639	0.130983	0.347544
C137	C	1.234972	0.464316	0.680878
C138	C	1.568305	0.797650	1.014211
C139	C	0.954353	0.183728	0.391232
C140	C	1.287687	0.517061	0.724566
C141	C	1.621020	0.850395	1.057899
C142	C	1.003100	0.232516	0.347511
C143	C	1.336433	0.565849	0.680844
C144	C	1.669766	0.899183	1.014177
C145	C	0.999130	0.228554	0.260107
C146	C	1.332463	0.561887	0.593441
C147	C	1.665796	0.895220	0.926774
C148	C	0.971663	0.201026	0.652634
C149	C	1.304997	0.534359	0.985968
C150	C	1.638330	0.867692	1.319301
C151	C	0.975631	0.204983	0.740044
C152	C	1.308965	0.538316	1.073377
C153	C	1.642298	0.871649	1.406710
C154	C	0.874169	0.103450	0.740072
C155	C	1.207502	0.436784	1.073405
C156	C	1.540836	0.770117	1.406738
C157	C	0.870207	0.099489	0.652666
C158	C	1.203540	0.432823	0.986000
C159	C	1.536874	0.766156	1.319333
C160	C	0.918950	0.148280	0.608952
C161	C	1.252284	0.481614	0.942286
C162	C	1.585617	0.814947	1.275619
N163	N	0.958410	0.187781	0.480574
N164	N	1.291743	0.521115	0.813908
N165	N	1.625077	0.854448	1.147241
N166	N	0.914889	0.144230	0.519612
N167	N	1.248223	0.477564	0.852945
N168	N	1.581556	0.810897	1.186279
H169	H	0.184209	0.047875	0.000119
H170	H	0.517542	0.381209	0.333452
H171	H	0.850875	0.714542	0.666785
F172	F	1.093560	-0.615695	0.000106
F173	F	1.426894	-0.282361	0.333439
F174	F	1.760227	0.050972	0.666772
F175	F	0.822294	0.051531	0.786601
F176	F	1.155627	0.384864	1.119935
F177	F	1.488960	0.718197	1.453268
F178	F	0.344827	0.042907	0.000119
F179	F	0.678160	0.376240	0.333453
F180	F	1.011494	0.709573	0.666786
H181	H	0.539969	0.272136	0.000072
H182	H	0.873303	0.605469	0.333405
H183	H	1.206636	0.938802	0.666739
H184	H	0.315577	0.317945	0.000071
H185	H	0.648910	0.651279	0.333404
H186	H	0.982244	0.984612	0.666737
F187	F	1.023523	0.252972	0.606122
F188	F	1.356856	0.586305	0.939455
F189	F	1.690189	0.919639	1.272788
H190	H	0.557715	0.014061	0.000110
H191	H	0.891049	0.347395	0.333443
H192	H	1.224382	0.680728	0.666777
H193	H	1.018559	0.247937	0.775612
H194	H	1.351892	0.581271	1.108945
H195	H	1.685226	0.914604	1.442279
H196	H	1.046018	0.275465	0.383088
H197	H	1.379351	0.608799	0.716422
H198	H	1.712685	0.942132	1.049755
F199	F	0.718348	0.009089	0.000091
F200	F	1.051681	0.342423	0.333424
F201	F	1.385014	0.675756	0.666758
F202	F	1.059741	-0.242176	0.000107
F203	F	1.393074	0.091157	0.333440
F204	F	1.726407	0.424490	0.666773
H205	H	0.796692	-0.063801	0.000071
H206	H	1.130025	0.269532	0.333404
H207	H	1.463358	0.602865	0.666737
H208	H	0.166449	0.305954	0.000092
H209	H	0.499782	0.639287	0.333426
H210	H	0.833115	0.972621	0.666759
F211	F	1.073385	-0.072503	0.000125
F212	F	1.406719	0.260830	0.333458
F213	F	1.740052	0.594163	0.666791
F214	F	1.051012	0.280473	0.213582
F215	F	1.384345	0.613807	0.546916
F216	F	1.717678	0.947140	0.880249
F217	F	0.698140	0.302736	0.000048
F218	F	1.031473	0.636069	0.333382
F219	F	1.364806	0.969402	0.666715
F220	F	1.107202	-0.446014	0.000089
F221	F	1.440535	-0.112681	0.333422
F222	F	1.773869	0.220653	0.666756
H223	H	0.818520	-0.586440	0.000076
H224	H	1.151853	-0.253107	0.333409
H225	H	1.485187	0.080227	0.666742
F226	F	0.813550	-0.425822	0.000053
F227	F	1.146883	-0.092489	0.333386
F228	F	1.480217	0.240844	0.666720
H229	H	0.784705	-0.212933	0.000061
H230	H	1.118039	0.120400	0.333394
H231	H	1.451372	0.453733	0.666727
H232	H	0.861946	0.091259	0.383134
H233	H	1.195280	0.424592	0.716467
H234	H	1.528613	0.757925	1.049800
F235	F	0.841573	0.070872	0.213651
F236	F	1.174906	0.404205	0.546985
F237	F	1.508240	0.737539	0.880318
H238	H	0.827283	0.056537	0.617102
H239	H	1.160617	0.389870	0.950435
H240	H	1.493950	0.723203	1.283768
