data_functionalizedCrystal
_audit_creation_method	'MofGen! by Chris Wilmer'
_symmetry_space_group_name_H-M	'P1'
_symmetry_Int_Tables_number	1
_symmetry_cell_setting	triclinic
loop_
_symmetry_equiv_pos_as_xyz
  x,y,z
_cell_length_a	19.188930
_cell_length_b	16.992694
_cell_length_c	16.053802
_cell_angle_alpha	92.750953
_cell_angle_beta	92.551696
_cell_angle_gamma	93.093497
loop_
_atom_site_label
_atom_site_type_symbol
_atom_site_fract_x
_atom_site_fract_y
_atom_site_fract_z
O1	O	0.145267	-1.043197	-0.069340
O2	O	0.143642	-0.814918	-0.069364
O3	O	0.043185	-0.935644	-0.069335
O4	O	0.245724	-0.922471	-0.069369
O5	O	0.048690	-0.928999	0.069522
O6	O	0.149147	-0.808273	0.069493
O7	O	0.150772	-1.036552	0.069517
Zn8	Zn	0.150834	-0.921357	0.091552
Zn9	Zn	0.143581	-0.930113	-0.091399
O10	O	0.251229	-0.915826	0.069488
C11	C	0.144306	-0.782390	0.000061
C12	C	0.138072	-0.695368	0.000053
C13	C	0.019902	-0.931895	0.000096
C14	C	-0.057677	-0.930614	0.000103
C15	C	0.150109	-1.069080	0.000090
C16	C	0.156342	-1.156102	0.000093
C17	C	-0.098456	-1.001452	0.000114
C18	C	-0.171350	-1.000250	0.000101
C19	C	-0.203463	-0.928204	0.000093
C20	C	-0.162676	-0.857356	0.000076
C21	C	-0.089783	-0.858561	0.000081
N22	N	-0.312817	-0.870872	0.047342
N23	N	-0.382063	-0.869732	0.047339
C24	C	-0.423085	-0.924569	0.000075
N25	N	-0.392247	-0.980600	-0.047175
N26	N	-0.322995	-0.981742	-0.047168
C27	C	-0.282503	-0.926889	0.000086
C28	C	-0.542905	-0.994108	0.000071
C29	C	-0.615801	-0.992903	0.000052
C30	C	-0.607124	-0.850007	0.000036
C31	C	-0.534230	-0.851215	0.000046
C32	C	-0.502125	-0.923267	0.000068
C33	C	0.274513	-0.919575	0.000055
C34	C	0.352091	-0.920856	0.000043
N35	N	0.155784	-0.915388	0.216410
C36	C	0.198212	-0.644922	0.000043
C37	C	0.192351	-0.563155	0.000056
C38	C	0.126351	-0.531836	0.000072
C39	C	0.066208	-0.582288	0.000084
C40	C	0.072069	-0.664054	0.000077
C41	C	0.102059	-0.288320	0.000098
C42	C	0.096203	-0.206548	0.000102
C43	C	0.222347	-0.187420	0.000076
C44	C	0.228202	-0.269188	0.000064
C45	C	0.168059	-0.319633	0.000081
N46	N	0.120359	-0.448257	0.000082
N47	N	0.174051	-0.403210	0.000076
N48	N	0.138625	-0.936088	-0.216258
C49	C	0.113057	-0.966776	0.260117
C50	C	0.116526	-0.962607	0.347523
C51	C	0.162727	-0.907054	0.391220
C52	C	0.205456	-0.855661	0.347508
C53	C	0.201983	-0.859826	0.260104
C54	C	0.177881	-0.888860	0.652626
C55	C	0.181353	-0.884700	0.740036
C56	C	0.092421	-0.991646	0.740045
C57	C	0.088955	-0.995810	0.652639
C58	C	0.131681	-0.944414	0.608934
N59	N	0.166276	-0.902794	0.480563
N60	N	0.128128	-0.948671	0.519593
H61	H	-0.204558	-1.057937	0.000107
N62	N	0.070449	-1.018052	0.394650
H63	H	0.039283	-0.986495	0.430930
H64	H	0.040711	-1.053864	0.353640
H65	H	0.241323	-0.522084	0.000047
H66	H	-0.188827	-0.798696	0.000068
N67	N	-0.063831	-1.079165	0.000113
H68	H	-0.011465	-1.069183	0.000110
H69	H	-0.076430	-1.107696	0.051589
N70	N	0.269401	-0.678690	0.000027
H71	H	0.276687	-0.709734	0.051497
H72	H	0.272561	-0.714605	-0.051486
N73	N	-0.490244	-0.774807	0.000053
H74	H	-0.439194	-0.786502	0.000059
H75	H	-0.503122	-0.745859	-0.051426
H76	H	0.042455	-0.181053	0.000114
N77	N	0.039125	-1.055728	0.605509
H78	H	0.012582	-1.087650	0.646460
H79	H	0.005133	-1.027553	0.569257
N80	N	-0.659787	-1.069311	0.000061
H81	H	-0.628384	-1.115135	0.000078
H82	H	-0.688189	-1.069453	0.051535
H83	H	-0.056581	-0.800874	0.000072
H84	H	0.281946	-0.294682	0.000042
H85	H	0.057635	-1.033489	0.775637
H86	H	0.053086	-0.329383	0.000112
H87	H	-0.516763	-1.052778	0.000085
N88	N	0.231193	-0.824787	0.787170
H89	H	0.257735	-0.792861	0.746222
H90	H	0.203962	-0.788499	0.823456
N91	N	0.255293	-0.795744	0.394630
H92	H	0.243515	-0.740860	0.379432
H93	H	0.250992	-0.800971	0.456619
H94	H	-0.633270	-0.791346	0.000025
N95	N	0.287213	-0.133013	0.000060
H96	H	0.273488	-0.076462	0.000067
H97	H	0.317820	-0.140674	0.051530
N98	N	0.063229	-1.026699	0.212989
H99	H	0.036688	-1.058619	0.253943
H100	H	0.029237	-0.998524	0.176737
H101	H	0.012469	-0.556782	0.000109
H102	H	0.236775	-0.817980	0.224519
N103	N	0.007205	-0.718467	0.000094
H104	H	-0.035495	-0.686221	0.000104
H105	H	0.004845	-0.755267	-0.051382
H106	H	0.212672	-0.847013	0.617048
