data_functionalizedCrystal
_audit_creation_method	'MofGen! by Chris Wilmer'
_symmetry_space_group_name_H-M	'P1'
_symmetry_Int_Tables_number	1
_symmetry_cell_setting	triclinic
loop_
_symmetry_equiv_pos_as_xyz
  x,y,z
_cell_length_a	8.597340
_cell_length_b	7.088929
_cell_length_c	14.971486
_cell_angle_alpha	96.231414
_cell_angle_beta	84.479047
_cell_angle_gamma	76.045281
loop_
_atom_site_label
_atom_site_type_symbol
_atom_site_fract_x
_atom_site_fract_y
_atom_site_fract_z
O1	O	2.101601	-0.187209	0.122841
O2	O	1.636946	-0.110662	0.137443
O3	O	1.881729	-0.151001	-0.000076
O4	O	1.856818	-0.146870	0.260360
O5	O	1.914442	-0.474367	-0.018495
O6	O	1.669659	-0.434028	0.119024
O7	O	2.134314	-0.510575	0.104422
Cu8	Cu	1.904973	-0.501827	0.110041
Cu9	Cu	1.866287	-0.119409	0.131824
O10	O	1.889531	-0.470236	0.241941
C11	C	1.593838	-0.262549	0.127691
C12	C	1.416654	-0.233360	0.126066
N13	N	1.932195	-0.770801	0.094719
C14	C	2.177421	-0.358683	0.114174
C15	C	2.354605	-0.387859	0.115800
C16	C	1.896972	-0.312500	-0.042609
C17	C	1.893633	-0.311948	-0.141901
N18	N	1.839078	0.149563	0.147139
C19	C	2.037436	-0.335639	-0.199325
C20	C	2.034288	-0.335101	-0.292619
C21	C	1.887337	-0.310886	-0.328488
C22	C	1.743523	-0.287187	-0.271056
C23	C	1.746671	-0.287711	-0.177763
C24	C	1.736971	-0.286101	-0.465509
C25	C	1.733823	-0.285580	-0.558809
C26	C	2.024588	-0.333491	-0.580365
C27	C	2.027736	-0.334015	-0.487072
C28	C	1.883922	-0.310320	-0.429647
C29	C	1.874288	-0.308733	0.284474
C30	C	1.877625	-0.309271	0.383767
H31	H	1.437035	-0.542471	0.108249
Cl32	Cl	2.215078	-0.364892	-0.364807
Cl33	Cl	2.212476	-0.364448	-0.441981
Cl34	Cl	1.690076	-0.699830	0.231010
Cl35	Cl	2.081221	-0.921420	0.010854
H36	H	2.157101	-0.355370	-0.170130
Cl37	Cl	2.205383	-0.363269	-0.652556
H38	H	1.334216	-0.078738	0.133611
H39	H	1.614166	-0.265893	-0.588011
Cl40	Cl	1.556172	-0.256311	-0.393318
Cl41	Cl	1.558780	-0.256720	-0.316147
Cl42	Cl	1.565882	-0.257919	-0.105571
