data_functionalizedCrystal
_audit_creation_method	'MofGen! by Chris Wilmer'
_symmetry_space_group_name_H-M	'P1'
_symmetry_Int_Tables_number	1
_symmetry_cell_setting	triclinic
loop_
_symmetry_equiv_pos_as_xyz
  x,y,z
_cell_length_a	6.817900
_cell_length_b	19.551823
_cell_length_c	9.170709
_cell_angle_alpha	86.455093
_cell_angle_beta	112.460645
_cell_angle_gamma	101.663376
loop_
_atom_site_label
_atom_site_type_symbol
_atom_site_fract_x
_atom_site_fract_y
_atom_site_fract_z
V1	V	-4.103136	-0.066659	-0.486861
O2	O	-4.098305	0.034044	-0.476843
O3	O	-4.045370	-0.161835	-0.484253
O4	O	-4.092042	-0.052101	-0.698869
O5	O	-4.051310	-0.076449	-0.260741
V6	V	-4.583144	-0.056213	-0.459728
O7	O	-4.372106	-0.089574	-0.546380
O8	O	-4.764371	-0.033298	-0.400208
O9	O	-4.417703	0.038963	-0.462336
O10	O	-4.705372	-0.156915	-0.469746
O11	O	-4.752367	-0.046422	-0.685847
O12	O	-4.371031	-0.070770	-0.247720
C13	C	-3.886885	-0.185459	-0.476758
C14	C	-3.921190	-0.263180	-0.476039
C15	C	-3.946419	-0.045482	-0.750521
C16	C	-4.018569	-0.034209	-0.923843
C17	C	-4.120444	-0.302766	-0.483498
C18	C	-4.152684	-0.375793	-0.482838
C19	C	-3.985645	-0.409230	-0.474687
C20	C	-3.786367	-0.369635	-0.467236
C21	C	-3.754140	-0.296610	-0.467912
C22	C	-3.855019	-0.521814	-0.375818
C23	C	-3.887250	-0.594838	-0.375133
C24	C	-4.085042	-0.634464	-0.472609
C25	C	-4.250624	-0.601059	-0.570751
C26	C	-4.218397	-0.528033	-0.571427
C27	C	-4.020571	-0.488414	-0.473954
C28	C	-4.319268	-0.753235	-0.479354
C29	C	-4.351506	-0.826263	-0.478704
C30	C	-3.985176	-0.820104	-0.463086
C31	C	-3.952951	-0.747077	-0.463753
C32	C	-4.120001	-0.713647	-0.471880
C33	C	-4.239529	0.062584	-0.469826
C34	C	-4.184464	0.140305	-0.470556
C35	C	-4.179995	-0.077392	-0.196060
C36	C	-4.087083	-0.088661	-0.022736
H37	H	-4.314946	-0.408030	-0.488911
F38	F	-4.298228	-0.267191	-0.492129
F39	F	-4.394611	-0.492483	-0.675881
F40	F	-4.461144	-0.643227	-0.674498
H41	H	-4.455290	-0.726014	-0.485969
H42	H	-4.090554	-0.143906	-0.974808
F43	F	-4.563594	-0.868393	-0.486654
F44	F	-4.014056	0.038005	-0.986491
H45	H	-3.650366	-0.396865	-0.460603
H46	H	-3.790694	-0.714846	-0.457669
F47	F	-3.807403	-0.855686	-0.454427
H48	H	-3.752426	-0.622031	-0.295210
H49	H	-3.693940	-0.489555	-0.296447
F50	F	-3.542057	-0.254478	-0.459972
