data_functionalizedCrystal
_audit_creation_method	'MofGen! by Chris Wilmer'
_symmetry_space_group_name_H-M	'P1'
_symmetry_Int_Tables_number	1
_symmetry_cell_setting	triclinic
loop_
_symmetry_equiv_pos_as_xyz
  x,y,z
_cell_length_a	10.654549
_cell_length_b	17.019294
_cell_length_c	9.730217
_cell_angle_alpha	86.117784
_cell_angle_beta	89.997559
_cell_angle_gamma	83.939241
loop_
_atom_site_label
_atom_site_type_symbol
_atom_site_fract_x
_atom_site_fract_y
_atom_site_fract_z
O1	O	1.666098	0.110811	-0.127435
O2	O	1.300454	0.121363	-0.128679
O3	O	1.493477	0.001311	-0.114467
O4	O	1.473075	0.230864	-0.141647
O5	O	1.493471	0.001310	0.114113
O6	O	1.300448	0.121362	0.099901
O7	O	1.666092	0.110810	0.101145
Zn8	Zn	1.483269	0.116086	0.136815
Zn9	Zn	1.483277	0.116088	-0.164349
O10	O	1.473069	0.230863	0.086933
C11	C	1.253666	0.120587	-0.014297
C12	C	1.114259	0.118267	-0.014020
C13	C	0.822094	0.257466	-0.030541
C14	C	0.872490	0.330336	-0.039163
C15	C	1.003474	0.332519	-0.039404
C16	C	1.084066	0.261824	-0.031025
C17	C	1.033671	0.188954	-0.022402
C18	C	0.902682	0.186779	-0.022159
C19	C	1.063863	0.045397	-0.005398
C20	C	0.932880	0.043212	-0.005147
C21	C	1.144456	-0.025298	0.002981
C22	C	1.094061	-0.098170	0.011613
C23	C	0.963068	-0.100350	0.011855
C24	C	0.882484	-0.029658	0.003475
C25	C	1.492700	-0.028083	0.003300
C26	C	1.490380	-0.115666	0.013662
C27	C	1.489296	-0.156808	-0.106069
C28	C	1.487108	-0.239101	-0.096329
C29	C	1.486013	-0.280251	0.033143
C30	C	1.487093	-0.239104	0.152882
C31	C	1.489272	-0.156812	0.143141
C32	C	1.479425	-0.528720	0.068789
C33	C	1.477250	-0.611018	0.078522
C34	C	1.477262	-0.611010	-0.170690
C35	C	1.479449	-0.528717	-0.180420
C36	C	1.480523	-0.487576	-0.060681
C37	C	1.483780	-0.364368	0.043102
C38	C	1.482746	-0.403459	-0.070641
C39	C	1.712880	0.111587	-0.013241
C40	C	1.852287	0.113907	-0.013526
C41	C	1.473846	0.260257	-0.030838
C42	C	1.476166	0.347840	-0.041208
N43	N	1.483273	0.116085	0.342352
N44	N	1.483283	0.116083	-0.369885
C45	C	1.654264	0.009809	0.354923
C46	C	1.739767	-0.043326	0.433149
C47	C	1.739780	-0.043327	0.577028
C48	C	1.654277	0.009813	0.642686
C49	C	1.568774	0.062948	0.564460
C50	C	1.568773	0.062944	0.420578
C51	C	1.397779	0.169218	0.551889
C52	C	1.397770	0.169224	0.408009
C53	C	1.312277	0.222357	0.617546
C54	C	1.226777	0.275498	0.539320
C55	C	1.226769	0.275496	0.395432
C56	C	1.312267	0.222359	0.329783
H57	H	0.775828	-0.031426	0.003683
H58	H	1.490195	-0.123310	-0.211498
H59	H	1.483629	-0.369950	-0.176057
H60	H	0.922046	-0.159690	0.018869
H61	H	1.159689	-0.155724	0.018425
H62	H	1.312272	0.222356	0.212629
H63	H	1.480343	-0.495217	-0.285850
H64	H	1.476386	-0.644515	-0.268175
H65	H	1.157137	0.318763	0.331748
H66	H	1.654272	0.009811	0.237769
H67	H	1.482893	-0.397883	0.148519
H68	H	1.476352	-0.644520	0.183959
H69	H	1.809381	-0.086593	0.379678
H70	H	1.809400	-0.086597	0.640721
H71	H	0.715439	0.255696	-0.030322
H72	H	0.806857	0.387894	-0.045990
H73	H	1.486231	-0.272595	-0.193826
H74	H	1.480324	-0.495235	0.166290
H75	H	1.490137	-0.123314	0.240638
H76	H	1.486194	-0.272615	0.258301
H77	H	1.044504	0.391856	-0.046423
H78	H	1.654283	0.009802	0.759841
H79	H	1.312285	0.222351	0.734702
H80	H	1.157161	0.318756	0.592788
H81	H	1.251109	-0.023516	0.002778
H82	H	1.190719	0.263608	-0.031238
