data_functionalizedCrystal
_audit_creation_method	'MofGen! by Chris Wilmer'
_symmetry_space_group_name_H-M	'P1'
_symmetry_Int_Tables_number	1
_symmetry_cell_setting	triclinic
loop_
_symmetry_equiv_pos_as_xyz
  x,y,z
_cell_length_a	17.052862
_cell_length_b	14.628931
_cell_length_c	14.628931
_cell_angle_alpha	60.000000
_cell_angle_beta	90.000017
_cell_angle_gamma	50.259347
loop_
_atom_site_label
_atom_site_type_symbol
_atom_site_fract_x
_atom_site_fract_y
_atom_site_fract_z
Zr1	Zr	0.914390	0.679068	0.040792
O2	O	0.762831	0.923064	-0.131814
O3	O	0.960852	0.472025	0.093706
O4	O	0.960851	0.662731	-0.097001
O5	O	0.762832	0.732358	0.209324
O6	O	1.117052	0.607809	-0.069540
O7	O	0.762831	0.732358	0.058892
O8	O	1.117054	0.266670	0.271599
O9	O	0.762830	1.073497	-0.131814
O10	O	1.097238	0.502510	0.136766
O11	O	0.980667	0.543498	0.228538
O12	O	0.980666	0.768030	0.004006
O13	O	0.864095	0.809018	0.095778
Zr14	Zr	1.163514	0.591472	0.324511
Zr15	Zr	1.163514	0.591472	0.084589
Zr16	Zr	0.914391	0.679067	0.280714
Zr17	Zr	0.914390	0.918990	0.040792
Zr18	Zr	1.163515	0.351550	0.324512
O19	O	1.117053	0.798515	0.271598
O20	O	1.117052	0.798515	-0.069540
O21	O	0.762831	0.923064	0.209324
O22	O	1.315074	0.347476	0.497117
O23	O	1.315073	0.347476	0.155980
O24	O	0.960852	0.472025	0.434843
O25	O	1.315073	0.538182	0.155979
O26	O	1.117053	0.607808	0.462304
O27	O	0.960852	0.662731	0.434843
O28	O	1.315073	0.538182	0.306411
O29	O	0.960850	1.003870	-0.097001
O30	O	1.117054	0.266670	0.462305
O31	O	1.315074	0.197043	0.497118
O32	O	1.315074	0.197043	0.306412
O33	O	0.762831	1.073496	0.058891
O34	O	0.960850	1.003870	0.093704
O35	O	1.097238	0.502510	0.361297
O36	O	1.213810	0.461522	0.269526
O37	O	1.097237	0.727042	0.136765
O38	O	0.980666	0.768030	0.228537
C39	C	1.038953	0.335164	0.182652
C40	C	1.038953	0.233311	0.182653
C41	C	0.957173	0.295416	0.089516
C42	C	0.957171	0.190148	0.089514
C43	C	0.727337	0.744838	0.127868
C44	C	0.621577	0.782025	0.109275
C45	C	0.566863	0.332439	0.334063
C46	C	0.666231	0.297495	0.351528
C47	C	0.655073	0.418624	0.290967
C48	C	0.544536	0.574704	0.212937
C49	C	0.445158	0.609651	0.195463
C50	C	0.533368	0.695836	0.152366
C51	C	0.422831	0.851915	0.074336
C52	C	0.323464	0.886856	0.056867
C53	C	0.334622	0.765727	0.117428
C54	C	0.632746	0.660889	0.169840
C55	C	0.511041	0.938101	0.031240
C56	C	0.411673	0.973044	0.013775
C57	C	1.350567	0.525701	0.237435
C58	C	1.456327	0.488515	0.256028
C59	C	1.038951	0.635270	-0.117454
C60	C	1.038951	0.635270	-0.219307
C61	C	1.038951	0.935376	0.182651
C62	C	1.038951	1.037229	0.182651
C63	C	1.120731	0.606515	-0.250339
C64	C	1.120733	0.606515	-0.355609
C65	C	1.038953	0.635270	0.482757
C66	C	1.038953	0.635270	0.584610
C67	C	1.350568	0.225595	0.237436
C68	C	1.456328	0.086556	0.256029
C69	C	1.038953	0.335164	0.482758
C70	C	1.038954	0.233310	0.584611
C71	C	1.350569	0.225595	0.537541
C72	C	1.456329	0.086555	0.657988
C73	C	0.727335	1.044945	-0.172238
C74	C	0.621576	1.183985	-0.292685
C75	C	0.727336	1.044944	0.127867
C76	C	0.621577	1.183984	0.109274
C77	C	1.038951	0.935376	-0.117455
C78	C	1.038950	1.037230	-0.219308
C79	C	1.445144	0.042656	0.195452
C80	C	1.544507	-0.087970	0.212898
C81	C	1.655052	-0.174701	0.290929
C82	C	1.666233	-0.130792	0.351508
C83	C	1.566872	-0.000161	0.334055
C84	C	1.566854	-0.000138	0.666649
C85	C	1.666236	-0.130771	0.779813
C86	C	1.655090	-0.174714	0.884315
C87	C	1.544553	-0.088007	0.875650
C88	C	1.445174	0.042630	0.762487
C89	C	0.511050	1.270690	-0.301345
C90	C	0.411668	1.401352	-0.414510
C91	C	0.422814	1.445300	-0.519012
C92	C	0.533351	1.358587	-0.510347
C93	C	0.632731	1.227934	-0.397184
C94	C	0.632760	1.227893	0.169841
C95	C	0.533397	1.358546	0.152369
C96	C	0.422852	1.445281	0.074334
C97	C	0.411671	1.401367	0.013760
C98	C	0.511033	1.270723	0.031227
C99	C	1.096781	0.167568	0.695878
C100	C	1.096783	0.062297	0.801150
H101	H	0.722739	0.533807	0.233381
F102	F	0.294011	1.493690	-0.069285
F103	F	0.865659	0.466777	-0.014712
F104	F	0.865648	0.259428	-0.014710
H105	H	1.108966	-0.015776	0.262396
F106	F	1.760870	-0.313756	1.004747
F107	F	0.317111	1.584320	0.055758
F108	F	0.499112	1.224001	-0.033238
F109	F	0.947440	0.667438	-0.286437
H110	H	0.321661	1.100125	-0.049759
H111	H	0.542412	1.394387	-0.595447
H112	H	1.108968	0.102206	0.262388
H113	H	0.501952	1.036734	-0.018076
F114	F	1.161485	0.195872	0.718528
H115	H	1.146293	0.005836	0.896585
F116	F	0.974247	0.111005	0.655962
F117	F	0.294038	1.493614	-0.423706
F118	F	0.760832	0.381430	0.309557
F119	F	1.783866	-0.223034	0.789010
F120	F	1.212246	0.574346	-0.390564
F121	F	1.532709	-0.134794	0.986882
H122	H	1.355183	0.113204	0.755451
H123	H	0.968930	0.659898	-0.388660
H124	H	0.501953	1.234920	-0.216267
F125	F	0.317034	1.584357	-0.639444
F126	F	1.327503	0.134945	0.112396
F127	F	0.974235	0.205026	0.561959
H128	H	0.722723	1.157338	-0.390146
F129	F	1.212254	0.574325	-0.183199
F130	F	0.228865	0.802909	0.098854
H131	H	1.535381	-0.123701	0.163564
H132	H	1.735950	-0.281066	0.305131
H133	H	0.756225	0.170415	0.415047
F134	F	1.783893	-0.223117	0.434555
F135	F	0.750401	1.135607	0.252895
H136	H	0.575933	0.233832	0.383359
F137	F	0.205823	1.052970	-0.026188
H138	H	1.575951	0.035618	0.581570
F139	F	1.578792	0.046536	0.398543
F140	F	0.545321	1.405252	0.216851
