data_functionalizedCrystal
_audit_creation_method	'MofGen! by Chris Wilmer'
_symmetry_space_group_name_H-M	'P1'
_symmetry_Int_Tables_number	1
_symmetry_cell_setting	triclinic
loop_
_symmetry_equiv_pos_as_xyz
  x,y,z
_cell_length_a	14.971486
_cell_length_b	15.500227
_cell_length_c	14.971486
_cell_angle_alpha	92.831336
_cell_angle_beta	96.385871
_cell_angle_gamma	92.842940
loop_
_atom_site_label
_atom_site_type_symbol
_atom_site_fract_x
_atom_site_fract_y
_atom_site_fract_z
O1	O	1.191095	0.071845	-0.112420
O2	O	1.691095	0.571845	0.387580
O3	O	0.930696	0.071868	-0.126378
O4	O	1.430696	0.571868	0.373622
O5	O	1.067875	0.071850	0.010801
O6	O	1.567875	0.571850	0.510801
O7	O	1.053917	0.071863	-0.249599
O8	O	1.553917	0.571863	0.250401
O9	O	1.059550	-0.072038	0.002509
O10	O	1.559550	0.427962	0.502509
O11	O	0.922372	-0.072019	-0.134670
O12	O	1.422372	0.427981	0.365330
O13	O	1.182771	-0.072043	-0.120712
O14	O	1.682771	0.427957	0.379288
Cu15	Cu	1.051811	-0.085169	-0.128448
Cu16	Cu	1.551811	0.414831	0.371552
Cu17	Cu	1.061656	0.084995	-0.118642
Cu18	Cu	1.561656	0.584995	0.381358
O19	O	1.045592	-0.072024	-0.257890
O20	O	1.545592	0.427976	0.242110
C21	C	0.893210	-0.000073	-0.129899
C22	C	1.393210	0.499927	0.370101
C23	C	0.793913	-0.000064	-0.128028
C24	C	1.293913	0.499936	0.371972
N25	N	1.044894	-0.204853	-0.135344
N26	N	1.544894	0.295147	0.364656
C27	C	0.736688	-0.000061	-0.208617
C28	C	1.236688	0.499939	0.291383
C29	C	0.643388	-0.000074	-0.206855
C30	C	1.143388	0.499926	0.293145
C31	C	0.607315	-0.000083	-0.124502
C32	C	1.107315	0.499917	0.375498
C33	C	0.664547	-0.000089	-0.043907
C34	C	1.164547	0.499911	0.456093
C35	C	0.757845	-0.000082	-0.045671
C36	C	1.257845	0.499918	0.454329
C37	C	0.470084	-0.000101	-0.040237
C38	C	0.970084	0.499899	0.459763
C39	C	0.376780	-0.000106	-0.038472
C40	C	0.876780	0.499894	0.461528
C41	C	0.355627	-0.000093	-0.201421
C42	C	0.855627	0.499907	0.298579
C43	C	0.448925	-0.000086	-0.203184
C44	C	0.948925	0.499914	0.296816
C45	C	0.506151	-0.000090	-0.122589
C46	C	1.006151	0.499910	0.377411
C47	C	1.103041	-0.250138	-0.077238
C48	C	1.603041	0.249862	0.422762
C49	C	1.097818	-0.340710	-0.082462
C50	C	1.597818	0.159290	0.417538
C51	C	1.034451	-0.385996	-0.145797
C52	C	1.534451	0.114004	0.354203
C53	C	0.976297	-0.340705	-0.203905
C54	C	1.476297	0.159295	0.296095
C55	C	0.981517	-0.250134	-0.198676
C56	C	1.481517	0.249866	0.301324
C57	C	1.015647	-0.659460	-0.164618
C58	C	1.515647	-0.159460	0.335382
C59	C	1.010433	-0.750037	-0.169845
C60	C	1.510433	-0.250037	0.330155
C61	C	1.131953	-0.750036	-0.048400
C62	C	1.631953	-0.250036	0.451600
C63	C	1.137171	-0.659463	-0.043180
C64	C	1.637171	-0.159463	0.456820
C65	C	1.079015	-0.614180	-0.101285
C66	C	1.579015	-0.114180	0.398715
C67	C	1.029112	-0.478575	-0.151140
C68	C	1.529112	0.021425	0.348860
C69	C	1.084350	-0.521603	-0.095937
C70	C	1.584350	-0.021603	0.404063
C71	C	1.220258	-0.000100	-0.117191
C72	C	1.720258	0.499900	0.382809
C73	C	1.319555	-0.000103	-0.119061
C74	C	1.819555	0.499897	0.380939
C75	C	1.063088	-0.000094	0.039979
C76	C	1.563088	0.499906	0.539979
C77	C	1.061218	-0.000093	0.139277
C78	C	1.561218	0.499907	0.639277
N79	N	1.068581	0.204679	-0.111739
N80	N	1.568581	0.704679	0.388261
C81	C	1.050379	-0.000079	-0.287069
C82	C	1.550379	0.499921	0.212931
C83	C	1.052250	-0.000074	-0.386366
C84	C	1.552250	0.499926	0.113634
C85	C	1.141807	-0.000101	0.196501
C86	C	1.641807	0.499899	0.696501
C87	C	1.140044	-0.000092	0.289801
C88	C	1.640044	0.499908	0.789801
C89	C	1.057691	-0.000081	0.325874
C90	C	1.557691	0.499919	0.825874
C91	C	0.977096	-0.000071	0.268642
C92	C	1.477096	0.499929	0.768642
C93	C	0.978860	-0.000073	0.175344
C94	C	1.478860	0.499927	0.675344
C95	C	0.973426	-0.000067	0.463105
C96	C	1.473426	0.499933	0.963105
C97	C	0.971661	-0.000066	0.556409
C98	C	1.471661	0.499934	1.056409
C99	C	1.134609	-0.000086	0.577562
C100	C	1.634609	0.499914	1.077562
C101	C	1.136373	-0.000088	0.484264
C102	C	1.636373	0.499912	0.984264
C103	C	1.055778	-0.000080	0.427038
C104	C	1.555778	0.499920	0.927038
H105	H	0.766051	-0.000052	-0.275678
H106	H	1.266051	0.499948	0.224322
Cl107	Cl	0.829786	-0.000090	0.055646
Cl108	Cl	1.329786	0.499910	0.555646
Cl109	Cl	1.182712	-0.193216	0.002383
Cl110	Cl	1.682712	0.306784	0.502383
Cl111	Cl	1.245341	-0.000123	0.151162
Cl112	Cl	1.745341	0.499877	0.651162
Cl113	Cl	0.331430	-0.000148	0.065056
Cl114	Cl	0.831430	0.499852	0.565056
H115	H	0.977518	-0.515454	-0.202710
H116	H	1.477518	-0.015454	0.297290
H117	H	0.596798	-0.000070	-0.272479
H118	H	1.096798	0.499930	0.227521
H119	H	0.924697	-0.377582	-0.255471
H120	H	1.424697	0.122418	0.244529
H121	H	0.478292	-0.000070	-0.270243
H122	H	0.978292	0.499930	0.229757
Cl123	Cl	1.170918	-0.397641	-0.009413
Cl124	Cl	1.670918	0.102359	0.490587
Cl125	Cl	0.942541	-0.602539	-0.237666
Cl126	Cl	1.442541	-0.102539	0.262334
H127	H	1.188770	-0.622593	0.008392
H128	H	1.688770	-0.122593	0.508392
Cl129	Cl	0.283686	-0.000090	-0.302741
Cl130	Cl	0.783686	0.499910	0.197259
H131	H	0.913237	-0.000067	0.128752
H132	H	1.413237	0.499933	0.628752
Cl133	Cl	0.619198	-0.000107	0.059623
Cl134	Cl	1.119198	0.499893	0.559623
H135	H	0.516676	-0.000106	0.025393
H136	H	1.016676	0.499894	0.525393
H137	H	1.179301	-0.786913	-0.001092
H138	H	1.679301	-0.286913	0.498908
H139	H	1.205667	-0.000100	0.336391
H140	H	1.705667	0.499900	0.836391
Cl141	Cl	0.930765	-0.806962	-0.249475
Cl142	Cl	1.430765	-0.306962	0.250525
Cl143	Cl	0.908410	-0.193206	-0.271724
Cl144	Cl	1.408410	0.306794	0.228276
Cl145	Cl	1.164006	-0.464671	-0.016316
Cl146	Cl	1.664006	0.035329	0.483684
Cl147	Cl	1.239904	-0.000097	0.438917
Cl148	Cl	1.739904	0.499903	0.938917
Cl149	Cl	0.868131	-0.000054	0.601757
Cl150	Cl	1.368131	0.499946	1.101757
H151	H	1.200233	-0.000090	0.624160
H152	H	1.700233	0.499910	1.124160
Cl153	Cl	0.872104	-0.000056	0.391165
Cl154	Cl	1.372104	0.499944	0.891165
H155	H	0.910044	-0.000057	0.298020
H156	H	1.410044	0.499943	0.798020
