data_functionalizedCrystal
_audit_creation_method	'MofGen! by Chris Wilmer'
_symmetry_space_group_name_H-M	'P1'
_symmetry_Int_Tables_number	1
_symmetry_cell_setting	triclinic
loop_
_symmetry_equiv_pos_as_xyz
  x,y,z
_cell_length_a	14.971506
_cell_length_b	17.699097
_cell_length_c	13.448316
_cell_angle_alpha	89.989643
_cell_angle_beta	89.994977
_cell_angle_gamma	83.455409
loop_
_atom_site_label
_atom_site_type_symbol
_atom_site_fract_x
_atom_site_fract_y
_atom_site_fract_z
O1	O	0.113168	1.004357	-0.082771
O2	O	0.127872	0.784017	-0.082754
O3	O	-0.009699	0.900085	-0.082761
O4	O	0.250739	0.888290	-0.082765
O5	O	-0.009707	0.900070	0.082623
O6	O	0.127863	0.784003	0.082629
O7	O	0.113160	1.004343	0.082613
Cu8	Cu	0.120511	0.894171	0.097722
Cu9	Cu	0.120521	0.894189	-0.097864
O10	O	0.250730	0.888275	0.082619
C11	C	0.127338	0.755812	-0.000060
C12	C	0.125752	0.671790	-0.000054
C13	C	0.116031	0.156055	-0.090245
C14	C	0.117516	0.235003	-0.090240
C15	C	0.118255	0.274463	-0.000085
C16	C	0.117500	0.234972	0.090071
C17	C	0.116009	0.156026	0.090065
C18	C	0.123513	0.553351	0.090097
C19	C	0.125006	0.632302	0.090096
C20	C	0.125019	0.632328	-0.090208
C21	C	0.123528	0.553383	-0.090214
C22	C	0.122769	0.513899	-0.000059
C23	C	0.121157	0.428295	-0.000065
C24	C	0.119873	0.360065	-0.000078
C25	C	-0.043026	0.899547	-0.000070
C26	C	-0.142317	0.897958	-0.000074
C27	C	-0.580809	0.960082	-0.000078
C28	C	-0.487514	0.961569	-0.000072
C29	C	-0.430064	0.893375	-0.000071
C30	C	-0.465912	0.823689	-0.000065
C31	C	-0.559206	0.822203	-0.000064
C32	C	-0.271460	0.826792	-0.000069
C33	C	-0.178160	0.828278	-0.000072
C34	C	-0.199768	0.966158	-0.000077
C35	C	-0.293061	0.964672	-0.000076
C36	C	-0.328904	0.894986	-0.000073
C37	C	0.284057	0.888812	-0.000074
C38	C	0.383348	0.890402	-0.000076
C39	C	0.113693	1.032548	-0.000083
C40	C	0.115279	1.116570	-0.000096
N41	N	0.120503	0.894165	0.235286
N42	N	0.120521	0.894201	-0.235428
C43	C	0.059612	0.945575	0.287324
C44	C	0.059611	0.945580	0.391427
C45	C	0.120506	0.894177	0.443491
C46	C	0.181401	0.842761	0.391446
C47	C	0.181396	0.842753	0.287345
C48	C	0.181407	0.842782	0.608426
C49	C	0.181412	0.842790	0.712534
C50	C	0.059621	0.945609	0.712509
C51	C	0.059617	0.945601	0.608407
C52	C	0.120513	0.894186	0.556369
H53	H	0.115436	0.123932	-0.163660
H54	H	-0.458336	1.018310	-0.000073
H55	H	-0.300639	0.770046	-0.000053
O56	O	-0.006055	1.001063	0.768640
H57	H	0.005275	1.060068	0.748645
H58	H	-0.339836	1.020202	-0.000084
O59	O	0.118331	0.277594	-0.187471
H60	H	0.117580	0.236891	-0.250161
O61	O	0.247085	0.787349	0.768700
H62	H	0.209473	0.750551	0.816156
H63	H	0.230979	0.800888	0.244976
O64	O	-0.006054	1.001046	0.447545
H65	H	-0.075773	0.991354	0.427570
H66	H	0.230992	0.800911	0.566060
H67	H	0.122931	0.521258	-0.163627
H68	H	-0.419129	0.768164	-0.000058
O69	O	0.125814	0.674915	-0.187453
H70	H	0.126960	0.736442	-0.172309
H71	H	0.125608	0.664428	0.163515
O72	O	0.122709	0.510767	0.187330
H73	H	0.123486	0.551470	0.250018
H74	H	0.118097	0.267107	0.163476
H75	H	0.010036	0.987461	0.566017
O76	O	0.115205	0.113431	0.187295
H77	H	0.115980	0.154130	0.249988
O78	O	-0.642773	1.033635	-0.000073
H79	H	-0.602171	1.082337	-0.000061
O80	O	-0.161118	1.041323	-0.000071
H81	H	-0.086594	1.030903	-0.000057
O82	O	0.247091	0.787322	0.447593
H83	H	0.209500	0.750510	0.495053
O84	O	-0.116190	0.754729	-0.000057
H85	H	-0.156785	0.706021	-0.000038
H86	H	0.010027	0.987437	0.244940
O87	O	-0.597873	0.747048	-0.000066
H88	H	-0.542252	0.699877	-0.000074
