data_functionalizedCrystal
_audit_creation_method	'MofGen! by Chris Wilmer'
_symmetry_space_group_name_H-M	'P1'
_symmetry_Int_Tables_number	1
_symmetry_cell_setting	triclinic
loop_
_symmetry_equiv_pos_as_xyz
  x,y,z
_cell_length_a	13.635800
_cell_length_b	7.190334
_cell_length_c	12.908942
_cell_angle_alpha	88.324518
_cell_angle_beta	100.860556
_cell_angle_gamma	60.611776
loop_
_atom_site_label
_atom_site_type_symbol
_atom_site_fract_x
_atom_site_fract_y
_atom_site_fract_z
V1	V	-2.104642	0.663828	-0.144174
O2	O	-2.103775	0.652412	0.008658
O3	O	-2.072934	0.658113	-0.287537
O4	O	-2.123365	0.953882	-0.141197
O5	O	-2.052995	0.354596	-0.138694
V6	V	-2.341867	0.626984	-0.125983
O7	O	-2.245222	0.744648	-0.184077
O8	O	-2.426385	0.546164	-0.086080
O9	O	-2.261971	0.632698	0.017380
O10	O	-2.401431	0.638399	-0.278816
O11	O	-2.452212	0.936215	-0.131463
O12	O	-2.211540	0.336930	-0.128960
C13	C	-1.992219	0.647338	-0.322509
C14	C	-2.007223	0.644599	-0.439706
V15	V	-1.604642	0.663828	-0.144174
O16	O	-1.603775	0.652412	0.008658
O17	O	-1.572934	0.658113	-0.287537
O18	O	-1.623365	0.953882	-0.141197
O19	O	-1.552995	0.354596	-0.138694
V20	V	-1.841867	0.626984	-0.125983
O21	O	-1.745222	0.744648	-0.184077
O22	O	-1.926385	0.546164	-0.086080
O23	O	-1.761971	0.632698	0.017380
O24	O	-1.901431	0.638399	-0.278816
O25	O	-1.952212	0.936215	-0.131463
O26	O	-1.711540	0.336930	-0.128960
C27	C	-2.056554	1.024617	-0.135833
C28	C	-2.113505	1.266187	-0.134319
C29	C	-2.220195	0.660695	-0.670618
C30	C	-2.234298	0.658122	-0.780734
C31	C	-2.049537	0.636897	-0.770058
C32	C	-2.035435	0.639469	-0.659942
C33	C	-2.120767	0.651366	-0.610225
C34	C	-2.106659	0.653923	-0.500106
C35	C	-1.921903	0.632713	-0.489433
C36	C	-1.936006	0.630140	-0.599549
C37	C	-2.174356	0.643468	0.052347
C38	C	-2.148973	0.646220	0.169542
C39	C	-1.492219	0.647338	-0.322509
C40	C	-1.507223	0.644599	-0.439706
C41	C	-1.556554	1.024617	-0.135833
C42	C	-1.613505	1.266187	-0.134319
C43	C	-1.466027	0.448096	-0.480186
C44	C	-1.480133	0.445493	-0.590303
C45	C	-1.535428	0.639395	-0.659937
C46	C	-1.576630	0.835914	-0.619449
C47	C	-1.562531	0.838516	-0.509335
C48	C	-1.674356	0.643468	0.052347
C49	C	-1.648973	0.646220	0.169542
C50	C	-1.579067	0.452296	0.239150
C51	C	-1.555193	0.454852	0.349268
C52	C	-1.601232	0.651335	0.389777
C53	C	-1.671141	0.845274	0.320160
C54	C	-1.695007	0.842717	0.210043
H55	H	-2.289668	0.670349	-0.630136
O56	O	-1.814660	0.622668	-0.424292
H57	H	-1.737000	0.471124	-0.431975
O58	O	-1.957527	0.624106	-0.823704
H59	H	-1.874442	0.473568	-0.789135
H60	H	-1.420995	0.290189	-0.423503
O61	O	-2.341537	0.668173	-0.845871
H62	H	-2.316307	0.521555	-0.885411
H63	H	-1.866537	0.620462	-0.640044
O64	O	-1.435672	0.233525	-0.633959
H65	H	-1.394833	0.099141	-0.567032
H66	H	-1.546900	0.637246	-0.749597
H67	H	-1.621653	0.993783	-0.676161
H68	H	-1.596077	0.998537	-0.476386
H69	H	-1.541570	0.292289	0.206184
O70	O	-1.479787	0.245662	0.424340
H71	H	-1.520121	0.143656	0.414187
H72	H	-1.581786	0.653387	0.479444
O73	O	-1.720708	1.057201	0.363852
H74	H	-1.692338	1.026375	0.452116
O75	O	-1.770429	1.051886	0.134969
H76	H	-1.798440	1.188925	0.181648
H77	H	-2.176137	0.663594	-0.459628
