data_functionalizedCrystal
_audit_creation_method	'MofGen! by Chris Wilmer'
_symmetry_space_group_name_H-M	'P1'
_symmetry_Int_Tables_number	1
_symmetry_cell_setting	triclinic
loop_
_symmetry_equiv_pos_as_xyz
  x,y,z
_cell_length_a	14.560432
_cell_length_b	20.016444
_cell_length_c	20.016444
_cell_angle_alpha	90.002879
_cell_angle_beta	60.001823
_cell_angle_gamma	60.003704
loop_
_atom_site_label
_atom_site_type_symbol
_atom_site_fract_x
_atom_site_fract_y
_atom_site_fract_z
Zr1	Zr	1.005311	-0.087654	0.643578
O2	O	1.196898	-0.194323	0.536905
O3	O	0.813715	-0.054957	0.676279
O4	O	1.005307	-0.194327	0.676279
O5	O	1.005314	0.054986	0.536906
O6	O	1.005314	-0.194327	0.786218
O7	O	1.005307	-0.054953	0.536906
O8	O	0.662591	0.054980	0.786220
O9	O	1.348036	-0.194321	0.536905
O10	O	0.892530	-0.041009	0.772273
O11	O	0.892530	0.041038	0.690226
O12	O	1.118105	-0.123052	0.690225
O13	O	1.118105	-0.041005	0.608179
Zr14	Zr	1.005334	0.087687	0.818920
Zr15	Zr	1.005323	-0.087655	0.818920
Zr16	Zr	1.005323	0.087687	0.643579
Zr17	Zr	1.246359	-0.087650	0.643578
Zr18	Zr	0.764287	0.087683	0.818921
O19	O	1.196931	0.054989	0.786219
O20	O	1.196915	-0.194323	0.786218
O21	O	1.196915	0.054990	0.536906
O22	O	0.813748	0.194356	0.925593
O23	O	0.813731	-0.054957	0.925592
O24	O	0.813731	0.194356	0.676280
O25	O	1.005332	-0.054954	0.925592
O26	O	1.005339	0.194359	0.786220
O27	O	1.005332	0.194359	0.676280
O28	O	1.005339	0.054986	0.925592
O29	O	1.348045	-0.194321	0.676278
O30	O	0.662601	0.194353	0.786220
O31	O	0.662610	0.194353	0.925593
O32	O	0.662601	0.054980	0.925593
O33	O	1.348045	-0.054948	0.536905
O34	O	1.348054	-0.054948	0.676279
O35	O	0.892541	0.123085	0.772273
O36	O	0.892541	0.041038	0.854320
O37	O	1.118116	-0.041005	0.772272
O38	O	1.118116	0.041042	0.690226
C39	C	0.703809	0.000011	0.731250
C40	C	0.601478	0.000009	0.731250
C41	C	1.005309	0.000017	0.511924
C42	C	1.005304	0.000017	0.437487
C43	C	1.005337	0.219342	0.731250
C44	C	1.005342	0.293779	0.731250
C45	C	0.601472	-0.085657	0.816899
C46	C	0.553397	-0.128491	0.859720
C47	C	0.457248	-0.128489	0.859718
C48	C	0.409168	-0.085647	0.816892
C49	C	0.457243	-0.042813	0.774071
C50	C	0.553397	-0.042821	0.774076
C51	C	0.457242	0.042857	0.688428
C52	C	0.553398	0.042852	0.688424
C53	C	0.409163	0.085700	0.645602
C54	C	0.457244	0.128530	0.602776
C55	C	0.553400	0.128526	0.602779
C56	C	0.601473	0.085686	0.645604
C57	C	1.306837	0.000021	0.731249
C58	C	1.409168	0.000023	0.731249
C59	C	1.005309	-0.219309	0.731248
C60	C	1.005304	-0.293746	0.731248
C61	C	1.123075	0.422220	0.688419
C62	C	1.123069	0.492165	0.688417
C63	C	0.887562	0.577811	0.774080
C64	C	0.887569	0.507866	0.774078
C65	C	1.005329	0.430072	0.731249
C66	C	1.005317	0.569961	0.731249
C67	C	1.005310	0.645799	0.731247
C68	C	1.005336	0.354229	0.731250
C69	C	0.887571	0.042844	0.309048
C70	C	0.887577	0.042846	0.239103
C71	C	1.123084	-0.042813	0.153452
C72	C	1.123077	-0.042810	0.223397
C73	C	1.005317	0.000017	0.301194
C74	C	1.005329	0.000016	0.161304
C75	C	1.005336	0.000018	0.085467
C76	C	1.005310	0.000016	0.377037
C77	C	1.005337	0.000016	0.950575
C78	C	1.005342	0.000016	1.025012
C79	C	0.703824	0.000011	0.950575
C80	C	0.601497	0.000009	1.025012
C81	C	0.703824	0.219336	0.731251
C82	C	0.601497	0.293772	0.731251
C83	C	0.703838	0.219336	0.950576
C84	C	0.601517	0.293771	1.025013
C85	C	1.306808	-0.219304	0.511923
C86	C	1.409129	-0.293739	0.437485
C87	C	1.306822	0.000022	0.511923
C88	C	1.409149	0.000024	0.437486
C89	C	1.306822	-0.219304	0.731248
C90	C	1.409149	-0.293739	0.731247
C91	C	0.553438	-0.042827	1.017141
C92	C	0.457305	-0.042845	1.087076
C93	C	0.409227	-0.000022	1.164881
C94	C	0.457295	0.042815	1.172751
C95	C	0.553433	0.042828	1.102817
C96	C	0.553450	0.371562	0.774079
C97	C	0.457317	0.441509	0.774076
C98	C	0.409227	0.433663	0.731250
C99	C	0.457284	0.355864	0.688417
C100	C	0.553422	0.285920	0.688415
C101	C	0.553466	0.285899	1.102805
C102	C	0.457337	0.355832	1.172753
C103	C	0.409255	0.433637	1.164909
C104	C	0.457316	0.441507	1.087109
C105	C	0.553449	0.371575	1.017162
C106	C	1.457192	-0.285867	0.359694
C107	C	1.553350	-0.355800	0.289745
C108	C	1.601437	-0.433604	0.297590
C109	C	1.553370	-0.441475	0.375389
C110	C	1.457221	-0.371542	0.445336
C111	C	1.457218	0.042852	0.445357
C112	C	1.553377	0.042851	0.375423
C113	C	1.601459	0.000025	0.297617
C114	C	1.553386	-0.042808	0.289747
C115	C	1.457235	-0.042811	0.359682
C116	C	1.457208	-0.285867	0.774082
C117	C	1.553341	-0.355800	0.774098
C118	C	1.601420	-0.433605	0.731273
C119	C	1.553352	-0.441475	0.688437
C120	C	1.457213	-0.371543	0.688427
H121	H	0.679774	-0.085671	0.816897
N122	N	1.405366	-0.380031	0.529242
H123	H	1.478718	-0.410928	0.535798
H124	H	1.365470	-0.410912	0.535724
H125	H	1.418100	-0.077685	0.353261
N126	N	0.605330	0.201984	1.111271
H127	H	0.588590	0.171055	1.084167
H128	H	0.560279	0.207684	1.171183
H129	H	0.418200	0.504849	0.808959
H130	H	1.592470	-0.349375	0.226404
N131	N	0.305527	-0.000039	1.240302
H132	H	0.225739	0.057962	1.273968
H133	H	0.339091	-0.024452	1.273906
H134	H	1.218960	-0.077681	0.090103
N135	N	1.705141	-0.509028	0.222143
H136	H	1.728281	-0.492227	0.171675
H137	H	1.671607	-0.542662	0.222176
H138	H	0.592594	0.377966	0.808954
H139	H	0.791686	0.641158	0.808952
N140	N	0.605260	-0.174703	0.905904
H141	H	0.673472	-0.168212	0.899405
H142	H	0.645072	-0.234593	0.883401
H143	H	1.592502	0.077734	0.381846
H144	H	1.592512	-0.504833	0.653571
N145	N	1.705165	0.000033	0.222191
H146	H	1.728311	0.033667	0.238992
H147	H	1.671632	0.024390	0.188558
N148	N	1.405361	-0.201960	0.820287
H149	H	1.308849	-0.171038	0.863382
H150	H	1.422184	-0.171090	0.780960
H151	H	0.418101	-0.163365	0.894590
H152	H	1.592469	-0.349376	0.808979
N153	N	1.605229	-0.525394	0.383845
H154	H	1.645128	-0.531959	0.414740
H155	H	1.673375	-0.568443	0.327699
H156	H	0.418180	-0.077728	1.080652
N157	N	1.405385	-0.380039	0.642223
H158	H	1.450439	-0.439941	0.615097
H159	H	1.422128	-0.352895	0.599159
N160	N	0.405434	0.089000	1.256672
H161	H	0.337236	0.082489	1.299774
H162	H	0.365603	0.148895	1.263158
H163	H	0.418216	0.349409	1.236095
N164	N	0.405433	0.525430	1.078662
H165	H	0.365525	0.531988	1.047775
H166	H	0.478828	0.531948	1.047792
H167	H	0.418115	0.349488	0.653549
N168	N	0.305533	0.509107	0.731257
H169	H	0.282396	0.559575	0.764892
H170	H	0.225813	0.509071	0.755615
N171	N	0.760566	0.516330	0.820282
H172	H	0.685964	0.576225	0.847422
H173	H	0.755461	0.489172	0.863333
H174	H	1.679703	-0.490541	0.731288
H175	H	0.791696	0.077721	0.245504
N176	N	0.760565	0.089033	0.392957
H177	H	0.685976	0.116164	0.387315
H178	H	0.755436	0.132089	0.423844
H179	H	1.592549	-0.077676	0.226389
H180	H	0.679769	0.085674	0.645607
H181	H	0.592530	0.222582	0.653542
N182	N	0.305569	0.509060	1.240355
H183	H	0.282429	0.492260	1.290824
H184	H	0.225848	0.542692	1.240322
N185	N	0.605265	0.380072	0.933260
H186	H	0.560208	0.439973	0.938912
H187	H	0.588514	0.352927	0.902379
H188	H	0.592583	-0.077708	0.953794
N189	N	1.405334	-0.201955	0.351221
H190	H	1.450387	-0.207592	0.291321
H191	H	1.422061	-0.171067	0.378379
N192	N	1.405371	0.089040	0.529273
H193	H	1.365493	0.148952	0.535828
H194	H	1.478791	0.066501	0.535769
N195	N	0.305469	-0.085648	0.816888
H196	H	0.282310	-0.052013	0.783259
H197	H	0.225759	-0.061297	0.874916
H198	H	0.418084	0.163413	0.567915
N199	N	0.305451	0.085710	0.645603
H200	H	0.282292	0.052073	0.679225
H201	H	0.338985	0.061366	0.587572
H202	H	1.218963	0.358879	0.653543
N203	N	0.605239	0.174734	0.556601
H204	H	0.560186	0.201873	0.529476
H205	H	0.701752	0.135415	0.513539
H206	H	1.218950	0.485765	0.653539
N207	N	1.250080	-0.089005	0.214930
H208	H	1.324682	-0.116142	0.155034
H209	H	1.255193	-0.132057	0.242088
H210	H	0.592550	0.077715	1.109237
