data_functionalizedCrystal
_audit_creation_method	'MofGen! by Chris Wilmer'
_symmetry_space_group_name_H-M	'P1'
_symmetry_Int_Tables_number	1
_symmetry_cell_setting	triclinic
loop_
_symmetry_equiv_pos_as_xyz
  x,y,z
_cell_length_a	8.497374
_cell_length_b	13.033374
_cell_length_c	13.032831
_cell_angle_alpha	90.886321
_cell_angle_beta	97.172717
_cell_angle_gamma	82.820048
loop_
_atom_site_label
_atom_site_type_symbol
_atom_site_fract_x
_atom_site_fract_y
_atom_site_fract_z
Zn1	Zn	1.299965	-0.609619	1.520176
Zn2	Zn	1.064980	-0.781546	1.498319
Zn3	Zn	0.999078	-0.587728	1.348247
Zn4	Zn	1.291595	-0.759661	1.326373
O5	O	1.163904	-0.684639	1.423279
O6	O	1.299876	-0.650747	1.661189
O7	O	0.835476	-0.755833	1.478419
O8	O	1.014914	-0.446725	1.389355
O9	O	1.127234	-0.777061	1.645132
O10	O	1.235974	-0.462809	1.515670
O11	O	0.787059	-0.613436	1.368162
O12	O	1.006798	-0.592214	1.201433
O13	O	1.513467	-0.739760	1.352074
O14	O	1.221709	-0.718533	1.185362
O15	O	1.519616	-0.629525	1.494460
O16	O	1.119118	-0.922550	1.457209
O17	O	1.285612	-0.906471	1.330881
C18	C	1.106195	-0.650624	1.156082
C19	C	1.081549	-0.636097	1.041771
C20	C	1.176768	-0.692220	0.982871
C21	C	1.151296	-0.677208	0.864725
C22	C	1.208648	-0.951827	1.389328
C23	C	1.227863	-1.066143	1.374897
C24	C	1.575383	-0.684639	1.423271
C25	C	1.754030	-0.684650	1.423272
C26	C	1.221840	-0.718787	1.691519
C27	C	1.246529	-0.733339	1.805827
C28	C	1.119026	-0.416410	1.457391
C29	C	1.099902	-0.302108	1.471927
C30	C	1.154009	-0.125057	1.430921
C31	C	1.173766	-0.243195	1.415896
H32	H	1.050918	-0.618035	0.827689
C33	C	1.333047	-0.116146	1.295072
C34	C	1.511766	-0.102552	1.305309
C35	C	1.616953	-0.152552	1.225481
C36	C	1.543420	-0.216145	1.135416
C37	C	1.364692	-0.229741	1.125175
C38	C	1.259505	-0.179742	1.205003
H39	H	1.566207	-0.055475	1.371984
H40	H	1.749259	-0.142487	1.233062
H41	H	1.621286	-0.253157	1.076323
H42	H	1.310251	-0.276819	1.058500
H43	H	1.127199	-0.189807	1.197421
H44	H	1.022046	-0.265091	1.531022
C45	C	1.278956	-0.293194	1.336066
C46	C	1.205424	-0.356787	1.246001
C47	C	1.310610	-0.406786	1.166173
C48	C	1.489329	-0.393192	1.176411
C49	C	1.562871	-0.329597	1.266479
C50	C	1.457684	-0.279597	1.346307
H51	H	1.073117	-0.366852	1.238420
H52	H	1.256169	-0.453864	1.099499
H53	H	1.567195	-0.430205	1.117317
H54	H	1.695178	-0.319531	1.274061
H55	H	1.512126	-0.232519	1.412982
H56	H	1.346922	-0.792501	0.842862
H57	H	1.277150	-0.751381	1.019913
H58	H	0.981177	-0.576929	1.004731
H59	H	1.076158	-0.088038	1.490012
