data_functionalizedCrystal
_audit_creation_method	'MofGen! by Chris Wilmer'
_symmetry_space_group_name_H-M	'P1'
_symmetry_Int_Tables_number	1
_symmetry_cell_setting	triclinic
loop_
_symmetry_equiv_pos_as_xyz
  x,y,z
_cell_length_a	19.288864
_cell_length_b	15.944551
_cell_length_c	18.366186
_cell_angle_alpha	89.992809
_cell_angle_beta	89.977106
_cell_angle_gamma	83.317492
loop_
_atom_site_label
_atom_site_type_symbol
_atom_site_fract_x
_atom_site_fract_y
_atom_site_fract_z
O1	O	0.921629	0.104784	-0.060785
O2	O	0.719405	0.118919	-0.060735
O3	O	0.826039	-0.010445	-0.060755
O4	O	0.814995	0.234147	-0.060765
O5	O	0.826021	-0.010451	0.060345
O6	O	0.719387	0.118912	0.060364
O7	O	0.921611	0.104777	0.060315
Zn8	Zn	0.820496	0.111844	0.079567
Zn9	Zn	0.820520	0.111852	-0.079987
O10	O	0.814977	0.234141	0.060334
C11	C	0.693519	0.118461	-0.000179
C12	C	0.616411	0.117095	-0.000160
C13	C	0.825572	-0.041740	-0.000205
C14	C	0.824197	-0.134981	-0.000204
C15	C	0.571915	0.193000	-0.000175
C16	C	0.499465	0.191717	-0.000183
C17	C	0.471514	0.114526	-0.000191
C18	C	0.516020	0.038611	-0.000172
C19	C	0.588469	0.039896	-0.000156
C20	C	0.363098	0.053847	-0.042639
C21	C	0.290650	0.052565	-0.042659
C22	C	0.248058	0.110560	-0.000234
C23	C	0.277920	0.169850	0.042200
C24	C	0.350369	0.171135	0.042216
C25	C	0.392956	0.113124	-0.000207
C26	C	0.125002	0.185079	-0.000257
C27	C	0.052550	0.183793	-0.000260
C28	C	0.069107	0.030684	-0.000257
C29	C	0.141557	0.031972	-0.000246
C30	C	0.169500	0.109172	-0.000249
C31	C	0.754815	-0.349571	-0.000197
C32	C	0.787025	-0.410715	0.059504
C33	C	0.821710	-0.305697	-0.000209
C34	C	0.787058	-0.410692	-0.059890
C35	C	0.819303	-0.470601	-0.000217
C36	C	0.853939	-0.365614	0.059542
C37	C	0.853963	-0.365585	-0.059906
C38	C	0.886222	-0.426712	-0.000190
C39	C	0.823095	-0.210700	-0.000204
C40	C	0.817924	-0.565597	-0.000217
C41	C	0.947497	0.105235	-0.000243
C42	C	1.024605	0.106600	-0.000267
C43	C	0.815444	0.265436	-0.000217
C44	C	0.816819	0.358677	-0.000223
N45	N	0.820485	0.111838	0.188458
N46	N	0.820537	0.111852	-0.188878
C47	C	0.867718	0.054583	0.226549
C48	C	0.867722	0.054580	0.302777
C49	C	0.820500	0.111844	0.340910
C50	C	0.773258	0.169103	0.302810
C51	C	0.773251	0.169100	0.226583
C52	C	0.811404	0.188378	0.461669
C53	C	0.811416	0.188383	0.537894
C54	C	0.820520	0.111855	0.576018
C55	C	0.829626	0.035320	0.537908
C56	C	0.829618	0.035316	0.461681
C57	C	0.820503	0.111854	0.423565
C58	C	0.867760	0.054592	0.696765
C59	C	0.867760	0.054587	0.772994
C60	C	0.773299	0.169118	0.773025
C61	C	0.773296	0.169115	0.696797
C62	C	0.820531	0.111853	0.658671
H63	H	0.463229	0.253530	-0.000193
O64	O	0.913567	-0.001127	0.659733
C65	C	0.954316	-0.147284	0.636362
C66	C	0.902391	-0.084292	0.678345
H67	H	0.945307	-0.214536	0.651406
H68	H	0.946180	-0.137484	0.575335
H69	H	1.009940	-0.136457	0.651301
H70	H	0.846745	-0.095081	0.663467
H71	H	0.910587	-0.094107	0.739362
O72	O	0.727331	0.224663	0.810025
C73	C	0.606564	0.274289	0.833366
C74	C	0.658550	0.211325	0.791428
H75	H	0.550944	0.263539	0.818335
H76	H	0.614619	0.264458	0.894400
H77	H	0.615650	0.341530	0.818372
H78	H	0.649496	0.144058	0.806360
H79	H	0.650483	0.221229	0.730404
O80	O	0.753153	-0.434526	0.119680
C81	C	0.645626	-0.421848	0.187762
C82	C	0.683902	-0.394834	0.119579
H83	H	0.589635	-0.389755	0.187711
H84	H	0.645299	-0.493300	0.187459
H85	H	0.673632	-0.402443	0.238627
H86	H	0.655927	-0.414181	0.068678
H87	H	0.684236	-0.323383	0.119946
O88	O	0.727488	0.224857	0.659825
C89	C	0.686763	0.371040	0.636541
C90	C	0.738695	0.308003	0.678442
H91	H	0.695796	0.438277	0.651588
H92	H	0.694866	0.361278	0.575501
H93	H	0.631141	0.360223	0.651551
H94	H	0.794337	0.318781	0.663492
H95	H	0.730531	0.317780	0.739471
H96	H	0.243242	0.217075	0.076747
H97	H	0.882240	-0.345560	-0.110395
O98	O	0.631668	-0.033864	-0.000277
C99	C	0.667988	-0.164348	-0.062986
C100	C	0.619036	-0.080837	-0.062947
H101	H	0.657783	-0.202357	-0.113641
H102	H	0.724583	-0.150219	-0.063025
H103	H	0.657805	-0.202318	-0.012284
H104	H	0.629157	-0.042826	-0.113640
H105	H	0.562457	-0.095025	-0.062870
O106	O	0.887609	-0.341758	0.119801
C107	C	0.926713	-0.226570	0.187385
C108	C	0.888556	-0.253471	0.119121
H109	H	0.927504	-0.155192	0.186850
H110	H	0.898382	-0.245475	0.238239
H111	H	0.982551	-0.259147	0.187579
H112	H	0.832717	-0.220908	0.118856
H113	H	0.916941	-0.234582	0.068298
O114	O	0.753311	-0.434383	-0.120158
C115	C	0.692063	-0.389361	-0.230290
C116	C	0.730284	-0.362422	-0.162081
H117	H	0.673422	-0.331194	-0.264196
H118	H	0.729190	-0.434667	-0.264103
H119	H	0.645234	-0.422169	-0.213037
H120	H	0.777111	-0.329579	-0.179269
H121	H	0.693111	-0.317156	-0.128285
O122	O	0.952531	-0.466496	-0.000041
C123	C	1.062675	-0.488602	0.063011
C124	C	0.987595	-0.443508	0.062936
H125	H	1.091051	-0.470020	0.113915
H126	H	1.061190	-0.559869	0.062575
H127	H	1.091384	-0.469256	0.012560
H128	H	0.958842	-0.462785	0.113379
H129	H	0.989131	-0.372250	0.063334
O130	O	0.802533	0.262799	0.574798
C131	C	0.784504	0.414617	0.566738
C132	C	0.794540	0.330399	0.524856
H133	H	0.778053	0.469295	0.526378
H134	H	0.735955	0.416870	0.602433
H135	H	0.832128	0.420033	0.602416
H136	H	0.746955	0.324928	0.489138
H137	H	0.843116	0.328184	0.489207
H138	H	0.837031	-0.027002	0.430655
H139	H	0.594661	0.255862	-0.000179
H140	H	0.803978	0.250700	0.430635
O141	O	0.913621	-0.001126	0.189629
C142	C	1.007340	-0.114687	0.197646
C143	C	0.955385	-0.051654	0.239551
H144	H	1.041130	-0.155543	0.237990
H145	H	0.977387	-0.156620	0.162004
H146	H	1.042002	-0.078515	0.161913
H147	H	0.920710	-0.087757	0.275324
H148	H	0.985382	-0.009722	0.275148
O149	O	0.727359	0.224616	0.339930
C150	C	0.632488	0.242788	0.426010
C151	C	0.684445	0.179830	0.384031
H152	H	0.597769	0.206603	0.461664
H153	H	0.662441	0.284650	0.461722
H154	H	0.598757	0.283728	0.385674
H155	H	0.718189	0.138834	0.424313
H156	H	0.654449	0.138026	0.348307
O157	O	0.913638	-0.000925	0.339867
C158	C	1.008533	-0.019081	0.425843
C159	C	0.956562	0.043869	0.383904
H160	H	1.043260	0.017111	0.461446
H161	H	0.978593	-0.060942	0.461604
H162	H	1.042255	-0.060022	0.385482
H163	H	0.922826	0.084866	0.424212
H164	H	0.986545	0.085672	0.348133
O165	O	0.379268	0.228751	0.083505
C166	C	0.359002	0.344973	0.167646
C167	C	0.326185	0.279758	0.120930
H168	H	0.316099	0.386240	0.197904
H169	H	0.396642	0.310757	0.208638
H170	H	0.388566	0.386239	0.130934
H171	H	0.296585	0.238473	0.157584
H172	H	0.288583	0.314026	0.079932
H173	H	0.837039	-0.026997	0.568947
H174	H	0.147754	0.247939	-0.000249
O175	O	0.727438	0.224839	0.189611
C176	C	0.686711	0.371021	0.166325
C177	C	0.738642	0.307986	0.208229
H178	H	0.695741	0.438258	0.181373
H179	H	0.694818	0.361259	0.105285
H180	H	0.631088	0.360202	0.181331
H181	H	0.794285	0.318766	0.193283
H182	H	0.730474	0.317763	0.269258
O183	O	0.009423	0.257609	-0.000305
C184	C	0.000650	0.409604	-0.000275
C185	C	0.049572	0.326070	-0.000242
H186	H	0.033091	0.464977	-0.000209
H187	H	-0.033644	0.412886	-0.050972
H188	H	-0.033723	0.412785	0.050388
H189	H	0.083988	0.322833	-0.050870
H190	H	0.083818	0.322822	0.050489
O191	O	0.041933	-0.044280	-0.000394
C192	C	-0.030253	-0.134564	-0.063125
C193	C	0.000492	-0.049643	-0.063071
H194	H	-0.063776	-0.138920	-0.113786
H195	H	0.013973	-0.188629	-0.063163
H196	H	-0.063756	-0.138987	-0.012428
H197	H	0.033986	-0.045138	-0.113759
H198	H	-0.043767	0.004382	-0.062995
O199	O	0.184686	-0.041840	-0.000272
C200	C	0.193460	-0.193835	-0.000226
C201	C	0.144537	-0.110302	-0.000217
H202	H	0.161020	-0.249208	-0.000166
H203	H	0.227808	-0.197116	-0.050911
H204	H	0.227778	-0.197017	0.050449
H205	H	0.110175	-0.107064	-0.050857
H206	H	0.110237	-0.107055	0.050502
O207	O	0.261761	-0.005107	-0.083894
C208	C	0.282033	-0.121282	-0.168082
C209	C	0.314840	-0.056024	-0.121404
H210	H	0.324930	-0.162453	-0.198433
H211	H	0.252518	-0.162640	-0.131404
H212	H	0.244350	-0.087018	-0.209005
H213	H	0.352553	-0.090218	-0.080475
H214	H	0.344311	-0.014669	-0.158127
H215	H	0.397772	0.006619	-0.077190
H216	H	0.493258	-0.024239	-0.000188
H217	H	0.699288	-0.316049	-0.000124
H218	H	0.906221	0.007959	0.804009
