data_functionalizedCrystal
_audit_creation_method	'MofGen! by Chris Wilmer'
_symmetry_space_group_name_H-M	'P1'
_symmetry_Int_Tables_number	1
_symmetry_cell_setting	triclinic
loop_
_symmetry_equiv_pos_as_xyz
  x,y,z
_cell_length_a	17.038272
_cell_length_b	14.971486
_cell_length_c	14.048226
_cell_angle_alpha	90.001501
_cell_angle_beta	89.993466
_cell_angle_gamma	92.637157
loop_
_atom_site_label
_atom_site_type_symbol
_atom_site_fract_x
_atom_site_fract_y
_atom_site_fract_z
O1	O	0.101897	-1.194576	-0.079052
O2	O	0.114100	-0.935090	-0.079077
O3	O	-0.005819	-1.063291	-0.079057
O4	O	0.221816	-1.066375	-0.079072
O5	O	-0.005826	-1.063274	0.079264
O6	O	0.114093	-0.935073	0.079244
O7	O	0.101890	-1.194559	0.079270
Zn8	Zn	0.107990	-1.064813	0.104394
Zn9	Zn	0.108000	-1.064836	-0.104201
O10	O	0.221809	-1.066358	0.079249
C11	C	0.113551	-0.901716	0.000080
C12	C	0.111915	-0.802296	0.000070
C13	C	-0.034954	-1.060477	0.000103
C14	C	-0.121756	-1.052107	0.000102
N15	N	0.107984	-1.064804	0.246754
C16	C	-0.171781	-1.128951	0.000111
C17	C	-0.253341	-1.121081	0.000101
C18	C	-0.284874	-1.036367	0.000089
C19	C	-0.234843	-0.959518	0.000078
C20	C	-0.153285	-0.967388	0.000081
C21	C	-0.530664	-1.008563	0.000073
C22	C	-0.612229	-1.000698	0.000073
C23	C	-0.630721	-1.162262	0.000095
C24	C	-0.549161	-1.170125	0.000103
C25	C	-0.499137	-1.093276	0.000087
C26	C	-0.368241	-1.028321	0.000082
C27	C	-0.415771	-1.101323	0.000087
C28	C	0.250944	-1.069172	0.000087
C29	C	0.337746	-1.077542	0.000082
C30	C	0.102440	-1.227933	0.000110
C31	C	0.104075	-1.327353	0.000114
C32	C	0.182364	-0.750345	0.000067
C33	C	0.180823	-0.656930	0.000081
C34	C	0.108832	-0.615468	0.000092
C35	C	0.038378	-0.667426	0.000098
C36	C	0.039920	-0.760839	0.000091
C37	C	0.035169	-0.472723	0.000111
C38	C	0.033626	-0.379303	0.000117
C39	C	0.176072	-0.368815	0.000102
C40	C	0.177614	-0.462228	0.000095
C41	C	0.107159	-0.514179	0.000099
N42	N	0.108000	-1.064851	-0.246562
C43	C	0.054906	-1.121592	0.296581
C44	C	0.054905	-1.121599	0.396239
C45	C	0.107987	-1.064820	0.446068
C46	C	0.161067	-1.008026	0.396234
C47	C	0.161064	-1.008016	0.296578
C48	C	0.161073	-1.008052	0.603948
C49	C	0.161078	-1.008063	0.703611
C50	C	0.054915	-1.121635	0.703609
C51	C	0.054911	-1.121625	0.603953
C52	C	0.107993	-1.064831	0.554126
H53	H	-0.146113	-1.197934	0.000126
Br54	Br	-0.655023	-0.885721	0.000067
H55	H	0.233438	-0.326511	0.000103
Br56	Br	0.233110	-0.930969	0.536329
H57	H	0.011684	-1.167832	0.256017
H58	H	0.204302	-0.961827	0.744176
H59	H	-0.024995	-0.345548	0.000127
Br60	Br	-0.411043	-0.913355	0.000057
H61	H	0.238189	-0.614636	0.000078
Br62	Br	-0.698614	-1.266552	0.000117
Br63	Br	-0.060449	-0.543228	0.000122
H64	H	0.204285	-0.961791	0.436810
Br65	Br	0.233096	-0.930936	0.228955
H66	H	-0.260524	-0.890541	0.000062
H67	H	-0.017447	-0.803137	0.000093
Br68	Br	-0.085392	-0.863096	0.000061
H69	H	0.011685	-1.167839	0.436808
H70	H	-0.294068	-1.183656	0.000110
Br71	Br	0.280071	-0.806606	0.000043
Br72	Br	-0.372975	-1.216288	0.000095
Br73	Br	-0.506371	-1.285099	0.000089
H74	H	-0.489944	-0.945986	0.000060
H75	H	0.011694	-1.167877	0.744184
Br76	Br	0.275316	-0.518498	0.000066
H77	H	0.011692	-1.167862	0.563383
H78	H	-0.020239	-0.633660	0.000120
