data_functionalizedCrystal
_audit_creation_method	'MofGen! by Chris Wilmer'
_symmetry_space_group_name_H-M	'P1'
_symmetry_Int_Tables_number	1
_symmetry_cell_setting	triclinic
loop_
_symmetry_equiv_pos_as_xyz
  x,y,z
_cell_length_a	12.594517
_cell_length_b	12.594516
_cell_length_c	17.640968
_cell_angle_alpha	101.227826
_cell_angle_beta	101.218185
_cell_angle_gamma	90.016010
loop_
_atom_site_label
_atom_site_type_symbol
_atom_site_fract_x
_atom_site_fract_y
_atom_site_fract_z
Zn1	Zn	1.748908	-0.302091	0.446821
Zn2	Zn	2.248908	0.197909	0.946821
Zn3	Zn	1.712818	-0.516076	0.314654
Zn4	Zn	2.212818	-0.016076	0.814654
Zn5	Zn	1.534936	-0.338107	0.314671
Zn6	Zn	2.034936	0.161893	0.814671
Zn7	Zn	1.570890	-0.480032	0.446806
Zn8	Zn	2.070890	0.019968	0.946806
O9	O	1.641888	-0.409077	0.380738
O10	O	2.141888	0.090923	0.880738
O11	O	1.893066	-0.330489	0.429288
O12	O	2.393066	0.169511	0.929288
O13	O	1.659071	-0.522625	0.204045
O14	O	2.159071	-0.022625	0.704045
O15	O	1.563377	-0.184380	0.332215
O16	O	2.063377	0.315620	0.832215
O17	O	1.866551	-0.487702	0.332186
O18	O	2.366551	0.012298	0.832186
O19	O	1.720581	-0.157920	0.429305
O20	O	2.220581	0.342080	0.929305
O21	O	1.528382	-0.391872	0.204057
O22	O	2.028382	0.108128	0.704057
O23	O	1.390760	-0.356922	0.332200
O24	O	1.890760	0.143078	0.832200
O25	O	1.624656	-0.426271	0.557420
O26	O	2.124656	0.073729	1.057420
O27	O	1.417175	-0.461194	0.429279
O28	O	1.917175	0.038806	0.929279
O29	O	1.755445	-0.295538	0.557431
O30	O	2.255445	0.204462	1.057431
O31	O	1.693934	-0.660244	0.332171
O32	O	2.193934	-0.160244	0.832171
O33	O	1.589661	-0.633763	0.429262
O34	O	2.089661	-0.133763	0.929262
C35	C	1.365348	-0.409056	0.380740
C36	C	1.865348	0.090944	0.880740
C37	C	1.247048	-0.409067	0.380760
C38	C	1.747048	0.090933	0.880760
C39	C	1.121403	-0.465936	0.433463
C40	C	1.621403	0.034064	0.933463
C41	C	1.172534	-0.511479	0.361324
C42	C	1.672534	-0.011479	0.861324
C43	C	1.197486	-0.363574	0.452891
C44	C	1.697486	0.136426	0.952891
C45	C	1.087377	-0.454712	0.308558
C46	C	1.587377	0.045288	0.808558
C47	C	1.112335	-0.306748	0.400174
C48	C	1.612335	0.193252	0.900174
C49	C	1.163421	-0.352268	0.327985
C50	C	1.663421	0.147732	0.827985
C51	C	1.641816	-0.685620	0.380730
C52	C	2.141816	-0.185620	0.880730
C53	C	1.641890	-0.803919	0.380754
C54	C	2.141890	-0.303919	0.880754
C55	C	1.585159	-0.858818	0.433525
C56	C	2.085159	-0.358818	0.933525
C57	C	1.539590	-0.949314	0.361401
C58	C	2.039590	-0.449314	0.861401
C59	C	1.687559	-0.924218	0.452890
C60	C	2.187559	-0.424218	0.952890
C61	C	1.596260	-0.892868	0.308591
C62	C	2.096260	-0.392868	0.808591
C63	C	1.744287	-0.867752	0.400129
C64	C	2.244287	-0.367752	0.900129
C65	C	1.698742	-0.958230	0.327956
C66	C	2.198742	-0.458230	0.827956
C67	C	1.919509	-0.409099	0.380737
C68	C	2.419509	0.090901	0.880737
C69	C	2.037814	-0.409108	0.380736
C70	C	2.537814	0.090892	0.880736
C71	C	1.698086	-0.352867	0.586907
C72	C	2.198086	0.147133	1.086907
C73	C	1.722035	-0.328913	0.674764
C74	C	2.222035	0.171087	1.174764
C75	C	1.641994	-0.131449	0.380763
C76	C	2.141994	0.368551	0.880763
C77	C	1.642039	-0.013141	0.380774
C78	C	2.142039	0.486859	0.880774
C79	C	1.585970	-0.464992	0.175371
C80	C	2.085970	0.035008	0.675371
C81	C	1.562228	-0.488645	0.087514
C82	C	2.062228	0.011355	0.587514
C83	C	1.460364	-0.590469	0.963686
C84	C	1.960364	-0.090469	1.463686
C85	C	1.482889	-0.567948	1.046241
C86	C	1.982889	-0.067948	1.546241
C87	C	1.619069	-0.431828	1.046242
C88	C	2.119069	0.068172	1.546242
C89	C	1.596551	-0.454334	0.963686
C90	C	2.096551	0.045666	1.463686
C91	C	1.517198	-0.533657	0.922414
C92	C	2.017198	-0.033657	1.422414
C93	C	1.653385	-0.397522	0.922413
C94	C	2.153385	0.102478	1.422413
C95	C	1.630873	-0.420031	0.839864
C96	C	2.130873	0.079969	1.339864
C97	C	1.551526	-0.499352	0.798587
C98	C	2.051526	0.000648	1.298587
C99	C	1.494686	-0.556166	0.839864
C100	C	1.994686	-0.056166	1.339864
C101	C	1.732743	-0.318205	0.963687
C102	C	2.232743	0.181795	1.463687
C103	C	1.789577	-0.261392	0.922414
C104	C	2.289577	0.238608	1.422414
C105	C	1.767059	-0.283895	0.839863
C106	C	2.267059	0.216105	1.339863
C107	C	1.687713	-0.363217	0.798586
C108	C	2.187713	0.136783	1.298586
C109	C	1.823900	-0.227082	0.798586
C110	C	2.323900	0.272918	1.298586
C111	C	1.801387	-0.249590	0.716036
C112	C	2.301387	0.250410	1.216036
C113	C	1.665201	-0.385726	0.716037
C114	C	2.165201	0.114274	1.216037
H115	H	1.039787	-0.493310	0.247531
H116	H	1.539787	0.006690	0.747531
Br117	Br	1.897271	-0.153749	0.978433
Br118	Br	2.397271	0.346251	1.478433
H119	H	1.830802	-0.832070	0.416536
H120	H	2.330802	-0.332070	0.916536
Br121	Br	1.194601	-0.272147	0.253604
Br122	Br	1.694601	0.227853	0.753604
H123	H	1.085704	-0.220217	0.416632
H124	H	1.585704	0.279783	0.916632
H125	H	1.557597	-0.878580	0.247578
H126	H	2.057597	-0.378580	0.747578
Br127	Br	1.395364	-1.008739	0.334088
Br128	Br	1.895364	-0.508739	0.834088
Br129	Br	1.504995	-0.786872	0.507800
Br130	Br	2.004995	-0.286872	1.007800
Br131	Br	1.778796	-1.029893	0.253509
Br132	Br	2.278796	-0.529893	0.753509
H133	H	1.726123	-0.938639	0.513887
H134	H	2.226123	-0.438639	1.013887
H135	H	1.245202	-0.325079	0.513902
H136	H	1.745202	0.174921	1.013902
Br137	Br	1.557494	-0.493367	0.660017
Br138	Br	2.057494	0.006633	1.160017
H139	H	1.888516	-0.162505	0.832201
H140	H	2.388516	0.337495	1.332201
H141	H	1.847666	-0.203326	0.682431
H142	H	2.347666	0.296674	1.182431
Br143	Br	1.352657	-0.698110	0.907667
Br144	Br	1.852657	-0.198110	1.407667
Br145	Br	1.089836	-0.546158	0.507674
Br146	Br	1.589836	-0.046158	1.007674
H147	H	1.683680	-0.367246	1.079857
H148	H	2.183680	0.132754	1.579857
H149	H	1.430044	-0.620733	0.806259
H150	H	1.930044	-0.120733	1.306259
Br151	Br	1.216897	-0.655730	0.333927
Br152	Br	1.716897	-0.155730	0.833927
Br153	Br	1.405747	-0.645059	1.102252
Br154	Br	1.905747	-0.145059	1.602252
Br155	Br	1.763302	-0.287663	1.075720
Br156	Br	2.263302	0.212337	1.575720
H157	H	1.533202	-0.517681	0.731369
H158	H	2.033202	-0.017681	1.231369
