data_functionalizedCrystal
_audit_creation_method	'MofGen! by Chris Wilmer'
_symmetry_space_group_name_H-M	'P1'
_symmetry_Int_Tables_number	1
_symmetry_cell_setting	triclinic
loop_
_symmetry_equiv_pos_as_xyz
  x,y,z
_cell_length_a	15.944499
_cell_length_b	15.995350
_cell_length_c	14.472310
_cell_angle_alpha	89.998838
_cell_angle_beta	89.991446
_cell_angle_gamma	96.515008
loop_
_atom_site_label
_atom_site_type_symbol
_atom_site_fract_x
_atom_site_fract_y
_atom_site_fract_z
O1	O	1.114556	-0.107777	-0.076740
O2	O	1.614556	0.392223	0.423260
O3	O	0.870000	-0.121136	-0.076763
O4	O	1.370000	0.378864	0.423237
O5	O	0.998963	0.007432	-0.076750
O6	O	1.498963	0.507432	0.423250
O7	O	0.985593	-0.236345	-0.076753
O8	O	1.485593	0.263655	0.423247
O9	O	0.998930	0.007425	0.076932
O10	O	1.498930	0.507425	0.576932
O11	O	0.869967	-0.121143	0.076919
O12	O	1.369967	0.378857	0.576919
O13	O	1.114523	-0.107784	0.076942
O14	O	1.614523	0.392216	0.576942
Cu15	Cu	0.992242	-0.114464	0.090963
Cu16	Cu	1.492242	0.385536	0.590963
Cu17	Cu	0.992281	-0.114456	-0.090784
Cu18	Cu	1.492281	0.385544	0.409216
O19	O	0.985560	-0.236352	0.076929
O20	O	1.485560	0.263648	0.576929
C21	C	0.838689	-0.120593	0.000075
C22	C	1.338689	0.379407	0.500075
C23	C	0.745440	-0.118953	0.000067
C24	C	1.245440	0.381047	0.500067
C25	C	0.998394	0.038623	0.000089
C26	C	1.498394	0.538623	0.500089
C27	C	0.996737	0.131573	0.000084
C28	C	1.496737	0.631573	0.500084
C29	C	1.145834	-0.108327	0.000102
C30	C	1.645834	0.391673	0.500102
C31	C	1.239082	-0.109967	0.000104
C32	C	1.739082	0.390033	0.500104
C33	C	1.530623	-0.035272	0.000087
C34	C	2.030623	0.464728	0.500087
C35	C	1.469604	-0.074097	-0.075687
C36	C	1.969604	0.425903	0.424313
C37	C	1.574719	-0.115924	0.000078
C38	C	2.074719	0.384076	0.500078
C39	C	1.469593	-0.074126	0.075831
C40	C	1.969593	0.425874	0.575831
C41	C	1.409810	-0.112993	0.000092
C42	C	1.909810	0.387007	0.500092
C43	C	1.514928	-0.154771	-0.075760
C44	C	2.014928	0.345229	0.424240
C45	C	1.514923	-0.154789	0.075827
C46	C	2.014923	0.345211	0.575827
C47	C	1.453922	-0.193672	0.000034
C48	C	1.953922	0.306328	0.500034
C49	C	1.669719	-0.117611	0.000068
C50	C	2.169719	0.382389	0.500068
C51	C	1.314811	-0.111313	0.000095
C52	C	1.814811	0.388687	0.500095
C53	C	0.986129	-0.267543	0.000088
C54	C	1.486129	0.232457	0.500088
C55	C	0.987786	-0.360493	0.000087
C56	C	1.487786	0.139507	0.500087
N57	N	0.992220	-0.114470	0.218794
N58	N	1.492220	0.385530	0.718794
C59	C	0.990785	0.469320	0.000086
C60	C	1.490785	0.969320	0.500086
C61	C	0.898940	0.421874	-0.000267
C62	C	1.398940	0.921874	0.499733
C63	C	0.900598	0.325184	0.000080
C64	C	1.400598	0.825184	0.500080
C65	C	0.993737	0.301760	0.000085
C66	C	1.493737	0.801760	0.500085
C67	C	1.039020	0.342839	0.087847
C68	C	1.539020	0.842839	0.587847
C69	C	1.036713	0.439474	0.087920
C70	C	1.536713	0.939474	0.587920
C71	C	1.038648	0.439841	-0.086845
C72	C	1.538648	0.939841	0.413155
C73	C	1.038626	0.342896	-0.088005
C74	C	1.538626	0.842896	0.411995
C75	C	0.995411	0.207063	0.000087
C76	C	1.495411	0.707063	0.500087
C77	C	0.989115	0.564018	0.000090
C78	C	1.489115	1.064018	0.500090
N79	N	0.992309	-0.114443	-0.218615
N80	N	1.492309	0.385557	0.281385
C81	C	0.992280	-0.114452	0.592885
C82	C	1.492280	0.385548	1.092885
C83	C	0.923043	-0.183016	0.553712
C84	C	1.423043	0.316984	1.053712
C85	C	0.923202	-0.183266	0.446624
C86	C	1.423202	0.316734	0.946624
C87	C	0.992250	-0.114461	0.407294
C88	C	1.492250	0.385539	0.907294
C89	C	1.079894	-0.133532	0.446139
C90	C	1.579894	0.366468	0.946139
C91	C	1.079505	-0.134019	0.553260
C92	C	1.579505	0.365981	1.053260
C93	C	0.974654	-0.026615	0.553413
C94	C	1.474654	0.473385	1.053413
C95	C	0.972644	-0.027201	0.446286
C96	C	1.472644	0.472799	0.946286
C97	C	0.992238	-0.114465	0.302406
C98	C	1.492238	0.385535	0.802406
C99	C	0.992297	-0.114451	0.697773
C100	C	1.492297	0.385549	1.197773
H101	H	1.563983	0.031650	-0.000004
H102	H	2.063983	0.531650	0.499996
H103	H	0.857684	-0.171842	0.579494
H104	H	1.357684	0.328158	1.079494
H105	H	1.132647	-0.084921	0.420661
H106	H	1.632647	0.415079	0.920661
H107	H	1.019798	0.026210	0.419516
H108	H	1.519798	0.526210	0.919516
F109	F	1.099805	-0.217748	0.585909
F110	F	1.599805	0.282252	1.085909
H111	H	0.934143	-0.247832	0.580622
H112	H	1.434143	0.252168	1.080622
H113	H	1.005519	0.315646	-0.152929
H114	H	1.505519	0.815646	0.347071
F115	F	1.443357	-0.029506	-0.159420
F116	F	1.943357	0.470494	0.340580
H117	H	1.534915	-0.188854	-0.139891
H118	H	2.034915	0.311146	0.360109
H119	H	1.132636	-0.086049	0.579172
H120	H	1.632636	0.413951	1.079172
H121	H	1.095797	-0.196860	0.419303
H122	H	1.595797	0.303140	0.919303
H123	H	1.106549	0.327543	-0.093300
H124	H	1.606549	0.827543	0.406700
H125	H	1.106365	0.471611	-0.087431
H126	H	1.606365	0.971611	0.412569
H127	H	1.420736	-0.260663	-0.000011
H128	H	1.920736	0.239337	0.499989
H129	H	1.535026	-0.188878	0.139890
H130	H	2.035026	0.311122	0.639890
H131	H	0.864735	0.297312	0.063092
H132	H	1.364735	0.797312	0.563092
F133	F	1.443341	-0.029527	0.159563
F134	F	1.943341	0.470473	0.659563
F135	F	0.854071	0.288030	-0.082150
F136	F	1.354071	0.788030	0.417850
F137	F	0.892918	-0.002655	0.588759
F138	F	1.392918	0.497345	1.088759
F139	F	0.851030	0.447756	0.081304
F140	F	1.351030	0.947756	0.581304
H141	H	0.862244	0.440404	-0.063203
H142	H	1.362244	0.940404	0.436797
F143	F	0.888374	-0.008282	0.413104
F144	F	1.388374	0.491718	0.913104
H145	H	1.003665	0.457768	0.153521
H146	H	1.503665	0.957768	0.653521
H147	H	1.107446	0.328722	0.091114
H148	H	1.607446	0.828722	0.591114
H149	H	1.025146	0.024408	0.578745
H150	H	1.525146	0.524408	1.078745
F151	F	1.124847	0.481639	0.093139
F152	F	1.624847	0.981639	0.593139
H153	H	1.007542	0.314450	0.153153
H154	H	1.507542	0.814450	0.653153
H155	H	0.858055	-0.171905	0.420362
H156	H	1.358055	0.328095	0.920362
H157	H	1.008633	0.460380	-0.153363
H158	H	1.508633	0.960380	0.346637
H159	H	0.934458	-0.248449	0.420991
H160	H	1.434458	0.251551	0.920991
