data_functionalizedCrystal
_audit_creation_method	'MofGen! by Chris Wilmer'
_symmetry_space_group_name_H-M	'P1'
_symmetry_Int_Tables_number	1
_symmetry_cell_setting	triclinic
loop_
_symmetry_equiv_pos_as_xyz
  x,y,z
_cell_length_a	16.120530
_cell_length_b	16.120484
_cell_length_c	13.897441
_cell_angle_alpha	92.866498
_cell_angle_beta	87.083121
_cell_angle_gamma	90.167327
loop_
_atom_site_label
_atom_site_type_symbol
_atom_site_fract_x
_atom_site_fract_y
_atom_site_fract_z
Zn1	Zn	1.254474	-0.395582	-0.642096
Zn2	Zn	1.247317	-0.534648	-0.488526
Zn3	Zn	1.115414	-0.388556	-0.472251
Zn4	Zn	1.108327	-0.527535	-0.641214
O5	O	1.181383	-0.461580	-0.561022
O6	O	1.369891	-0.419947	-0.628905
O7	O	1.229791	-0.515304	-0.351386
O8	O	1.139822	-0.273125	-0.488340
O9	O	1.364632	-0.522118	-0.516078
O10	O	1.241989	-0.278287	-0.613124
O11	O	1.132882	-0.407971	-0.339429
O12	O	0.998108	-0.401074	-0.487484
O13	O	1.127743	-0.509995	-0.776312
O14	O	0.992901	-0.503182	-0.611620
O15	O	1.235117	-0.413050	-0.776961
O16	O	1.222919	-0.650067	-0.515222
O17	O	1.120803	-0.644842	-0.627401
C18	C	0.965332	-0.450595	-0.547691
C19	C	0.872904	-0.445915	-0.542012
C20	C	0.703677	-0.437352	-0.531651
C21	C	0.659927	-0.485870	-0.590466
C22	C	0.565763	-0.481105	-0.584701
C23	C	0.797849	-0.442115	-0.537415
C24	C	1.170338	-0.677627	-0.573004
C25	C	1.165688	-0.770057	-0.578167
C26	C	1.157205	-0.939287	-0.587613
C27	C	1.205710	-0.983040	-0.534455
C28	C	1.200990	-1.077206	-0.539711
C29	C	1.161924	-0.845113	-0.582359
C30	C	1.398277	-0.472609	-0.574405
C31	C	1.490705	-0.477309	-0.580108
C32	C	1.181437	-0.461513	-0.812614
C33	C	1.181461	-0.461484	-0.919828
C34	C	1.192494	-0.244691	-0.549015
C35	C	1.197229	-0.152265	-0.543899
C36	C	1.181479	-0.461462	-1.006897
C37	C	1.181505	-0.461425	-1.116129
C38	C	1.181380	-0.461590	-0.310408
C39	C	1.181529	-0.461392	-0.203192
H40	H	0.670415	-0.392240	-0.476971
H41	H	0.693190	-0.530985	-0.645151
C42	C	1.096311	-0.984222	-0.654414
N43	N	1.050442	-1.018076	-0.704722
C44	C	1.266594	-0.938105	-0.467632
N45	N	1.312446	-0.904256	-0.417299
