data_functionalizedCrystal
_audit_creation_method	'MofGen! by Chris Wilmer'
_symmetry_space_group_name_H-M	'P1'
_symmetry_Int_Tables_number	1
_symmetry_cell_setting	triclinic
loop_
_symmetry_equiv_pos_as_xyz
  x,y,z
_cell_length_a	19.805407
_cell_length_b	12.645330
_cell_length_c	19.805398
_cell_angle_alpha	89.977256
_cell_angle_beta	89.986879
_cell_angle_gamma	90.017692
loop_
_atom_site_label
_atom_site_type_symbol
_atom_site_fract_x
_atom_site_fract_y
_atom_site_fract_z
Zn1	Zn	1.034734	-0.422053	-0.382747
Zn2	Zn	1.534734	0.077947	0.117253
Zn3	Zn	1.034678	-0.599335	-0.269571
Zn4	Zn	1.534678	-0.099335	0.230429
Zn5	Zn	0.921561	-0.422086	-0.269572
Zn6	Zn	1.421561	0.077914	0.230428
Zn7	Zn	0.921529	-0.599275	-0.382717
Zn8	Zn	1.421529	-0.099275	0.117283
O9	O	0.978125	-0.510687	-0.326152
O10	O	1.478125	-0.010687	0.173848
O11	O	1.129443	-0.445581	-0.367746
O12	O	1.629443	0.054419	0.132254
O13	O	1.019663	-0.575861	-0.174854
O14	O	1.519663	-0.075861	0.325146
O15	O	0.936610	-0.273734	-0.284598
O16	O	1.436610	0.226266	0.215402
O17	O	1.129402	-0.575829	-0.284596
O18	O	1.629402	-0.075829	0.215404
O19	O	1.019757	-0.273710	-0.367747
O20	O	1.519757	0.226290	0.132253
O21	O	0.936557	-0.445637	-0.174855
O22	O	1.436557	0.054363	0.325145
O23	O	0.826840	-0.445579	-0.284569
O24	O	1.326840	0.054421	0.215431
O25	O	0.936556	-0.575728	-0.477438
O26	O	1.436556	-0.075728	0.022562
O27	O	0.826817	-0.575759	-0.367696
O28	O	1.326817	-0.075759	0.132304
O29	O	1.019726	-0.445524	-0.477460
O30	O	1.519726	0.054476	0.022540
O31	O	1.019632	-0.747674	-0.284567
O32	O	1.519632	-0.247674	0.215433
O33	O	0.936502	-0.747630	-0.367695
O34	O	1.436502	-0.247630	0.132305
C35	C	0.802269	-0.510667	-0.326130
C36	C	1.302269	-0.010667	0.173870
C37	C	0.727037	-0.510684	-0.326137
C38	C	1.227037	-0.010684	0.173863
C39	C	0.691699	-0.578571	-0.369351
C40	C	1.191699	-0.078571	0.130649
C41	C	0.621010	-0.578573	-0.369361
C42	C	1.121010	-0.078573	0.130639
C43	C	0.585662	-0.510692	-0.326152
C44	C	1.085662	-0.010692	0.173848
C45	C	0.621006	-0.442798	-0.282935
C46	C	1.121006	0.057202	0.217065
C47	C	0.691693	-0.442791	-0.282930
C48	C	1.191693	0.057209	0.217070
C49	C	0.335932	-0.442821	-0.282958
C50	C	0.835932	0.057179	0.217042
C51	C	0.265240	-0.442835	-0.282965
C52	C	0.765240	0.057165	0.217035
C53	C	0.265250	-0.578602	-0.369388
C54	C	0.765250	-0.078602	0.130612
C55	C	0.335937	-0.578596	-0.369383
C56	C	0.835937	-0.078596	0.130617
C57	C	0.371275	-0.510698	-0.326169
C58	C	0.871275	-0.010698	0.173831
C59	C	0.447923	-0.510695	-0.326160
C60	C	0.947923	-0.010695	0.173840
C61	C	0.509015	-0.510699	-0.326157
C62	C	1.009015	-0.010699	0.173843
C63	C	0.978076	-0.786117	-0.326142
C64	C	1.478076	-0.286117	0.173858
C65	C	0.978117	-0.903947	-0.326161
C66	C	1.478117	-0.403947	0.173839
C67	C	0.926035	-1.071527	-0.378618
C68	C	1.426035	-0.571527	0.121382
C69	C	0.925769	-0.948968	-0.378450
C70	C	1.425769	-0.448968	0.121550
C71	C	0.958819	-0.948537	-0.254828
C72	C	1.458819	-0.448537	0.245172
C73	C	0.958501	-1.071135	-0.255147
C74	C	1.458501	-0.571135	0.244853
C75	C	1.049815	-1.071037	-0.344457
C76	C	1.549815	-0.571037	0.155543
C77	C	1.049376	-0.948430	-0.346017
C78	C	1.549376	-0.448430	0.153983
C79	C	1.154668	-0.510708	-0.326174
C80	C	1.654668	-0.010708	0.173826
C81	C	1.229900	-0.510717	-0.326184
C82	C	1.729900	-0.010717	0.173816
C83	C	0.978144	-0.510615	-0.502695
C84	C	1.478144	-0.010615	-0.002695
C85	C	0.978151	-0.510585	-0.577927
C86	C	1.478151	-0.010585	-0.077927
C87	C	0.978194	-0.234182	-0.326176
C88	C	1.478194	0.265818	0.173824
C89	C	0.978222	-0.116352	-0.326186
C90	C	1.478222	0.383648	0.173814
C91	C	1.021532	-0.578224	-1.039715
C92	C	1.521532	-0.078224	-0.539715
C93	C	1.021513	-0.578253	-0.969026
C94	C	1.521513	-0.078253	-0.469026
C95	C	0.978235	-0.510465	-0.933688
C96	C	1.478235	-0.010465	-0.433688
C97	C	0.934969	-0.442652	-0.969043
C98	C	1.434969	0.057348	-0.469043
C99	C	0.934984	-0.442630	-1.039730
C100	C	1.434984	0.057370	-0.539730
C101	C	0.934903	-0.442743	-0.683969
C102	C	1.434903	0.057257	-0.183969
C103	C	0.934892	-0.442769	-0.613277
C104	C	1.434892	0.057231	-0.113277
C105	C	1.021432	-0.578366	-0.613266
C106	C	1.521432	-0.078366	-0.113266
C107	C	1.021448	-0.578344	-0.683953
C108	C	1.521448	-0.078344	-0.183953
C109	C	0.978179	-0.510535	-0.719301
C110	C	1.478179	-0.010535	-0.219301
C111	C	0.978199	-0.510506	-0.795949
C112	C	1.478199	-0.010506	-0.295949
C113	C	0.978218	-0.510488	-0.857041
C114	C	1.478218	-0.010488	-0.357041
C115	C	0.978146	-0.510682	-0.150296
C116	C	1.478146	-0.010682	0.349704
C117	C	0.978270	-0.510414	-0.075064
C118	C	1.478270	-0.010414	0.424936
H119	H	0.236470	-0.633884	-0.404578
H120	H	0.736470	-0.133884	0.095422
H121	H	1.056777	-0.633420	-1.068482
H122	H	1.556777	-0.133420	-0.568482
H123	H	0.937997	-1.100942	-0.431684
H124	H	1.437997	-0.600942	0.068316
H125	H	0.592241	-0.633854	-0.404549
H126	H	1.092241	-0.133854	0.095451
N127	N	0.372033	-0.647948	-0.413519
N128	N	0.872033	-0.147948	0.086481
N129	N	0.340472	-0.708558	-0.452102
N130	N	0.840472	-0.208558	0.047898
H131	H	0.365964	-0.757538	-0.483276
H132	H	0.865964	-0.257538	0.016724
N133	N	0.859871	-1.110301	-0.363626
N134	N	1.359871	-0.610301	0.136374
N135	N	0.850985	-1.170803	-0.314493
N136	N	1.350985	-0.670803	0.185507
H137	H	0.804258	-1.198191	-0.303903
H138	H	1.304258	-0.698191	0.196097
H139	H	0.236461	-0.387552	-0.247779
H140	H	0.736461	0.112448	0.252221
N141	N	1.100723	-0.909973	-0.301603
N142	N	1.600723	-0.409973	0.198397
N143	N	1.111258	-0.812802	-0.296779
N144	N	1.611258	-0.312802	0.203221
H145	H	1.147520	-0.785643	-0.265405
H146	H	1.647520	-0.285643	0.234595
N147	N	0.727803	-0.647896	-0.413498
N148	N	1.227803	-0.147896	0.086502
N149	N	0.767264	-0.610680	-0.456667
N150	N	1.267264	-0.110680	0.043333
H151	H	0.792761	-0.659640	-0.487850
H152	H	1.292761	-0.159640	0.012150
H153	H	0.899728	-0.387463	-0.940265
H154	H	1.399728	0.112537	-0.440265
H155	H	1.056661	-0.633583	-0.584477
H156	H	1.556661	-0.133583	-0.084477
H157	H	0.364695	-0.387542	-0.247765
H158	H	0.864695	0.112458	0.252235
N159	N	1.098584	-1.107397	-0.296545
N160	N	1.598584	-0.607397	0.203455
N161	N	1.080785	-1.166425	-0.249129
N162	N	1.580785	-0.666425	0.250871
H163	H	1.115222	-1.192108	-0.215288
H164	H	1.615222	-0.692108	0.284712
N165	N	0.892850	-1.107154	-0.235743
N166	N	1.392850	-0.607154	0.264257
N167	N	0.880744	-1.204040	-0.232473
N168	N	1.380744	-0.704040	0.267527
H169	H	0.834376	-1.229476	-0.218771
H170	H	1.334376	-0.729476	0.281229
H171	H	0.899648	-0.387565	-0.584507
H172	H	1.399648	0.112435	-0.084507
N173	N	0.890805	-0.373359	-1.075851
N174	N	1.390805	0.126641	-0.575851
N175	N	0.890825	-0.373346	-1.138964
N176	N	1.390825	0.126654	-0.638964
H177	H	0.859621	-0.324424	-1.164475
H178	H	1.359621	0.175576	-0.664475
H179	H	0.899670	-0.387531	-0.712741
H180	H	1.399670	0.112469	-0.212741
H181	H	0.592219	-0.387523	-0.247757
H182	H	1.092219	0.112477	0.252243
H183	H	0.994863	-1.100790	-0.214749
H184	H	1.494863	-0.600790	0.285251
H185	H	0.720465	-0.387505	-0.247744
H186	H	1.220465	0.112495	0.252256
H187	H	0.872693	-0.919733	-0.366345
H188	H	1.372693	-0.419733	0.133655
N189	N	0.940915	-0.911153	-0.444804
N190	N	1.440915	-0.411153	0.055196
N191	N	0.951756	-0.975306	-0.491563
N192	N	1.451756	-0.475306	0.008437
H193	H	0.962451	-0.948605	-0.538430
H194	H	1.462451	-0.448605	-0.038430
N195	N	1.004988	-0.911936	-0.204485
N196	N	1.504988	-0.411936	0.295515
N197	N	1.011497	-0.815018	-0.193930
N198	N	1.511497	-0.315018	0.306070
H199	H	1.044106	-0.789165	-0.158376
H200	H	1.544106	-0.289165	0.341624
N201	N	0.893851	-0.910128	-0.235065
N202	N	1.393851	-0.410128	0.264935
N203	N	0.861650	-0.849929	-0.273391
N204	N	1.361650	-0.349929	0.226609
H205	H	0.815765	-0.822802	-0.259437
H206	H	1.315765	-0.322802	0.240563
H207	H	1.067422	-1.101884	-0.395589
H208	H	1.567422	-0.601884	0.104411
N209	N	1.067628	-0.911862	-0.411874
N210	N	1.567628	-0.411862	0.088126
N211	N	1.028338	-0.853253	-0.444104
N212	N	1.528338	-0.353253	0.055896
H213	H	1.041226	-0.827421	-0.490617
H214	H	1.541226	-0.327421	0.009383
H215	H	1.056733	-0.633483	-0.940248
H216	H	1.556733	-0.133483	-0.440248
N217	N	1.065663	-0.647587	-0.720038
N218	N	1.565663	-0.147587	-0.220038
N219	N	1.104287	-0.708129	-0.688468
N220	N	1.604287	-0.208129	-0.188468
H221	H	1.135515	-0.757037	-0.713952
H222	H	1.635515	-0.257037	-0.213952
