data_functionalizedCrystal
_audit_creation_method	'MofGen! by Chris Wilmer'
_symmetry_space_group_name_H-M	'P1'
_symmetry_Int_Tables_number	1
_symmetry_cell_setting	triclinic
loop_
_symmetry_equiv_pos_as_xyz
  x,y,z
_cell_length_a	16.109301
_cell_length_b	16.776229
_cell_length_c	16.109301
_cell_angle_alpha	90.004839
_cell_angle_beta	83.461481
_cell_angle_gamma	90.003040
loop_
_atom_site_label
_atom_site_type_symbol
_atom_site_fract_x
_atom_site_fract_y
_atom_site_fract_z
O1	O	1.103134	0.066240	0.106865
O2	O	1.436467	0.399574	0.440199
O3	O	1.769800	0.732907	0.773532
O4	O	0.861072	0.066253	0.120165
O5	O	1.194405	0.399587	0.453498
O6	O	1.527738	0.732920	0.786831
O7	O	0.988752	0.066238	-0.007516
O8	O	1.322086	0.399572	0.325817
O9	O	1.655419	0.732905	0.659151
O10	O	0.975453	0.066255	0.234546
O11	O	1.308786	0.399589	0.567879
O12	O	1.642120	0.732922	0.901213
O13	O	0.988738	-0.066338	-0.007516
O14	O	1.322071	0.266995	0.325817
O15	O	1.655404	0.600329	0.659150
O16	O	0.861057	-0.066323	0.120164
O17	O	1.194390	0.267010	0.453498
O18	O	1.527724	0.600343	0.786831
O19	O	1.103119	-0.066336	0.106865
O20	O	1.436452	0.266997	0.440198
O21	O	1.769786	0.600331	0.773532
Zn22	Zn	0.982086	-0.087379	0.113515
Zn23	Zn	1.315419	0.245954	0.446848
Zn24	Zn	1.648753	0.579288	0.780181
Zn25	Zn	0.982105	0.087296	0.113515
Zn26	Zn	1.315438	0.420630	0.446848
Zn27	Zn	1.648772	0.753963	0.780182
O28	O	0.975438	-0.066321	0.234546
O29	O	1.308772	0.267012	0.567879
O30	O	1.642105	0.600345	0.901212
C31	C	0.830090	-0.000033	0.119626
C32	C	1.163423	0.333300	0.452959
C33	C	1.496756	0.666633	0.786292
C34	C	0.737794	-0.000029	0.118011
C35	C	1.071128	0.333305	0.451344
C36	C	1.404461	0.666638	0.784677
C37	C	0.515522	-0.000033	0.190018
C38	C	0.848855	0.333300	0.523352
C39	C	1.182188	0.666634	0.856685
C40	C	0.428801	-0.000038	0.188494
C41	C	0.762135	0.333295	0.521828
C42	C	1.095468	0.666629	0.855161
C43	C	0.448676	-0.000045	0.037006
C44	C	0.782009	0.333288	0.370339
C45	C	1.115342	0.666621	0.703672
C46	C	0.535394	-0.000046	0.038530
C47	C	0.868728	0.333287	0.371864
C48	C	1.202061	0.666621	0.705197
C49	C	0.568815	-0.000036	0.115039
C50	C	0.902148	0.333298	0.448373
C51	C	1.235482	0.666631	0.781706
C52	C	0.395376	-0.000040	0.111990
C53	C	0.728709	0.333293	0.445324
C54	C	1.062042	0.666626	0.778657
C55	C	0.301350	-0.000046	0.110337
C56	C	0.634683	0.333287	0.443671
C57	C	0.968016	0.666621	0.777004
C58	C	0.662847	-0.000031	0.116693
C59	C	0.996180	0.333302	0.450026
C60	C	1.329514	0.666635	0.783359
N61	N	0.982079	-0.206590	0.113514
N62	N	1.315412	0.126743	0.446847
N63	N	1.648746	0.460076	0.780180
C64	C	1.032485	-0.248303	0.163957
C65	C	1.365819	0.085030	0.497290
C66	C	1.699152	0.418364	0.830624
C67	C	1.032494	-0.331755	0.163954
C68	C	1.365828	0.001578	0.497287
C69	C	1.699161	0.334911	0.830620
C70	C	0.982092	-0.373493	0.113511
C71	C	1.315426	-0.040160	0.446845
C72	C	1.648759	0.293174	0.780178
C73	C	0.931684	-0.331775	0.063062
C74	C	1.265017	0.001559	0.396396
C75	C	1.598351	0.334892	0.729729
C76	C	0.931680	-0.248324	0.063062
C77	C	1.265013	0.085009	0.396395
C78	C	1.598347	0.418343	0.729728
C79	C	0.931701	-0.668322	0.063063
C80	C	1.265034	-0.334988	0.396397
C81	C	1.598368	-0.001655	0.729730
C82	C	0.931707	-0.751778	0.063070
C83	C	1.265040	-0.418445	0.396403
C84	C	1.598374	-0.085112	0.729737
C85	C	1.032515	-0.751753	0.163956
C86	C	1.365849	-0.418420	0.497289
C87	C	1.699182	-0.085086	0.830622
C88	C	1.032511	-0.668302	0.163955
C89	C	1.365845	-0.334969	0.497288
C90	C	1.699178	-0.001636	0.830622
C91	C	0.982107	-0.626591	0.113503
C92	C	1.315440	-0.293258	0.446836
C93	C	1.648773	0.040076	0.780170
C94	C	0.982098	-0.536103	0.113506
C95	C	1.315432	-0.202769	0.446839
C96	C	1.648765	0.130564	0.780172
C97	C	0.982096	-0.463980	0.113512
C98	C	1.315429	-0.130647	0.446846
C99	C	1.648762	0.202687	0.780179
C100	C	1.134101	-0.000048	0.107404
C101	C	1.467435	0.333286	0.440737
C102	C	1.800768	0.666619	0.774071
C103	C	1.226397	-0.000047	0.109019
C104	C	1.559730	0.333286	0.442352
C105	C	1.893063	0.666620	0.775686
C106	C	0.988206	-0.000050	-0.038491
C107	C	1.321540	0.333283	0.294842
C108	C	1.654873	0.666616	0.628176
C109	C	0.986591	-0.000051	-0.130786
C110	C	1.319925	0.333282	0.202547
C111	C	1.653258	0.666615	0.535880
N112	N	0.982118	0.206507	0.113509
N113	N	1.315452	0.539841	0.446843
N114	N	1.648785	0.873174	0.780176
C115	C	1.058599	-0.000043	-0.353059
C116	C	1.391932	0.333291	-0.019725
C117	C	1.725266	0.666624	0.313608
C118	C	1.057075	-0.000036	-0.439779
C119	C	1.390408	0.333297	-0.106446
C120	C	1.723742	0.666631	0.226888
C121	C	0.905586	-0.000031	-0.419905
C122	C	1.238919	0.333302	-0.086571
C123	C	1.572253	0.666636	0.246762
C124	C	0.907111	-0.000032	-0.333186
C125	C	1.240444	0.333301	0.000147
C126	C	1.573778	0.666635	0.333481
C127	C	0.983620	-0.000042	-0.299766
C128	C	1.316953	0.333292	0.033568
C129	C	1.650287	0.666625	0.366901
C130	C	0.980571	-0.000034	-0.473205
C131	C	1.313904	0.333299	-0.139871
C132	C	1.647238	0.666633	0.193462
C133	C	0.978918	-0.000027	-0.567231
C134	C	1.312251	0.333306	-0.233897
C135	C	1.645585	0.666640	0.099436
C136	C	0.985273	-0.000047	-0.205734
C137	C	1.318607	0.333286	0.127600
C138	C	1.651940	0.666619	0.460933
C139	C	0.975984	-0.000031	0.265521
C140	C	1.309318	0.333303	0.598854
C141	C	1.642651	0.666636	0.932187
C142	C	0.977600	-0.000025	0.357816
C143	C	1.310933	0.333309	0.691149
C144	C	1.644266	0.666642	1.024483
H145	H	1.073523	-0.214326	0.205038
H146	H	1.406857	0.119007	0.538372
H147	H	1.740190	0.452341	0.871705
H148	H	0.890634	-0.214362	0.021986
H149	H	1.223967	0.118971	0.355319
H150	H	1.557300	0.452304	0.688652
H151	H	0.890650	-0.365764	0.021987
H152	H	1.223983	-0.032431	0.355320
H153	H	1.557317	0.300902	0.688654
F154	F	1.136878	-0.000035	-0.496495
F155	F	1.470211	0.333298	-0.163161
F156	F	1.803545	0.666632	0.170172
F157	F	1.140026	-0.000052	-0.317493
F158	F	1.473360	0.333281	0.015840
F159	F	1.806693	0.666615	0.349173
H160	H	1.073542	-0.365714	0.205028
H161	H	1.406875	-0.032381	0.538362
H162	H	1.740209	0.300953	0.871695
H163	H	0.843295	-0.000024	-0.447127
H164	H	1.176628	0.333309	-0.113793
H165	H	1.509962	0.666642	0.219540
F166	F	0.372086	-0.000036	0.268298
F167	F	0.705419	0.333297	0.601631
F168	F	1.038753	0.666630	0.934964
F169	F	0.413100	-0.000053	-0.044416
F170	F	0.746433	0.333280	0.288917
F171	F	1.079766	0.666614	0.622251
F172	F	0.827304	-0.000025	-0.276464
F173	F	1.160637	0.333308	0.056870
F174	F	1.493970	0.666641	0.390203
H175	H	0.578788	-0.000050	-0.022530
H176	H	0.912122	0.333283	0.310803
H177	H	1.245455	0.666616	0.644136
F178	F	1.086146	-0.623886	0.217652
F179	F	1.419480	-0.290553	0.550985
F180	F	1.752813	0.042780	0.884319
F181	F	0.551087	-0.000025	0.271446
F182	F	0.884421	0.333308	0.604779
F183	F	1.217754	0.666642	0.938112
F184	F	0.878060	-0.796197	0.009379
F185	F	1.211394	-0.462864	0.342712
F186	F	1.544727	-0.129531	0.676045
F187	F	1.086163	-0.796152	0.217649
F188	F	1.419497	-0.462818	0.550983
F189	F	1.752830	-0.129485	0.884316
H190	H	0.890659	-0.634370	0.021982
H191	H	1.223992	-0.301037	0.355315
H192	H	1.557325	0.032296	0.688649
