data_functionalizedCrystal
_audit_creation_method	'MofGen! by Chris Wilmer'
_symmetry_space_group_name_H-M	'P1'
_symmetry_Int_Tables_number	1
_symmetry_cell_setting	triclinic
loop_
_symmetry_equiv_pos_as_xyz
  x,y,z
_cell_length_a	16.959455
_cell_length_b	12.594516
_cell_length_c	16.959455
_cell_angle_alpha	90.004378
_cell_angle_beta	90.005786
_cell_angle_gamma	90.013000
loop_
_atom_site_label
_atom_site_type_symbol
_atom_site_fract_x
_atom_site_fract_y
_atom_site_fract_z
Zn1	Zn	1.208339	-0.424026	0.446937
Zn2	Zn	1.208291	-0.601968	0.314770
Zn3	Zn	1.076187	-0.423995	0.314774
Zn4	Zn	1.076142	-0.601953	0.446909
O5	O	1.142240	-0.512986	0.380848
O6	O	1.318944	-0.447650	0.429415
O7	O	1.190766	-0.578353	0.204160
O8	O	1.093757	-0.275053	0.332320
O9	O	1.318908	-0.578383	0.332312
O10	O	1.190848	-0.275076	0.429419
O11	O	1.093710	-0.447597	0.204163
O12	O	0.965570	-0.447582	0.332292
O13	O	1.093679	-0.578358	0.557523
O14	O	0.965537	-0.578327	0.429371
O15	O	1.190804	-0.447635	0.557544
O16	O	1.190721	-0.750912	0.332285
O17	O	1.093632	-0.750901	0.429367
C18	C	0.936873	-0.512951	0.380829
C19	C	0.849017	-0.512961	0.380840
C20	C	1.142188	-0.789527	0.380840
C21	C	1.142238	-0.907832	0.380863
C22	C	0.477534	-0.444851	0.330404
C23	C	0.477548	-0.581208	0.431336
C24	C	0.560094	-0.581193	0.431331
C25	C	0.601364	-0.513007	0.380861
C26	C	0.560088	-0.444836	0.330396
C27	C	0.601376	-0.649370	0.481790
C28	C	0.683927	-0.649358	0.481786
C29	C	0.725199	-0.581166	0.431320
C30	C	0.683917	-0.512992	0.380853
C31	C	0.725187	-0.444805	0.330383
C32	C	0.683908	-0.376625	0.279920
C33	C	0.601359	-0.376643	0.279930
C34	C	0.807747	-0.581147	0.431310
C35	C	0.807741	-0.444790	0.330375
C36	C	1.089426	-0.977118	0.433629
C37	C	1.070185	-1.047945	0.361503
C38	C	1.161551	-1.047804	0.453001
C39	C	1.122959	-0.977101	0.308699
C40	C	1.214359	-0.976954	0.400246
C41	C	1.195145	-1.047749	0.328070
C42	C	1.348408	-0.513022	0.380866
C43	C	1.436265	-0.513037	0.380874
C44	C	1.142242	-0.512998	0.587016
C45	C	1.142243	-0.513004	0.674872
C46	C	1.142313	-0.235365	0.380873
C47	C	1.142345	-0.117059	0.380883
C48	C	1.091676	-0.581068	0.716137
C49	C	1.192806	-0.444937	0.716161
C50	C	1.192806	-0.444936	0.798707
C51	C	1.142239	-0.513000	0.839972
C52	C	1.091672	-0.581067	0.798691
C53	C	1.243366	-0.376863	0.839994
C54	C	1.243367	-0.376858	0.922545
C55	C	1.192803	-0.444929	0.963812
C56	C	1.142235	-0.512999	0.922525
C57	C	1.091668	-0.581064	0.963790
C58	C	1.041103	-0.649140	0.922505
C59	C	1.041108	-0.649138	0.839957
C60	C	1.192798	-0.444931	1.046360
C61	C	1.091664	-0.581062	1.046344
C62	C	1.142232	-0.512998	1.175481
C63	C	1.142231	-0.512996	1.087625
H64	H	0.717520	-0.321112	0.238824
H65	H	0.567768	-0.704891	0.522874
O66	O	0.728443	-0.722882	0.536222
H67	H	0.792778	-0.711419	0.527739
H68	H	1.177843	-1.078860	0.513999
H69	H	0.567742	-0.321136	0.238845
H70	H	1.050509	-0.636497	0.682520
H71	H	0.999941	-0.704561	0.806336
O72	O	0.433050	-0.654761	0.485768
H73	H	0.395453	-0.607224	0.526053
O74	O	1.037119	-0.654470	1.090851
H75	H	1.001958	-0.701796	1.048273
H76	H	1.284541	-0.321428	0.956152
H77	H	1.233972	-0.389517	0.682558
O78	O	1.295064	-0.935616	0.421985
H79	H	1.318669	-0.887137	0.372691
O80	O	0.986558	-0.722541	0.967019
H81	H	1.000089	-0.806083	0.951180
H82	H	1.284532	-0.321445	0.806390
H83	H	1.239852	-1.078567	0.283406
O84	O	1.030168	-0.936024	0.492651
H85	H	1.031044	-0.847903	0.492513
H86	H	1.233961	-0.389496	1.079970
H87	H	0.841353	-0.636662	0.472394
H88	H	0.443921	-0.389337	0.289321
H89	H	0.841337	-0.389258	0.289281
O90	O	0.989461	-1.089253	0.339783
H91	H	0.945681	-1.060973	0.383657
H92	H	1.106596	-0.946173	0.247685
