data_functionalizedCrystal
_audit_creation_method	'MofGen! by Chris Wilmer'
_symmetry_space_group_name_H-M	'P1'
_symmetry_Int_Tables_number	1
_symmetry_cell_setting	triclinic
loop_
_symmetry_equiv_pos_as_xyz
  x,y,z
_cell_length_a	19.121102
_cell_length_b	19.120786
_cell_length_c	18.101390
_cell_angle_alpha	87.524889
_cell_angle_beta	87.541727
_cell_angle_gamma	89.915559
loop_
_atom_site_label
_atom_site_type_symbol
_atom_site_fract_x
_atom_site_fract_y
_atom_site_fract_z
Zn1	Zn	1.059863	-0.324890	-0.451720
Zn2	Zn	1.559863	0.175110	0.048280
Zn3	Zn	1.054773	-0.442145	-0.322370
Zn4	Zn	1.554773	0.057855	0.177630
Zn5	Zn	0.942625	-0.319913	-0.322850
Zn6	Zn	1.442625	0.180087	0.177150
Zn7	Zn	0.937592	-0.437088	-0.441134
Zn8	Zn	1.437592	0.062912	0.058866
O9	O	0.998713	-0.381009	-0.384518
O10	O	1.498713	0.118991	0.115482
O11	O	1.157293	-0.344644	-0.438791
O12	O	1.657293	0.155356	0.061209
O13	O	1.039872	-0.425964	-0.218798
O14	O	1.539872	0.074036	0.281202
O15	O	0.962413	-0.222464	-0.344576
O16	O	1.462413	0.277536	0.155424
O17	O	1.153553	-0.430790	-0.343759
O18	O	1.653553	0.069210	0.156241
O19	O	1.048547	-0.226120	-0.439256
O20	O	1.548547	0.273880	0.060744
O21	O	0.957477	-0.336161	-0.219151
O22	O	1.457477	0.163839	0.280849
O23	O	0.843852	-0.331257	-0.334311
O24	O	1.343852	0.168743	0.165689
O25	O	0.953835	-0.422171	-0.546173
O26	O	1.453835	0.077829	-0.046173
O27	O	0.840154	-0.417345	-0.421213
O28	O	1.340154	0.082655	0.078787
O29	O	1.043667	-0.339740	-0.553951
O30	O	1.543667	0.160260	-0.053951
O31	O	1.034992	-0.539584	-0.333493
O32	O	1.534992	-0.039584	0.166507
O33	O	0.948900	-0.535869	-0.420748
O34	O	1.448900	-0.035869	0.079252
C35	C	0.816565	-0.373213	-0.376666
C36	C	1.316565	0.126787	0.123334
C37	C	0.738641	-0.369894	-0.373323
C38	C	1.238641	0.130106	0.126677
C39	C	0.990866	-0.563166	-0.375937
C40	C	1.490866	-0.063166	0.124063
C41	C	0.987574	-0.641096	-0.372293
C42	C	1.487574	-0.141096	0.127707
C43	C	0.700122	-0.413225	-0.416920
C44	C	1.200122	0.086775	0.083080
C45	C	0.626905	-0.410097	-0.413784
C46	C	1.126905	0.089903	0.086216
C47	C	0.592207	-0.363643	-0.367045
C48	C	1.092207	0.136357	0.132955
C49	C	0.630731	-0.320308	-0.323446
C50	C	1.130731	0.179692	0.176554
C51	C	0.703947	-0.323432	-0.326587
C52	C	1.203947	0.176568	0.173413
C53	C	0.371236	-0.351961	-0.355304
C54	C	0.871236	0.148039	0.144696
C55	C	0.298014	-0.348842	-0.352165
C56	C	0.798014	0.151158	0.147835
C57	C	0.294193	-0.438630	-0.442504
C58	C	0.794193	0.061370	0.057496
C59	C	0.367411	-0.441753	-0.445638
C60	C	0.867411	0.058247	0.054362
C61	C	0.405929	-0.398416	-0.402041
C62	C	0.905929	0.101584	0.097959
C63	C	0.517366	-0.360447	-0.363836
C64	C	1.017366	0.139553	0.136164
C65	C	0.480768	-0.401609	-0.405255
C66	C	0.980768	0.098391	0.094745
C67	C	1.030839	-0.679550	-0.419913
C68	C	1.530839	-0.179550	0.080087
C69	C	1.027742	-0.752773	-0.416491
C70	C	1.527742	-0.252773	0.083509
C71	C	0.981383	-0.787542	-0.365444
C72	C	1.481383	-0.287542	0.134556
C73	C	0.938114	-0.749083	-0.317822
C74	C	1.438114	-0.249083	0.182178
C75	C	0.941207	-0.675860	-0.321248
C76	C	1.441207	-0.175860	0.178752
C77	C	0.969798	-1.008533	-0.352633
C78	C	1.469798	-0.508533	0.147367
C79	C	0.966709	-1.081761	-0.349209
C80	C	1.466709	-0.581761	0.150791
C81	C	1.056337	-1.085447	-0.447879
C82	C	1.556337	-0.585447	0.052121
C83	C	1.059429	-1.012223	-0.451298
C84	C	1.559429	-0.512223	0.048702
C85	C	1.016157	-0.973770	-0.403679
C86	C	1.516157	-0.473770	0.096321
C87	C	0.978219	-0.862388	-0.361943
C88	C	1.478219	-0.362388	0.138057
C89	C	1.019319	-0.898925	-0.407184
C90	C	1.519319	-0.398925	0.092816
C91	C	1.181572	-0.388836	-0.392402
C92	C	1.681572	0.111164	0.107598
C93	C	1.259495	-0.392172	-0.395762
C94	C	1.759495	0.107828	0.104238
C95	C	0.998757	-0.380947	-0.577685
C96	C	1.498757	0.119053	-0.077685
C97	C	0.998776	-0.380920	-0.660001
C98	C	1.498776	0.119080	-0.160001
C99	C	1.006609	-0.198142	-0.393151
C100	C	1.506609	0.301858	0.106849
C101	C	1.009974	-0.120215	-0.396829
C102	C	1.509974	0.379785	0.103171
C103	C	0.998816	-0.380878	-0.959096
C104	C	1.498816	0.119122	-0.459096
C105	C	1.055506	-0.329213	-0.932663
C106	C	1.555506	0.170787	-0.432663
C107	C	1.055345	-0.329005	-0.847047
C108	C	1.555345	0.170995	-0.347047
C109	C	0.998797	-0.380899	-0.810712
C110	C	1.498797	0.119101	-0.310712
C111	C	0.925795	-0.357670	-0.839552
C112	C	1.425795	0.142330	-0.339552
C113	C	0.926138	-0.357279	-0.925230
C114	C	1.426138	0.142721	-0.425230
C115	C	1.014471	-0.455884	-0.924834
C116	C	1.514471	0.044116	-0.424834
C117	C	1.016108	-0.455575	-0.839272
C118	C	1.516108	0.044425	-0.339272
C119	C	0.998781	-0.380912	-0.726851
C120	C	1.498781	0.119088	-0.226851
C121	C	0.998826	-0.380863	-1.042957
C122	C	1.498826	0.119137	-0.542957
C123	C	0.998711	-0.381022	-0.192107
C124	C	1.498711	0.118978	0.307893
C125	C	0.998836	-0.380857	-0.109807
C126	C	1.498836	0.119143	0.390193
H127	H	0.595546	-0.445382	-0.449285
H128	H	1.095546	0.054618	0.050715
H129	H	0.882633	-0.393101	-0.942370
H130	H	1.382633	0.106899	-0.442370
O131	O	1.083553	-0.483081	-0.955324
O132	O	1.583553	0.016919	-0.455324
H133	H	1.126206	-0.447130	-0.941706
H134	H	1.626206	0.052870	-0.441706
H135	H	0.928955	-1.110067	-0.307640
H136	H	1.428955	-0.610067	0.192360
O137	O	0.479926	-0.310359	-0.313419
O138	O	0.979926	0.189641	0.186581
H139	H	0.496334	-0.255941	-0.329401
H140	H	0.996334	0.244059	0.170599
H141	H	0.882547	-0.394003	-0.815594
H142	H	1.382547	0.105997	-0.315594
O143	O	0.260572	-0.298744	-0.301752
O144	O	0.760572	0.201256	0.198248
H145	H	0.276976	-0.244326	-0.317742
H146	H	0.776976	0.255674	0.182258
O147	O	0.907307	-0.285695	-0.813582
O148	O	1.407307	0.214305	-0.313582
H149	H	0.949993	-0.266349	-0.780144
H150	H	1.449993	0.233651	-0.280144
H151	H	0.262824	-0.473912	-0.477998
H152	H	0.762824	0.026088	0.022002
O153	O	0.928234	-0.899896	-0.306874
O154	O	1.428234	-0.399896	0.193126
H155	H	0.891141	-0.931749	-0.336884
H156	H	1.391141	-0.431749	0.163116
H157	H	1.069814	-0.473034	-0.820588
H158	H	1.569814	0.026966	-0.320588
O159	O	1.041958	-0.255485	-0.822633
O160	O	1.541958	0.244515	-0.322633
H161	H	0.990436	-0.237225	-0.841897
H162	H	1.490436	0.262775	-0.341897
H163	H	0.934565	-0.977231	-0.313858
H164	H	1.434565	-0.477231	0.186142
H165	H	0.977568	-0.496393	-0.814285
H166	H	1.477568	0.003607	-0.314285
H167	H	1.109922	-0.343976	-0.955045
H168	H	1.609922	0.156024	-0.455045
O169	O	1.127181	-0.348740	-0.821548
O170	O	1.627181	0.151260	-0.321548
H171	H	1.162350	-0.358516	-0.870399
H172	H	1.662350	0.141484	-0.370399
O173	O	0.959733	-0.506934	-0.946894
O174	O	1.459733	-0.006934	-0.446894
H175	H	0.921559	-0.479066	-0.982086
H176	H	1.421559	0.020934	-0.482086
H177	H	1.045538	-0.274024	-0.956238
H178	H	1.545538	0.225976	-0.456238
H179	H	0.900364	-0.777397	-0.276261
H180	H	1.400364	-0.277397	0.223739
O181	O	1.109453	-0.974723	-0.506333
O182	O	1.609453	-0.474723	-0.006333
H183	H	1.139024	-1.013765	-0.538867
H184	H	1.639024	-0.513765	-0.038867
H185	H	0.728368	-0.451055	-0.454978
H186	H	1.228368	0.048945	0.045022
O187	O	0.404836	-0.491851	-0.496055
O188	O	0.904836	0.008149	0.003945
H189	H	0.365750	-0.521451	-0.525852
H190	H	0.865750	-0.021451	-0.025852
H191	H	0.912498	-0.302356	-0.947081
H192	H	1.412498	0.197644	-0.447081
H193	H	0.402588	-0.316678	-0.319799
H194	H	0.902588	0.183322	0.180201
O195	O	0.593311	-0.270220	-0.273013
O196	O	1.093311	0.229780	0.226987
H197	H	0.535927	-0.275338	-0.278139
H198	H	1.035927	0.224662	0.221861
H199	H	1.068592	-0.651246	-0.461478
H200	H	1.568592	-0.151246	0.038522
H201	H	0.905975	-0.644552	-0.282472
H202	H	1.405975	-0.144552	0.217528
O203	O	1.069327	-0.861431	-0.462235
O204	O	1.569327	-0.361431	0.037765
H205	H	1.039343	-0.826725	-0.500093
H206	H	1.539343	-0.326725	-0.000093
O207	O	0.745498	-0.276707	-0.279556
O208	O	1.245498	0.223293	0.220444
H209	H	0.709071	-0.243886	-0.246519
H210	H	1.209071	0.256114	0.253481
O211	O	0.518193	-0.451699	-0.455676
O212	O	1.018193	0.048301	0.044324
H213	H	0.550006	-0.488754	-0.422224
H214	H	1.050006	0.011246	0.077776
O215	O	1.074407	-0.794251	-0.467851
O216	O	1.574407	-0.294251	0.032149
H217	H	1.107169	-0.757773	-0.503916
H218	H	1.607169	-0.257773	-0.003916
O219	O	1.102997	-1.126918	-0.499250
O220	O	1.602997	-0.626918	0.000750
H221	H	1.093054	-1.183675	-0.488301
H222	H	1.593054	-0.683675	0.011699
