data_functionalizedCrystal
_audit_creation_method	'MofGen! by Chris Wilmer'
_symmetry_space_group_name_H-M	'P1'
_symmetry_Int_Tables_number	1
_symmetry_cell_setting	triclinic
loop_
_symmetry_equiv_pos_as_xyz
  x,y,z
_cell_length_a	9.065218
_cell_length_b	10.723023
_cell_length_c	8.140239
_cell_angle_alpha	89.997483
_cell_angle_beta	89.997198
_cell_angle_gamma	84.741717
loop_
_atom_site_label
_atom_site_type_symbol
_atom_site_fract_x
_atom_site_fract_y
_atom_site_fract_z
O1	O	1.959358	0.182984	-0.136614
O2	O	1.529988	0.197993	-0.136616
O3	O	1.754578	0.008953	-0.136608
O4	O	1.734769	0.372025	-0.136622
O5	O	1.754565	0.008950	0.136619
O6	O	1.529976	0.197991	0.136611
O7	O	1.959346	0.182982	0.136613
Zn8	Zn	1.744659	0.190486	0.179993
Zn9	Zn	1.744675	0.190489	-0.179995
O10	O	1.734756	0.372022	0.136606
C11	C	1.475004	0.196550	-0.000002
C12	C	1.311185	0.192237	-0.000003
C13	C	1.753130	-0.037554	0.000004
C14	C	1.748818	-0.176126	-0.000002
C15	C	1.746902	-0.237898	-0.141544
C16	C	1.742445	-0.381119	-0.141552
C17	C	2.014330	0.184425	-0.000004
C18	C	2.178149	0.188739	-0.000014
C19	C	1.736204	0.418529	-0.000010
C20	C	1.740516	0.557101	-0.000015
N21	N	1.744658	0.190483	0.425676
N22	N	1.744687	0.190482	-0.425678
H23	H	1.748555	-0.184752	-0.262716
H24	H	1.742171	-0.389785	0.121170
H25	H	1.740804	-0.434243	-0.262732
H26	H	1.747149	-0.229270	0.121171
