data_functionalizedCrystal
_audit_creation_method	'MofGen! by Chris Wilmer'
_symmetry_space_group_name_H-M	'P1'
_symmetry_Int_Tables_number	1
_symmetry_cell_setting	triclinic
loop_
_symmetry_equiv_pos_as_xyz
  x,y,z
_cell_length_a	23.532407
_cell_length_b	23.532357
_cell_length_c	13.448316
_cell_angle_alpha	89.987857
_cell_angle_beta	89.995911
_cell_angle_gamma	82.838519
loop_
_atom_site_label
_atom_site_type_symbol
_atom_site_fract_x
_atom_site_fract_y
_atom_site_fract_z
O1	O	0.755249	0.069138	-0.082641
O2	O	0.589384	0.079142	-0.082658
O3	O	0.677333	-0.008794	-0.082629
O4	O	0.667300	0.157074	-0.082671
O5	O	0.677322	-0.008799	0.082755
O6	O	0.589373	0.079136	0.082725
O7	O	0.755238	0.069133	0.082743
Cu8	Cu	0.672304	0.074134	0.097835
Cu9	Cu	0.672317	0.074140	-0.097751
O10	O	0.667289	0.157068	0.082713
C11	C	0.568162	0.078884	0.000032
C12	C	0.504945	0.078118	0.000026
C13	C	0.238788	0.022922	0.000067
C14	C	0.298188	0.023633	0.000066
O15	O	0.334940	-0.020154	0.000112
N16	N	0.320805	0.075911	0.000046
C17	C	0.284018	0.127480	0.000037
O18	O	0.308710	0.172012	0.000021
C19	C	0.224619	0.126768	0.000045
C20	C	0.202006	0.074487	0.000054
C21	C	0.216174	-0.029355	0.000078
C22	C	0.156778	-0.030066	0.000076
C23	C	0.119996	0.021499	0.000064
C24	C	0.142610	0.073776	0.000053
C25	C	0.187833	0.178337	0.000042
C26	C	0.128431	0.177620	0.000051
C27	C	0.105818	0.125339	0.000060
C28	C	0.046431	0.124630	0.000039
N29	N	0.023815	0.072353	0.000059
C30	C	0.060597	0.020787	0.000072
C31	C	0.408760	0.128971	0.000023
C32	C	0.468158	0.129684	0.000008
C33	C	0.482324	0.025837	0.000039
C34	C	0.422925	0.025125	0.000047
C35	C	0.386143	0.076694	0.000043
C36	C	-0.064140	0.019297	0.000068
C37	C	-0.123542	0.018591	0.000062
C38	C	-0.137702	0.122438	0.000036
C39	C	-0.078306	0.123145	0.000037
C40	C	-0.041525	0.071570	0.000056
O41	O	0.009644	0.168394	-0.000002
O42	O	0.035897	-0.023737	0.000101
C43	C	0.677076	-0.030013	0.000066
C44	C	0.676322	-0.093232	0.000076
C45	C	0.671591	-0.485240	-0.090129
C46	C	0.670874	-0.544639	-0.090135
O47	O	0.670489	-0.575353	-0.166805
N48	N	0.670512	-0.574354	0.000014
C49	C	0.670862	-0.544664	0.090175
O50	O	0.670488	-0.575393	0.166854
C51	C	0.671575	-0.485265	0.090180
C52	C	0.671942	-0.455555	0.000025
C53	C	0.671958	-0.455530	-0.180277
C54	C	0.672676	-0.396134	-0.180271
C55	C	0.673027	-0.366450	-0.090117
C56	C	0.672661	-0.396160	0.000031
C57	C	0.671921	-0.455577	0.180340
C58	C	0.672634	-0.396174	0.180337
C59	C	0.673001	-0.366463	0.090182
C60	C	0.673730	-0.307080	0.090191
N61	N	0.674092	-0.277366	0.000042
C62	C	0.673741	-0.307051	-0.090112
C63	C	0.669363	-0.669406	0.090159
C64	C	0.668654	-0.728804	0.090155
C65	C	0.668665	-0.728775	-0.090156
C66	C	0.669378	-0.669376	-0.090151
C67	C	0.669725	-0.639692	0.000009
C68	C	0.675250	-0.182317	-0.090093
C69	C	0.675970	-0.122916	-0.090079
C70	C	0.675956	-0.122950	0.090232
C71	C	0.675239	-0.182346	0.090218
C72	C	0.674883	-0.212027	0.000048
O73	O	0.674114	-0.276328	0.166822
O74	O	0.674107	-0.276314	-0.166778
C75	C	0.776459	0.069390	0.000051
C76	C	0.839676	0.070156	0.000050
C77	C	0.667545	0.178288	0.000016
C78	C	0.668300	0.241506	0.000000
N79	N	0.672299	0.074129	0.235399
N80	N	0.672327	0.074141	-0.235315
C81	C	0.711255	0.035207	0.287453
C82	C	0.711259	0.035207	0.391556
C83	C	0.672309	0.074132	0.443604
C84	C	0.633349	0.113055	0.391543
C85	C	0.633343	0.113053	0.287442
C86	C	0.633365	0.113059	0.608523
C87	C	0.633371	0.113063	0.712632
C88	C	0.711280	0.035213	0.712637
C89	C	0.711274	0.035211	0.608536
C90	C	0.672315	0.074135	0.556483
H91	H	0.512283	-0.016151	0.000050
H92	H	0.601638	0.144754	0.566145
H93	H	0.674957	-0.206476	-0.163518
N94	N	0.753262	-0.006774	0.231306
H95	H	0.793644	-0.000422	0.249403
H96	H	0.746891	-0.047144	0.249462
N97	N	-0.053910	0.179531	0.000022
H98	H	-0.029577	0.182144	-0.061283
H99	H	-0.086258	0.212056	0.000048
H100	H	0.676245	-0.098771	0.163633
N101	N	0.591359	0.155036	0.768783
H102	H	0.612976	0.180145	0.811955
H103	H	0.566681	0.179655	0.719959
H104	H	0.378815	0.170968	0.000012
N105	N	0.674857	-0.214397	0.187453
H106	H	0.639252	-0.234223	0.191473
H107	H	0.709894	-0.243833	0.191400
N108	N	0.753294	-0.006754	0.447701
H109	H	0.777977	-0.031403	0.398932
H110	H	0.778333	0.014948	0.490856
H111	H	0.486564	0.172256	-0.000014
H112	H	0.404518	-0.017447	0.000056
H113	H	0.742993	0.003518	0.566159
H114	H	0.743002	0.003520	0.755026
H115	H	0.668364	-0.752990	0.163569
H116	H	0.206234	0.220910	0.000030
N117	N	0.591329	0.155037	0.231297
H118	H	0.597234	0.149128	0.157452
H119	H	0.550970	0.148661	0.249510
N120	N	0.591342	0.155042	0.447678
H121	H	0.566662	0.179698	0.398903
H122	H	0.566297	0.133368	0.490892
H123	H	0.669647	-0.645241	0.163583
H124	H	-0.141950	-0.023984	0.000068
N125	N	0.671525	-0.487612	0.277580
H126	H	0.671853	-0.459784	0.334684
H127	H	0.635917	-0.507436	0.281503
N128	N	0.676345	-0.090859	-0.187311
H129	H	0.711947	-0.071028	-0.191338
H130	H	0.675983	-0.118704	-0.244377
H131	H	0.668377	-0.752955	-0.163564
N132	N	0.088768	0.233248	0.000044
H133	H	0.063808	0.235277	-0.061263
H134	H	0.063844	0.235236	0.061394
N135	N	-0.024475	-0.036328	0.000092
H136	H	-0.047822	-0.069549	0.000098
H137	H	0.000481	-0.038296	-0.061218
N138	N	0.132392	-0.086455	0.000097
H139	H	0.164713	-0.119009	0.000109
H140	H	0.108057	-0.089014	0.061412
N141	N	0.673071	-0.364099	-0.277515
H142	H	0.708258	-0.379260	-0.316918
H143	H	0.637616	-0.369627	-0.316850
N144	N	0.255836	-0.084980	0.000095
H145	H	0.248589	-0.107797	-0.061207
H146	H	0.296884	-0.076562	0.000126
N147	N	-0.177380	0.178053	0.000019
H148	H	-0.218439	0.169664	0.000024
H149	H	-0.170094	0.200847	0.061325
N150	N	0.673017	-0.364160	0.277586
H151	H	0.673528	-0.322023	0.263917
H152	H	0.637578	-0.369728	0.316949
N153	N	0.671611	-0.487534	-0.277535
H154	H	0.636441	-0.472374	-0.316985
H155	H	0.707083	-0.481975	-0.316810
N156	N	0.669774	-0.637334	-0.187388
H157	H	0.669445	-0.665158	-0.244496
H158	H	0.634760	-0.607870	-0.191325
