data_functionalizedCrystal
_audit_creation_method	'MofGen! by Chris Wilmer'
_symmetry_space_group_name_H-M	'P1'
_symmetry_Int_Tables_number	1
_symmetry_cell_setting	triclinic
loop_
_symmetry_equiv_pos_as_xyz
  x,y,z
_cell_length_a	8.497374
_cell_length_b	12.759401
_cell_length_c	12.759393
_cell_angle_alpha	90.019596
_cell_angle_beta	89.982764
_cell_angle_gamma	89.998631
loop_
_atom_site_label
_atom_site_type_symbol
_atom_site_fract_x
_atom_site_fract_y
_atom_site_fract_z
Zn1	Zn	0.627968	1.606366	0.594079
Zn2	Zn	0.891817	1.606299	0.418440
Zn3	Zn	0.628046	1.430664	0.418419
Zn4	Zn	0.891701	1.430698	0.594081
O5	O	0.759883	1.518507	0.506255
O6	O	0.662984	1.753378	0.570789
O7	O	0.856909	1.582958	0.271416
O8	O	0.407273	1.453986	0.441710
O9	O	0.856833	1.753328	0.441747
O10	O	0.407216	1.583073	0.570768
O11	O	0.663117	1.453921	0.271400
O12	O	0.663005	1.283648	0.441713
O13	O	0.856635	1.454043	0.741102
O14	O	0.856711	1.283673	0.570771
O15	O	0.662871	1.583105	0.741101
O16	O	1.112564	1.582991	0.441749
O17	O	1.112479	1.453978	0.570792
C18	C	0.759855	1.245539	0.506240
C19	C	0.759881	1.128763	0.506259
C20	C	0.860921	0.964210	0.573361
C21	C	0.860903	1.073934	0.573351
C22	C	0.658880	1.073862	0.439167
C23	C	0.658907	0.964140	0.439173
C24	C	1.169763	1.518494	0.506270
C25	C	1.348407	1.518521	0.506253
C26	C	0.759732	1.518585	0.780288
C27	C	0.759667	1.518619	0.897065
C28	C	0.759913	1.792540	0.506270
C29	C	0.759925	1.909317	0.506276
C30	C	0.759920	1.518489	0.233287
C31	C	0.759540	1.518659	0.116511
C32	C	0.658758	1.585826	0.951928
C33	C	0.658690	1.585844	1.061652
C34	C	0.860454	1.451444	1.061641
C35	C	0.860512	1.451421	0.951919
H36	H	0.943177	0.919576	0.628001
O37	O	0.560743	0.910683	0.374139
C38	C	0.347754	0.786784	0.360191
C39	C	0.458817	0.847246	0.433965
H40	H	0.265296	0.735498	0.408532
H41	H	0.420057	0.735341	0.305220
H42	H	0.275612	0.844821	0.312198
H43	H	0.530983	0.789286	0.482027
H44	H	0.386423	0.898706	0.488868
O45	O	0.958319	1.386021	0.898572
C46	C	0.979583	1.244194	0.774621
C47	C	0.868650	1.318175	0.834989
H48	H	0.907132	1.189337	0.723183
H49	H	1.051631	1.196099	0.832624
H50	H	1.062134	1.292436	0.723307
H51	H	0.786003	1.270015	0.886304
H52	H	0.796713	1.366273	0.776928
H53	H	0.943146	1.118623	0.627977
H54	H	0.576633	1.118512	0.384535
O55	O	0.958366	1.386276	1.115090
C56	C	1.047631	1.326700	1.284117
C57	C	0.936687	1.400573	1.223721
H58	H	1.030118	1.338219	1.371956
H59	H	1.174888	1.345136	1.262629
H60	H	1.019942	1.241994	1.262469
H61	H	0.964234	1.485305	1.245337
H62	H	0.809463	1.382048	1.245215
O63	O	0.560642	1.651126	0.898805
C64	C	0.360571	1.784472	0.910402
C65	C	0.471588	1.710559	0.970690
H66	H	0.288566	1.832559	0.968495
H67	H	0.277998	1.736282	0.859052
H68	H	0.433057	1.839349	0.859015
H69	H	0.399230	1.655667	1.022134
H70	H	0.554165	1.758814	1.021974
H71	H	0.576518	1.640570	1.106316
