data_functionalizedCrystal
_audit_creation_method	'MofGen! by Chris Wilmer'
_symmetry_space_group_name_H-M	'P1'
_symmetry_Int_Tables_number	1
_symmetry_cell_setting	triclinic
loop_
_symmetry_equiv_pos_as_xyz
  x,y,z
_cell_length_a	14.560432
_cell_length_b	14.560438
_cell_length_c	14.560438
_cell_angle_alpha	59.996693
_cell_angle_beta	90.001606
_cell_angle_gamma	60.002653
loop_
_atom_site_label
_atom_site_type_symbol
_atom_site_fract_x
_atom_site_fract_y
_atom_site_fract_z
Zr1	Zr	0.884753	1.005339	-0.120592
O2	O	0.738106	1.196946	-0.267253
O3	O	0.929708	0.813731	-0.075624
O4	O	0.929704	1.005342	-0.267241
O5	O	0.738113	1.005332	0.075504
O6	O	1.080842	1.005346	-0.267241
O7	O	0.738109	1.005334	-0.075636
O8	O	1.080848	0.662589	0.075526
O9	O	0.738107	1.348089	-0.267263
O10	O	1.061674	0.892545	-0.056457
O11	O	0.948884	0.892540	0.056338
O12	O	0.948880	1.118138	-0.169266
O13	O	0.836091	1.118133	-0.056471
Zr14	Zr	1.125807	1.005341	0.120459
Zr15	Zr	1.125801	1.005345	-0.120593
Zr16	Zr	0.884760	1.005335	0.120460
Zr17	Zr	0.884755	1.246396	-0.120608
Zr18	Zr	1.125805	0.764284	0.120475
O19	O	1.080852	1.196949	0.075491
O20	O	1.080843	1.196954	-0.267254
O21	O	0.738114	1.196940	0.075492
O22	O	1.272455	0.813734	0.267120
O23	O	1.272446	0.813740	-0.075625
O24	O	0.929717	0.813725	0.267121
O25	O	1.272447	1.005348	-0.075637
O26	O	1.080856	1.005337	0.267108
O27	O	0.929718	1.005333	0.267108
O28	O	1.272451	1.005345	0.075503
O29	O	0.929707	1.348094	-0.267263
O30	O	1.080853	0.662585	0.267130
O31	O	1.272453	0.662590	0.267130
O32	O	1.272449	0.662594	0.075525
O33	O	0.738112	1.348086	-0.075658
O34	O	0.929712	1.348091	-0.075659
O35	O	1.061680	0.892541	0.169133
O36	O	1.174469	0.892546	0.056338
O37	O	1.061676	1.118139	-0.056471
O38	O	0.948886	1.118134	0.056324
C39	C	1.005278	0.703814	-0.000047
C40	C	1.005277	0.601479	-0.000041
C41	C	0.922010	0.636693	-0.083323
C42	C	0.922015	0.540553	-0.083352
C43	C	1.088558	0.373987	0.083194
C44	C	1.088557	0.470126	0.083217
C45	C	0.703767	1.005332	-0.000066
C46	C	0.601436	1.005329	-0.000066
C47	C	0.719176	0.769808	0.117697
C48	C	0.729970	0.652051	0.176573
C49	C	0.633817	0.652057	0.176570
C50	C	0.526863	0.769832	0.117687
C51	C	0.516070	0.887588	0.058811
C52	C	0.612231	0.887570	0.058818
C53	C	0.398331	1.123107	-0.058943
C54	C	0.494482	1.123104	-0.058948
C55	C	0.291376	1.240882	-0.117826
C56	C	0.280582	1.358641	-0.176710
C57	C	0.376743	1.358631	-0.176705
C58	C	0.483689	1.240861	-0.117824
C59	C	1.306793	1.005348	-0.000067
C60	C	1.409124	1.005350	-0.000067
C61	C	1.005272	1.005345	-0.301586
C62	C	1.005270	1.005347	-0.403919
C63	C	1.005282	1.306865	-0.000086
C64	C	1.005283	1.409200	-0.000093
C65	C	0.946394	1.123102	-0.510880
C66	C	0.946407	1.123096	-0.607029
C67	C	1.064173	0.887569	-0.489242
C68	C	1.064166	0.887576	-0.393095
C69	C	1.005288	1.005335	0.301453
C70	C	1.005290	1.005333	0.403786
C71	C	1.306791	0.703822	-0.000048
C72	C	1.409121	0.601490	-0.000041
C73	C	1.005285	0.703809	0.301472
C74	C	1.005287	0.601473	0.403812
C75	C	1.306799	0.703817	0.301472
C76	C	1.409131	0.601483	0.403811
C77	C	0.703761	1.306863	-0.301605
C78	C	0.601429	1.409197	-0.403944
C79	C	0.703769	1.306858	-0.000085
C80	C	0.601439	1.409190	-0.000092
C81	C	1.005275	1.306870	-0.301605
C82	C	1.005273	1.409207	-0.403945
C83	C	1.398321	0.553411	-0.058913
C84	C	1.494475	0.457266	-0.058911
C85	C	1.612225	0.457285	0.058844
C86	C	1.516073	0.553434	0.058834
C87	C	1.064165	0.553393	0.510769
C88	C	1.064154	0.457246	0.606924
C89	C	0.946386	0.457262	0.489151
C90	C	0.946391	0.553414	0.392999
C91	C	1.516082	0.553407	0.393015
C92	C	1.612231	0.457261	0.489178
C93	C	1.494464	0.457274	0.606928
C94	C	1.398317	0.553424	0.510767
H95	H	0.854212	0.569236	-0.151170
C96	C	1.128931	0.404357	0.724577
N97	N	1.177725	0.364520	0.813195
C98	C	1.180163	0.431384	0.174839
N99	N	1.249158	0.402206	0.243844
C100	C	1.527958	0.606324	0.123602
N101	N	1.536907	0.646162	0.172381
C102	C	1.128943	0.758029	-0.477348
N103	N	1.177724	0.660456	-0.468387
C104	C	1.180155	0.229495	0.174780
N105	N	1.249144	0.120663	0.243768
C106	C	0.881617	1.252652	-0.522791
N107	N	0.832830	1.350234	-0.531768
C108	C	0.824952	0.769791	0.117697
N109	N	0.904626	0.769775	0.117701
H110	H	1.112118	0.592524	0.519579
H111	H	1.699313	0.418122	0.480380
H112	H	0.854192	0.743643	-0.151111
H113	H	0.213088	1.240878	-0.117818
C114	C	0.881619	0.606303	0.275335
N115	N	0.832834	0.646140	0.186713
H116	H	0.898436	0.418120	0.480361
H117	H	1.485673	0.418130	0.694022
H118	H	0.817061	0.556162	0.224516
H119	H	1.485671	0.418127	-0.106853
H120	H	0.642610	0.556169	0.224516
H121	H	0.448576	0.769826	0.117702
H122	H	1.112116	0.791680	-0.305996
H123	H	0.898466	1.218983	-0.694119
C124	C	1.280676	0.606279	-0.123689
N125	N	1.192066	0.646101	-0.172484
C126	C	1.729878	0.404404	0.123614
N127	N	1.818494	0.364571	0.172405
H128	H	1.524893	0.592536	0.305931
H129	H	1.311227	0.592571	0.519566
H130	H	0.367942	1.454523	-0.224635
C131	C	0.589467	1.240838	-0.117813
N132	N	0.669144	1.240816	-0.117797
C133	C	0.162934	1.488179	-0.241475
N134	N	0.074316	1.585749	-0.290262
