data_functionalizedCrystal
_audit_creation_method	'MofGen! by Chris Wilmer'
_symmetry_space_group_name_H-M	'P1'
_symmetry_Int_Tables_number	1
_symmetry_cell_setting	triclinic
loop_
_symmetry_equiv_pos_as_xyz
  x,y,z
_cell_length_a	16.625539
_cell_length_b	13.033304
_cell_length_c	13.032318
_cell_angle_alpha	103.332818
_cell_angle_beta	97.209725
_cell_angle_gamma	97.211451
loop_
_atom_site_label
_atom_site_type_symbol
_atom_site_fract_x
_atom_site_fract_y
_atom_site_fract_z
Zn1	Zn	-0.588807	-1.570185	0.216896
Zn2	Zn	-0.088807	-1.070185	0.716896
Zn3	Zn	-0.434327	-1.547478	0.394573
Zn4	Zn	0.065673	-1.047478	0.894573
Zn5	Zn	-0.434334	-1.392544	0.239470
Zn6	Zn	0.065666	-0.892544	0.739470
Zn7	Zn	-0.549484	-1.369938	0.417035
Zn8	Zn	-0.049484	-0.869938	0.917035
O9	O	-0.501738	-1.470036	0.316993
O10	O	-0.001738	-0.970036	0.816993
O11	O	-0.584769	-1.715817	0.221617
O12	O	-0.084769	-1.215817	0.721617
O13	O	-0.321486	-1.526883	0.374045
O14	O	0.178514	-1.026883	0.874045
O15	O	-0.471285	-1.435072	0.087806
O16	O	0.028715	-0.935072	0.587806
O17	O	-0.471273	-1.699134	0.352156
O18	O	0.028727	-1.199134	0.852156
O19	O	-0.584775	-1.565584	0.071221
O20	O	-0.084775	-1.065584	0.571221
O21	O	-0.321492	-1.413054	0.260092
O22	O	0.178508	-0.913054	0.760092
O23	O	-0.433155	-1.240901	0.281872
O24	O	0.066845	-0.740901	0.781872
O25	O	-0.667541	-1.396544	0.390439
O26	O	-0.167541	-0.896544	0.890439
O27	O	-0.517755	-1.224293	0.412328
O28	O	-0.017755	-0.724293	0.912328
O29	O	-0.696432	-1.543664	0.243398
O30	O	-0.196432	-1.043664	0.743398
O31	O	-0.433143	-1.504963	0.546222
O32	O	0.066857	-1.004963	1.046222
O33	O	-0.517748	-1.374526	0.562725
O34	O	-0.017748	-0.874526	1.062725
C35	C	-0.471189	-1.194055	0.351988
C36	C	0.028811	-0.694055	0.851988
C37	C	-0.458136	-1.075986	0.366985
C38	C	0.041864	-0.575986	0.866985
C39	C	-0.508537	-1.031588	0.309183
C40	C	-0.008537	-0.531588	0.809183
C41	C	-0.495048	-0.909558	0.324681
C42	C	0.004952	-0.409558	0.824681
C43	C	-0.712063	-1.470115	0.316906
C44	C	-0.212063	-0.970115	0.816906
C45	C	-0.801691	-1.470149	0.316868
C46	C	-0.301691	-0.970149	0.816868
C47	C	-1.129886	-1.470213	0.316743
C48	C	-0.629886	-0.970213	0.816743
C49	C	-1.038571	-1.470192	0.316782
C50	C	-0.538571	-0.970192	0.816782
C51	C	-0.965791	-1.470182	0.316806
C52	C	-0.465791	-0.970182	0.816806
C53	C	-0.874471	-1.470159	0.316843
C54	C	-0.374471	-0.970159	0.816843
C55	C	-0.292246	-1.470028	0.316997
C56	C	0.207754	-0.970028	0.816997
C57	C	-0.202674	-1.470238	0.316709
C58	C	0.297326	-0.970238	0.816709
C59	C	-0.471199	-1.434856	0.593018
C60	C	0.028801	-0.934856	1.093018
C61	C	-0.458172	-1.419903	0.711091
C62	C	0.041828	-0.919903	1.211091
C63	C	-0.532401	-0.747096	0.281858
C64	C	-0.032401	-0.247096	0.781858
C65	C	-0.545456	-0.865164	0.266871
C66	C	-0.045456	-0.365164	0.766871
C67	C	-0.508560	-1.477769	0.755447
C68	C	-0.008560	-0.977769	1.255447
C69	C	-0.495097	-1.462316	0.877481
C70	C	0.004903	-0.962316	1.377481
C71	C	-0.532418	-1.505319	1.039895
C72	C	-0.032418	-1.005319	1.539895
C73	C	-0.545493	-1.520191	0.921833
C74	C	-0.045493	-1.020191	1.421833
H75	H	-0.561671	-1.083921	0.248219
H76	H	-0.061671	-0.583921	0.748219
N77	N	-0.612099	-1.596735	0.856149
N78	N	-0.112099	-1.096735	1.356149
N79	N	-0.598030	-1.672237	0.785623
N80	N	-0.098030	-1.172237	1.285623
H81	H	-0.645064	-1.726309	0.739237
H82	H	-0.145064	-1.226309	1.239237
H83	H	-0.441906	-0.857229	0.385643
H84	H	0.058094	-0.357229	0.885643
H85	H	-0.598593	-0.917492	0.205901
H86	H	-0.098593	-0.417492	0.705901
H87	H	-0.405068	-1.358916	0.763461
H88	H	0.094932	-0.858916	1.263461
H89	H	-0.441990	-1.401325	0.929848
H90	H	0.058010	-0.901325	1.429848
H91	H	-0.561670	-1.538748	0.703080
H92	H	-0.061670	-1.038748	1.203080
N93	N	-0.391472	-1.010332	0.443447
N94	N	0.108528	-0.510332	0.943447
N95	N	-0.380606	-0.911295	0.455923
N96	N	0.119394	-0.411295	0.955923
H97	H	-0.333522	-0.864927	0.509925
H98	H	0.166478	-0.364927	1.009925
