data_functionalizedCrystal
_audit_creation_method	'MofGen! by Chris Wilmer'
_symmetry_space_group_name_H-M	'P1'
_symmetry_Int_Tables_number	1
_symmetry_cell_setting	triclinic
loop_
_symmetry_equiv_pos_as_xyz
  x,y,z
_cell_length_a	10.489711
_cell_length_b	14.971486
_cell_length_c	14.048226
_cell_angle_alpha	90.006640
_cell_angle_beta	90.007977
_cell_angle_gamma	84.070569
loop_
_atom_site_label
_atom_site_type_symbol
_atom_site_fract_x
_atom_site_fract_y
_atom_site_fract_z
O1	O	-1.692620	-0.126071	-0.079196
O2	O	-1.321282	-0.137944	-0.079190
O3	O	-1.516904	-0.001863	-0.079186
O4	O	-1.496998	-0.262152	-0.079199
O5	O	-1.516880	-0.001855	0.079135
O6	O	-1.321258	-0.137936	0.079131
O7	O	-1.692596	-0.126063	0.079126
Zn8	Zn	-1.506924	-0.131998	0.104265
Zn9	Zn	-1.506955	-0.132009	-0.104330
O10	O	-1.496975	-0.262144	0.079122
C11	C	-1.516002	0.031470	-0.000026
C12	C	-1.513334	0.130782	-0.000027
C13	C	-1.273748	-0.137049	-0.000029
C14	C	-1.132148	-0.134383	-0.000026
C15	C	-1.740130	-0.126958	-0.000038
C16	C	-1.881731	-0.129624	-0.000046
C17	C	-0.948814	-0.216218	-0.000041
C18	C	-1.041444	-0.175344	-0.078098
C19	C	-1.041394	-0.175314	0.077994
C20	C	-0.972496	-0.088715	-0.078168
C21	C	-0.972436	-0.088696	0.077995
C22	C	-1.065040	-0.047760	-0.000082
C23	C	-1.497877	-0.295477	-0.000041
C24	C	-1.500544	-0.394789	-0.000046
N25	N	-1.506912	-0.131990	0.246626
C26	C	-1.628257	0.187362	-0.000028
C27	C	-1.625742	0.280676	-0.000037
C28	C	-1.508304	0.317408	-0.000039
C29	C	-1.393373	0.260821	-0.000041
C30	C	-1.395889	0.167509	-0.000038
C31	C	-1.388138	0.455312	-0.000044
C32	C	-1.385622	0.548631	-0.000045
C33	C	-1.617992	0.568480	-0.000043
C34	C	-1.620507	0.475168	-0.000041
C35	C	-1.505575	0.418587	-0.000041
N36	N	-1.506977	-0.132010	-0.246690
C37	C	-1.593560	-0.071759	0.296446
C38	C	-1.593569	-0.071758	0.396104
C39	C	-1.506934	-0.131994	0.445940
C40	C	-1.420276	-0.192228	0.396113
C41	C	-1.420263	-0.192224	0.296457
C42	C	-1.420313	-0.192235	0.603827
C43	C	-1.420328	-0.192241	0.703490
C44	C	-1.593620	-0.071770	0.703474
C45	C	-1.593606	-0.071765	0.603818
C46	C	-1.506949	-0.132001	0.553998
H47	H	-0.898300	-0.287392	-0.000123
H48	H	-0.941827	-0.052083	0.143993
Cl49	Cl	-1.237983	0.594807	-0.000046
H50	H	-1.302307	0.121442	-0.000037
Cl51	Cl	-1.088644	-0.231915	-0.179995
Cl52	Cl	-0.925609	-0.032194	-0.180169
Cl53	Cl	-1.762478	0.639609	-0.000048
Cl54	Cl	-1.142688	0.062223	-0.000137
Cl55	Cl	-1.311356	-0.267951	0.458762
Cl56	Cl	-1.702499	0.003963	0.458736
H57	H	-1.664178	-0.022724	0.744043
Cl58	Cl	-1.245735	0.306998	-0.000055
Cl59	Cl	-1.768146	0.428992	-0.000043
H60	H	-1.294548	0.409246	-0.000047
H61	H	-1.349703	-0.241269	0.255895
H62	H	-1.664114	-0.022712	0.255876
Cl63	Cl	-1.702526	0.003954	0.541165
Cl64	Cl	-1.088523	-0.231900	0.179879
Cl65	Cl	-1.311407	-0.267968	0.766133
Cl66	Cl	-1.775902	0.141195	-0.000016
Cl67	Cl	-1.311367	-0.267960	0.541200
Cl68	Cl	-1.770223	0.351802	-0.000036
