data_functionalizedCrystal
_audit_creation_method	'MofGen! by Chris Wilmer'
_symmetry_space_group_name_H-M	'P1'
_symmetry_Int_Tables_number	1
_symmetry_cell_setting	triclinic
loop_
_symmetry_equiv_pos_as_xyz
  x,y,z
_cell_length_a	27.440280
_cell_length_b	14.446369
_cell_length_c	14.446369
_cell_angle_alpha	60.000250
_cell_angle_beta	90.005311
_cell_angle_gamma	59.999534
loop_
_atom_site_label
_atom_site_type_symbol
_atom_site_fract_x
_atom_site_fract_y
_atom_site_fract_z
Zr1	Zr	0.469506	1.013131	-0.121408
O2	O	0.391688	1.206259	-0.269237
O3	O	0.493361	0.820009	-0.076085
O4	O	0.493362	1.013117	-0.269204
O5	O	0.391687	1.013159	0.076211
O6	O	0.573565	1.013099	-0.269185
O7	O	0.391687	1.013150	-0.076118
O8	O	0.573563	0.667663	0.076270
O9	O	0.391689	1.358595	-0.269244
O10	O	0.563390	0.899427	-0.056748
O11	O	0.503535	0.899446	0.056919
O12	O	0.503537	1.126807	-0.170454
O13	O	0.443682	1.126826	-0.056787
Zr14	Zr	0.597420	1.013115	0.121569
Zr15	Zr	0.597420	1.013102	-0.121378
Zr16	Zr	0.469506	1.013144	0.121539
Zr17	Zr	0.469507	1.256088	-0.121419
Zr18	Zr	0.597419	0.770157	0.121580
O19	O	0.573566	1.206237	0.076246
O20	O	0.573566	1.206218	-0.269194
O21	O	0.391688	1.206278	0.076202
O22	O	0.675238	0.819987	0.269398
O23	O	0.675239	0.819968	-0.076041
O24	O	0.493361	0.820028	0.269354
O25	O	0.675239	1.013087	-0.076050
O26	O	0.573564	1.013129	0.269365
O27	O	0.493362	1.013147	0.269346
O28	O	0.675239	1.013096	0.076279
O29	O	0.493364	1.358572	-0.269220
O30	O	0.573563	0.667674	0.269381
O31	O	0.675238	0.667651	0.269405
O32	O	0.675238	0.667641	0.076294
O33	O	0.391689	1.358605	-0.076134
O34	O	0.493364	1.358583	-0.076109
O35	O	0.563390	0.899439	0.170615
O36	O	0.623244	0.899420	0.056948
O37	O	0.563391	1.126800	-0.056758
O38	O	0.503537	1.126819	0.056909
C39	C	0.533462	0.709220	0.000094
C40	C	0.533461	0.606078	0.000099
C41	C	0.495892	0.459080	0.072117
C42	C	0.495688	0.566700	0.071826
C43	C	0.505923	0.655073	-0.123442
C44	C	0.505641	0.547840	-0.123068
C45	C	0.598596	0.372608	0.050559
C46	C	0.598500	0.478759	0.053080
C47	C	0.373462	1.013159	0.000042
C48	C	0.319159	1.013171	0.000029
C49	C	0.013704	0.894411	0.059465
C50	C	-0.037314	0.894404	0.059475
O51	O	-0.037131	0.793463	0.109987
N52	N	-0.094074	1.013093	0.000121
C53	C	-0.099814	1.131797	-0.059238
O54	O	-0.152777	1.232750	-0.109722
C55	C	-0.048796	1.131802	-0.059241
C56	C	0.007963	1.013106	0.000108
C57	C	0.070461	0.775725	0.118810
C58	C	0.121475	0.775732	0.118798
C59	C	0.115734	0.894427	0.059441
C60	C	0.058978	1.013114	0.000096
C61	C	-0.054537	1.250505	-0.118593
C62	C	-0.003513	1.250500	-0.118590
C63	C	0.053246	1.131804	-0.059241
C64	C	0.104251	1.131816	-0.059273
N65	N	0.161010	1.013127	0.000081
C66	C	0.166752	0.894433	0.059438
C67	C	-0.206953	1.131775	-0.059226
C68	C	-0.257970	1.131771	-0.059231
C69	C	-0.195466	0.894378	0.059484
C70	C	-0.144449	0.894384	0.059482
C71	C	-0.150193	1.013086	0.000128
C72	C	0.273884	0.894458	0.059408
C73	C	0.324901	0.894476	0.059387
C74	C	0.262393	1.131868	-0.059323
C75	C	0.211381	1.131851	-0.059308
C76	C	0.217130	1.013135	0.000066
O77	O	0.104114	1.232706	-0.109756
O78	O	0.219717	0.793496	0.109926
C79	C	0.693464	1.013087	0.000119
C80	C	0.747767	1.013075	0.000131
C81	C	0.533464	1.013106	-0.303809
C82	C	0.533464	1.013101	-0.406946
C83	C	0.533465	1.317026	0.000066
C84	C	0.533465	1.420168	0.000062
C85	C	0.571401	0.869707	-0.481913
C86	C	0.571237	0.869610	-0.374584
C87	C	0.468428	1.084343	-0.481525
C88	C	0.468635	1.083433	-0.588384
C89	C	0.560037	1.086365	-0.589936
C90	C	0.561353	1.083663	-0.481263
C91	C	0.533463	1.013140	0.303970
C92	C	0.533463	1.013145	0.407107
C93	C	0.693463	0.709184	0.000132
C94	C	0.747765	0.606030	0.000150
C95	C	0.533462	0.709236	0.303984
C96	C	0.533461	0.606100	0.407126
C97	C	0.693463	0.709201	0.304022
C98	C	0.747765	0.606052	0.407177
C99	C	0.373464	1.317045	-0.303861
C100	C	0.319161	1.420194	-0.407016
C101	C	0.373464	1.317062	0.000028
C102	C	0.319161	1.420216	0.000011
C103	C	0.533465	1.317010	-0.303823
C104	C	0.533466	1.420146	-0.406965
C105	C	0.742023	0.557591	-0.059200
C106	C	0.793041	0.460681	-0.059206
C107	C	0.849801	0.412203	0.000145
C108	C	0.855542	0.460652	0.059497
C109	C	0.804525	0.557567	0.059496
C110	C	0.804515	0.557602	0.396286
C111	C	0.855543	0.460697	0.493202
C112	C	0.849819	0.412237	0.601007
C113	C	0.793064	0.460696	0.611895
C114	C	0.742037	0.557606	0.514981
C115	C	0.262412	1.468655	-0.396126
C116	C	0.211384	1.565591	-0.493041
C117	C	0.217107	1.614056	-0.600846
C118	C	0.273863	1.565591	-0.611734
C119	C	0.324890	1.468664	-0.514820
C120	C	0.324904	1.468665	0.059350
C121	C	0.273886	1.565602	0.059330
C122	C	0.217126	1.614083	-0.000025
C123	C	0.211385	1.565630	-0.059372
C124	C	0.262402	1.468701	-0.059357
C125	C	0.495528	0.459794	0.482106
C126	C	0.495689	0.566715	0.374772
C127	C	0.598498	0.479233	0.481701
C128	C	0.598294	0.371858	0.588564
C129	C	0.506894	0.546851	0.590121
C130	C	0.505574	0.655321	0.481444
H131	H	0.531975	0.683850	-0.179451
O132	O	0.432051	0.684354	0.025426
H133	H	0.421940	0.704023	0.090570
O134	O	0.386096	1.416433	-0.526582
H135	H	0.420623	1.340909	-0.441088
H136	H	0.278572	1.605036	0.107661
H137	H	0.901751	0.421251	0.484317
O138	O	0.528558	1.222333	-0.515093
H139	H	0.509946	1.291335	-0.608944
H140	H	0.891373	0.333326	0.679912
H141	H	-0.304182	1.228425	-0.107574
O142	O	0.256230	1.416390	-0.279857
H143	H	0.277990	1.434966	-0.232855
H144	H	0.165176	1.605035	-0.484154
H145	H	0.628853	0.500252	0.006059
O146	O	0.150164	1.617924	-0.123389
H147	H	0.115658	1.693454	-0.113412
H148	H	0.901763	0.421167	0.107818
H149	H	0.553138	0.813697	-0.480881
O150	O	0.680830	0.609825	0.526744
H151	H	0.675641	0.653963	0.573812
H152	H	0.175553	1.692980	-0.679751
H153	H	0.257718	1.429257	-0.107675
O154	O	0.442158	0.601742	-0.176606
H155	H	0.411949	0.703999	-0.202514
O156	O	0.162101	1.718592	0.000000
H157	H	0.175636	1.744108	0.051259
H158	H	0.552807	0.813366	-0.320800
O159	O	0.810723	0.609784	0.123536
H160	H	0.835505	0.653914	0.089262
O161	O	-0.213151	1.259812	-0.123268
H162	H	-0.261191	1.342332	-0.164546
H163	H	0.447797	0.656073	0.320489
H164	H	0.788412	0.421225	0.699683
O165	O	0.429151	1.222824	-0.692495
H166	H	0.409990	1.290584	-0.666366
H167	H	0.448133	0.494851	0.037401
H168	H	0.278516	1.605064	-0.699521
O169	O	0.386122	0.766450	0.123398
H170	H	0.391322	0.709539	0.214612
H171	H	0.447514	0.497044	0.479758
O172	O	0.386120	1.416404	0.123353
H173	H	0.381532	1.466408	0.164590
H174	H	0.695811	0.597060	-0.107544
H175	H	0.809186	0.597045	0.308515
H176	H	-0.100745	1.347160	-0.166920
O177	O	0.519722	0.341034	0.480714
H178	H	0.558651	0.253928	0.558718
H179	H	0.458454	0.747389	-0.164143
H180	H	0.514122	0.529242	0.320993
H181	H	0.619921	0.440667	0.430101
H182	H	0.619568	0.281099	0.588299
H183	H	0.532526	1.192042	-0.668146
H184	H	0.534396	0.522058	0.668343
H185	H	0.628098	0.341898	0.667152
H186	H	0.621604	0.278861	0.140131
H187	H	0.627992	0.501475	0.508937
H188	H	0.459726	0.586433	0.594224
H189	H	0.457661	0.745824	0.430009
H190	H	0.530336	0.687442	0.506971
O191	O	0.539534	0.518736	-0.198065
H192	H	0.586178	0.483702	-0.165132
O193	O	0.520146	0.518098	0.192324
H194	H	0.532225	0.417339	0.251331
H195	H	0.891338	0.333287	0.000138
H196	H	0.514266	0.370213	0.163315
O197	O	0.182689	0.647704	0.182822
H198	H	0.217208	0.667628	0.172849
H199	H	-0.008197	1.347165	-0.166909
H200	H	0.165164	1.228503	-0.107649
H201	H	0.075146	0.679064	0.167152
H202	H	0.619073	0.439158	0.144094
H203	H	0.619127	0.813716	-0.320297
O204	O	0.635859	0.338174	-0.018613
H205	H	0.608164	0.354813	-0.088611
H206	H	0.278575	0.797788	0.107757
H207	H	-0.098236	0.797730	0.107819
H208	H	-0.190799	0.797730	0.107813
H209	H	0.619416	0.813404	-0.479560
O210	O	0.256205	1.259887	-0.123480
H211	H	0.301218	1.239939	-0.113551
H212	H	0.447362	1.032818	-0.588117
O213	O	0.429359	1.224064	-0.517534
H214	H	0.448245	1.277568	-0.567730
O215	O	0.440045	1.018814	-0.413195
H216	H	0.472138	0.935520	-0.326136
H217	H	0.788355	0.421246	-0.107537
H218	H	0.609269	1.031707	-0.429832
O219	O	0.622518	1.025557	-0.595360
H220	H	0.635330	0.942459	-0.600225
