data_functionalizedCrystal
_audit_creation_method	'MofGen! by Chris Wilmer'
_symmetry_space_group_name_H-M	'P1'
_symmetry_Int_Tables_number	1
_symmetry_cell_setting	triclinic
loop_
_symmetry_equiv_pos_as_xyz
  x,y,z
_cell_length_a	10.540539
_cell_length_b	27.732048
_cell_length_c	9.016244
_cell_angle_alpha	89.992799
_cell_angle_beta	89.994699
_cell_angle_gamma	83.584073
loop_
_atom_site_label
_atom_site_type_symbol
_atom_site_fract_x
_atom_site_fract_y
_atom_site_fract_z
O1	O	1.682935	0.068112	-0.123289
O2	O	1.313244	0.074530	-0.123309
O3	O	1.509571	0.000996	-0.123270
O4	O	1.486608	0.141645	-0.123327
O5	O	1.509543	0.000998	0.123411
O6	O	1.313215	0.074531	0.123372
O7	O	1.682907	0.068113	0.123392
Cu8	Cu	1.498058	0.071322	0.145906
Cu9	Cu	1.498092	0.071321	-0.145822
O10	O	1.486579	0.141647	0.123353
C11	C	1.265947	0.074049	0.000030
C12	C	1.125062	0.072609	0.000023
C13	C	0.944031	0.017434	0.000622
C14	C	1.090586	0.018894	0.000050
C15	C	1.062283	0.098458	-0.140849
C16	C	0.915818	0.096625	-0.140950
C17	C	0.915250	0.097720	0.139571
C18	C	1.062210	0.098215	0.141418
C19	C	1.509075	-0.017013	0.000075
C20	C	1.507623	-0.070677	0.000087
C21	C	1.614502	-0.408819	0.000017
C22	C	1.609117	-0.610513	-0.000004
O23	O	1.706850	-0.641153	-0.000064
N24	N	1.492703	-0.630369	-0.000009
C25	C	1.377627	-0.599799	-0.000019
O26	O	1.278486	-0.621317	-0.000039
C27	C	1.383013	-0.398107	-0.000008
C28	C	1.499435	-0.378253	0.000012
C29	C	1.730915	-0.388965	0.000035
C30	C	1.732260	-0.338544	0.000048
C31	C	1.617193	-0.307978	0.000043
C32	C	1.500780	-0.327832	0.000025
C33	C	1.267939	-0.367538	-0.000028
C34	C	1.269296	-0.317112	-0.000030
C35	C	1.385718	-0.297258	-0.000010
C36	C	1.387058	-0.246846	0.000033
N37	N	1.503472	-0.226989	0.000038
C38	C	1.618540	-0.257555	0.000043
C39	C	1.374807	-0.705691	-0.000021
C40	C	1.373460	-0.756114	-0.000021
C41	C	1.604950	-0.766824	-0.000010
C42	C	1.606296	-0.716400	0.000001
C43	C	1.491221	-0.685834	-0.000016
C44	C	1.621356	-0.151668	0.000072
C45	C	1.622691	-0.101243	0.000092
C46	C	1.391201	-0.090538	0.000073
C47	C	1.389865	-0.140959	0.000061
C48	C	1.504953	-0.171523	0.000056
O49	O	1.289377	-0.216177	0.000076
O50	O	1.717666	-0.236029	0.000030
C51	C	1.613157	-0.459239	0.000003
C52	C	1.496745	-0.479094	-0.000015
C53	C	1.381678	-0.448528	-0.000020
C54	C	1.495398	-0.529517	-0.000015
C55	C	1.610465	-0.560083	-0.000010
C56	C	1.726879	-0.540226	-0.000005
C57	C	1.728224	-0.489806	0.000008
C58	C	1.265264	-0.468384	-0.000025
C59	C	1.263928	-0.518805	-0.000037
C60	C	1.378995	-0.549371	-0.000032
C61	C	1.730203	0.068594	0.000051
C62	C	1.871089	0.070034	0.000047
C63	C	1.487075	0.159656	0.000006
C64	C	1.488527	0.213320	-0.000016
N65	N	1.498044	0.071324	0.351092
N66	N	1.498117	0.071316	-0.351009
C67	C	1.392710	0.110527	0.586104
C68	C	1.392933	0.110674	0.414213
C69	C	1.630269	0.082796	0.413432
C70	C	1.629691	0.083074	0.585377
C71	C	1.472476	0.020519	0.585655
C72	C	1.469417	0.020848	0.413701
H73	H	0.916355	-0.003786	0.101650
H74	H	0.914753	-0.003698	-0.099826
O75	O	1.089605	0.150713	-0.147827
H76	H	1.142258	0.156775	-0.251574
O77	O	1.414474	0.160593	0.359667
H78	H	1.507727	0.169971	0.401305
O79	O	1.659817	0.132162	0.638481
H80	H	1.674654	0.155480	0.541352
H81	H	1.294080	0.103730	0.627496
O82	O	1.147093	-0.008234	-0.133928
H83	H	1.069726	-0.022444	-0.198572
H84	H	1.549355	-0.008666	0.626323
O85	O	0.879552	0.071308	-0.280394
H86	H	0.966584	0.060485	-0.347117
H87	H	1.710530	0.055017	0.372543
H88	H	1.653575	0.119438	0.370341
O89	O	1.092031	0.150092	0.152673
H90	H	1.143916	0.155015	0.257742
H91	H	1.710523	0.055665	0.626974
O92	O	1.853799	-0.468398	-0.000001
H93	H	1.909038	-0.480655	0.100532
O94	O	1.347587	0.006061	0.643139
H95	H	1.302393	0.034923	0.717502
O96	O	0.850451	0.149111	0.140840
H97	H	0.787093	0.154930	0.042638
H98	H	1.134071	-0.001446	0.101034
H99	H	0.866172	0.135256	-0.147360
O100	O	1.119719	0.074671	-0.279713
H101	H	1.192960	0.044443	-0.248753
H102	H	1.103980	0.079331	0.245634
O103	O	1.340577	0.009326	0.359761
H104	H	1.297104	0.039419	0.288647
O105	O	1.264292	-0.162371	0.000057
H106	H	1.258122	-0.185092	0.100597
O107	O	1.850992	-0.573198	0.000009
H108	H	1.855924	-0.596419	-0.100544
O109	O	1.413948	0.160168	0.643277
H110	H	1.499253	0.157035	0.716285
O111	O	1.731862	-0.694986	-0.000005
H112	H	1.811642	-0.724717	-0.000014
O113	O	0.874480	0.074691	0.281023
H114	H	0.822279	0.043252	0.253452
O115	O	1.748264	-0.079828	0.000090
H116	H	1.828047	-0.109557	0.000069
O117	O	1.745485	-0.184629	0.000078
H118	H	1.750393	-0.207864	0.100616
O119	O	1.564611	-0.019663	0.356838
H120	H	1.634127	-0.004386	0.282740
H121	H	1.827062	-0.322384	0.000058
H122	H	1.824622	-0.413847	0.000033
O123	O	1.729065	-0.799795	-0.000006
H124	H	1.733989	-0.823016	-0.100558
H125	H	1.278658	-0.772274	-0.000012
O126	O	1.250677	-0.672729	-0.000007
H127	H	1.194917	-0.679840	-0.100539
O128	O	1.142369	-0.388945	-0.000055
H129	H	1.062595	-0.359212	-0.000077
O130	O	1.145177	-0.284143	-0.000030
H131	H	1.064005	-0.306424	-0.000030
O132	O	1.267094	-0.057566	0.000065
H133	H	1.287600	-0.019170	0.000060
O134	O	1.138351	-0.540217	-0.000047
H135	H	1.083133	-0.527965	-0.100600
O136	O	1.141150	-0.435419	-0.000003
H137	H	1.059984	-0.457703	0.000008
O138	O	1.262699	0.101540	0.358366
H139	H	1.198988	0.096980	0.454172
