data_functionalizedCrystal
_audit_creation_method	'MofGen! by Chris Wilmer'
_symmetry_space_group_name_H-M	'P1'
_symmetry_Int_Tables_number	1
_symmetry_cell_setting	triclinic
loop_
_symmetry_equiv_pos_as_xyz
  x,y,z
_cell_length_a	15.297327
_cell_length_b	19.805407
_cell_length_c	19.805399
_cell_angle_alpha	90.016510
_cell_angle_beta	99.647572
_cell_angle_gamma	80.296766
loop_
_atom_site_label
_atom_site_type_symbol
_atom_site_fract_x
_atom_site_fract_y
_atom_site_fract_z
Zn1	Zn	-0.359264	-0.988068	-0.429339
Zn2	Zn	-0.510134	-0.968398	-0.335732
Zn3	Zn	-0.359282	-0.874886	-0.316167
Zn4	Zn	-0.510072	-0.855264	-0.448871
O5	O	-0.434688	-0.921654	-0.382527
O6	O	-0.379295	-1.080173	-0.416936
O7	O	-0.490157	-0.955973	-0.238424
O8	O	-0.233034	-0.906343	-0.314818
O9	O	-0.490139	-1.065721	-0.348163
O10	O	-0.233020	-0.989498	-0.397965
O11	O	-0.379327	-0.887270	-0.224050
O12	O	-0.379267	-0.777568	-0.333757
O13	O	-0.490034	-0.872901	-0.540992
O14	O	-0.490052	-0.763153	-0.431254
O15	O	-0.379235	-0.970471	-0.526643
O16	O	-0.636372	-0.936947	-0.367102
O17	O	-0.636327	-0.853828	-0.450225
C18	C	-0.434655	-0.745802	-0.382502
C19	C	-0.434663	-0.670569	-0.382510
C20	C	-0.377047	-0.642737	-0.418399
C21	C	-0.377050	-0.572049	-0.418400
C22	C	-0.434674	-0.529192	-0.382517
C23	C	-0.492291	-0.557028	-0.346624
C24	C	-0.492283	-0.627717	-0.346619
C25	C	-0.492324	-0.271951	-0.346642
C26	C	-0.492330	-0.201258	-0.346651
C27	C	-0.377091	-0.216283	-0.418423
C28	C	-0.377083	-0.286971	-0.418418
C29	C	-0.434697	-0.314802	-0.382523
C30	C	-0.434692	-0.391451	-0.382521
C31	C	-0.434684	-0.452544	-0.382522
C32	C	-0.669083	-0.891142	-0.412920
C33	C	-0.769359	-0.878151	-0.425945
C34	C	-1.051988	-1.014783	-0.289667
C35	C	-0.957774	-1.026989	-0.277426
C36	C	-0.910665	-0.989780	-0.314555
C37	C	-0.957780	-0.940364	-0.363927
C38	C	-1.052003	-0.928154	-0.376165
C39	C	-0.910681	-0.903151	-0.401053
C40	C	-0.957795	-0.853734	-0.450425
C41	C	-1.052009	-0.841527	-0.462662
C42	C	-1.099117	-0.878735	-0.425533
C43	C	-0.816458	-0.915361	-0.388815
C44	C	-0.816473	-0.828732	-0.475313
C45	C	-0.910687	-0.816526	-0.487554
C46	C	-0.199377	-0.952303	-0.352030
C47	C	-0.099102	-0.965364	-0.339034
C48	C	-0.434626	-0.921692	-0.559062
C49	C	-0.434599	-0.921708	-0.634291
C50	C	-0.434715	-0.098193	-0.382546
C51	C	-0.434709	-0.173426	-0.382536
C52	C	-0.376884	-0.885947	-0.662149
C53	C	-0.376867	-0.885959	-0.732835
C54	C	-0.434560	-0.921735	-0.775661
C55	C	-0.492281	-0.957497	-0.747799
C56	C	-0.492302	-0.957481	-0.677114
C57	C	-0.492197	-0.957562	-1.032861
C58	C	-0.492169	-0.957577	-1.103550
C59	C	-0.376761	-0.886039	-1.088582
C60	C	-0.376782	-0.886023	-1.017898
C61	C	-0.434506	-0.921782	-0.990042
C62	C	-0.434526	-0.921768	-0.913396
C63	C	-0.434536	-0.921754	-0.852305
C64	C	-0.434685	-0.921664	-0.206671
C65	C	-0.434458	-0.921812	-0.131410
H66	H	-0.539205	-0.522130	-0.317403
Br67	Br	-0.570531	-1.006096	-0.995065
H68	H	-0.539199	-0.650376	-0.317394
Br69	Br	-0.752528	-0.982423	-0.321811
H70	H	-1.175834	-0.868801	-0.435498
H71	H	-0.919417	-1.067222	-0.237227
Br72	Br	-0.298585	-0.837381	-0.770647
H73	H	-1.090352	-1.045069	-0.259437
Br74	Br	-0.752549	-0.778225	-0.525699
Br75	Br	-0.298855	-0.534280	-0.467108
Br76	Br	-0.298846	-0.700893	-0.467106
Br77	Br	-1.115949	-0.774457	-0.529662
H78	H	-0.330176	-0.193615	-0.447648
Br79	Br	-0.298575	-0.837396	-0.604033
Br80	Br	-0.974638	-0.749465	-0.554558
H81	H	-0.833952	-0.999721	-0.304584
H82	H	-0.539261	-0.986623	-0.782674
H83	H	-0.539293	-0.986607	-0.654433
Br84	Br	-0.298884	-0.345130	-0.467124
Br85	Br	-0.570538	-0.143095	-0.297949
Br86	Br	-0.298476	-0.837472	-0.959779
Br87	Br	-0.570472	-1.006135	-1.161671
Br88	Br	-0.570491	-0.309715	-0.297906
Br89	Br	-0.298420	-0.837507	-1.126390
