data_functionalizedCrystal
_audit_creation_method	'MofGen! by Chris Wilmer'
_symmetry_space_group_name_H-M	'P1'
_symmetry_Int_Tables_number	1
_symmetry_cell_setting	triclinic
loop_
_symmetry_equiv_pos_as_xyz
  x,y,z
_cell_length_a	6.817900
_cell_length_b	10.943867
_cell_length_c	10.943624
_cell_angle_alpha	91.774148
_cell_angle_beta	108.838799
_cell_angle_gamma	108.843261
loop_
_atom_site_label
_atom_site_type_symbol
_atom_site_fract_x
_atom_site_fract_y
_atom_site_fract_z
V1	V	-4.115528	-0.178599	-0.402537
O2	O	-4.073202	0.008617	-0.394889
O3	O	-4.093511	-0.354166	-0.399769
O4	O	-4.093490	-0.175837	-0.578103
O5	O	-4.073223	-0.170946	-0.215320
V6	V	-4.592321	-0.156208	-0.380146
O7	O	-4.391548	-0.227717	-0.451653
O8	O	-4.766498	-0.107090	-0.331030
O9	O	-4.391132	0.019359	-0.382913
O10	O	-4.752044	-0.343425	-0.387794
O11	O	-4.752023	-0.163861	-0.567362
O12	O	-4.391153	-0.158970	-0.204579
C13	C	-3.944077	-0.396966	-0.393415
C14	C	-4.007537	-0.540494	-0.392323
C15	C	-4.236980	-0.631377	-0.398403
C16	C	-4.234083	-0.730484	-0.501327
C17	C	-4.123503	-0.697130	-0.287478
C18	C	-4.003849	-0.637725	-0.495350
C19	C	-3.893244	-0.604349	-0.281406
C20	C	-3.890203	-0.703417	-0.384352
C21	C	-3.944049	-0.169488	-0.620897
C22	C	-4.007489	-0.168391	-0.764423
C23	C	-3.852317	-0.161004	-0.841571
C24	C	-4.041696	-0.270650	-0.947552
C25	C	-3.931175	-0.056802	-0.914183
C26	C	-4.196078	-0.278140	-0.868528
C27	C	-4.085477	-0.064195	-0.835135
C28	C	-4.274992	-0.173873	-0.941086
C29	C	-4.203909	0.062152	-0.389264
C30	C	-4.119688	0.205678	-0.390364
C31	C	-4.203936	-0.165324	-0.161779
C32	C	-4.119733	-0.166414	-0.018251
H33	H	-4.382996	-0.599540	-0.404487
H34	H	-4.378774	-0.785226	-0.594298
H35	H	-3.748608	-0.549581	-0.188434
H36	H	-3.952800	-0.611364	-0.583305
H37	H	-4.307478	-0.371785	-0.847976
H38	H	-3.673115	-0.155709	-0.798123
H39	H	-4.023850	-0.357931	-0.996494
H40	H	-4.454307	-0.179340	-0.984330
H41	H	-4.103238	0.023090	-0.786158
H42	H	-3.744035	-0.735038	-0.378430
H43	H	-4.174768	-0.723670	-0.199626
H44	H	-3.819809	0.036718	-0.934953
