data_functionalizedCrystal
_audit_creation_method	'MofGen! by Chris Wilmer'
_symmetry_space_group_name_H-M	'P1'
_symmetry_Int_Tables_number	1
_symmetry_cell_setting	triclinic
loop_
_symmetry_equiv_pos_as_xyz
  x,y,z
_cell_length_a	19.288864
_cell_length_b	15.995350
_cell_length_c	17.766277
_cell_angle_alpha	89.995869
_cell_angle_beta	89.976791
_cell_angle_gamma	83.314311
loop_
_atom_site_label
_atom_site_type_symbol
_atom_site_fract_x
_atom_site_fract_y
_atom_site_fract_z
O1	O	0.921624	0.104452	-0.062832
O2	O	0.719400	0.118542	-0.062780
O3	O	0.826040	-0.010412	-0.062807
O4	O	0.814984	0.233405	-0.062805
O5	O	0.826021	-0.010418	0.062382
O6	O	0.719381	0.118535	0.062408
O7	O	0.921605	0.104445	0.062357
Cu8	Cu	0.820492	0.111490	0.073813
Cu9	Cu	0.820514	0.111497	-0.074237
O10	O	0.814965	0.233399	0.062383
C11	C	0.693513	0.118085	-0.000179
C12	C	0.616406	0.116724	-0.000159
C13	C	0.825574	-0.041608	-0.000214
C14	C	0.824203	-0.134553	-0.000218
C15	C	0.571906	0.192388	-0.000171
C16	C	0.499456	0.191110	-0.000179
C17	C	0.471508	0.114163	-0.000191
C18	C	0.516018	0.038489	-0.000176
C19	C	0.588467	0.039769	-0.000160
C20	C	0.363096	0.053676	-0.044076
C21	C	0.290648	0.052398	-0.044097
C22	C	0.248053	0.110209	-0.000237
C23	C	0.277912	0.169312	0.043634
C24	C	0.350361	0.170593	0.043650
C25	C	0.392951	0.112765	-0.000208
C26	C	0.124993	0.184492	-0.000256
C27	C	0.052542	0.183210	-0.000260
C28	C	0.069106	0.030587	-0.000264
C29	C	0.141556	0.031871	-0.000253
C30	C	0.169495	0.108826	-0.000252
C31	C	0.819282	-0.472282	-0.000214
C32	C	0.743335	-0.424562	-0.000475
C33	C	0.744706	-0.327877	-0.000193
C34	C	0.821723	-0.304731	-0.000216
C35	C	0.859172	-0.345953	0.071262
C36	C	0.857264	-0.442582	0.071322
C37	C	0.858855	-0.442939	-0.071041
C38	C	0.858837	-0.345993	-0.071986
C39	C	0.823107	-0.210039	-0.000215
C40	C	0.817901	-0.566975	-0.000210
C41	C	0.947492	0.104902	-0.000246
C42	C	1.024600	0.106263	-0.000271
C43	C	0.815432	0.264595	-0.000211
C44	C	0.816802	0.357540	-0.000212
N45	N	0.820481	0.111484	0.177944
N46	N	0.820530	0.111497	-0.178367
C47	C	0.867717	0.054411	0.217319
C48	C	0.867721	0.054407	0.296120
C49	C	0.820496	0.111490	0.335544
C50	C	0.773251	0.168567	0.296160
C51	C	0.773244	0.168564	0.217359
C52	C	0.811395	0.187781	0.460384
C53	C	0.811407	0.187785	0.539183
C54	C	0.820514	0.111500	0.578590
C55	C	0.829624	0.035208	0.539190
C56	C	0.829617	0.035204	0.460389
C57	C	0.820498	0.111500	0.420990
C58	C	0.867757	0.054419	0.703411
C59	C	0.867756	0.054414	0.782215
C60	C	0.773290	0.168581	0.782252
C61	C	0.773288	0.168579	0.703451
C62	C	0.820525	0.111499	0.664035
H63	H	0.594649	0.255051	-0.000172
H64	H	0.374670	0.218713	0.079373
C65	C	0.155729	0.269143	-0.000247
N66	N	0.178876	0.332903	-0.000238
C67	C	0.721342	0.231375	0.825614
N68	N	0.682214	0.278672	0.858277
H69	H	0.906178	0.007931	0.185229
H70	H	0.016310	0.244828	-0.000265
H71	H	0.493259	-0.024162	-0.000196
C72	C	0.450497	0.274349	-0.000201
N73	N	0.413623	0.337046	-0.000221
H74	H	0.833147	-0.317477	0.124469
C75	C	0.825318	-0.470552	-0.144232
N76	N	0.800050	-0.491349	-0.199356
C77	C	0.932590	-0.486434	0.075693
N78	N	0.989324	-0.519460	0.078991
H79	H	0.831457	-0.318638	-0.124863
H80	H	0.715054	-0.299903	0.051147
H81	H	0.243232	0.216387	0.079349
H82	H	0.906187	0.007930	0.328186
C83	C	0.409944	-0.009921	-0.092332
N84	N	0.445230	-0.057820	-0.128678
H85	H	0.177789	-0.029743	-0.000247
H86	H	0.906219	0.007934	0.814274
C87	C	0.721374	0.231425	0.660136
N88	N	0.682286	0.278782	0.627512
H89	H	0.803994	0.249907	0.571257
H90	H	0.712988	-0.442976	-0.051732
C91	C	0.637419	-0.043471	-0.000152
N92	N	0.674291	-0.106169	-0.000149
H93	H	0.713107	-0.444044	0.050512
H94	H	0.046352	-0.032065	-0.000320
H95	H	0.266342	0.004277	-0.079822
H96	H	0.915002	-0.330843	-0.076319
C97	C	0.919712	-0.008378	0.660052
N98	N	0.958843	-0.055679	0.627395
H99	H	0.803967	0.249906	0.428305
C100	C	0.935608	-0.327143	0.074843
N101	N	0.993178	-0.312967	0.077542
H102	H	0.914850	-0.474911	-0.071538
C103	C	0.721301	0.231356	0.339527
N104	N	0.682168	0.278647	0.372192
H105	H	0.715268	-0.299341	-0.051431
C106	C	0.820343	-0.467172	0.143522
N107	N	0.792531	-0.485688	0.197903
C108	C	0.839628	-0.048716	0.417051
N109	N	0.847165	-0.111927	0.384409
C110	C	0.839641	-0.048713	0.582532
N111	N	0.847186	-0.111920	0.615181
H112	H	0.734778	0.215040	0.185299
