data_functionalizedCrystal
_audit_creation_method	'MofGen! by Chris Wilmer'
_symmetry_space_group_name_H-M	'P1'
_symmetry_Int_Tables_number	1
_symmetry_cell_setting	triclinic
loop_
_symmetry_equiv_pos_as_xyz
  x,y,z
_cell_length_a	15.538191
_cell_length_b	15.186229
_cell_length_c	16.109301
_cell_angle_alpha	89.994833
_cell_angle_beta	65.366787
_cell_angle_gamma	89.995330
loop_
_atom_site_label
_atom_site_type_symbol
_atom_site_fract_x
_atom_site_fract_y
_atom_site_fract_z
O1	O	1.249993	-0.073231	-0.270055
O2	O	1.749993	0.426769	0.229945
O3	O	0.975705	-0.073233	-0.174047
O4	O	1.475705	0.426767	0.325953
O5	O	1.120384	-0.073223	-0.345355
O6	O	1.620384	0.426777	0.154645
O7	O	1.105314	-0.073241	-0.098748
O8	O	1.605314	0.426759	0.401252
O9	O	1.120375	0.073234	-0.345353
O10	O	1.620375	0.573234	0.154647
O11	O	0.975695	0.073224	-0.174046
O12	O	1.475695	0.573224	0.325954
O13	O	1.249984	0.073226	-0.270054
O14	O	1.749984	0.573226	0.229946
Zn15	Zn	1.112838	0.096479	-0.222050
Zn16	Zn	1.612838	0.596479	0.277950
Zn17	Zn	1.112851	-0.096485	-0.222052
Zn18	Zn	1.612851	0.403515	0.277948
O19	O	1.105305	0.073216	-0.098747
O20	O	1.605305	0.573216	0.401253
C21	C	0.940602	-0.000005	-0.164002
C22	C	1.440602	0.499995	0.335998
C23	C	0.836019	-0.000005	-0.134081
C24	C	1.336019	0.499995	0.365919
N25	N	1.112836	0.228171	-0.222052
N26	N	1.612836	0.728171	0.277948
N27	N	1.112860	-0.228178	-0.222059
N28	N	1.612860	0.271822	0.277941
C29	C	0.548320	0.000003	-0.431335
C30	C	1.048320	0.500003	0.068665
C31	C	0.450045	0.000000	-0.403199
C32	C	0.950045	0.500000	0.096801
C33	C	0.427554	-0.000011	-0.244941
C34	C	0.927554	0.499989	0.255059
C35	C	0.525828	-0.000004	-0.273063
C36	C	1.025828	0.499996	0.226937
C37	C	0.586204	0.000002	-0.366262
C38	C	1.086204	0.500002	0.133738
C39	C	0.563712	-0.000005	-0.207990
C40	C	1.063712	0.499995	0.292010
C41	C	0.661978	-0.000003	-0.236111
C42	C	1.161978	0.499997	0.263889
C43	C	0.722360	0.000000	-0.329305
C44	C	1.222360	0.500000	0.170695
C45	C	0.684470	0.000004	-0.394382
C46	C	1.184470	0.500004	0.105618
C47	C	0.503335	-0.000018	-0.114793
C48	C	1.003335	0.499982	0.385207
C49	C	0.541219	-0.000019	-0.049719
C50	C	1.041219	0.499981	0.450281
C51	C	0.639487	-0.000010	-0.077840
C52	C	1.139487	0.499990	0.422160
C53	C	0.699869	-0.000007	-0.171034
C54	C	1.199869	0.499993	0.328966
C55	C	0.677377	-0.000014	-0.012763
C56	C	1.177377	0.499986	0.487237
C57	C	0.775643	-0.000011	-0.040883
C58	C	1.275643	0.499989	0.459117
C59	C	0.798135	-0.000004	-0.199155
C60	C	1.298135	0.499996	0.300845
C61	C	1.285087	-0.000004	-0.280100
C62	C	1.785087	0.499996	0.219900
C63	C	1.389670	-0.000009	-0.310020
C64	C	1.889670	0.499991	0.189980
C65	C	1.119769	0.000006	-0.376145
C66	C	1.619769	0.500006	0.123855
C67	C	1.117939	0.000007	-0.467888
C68	C	1.617939	0.500007	0.032112
C69	C	1.176922	0.453899	-0.297894
C70	C	1.676922	0.953899	0.202106
C71	C	1.176925	0.546088	-0.297897
C72	C	1.676925	1.046088	0.202103
C73	C	1.048768	0.546088	-0.146212
C74	C	1.548768	1.046088	0.353788
C75	C	1.048761	0.453900	-0.146212
C76	C	1.548761	0.953900	0.353788
C77	C	1.112843	0.407808	-0.222054
C78	C	1.612843	0.907808	0.277946
C79	C	1.112853	0.592185	-0.222056
C80	C	1.612853	1.092185	0.277944
C81	C	1.112856	0.692142	-0.222059
C82	C	1.612856	1.192142	0.277941
C83	C	1.112840	0.307845	-0.222053
C84	C	1.612840	0.807845	0.277947
C85	C	1.199533	-0.000006	-0.714764
C86	C	1.699533	0.499994	-0.214764
C87	C	1.197806	-0.000013	-0.800964
C88	C	1.697806	0.499987	-0.300964
C89	C	1.026149	-0.000011	-0.729329
C90	C	1.526149	0.499989	-0.229329
C91	C	1.027877	-0.000010	-0.643131
C92	C	1.527877	0.499990	-0.143131
C93	C	1.114572	-0.000003	-0.635852
C94	C	1.614572	0.499997	-0.135852
C95	C	1.111117	-0.000011	-0.808250
C96	C	1.611117	0.499989	-0.308250
C97	C	1.109244	-0.000019	-0.901711
C98	C	1.609244	0.499981	-0.401711
C99	C	1.116446	0.000003	-0.542385
C100	C	1.616446	0.500003	-0.042385
C101	C	1.105920	-0.000015	-0.067957
C102	C	1.605920	0.499985	0.432043
C103	C	1.107750	-0.000022	0.023786
C104	C	1.607750	0.499978	0.523786
H105	H	0.847297	0.000006	-0.275046
H106	H	1.347297	0.500006	0.224954
H107	H	1.229102	0.583613	-0.359653
H108	H	1.729102	1.083613	0.140347
H109	H	1.266990	-0.000017	-0.865214
H110	H	1.766990	0.499983	-0.365214
H111	H	0.996594	0.583626	-0.084462
H112	H	1.496594	1.083626	0.415538
H113	H	0.996576	0.416371	-0.084453
H114	H	1.496576	0.916371	0.415547
C115	C	0.930790	-0.000002	-0.737345
C116	C	1.430790	0.499998	-0.237345
N117	N	0.858963	0.000012	-0.743382
N118	N	1.358963	0.500012	-0.243382
H119	H	1.270125	-0.000002	-0.708843
H120	H	1.770125	0.499998	-0.208843
H121	H	0.492048	-0.000027	0.026163
H122	H	0.992048	0.499973	0.526163
C123	C	0.614739	0.000014	-0.533858
C124	C	1.114739	0.500014	-0.033858
N125	N	0.664766	0.000019	-0.611075
N126	N	1.164766	0.500019	-0.111075
H127	H	1.229101	0.416372	-0.359650
H128	H	1.729101	0.916372	0.140350
C129	C	0.817318	-0.000010	0.030701
C130	C	1.317318	0.499990	0.530701
N131	N	0.848708	-0.000012	0.084620
N132	N	1.348708	0.499988	0.584620
H133	H	0.733632	0.000014	-0.470273
H134	H	1.233632	0.500014	0.029727
C135	C	0.934408	-0.000011	-0.556320
C136	C	1.434408	0.499989	-0.056320
N137	N	0.864011	-0.000016	-0.490935
N138	N	1.364011	0.499984	0.009065
H139	H	0.802374	-0.000009	-0.352199
H140	H	1.302374	0.499991	0.147801
H141	H	0.423321	-0.000022	-0.091900
H142	H	0.923321	0.499978	0.408100
C143	C	0.408377	0.000001	-0.474792
C144	C	0.908377	0.500001	0.025208
N145	N	0.376994	-0.000000	-0.528716
N146	N	0.876994	0.500000	-0.028716
H147	H	0.378383	-0.000020	-0.169059
H148	H	0.878383	0.499980	0.330941
H149	H	0.628205	-0.000027	0.063119
H150	H	1.128205	0.499973	0.563119
