data_functionalizedCrystal
_audit_creation_method	'MofGen! by Chris Wilmer'
_symmetry_space_group_name_H-M	'P1'
_symmetry_Int_Tables_number	1
_symmetry_cell_setting	triclinic
loop_
_symmetry_equiv_pos_as_xyz
  x,y,z
_cell_length_a	42.784875
_cell_length_b	42.784841
_cell_length_c	42.784893
_cell_angle_alpha	90.002418
_cell_angle_beta	59.997807
_cell_angle_gamma	119.999946
loop_
_atom_site_label
_atom_site_type_symbol
_atom_site_fract_x
_atom_site_fract_y
_atom_site_fract_z
O1	O	0.275695	-0.214412	-0.009300
O2	O	0.211692	-0.168961	0.009253
O3	O	0.275692	-0.168961	-0.054750
O4	O	0.211694	-0.214412	0.054702
O5	O	0.223708	-0.220945	-0.054749
O6	O	0.159708	-0.220945	0.009253
O7	O	0.223710	-0.266396	-0.009300
Cu8	Cu	0.186962	-0.248417	-0.000023
Cu9	Cu	0.248440	-0.186940	-0.000024
O10	O	0.159710	-0.266396	0.054703
C11	C	0.051021	-0.022778	0.028112
C12	C	0.013142	-0.041761	0.028375
C13	C	0.051018	-0.079378	0.028116
C14	C	0.013139	-0.098275	0.028379
C15	C	-0.005578	-0.079377	0.028112
C16	C	0.069652	-0.041762	0.028379
C17	C	0.152948	0.113708	0.017863
C18	C	0.173786	0.152360	0.014965
C19	C	0.155902	0.171751	0.013509
C20	C	0.178499	0.213662	0.010359
C21	C	0.117177	0.152486	0.014953
C22	C	0.096339	0.113835	0.017857
C23	C	0.114226	0.094447	0.019312
C24	C	-0.131813	-0.113936	0.017859
C25	C	-0.167567	-0.131751	0.014961
C26	C	-0.185502	-0.169024	0.013506
C27	C	-0.224264	-0.188341	0.010358
C28	C	-0.167685	-0.188486	0.014954
C29	C	-0.131938	-0.170675	0.017859
C30	C	-0.114002	-0.133396	0.019309
C31	C	0.152939	-0.113943	0.017877
C32	C	0.173778	-0.131757	0.014977
C33	C	0.155892	-0.169032	0.013523
C34	C	0.178486	-0.188348	0.010377
C35	C	0.117170	-0.188491	0.014967
C36	C	0.096334	-0.170675	0.017865
C37	C	0.114220	-0.133401	0.019323
C38	C	0.091629	0.052537	0.022456
C39	C	0.073617	0.019131	0.024964
C40	C	0.073613	-0.098693	0.024971
C41	C	0.091623	-0.114088	0.022466
C42	C	-0.044339	-0.098690	0.024964
C43	C	-0.075237	-0.114085	0.022456
O44	O	-0.236947	-0.168953	-0.054776
O45	O	-0.327858	-0.214399	0.054677
O46	O	-0.327854	-0.214402	-0.009325
O47	O	-0.236952	-0.168951	0.009225
O48	O	-0.327856	-0.266387	-0.009322
O49	O	-0.327861	-0.266385	0.054679
O50	O	-0.236950	-0.220939	-0.054773
Cu51	Cu	-0.282406	-0.248408	-0.000047
Cu52	Cu	-0.282402	-0.186929	-0.000050
O53	O	-0.236954	-0.220936	0.009228
C54	C	0.384390	-0.079141	-0.361606
C55	C	0.422270	-0.041525	-0.380503
C56	C	0.384390	-0.079140	-0.305008
C57	C	0.422270	-0.041525	-0.323990
C58	C	0.440988	-0.022542	-0.361606
C59	C	0.365758	-0.098037	-0.323991
C60	C	0.282465	-0.170819	-0.396168
C61	C	0.261627	-0.188759	-0.413983
C62	C	0.279513	-0.169419	-0.451257
C63	C	0.256917	-0.188866	-0.470572
C64	C	0.318239	-0.132139	-0.470717
C65	C	0.339076	-0.114204	-0.452905
C66	C	0.321187	-0.133546	-0.415628
C67	C	0.567227	0.113943	-0.453282
C68	C	0.602981	0.152595	-0.471222
C69	C	0.620916	0.171986	-0.451883
C70	C	0.659678	0.213895	-0.471328
C71	C	0.603097	0.152720	-0.414603
C72	C	0.567349	0.114069	-0.396667
C73	C	0.549414	0.094683	-0.416011
C74	C	0.282465	-0.170819	-0.168522
C75	C	0.261624	-0.188757	-0.129868
C76	C	0.279510	-0.169417	-0.110479
C77	C	0.256914	-0.188864	-0.068568
C78	C	0.318233	-0.132139	-0.129742
C79	C	0.339070	-0.114202	-0.168394
C80	C	0.321184	-0.133547	-0.187782
C81	C	0.343783	-0.114093	-0.396315
C82	C	0.361794	-0.098589	-0.380920
C83	C	0.361794	-0.098589	-0.263099
C84	C	0.343783	-0.114093	-0.229693
C85	C	0.479750	0.019366	-0.381054
C86	C	0.510649	0.052772	-0.396557
C87	C	0.440758	-0.356211	-0.028193
C88	C	0.422041	-0.393826	-0.028459
C89	C	0.384158	-0.356212	-0.028190
C90	C	0.365526	-0.393828	-0.028456
C91	C	0.384160	-0.412810	-0.028193
C92	C	0.422038	-0.337315	-0.028456
C93	C	0.567000	-0.264531	-0.017949
C94	C	0.602755	-0.246590	-0.015053
C95	C	0.620692	-0.265929	-0.013601
C96	C	0.659455	-0.246482	-0.010453
C97	C	0.602873	-0.303209	-0.015048
C98	C	0.567125	-0.321145	-0.017949
C99	C	0.549188	-0.301804	-0.019399
C100	C	0.339356	-0.549295	-0.017951
C101	C	0.318645	-0.587946	-0.015055
C102	C	0.279915	-0.607338	-0.013597
C103	C	0.257452	-0.649247	-0.010452
C104	C	0.261899	-0.588073	-0.015042
C105	C	0.282613	-0.549422	-0.017945
C106	C	0.321343	-0.530035	-0.019397
C107	C	0.339344	-0.264536	-0.017936
C108	C	0.318628	-0.246598	-0.015032
C109	C	0.279898	-0.265939	-0.013577
C110	C	0.257433	-0.246492	-0.010426
C111	C	0.261884	-0.303217	-0.015022
C112	C	0.282601	-0.321153	-0.017924
C113	C	0.321334	-0.301808	-0.019385
C114	C	0.510421	-0.321257	-0.022542
C115	C	0.479522	-0.336761	-0.025048
C116	C	0.361696	-0.336764	-0.025041
C117	C	0.343793	-0.321261	-0.022532
C118	C	0.361701	-0.454719	-0.025047
C119	C	0.343799	-0.488124	-0.022541
O120	O	0.223728	0.336934	-0.009323
O121	O	0.159726	0.227482	0.009227
O122	O	0.223729	0.291479	-0.054775
O123	O	0.159725	0.272938	0.054678
O124	O	0.275711	0.291477	-0.054771
O125	O	0.211707	0.227481	0.009230
O126	O	0.275710	0.336933	-0.009320
Cu127	Cu	0.248455	0.282207	-0.000045
Cu128	Cu	0.186981	0.282208	-0.000049
O129	O	0.211707	0.272937	0.054681
O130	O	0.763271	0.337165	-0.496871
O131	O	0.672367	0.227714	-0.451422
O132	O	0.672365	0.291712	-0.451418
O133	O	0.763273	0.273167	-0.496876
O134	O	0.672366	0.291713	-0.503402
O135	O	0.672368	0.227715	-0.503407
O136	O	0.763272	0.337166	-0.548856
Cu137	Cu	0.717820	0.282441	-0.530878
Cu138	Cu	0.717819	0.282439	-0.469400
O139	O	0.763275	0.273168	-0.548860
O140	O	0.211690	-0.214416	-0.548617
O141	O	0.275691	-0.168962	-0.503167
O142	O	0.211689	-0.168963	-0.503163
O143	O	0.275692	-0.214415	-0.548621
O144	O	0.159706	-0.220946	-0.451179
O145	O	0.223708	-0.220945	-0.451183
O146	O	0.159707	-0.266399	-0.496633
Cu147	Cu	0.186961	-0.248419	-0.469161
Cu148	Cu	0.248437	-0.186943	-0.530639
O149	O	0.223709	-0.266398	-0.496637
C150	C	-0.005343	-0.412572	0.361558
C151	C	0.013375	-0.393590	0.380456
C152	C	0.051255	-0.355974	0.304961
C153	C	0.069887	-0.337077	0.323944
C154	C	0.051254	-0.355974	0.361560
C155	C	0.013375	-0.393589	0.323943
C156	C	-0.131582	-0.549058	0.396116
C157	C	-0.167336	-0.587709	0.413930
C158	C	-0.185271	-0.607099	0.451205
C159	C	-0.224034	-0.649009	0.470519
C160	C	-0.167452	-0.587834	0.470666
C161	C	-0.131705	-0.549184	0.452854
C162	C	-0.113770	-0.529796	0.415578
C163	C	0.096061	-0.321414	0.453239
C164	C	0.116773	-0.303600	0.471179
C165	C	0.155502	-0.266327	0.451842
C166	C	0.177965	-0.247010	0.471288
C167	C	0.173517	-0.246866	0.414562
C168	C	0.152802	-0.264677	0.396625
C169	C	0.114073	-0.301955	0.415968
C170	C	0.096064	-0.321412	0.168474
C171	C	0.116779	-0.303599	0.129820
C172	C	0.155508	-0.266324	0.110432
C173	C	0.177972	-0.247008	0.068521
C174	C	0.173522	-0.246865	0.129696
C175	C	0.152807	-0.264680	0.168348
C176	C	0.114075	-0.301953	0.187735
C177	C	-0.075004	-0.487887	0.396265
C178	C	-0.044106	-0.454481	0.380871
C179	C	0.073715	-0.336660	0.263052
C180	C	0.091618	-0.321265	0.229646
C181	C	0.073714	-0.336661	0.381009
C182	C	0.091616	-0.321267	0.396513
C183	C	-0.615853	-0.356192	0.361535
C184	C	-0.634487	-0.393807	0.380433
C185	C	-0.559253	-0.356195	0.304938
C186	C	-0.577973	-0.393810	0.323921
C187	C	-0.615854	-0.412791	0.361537
C188	C	-0.577971	-0.337296	0.323920
C189	C	-0.660659	-0.264510	0.396093
C190	C	-0.681370	-0.246568	0.413906
C191	C	-0.720101	-0.265907	0.451181
C192	C	-0.742564	-0.246458	0.470496
C193	C	-0.738117	-0.303186	0.470643
C194	C	-0.717402	-0.321123	0.452831
C195	C	-0.678671	-0.301783	0.415554
C196	C	-0.717786	-0.549275	0.453218
C197	C	-0.738625	-0.587927	0.471159
C198	C	-0.720743	-0.607319	0.451821
C199	C	-0.743337	-0.649228	0.471268
C200	C	-0.682015	-0.588055	0.414541
C201	C	-0.661173	-0.549404	0.396604
C202	C	-0.679065	-0.530016	0.415946
C203	C	-0.433005	-0.264521	0.168450
C204	C	-0.397252	-0.246584	0.129796
C205	C	-0.379317	-0.265926	0.110407
C206	C	-0.340553	-0.246480	0.068496
C207	C	-0.397138	-0.303204	0.129672
C208	C	-0.432891	-0.321139	0.168324
C209	C	-0.450820	-0.301793	0.187711
C210	C	-0.656215	-0.321236	0.396242
C211	C	-0.638313	-0.336741	0.380848
C212	C	-0.520488	-0.336747	0.263028
C213	C	-0.489588	-0.321245	0.229622
C214	C	-0.638452	-0.454700	0.380987
C215	C	-0.656464	-0.488106	0.396491
C216	C	0.051047	-0.022793	-0.361634
C217	C	0.069679	-0.041778	-0.380530
C218	C	-0.005555	-0.079389	-0.305034
C219	C	0.013163	-0.098288	-0.324016
C220	C	0.051044	-0.079393	-0.361632
C221	C	0.013165	-0.041774	-0.324018
C222	C	0.095861	0.113694	-0.396199
C223	C	0.116574	0.152345	-0.414015
C224	C	0.155305	0.171733	-0.451290
C225	C	0.177771	0.213643	-0.470606
C226	C	0.173319	0.152466	-0.470749
C227	C	0.152603	0.113816	-0.452936
C228	C	0.113871	0.094430	-0.415659
C229	C	0.152970	-0.113961	-0.453307
C230	C	0.173807	-0.131777	-0.471245
C231	C	0.155923	-0.169050	-0.451906
C232	C	0.178515	-0.188368	-0.471350
C233	C	0.117195	-0.188509	-0.414626
C234	C	0.096355	-0.170696	-0.396690
C235	C	0.114249	-0.133418	-0.416035
C236	C	-0.131801	-0.113944	-0.168548
C237	C	-0.167554	-0.131754	-0.129895
C238	C	-0.185491	-0.169029	-0.110504
C239	C	-0.224255	-0.188342	-0.068593
C240	C	-0.167672	-0.188490	-0.129767
C241	C	-0.131919	-0.170677	-0.168419
C242	C	-0.113988	-0.133404	-0.187808
C243	C	0.091413	0.052521	-0.396344
C244	C	0.073509	0.019116	-0.380948
C245	C	-0.044320	-0.098701	-0.263125
C246	C	-0.075220	-0.114094	-0.229719
C247	C	0.073640	-0.098708	-0.381079
C248	C	0.091650	-0.114104	-0.396582
C249	C	0.440756	0.310302	-0.361620
C250	C	0.422038	0.310564	-0.380518
C251	C	0.384160	0.310313	-0.305026
C252	C	0.365528	0.310575	-0.324010
C253	C	0.384159	0.310304	-0.361624
C254	C	0.422038	0.310573	-0.324006
C255	C	0.566989	0.300047	-0.396172
C256	C	0.602741	0.297146	-0.413984
C257	C	0.620675	0.295685	-0.451257
C258	C	0.659436	0.292532	-0.470569
C259	C	0.602857	0.297128	-0.470719
C260	C	0.567111	0.300034	-0.452909
C261	C	0.549177	0.301493	-0.415634
C262	C	0.339351	0.300043	-0.453303
C263	C	0.318640	0.297143	-0.471244
C264	C	0.279912	0.295691	-0.451908
C265	C	0.257449	0.292541	-0.471354
C266	C	0.261899	0.297143	-0.414629
C267	C	0.282613	0.300050	-0.396692
C268	C	0.321341	0.301497	-0.416033
C269	C	0.339354	0.300088	-0.168540
C270	C	0.318640	0.297193	-0.129888
C271	C	0.279912	0.295742	-0.110501
C272	C	0.257450	0.292601	-0.068591
C273	C	0.261898	0.297184	-0.129766
C274	C	0.282612	0.300078	-0.168417
C275	C	0.321344	0.301534	-0.187802
C276	C	0.510413	0.304641	-0.396323
C277	C	0.479516	0.307152	-0.380931
C278	C	0.361701	0.307173	-0.263117
C279	C	0.343799	0.304672	-0.229712
C280	C	0.361700	0.307154	-0.381073
C281	C	0.343798	0.304645	-0.396578
O282	O	-0.788568	-0.772501	0.496820
O283	O	-0.724563	-0.663050	0.451364
O284	O	-0.788562	-0.727048	0.451363
O285	O	-0.724568	-0.708502	0.496820
O286	O	-0.840547	-0.727044	0.503346
O287	O	-0.776547	-0.663046	0.503346
O288	O	-0.840553	-0.772496	0.548803
Cu289	Cu	-0.813297	-0.717771	0.530821
Cu290	Cu	-0.751819	-0.717775	0.469345
O291	O	-0.776553	-0.708498	0.548803
C292	C	0.051032	0.254111	0.361530
C293	C	0.013154	0.253851	0.380425
C294	C	0.051031	0.254102	0.304932
C295	C	0.013153	0.253842	0.323913
C296	C	-0.005564	0.254113	0.361527
C297	C	0.069663	0.253840	0.323916
C298	C	0.152954	0.264361	0.396096
C299	C	0.173791	0.267260	0.413911
C300	C	0.155906	0.268721	0.451185
C301	C	0.178502	0.271872	0.470501
C302	C	0.117182	0.267279	0.470643
C303	C	0.096345	0.264375	0.452830
C304	C	0.114233	0.262915	0.415555
C305	C	-0.131796	0.264379	0.453195
C306	C	-0.167548	0.267280	0.471133
C307	C	-0.185483	0.268734	0.451793
C308	C	-0.224243	0.271885	0.471236
C309	C	-0.167664	0.267281	0.414515
C310	C	-0.131919	0.264374	0.396581
C311	C	-0.113984	0.262925	0.415925
C312	C	0.152952	0.264325	0.168451
C313	C	0.173792	0.267221	0.129798
C314	C	0.155907	0.268673	0.110407
C315	C	0.178502	0.271814	0.068498
C316	C	0.117186	0.267233	0.129669
C317	C	0.096350	0.264339	0.168320
C318	C	0.114234	0.262882	0.187709
C319	C	0.091638	0.259770	0.396240
C320	C	0.073627	0.257260	0.380845
C321	C	0.073626	0.257242	0.263024
C322	C	0.091636	0.259744	0.229619
C323	C	-0.044324	0.257264	0.380973
C324	C	-0.075221	0.259775	0.396474
H325	H	-0.117435	-0.186523	0.019040
Br326	Br	0.542934	0.301997	-0.479322
H327	H	0.102110	-0.319445	0.114137
H328	H	0.167271	0.098131	-0.468782
Br329	Br	-0.012728	-0.418993	0.431964
H330	H	0.102618	0.168276	0.013770
Br331	Br	-0.191743	-0.105339	0.012994
H332	H	0.617485	0.168278	-0.501573
H333	H	-0.382533	-0.318952	0.113883
Br334	Br	0.043503	-0.371998	0.194783
Br335	Br	-0.107469	-0.063345	0.019822
H336	H	-0.667451	-0.603844	0.398798
H337	H	-0.182293	-0.218838	0.013775
Br338	Br	0.258153	-0.371743	-0.019887
H339	H	-0.182272	0.268459	0.398770
H340	H	0.230365	-0.603862	-0.013858
Br341	Br	0.092326	-0.330011	0.521768
Br342	Br	0.627196	0.295148	-0.521303
Br343	Br	0.177247	-0.238266	0.346037
Br344	Br	0.209320	-0.329468	-0.013044
H345	H	0.230097	-0.219111	-0.398135
H346	H	0.437930	-0.026284	-0.308746
Br347	Br	0.043784	-0.197084	0.019823
Br348	Br	-0.107246	-0.522748	0.345530
Br349	Br	-0.012971	-0.016361	0.029086
Br350	Br	0.543171	0.087925	-0.346079
Br351	Br	-0.191514	-0.613851	0.387518
H352	H	-0.664969	-0.409044	0.411340
Br353	Br	-0.608616	-0.523262	0.346015
Br354	Br	-0.551846	-0.419205	0.298532
Br355	Br	0.258165	-0.523279	-0.019907
Br356	Br	0.226338	0.178502	0.013003
Br357	Br	-0.191798	-0.614146	0.521253
H358	H	0.267945	0.301233	-0.366341
H359	H	0.205320	0.268435	0.398066
H360	H	-0.182058	-0.115906	-0.114213
H361	H	0.064808	0.098152	0.019035
H362	H	0.102624	0.268416	0.113879
H363	H	-0.562325	-0.306400	0.308670
H364	H	0.101904	0.168029	-0.398169
Br365	Br	0.343074	-0.196009	-0.013067
H366	H	0.552621	-0.351497	-0.019128
H367	H	-0.666700	-0.216216	0.398058
Br368	Br	0.225877	0.178776	-0.521336
H369	H	-0.117201	-0.533500	0.468702
H370	H	0.102606	-0.218843	0.013783
H371	H	0.100165	-0.026535	-0.411435
Br372	Br	0.448387	-0.016126	-0.432017
Br373	Br	0.120687	-0.285564	0.298547
H374	H	-0.002293	-0.408830	0.308704
Br375	Br	0.043501	-0.372001	0.479489
Br376	Br	-0.457076	-0.371730	0.194466
H377	H	0.230368	0.295966	-0.398887
H378	H	0.205048	-0.216515	0.398819
Br379	Br	-0.012961	0.253143	0.431938
Br380	Br	0.177256	-0.238270	0.194490
Br381	Br	0.391916	0.302062	-0.194849
Br382	Br	-0.012968	-0.149784	0.029080
H383	H	0.267941	0.301250	-0.184099
H384	H	-0.002510	0.253416	0.308669
H385	H	-0.002499	-0.026531	-0.308780
Br386	Br	0.391909	-0.238283	-0.019915
Br387	Br	0.314958	-0.149550	-0.298590
H388	H	0.064821	0.263164	0.184001
Br389	Br	-0.373072	-0.195996	0.103652
H390	H	0.230091	-0.219107	-0.114185
Br391	Br	0.542654	0.302028	-0.345587
H392	H	0.205059	-0.216513	0.113907
H393	H	-0.447602	-0.248767	0.184232
H394	H	0.102623	0.268466	0.500992
H395	H	0.100131	-0.026521	0.028807
H396	H	0.370892	-0.533512	-0.019136
H397	H	0.617482	-0.318951	-0.013867
H398	H	0.552400	-0.248779	-0.019131
Br399	Br	0.258192	-0.197071	-0.194834
Br400	Br	0.626919	0.295185	-0.387571
Br401	Br	-0.608097	-0.238261	0.345505
H402	H	0.370598	-0.083849	-0.184076
Br403	Br	0.258183	-0.197067	-0.345579
Br404	Br	-0.790675	-0.329427	0.521230
Br405	Br	0.226363	-0.105368	-0.521835
Br406	Br	0.448169	0.311301	-0.432040
H407	H	-0.732073	-0.351475	0.468679
H408	H	-0.732355	-0.533492	0.468970
Br409	Br	-0.791181	-0.614067	0.521748
H410	H	-0.002510	-0.129196	-0.308775
Br411	Br	0.343094	-0.614088	-0.013093
Br412	Br	0.391907	0.302006	-0.479550
Br413	Br	-0.107466	-0.063359	-0.194862
H414	H	0.064324	0.097913	-0.365848
H415	H	0.335043	-0.409068	-0.028878
H416	H	0.167541	-0.083610	-0.469060
Br417	Br	0.092916	-0.239096	-0.388379
Br418	Br	0.342512	-0.105896	-0.521304
Br419	Br	0.043798	-0.197104	-0.346101
H420	H	0.552629	0.098161	-0.469035
H421	H	0.333308	0.295959	-0.501595
H422	H	0.370607	-0.083852	-0.468752
Br423	Br	-0.107738	-0.197089	-0.194559
H424	H	0.437704	-0.306409	-0.028878
H425	H	-0.182280	-0.218843	-0.113977
Br426	Br	0.120467	0.253131	0.298515
H427	H	0.335046	0.311000	-0.308768
H428	H	0.437704	0.310999	-0.308766
Br429	Br	0.343085	0.295231	-0.103744
H430	H	0.230362	0.296001	-0.113978
Br431	Br	0.226330	-0.105346	0.013015
H432	H	0.205322	0.268398	0.114116
Br433	Br	0.177224	0.262348	0.194764
H434	H	0.167522	0.263171	0.365746
H435	H	0.617704	0.168508	-0.398859
Br436	Br	0.043793	0.262415	0.479237
H437	H	-0.117197	0.263199	0.468949
H438	H	-0.182052	0.268464	0.501484
H439	H	0.617258	-0.216239	-0.013873
Br440	Br	-0.107742	0.262399	0.345994
H441	H	0.167506	-0.083592	0.019063
Br442	Br	0.342497	-0.105883	-0.103425
H443	H	0.167516	0.097925	0.019049
Br444	Br	0.448157	-0.419225	-0.029178
