data_functionalizedCrystal
_audit_creation_method	'MofGen! by Chris Wilmer'
_symmetry_space_group_name_H-M	'P1'
_symmetry_Int_Tables_number	1
_symmetry_cell_setting	triclinic
loop_
_symmetry_equiv_pos_as_xyz
  x,y,z
_cell_length_a	10.686285
_cell_length_b	10.685980
_cell_length_c	12.759393
_cell_angle_alpha	94.395466
_cell_angle_beta	94.398003
_cell_angle_gamma	89.665709
loop_
_atom_site_label
_atom_site_type_symbol
_atom_site_fract_x
_atom_site_fract_y
_atom_site_fract_z
Zn1	Zn	-0.352362	1.956334	0.696632
Zn2	Zn	0.147638	2.456334	1.196632
Zn3	Zn	-0.562180	1.972332	0.508600
Zn4	Zn	-0.062180	2.472332	1.008600
Zn5	Zn	-0.368504	1.746546	0.506526
Zn6	Zn	0.131496	2.246546	1.006526
Zn7	Zn	-0.578151	1.762643	0.669814
Zn8	Zn	-0.078151	2.262643	1.169814
O9	O	-0.465299	1.859464	0.595393
O10	O	0.034701	2.359464	1.095393
O11	O	-0.366756	2.134009	0.683781
O12	O	0.133244	2.634009	1.183781
O13	O	-0.536560	1.942339	0.361297
O14	O	-0.036560	2.442339	0.861297
O15	O	-0.190815	1.760943	0.542100
O16	O	0.309185	2.260943	1.042100
O17	O	-0.520908	2.145762	0.545635
O18	O	-0.020908	2.645762	1.045635
O19	O	-0.178956	1.915073	0.681770
O20	O	0.321044	2.415073	1.181770
O21	O	-0.394267	1.776455	0.359773
O22	O	0.105733	2.276455	0.859773
O23	O	-0.409753	1.573129	0.516095
O24	O	0.090247	2.073129	1.016095
O25	O	-0.548128	1.788379	0.820400
O26	O	-0.048128	2.288379	1.320400
O27	O	-0.563780	1.584956	0.636062
O28	O	-0.063780	2.084956	1.136062
O29	O	-0.382242	1.930683	0.840103
O30	O	0.117758	2.430683	1.340103
O31	O	-0.739846	1.957948	0.519630
O32	O	-0.239846	2.457948	1.019630
O33	O	-0.751580	1.803891	0.638073
O34	O	-0.251580	2.303891	1.138073
C35	C	-0.490252	1.533523	0.572944
C36	C	0.009748	2.033523	1.072944
C37	C	-0.500957	1.394087	0.563363
C38	C	-0.000957	1.894087	1.063363
C39	C	-0.791228	1.884436	0.576192
C40	C	-0.291228	2.384436	1.076192
C41	C	-0.930653	1.895234	0.568020
C42	C	-0.430653	2.395234	1.068020
C43	C	-0.138095	1.834428	0.614695
C44	C	0.361905	2.334428	1.114695
C45	C	0.001339	1.823759	0.622920
C46	C	0.501339	2.323759	1.122920
C47	C	-0.465166	1.859542	0.869440
C48	C	0.034834	2.359542	1.369440
C49	C	-0.465109	1.859575	0.986223
C50	C	0.034891	2.359575	1.486223
C51	C	-0.440250	2.186677	0.617931
C52	C	0.059750	2.686677	1.117931
C53	C	-0.429576	2.326116	0.627535
C54	C	0.070424	2.826116	1.127535
C55	C	-0.465336	1.859451	0.322423
C56	C	0.034664	2.359451	0.822423
C57	C	-0.465021	1.859634	0.205678
C58	C	0.034979	2.359634	0.705678
C59	C	-0.378724	1.933683	1.051347
C60	C	0.121276	2.433683	1.551347
C61	C	-0.378676	1.933710	1.161076
C62	C	0.121324	2.433710	1.661076
C63	C	-0.551410	1.785517	1.140545
C64	C	-0.051410	2.285517	1.640545
C65	C	-0.551451	1.785485	1.030818
C66	C	-0.051451	2.285485	1.530818
C67	C	-0.279001	2.019245	1.063201
C68	C	0.220999	2.519245	1.563201
C69	C	-0.278953	2.019272	1.172930
C70	C	0.221047	2.519272	1.672930
H71	H	-0.360266	1.374595	0.689804
H72	H	0.139734	1.874595	1.189804
H73	H	-0.950222	1.754306	0.676175
H74	H	-0.450222	2.254306	1.176175
C75	C	-0.594591	1.328589	0.479227
C76	C	-0.094591	1.828589	0.979227
N77	N	-0.665117	1.279256	0.415858
N78	N	-0.165117	1.779256	0.915858
C79	C	-0.996097	1.989060	0.496061
C80	C	-0.496097	2.489060	0.996061
N81	N	-1.045390	2.059728	0.441863
N82	N	-0.545390	2.559728	0.941863
C83	C	-0.646380	1.704020	1.189611
C84	C	-0.146380	2.204020	1.689611
N85	N	-0.717913	1.642635	1.226567
N86	N	-0.217913	2.142635	1.726567
H87	H	-0.621790	1.725134	0.977797
H88	H	-0.121790	2.225134	1.477797
H89	H	-0.183844	1.985786	1.037371
H90	H	0.316156	2.485786	1.537371
C91	C	-0.316463	2.147518	1.023030
C92	C	0.183537	2.647518	1.523030
N93	N	-0.344672	2.244137	0.992774
N94	N	0.155328	2.744137	1.492774
H95	H	-0.189310	1.977414	1.210015
H96	H	0.310690	2.477414	1.710015
C97	C	-0.304060	2.153227	1.220130
C98	C	0.195940	2.653227	1.720130
N99	N	-0.322974	2.254119	1.255681
N100	N	0.177026	2.754119	1.755681
