data_functionalizedCrystal
_audit_creation_method	'MofGen! by Chris Wilmer'
_symmetry_space_group_name_H-M	'P1'
_symmetry_Int_Tables_number	1
_symmetry_cell_setting	triclinic
loop_
_symmetry_equiv_pos_as_xyz
  x,y,z
_cell_length_a	19.076808
_cell_length_b	19.077142
_cell_length_c	19.076919
_cell_angle_alpha	89.925643
_cell_angle_beta	89.878360
_cell_angle_gamma	90.073311
loop_
_atom_site_label
_atom_site_type_symbol
_atom_site_fract_x
_atom_site_fract_y
_atom_site_fract_z
Zn1	Zn	-0.339436	-1.045197	-0.426273
Zn2	Zn	0.160564	-0.545197	0.073727
Zn3	Zn	-0.452243	-1.045492	-0.304054
Zn4	Zn	0.047757	-0.545492	0.195946
Zn5	Zn	-0.330036	-0.932777	-0.304455
Zn6	Zn	0.169964	-0.432777	0.195545
Zn7	Zn	-0.451818	-0.923330	-0.416820
Zn8	Zn	0.048182	-0.423330	0.083180
O9	O	-0.393383	-0.986699	-0.362901
O10	O	0.106617	-0.486699	0.137099
O11	O	-0.358512	-1.143409	-0.413848
O12	O	0.141488	-0.643409	0.086152
O13	O	-0.432276	-1.034617	-0.205933
O14	O	0.067724	-0.534617	0.294067
O15	O	-0.233106	-0.951519	-0.324739
O16	O	0.266894	-0.451519	0.175261
O17	O	-0.441391	-1.143626	-0.324055
O18	O	0.058609	-0.643626	0.175945
O19	O	-0.240013	-1.034114	-0.414238
O20	O	0.259987	-0.534114	0.085762
O21	O	-0.342491	-0.951806	-0.206228
O22	O	0.157509	-0.451806	0.293772
O23	O	-0.342078	-0.833350	-0.315573
O24	O	0.157922	-0.333350	0.184427
O25	O	-0.440667	-0.935419	-0.516248
O26	O	0.059333	-0.435419	-0.016248
O27	O	-0.431551	-0.826410	-0.398127
O28	O	0.068449	-0.326410	0.101873
O29	O	-0.358100	-1.024954	-0.523193
O30	O	0.141900	-0.524954	-0.023193
O31	O	-0.550363	-1.025458	-0.314889
O32	O	-0.050363	-0.525458	0.185111
O33	O	-0.550051	-0.935706	-0.397737
O34	O	-0.050051	-0.435706	0.102263
C35	C	-0.385749	-0.804425	-0.355868
C36	C	0.114251	-0.304425	0.144132
C37	C	-0.382501	-0.726446	-0.352875
C38	C	0.117499	-0.226446	0.147125
C39	C	-0.575665	-0.979607	-0.355260
C40	C	-0.075665	-0.479607	0.144740
C41	C	-0.653649	-0.976636	-0.352017
C42	C	-0.153649	-0.476636	0.147983
C43	C	-0.427624	-0.686217	-0.394377
C44	C	0.072376	-0.186217	0.105623
C45	C	-0.424562	-0.612947	-0.391569
C46	C	0.075438	-0.112947	0.108431
C47	C	-0.376381	-0.579909	-0.347255
C48	C	0.123619	-0.079909	0.152745
C49	C	-0.331254	-0.620144	-0.305751
C50	C	0.168746	-0.120144	0.194249
C51	C	-0.334312	-0.693411	-0.308563
C52	C	0.165688	-0.193411	0.191437
C53	C	-0.362229	-0.361167	-0.334246
C54	C	0.137771	0.138833	0.165754
C55	C	-0.359175	-0.287894	-0.331435
C56	C	0.140825	0.212106	0.168565
C57	C	-0.452483	-0.280703	-0.417255
C58	C	0.047517	0.219297	0.082745
C59	C	-0.455540	-0.353972	-0.420060
C60	C	0.044460	0.146028	0.079940
C61	C	-0.410410	-0.394200	-0.378559
C62	C	0.089590	0.105800	0.121441
N63	N	-0.373252	-0.505016	-0.344382
N64	N	0.126748	-0.005016	0.155618
N65	N	-0.413536	-0.469092	-0.381436
N66	N	0.086464	0.030908	0.118564
C67	C	-0.693821	-1.018208	-0.397126
C68	C	-0.193821	-0.518208	0.102874
C69	C	-0.767096	-1.015414	-0.394080
C70	C	-0.267096	-0.515414	0.105920
C71	C	-0.800197	-0.971051	-0.345921
C72	C	-0.300197	-0.471051	0.154079
C73	C	-0.760019	-0.929475	-0.300810
C74	C	-0.260019	-0.429475	0.199190
C75	C	-0.686746	-0.932266	-0.303860
C76	C	-0.186746	-0.432266	0.196140
C77	C	-1.018960	-0.958093	-0.331802
C78	C	-0.518960	-0.458093	0.168198
C79	C	-1.092239	-0.955307	-0.328754
C80	C	-0.592239	-0.455307	0.171246
C81	C	-1.099311	-1.041246	-0.422025
C82	C	-0.599311	-0.541246	0.077975
C83	C	-1.026036	-1.044036	-0.425068
C84	C	-0.526036	-0.544036	0.074932
C85	C	-0.985865	-1.002457	-0.379960
C86	C	-0.485865	-0.502457	0.120040
N87	N	-0.875095	-0.968196	-0.342805
N88	N	-0.375095	-0.468196	0.157195
N89	N	-0.910968	-1.005309	-0.383080
N90	N	-0.410968	-0.505309	0.116920
C91	C	-0.210392	-0.993837	-0.370587
C92	C	0.289608	-0.493837	0.129413
C93	C	-0.132411	-0.996879	-0.373863
C94	C	0.367589	-0.496879	0.126137
C95	C	-0.400385	-0.979100	-0.545888
C96	C	0.099615	-0.479100	-0.045888
C97	C	-0.403368	-0.975862	-0.623866
C98	C	0.096632	-0.475862	-0.123866
C99	C	-0.401044	-0.169685	-0.369953
C100	C	0.098956	0.330315	0.130047
C101	C	-0.404298	-0.247664	-0.372937
C102	C	0.095702	0.252336	0.127063
C103	C	-0.361784	-1.020954	-0.664118
C104	C	0.138216	-0.520954	-0.164118
C105	C	-0.364584	-1.017903	-0.737386
C106	C	0.135416	-0.517903	-0.237386
C107	C	-0.408973	-0.969762	-0.770402
C108	C	0.091027	-0.469762	-0.270402
C109	C	-0.450559	-0.924665	-0.730146
C110	C	0.049441	-0.424665	-0.230146
C111	C	-0.447754	-0.927714	-0.656879
C112	C	0.052246	-0.427714	-0.156879
C113	C	-0.421966	-0.955644	-0.989140
C114	C	0.078034	-0.455644	-0.489140
C115	C	-0.424769	-0.952601	-1.062413
C116	C	0.075231	-0.452601	-0.562413
C117	C	-0.338793	-1.045837	-1.069649
C118	C	0.161207	-0.545837	-0.569649
C119	C	-0.335996	-1.048884	-0.996379
C120	C	0.164004	-0.548884	-0.496379
C121	C	-0.377579	-1.003785	-0.956129
C122	C	0.122421	-0.503785	-0.456129
N123	N	-0.411838	-0.966644	-0.845295
N124	N	0.088162	-0.466644	-0.345295
N125	N	-0.374710	-1.006900	-0.881238
N126	N	0.125290	-0.506900	-0.381238
C127	C	-0.386360	-0.994311	-0.180629
C128	C	0.113640	-0.494311	0.319371
C129	C	-0.383185	-0.997693	-0.102664
C130	C	0.116815	-0.497693	0.397336
H131	H	-0.461307	-0.580196	-0.425364
H132	H	0.038693	-0.080196	0.074636
N133	N	-0.643413	-0.887426	-0.255210
N134	N	-0.143413	-0.387426	0.244790
H135	H	-0.675499	-0.858899	-0.224238
H136	H	-0.175499	-0.358899	0.275762
H137	H	-0.612950	-0.918513	-0.225135
H138	H	-0.112950	-0.418513	0.274865
N139	N	-0.285639	-0.736799	-0.263802
N140	N	0.214361	-0.236799	0.236198
H141	H	-0.294003	-0.725702	-0.212714
H142	H	0.205997	-0.225702	0.287286
H143	H	-0.294906	-0.788212	-0.272366
H144	H	0.205094	-0.288212	0.227634
N145	N	-0.501153	-0.237310	-0.462013
N146	N	-0.001153	0.262690	0.037987
H147	H	-0.472670	-0.206672	-0.494598
H148	H	0.027330	0.293328	0.005402
H149	H	-0.532130	-0.269403	-0.490468
H150	H	-0.032130	0.230597	0.009532
N151	N	-0.288122	-1.100809	-0.960770
N152	N	0.211878	-0.600809	-0.460770
H153	H	-0.262202	-1.128913	-0.997388
H154	H	0.237798	-0.628913	-0.497388
H155	H	-0.253295	-1.074785	-0.930630
H156	H	0.246705	-0.574785	-0.430630
N157	N	-0.658130	-1.066057	-0.449074
N158	N	-0.158130	-0.566057	0.050926
H159	H	-0.627793	-1.037327	-0.481725
H160	H	-0.127793	-0.537327	0.018275
H161	H	-0.628020	-1.100928	-0.423064
H162	H	-0.128020	-0.600928	0.076936
N163	N	-0.479591	-0.721846	-0.442176
N164	N	0.020409	-0.221846	0.057824
H165	H	-0.474684	-0.774366	-0.437660
H166	H	0.025316	-0.274366	0.062340
H167	H	-0.528723	-0.707544	-0.428582
H168	H	-0.028723	-0.207544	0.071418
H169	H	-0.292021	-0.593238	-0.269672
H170	H	0.207979	-0.093238	0.230328
H171	H	-0.325640	-1.060157	-0.637242
H172	H	0.174360	-0.560157	-0.137242
N173	N	-0.293940	-1.094467	-1.113067
N174	N	0.206060	-0.594467	-0.613067
H175	H	-0.242869	-1.086053	-1.101999
H176	H	0.257131	-0.586053	-0.601999
H177	H	-0.306502	-1.144678	-1.101781
H178	H	0.193498	-0.644678	-0.601781
N179	N	-0.472622	-0.900650	-1.098023
N180	N	0.027378	-0.400650	-0.598023
H181	H	-0.468083	-0.905560	-1.150545
H182	H	0.031917	-0.405560	-0.650545
H183	H	-0.522703	-0.910121	-1.083543
H184	H	-0.022703	-0.410121	-0.583543
N185	N	-0.810402	-1.060258	-0.442748
N186	N	-0.310402	-0.560258	0.057252
H187	H	-0.841061	-1.092826	-0.414270
H188	H	-0.341061	-0.592826	0.085730
H189	H	-0.840816	-1.029170	-0.472871
H190	H	-0.340816	-0.529170	0.027129
N191	N	-0.319740	-1.066536	-0.780810
N192	N	0.180260	-0.566536	-0.280810
H193	H	-0.287197	-1.038026	-0.811470
H194	H	0.212803	-0.538026	-0.311470
H195	H	-0.291239	-1.097493	-0.748739
H196	H	0.208761	-0.597493	-0.248739
N197	N	-0.466791	-0.906981	-0.945733
N198	N	0.033209	-0.406981	-0.445733
H199	H	-0.495329	-0.876018	-0.977769
H200	H	0.004671	-0.376018	-0.477769
H201	H	-0.499299	-0.935510	-0.915057
H202	H	0.000701	-0.435510	-0.415057
H203	H	-0.494776	-0.380867	-0.456144
H204	H	0.005224	0.119133	0.043856
N205	N	-1.127943	-0.907458	-0.276808
N206	N	-0.627943	-0.407458	0.223192
H207	H	-1.091376	-0.881540	-0.248695
H208	H	-0.591376	-0.381540	0.251305
H209	H	-1.158099	-0.872630	-0.302822
H210	H	-0.658099	-0.372630	0.197178
N211	N	-0.307208	-0.252256	-0.283635
N212	N	0.192792	0.247744	0.216365
H213	H	-0.279081	-0.288858	-0.257771
H214	H	0.220919	0.211142	0.242229
H215	H	-0.274616	-0.221932	-0.312440
H216	H	0.225384	0.278068	0.187560
N217	N	-0.498420	-0.872726	-0.765752
N218	N	0.001580	-0.372726	-0.265752
H219	H	-0.493885	-0.877634	-0.818275
H220	H	0.006115	-0.377634	-0.318275
H221	H	-0.548497	-0.882210	-0.751266
H222	H	-0.048497	-0.382210	-0.251266
N223	N	-0.492599	-0.879073	-0.613461
N224	N	0.007401	-0.379073	-0.113461
H225	H	-0.521144	-0.848112	-0.645493
H226	H	-0.021144	-0.348112	-0.145493
H227	H	-0.525100	-0.907622	-0.582797
H228	H	-0.025100	-0.407622	-0.082797
H229	H	-0.999088	-1.080159	-0.464282
H230	H	-0.499088	-0.580159	0.035718
N231	N	-0.313545	-0.404550	-0.289498
N232	N	0.186455	0.095450	0.210502
H233	H	-0.282558	-0.372501	-0.261002
H234	H	0.217442	0.127499	0.238998
H235	H	-0.342063	-0.435194	-0.256952
H236	H	0.157937	0.064806	0.243048
N237	N	-1.142638	-1.086088	-0.470676
N238	N	-0.642638	-0.586088	0.029324
H239	H	-1.194079	-1.077591	-0.461439
H240	H	-0.694079	-0.577591	0.038561
H241	H	-1.131279	-1.073535	-0.520882
H242	H	-0.631279	-0.573535	-0.020882
H243	H	-0.786975	-0.893351	-0.261601
H244	H	-0.286975	-0.393351	0.238399
N245	N	-0.975638	-0.913257	-0.283146
N246	N	-0.475638	-0.413257	0.216854
H247	H	-1.007728	-0.884735	-0.252172
H248	H	-0.507728	-0.384735	0.247828
H249	H	-0.945179	-0.944350	-0.253073
H250	H	-0.445179	-0.444350	0.246927
