data_functionalizedCrystal
_audit_creation_method	'MofGen! by Chris Wilmer'
_symmetry_space_group_name_H-M	'P1'
_symmetry_Int_Tables_number	1
_symmetry_cell_setting	triclinic
loop_
_symmetry_equiv_pos_as_xyz
  x,y,z
_cell_length_a	17.077404
_cell_length_b	21.295417
_cell_length_c	17.077396
_cell_angle_alpha	90.033192
_cell_angle_beta	90.019501
_cell_angle_gamma	90.030732
loop_
_atom_site_label
_atom_site_type_symbol
_atom_site_fract_x
_atom_site_fract_y
_atom_site_fract_z
Zn1	Zn	1.200013	-0.250605	0.443817
Zn2	Zn	1.199903	-0.355878	0.312540
Zn3	Zn	1.068745	-0.250628	0.312565
Zn4	Zn	1.068695	-0.355841	0.443764
O5	O	1.134339	-0.303238	0.378171
O6	O	1.309845	-0.264577	0.426415
O7	O	1.182479	-0.341942	0.202697
O8	O	1.086225	-0.162535	0.330008
O9	O	1.309764	-0.341920	0.329966
O10	O	1.182667	-0.162519	0.426439
O11	O	1.086118	-0.264614	0.202715
O12	O	0.958891	-0.264578	0.329957
O13	O	1.086140	-0.341857	0.553618
O14	O	0.958855	-0.341878	0.426348
O15	O	1.182619	-0.264540	0.553657
O16	O	1.182431	-0.443963	0.329915
O17	O	1.086033	-0.443935	0.426324
C18	C	0.930391	-0.303227	0.378150
C19	C	0.843141	-0.303237	0.378159
C20	C	0.802153	-0.343548	0.428270
C21	C	0.720172	-0.343549	0.428282
C22	C	0.679182	-0.303242	0.378180
C23	C	0.720176	-0.262927	0.328067
C24	C	0.802155	-0.262923	0.328059
C25	C	0.549306	-0.262940	0.328086
C26	C	0.467322	-0.262944	0.328093
C27	C	0.467323	-0.343566	0.428309
C28	C	0.549302	-0.343562	0.428301
C29	C	0.590291	-0.303247	0.378187
C30	C	1.134236	-0.466790	0.378128
C31	C	1.134264	-0.536758	0.378136
C32	C	1.184503	-0.569618	0.327987
C33	C	1.184539	-0.635360	0.328004
C34	C	1.134323	-0.668240	0.378163
C35	C	1.084081	-0.635372	0.428321
C36	C	1.084051	-0.569631	0.428308
N37	N	1.065655	-0.771506	0.384140
N38	N	1.065685	-0.833958	0.384148
C39	C	1.134411	-0.866315	0.378208
N40	N	1.203107	-0.833862	0.372244
N41	N	1.203076	-0.771405	0.372231
C42	C	1.134351	-0.739526	0.378183
C43	C	1.184694	-0.970461	0.328075
C44	C	1.184732	-1.036204	0.328098
C45	C	1.084267	-1.036215	0.428411
C46	C	1.084236	-0.970473	0.428392
C47	C	1.134449	-0.937599	0.378220
C48	C	1.339083	-0.303250	0.378194
C49	C	1.426333	-0.303255	0.378203
C50	C	1.134386	-0.303192	0.582916
C51	C	1.134407	-0.303172	0.670166
C52	C	1.134464	-0.139048	0.378232
C53	C	1.134517	-0.069080	0.378258
C54	C	1.134337	-0.303239	0.174224
C55	C	1.134469	-0.303081	0.086974
C56	C	1.184645	-0.262910	0.711177
C57	C	1.184654	-0.262889	0.793158
C58	C	1.134429	-0.303134	0.834125
C59	C	1.084185	-0.343397	0.793108
C60	C	1.084172	-0.343415	0.711129
C61	C	1.084217	-0.343360	0.963978
C62	C	1.084231	-0.343343	1.045963
C63	C	1.184699	-0.262834	1.046007
C64	C	1.184686	-0.262851	0.964028
C65	C	1.134443	-0.303116	0.923016
H66	H	0.686795	-0.230106	0.287276
C67	C	0.927825	-0.227117	0.283553
C68	C	0.847214	-0.218613	0.272976
H69	H	0.955640	-0.199756	0.249551
H70	H	0.941227	-0.269394	0.271962
H71	H	0.941279	-0.217958	0.336318
H72	H	0.833760	-0.227776	0.220213
H73	H	0.833807	-0.176326	0.284562
H74	H	1.225607	-0.230048	1.079403
C75	C	0.375054	-0.254060	0.222561
C76	C	0.422248	-0.218623	0.273052
H77	H	0.347227	-0.226693	0.188588
H78	H	0.338928	-0.278078	0.252406
H79	H	0.407005	-0.281436	0.192438
H80	H	0.390296	-0.191250	0.303180
H81	H	0.458378	-0.194594	0.243205
H82	H	1.225648	-1.062958	0.287263
H83	H	0.582677	-0.230106	0.287285
H84	H	1.043196	-0.662147	0.469162
C85	C	0.984751	-0.576247	0.527464
C86	C	1.028820	-0.533507	0.483431
H87	H	0.950650	-0.553943	0.561490
H88	H	1.018947	-0.601842	0.557527
H89	H	0.954758	-0.601934	0.493234
H90	H	1.058817	-0.507823	0.517660
H91	H	0.994620	-0.507902	0.453365
C92	C	0.728408	-0.423256	0.527316
C93	C	0.675118	-0.387871	0.483352
H94	H	0.700592	-0.450623	0.561310
H95	H	0.760407	-0.395863	0.557411
H96	H	0.760359	-0.447288	0.493041
H97	H	0.643171	-0.363835	0.517627
H98	H	0.643106	-0.415267	0.453255
H99	H	1.225583	-0.943694	0.287224
H100	H	1.043288	-0.376163	0.826470
C101	C	1.283815	-0.576216	0.228839
C102	C	1.239707	-0.533485	0.272849
H103	H	1.317900	-0.553906	0.194806
H104	H	1.249643	-0.601895	0.198785
H105	H	1.313826	-0.601820	0.263083
H106	H	1.209691	-0.507884	0.238606
H107	H	1.273883	-0.507794	0.302906
C108	C	0.984907	-0.422915	1.037689
C109	C	1.029017	-0.387576	1.090996
H110	H	0.950817	-0.450219	1.065492
H111	H	1.019078	-0.447007	1.005711
H112	H	0.954900	-0.395485	1.005718
H113	H	1.059028	-0.415006	1.122962
H114	H	0.994842	-0.363483	1.122986
C115	C	0.442035	-0.450202	0.466292
C116	C	0.422268	-0.387881	0.483393
H117	H	0.414212	-0.477560	0.500292
H118	H	0.496717	-0.455965	0.473461
H119	H	0.428567	-0.459347	0.413527
H120	H	0.435741	-0.378734	0.536157
H121	H	0.367574	-0.382114	0.476231
H122	H	1.043255	-0.376194	0.677738
H123	H	1.225547	-0.230140	0.677828
C124	C	1.073249	-0.428046	0.871743
C125	C	1.028998	-0.387620	0.918886
H126	H	1.039163	-0.455368	0.843899
H127	H	1.107427	-0.452118	0.903724
H128	H	1.103158	-0.404068	0.835623
H129	H	0.999094	-0.411598	0.955009
H130	H	0.994807	-0.363546	0.886901
C131	C	1.039705	-1.136993	0.472974
C132	C	1.029070	-1.072349	0.483550
H133	H	1.005626	-1.159301	0.507015
H134	H	1.092440	-1.147716	0.484513
H135	H	1.028250	-1.147802	0.420222
H136	H	1.040531	-1.061539	0.536300
H137	H	0.976323	-1.061621	0.472016
H138	H	1.225453	-0.662120	0.287167
H139	H	1.043324	-0.943716	0.469225
C140	C	1.195633	-0.178182	0.885362
C141	C	1.239874	-0.218624	0.838230
H142	H	1.229724	-0.150848	0.913181
H143	H	1.165735	-0.202145	0.921495
H144	H	1.161444	-0.154119	0.853370
H145	H	1.274059	-0.242691	0.870224
H146	H	1.269786	-0.194659	0.802093
C147	C	0.894389	-0.352396	0.533825
C148	C	0.847208	-0.387854	0.483344
H149	H	0.922206	-0.379750	0.567824
H150	H	0.862437	-0.325008	0.563915
H151	H	0.930532	-0.328392	0.503970
H152	H	0.811061	-0.411855	0.513199
H153	H	0.879163	-0.415254	0.453252
H154	H	0.582674	-0.376386	0.469094
H155	H	1.225588	-0.230084	0.930675
