data_functionalizedCrystal
_audit_creation_method	'MofGen! by Chris Wilmer'
_symmetry_space_group_name_H-M	'P1'
_symmetry_Int_Tables_number	1
_symmetry_cell_setting	triclinic
loop_
_symmetry_equiv_pos_as_xyz
  x,y,z
_cell_length_a	10.654544
_cell_length_b	10.654555
_cell_length_c	7.681481
_cell_angle_alpha	84.204489
_cell_angle_beta	95.778169
_cell_angle_gamma	84.487203
loop_
_atom_site_label
_atom_site_type_symbol
_atom_site_fract_x
_atom_site_fract_y
_atom_site_fract_z
O1	O	1.656076	0.188187	-0.146462
O2	O	1.290598	0.204992	-0.146455
O3	O	1.481733	0.013851	-0.146458
O4	O	1.464942	0.379328	-0.146459
O5	O	1.505258	-0.009729	0.146399
O6	O	1.314123	0.181412	0.146402
O7	O	1.679601	0.164607	0.146395
Zn8	Zn	1.500597	0.169266	0.192896
Zn9	Zn	1.469602	0.200333	-0.192956
O10	O	1.488467	0.355748	0.146399
C11	C	1.492259	-0.044736	-0.000033
C12	C	1.488561	-0.184178	-0.000044
C13	C	1.255563	0.191968	-0.000025
C14	C	1.116120	0.188276	-0.000023
C15	C	1.507270	-0.471918	0.319251
C16	C	1.521825	-0.419257	0.478890
C17	C	1.525293	-0.288238	0.478891
C18	C	1.514202	-0.209875	0.319234
C19	C	1.499647	-0.262536	0.159595
C20	C	1.496184	-0.393560	0.159612
C21	C	1.474006	-0.236839	-0.159683
C22	C	1.470546	-0.367859	-0.159687
C23	C	1.462914	-0.158476	-0.319340
C24	C	1.448368	-0.211138	-0.478983
C25	C	1.444901	-0.342165	-0.478976
C26	C	1.455991	-0.420520	-0.319327
C27	C	1.141742	0.162583	0.319259
C28	C	1.089043	0.148006	0.478894
C29	C	0.958024	0.144536	0.478887
C30	C	0.879700	0.155640	0.319226
C31	C	0.932399	0.170217	0.159591
C32	C	1.063422	0.173690	0.159616
C33	C	0.906777	0.195901	-0.159687
C34	C	1.037795	0.199381	-0.159683
C35	C	0.828453	0.207005	-0.319348
C36	C	0.881151	0.221592	-0.478987
C37	C	1.012178	0.225063	-0.478972
C38	C	1.090494	0.213958	-0.319319
C39	C	1.714636	0.177631	-0.000038
C40	C	1.854078	0.181324	-0.000052
C41	C	1.477940	0.414336	-0.000030
C42	C	1.481637	0.553779	-0.000031
N43	N	1.521760	0.148062	0.456230
N44	N	1.448449	0.221527	-0.456290
H45	H	1.530852	-0.483074	0.608879
H46	H	1.465733	-0.051794	-0.319328
H47	H	0.915117	0.132676	0.608876
H48	H	1.439330	-0.147324	-0.608962
H49	H	1.433039	-0.385031	-0.608975
N50	N	0.738390	0.151872	0.319212
H51	H	0.716891	0.140944	0.444565
H52	H	0.692380	0.233804	0.256442
N53	N	0.687142	0.203252	-0.319350
H54	H	0.651110	0.275093	-0.256690
H55	H	0.645623	0.212455	-0.444754
H56	H	0.817371	0.230624	-0.608969
N57	N	1.069017	0.240771	-0.651153
H58	H	0.999515	0.247274	-0.752286
H59	H	1.113316	0.320491	-0.658127
H60	H	1.197178	0.216791	-0.319292
H61	H	1.373614	0.296513	0.468515
N62	N	1.620911	0.048742	0.555831
H63	H	1.578465	-0.013351	0.632342
H64	H	1.667558	0.002061	0.469467
N65	N	1.503569	-0.613234	0.319244
H66	H	1.419994	-0.630275	0.256562
H67	H	1.575485	-0.649120	0.256594
N68	N	1.540982	-0.231428	0.651066
H69	H	1.547479	-0.300945	0.752208
H70	H	1.620698	-0.187127	0.658015
H71	H	1.517012	-0.103192	0.319249
H72	H	1.248424	0.165425	0.319282
N73	N	1.452266	-0.561834	-0.319323
H74	H	1.378751	-0.588947	-0.256644
H75	H	1.441410	-0.583202	-0.444724
H76	H	1.152830	0.138962	0.608887
