data_functionalizedCrystal
_audit_creation_method	'MofGen! by Chris Wilmer'
_symmetry_space_group_name_H-M	'P1'
_symmetry_Int_Tables_number	1
_symmetry_cell_setting	triclinic
loop_
_symmetry_equiv_pos_as_xyz
  x,y,z
_cell_length_a	10.489716
_cell_length_b	10.908878
_cell_length_c	9.482900
_cell_angle_alpha	83.038437
_cell_angle_beta	80.572707
_cell_angle_gamma	107.693037
loop_
_atom_site_label
_atom_site_type_symbol
_atom_site_fract_x
_atom_site_fract_y
_atom_site_fract_z
O1	O	0.220784	1.721840	-0.120857
O2	O	0.121375	1.348889	-0.120870
O3	O	0.358557	1.543864	-0.120846
O4	O	-0.016398	1.526864	-0.120881
O5	O	0.310221	1.504262	0.120942
O6	O	0.073039	1.309286	0.120918
O7	O	0.172448	1.682238	0.120931
Cu8	Cu	0.118330	1.492146	0.143001
Cu9	Cu	0.175493	1.538980	-0.142940
O10	O	-0.064734	1.487262	0.120907
C11	C	0.087917	1.281331	0.000022
C12	C	0.060250	1.139033	0.000018
C13	C	0.161202	1.089098	0.000026
C14	C	0.132610	0.942025	0.000022
C15	C	-0.087815	1.508342	0.000009
C16	C	-0.228597	1.512166	-0.000004
C17	C	-0.352730	1.392596	0.000012
C18	C	-0.392296	1.475303	-0.119188
C19	C	-0.439881	1.436285	0.119196
C20	C	-0.266289	1.594839	-0.119303
C21	C	-0.313894	1.555786	0.119188
C22	C	-0.353386	1.638585	-0.000041
C23	C	0.381639	1.522785	0.000049
C24	C	0.522423	1.518962	0.000053
C25	C	0.205907	1.749796	0.000035
C26	C	0.233576	1.892096	0.000030
N27	N	0.078127	1.459214	0.344118
N28	N	0.215708	1.571922	-0.344057
C29	C	0.163640	1.529258	0.416325
C30	C	0.130183	1.501868	0.583739
H31	H	0.025007	0.875899	0.000005
N32	N	0.376116	0.979674	0.000031
H33	H	0.376342	1.072325	0.000030
H34	H	0.405756	0.947899	0.089669
H35	H	-0.047345	1.072902	0.000001
H36	H	0.032199	1.421613	0.645854
H37	H	0.261625	1.609499	0.354207
H38	H	0.313699	1.652167	0.593829
H39	H	-0.426820	1.441337	-0.219973
N40	N	0.303733	1.176682	0.000034
H41	H	0.303955	1.269331	0.000036
H42	H	0.333368	1.144905	0.089674
N43	N	-0.350444	1.254877	-0.000165
H44	H	-0.378795	1.224626	-0.090310
H45	H	-0.254844	1.253218	0.000790
N46	N	-0.051664	1.352917	0.426384
H47	H	-0.051263	1.266057	0.399989
H48	H	-0.057090	1.348532	0.534291
H49	H	-0.514657	1.369279	0.219982
N50	N	-0.167457	1.683551	-0.252958
H51	H	-0.072346	1.680362	-0.252177
H52	H	-0.196655	1.653436	-0.342815
N53	N	-0.355233	1.776460	-0.000095
H54	H	-0.290725	1.836213	-0.090180
H55	H	-0.451120	1.778077	0.000832
N56	N	-0.268135	1.600727	0.252687
H57	H	-0.332495	1.540711	0.342698
H58	H	-0.172322	1.598602	0.251034
