data_functionalizedCrystal
_audit_creation_method	'MofGen! by Chris Wilmer'
_symmetry_space_group_name_H-M	'P1'
_symmetry_Int_Tables_number	1
_symmetry_cell_setting	triclinic
loop_
_symmetry_equiv_pos_as_xyz
  x,y,z
_cell_length_a	16.992694
_cell_length_b	27.732048
_cell_length_c	15.455313
_cell_angle_alpha	92.637842
_cell_angle_beta	87.142206
_cell_angle_gamma	86.655439
loop_
_atom_site_label
_atom_site_type_symbol
_atom_site_fract_x
_atom_site_fract_y
_atom_site_fract_z
O1	O	1.042606	0.100467	-0.072038
O2	O	0.814336	0.099342	-0.072063
O3	O	0.935560	0.029815	-0.072033
O4	O	0.921382	0.169994	-0.072068
O5	O	0.928628	0.033773	0.072227
O6	O	0.807404	0.103301	0.072197
O7	O	1.035674	0.104425	0.072223
Cu8	Cu	0.920906	0.104225	0.085382
Cu9	Cu	0.929104	0.099543	-0.085222
O10	O	0.914450	0.173953	0.072193
C11	C	0.781675	0.099876	0.000064
C12	C	0.694684	0.095561	0.000055
C13	C	0.643939	0.137184	0.000046
C14	C	0.562201	0.133129	0.000059
C15	C	0.531209	0.087449	0.000075
C16	C	0.581960	0.045823	0.000087
C17	C	0.663696	0.049880	0.000080
C18	C	0.287814	0.070637	0.000102
C19	C	0.206071	0.066583	0.000106
C20	C	0.186318	0.153889	0.000080
C21	C	0.268057	0.157941	0.000068
C22	C	0.318800	0.116315	0.000084
N23	N	0.447660	0.083302	0.000086
N24	N	0.402347	0.120463	0.000080
C25	C	0.931796	0.013774	0.000100
C26	C	0.930900	-0.039919	0.000107
C27	C	0.996895	-0.375882	0.000069
C28	C	0.993571	-0.577686	0.000057
O29	O	1.053919	-0.606333	0.000026
N30	N	0.921689	-0.599917	0.000050
C31	C	0.850634	-0.571695	0.000040
O32	O	0.789419	-0.595235	0.000025
C33	C	0.853960	-0.369892	0.000046
C34	C	0.925846	-0.347663	0.000062
C35	C	1.068775	-0.353652	0.000084
C36	C	1.069605	-0.303204	0.000092
C37	C	0.998556	-0.274986	0.000085
C38	C	0.926676	-0.297215	0.000070
C39	C	0.782906	-0.341671	0.000030
C40	C	0.783744	-0.291218	0.000030
C41	C	0.855630	-0.268989	0.000046
C42	C	0.856457	-0.218549	0.000071
N43	N	0.928338	-0.196317	0.000078
C44	C	0.999387	-0.224535	0.000085
C45	C	0.848893	-0.677644	0.000038
C46	C	0.848061	-0.728095	0.000038
C47	C	0.990998	-0.734082	0.000054
C48	C	0.991829	-0.683630	0.000060
C49	C	0.920775	-0.655413	0.000046
C50	C	1.001126	-0.118591	0.000102
C51	C	1.001949	-0.068138	0.000114
C52	C	0.859013	-0.062155	0.000094
C53	C	0.858189	-0.112603	0.000087
C54	C	0.929251	-0.140820	0.000088
O55	O	0.796141	-0.189872	0.000092
O56	O	1.060595	-0.200987	0.000081
C57	C	0.996065	-0.426330	0.000062
C58	C	0.924185	-0.448559	0.000047
C59	C	0.853136	-0.420341	0.000039
C60	C	0.923354	-0.499010	0.000047
C61	C	0.994403	-0.527228	0.000054
C62	C	1.066285	-0.504997	0.000061
C63	C	1.067115	-0.454549	0.000069
C64	C	0.781254	-0.442573	0.000032
C65	C	0.780430	-0.493021	0.000025
C66	C	0.851480	-0.521240	0.000033
C67	C	1.068335	0.103892	0.000094
C68	C	1.155327	0.108206	0.000097
C69	C	0.918214	0.189993	0.000058
C70	C	0.919111	0.243687	0.000046
N71	N	0.915146	0.107517	0.205376
N72	N	0.934870	0.096247	-0.205217
C73	C	0.966664	0.077992	0.250783
C74	C	0.962315	0.080486	0.341590
C75	C	0.906451	0.112509	0.386988
C76	C	0.854928	0.142036	0.341575
C77	C	0.859274	0.139538	0.250770
C78	C	0.887693	0.123276	0.658565
C79	C	0.883353	0.125773	0.749377
C80	C	0.990739	0.064222	0.749385
C81	C	0.995083	0.061730	0.658578
C82	C	0.943557	0.091254	0.613173
N83	N	0.902006	0.115061	0.479807
N84	N	0.947999	0.088700	0.520356
H85	H	0.293284	0.195138	0.000044
N86	N	1.014932	0.050309	0.387949
N87	N	1.014874	0.005334	0.377794
H88	H	1.052036	-0.015986	0.410526
H89	H	0.144995	0.187778	0.000068
H90	H	0.556720	0.008630	0.000113
H91	H	0.520888	0.167023	0.000050
N92	N	0.774631	-0.750798	0.000051
N93	N	0.723952	-0.741491	0.060857
H94	H	0.672089	-0.757524	0.060864
N95	N	1.140546	-0.431847	0.000062
N96	N	1.159885	-0.406029	-0.060747
H97	H	1.211749	-0.389999	-0.060755
N98	N	1.138853	-0.533833	0.000077
N99	N	1.138090	-0.578877	0.000074
H100	H	1.189338	-0.599246	0.000083
N101	N	0.715521	0.007358	0.000100
N102	N	0.687843	-0.033425	0.000119
H103	H	0.724443	-0.063457	0.000138
H104	H	0.721887	-0.511115	0.000020
H105	H	1.040572	0.035654	0.621617
N106	N	0.826269	0.158478	0.795743
N107	N	0.754327	0.154703	0.785618
H108	H	0.714012	0.177799	0.818366
N109	N	0.675606	0.183842	0.000021
N110	N	0.721925	0.194177	-0.060794
H111	H	0.744289	0.227130	-0.060809
H112	H	1.050364	-0.665535	0.000072
H113	H	0.725882	-0.268245	0.000017
N114	N	0.708668	-0.413759	0.000022
N115	N	0.644499	-0.433621	0.000015
H116	H	0.593229	-0.413273	0.000012
H117	H	1.060489	-0.050041	0.000129
H118	H	1.012157	0.051917	0.213826
H119	H	1.126636	-0.376623	0.000087
N120	N	0.709482	-0.364376	0.000015
N121	N	0.690132	-0.390196	0.060816
H122	H	0.638271	-0.406231	0.060804
H123	H	1.032688	0.040184	0.786363
H124	H	0.845740	0.147317	0.621603
N125	N	0.174426	0.019916	0.000121
N126	N	0.219740	-0.017246	0.000136
H127	H	0.197391	-0.050203	0.000145
H128	H	0.801166	-0.039170	0.000091
H129	H	0.809439	0.168108	0.378544
H130	H	0.817322	0.163580	0.213800
H131	H	0.329120	0.036742	0.000117
H132	H	1.058992	-0.141559	0.000100
N133	N	1.143036	-0.280503	0.000115
N134	N	1.187874	-0.286484	0.060928
H135	H	1.239739	-0.270454	0.060943
N136	N	1.063583	-0.762903	0.000064
N137	N	1.108615	-0.757614	0.060873
H138	H	1.159876	-0.777971	0.060876
N139	N	0.784753	-0.135305	0.000097
N140	N	0.721321	-0.110101	0.000104
H141	H	0.669455	-0.126130	0.000109
H142	H	0.791029	-0.654674	0.000027
