data_functionalizedCrystal
_audit_creation_method	'MofGen! by Chris Wilmer'
_symmetry_space_group_name_H-M	'P1'
_symmetry_Int_Tables_number	1
_symmetry_cell_setting	triclinic
loop_
_symmetry_equiv_pos_as_xyz
  x,y,z
_cell_length_a	17.019372
_cell_length_b	17.038272
_cell_length_c	10.065908
_cell_angle_alpha	99.427142
_cell_angle_beta	85.081878
_cell_angle_gamma	87.242864
loop_
_atom_site_label
_atom_site_type_symbol
_atom_site_fract_x
_atom_site_fract_y
_atom_site_fract_z
O1	O	1.052392	0.100595	0.010082
O2	O	0.826104	0.110608	-0.016492
O3	O	0.937902	-0.008227	-0.003352
O4	O	0.940594	0.219431	-0.003058
O5	O	0.916588	0.014526	0.221131
O6	O	0.804790	0.133362	0.207991
O7	O	1.031078	0.123349	0.234566
Zn8	Zn	0.914550	0.131968	0.256920
Zn9	Zn	0.942632	0.101989	-0.038847
O10	O	0.919280	0.242184	0.221426
C11	C	0.786350	0.121158	0.092333
C12	C	0.699651	0.118684	0.082151
C13	C	0.209888	0.104033	0.018337
C14	C	0.291350	0.106359	0.027922
C15	C	0.320454	0.119931	0.155082
C16	C	0.268092	0.131170	0.272664
C17	C	0.186632	0.128837	0.263078
C18	C	0.565829	0.127589	0.190147
C19	C	0.647295	0.129923	0.199725
C20	C	0.670547	0.105111	-0.045019
C21	C	0.589084	0.102785	-0.054593
C22	C	0.536730	0.114019	0.062989
C23	C	0.403721	0.122313	0.164882
C24	C	0.453465	0.111632	0.053187
C25	C	0.924799	-0.026006	0.108602
C26	C	0.917500	-0.112879	0.107745
C27	C	0.984512	-0.162255	0.115616
C28	C	0.977651	-0.243883	0.114797
C29	C	0.903775	-0.276131	0.106117
C30	C	0.836758	-0.226749	0.098241
C31	C	0.843622	-0.145124	0.099050
C32	C	0.879530	-0.522158	0.103251
C33	C	0.872671	-0.603789	0.102446
C34	C	1.013564	-0.620917	0.119000
C35	C	1.020420	-0.539289	0.119816
C36	C	0.953404	-0.489915	0.111933
C37	C	0.896759	-0.359567	0.105284
C38	C	0.960421	-0.406482	0.112757
C39	C	1.070832	0.112799	0.125738
C40	C	1.157532	0.115272	0.135911
C41	C	0.932384	0.259963	0.109469
C42	C	0.939683	0.346835	0.110317
N43	N	0.895391	0.152427	0.458774
C44	C	0.935958	0.109106	0.531321
C45	C	0.921219	0.124858	0.686756
N46	N	0.961791	0.081530	0.759300
H47	H	0.565395	0.091732	-0.158140
O48	O	0.342250	0.095311	-0.086246
C49	C	0.452099	0.015933	-0.216901
C50	C	0.394491	0.028343	-0.087564
H51	H	0.494360	-0.038200	-0.217996
H52	H	0.417351	0.005783	-0.309485
H53	H	0.487268	0.071074	-0.218929
H54	H	0.359307	-0.026775	-0.085405
H55	H	0.429284	0.038529	0.004961
O56	O	1.032207	-0.375234	0.121371
C57	C	1.143658	-0.353062	0.252108
C58	C	1.062377	-0.388510	0.242503
H59	H	1.168067	-0.363768	0.350050
H60	H	1.186018	-0.382867	0.162158
H61	H	1.137034	-0.286250	0.251263
H62	H	1.068925	-0.455319	0.243388
H63	H	1.020047	-0.358643	0.332449
O64	O	1.078661	-0.668824	0.126884
C65	C	1.185974	-0.696629	0.257025
C66	C	1.112253	-0.642324	0.248291
H67	H	1.213164	-0.675214	0.355162
H68	H	1.168421	-0.760515	0.255046
H69	H	1.230949	-0.694329	0.167268
H70	H	1.067246	-0.644556	0.338029
H71	H	1.129867	-0.578463	0.250207
H72	H	0.776608	-0.253013	0.091165
H73	H	0.789053	-0.104922	0.092640
O74	O	0.514962	0.138357	0.304331
C75	C	0.413833	0.082482	0.436051
C76	C	0.471416	0.070180	0.306691
H77	H	0.378599	0.027377	0.437988
H78	H	0.448601	0.092536	0.528619
H79	H	0.371629	0.136675	0.437269
H80	H	0.513633	0.015983	0.305341
H81	H	0.436597	0.060172	0.214182
H82	H	0.849746	0.201176	0.511735
O83	O	1.016056	0.023188	0.696104
C84	C	1.040022	-0.099816	0.537947
C85	C	0.978554	-0.033706	0.609312
H86	H	1.009722	-0.145840	0.467781
H87	H	1.087680	-0.072661	0.476394
H88	H	1.068167	-0.129916	0.616922
H89	H	0.950349	-0.003581	0.530428
H90	H	0.930944	-0.060906	0.670892
O91	O	0.296464	0.144243	0.396112
C92	C	0.379250	0.093615	0.549526
C93	C	0.347196	0.078714	0.409666
H94	H	0.420261	0.040639	0.560541
H95	H	0.413345	0.149938	0.559734
H96	H	0.327821	0.101283	0.631890
H97	H	0.398578	0.071010	0.327219
H98	H	0.313078	0.022408	0.399575
H99	H	0.981597	0.060351	0.478361
H100	H	0.186198	0.092986	-0.085210
O101	O	0.866708	0.183029	0.749703
C102	C	0.770162	0.286207	0.723629
C103	C	0.831857	0.220345	0.652166
H104	H	0.741979	0.316407	0.644804
H105	H	0.722567	0.258809	0.784915
H106	H	0.800313	0.332205	0.794094
H107	H	0.801776	0.174325	0.581635
H108	H	0.879447	0.247800	0.590966
O109	O	0.721293	0.094214	-0.159366
C110	C	0.735761	0.069309	-0.403128
C111	C	0.678203	0.081658	-0.273733
H112	H	0.700946	0.059138	-0.495626
H113	H	0.770953	0.124427	-0.405279
H114	H	0.778006	0.015159	-0.404262
H115	H	0.635908	0.135779	-0.272513
H116	H	0.643068	0.026500	-0.271633
O117	O	0.675439	0.143074	0.323362
C118	C	0.643783	0.167469	0.565103
C119	C	0.611804	0.152566	0.425182
H120	H	0.592349	0.175164	0.647462
H121	H	0.684825	0.114533	0.576204
H122	H	0.677854	0.223806	0.575222
H123	H	0.577697	0.096256	0.414967
H124	H	0.570804	0.205545	0.414143
H125	H	0.144004	0.137998	0.358819
H126	H	0.427427	0.133365	0.268416
O127	O	0.425149	0.098592	-0.070301
C128	C	0.342275	0.149190	-0.223621
C129	C	0.374308	0.164063	-0.083742
H130	H	0.301151	0.202106	-0.234522
H131	H	0.393650	0.141604	-0.306078
H132	H	0.308265	0.092813	-0.233781
H133	H	0.408307	0.220444	-0.073450
H134	H	0.322900	0.171601	-0.001354
H135	H	1.044668	-0.136004	0.122693
H136	H	0.836609	-0.385833	0.098219
H137	H	1.080577	-0.513039	0.126885
O138	O	1.042822	-0.291781	0.122277
C139	C	1.172173	-0.343206	0.019847
C140	C	1.098417	-0.288921	0.011230
H141	H	1.217134	-0.340924	-0.069936
H142	H	1.199395	-0.321858	0.117981
H143	H	1.154561	-0.407074	0.017836
H144	H	1.115964	-0.225038	0.013186
H145	H	1.071212	-0.310335	-0.086892
H146	H	0.812508	-0.630040	0.095399
H147	H	0.824960	-0.481967	0.096832
