data_functionalizedCrystal
_audit_creation_method	'MofGen! by Chris Wilmer'
_symmetry_space_group_name_H-M	'P1'
_symmetry_Int_Tables_number	1
_symmetry_cell_setting	triclinic
loop_
_symmetry_equiv_pos_as_xyz
  x,y,z
_cell_length_a	8.597340
_cell_length_b	14.853567
_cell_length_c	7.681481
_cell_angle_alpha	95.746442
_cell_angle_beta	76.525094
_cell_angle_gamma	84.488815
loop_
_atom_site_label
_atom_site_type_symbol
_atom_site_fract_x
_atom_site_fract_y
_atom_site_fract_z
O1	O	2.100124	0.124675	-0.172214
O2	O	1.636095	0.139040	-0.101810
O3	O	1.880504	0.000619	-0.138887
O4	O	1.855715	0.263096	-0.135137
O5	O	1.910586	-0.016457	-0.436308
O6	O	1.666178	0.121964	-0.399231
O7	O	2.130207	0.107600	-0.469635
Zn8	Zn	1.902968	0.112071	-0.481655
Zn9	Zn	1.863333	0.134569	-0.089790
O10	O	1.885798	0.246020	-0.432558
C11	C	1.591751	0.129911	-0.241511
C12	C	1.414803	0.128138	-0.214663
C13	C	1.894421	-0.041506	-0.287422
C14	C	1.891054	-0.141587	-0.286896
C15	C	1.731644	-0.554005	-0.262743
C16	C	2.022008	-0.575500	-0.306798
C17	C	2.025172	-0.481468	-0.307268
C18	C	1.881570	-0.423700	-0.285477
C19	C	1.734804	-0.459964	-0.263218
C20	C	2.171937	-0.445198	-0.329545
C21	C	2.175107	-0.351161	-0.330017
C22	C	2.031502	-0.293390	-0.308214
C23	C	1.884730	-0.329659	-0.285952
C24	C	1.741128	-0.271891	-0.264162
C25	C	1.594353	-0.308158	-0.241886
C26	C	1.591199	-0.402193	-0.241415
C27	C	2.034656	-0.199355	-0.308686
C28	C	1.744288	-0.177851	-0.264636
C29	C	2.174550	0.116729	-0.329930
C30	C	2.351497	0.118503	-0.356766
C31	C	1.871880	0.288146	-0.284019
C32	C	1.875246	0.388227	-0.284533
N33	N	1.930030	0.096716	-0.749095
N34	N	1.836284	0.149917	0.177648
H35	H	1.333622	0.135031	-0.072447
C36	C	1.588207	-0.115289	-0.241039
C37	C	1.459010	-0.167182	-0.221473
C38	C	1.315208	-0.109583	-0.199754
H39	H	1.572693	-0.072185	-0.136588
H40	H	1.593807	-0.084128	-0.344056
H41	H	1.453409	-0.198327	-0.118465
H42	H	1.474470	-0.210282	-0.325908
H43	H	1.320807	-0.078423	-0.302772
H44	H	1.299710	-0.066482	-0.095305
H45	H	1.227532	-0.144784	-0.186493
C46	C	1.432029	-0.441750	-0.217368
C47	C	1.460008	-0.536470	-0.221677
C48	C	1.313425	-0.572946	-0.199563
H49	H	1.362275	-0.416078	-0.104688
H50	H	1.383379	-0.427926	-0.312155
H51	H	1.508634	-0.550287	-0.126896
H52	H	1.529737	-0.562167	-0.334345
H53	H	1.264776	-0.559122	-0.294350
H54	H	1.243683	-0.547267	-0.086884
H55	H	1.332391	-0.637217	-0.202501
H56	H	2.025743	0.042416	-0.838820
C57	C	1.708635	0.222404	-0.703050
C58	C	1.626223	0.269206	-0.810561
C59	C	1.508635	0.335997	-0.700714
H60	H	1.634642	0.194275	-0.619907
H61	H	1.758779	0.264106	-0.638768
H62	H	1.576080	0.227510	-0.874813
H63	H	1.700173	0.297355	-0.893701
H64	H	1.558779	0.377699	-0.636432
H65	H	1.434653	0.307860	-0.617576
H66	H	1.452714	0.367765	-0.773645
H67	H	1.432670	0.111603	-0.498973
H68	H	1.477434	-0.261111	-0.224157
H69	H	2.138923	-0.622541	-0.324553
H70	H	1.612143	-0.583537	-0.244600
H71	H	2.288851	-0.492240	-0.347302
H72	H	2.294619	-0.321641	-0.348153
H73	H	2.154159	-0.169832	-0.326834
