data_functionalizedCrystal
_audit_creation_method	'MofGen! by Chris Wilmer'
_symmetry_space_group_name_H-M	'P1'
_symmetry_Int_Tables_number	1
_symmetry_cell_setting	triclinic
loop_
_symmetry_equiv_pos_as_xyz
  x,y,z
_cell_length_a	15.944545
_cell_length_b	15.944493
_cell_length_c	14.421503
_cell_angle_alpha	90.010165
_cell_angle_beta	89.995153
_cell_angle_gamma	83.485608
loop_
_atom_site_label
_atom_site_type_symbol
_atom_site_fract_x
_atom_site_fract_y
_atom_site_fract_z
O1	O	1.114510	0.108298	-0.077039
O2	O	1.614510	0.608298	0.422961
O3	O	0.869957	0.121660	-0.077053
O4	O	1.369957	0.621660	0.422947
O5	O	0.998937	-0.007299	-0.077053
O6	O	1.498937	0.492701	0.422947
O7	O	0.985530	0.237258	-0.077039
O8	O	1.485530	0.737258	0.422961
O9	O	0.998916	-0.007280	0.077170
O10	O	1.498916	0.492720	0.577170
O11	O	0.869935	0.121680	0.077171
O12	O	1.369935	0.621680	0.577171
O13	O	1.114489	0.108317	0.077184
O14	O	1.614489	0.608317	0.577184
Cu15	Cu	0.992210	0.115000	0.091259
Cu16	Cu	1.492210	0.615000	0.591259
Cu17	Cu	0.992235	0.114978	-0.091128
Cu18	Cu	1.492235	0.614978	0.408872
O19	O	0.985508	0.237277	0.077185
O20	O	1.485508	0.737277	0.577185
C21	C	0.838652	0.121116	0.000057
C22	C	1.338652	0.621116	0.500057
C23	C	0.745406	0.119456	0.000051
C24	C	1.245406	0.619456	0.500051
C25	C	0.998378	-0.038584	0.000054
C26	C	1.498378	0.461416	0.500054
C27	C	0.996735	-0.131833	0.000042
C28	C	1.496735	0.368167	0.500042
C29	C	0.474791	0.034560	0.000056
C30	C	0.974791	0.534560	0.500056
C31	C	0.525354	0.075499	0.076101
C32	C	1.025354	0.575499	0.576101
C33	C	0.409764	0.113535	0.000067
C34	C	0.909764	0.613535	0.500067
C35	C	0.525355	0.075502	-0.075951
C36	C	1.025355	0.575502	0.424049
C37	C	0.574677	0.116440	0.000057
C38	C	1.074677	0.616440	0.500057
C39	C	0.459098	0.154453	0.076174
C40	C	0.959098	0.654453	0.576174
C41	C	0.459096	0.154444	-0.075946
C42	C	0.959096	0.654444	0.424054
C43	C	0.509626	0.195442	0.000117
C44	C	1.009626	0.695442	0.500117
C45	C	0.314762	0.111860	0.000073
C46	C	0.814762	0.611860	0.500073
C47	C	0.669676	0.118122	0.000058
C48	C	1.169676	0.618122	0.500058
C49	C	1.072656	-0.367594	0.000064
C50	C	1.572656	0.132406	0.500064
C51	C	1.031726	-0.418171	-0.075978
C52	C	1.531726	0.081829	0.424022
C53	C	0.993691	-0.302554	0.000054
C54	C	1.493691	0.197446	0.500054
C55	C	1.031686	-0.418128	0.076074
C56	C	1.531686	0.081872	0.576074
C57	C	0.990757	-0.467463	0.000068
C58	C	1.490757	0.032537	0.500068
C59	C	0.952782	-0.351902	-0.076051
C60	C	1.452782	0.148098	0.423949
C61	C	0.952754	-0.351856	0.076069
C62	C	1.452754	0.148144	0.576069
C63	C	0.911766	-0.402400	0.000009
C64	C	1.411766	0.097600	0.500009
C65	C	0.995384	-0.207554	0.000044
C66	C	1.495384	0.292446	0.500044
C67	C	0.989058	-0.562460	0.000071
C68	C	1.489058	-0.062460	0.500071
C69	C	1.145793	0.108862	0.000072
C70	C	1.645793	0.608862	0.500072
C71	C	1.239039	0.110522	0.000072
C72	C	1.739039	0.610522	0.500072
C73	C	0.986067	0.268562	0.000075
C74	C	1.486067	0.768562	0.500075
C75	C	0.987710	0.361811	0.000081
C76	C	1.487710	0.861811	0.500081
N77	N	0.992198	0.115016	0.219540
N78	N	1.492198	0.615016	0.719540
N79	N	0.992254	0.114956	-0.219409
N80	N	1.492254	0.614956	0.280591
C81	C	0.932548	0.174620	0.469194
C82	C	1.432548	0.674620	0.969194
C83	C	1.008444	0.190926	0.531003
C84	C	1.508444	0.690926	1.031003
C85	C	0.992219	0.114996	0.408702
C86	C	1.492219	0.614996	0.908702
C87	C	0.916342	0.098709	0.530987
C88	C	1.416342	0.598709	1.030987
C89	C	0.992232	0.114978	0.591423
C90	C	1.492232	0.614978	1.091423
C91	C	1.068154	0.131339	0.469149
C92	C	1.568154	0.631339	0.969149
C93	C	0.976001	0.039090	0.469129
C94	C	1.476001	0.539090	0.969129
C95	C	1.051953	0.055364	0.530909
C96	C	1.551953	0.555364	1.030909
C97	C	0.992210	0.115008	0.303441
C98	C	1.492210	0.615008	0.803441
C99	C	0.992249	0.114965	0.696682
C100	C	1.492249	0.614965	1.196682
H101	H	0.459152	-0.033454	0.000126
H102	H	0.959152	0.466546	0.500126
C103	C	0.530544	0.287394	0.000184
C104	C	1.030544	0.787394	0.500184
N105	N	0.546302	0.356651	0.000240
N106	N	1.046302	0.856651	0.500240
H107	H	0.919462	-0.323090	-0.140407
H108	H	1.419462	0.176910	0.359593
C109	C	0.419986	0.199449	-0.162798
C110	C	0.919986	0.699449	0.337202
N111	N	0.390527	0.233339	-0.228222
N112	N	0.890527	0.733339	0.271778
C113	C	0.564440	0.030416	-0.162801
C114	C	1.064440	0.530416	0.337199
N115	N	0.593875	-0.003548	-0.228214
N116	N	1.093875	0.496452	0.271786
C117	C	0.864450	0.242791	0.432575
C118	C	1.364450	0.742791	0.932575
N119	N	0.813164	0.294140	0.404990
N120	N	1.313164	0.794140	0.904990
H121	H	0.554283	0.042154	0.140387
H122	H	1.054283	0.542154	0.640387
C123	C	0.819806	-0.423296	-0.000052
C124	C	1.319806	0.076704	0.499948
N125	N	0.750543	-0.439036	-0.000101
N126	N	1.250543	0.060964	0.499899
H127	H	0.919426	-0.322886	0.140357
H128	H	1.419426	0.177114	0.640357
C129	C	1.154868	0.150047	0.432611
C130	C	1.654868	0.650047	0.932611
N131	N	1.220178	0.164142	0.405088
N132	N	1.720178	0.664142	0.905088
H133	H	1.140674	-0.351967	-0.000009
H134	H	1.640674	0.148033	0.499991
C135	C	1.026987	0.277633	0.567729
C136	C	1.526987	0.777633	1.067729
N137	N	1.040946	0.342943	0.595390
N138	N	1.540946	0.842943	1.095390
H139	H	1.102476	0.004931	0.557837
H140	H	1.602476	0.504931	1.057837
H141	H	0.430273	0.187790	0.140533
H142	H	0.930273	0.687790	0.640533
H143	H	0.962248	-0.025074	0.441930
H144	H	1.462248	0.474926	0.941930
C145	C	1.076790	-0.457295	-0.162819
C146	C	1.576790	0.042705	0.337181
N147	N	1.110739	-0.486764	-0.228224
N148	N	1.610739	0.013236	0.271776
H149	H	0.852168	0.084942	0.558153
H150	H	1.352168	0.584942	1.058153
H151	H	1.065042	-0.447052	0.140358
H152	H	1.565042	0.052948	0.640358
