data_functionalizedCrystal
_audit_creation_method	'MofGen! by Chris Wilmer'
_symmetry_space_group_name_H-M	'P1'
_symmetry_Int_Tables_number	1
_symmetry_cell_setting	triclinic
loop_
_symmetry_equiv_pos_as_xyz
  x,y,z
_cell_length_a	11.169417
_cell_length_b	13.897448
_cell_length_c	11.169409
_cell_angle_alpha	89.967011
_cell_angle_beta	90.019824
_cell_angle_gamma	89.979553
loop_
_atom_site_label
_atom_site_type_symbol
_atom_site_fract_x
_atom_site_fract_y
_atom_site_fract_z
Zn1	Zn	1.834885	0.383914	0.678537
Zn2	Zn	2.334885	0.883914	1.178537
Zn3	Zn	1.834742	0.545250	0.477852
Zn4	Zn	2.334742	1.045250	0.977852
Zn5	Zn	1.634171	0.383973	0.477872
Zn6	Zn	2.134171	0.883973	0.977872
Zn7	Zn	1.634146	0.545171	0.678497
Zn8	Zn	2.134146	1.045171	1.178497
O9	O	1.734486	0.464577	0.578189
O10	O	2.234486	0.964577	1.078189
O11	O	2.002816	0.405324	0.651925
O12	O	2.502816	0.905324	1.151925
O13	O	1.808087	0.523914	0.309905
O14	O	2.308087	1.023914	0.809905
O15	O	1.660867	0.248984	0.504516
O16	O	2.160867	0.748984	1.004516
O17	O	2.002711	0.523857	0.504482
O18	O	2.502711	1.023857	1.004482
O19	O	1.808330	0.248940	0.651944
O20	O	2.308330	0.748940	1.151944
O21	O	1.660728	0.405424	0.309919
O22	O	2.160728	0.905424	0.809919
O23	O	1.466218	0.405348	0.504476
O24	O	1.966218	0.905348	1.004476
O25	O	1.660824	0.523723	0.846452
O26	O	2.160824	1.023723	1.346452
O27	O	1.466200	0.523780	0.651875
O28	O	1.966200	1.023780	1.151875
O29	O	1.808306	0.405248	0.846482
O30	O	2.308306	0.905248	1.346482
O31	O	1.808063	0.680221	0.504443
O32	O	2.308063	1.180221	1.004443
O33	O	1.660686	0.680163	0.651856
O34	O	2.160686	1.180163	1.151856
C35	C	1.422662	0.464562	0.578174
C36	C	1.922662	0.964562	1.078174
C37	C	1.289262	0.464579	0.578196
C38	C	1.789262	0.964579	1.078196
C39	C	1.734389	0.715191	0.578169
C40	C	2.234389	1.215191	1.078169
C41	C	1.734457	0.822405	0.578200
C42	C	2.234457	1.322405	1.078200
C43	C	1.734575	1.018700	0.578286
C44	C	2.234575	1.518700	1.078286
C45	C	1.734506	0.909468	0.578242
C46	C	2.234506	1.409468	1.078242
C47	C	2.047529	0.464592	0.578206
C48	C	2.547529	0.964592	1.078206
C49	C	2.180929	0.464599	0.578213
C50	C	2.680929	0.964599	1.078213
C51	C	1.734579	0.464470	0.891232
C52	C	2.234579	0.964470	1.391232
C53	C	1.734618	0.464424	1.024632
C54	C	2.234618	0.964424	1.524632
C55	C	1.734607	1.212984	0.578251
C56	C	2.234607	1.712984	1.078251
C57	C	1.734632	1.105770	0.578313
C58	C	2.234632	1.605770	1.078313
C59	C	1.734464	0.464614	0.266365
C60	C	2.234464	0.964614	0.766365
C61	C	1.734657	0.464388	0.132965
C62	C	2.234657	0.964388	0.632965
