data_functionalizedCrystal
_audit_creation_method	'MofGen! by Chris Wilmer'
_symmetry_space_group_name_H-M	'P1'
_symmetry_Int_Tables_number	1
_symmetry_cell_setting	triclinic
loop_
_symmetry_equiv_pos_as_xyz
  x,y,z
_cell_length_a	12.827893
_cell_length_b	16.625545
_cell_length_c	16.625539
_cell_angle_alpha	89.973630
_cell_angle_beta	90.015091
_cell_angle_gamma	89.975993
loop_
_atom_site_label
_atom_site_type_symbol
_atom_site_fract_x
_atom_site_fract_y
_atom_site_fract_z
Zn1	Zn	1.597564	0.321016	0.455867
Zn2	Zn	1.930897	0.654349	0.789201
Zn3	Zn	2.264230	0.987682	1.122534
Zn4	Zn	1.597444	0.455854	0.321035
Zn5	Zn	1.930778	0.789188	0.654368
Zn6	Zn	2.264111	1.122521	0.987702
Zn7	Zn	1.422818	0.321039	0.321053
Zn8	Zn	1.756151	0.654373	0.654386
Zn9	Zn	2.089484	0.987706	0.987719
Zn10	Zn	1.422764	0.455810	0.455829
Zn11	Zn	1.756097	0.789143	0.789163
Zn12	Zn	2.089431	1.122477	1.122496
O13	O	1.510147	0.388430	0.388446
O14	O	1.843481	0.721763	0.721779
O15	O	2.176814	1.055097	1.055113
O16	O	1.743784	0.338911	0.437990
O17	O	2.077117	0.672244	0.771323
O18	O	2.410451	1.005578	1.104657
O19	O	1.574252	0.437999	0.208205
O20	O	1.907585	0.771333	0.541538
O21	O	2.240919	1.104666	0.874871
O22	O	1.446071	0.208204	0.338959
O23	O	1.779404	0.541537	0.672293
O24	O	2.112737	0.874871	1.005626
O25	O	1.743696	0.437976	0.338929
O26	O	2.077029	0.771310	0.672263
O27	O	2.410363	1.104643	1.005596
O28	O	1.574456	0.208186	0.438007
O29	O	1.907789	0.541520	0.771341
O30	O	2.241122	0.874853	1.104674
O31	O	1.445955	0.338951	0.208218
O32	O	1.779288	0.672285	0.541551
O33	O	2.112622	1.005618	0.874884
O34	O	1.276575	0.338908	0.338923
O35	O	1.609908	0.672242	0.672256
O36	O	1.943241	1.005575	1.005589
O37	O	1.445979	0.437901	0.568667
O38	O	1.779312	0.771234	0.902000
O39	O	2.112646	1.104567	1.235333
O40	O	1.276535	0.437924	0.437942
O41	O	1.609868	0.771257	0.771276
O42	O	1.943202	1.104590	1.104609
O43	O	1.574404	0.338868	0.568695
O44	O	1.907737	0.672201	0.902028
O45	O	2.241070	1.005535	1.235362
O46	O	1.574200	0.568681	0.338892
O47	O	1.907533	0.902014	0.672226
O48	O	2.240867	1.235348	1.005559
O49	O	1.445863	0.568648	0.437925
O50	O	1.779196	0.901982	0.771258
O51	O	2.112530	1.235315	1.104592
C52	C	1.238638	0.388414	0.388431
C53	C	1.571971	0.721748	0.721764
C54	C	1.905304	1.055081	1.055097
C55	C	1.122484	0.388427	0.388443
C56	C	1.455818	0.721760	0.721777
C57	C	1.789151	1.055094	1.055110
C58	C	1.070708	0.437500	0.437366
C59	C	1.404041	0.770833	0.770699
C60	C	1.737374	1.104166	1.104033
C61	C	0.950657	0.437514	0.437380
C62	C	1.283991	0.770847	0.770713
C63	C	1.617324	1.104181	1.104047
C64	C	1.510041	0.597921	0.388420
C65	C	1.843374	0.931254	0.721754
C66	C	2.176708	1.264587	1.055087
C67	C	1.510091	0.687542	0.388436
C68	C	1.843425	1.020875	0.721769
C69	C	2.176758	1.354208	1.055103
C70	C	1.510262	1.015717	0.388532
C71	C	1.843595	1.349051	0.721866
C72	C	2.176929	1.682384	1.055199
C73	C	1.510211	0.924409	0.388508
C74	C	1.843544	1.257742	0.721841
C75	C	2.176878	1.591076	1.055175
C76	C	1.510176	0.851633	0.388484
C77	C	1.843509	1.184966	0.721817
C78	C	2.176842	1.518299	1.055151
C79	C	1.510127	0.760318	0.388460
C80	C	1.843460	1.093652	0.721793
C81	C	2.176793	1.426985	1.055127
C82	C	1.782718	0.388446	0.388462
C83	C	2.116051	0.721779	0.721795
C84	C	2.449384	1.055113	1.055129
C85	C	1.898871	0.388453	0.388469
C86	C	2.232204	0.721786	0.721802
C87	C	2.565537	1.055120	1.055135
C88	C	1.510274	1.178121	0.388499
C89	C	1.843607	1.511454	0.721832
C90	C	2.176940	1.844788	1.055166
C91	C	1.510305	1.088500	0.388546
C92	C	1.843638	1.421833	0.721879
C93	C	2.176971	1.755166	1.055213
C94	C	1.510199	0.388377	0.598755
C95	C	1.843532	0.721710	0.932088
C96	C	2.176865	1.055043	1.265422
C97	C	1.510220	0.388354	0.688376
C98	C	1.843554	0.721687	1.021710
C99	C	2.176887	1.055021	1.355043
C100	C	1.510157	0.388425	0.178955
C101	C	1.843490	0.721758	0.512289
C102	C	2.176823	1.055091	0.845622
C103	C	1.510337	0.388220	0.089335
C104	C	1.843671	0.721554	0.422668
C105	C	2.177004	1.054887	0.756001
C106	C	1.510238	0.388336	0.761159
C107	C	1.843571	0.721669	1.094492
C108	C	2.176904	1.055003	1.427825
C109	C	1.510262	0.388306	0.852467
C110	C	1.843595	0.721639	1.185801
C111	C	2.176929	1.054973	1.519134
C112	C	1.510287	0.388278	0.925244
C113	C	1.843620	0.721611	1.258577
C114	C	2.176953	1.054944	1.591910
C115	C	1.510313	0.388249	1.016558
C116	C	1.843646	0.721582	1.349891
C117	C	2.176979	1.054915	1.683225
H118	H	1.077936	0.346422	0.346573
H119	H	1.411269	0.679755	0.679906
H120	H	1.744602	1.013088	1.013239
H121	H	0.943391	0.346441	0.346579
H122	H	1.276724	0.679774	0.679913
H123	H	1.610057	1.013108	1.013246
H124	H	0.906131	0.479529	0.479262
H125	H	1.239464	0.812862	0.812595
H126	H	1.572797	1.146196	1.145929
H127	H	1.115256	0.479499	0.479243
H128	H	1.448590	0.812832	0.812576
H129	H	1.781923	1.146165	1.145909
