data_functionalizedCrystal
_audit_creation_method	'MofGen! by Chris Wilmer'
_symmetry_space_group_name_H-M	'P1'
_symmetry_Int_Tables_number	1
_symmetry_cell_setting	triclinic
loop_
_symmetry_equiv_pos_as_xyz
  x,y,z
_cell_length_a	14.472310
_cell_length_b	14.519709
_cell_length_c	14.519709
_cell_angle_alpha	96.319855
_cell_angle_beta	90.002001
_cell_angle_gamma	89.992582
loop_
_atom_site_label
_atom_site_type_symbol
_atom_site_fract_x
_atom_site_fract_y
_atom_site_fract_z
O1	O	0.076723	-1.223880	0.120885
O2	O	0.576723	-0.723880	0.620885
O3	O	0.076751	-0.955403	0.135121
O4	O	0.576751	-0.455403	0.635121
O5	O	0.076728	-1.096759	-0.006235
O6	O	0.576728	-0.596759	0.493765
O7	O	0.076746	-1.082523	0.262242
O8	O	0.576746	-0.582523	0.762242
O9	O	-0.076954	-1.096723	-0.006227
O10	O	0.423046	-0.596723	0.493773
O11	O	-0.076931	-0.955366	0.135130
O12	O	0.423069	-0.455366	0.635130
O13	O	-0.076959	-1.223843	0.120893
O14	O	0.423041	-0.723843	0.620893
Cu15	Cu	-0.090978	-1.089601	0.128012
Cu16	Cu	0.409022	-0.589601	0.628012
Cu17	Cu	0.090769	-1.089644	0.128002
Cu18	Cu	0.590769	-0.589644	0.628002
O19	O	-0.076936	-1.082486	0.262250
O20	O	0.423064	-0.582486	0.762250
C21	C	-0.000086	-0.921025	0.134462
C22	C	0.499914	-0.421025	0.634462
C23	C	-0.000076	-0.818643	0.132474
C24	C	0.499924	-0.318643	0.632474
N25	N	-0.218808	-1.089578	0.128018
N26	N	0.281192	-0.589578	0.628018
C27	C	-0.000113	-1.096078	-0.040591
C28	C	0.499887	-0.596078	0.459409
C29	C	-0.000114	-1.094089	-0.142972
C30	C	0.499886	-0.594089	0.357028
C31	C	-0.592900	-1.089643	0.127999
C32	C	-0.092900	-0.589643	0.627999
C33	C	-0.553721	-1.013752	0.203381
C34	C	-0.053721	-0.513752	0.703381
C35	C	-0.446633	-1.013927	0.203657
C36	C	0.053367	-0.513927	0.703657
C37	C	-0.407309	-1.089610	0.128009
C38	C	0.092691	-0.589610	0.628009
C39	C	-0.446154	-1.185870	0.149184
C40	C	0.053846	-0.685870	0.649184
C41	C	-0.553276	-1.185444	0.149720
C42	C	-0.053276	-0.685444	0.649720
C43	C	-0.553433	-1.070132	0.031218
C44	C	-0.053433	-0.570132	0.531218
C45	C	-0.446305	-1.067927	0.031859
C46	C	0.053695	-0.567927	0.531859
C47	C	-0.302420	-1.089597	0.128012
C48	C	0.197580	-0.589597	0.628012
C49	C	-0.697788	-1.089662	0.127997
C50	C	-0.197788	-0.589662	0.627997
N51	N	0.218600	-1.089675	0.127989
N52	N	0.718600	-0.589675	0.627989
C53	C	-0.000120	-1.258221	0.121553
C54	C	0.499880	-0.758221	0.621553
C55	C	-0.000124	-1.360602	0.123541
C56	C	0.499876	-0.860602	0.623541
C57	C	-0.000118	-0.443748	0.125154
C58	C	0.499882	0.056252	0.625154
C59	C	-0.000106	-0.548056	0.127187
C60	C	0.499894	-0.048056	0.627187
C61	C	-0.000096	-0.631192	0.128814
C62	C	0.499904	-0.131192	0.628814
C63	C	-0.000086	-0.735507	0.130847
C64	C	0.499914	-0.235507	0.630847
C65	C	-0.000089	-1.086770	-0.517868
C66	C	0.499911	-0.586770	-0.017868
C67	C	-0.000096	-1.088803	-0.413560
C68	C	0.499904	-0.588803	0.086440
C69	C	-0.000102	-1.090430	-0.330423
C70	C	0.499898	-0.590430	0.169577
C71	C	-0.000108	-1.092463	-0.226109
C72	C	0.499892	-0.592463	0.273891
C73	C	-0.000093	-1.083168	0.296606
C74	C	0.499907	-0.583168	0.796606
C75	C	-0.000087	-1.085156	0.398987
C76	C	0.499913	-0.585156	0.898987
H77	H	-0.420371	-0.942380	0.191017
H78	H	0.079629	-0.442380	0.691017
N79	N	-0.412666	-1.030464	0.298780
N80	N	0.087334	-0.530464	0.798780
H81	H	-0.342881	-1.030647	0.299356
H82	H	0.157119	-0.530647	0.799356
H83	H	-0.436185	-0.979570	0.345978
H84	H	0.063815	-0.479570	0.845978
H85	H	-0.578249	-1.202613	0.220307
H86	H	-0.078249	-0.702613	0.720307
H87	H	-0.579502	-0.941973	0.190947
H88	H	-0.079502	-0.441973	0.690947
N89	N	-0.587636	-1.262499	0.079782
N90	N	-0.087636	-0.762499	0.579782
H91	H	-0.626434	-1.235483	0.031545
H92	H	-0.126434	-0.735483	0.531545
H93	H	-0.533150	-1.296582	0.048795
H94	H	-0.033150	-0.796582	0.548795
H95	H	-0.419540	-1.119600	-0.026878
H96	H	0.080460	-0.619600	0.473122
N97	N	-0.412423	-1.262479	0.078402
N98	N	0.087577	-0.762479	0.578402
H99	H	-0.371536	-1.235457	0.031818
H100	H	0.128464	-0.735457	0.531818
H101	H	-0.376089	-1.308959	0.110608
H102	H	0.123911	-0.808959	0.610608
N103	N	-0.589313	-1.030072	0.297985
N104	N	-0.089313	-0.530072	0.797985
H105	H	-0.630710	-1.086408	0.292224
H106	H	-0.130710	-0.586408	0.792224
H107	H	-0.535436	-1.040539	0.339804
H108	H	-0.035436	-0.540539	0.839804
H109	H	-0.578768	-1.125475	-0.024881
H110	H	-0.078768	-0.625475	0.475119
H111	H	-0.419314	-1.203446	0.218967
H112	H	0.080686	-0.703446	0.718967
N113	N	-0.589250	-0.979146	0.004312
N114	N	-0.089250	-0.479146	0.504312
H115	H	-0.569763	-0.927176	0.052377
H116	H	-0.069763	-0.427176	0.552377
H117	H	-0.563059	-0.968081	-0.057997
H118	H	-0.063059	-0.468081	0.442003
N119	N	-0.412742	-0.974098	0.010603
N120	N	0.087258	-0.474098	0.510603
H121	H	-0.372435	-0.945752	0.063025
H122	H	0.127565	-0.445752	0.563025
H123	H	-0.375848	-0.981351	-0.048795
H124	H	0.124152	-0.481351	0.451205
