data_functionalizedCrystal
_audit_creation_method	'MofGen! by Chris Wilmer'
_symmetry_space_group_name_H-M	'P1'
_symmetry_Int_Tables_number	1
_symmetry_cell_setting	triclinic
loop_
_symmetry_equiv_pos_as_xyz
  x,y,z
_cell_length_a	6.817900
_cell_length_b	9.514072
_cell_length_c	16.015572
_cell_angle_alpha	75.276350
_cell_angle_beta	104.485554
_cell_angle_gamma	118.843421
loop_
_atom_site_label
_atom_site_type_symbol
_atom_site_fract_x
_atom_site_fract_y
_atom_site_fract_z
V1	V	-4.016234	-0.064663	-0.269590
O2	O	-3.917026	0.164814	-0.263763
O3	O	-4.051421	-0.283739	-0.268415
O4	O	-3.925102	0.007287	-0.386862
O5	O	-4.044219	-0.128226	-0.144495
V6	V	-4.494568	-0.045598	-0.254546
O7	O	-4.288875	-0.106482	-0.302589
O8	O	-4.672125	-0.003779	-0.221547
O9	O	-4.236175	0.173478	-0.255721
O10	O	-4.711172	-0.275075	-0.260374
O11	O	-4.583980	0.017965	-0.379641
O12	O	-4.362493	-0.117547	-0.137274
C13	C	-3.918138	-0.339362	-0.264335
C14	C	-4.027909	-0.518003	-0.264155
C15	C	-3.757005	0.031871	-0.415425
C16	C	-3.764332	0.089248	-0.511300
C17	C	-4.247275	-0.420026	-0.890484
C18	C	-4.254144	-0.366060	-0.980569
C19	C	-4.070629	-0.086858	-0.955012
C20	C	-4.063734	-0.140800	-0.864923
C21	C	-4.152064	-0.307386	-0.832667
C22	C	-3.968522	-0.028160	-0.807105
C23	C	-3.961639	-0.082100	-0.717024
C24	C	-4.049968	-0.248679	-0.684761
C25	C	-4.145181	-0.361326	-0.742586
C26	C	-3.880208	0.138425	-0.839363
C27	C	-3.784996	0.251065	-0.781545
C28	C	-3.778098	0.197127	-0.691462
C29	C	-3.866426	0.030547	-0.659199
C30	C	-3.682885	0.309773	-0.633637
C31	C	-3.676002	0.255834	-0.543556
C32	C	-3.859543	-0.023392	-0.569118
C33	C	-4.032803	0.229091	-0.259799
C34	C	-3.902269	0.407734	-0.259984
C35	C	-4.193936	-0.142140	-0.108707
C36	C	-4.165845	-0.199509	-0.012831
H37	H	-3.931443	-0.159042	-0.542853
O38	O	-3.583720	0.365391	-0.487477
C39	C	-3.599327	0.582298	-0.442211
C40	C	-3.704011	0.458331	-0.505789
H41	H	-3.696566	0.657450	-0.456982
H42	H	-3.414487	0.666035	-0.450240
H43	H	-3.609517	0.515090	-0.372295
H44	H	-3.693985	0.525403	-0.575732
H45	H	-3.888802	0.374598	-0.497684
H46	H	-3.710713	-0.519193	-0.256507
O47	O	-4.256397	-0.605380	-0.268176
C48	C	-4.565945	-0.823731	-0.197890
C49	C	-4.307151	-0.724935	-0.193238
H50	H	-4.607062	-0.920391	-0.137302
H51	H	-4.639540	-0.884805	-0.258697
H52	H	-4.642831	-0.739044	-0.201092
H53	H	-4.230072	-0.809511	-0.190003
H54	H	-4.233720	-0.663841	-0.132440
O55	O	-4.332669	-0.581893	-0.859277
C56	C	-4.513920	-0.853115	-0.894089
C57	C	-4.417733	-0.669876	-0.929560
H58	H	-4.582675	-0.924301	-0.950894
H59	H	-4.656358	-0.890107	-0.855872
H60	H	-4.373767	-0.880585	-0.849227
H61	H	-4.557726	-0.642271	-0.974458
H62	H	-4.275240	-0.632978	-0.967727
O63	O	-4.043696	-0.301175	-0.597272
C64	C	-4.258668	-0.460447	-0.479214
C65	C	-4.266100	-0.401083	-0.578306
H66	H	-4.438457	-0.541261	-0.463850
H67	H	-4.175594	-0.351394	-0.443381
H68	H	-4.156412	-0.532728	-0.457056
H69	H	-4.368386	-0.328831	-0.600543
H70	H	-4.349087	-0.510203	-0.614081
H71	H	-3.998723	0.048778	-0.981288
H72	H	-4.217080	-0.496976	-0.716321
H73	H	-4.331673	-0.457798	-1.027643
O74	O	-3.887287	0.190627	-0.926892
C75	C	-4.122015	0.186349	-1.067362
C76	C	-4.114321	0.127081	-0.968257
H77	H	-4.305558	0.135024	-1.100832
H78	H	-4.023728	0.143253	-1.094156
H79	H	-4.042436	0.324759	-1.080458
H80	H	-4.193931	-0.011324	-0.955084
H81	H	-4.212543	0.170299	-0.941513
O82	O	-3.699205	0.412825	-0.813027
C83	C	-3.628582	0.619670	-0.940475
C84	C	-3.725785	0.436431	-0.904942
H85	H	-3.650080	0.638813	-1.014793
H86	H	-3.440968	0.682138	-0.913139
H87	H	-3.722889	0.673714	-0.919791
H88	H	-3.631653	0.382244	-0.925613
H89	H	-3.913416	0.374079	-0.932274
H90	H	-3.610992	0.445408	-0.659915
