data_functionalizedCrystal
_audit_creation_method	'MofGen! by Chris Wilmer'
_symmetry_space_group_name_H-M	'P1'
_symmetry_Int_Tables_number	1
_symmetry_cell_setting	triclinic
loop_
_symmetry_equiv_pos_as_xyz
  x,y,z
_cell_length_a	10.685972
_cell_length_b	12.759399
_cell_length_c	12.759393
_cell_angle_alpha	90.026805
_cell_angle_beta	94.397957
_cell_angle_gamma	94.379374
loop_
_atom_site_label
_atom_site_type_symbol
_atom_site_fract_x
_atom_site_fract_y
_atom_site_fract_z
Zn1	Zn	-1.929274	0.295177	-0.717420
Zn2	Zn	-1.929145	0.470901	-0.541743
Zn3	Zn	-1.718241	0.308687	-0.528260
Zn4	Zn	-1.718233	0.484274	-0.703893
O5	O	-1.823723	0.389760	-0.622829
O6	O	-2.105842	0.307237	-0.705420
O7	O	-1.901117	0.449440	-0.392930
O8	O	-1.746292	0.159870	-0.553371
O9	O	-2.105748	0.436341	-0.576351
O10	O	-1.901338	0.149945	-0.692346
O11	O	-1.746167	0.330262	-0.383024
O12	O	-1.541655	0.343229	-0.540254
O13	O	-1.746279	0.459132	-0.852712
O14	O	-1.541649	0.472232	-0.669291
O15	O	-1.901330	0.320204	-0.862650
O16	O	-1.901110	0.619700	-0.563234
O17	O	-1.746153	0.629525	-0.682365
C18	C	-1.495865	0.410649	-0.601842
C19	C	-1.355606	0.419610	-0.592889
C20	C	-1.823651	0.662732	-0.622820
C21	C	-1.823735	0.779503	-0.622859
C22	C	-1.152862	0.368783	-0.643893
C23	C	-1.293121	0.359826	-0.652857
C24	C	-1.823818	0.389653	-0.896869
C25	C	-1.823858	0.389607	-1.013648
C26	C	-1.904514	0.829208	-0.560914
C27	C	-1.904597	0.938927	-0.560962
C28	C	-1.743112	0.949226	-0.684903
C29	C	-1.743036	0.839509	-0.684860
C30	C	-1.823835	1.115719	-0.622882
C31	C	-1.823894	0.998939	-0.622951
C32	C	-1.904599	0.317256	-1.073687
C33	C	-1.904620	0.317210	-1.183412
C34	C	-1.743156	0.461875	-1.173050
C35	C	-1.743129	0.461915	-1.063326
C36	C	-1.823702	0.389786	-0.349860
C37	C	-1.823906	0.389520	-0.233097
H38	H	-1.346928	0.301780	-0.711046
O39	O	-1.291363	0.488977	-0.523605
C40	C	-1.215126	0.561703	-0.578496
H41	H	-1.254966	0.565771	-0.663747
H42	H	-1.115291	0.535530	-0.575863
C43	C	-1.163961	0.666007	-0.422142
C44	C	-1.212899	0.671010	-0.526847
H45	H	-1.162581	0.733432	-0.390281
H46	H	-1.215319	0.617008	-0.385159
H47	H	-1.080770	0.644192	-0.419962
H48	H	-1.296093	0.692811	-0.529025
H49	H	-1.161554	0.720015	-0.563829
O50	O	-1.983103	0.987046	-0.500689
C51	C	-2.054332	0.910550	-0.445982
H52	H	-2.002589	0.835676	-0.438971
H53	H	-2.150140	0.892669	-0.490645
C54	C	-2.136167	1.044246	-0.343973
C55	C	-2.072610	0.952288	-0.335354
H56	H	-2.147447	1.069993	-0.275734
H57	H	-2.088182	1.095784	-0.380832
H58	H	-2.216000	1.029333	-0.381196
H59	H	-1.992773	0.967206	-0.298144
H60	H	-2.120581	0.900754	-0.298486
H61	H	-1.677256	0.799037	-0.735308
O62	O	-1.664757	1.007678	-0.745023
C63	C	-1.682162	1.115176	-0.731797
H64	H	-1.723552	1.127559	-0.653400
H65	H	-1.749342	1.141934	-0.798472
C66	C	-1.503679	1.164516	-0.829474
C67	C	-1.554504	1.179727	-0.733181
H68	H	-1.424936	1.204336	-0.830332
H69	H	-1.491954	1.092093	-0.838388
H70	H	-1.559674	1.186814	-0.885026
H71	H	-1.498517	1.157417	-0.677633
H72	H	-1.566216	1.252148	-0.724257
H73	H	-1.970330	0.258376	-1.033242
H74	H	-1.970226	0.780354	-0.510430
O75	O	-1.664865	0.532074	-1.221481
C76	C	-1.682180	0.516510	-1.331199
H77	H	-1.779582	0.475893	-1.352431
H78	H	-1.607362	0.465315	-1.357549
C79	C	-1.550952	0.673417	-1.360699
C80	C	-1.670588	0.623539	-1.386777
H81	H	-1.543796	0.739436	-1.394983
H82	H	-1.539282	0.683901	-1.286779
H83	H	-1.488617	0.630743	-1.382658
H84	H	-1.732919	0.666206	-1.364806
H85	H	-1.682268	0.613064	-1.460694
O86	O	-1.664655	0.532305	-1.005157
C87	C	-1.593393	0.596107	-1.072530
H88	H	-1.645094	0.596428	-1.154058
H89	H	-1.497574	0.563732	-1.078062
C90	C	-1.511650	0.708705	-0.928385
C91	C	-1.575155	0.709106	-1.028517
H92	H	-1.500394	0.778407	-0.901236
H93	H	-1.559656	0.665719	-0.882994
H94	H	-1.431807	0.681721	-0.933009
H95	H	-1.655002	0.736077	-1.023891
H96	H	-1.527162	0.752100	-1.073907
H97	H	-1.970366	0.258293	-1.232291
