data_functionalizedCrystal
_audit_creation_method	'MofGen! by Chris Wilmer'
_symmetry_space_group_name_H-M	'P1'
_symmetry_Int_Tables_number	1
_symmetry_cell_setting	triclinic
loop_
_symmetry_equiv_pos_as_xyz
  x,y,z
_cell_length_a	19.188929
_cell_length_b	16.109301
_cell_length_c	15.186229
_cell_angle_alpha	89.999006
_cell_angle_beta	90.025523
_cell_angle_gamma	96.696816
loop_
_atom_site_label
_atom_site_type_symbol
_atom_site_fract_x
_atom_site_fract_y
_atom_site_fract_z
O1	O	-0.089745	1.102833	-0.073223
O2	O	0.410255	1.602833	0.426777
O3	O	-0.100913	0.860734	-0.073241
O4	O	0.399087	1.360734	0.426759
O5	O	0.006310	0.988770	-0.073177
O6	O	0.506310	1.488770	0.426823
O7	O	-0.196968	0.974797	-0.073287
O8	O	0.303032	1.474797	0.426713
O9	O	0.006312	0.988762	0.073280
O10	O	0.506312	1.488762	0.573280
O11	O	-0.100912	0.860726	0.073216
O12	O	0.399088	1.360726	0.573216
O13	O	-0.089743	1.102825	0.073234
O14	O	0.410257	1.602825	0.573234
Zn15	Zn	-0.095327	0.981774	0.096478
Zn16	Zn	0.404673	1.481774	0.596478
Zn17	Zn	-0.095329	0.981785	-0.096485
Zn18	Zn	0.404671	1.481785	0.403515
O19	O	-0.196967	0.974789	0.073170
O20	O	0.303033	1.474789	0.573170
C21	C	-0.100460	0.829757	-0.000014
C22	C	0.399540	1.329757	0.499986
C23	C	-0.099103	0.737466	-0.000018
C24	C	0.400897	1.237466	0.499982
C25	C	-0.158294	0.428271	-0.000034
C26	C	0.341706	0.928271	0.499966
C27	C	-0.159575	0.514987	-0.000040
C28	C	0.340425	1.014987	0.499960
C29	C	-0.032358	0.535282	0.000017
C30	C	0.467642	1.035282	0.500017
C31	C	-0.031077	0.448568	0.000016
C32	C	0.468923	0.948568	0.500016
C33	C	-0.094048	0.395064	-0.000005
C34	C	0.405952	0.895064	0.499995
C35	C	-0.096609	0.568495	-0.000010
C36	C	0.403391	1.068495	0.499990
C37	C	-0.097997	0.662516	-0.000016
C38	C	0.402003	1.162516	0.499984
C39	C	-0.092659	0.301037	-0.000000
C40	C	0.407341	0.801037	0.500000
C41	C	-0.222980	0.975245	-0.000072
C42	C	0.277020	1.475245	0.499928
C43	C	-0.300487	0.976604	-0.000114
C44	C	0.199513	1.476604	0.499886
C45	C	-0.345236	0.901476	-0.000102
C46	C	0.154764	1.401476	0.499898
C47	C	-0.418062	0.902753	-0.000082
C48	C	0.081938	1.402753	0.499918
C49	C	-0.446138	0.979160	-0.000057
C50	C	0.053862	1.479160	0.499943
C51	C	-0.401379	1.054297	-0.000074
C52	C	0.098621	1.554297	0.499926
C53	C	-0.328554	1.053019	-0.000103
C54	C	0.171446	1.553019	0.499897
N55	N	-0.554242	1.037561	0.049846
N56	N	-0.054242	1.537561	0.549846
N57	N	-0.623423	1.038770	0.049875
N58	N	-0.123423	1.538770	0.549875
C59	C	-0.665555	0.983016	0.000028
C60	C	-0.165555	1.483016	0.500028
N61	N	-0.635893	0.925994	-0.049838
N62	N	-0.135893	1.425994	0.450162
N63	N	-0.566706	0.924783	-0.049863
N64	N	-0.066706	1.424783	0.450137
C65	C	-0.525103	0.980555	-0.000026
C66	C	-0.025103	1.480555	0.499974
C67	C	-0.789271	0.909267	0.000061
C68	C	-0.289271	1.409267	0.500061
C69	C	-0.862099	0.910547	0.000076
C70	C	-0.362099	1.410547	0.500076
C71	C	-0.845414	1.062094	0.000093
C72	C	-0.345414	1.562094	0.500093
C73	C	-0.772588	1.060812	0.000069
C74	C	-0.272588	1.560812	0.500069
C75	C	-0.744521	0.984397	0.000058
C76	C	-0.244521	1.484397	0.500058
C77	C	0.032323	0.988313	0.000063
C78	C	0.532323	1.488313	0.500063
C79	C	0.109831	0.986955	0.000099
C80	C	0.609831	1.486955	0.500099
C81	C	-0.090196	1.133802	0.000005
C82	C	0.409804	1.633802	0.500005
C83	C	-0.091553	1.226093	0.000003
C84	C	0.408447	1.726093	0.500003
N85	N	-0.095325	0.981772	0.228171
N86	N	0.404675	1.481772	0.728171
N87	N	-0.095325	0.981793	-0.228178
N88	N	0.404675	1.481793	0.271822
C89	C	-0.047863	1.038486	0.453922
C90	C	0.452137	1.538486	0.953922
C91	C	-0.047861	1.038488	0.546112
C92	C	0.452139	1.538488	1.046112
C93	C	-0.142790	0.925074	0.546064
C94	C	0.357210	1.425074	1.046064
C95	C	-0.142788	0.925068	0.453876
C96	C	0.357212	1.425068	0.953876
C97	C	-0.095325	0.981778	0.407808
C98	C	0.404675	1.481778	0.907808
C99	C	-0.095326	0.981787	0.592185
C100	C	0.404674	1.481787	1.092185
C101	C	-0.095324	0.981789	0.692141
C102	C	0.404676	1.481789	1.192141
C103	C	-0.095325	0.981775	0.307845
C104	C	0.404675	1.481775	0.807845
H105	H	0.021243	0.421531	0.000038
H106	H	0.521243	0.921531	0.500038
N107	N	0.003344	1.099640	0.404246
N108	N	0.503344	1.599640	0.904246
H109	H	0.034265	1.067974	0.366024
H110	H	0.534265	1.567974	0.866024
H111	H	-0.023381	1.136346	0.366024
H112	H	0.476619	1.636346	0.866024
H113	H	-0.292119	1.114199	-0.000114
H114	H	0.207881	1.614199	0.499886
N115	N	-0.226209	0.370565	-0.000075
N116	N	0.273791	0.870565	0.499925
H117	H	-0.215652	0.310592	-0.000070
H118	H	0.284348	0.810592	0.499930
H119	H	-0.254209	0.381291	0.054204
H120	H	0.245791	0.881291	0.554204
N121	N	-0.431654	1.136710	-0.000038
N122	N	0.068346	1.636710	0.499962
H123	H	-0.461534	1.140624	-0.054313
H124	H	0.038466	1.640624	0.445687
H125	H	-0.461427	1.140560	0.054306
H126	H	0.038573	1.640560	0.554306
H127	H	-0.211890	0.542020	-0.000065
H128	H	0.288110	1.042020	0.499935
H129	H	-0.322389	0.839253	-0.000119
H130	H	0.177611	1.339253	0.499881
N131	N	-0.758992	0.826854	0.000044
N132	N	-0.258992	1.326854	0.500044
H133	H	-0.798394	0.779452	0.000047
H134	H	-0.298394	1.279452	0.500047
H135	H	-0.729168	0.823027	-0.054259
H136	H	-0.229168	1.323027	0.445741
H137	H	-0.898533	0.849366	0.000080
H138	H	-0.398533	1.349366	0.500080
H139	H	-0.009212	1.084663	0.583656
H140	H	0.490788	1.584663	1.083656
H141	H	-0.181434	0.878902	0.583583
H142	H	0.318566	1.378902	1.083583
H143	H	0.018910	0.578855	0.000036
H144	H	0.518910	1.078855	0.500036
N145	N	-0.875680	1.144510	0.000116
N146	N	-0.375680	1.644510	0.500116
H147	H	-0.905554	1.148422	-0.054164
H148	H	-0.405554	1.648422	0.445836
H149	H	-0.905457	1.148368	0.054455
H150	H	-0.405457	1.648368	0.554455
H151	H	-0.454503	0.841573	-0.000070
H152	H	0.045497	1.341573	0.499930
H153	H	-0.181438	0.878886	0.416327
H154	H	0.318562	1.378886	0.916327
H155	H	-0.736153	1.121989	0.000065
H156	H	-0.236153	1.621989	0.500065
