data_functionalizedCrystal
_audit_creation_method	'MofGen! by Chris Wilmer'
_symmetry_space_group_name_H-M	'P1'
_symmetry_Int_Tables_number	1
_symmetry_cell_setting	triclinic
loop_
_symmetry_equiv_pos_as_xyz
  x,y,z
_cell_length_a	29.839134
_cell_length_b	29.839131
_cell_length_c	21.295412
_cell_angle_alpha	89.970612
_cell_angle_beta	89.964443
_cell_angle_gamma	90.034165
loop_
_atom_site_label
_atom_site_type_symbol
_atom_site_fract_x
_atom_site_fract_y
_atom_site_fract_z
Zn1	Zn	0.686769	-0.178951	-0.356119
Zn2	Zn	1.020103	0.154382	-0.022786
Zn3	Zn	1.353436	0.487715	0.310547
Zn4	Zn	0.686687	-0.254079	-0.250847
Zn5	Zn	1.020020	0.079255	0.082486
Zn6	Zn	1.353354	0.412588	0.415820
Zn7	Zn	0.611638	-0.178954	-0.250842
Zn8	Zn	0.944971	0.154379	0.082491
Zn9	Zn	1.278304	0.487713	0.415825
Zn10	Zn	0.611600	-0.254046	-0.356057
Zn11	Zn	0.944933	0.079288	-0.022723
Zn12	Zn	1.278267	0.412621	0.310610
O13	O	0.649173	-0.216507	-0.303466
O14	O	0.982507	0.116826	0.029867
O15	O	1.315840	0.450159	0.363200
O16	O	0.749626	-0.188930	-0.342183
O17	O	1.082959	0.144403	-0.008849
O18	O	1.416292	0.477737	0.324484
O19	O	0.676713	-0.244128	-0.162757
O20	O	1.010046	0.089205	0.170576
O21	O	1.343379	0.422538	0.503910
O22	O	0.621654	-0.116087	-0.264832
O23	O	0.954988	0.217247	0.068502
O24	O	1.288321	0.550580	0.401835
O25	O	0.749565	-0.244126	-0.264840
O26	O	1.082898	0.089208	0.068494
O27	O	1.416232	0.422541	0.401827
O28	O	0.676853	-0.116085	-0.342178
O29	O	1.010187	0.217249	-0.008845
O30	O	1.343520	0.550582	0.324488
O31	O	0.621574	-0.188935	-0.162753
O32	O	0.954907	0.144399	0.170580
O33	O	1.288241	0.477732	0.503913
O34	O	0.548765	-0.188902	-0.264771
O35	O	0.882099	0.144431	0.068563
O36	O	1.215432	0.477764	0.401896
O37	O	0.621590	-0.244069	-0.444154
O38	O	0.954924	0.089264	-0.110821
O39	O	1.288257	0.422597	0.222512
O40	O	0.548738	-0.244072	-0.342071
O41	O	0.882071	0.089262	-0.008738
O42	O	1.215405	0.422595	0.324595
O43	O	0.676817	-0.188898	-0.444200
O44	O	1.010150	0.144436	-0.110867
O45	O	1.343484	0.477769	0.222466
O46	O	0.676676	-0.316941	-0.264779
O47	O	1.010010	0.016392	0.068554
O48	O	1.343343	0.349725	0.401888
O49	O	0.621510	-0.316917	-0.342076
O50	O	0.954844	0.016416	-0.008743
O51	O	1.288177	0.349750	0.324591
C52	C	0.532451	-0.216484	-0.303414
C53	C	0.865784	0.116849	0.029919
C54	C	1.199118	0.450183	0.363253
C55	C	0.482517	-0.216485	-0.303407
C56	C	0.815850	0.116848	0.029927
C57	C	1.149183	0.450182	0.363260
C58	C	0.125931	-0.187738	-0.263298
C59	C	0.459265	0.145595	0.070035
C60	C	0.792598	0.478928	0.403369
C61	C	0.313604	-0.187726	-0.263260
C62	C	0.646938	0.145608	0.070074
C63	C	0.980271	0.478941	0.403407
O64	O	0.337870	-0.163246	-0.229099
O65	O	0.671204	0.170087	0.104234
O66	O	1.004537	0.503421	0.437567
N67	N	0.337071	-0.216492	-0.303438
N68	N	0.670405	0.116841	0.029895
N69	N	1.003738	0.450174	0.363228
C70	C	0.313617	-0.245262	-0.343632
C71	C	0.646951	0.088071	-0.010299
C72	C	0.980284	0.421405	0.323034
O73	O	0.337884	-0.269726	-0.377811
O74	O	0.671217	0.063607	-0.044477
O75	O	1.004550	0.396940	0.288856
C76	C	0.125945	-0.245272	-0.343673
C77	C	0.459278	0.088061	-0.010340
C78	C	0.792612	0.421395	0.322993
C79	C	0.102480	-0.216507	-0.303488
C80	C	0.435814	0.116827	0.029846
C81	C	0.769147	0.450160	0.363179
C82	C	0.102466	-0.158975	-0.223116
C83	C	0.435800	0.174358	0.110217
C84	C	0.769133	0.507692	0.443551
C85	C	0.055551	-0.158980	-0.223123
C86	C	0.388884	0.174353	0.110210
C87	C	0.722218	0.507686	0.443543
C88	C	0.032100	-0.187749	-0.263313
C89	C	0.365434	0.145585	0.070020
C90	C	0.698767	0.478918	0.403354
C91	C	0.055565	-0.216512	-0.303495
C92	C	0.388898	0.116821	0.029838
C93	C	0.722232	0.450155	0.363172
C94	C	0.102492	-0.274039	-0.383870
C95	C	0.435825	0.059294	-0.050537
C96	C	0.769159	0.392627	0.282797
C97	C	0.055571	-0.274038	-0.383878
C98	C	0.388904	0.059295	-0.050545
C99	C	0.722238	0.392628	0.282789
C100	C	0.032106	-0.245273	-0.343692
C101	C	0.365440	0.088060	-0.010359
C102	C	0.698773	0.421394	0.322975
C103	C	-0.014801	-0.245286	-0.343692
C104	C	0.318532	0.088048	-0.010359
C105	C	0.651865	0.421381	0.322974
N106	N	-0.038268	-0.216519	-0.303514
N107	N	0.295065	0.116814	0.029820
N108	N	0.628398	0.450148	0.363153
C109	C	-0.014818	-0.187751	-0.263324
C110	C	0.318516	0.145583	0.070009
C111	C	0.651849	0.478916	0.403343
C112	C	0.412148	-0.245255	-0.343607
C113	C	0.745481	0.088078	-0.010274
C114	C	1.078815	0.421411	0.323059
C115	C	0.459066	-0.245253	-0.343596
C116	C	0.792399	0.088080	-0.010263
C117	C	1.125732	0.421413	0.323070
C118	C	0.459049	-0.187716	-0.263224
C119	C	0.792383	0.145617	0.070109
C120	C	1.125716	0.478950	0.403442
C121	C	0.412131	-0.187721	-0.263232
C122	C	0.745464	0.145613	0.070101
C123	C	1.078797	0.478946	0.403434
C124	C	0.388681	-0.216489	-0.303429
C125	C	0.722014	0.116845	0.029905
C126	C	1.055348	0.450178	0.363238
C127	C	-0.113343	-0.187764	-0.263342
C128	C	0.219990	0.145569	0.069991
C129	C	0.553323	0.478903	0.403324
C130	C	-0.160263	-0.187773	-0.263352
C131	C	0.173070	0.145560	0.069982
C132	C	0.506404	0.478894	0.403315
C133	C	-0.160243	-0.245308	-0.343726
C134	C	0.173091	0.088025	-0.010392
C135	C	0.506424	0.421359	0.322941
C136	C	-0.113327	-0.245301	-0.343714
C137	C	0.220006	0.088032	-0.010381
C138	C	0.553340	0.421366	0.322952
C139	C	-0.089879	-0.216525	-0.303521
C140	C	0.243455	0.116808	0.029813
C141	C	0.576788	0.450142	0.363146
O142	O	-0.039096	-0.269749	-0.377840
O143	O	0.294237	0.063585	-0.044506
O144	O	0.627570	0.396918	0.288827
O145	O	-0.039092	-0.163283	-0.229161
O146	O	0.294241	0.170050	0.104173
O147	O	0.627575	0.503384	0.437506
C148	C	0.172847	-0.187733	-0.263290
C149	C	0.506180	0.145600	0.070043
C150	C	0.839513	0.478934	0.403376
C151	C	0.196311	-0.216496	-0.303472
C152	C	0.529645	0.116837	0.029861
C153	C	0.862978	0.450170	0.363194
C154	C	0.172861	-0.245265	-0.343662
C155	C	0.506194	0.088068	-0.010329
C156	C	0.839527	0.421402	0.323005
C157	C	0.243229	-0.216495	-0.303462
C158	C	0.576563	0.116839	0.029872
C159	C	0.909896	0.450172	0.363205
C160	C	0.266680	-0.187726	-0.263272
C161	C	0.600013	0.145607	0.070061
C162	C	0.933347	0.478941	0.403395
C163	C	0.243213	-0.158959	-0.223093
C164	C	0.576546	0.174374	0.110240
C165	C	0.909880	0.507707	0.443573
C166	C	0.196297	-0.158965	-0.223101
C167	C	0.529631	0.174369	0.110232
C168	C	0.862964	0.507702	0.443566
C169	C	0.196328	-0.274031	-0.383841
C170	C	0.529661	0.059302	-0.050507
C171	C	0.862994	0.392635	0.282826
C172	C	0.243243	-0.274024	-0.383829
C173	C	0.576577	0.059309	-0.050496
C174	C	0.909910	0.392642	0.282837
C175	C	0.266694	-0.245256	-0.343640
C176	C	0.600027	0.088078	-0.010307
C177	C	0.933361	0.421411	0.323027
C178	C	0.649092	-0.333230	-0.303435
C179	C	0.982426	0.000103	0.029898
C180	C	1.315759	0.333437	0.363232
C181	C	0.649099	-0.383164	-0.303443
C182	C	0.982432	-0.049831	0.029891
C183	C	1.315765	0.283502	0.363224
C184	C	0.677951	-0.692808	-0.263276
C185	C	1.011284	-0.359475	0.070057
C186	C	1.344617	-0.026141	0.403390
C187	C	0.678006	-0.880481	-0.263301
C188	C	1.011339	-0.547148	0.070032
C189	C	1.344673	-0.213814	0.403366
O190	O	0.702473	-0.904746	-0.229126
O191	O	1.035806	-0.571412	0.104207
O192	O	1.369139	-0.238079	0.437541
N193	N	0.649267	-0.903949	-0.303514
N194	N	0.982600	-0.570616	0.029820
N195	N	1.315933	-0.237283	0.363153
C196	C	0.620513	-0.880497	-0.343726
C197	C	0.953847	-0.547164	-0.010393
C198	C	1.287180	-0.213830	0.322941
O199	O	0.596073	-0.904765	-0.377935
O200	O	0.929407	-0.571431	-0.044601
O201	O	1.262740	-0.238098	0.288732
C202	C	0.620460	-0.692825	-0.343704
C203	C	0.953794	-0.359491	-0.010371
C204	C	1.287127	-0.026158	0.322962
C205	C	0.649199	-0.669359	-0.303484
C206	C	0.982532	-0.336025	0.029849
C207	C	1.315865	-0.002692	0.363182
C208	C	0.706687	-0.669342	-0.223060
C209	C	1.040020	-0.336008	0.110273
C210	C	1.373353	-0.002675	0.443606
C211	C	0.706671	-0.622426	-0.223052
C212	C	1.040004	-0.289093	0.110281
C213	C	1.373338	0.044240	0.443614
C214	C	0.677919	-0.598977	-0.263260
C215	C	1.011252	-0.265644	0.070073
C216	C	1.344586	0.067690	0.403406
C217	C	0.649183	-0.622443	-0.303476
C218	C	0.982516	-0.289110	0.029857
C219	C	1.315849	0.044223	0.363190
C220	C	0.591710	-0.669373	-0.383920
C221	C	0.925043	-0.336040	-0.050586
C222	C	1.258376	-0.002706	0.282747
C223	C	0.591700	-0.622452	-0.383912
C224	C	0.925033	-0.289119	-0.050578
C225	C	1.258367	0.044215	0.282755
C226	C	0.620438	-0.598986	-0.343692
C227	C	0.953771	-0.265653	-0.010358
C228	C	1.287105	0.067681	0.322975
C229	C	0.620415	-0.552078	-0.343676
C230	C	0.953748	-0.218745	-0.010343
C231	C	1.287081	0.114588	0.322990
N232	N	0.649154	-0.528610	-0.303463
N233	N	0.982488	-0.195277	0.029870
N234	N	1.315821	0.138057	0.363203
C235	C	0.677906	-0.552059	-0.263255
C236	C	1.011240	-0.218726	0.070078
C237	C	1.344573	0.114608	0.403411
C238	C	0.620542	-0.979028	-0.343734
C239	C	0.953876	-0.645694	-0.010400
C240	C	1.287209	-0.312361	0.322933
C241	C	0.620555	-1.025945	-0.343739
C242	C	0.953888	-0.692612	-0.010405
C243	C	1.287222	-0.359279	0.322928
C244	C	0.678049	-1.025926	-0.263314
C245	C	1.011382	-0.692593	0.070019
C246	C	1.344715	-0.359259	0.403353
C247	C	0.678033	-0.979007	-0.263307
C248	C	1.011367	-0.645674	0.070027
C249	C	1.344700	-0.312341	0.403360
C250	C	0.649282	-0.955559	-0.303521
C251	C	0.982615	-0.622226	0.029812
C252	C	1.315949	-0.288892	0.363146
C253	C	0.677871	-0.453533	-0.263241
C254	C	1.011204	-0.120200	0.070092
C255	C	1.344537	0.213133	0.403426
C256	C	0.677851	-0.406614	-0.263235
C257	C	1.011184	-0.073280	0.070099
C258	C	1.344517	0.260053	0.403432
C259	C	0.620359	-0.406637	-0.343661
C260	C	0.953693	-0.073304	-0.010328
C261	C	1.287026	0.260030	0.323005
C262	C	0.620377	-0.453553	-0.343666
C263	C	0.953710	-0.120219	-0.010332
C264	C	1.287044	0.213114	0.323001
C265	C	0.649136	-0.477000	-0.303453
C266	C	0.982470	-0.143666	0.029880
C267	C	1.315803	0.189667	0.363213
O268	O	0.595965	-0.527785	-0.377838
O269	O	0.929298	-0.194451	-0.044505
O270	O	1.262631	0.138882	0.288829
O271	O	0.702350	-0.527783	-0.229062
O272	O	1.035683	-0.194450	0.104272
O273	O	1.369017	0.138883	0.437605
C274	C	0.677967	-0.739723	-0.263285
C275	C	1.011300	-0.406390	0.070049
C276	C	1.344633	-0.073057	0.403382
C277	C	0.649230	-0.763190	-0.303501
C278	C	0.982564	-0.429856	0.029833
C279	C	1.315897	-0.096523	0.363166
C280	C	0.620478	-0.739740	-0.343709
C281	C	0.953812	-0.406407	-0.010375
C282	C	1.287145	-0.073074	0.322958
C283	C	0.649243	-0.810107	-0.303505
C284	C	0.982576	-0.476774	0.029828
C285	C	1.315910	-0.143441	0.363161
C286	C	0.677995	-0.833557	-0.263297
C287	C	1.011328	-0.500223	0.070036
C288	C	1.344662	-0.166890	0.403369
C289	C	0.706734	-0.810088	-0.223085
C290	C	1.040068	-0.476755	0.110249
C291	C	1.373401	-0.143421	0.443582
C292	C	0.706719	-0.763173	-0.223077
C293	C	1.040052	-0.429839	0.110257
C294	C	1.373385	-0.096506	0.443590
C295	C	0.591739	-0.763209	-0.383922
C296	C	0.925072	-0.429876	-0.050588
C297	C	1.258406	-0.096542	0.282745
C298	C	0.591757	-0.810124	-0.383926
C299	C	0.925090	-0.476791	-0.050593
C300	C	1.258423	-0.143458	0.282741
C301	C	0.620509	-0.833574	-0.343718
C302	C	0.953842	-0.500240	-0.010385
C303	C	1.287175	-0.166907	0.322949
C304	C	0.766352	-0.216531	-0.303519
C305	C	1.099685	0.116802	0.029815
C306	C	1.433018	0.450135	0.363148
C307	C	0.816286	-0.216541	-0.303541
C308	C	1.149620	0.116792	0.029792
C309	C	1.482953	0.450125	0.363125
C310	C	0.649209	-0.216480	-0.467657
C311	C	0.982542	0.116854	-0.134323
C312	C	1.315875	0.450187	0.199010
C313	C	0.649224	-0.216468	-0.537625
C314	C	0.982557	0.116866	-0.204291
C315	C	1.315890	0.450199	0.129042
C316	C	0.649267	-0.099329	-0.303511
C317	C	0.982601	0.234004	0.029822
C318	C	1.315934	0.567338	0.363155
C319	C	0.649307	-0.049395	-0.303531
C320	C	0.982640	0.283939	0.029803
C321	C	1.315974	0.617272	0.363136
C322	C	0.620521	-0.187725	-0.570480
C323	C	0.953854	0.145608	-0.237146
C324	C	1.287187	0.478942	0.096187
C325	C	0.620519	-0.187717	-0.636222
C326	C	0.953852	0.145617	-0.302889
C327	C	1.287186	0.478950	0.030445
C328	C	0.649228	-0.216446	-0.669107
C329	C	0.982562	0.116887	-0.335774
C330	C	1.315895	0.450220	-0.002441
C331	C	0.677933	-0.245194	-0.636244
C332	C	1.011267	0.088139	-0.302911
C333	C	1.344600	0.421472	0.030422
C334	C	0.677931	-0.245205	-0.570503
C335	C	1.011264	0.088128	-0.237170
C336	C	1.344598	0.421462	0.096164
N337	N	0.688554	-0.219882	-0.772357
N338	N	1.021888	0.113451	-0.439024
N339	N	1.355221	0.446784	-0.105690
N340	N	0.688555	-0.219869	-0.834809
N341	N	1.021889	0.113464	-0.501475
N342	N	1.355222	0.446797	-0.168142
C343	C	0.649237	-0.216416	-0.867182
C344	C	0.982570	0.116917	-0.533849
C345	C	1.315903	0.450250	-0.200515
N346	N	0.609916	-0.212968	-0.834745
N347	N	0.943249	0.120366	-0.501411
N348	N	1.276583	0.453699	-0.168078
N349	N	0.609916	-0.212978	-0.772288
N350	N	0.943249	0.120355	-0.438954
N351	N	1.276582	0.453688	-0.105621
C352	C	0.649234	-0.216438	-0.740393
C353	C	0.982567	0.116895	-0.407059
C354	C	1.315901	0.450229	-0.073726
C355	C	0.620530	-0.187663	-0.971323
C356	C	0.953863	0.145670	-0.637989
C357	C	1.287196	0.479004	-0.304656
C358	C	0.620527	-0.187658	-1.037066
C359	C	0.953861	0.145675	-0.703733
C360	C	1.287194	0.479009	-0.370400
C361	C	0.677946	-0.245133	-1.037087
C362	C	1.011279	0.088200	-0.703754
C363	C	1.344612	0.421533	-0.370421
C364	C	0.677944	-0.245141	-0.971345
C365	C	1.011277	0.088192	-0.638011
C366	C	1.344611	0.421526	-0.304678
C367	C	0.649237	-0.216403	-0.938466
C368	C	0.982570	0.116930	-0.605133
C369	C	1.315903	0.450263	-0.271800
C370	C	0.649164	-0.216503	-0.139915
C371	C	0.982498	0.116830	0.193419
C372	C	1.315831	0.450164	0.526752
C373	C	0.649236	-0.216388	-0.069947
C374	C	0.982570	0.116945	0.263386
C375	C	1.315903	0.450278	0.596720
H376	H	0.036450	-0.135556	-0.190400
H377	H	0.369784	0.197777	0.142933
H378	H	0.703117	0.531110	0.476267
Cl379	Cl	0.584439	-0.151539	-0.929987
Cl380	Cl	0.917772	0.181794	-0.596653
Cl381	Cl	1.251105	0.515127	-0.263320
Cl382	Cl	0.272736	-0.310192	-0.434351
Cl383	Cl	0.606069	0.023141	-0.101018
Cl384	Cl	0.939402	0.356474	0.232315
H385	H	0.177197	-0.135541	-0.190378
H386	H	0.510530	0.197793	0.142955
H387	H	0.843863	0.531126	0.476289
H388	H	0.121555	-0.135546	-0.190389
H389	H	0.454888	0.197788	0.142945
H390	H	0.788222	0.531121	0.476278
H391	H	0.597129	-0.959939	-0.376482
H392	H	0.930462	-0.626606	-0.043149
H393	H	1.263795	-0.293272	0.290185
Cl394	Cl	0.742879	-0.839576	-0.172537
Cl395	Cl	1.076212	-0.506243	0.160797
Cl396	Cl	1.409545	-0.172909	0.494130
H397	H	0.701322	-0.268525	-1.063862
H398	H	1.034656	0.064809	-0.730528
H399	H	1.367989	0.398142	-0.397195
H400	H	0.701460	-1.045026	-0.230575
H401	H	1.034793	-0.711693	0.102758
H402	H	1.368126	-0.378360	0.436091
H403	H	-0.179345	-0.268732	-0.376445
H404	H	0.153989	0.064601	-0.043112
H405	H	0.487322	0.397934	0.290222
Cl406	Cl	0.742851	-0.733679	-0.172514
Cl407	Cl	1.076184	-0.400346	0.160819
Cl408	Cl	1.409517	-0.067013	0.494152
H409	H	0.568306	-0.688471	-0.416668
H410	H	0.901639	-0.355138	-0.083335
H411	H	1.234973	-0.021805	0.249999
Cl412	Cl	0.488558	-0.281423	-0.394109
Cl413	Cl	0.821892	0.051910	-0.060776
Cl414	Cl	1.155225	0.385243	0.272558
Cl415	Cl	0.714025	-0.483002	-0.212687
Cl416	Cl	1.047358	-0.149669	0.120647
Cl417	Cl	1.380691	0.183664	0.453980
H418	H	-0.179366	-0.164348	-0.230626
H419	H	0.153967	0.168985	0.102708
H420	H	0.487301	0.502319	0.436041
H421	H	0.597151	-0.164253	-1.063816
H422	H	0.930484	0.169080	-0.730482
H423	H	1.263817	0.502413	-0.397149
H424	H	0.701318	-0.268545	-0.944594
H425	H	1.034652	0.064788	-0.611261
H426	H	1.367985	0.398121	-0.277927
H427	H	0.596978	-0.472660	-0.376418
H428	H	0.930311	-0.139326	-0.043085
H429	H	1.263644	0.194007	0.290249
Cl430	Cl	-0.083828	-0.281468	-0.394228
Cl431	Cl	0.249505	0.051865	-0.060894
Cl432	Cl	0.582839	0.385199	0.272439
Cl433	Cl	0.131979	-0.310203	-0.434394
Cl434	Cl	0.465312	0.023130	-0.101061
Cl435	Cl	0.798646	0.356464	0.232273
Cl436	Cl	-0.083873	-0.151589	-0.212811
Cl437	Cl	0.249461	0.181744	0.120522
Cl438	Cl	0.582794	0.515077	0.453856
H439	H	0.568288	-0.603363	-0.416661
H440	H	0.901621	-0.270029	-0.083328
H441	H	1.234954	0.063304	0.250005
Cl442	Cl	0.272703	-0.122795	-0.172568
Cl443	Cl	0.606036	0.210539	0.160765
Cl444	Cl	0.939369	0.543872	0.494098
Cl445	Cl	0.382675	-0.281426	-0.394142
Cl446	Cl	0.716008	0.051907	-0.060809
Cl447	Cl	1.049341	0.385240	0.272524
H448	H	0.701306	-0.268610	-0.543753
H449	H	1.034640	0.064723	-0.210420
H450	H	1.367973	0.398056	0.122914
H451	H	0.568326	-0.744120	-0.416665
H452	H	0.901659	-0.410787	-0.083331
H453	H	1.234993	-0.077453	0.250002
Cl454	Cl	0.382637	-0.151557	-0.212713
Cl455	Cl	0.715971	0.181777	0.120621
Cl456	Cl	1.049304	0.515110	0.453954
Cl457	Cl	0.166854	-0.310202	-0.434369
Cl458	Cl	0.500187	0.023131	-0.101036
Cl459	Cl	0.833521	0.356464	0.232298
H460	H	0.478151	-0.164292	-0.230500
H461	H	0.811484	0.169041	0.102834
H462	H	1.144818	0.502374	0.436167
H463	H	0.568351	-0.829226	-0.416677
H464	H	0.901684	-0.495893	-0.083344
H465	H	1.235017	-0.162560	0.249989
Cl466	Cl	0.584429	-0.151600	-0.529150
Cl467	Cl	0.917763	0.181733	-0.195817
Cl468	Cl	1.251096	0.515067	0.137517
Cl469	Cl	0.026094	-0.310205	-0.434415
Cl470	Cl	0.359427	0.023128	-0.101081
Cl471	Cl	0.692761	0.356461	0.232252
H472	H	0.701253	-0.387509	-0.230481
H473	H	1.034586	-0.054176	0.102853
H474	H	1.367919	0.279158	0.436186
Cl475	Cl	0.742808	-0.592933	-0.172497
Cl476	Cl	1.076141	-0.259600	0.160837
Cl477	Cl	1.409475	0.073734	0.494170
H478	H	0.730103	-0.688429	-0.190318
H479	H	1.063436	-0.355096	0.143015
H480	H	1.396769	-0.021762	0.476349
Cl481	Cl	0.714163	-0.949512	-0.212744
Cl482	Cl	1.047497	-0.616179	0.120590
Cl483	Cl	1.380830	-0.282845	0.453923
Cl484	Cl	0.584443	-0.151570	-0.677534
Cl485	Cl	0.917776	0.181763	-0.344201
Cl486	Cl	1.251109	0.515096	-0.010868
H487	H	0.597149	-1.045048	-0.376484
H488	H	0.930483	-0.711714	-0.043150
H489	H	1.263816	-0.378381	0.290183
H490	H	0.596948	-0.387537	-0.376396
H491	H	0.930282	-0.054204	-0.043063
H492	H	1.263615	0.279129	0.290270
H493	H	0.701309	-0.268586	-0.663024
H494	H	1.034642	0.064747	-0.329690
H495	H	1.367975	0.398080	0.003643
