data_functionalizedCrystal
_audit_creation_method	'MofGen! by Chris Wilmer'
_symmetry_space_group_name_H-M	'P1'
_symmetry_Int_Tables_number	1
_symmetry_cell_setting	triclinic
loop_
_symmetry_equiv_pos_as_xyz
  x,y,z
_cell_length_a	19.805407
_cell_length_b	18.050589
_cell_length_c	19.805399
_cell_angle_alpha	90.022093
_cell_angle_beta	89.982197
_cell_angle_gamma	89.967986
loop_
_atom_site_label
_atom_site_type_symbol
_atom_site_fract_x
_atom_site_fract_y
_atom_site_fract_z
Zn1	Zn	1.034697	0.295730	-0.382713
Zn2	Zn	1.534697	0.795730	0.117287
Zn3	Zn	1.034595	0.419922	-0.269536
Zn4	Zn	1.534595	0.919922	0.230464
Zn5	Zn	0.921511	0.295745	-0.269542
Zn6	Zn	1.421511	0.795745	0.230458
Zn7	Zn	0.921458	0.419877	-0.382686
Zn8	Zn	1.421458	0.919877	0.117314
O9	O	0.978065	0.357818	-0.326119
O10	O	1.478065	0.857818	0.173881
O11	O	1.129400	0.312217	-0.367709
O12	O	1.629400	0.812217	0.132291
O13	O	1.019574	0.403475	-0.174820
O14	O	1.519574	0.903475	0.325180
O15	O	0.936590	0.191818	-0.284568
O16	O	1.436590	0.691818	0.215432
O17	O	1.129325	0.403460	-0.284558
O18	O	1.629325	0.903460	0.215442
O19	O	1.019747	0.191807	-0.367715
O20	O	1.519747	0.691807	0.132285
O21	O	0.936492	0.312242	-0.174824
O22	O	1.436492	0.812242	0.325176
O23	O	0.826788	0.312198	-0.284541
O24	O	1.326788	0.812198	0.215459
O25	O	0.936500	0.403383	-0.477407
O26	O	1.436500	0.903383	0.022593
O27	O	0.826749	0.403398	-0.367668
O28	O	1.326749	0.903398	0.132332
O29	O	1.019696	0.312173	-0.477426
O30	O	1.519696	0.812173	0.022574
O31	O	1.019523	0.523841	-0.284532
O32	O	1.519523	1.023841	0.215468
O33	O	0.936402	0.523807	-0.367663
O34	O	1.436402	1.023807	0.132337
C35	C	0.802209	0.357795	-0.326103
C36	C	1.302209	0.857795	0.173897
C37	C	0.726977	0.357803	-0.326112
C38	C	1.226977	0.857803	0.173888
C39	C	0.691673	0.310377	-0.369474
C40	C	1.191673	0.810377	0.130526
C41	C	0.620984	0.310380	-0.369477
C42	C	1.120984	0.810380	0.130523
C43	C	0.585602	0.357815	-0.326120
C44	C	1.085602	0.857815	0.173880
C45	C	0.620911	0.405244	-0.282753
C46	C	1.120911	0.905244	0.217247
C47	C	0.691599	0.405235	-0.282747
C48	C	1.191599	0.905235	0.217253
C49	C	0.335838	0.405277	-0.282773
C50	C	0.835838	0.905277	0.217227
C51	C	0.265146	0.405283	-0.282784
C52	C	0.765146	0.905283	0.217216
C53	C	0.265224	0.310422	-0.369503
C54	C	0.765224	0.810422	0.130497
C55	C	0.335911	0.310414	-0.369498
C56	C	0.835911	0.810414	0.130502
C57	C	0.371214	0.357839	-0.326128
C58	C	0.871214	0.857839	0.173872
C59	C	0.447863	0.357833	-0.326125
C60	C	0.947863	0.857833	0.173875
C61	C	0.508955	0.357825	-0.326126
C62	C	1.008955	0.857825	0.173874
C63	C	0.977964	0.550770	-0.326109
C64	C	1.477964	1.050770	0.173891
C65	C	0.977982	0.633316	-0.326127
C66	C	1.477982	1.133316	0.173873
C67	C	0.932805	0.832776	-0.371318
C68	C	1.432805	1.332776	0.128682
C69	C	0.916301	0.882214	-0.309556
C70	C	1.416301	1.382214	0.190444
C71	C	0.978033	0.784447	-0.326136
C72	C	1.478033	1.284447	0.173864
C73	C	0.994555	0.882090	-0.387906
C74	C	1.494555	1.382090	0.112094
C75	C	0.978081	0.930432	-0.326151
C76	C	1.478081	1.430432	0.173849
C77	C	0.961497	0.832797	-0.264341
C78	C	1.461497	1.332797	0.235659
C79	C	1.039779	0.832670	-0.342733
C80	C	1.539779	1.332670	0.157267
C81	C	1.023299	0.882085	-0.280928
C82	C	1.523299	1.382085	0.219072
C83	C	0.978004	0.700348	-0.326129
C84	C	1.478004	1.200348	0.173871
C85	C	0.978111	1.014528	-0.326151
C86	C	1.478111	1.514528	0.173849
C87	C	1.154608	0.357842	-0.326136
C88	C	1.654608	0.857842	0.173864
C89	C	1.229840	0.357852	-0.326143
C90	C	1.729840	0.857852	0.173857
C91	C	0.978103	0.357772	-0.502662
C92	C	1.478103	0.857772	-0.002662
C93	C	0.978120	0.357752	-0.577894
C94	C	1.478120	0.857752	-0.077894
C95	C	0.978160	1.164113	-0.326146
C96	C	1.478160	1.664113	0.173854
C97	C	0.978134	1.081567	-0.326159
C98	C	1.478134	1.581567	0.173841
C99	C	1.021440	0.310256	-0.613250
C100	C	1.521440	0.810256	-0.113250
C101	C	1.021447	0.310235	-0.683938
C102	C	1.521447	0.810235	-0.183938
C103	C	0.978136	0.357713	-0.719270
C104	C	1.478136	0.857713	-0.219270
C105	C	0.934811	0.405210	-0.683909
C106	C	1.434811	0.905210	-0.183909
C107	C	0.934801	0.405228	-0.613222
C108	C	1.434801	0.905228	-0.113222
C109	C	0.934849	0.405141	-0.968983
C110	C	1.434849	0.905141	-0.468983
C111	C	0.934864	0.405122	-1.039675
C112	C	1.434864	0.905122	-0.539675
C113	C	1.021495	0.310148	-1.039699
C114	C	1.521495	0.810148	-0.539699
C115	C	1.021486	0.310165	-0.969012
C116	C	1.521486	0.810165	-0.469012
C117	C	0.978158	0.357660	-0.933657
C118	C	1.478158	0.857660	-0.433657
C119	C	0.978150	0.357682	-0.857009
C120	C	1.478150	0.857682	-0.357009
C121	C	0.978147	0.357695	-0.795917
C122	C	1.478147	0.857695	-0.295917
C123	C	0.978067	0.357811	-0.150263
C124	C	1.478067	0.857811	0.349737
C125	C	0.978182	0.357622	-0.075032
C126	C	1.478182	0.857622	0.424968
H127	H	0.236471	0.271803	-0.404815
H128	H	0.736471	0.771803	0.095185
H129	H	0.947482	0.811234	-0.212094
H130	H	1.447482	1.311234	0.287906
C131	C	0.582462	0.456837	-0.235791
C132	C	1.082462	0.956837	0.264209
C133	C	0.541891	0.504510	-0.274047
C134	C	1.041891	1.004510	0.225953
C135	C	0.506470	0.552057	-0.230811
C136	C	1.006470	1.052057	0.269189
H137	H	0.554830	0.428476	-0.206334
H138	H	1.054830	0.928476	0.293666
H139	H	0.613592	0.485125	-0.209976
H140	H	1.113592	0.985125	0.290024
H141	H	0.510764	0.476226	-0.299851
H142	H	1.010764	0.976226	0.200149
H143	H	0.569506	0.532888	-0.303503
H144	H	1.069506	1.032888	0.196497
H145	H	0.537600	0.580345	-0.204996
H146	H	1.037600	1.080345	0.295004
H147	H	0.478842	0.523690	-0.201356
H148	H	0.978842	1.023690	0.298644
H149	H	0.478943	0.584414	-0.256762
H150	H	0.978943	1.084414	0.243238
H151	H	0.236340	0.443912	-0.247475
H152	H	0.736340	0.943912	0.252525
C153	C	1.068534	0.258535	-0.930775
C154	C	1.568534	0.758535	-0.430775
C155	C	1.106463	0.216919	-0.976868
C156	C	1.606463	0.716919	-0.476868
C157	C	1.149803	0.169340	-0.941670
C158	C	1.649803	0.669340	-0.441670
H159	H	1.098064	0.286870	-0.903197
H160	H	1.598064	0.786870	-0.403197
H161	H	1.042672	0.226141	-0.903215
H162	H	1.542672	0.726141	-0.403215
H163	H	1.132324	0.249309	-1.004416
H164	H	1.632324	0.749309	-0.504416
H165	H	1.076951	0.188569	-1.004447
H166	H	1.576951	0.688569	-0.504447
H167	H	1.123940	0.136946	-0.914111
H168	H	1.623940	0.636946	-0.414111
H169	H	1.179328	0.197681	-0.914093
H170	H	1.679328	0.697681	-0.414093
H171	H	1.175538	0.141093	-0.972939
H172	H	1.675538	0.641093	-0.472939
H173	H	0.864108	0.903992	-0.295531
H174	H	1.364108	1.403992	0.204469
H175	H	1.091961	0.810893	-0.356787
H176	H	1.591961	1.310893	0.143213
H177	H	0.720343	0.443854	-0.247436
H178	H	1.220343	0.943854	0.252564
C179	C	0.881793	0.804002	-0.422292
C180	C	1.381793	1.304002	0.077708
C181	C	0.898576	0.830066	-0.486719
C182	C	1.398576	1.330066	0.013281
C183	C	0.851593	0.803583	-0.533687
C184	C	1.351593	1.303583	-0.033687
H185	H	0.882375	0.751382	-0.422309
H186	H	1.382375	1.251382	0.077691
H187	H	0.837952	0.820992	-0.410437
H188	H	1.337952	1.320992	0.089563
H189	H	0.942405	0.813072	-0.498571
H190	H	1.442405	1.313072	0.001429
H191	H	0.897989	0.882683	-0.486723
H192	H	1.397989	1.382683	0.013277
H193	H	0.807753	0.820572	-0.521832
H194	H	1.307753	1.320572	-0.021832
H195	H	0.852179	0.750963	-0.533698
H196	H	1.352179	1.250963	-0.033698
H197	H	0.862971	0.821268	-0.577405
H198	H	1.362971	1.321268	-0.077405
C199	C	1.074227	0.910885	-0.229883
C200	C	1.574227	1.410885	0.270117
C201	C	1.040970	0.954602	-0.181841
C202	C	1.540970	1.454602	0.318159
C203	C	1.087859	0.981155	-0.134812
C204	C	1.587859	1.481155	0.365188
H205	H	1.095511	0.870287	-0.208016
H206	H	1.595511	1.370287	0.291984
H207	H	1.107306	0.939855	-0.252440
H208	H	1.607306	1.439855	0.247560
H209	H	1.007903	0.925634	-0.159287
H210	H	1.507903	1.425634	0.340713
H211	H	1.019689	0.995211	-0.203688
H212	H	1.519689	1.495211	0.296312
H213	H	1.120939	1.010124	-0.157368
H214	H	1.620939	1.510124	0.342632
H215	H	1.109141	0.940553	-0.112951
H216	H	1.609141	1.440553	0.387049
H217	H	1.065302	1.010825	-0.102214
H218	H	1.565302	1.510825	0.397786
C219	C	0.887797	0.456550	-1.078125
C220	C	1.387797	0.956550	-0.578125
C221	C	0.844466	0.414481	-1.118723
C222	C	1.344466	0.914481	-0.618723
C223	C	0.801111	0.461830	-1.154160
C224	C	1.301111	0.961830	-0.654160
H225	H	0.861925	0.484857	-1.047025
H226	H	1.361925	0.984857	-0.547025
H227	H	0.913657	0.488894	-1.105736
H228	H	1.413657	0.988894	-0.605736
H229	H	0.818609	0.382151	-1.091114
H230	H	1.318609	0.882151	-0.591114
H231	H	0.870320	0.386177	-1.149835
H232	H	1.370320	0.886177	-0.649835
H233	H	0.826971	0.494174	-1.181772
H234	H	1.326971	0.994174	-0.681772
H235	H	0.775243	0.490134	-1.123056
H236	H	1.275243	0.990134	-0.623056
H237	H	0.771710	0.433294	-1.181715
H238	H	1.271710	0.933294	-0.681715
H239	H	1.056773	0.271473	-1.068493
H240	H	1.556773	0.771473	-0.568493
H241	H	0.720476	0.271752	-0.404783
H242	H	1.220476	0.771752	0.095217
H243	H	1.056712	0.271596	-0.584488
H244	H	1.556712	0.771596	-0.084488
C245	C	0.887773	0.456776	-0.930726
C246	C	1.387773	0.956776	-0.430726
C247	C	0.849856	0.498358	-0.976800
C248	C	1.349856	0.998358	-0.476800
C249	C	0.806482	0.545935	-0.941580
C250	C	1.306482	1.045935	-0.441580
H251	H	0.858238	0.428439	-0.903156
H252	H	1.358238	0.928439	-0.403156
H253	H	0.913611	0.489190	-0.903157
H254	H	1.413611	0.989190	-0.403157
H255	H	0.824020	0.465948	-1.004358
H256	H	1.324020	0.965948	-0.504358
H257	H	0.879373	0.526710	-1.004371
H258	H	1.379373	1.026710	-0.504371
H259	H	0.832319	0.578349	-0.914010
H260	H	1.332319	1.078349	-0.414010
H261	H	0.776951	0.517592	-0.914011
H262	H	1.276951	1.017592	-0.414011
H263	H	0.780754	0.574159	-0.972835
H264	H	1.280754	1.074159	-0.472835
C265	C	1.013306	0.910919	-0.457528
C266	C	1.513306	1.410919	0.042472
C267	C	1.077495	0.884755	-0.475179
C268	C	1.577495	1.384755	0.024821
C269	C	1.094788	0.911302	-0.539306
C270	C	1.594788	1.411302	-0.039306
H271	H	0.981178	0.894053	-0.489637
H272	H	1.481178	1.394053	0.010363
H273	H	1.013634	0.963547	-0.456942
H274	H	1.513634	1.463547	0.043058
H275	H	1.077161	0.832138	-0.475770
H276	H	1.577161	1.332138	0.024230
H277	H	1.109637	0.901619	-0.443087
H278	H	1.609637	1.401619	0.056913
H279	H	1.095116	0.963930	-0.538720
H280	H	1.595116	1.463930	-0.038720
H281	H	1.062656	0.894434	-0.571409
H282	H	1.562656	1.394434	-0.071409
H283	H	1.138344	0.893560	-0.551288
H284	H	1.638344	1.393560	-0.051288
C285	C	0.582776	0.258860	-0.416632
C286	C	1.082776	0.758860	0.083368
C287	C	0.628891	0.217335	-0.454615
C288	C	1.128891	0.717335	0.045385
C289	C	0.593719	0.169870	-0.498068
C290	C	1.093719	0.669870	0.001932
H291	H	0.555204	0.226400	-0.390868
H292	H	1.055204	0.726400	0.109132
H293	H	0.555213	0.287298	-0.446116
H294	H	1.055213	0.787298	0.053884
H295	H	0.656443	0.188899	-0.425135
H296	H	1.156443	0.688899	0.074865
H297	H	0.656465	0.249776	-0.480393
H298	H	1.156465	0.749776	0.019607
H299	H	0.566156	0.198308	-0.527552
H300	H	1.066156	0.698308	-0.027552
H301	H	0.566148	0.137414	-0.472299
H302	H	1.066148	0.637414	0.027701
H303	H	0.625003	0.141694	-0.523849
H304	H	1.125003	0.641694	-0.023849
H305	H	1.056725	0.271561	-0.712722
H306	H	1.556725	0.771561	-0.212722
C307	C	0.887859	0.456730	-0.722389
C308	C	1.387859	0.956730	-0.222389
C309	C	0.897152	0.446565	-0.791862
C310	C	1.397152	0.946565	-0.291862
C311	C	0.853918	0.494021	-0.827328
C312	C	1.353918	0.994021	-0.327328
H313	H	0.842359	0.445903	-0.710881
H314	H	1.342359	0.945903	-0.210881
H315	H	0.897737	0.506649	-0.710837
H316	H	1.397737	1.006649	-0.210837
H317	H	0.887268	0.396658	-0.803409
H318	H	1.387268	0.896658	-0.303409
H319	H	0.942642	0.457397	-0.803390
H320	H	1.442642	0.957397	-0.303390
H321	H	0.863796	0.543940	-0.815776
H322	H	1.363796	1.043940	-0.315776
H323	H	0.808421	0.483191	-0.815814
H324	H	1.308421	0.983191	-0.315814
H325	H	0.860221	0.487136	-0.874469
H326	H	1.360221	0.987136	-0.374469
H327	H	0.364574	0.443894	-0.247460
H328	H	0.864574	0.943894	0.252540
C329	C	0.887750	0.456887	-0.574955
C330	C	1.387750	0.956887	-0.074955
C331	C	0.849839	0.498482	-0.621025
C332	C	1.349839	0.998482	-0.121025
C333	C	0.806496	0.546089	-0.585799
C334	C	1.306496	1.046089	-0.085799
H335	H	0.858210	0.428572	-0.547373
H336	H	1.358210	0.928572	-0.047373
H337	H	0.913611	0.489293	-0.547398
H338	H	1.413611	0.989293	-0.047398
H339	H	0.823980	0.466081	-0.648570
H340	H	1.323980	0.966081	-0.148570
H341	H	0.879361	0.526813	-0.648608
H342	H	1.379361	1.026813	-0.148608
H343	H	0.832356	0.578494	-0.558242
H344	H	1.332356	1.078494	-0.058242
H345	H	0.776961	0.517767	-0.558218
H346	H	1.276961	1.017767	-0.058218
H347	H	0.780772	0.574321	-0.617051
H348	H	1.280772	1.074321	-0.117051
H349	H	0.364716	0.271790	-0.404806
H350	H	0.864716	0.771790	0.095194
