data_functionalizedCrystal
_audit_creation_method	'MofGen! by Chris Wilmer'
_symmetry_space_group_name_H-M	'P1'
_symmetry_Int_Tables_number	1
_symmetry_cell_setting	triclinic
loop_
_symmetry_equiv_pos_as_xyz
  x,y,z
_cell_length_a	8.497365
_cell_length_b	10.685980
_cell_length_c	10.686285
_cell_angle_alpha	90.334291
_cell_angle_beta	94.418376
_cell_angle_gamma	85.593353
loop_
_atom_site_label
_atom_site_type_symbol
_atom_site_fract_x
_atom_site_fract_y
_atom_site_fract_z
Zn1	Zn	-1.046087	1.956497	0.352066
Zn2	Zn	-0.763732	1.972451	0.561964
Zn3	Zn	-0.760617	1.746664	0.368288
Zn4	Zn	-1.005815	1.762800	0.577866
O5	O	-0.894063	1.859603	0.465046
O6	O	-1.026789	2.134169	0.366465
O7	O	-0.542536	1.942423	0.536406
O8	O	-0.814035	1.761069	0.190584
O9	O	-0.819344	2.145890	0.520676
O10	O	-1.023769	1.915233	0.178666
O11	O	-0.540247	1.776539	0.394114
O12	O	-0.774986	1.573249	0.409533
O13	O	-1.231940	1.788571	0.547779
O14	O	-0.955132	1.585104	0.563509
O15	O	-1.261527	1.930879	0.381885
O16	O	-0.780294	1.958069	0.739625
O17	O	-0.958152	1.804040	0.751308
C18	C	-0.860352	1.533657	0.490008
C19	C	-0.845965	1.394219	0.500717
C20	C	-0.865229	1.884571	0.790983
C21	C	-0.852959	1.895367	0.930411
C22	C	-0.484161	1.859523	0.465190
C23	C	-0.305559	1.859682	0.464918
C24	C	-0.927906	2.186821	0.439987
C25	C	-0.942328	2.326262	0.429309
C26	C	-0.923047	1.834572	0.137834
C27	C	-0.935398	1.823905	-0.001605
H28	H	-0.752444	1.345718	0.570050
F29	F	-1.064551	1.389645	0.338679
H30	H	-1.015367	1.754464	0.949934
H31	H	-0.772973	1.964803	0.978880
