data_functionalizedCrystal
_audit_creation_method	'MofGen! by Chris Wilmer'
_symmetry_space_group_name_H-M	'P1'
_symmetry_Int_Tables_number	1
_symmetry_cell_setting	triclinic
loop_
_symmetry_equiv_pos_as_xyz
  x,y,z
_cell_length_a	21.395362
_cell_length_b	19.121063
_cell_length_c	21.395355
_cell_angle_alpha	92.420740
_cell_angle_beta	89.956060
_cell_angle_gamma	92.485681
loop_
_atom_site_label
_atom_site_type_symbol
_atom_site_fract_x
_atom_site_fract_y
_atom_site_fract_z
Zn1	Zn	0.947241	-0.279403	-0.365205
Zn2	Zn	1.447241	0.220597	0.134795
Zn3	Zn	0.942680	-0.396839	-0.264891
Zn4	Zn	1.442680	0.103161	0.235109
Zn5	Zn	0.842454	-0.279436	-0.260407
Zn6	Zn	1.342454	0.220564	0.239593
Zn7	Zn	0.837961	-0.396853	-0.369596
Zn8	Zn	1.337961	0.103147	0.130404
O9	O	0.892584	-0.338133	-0.315025
O10	O	1.392584	0.161867	0.184975
O11	O	1.034314	-0.294962	-0.351936
O12	O	1.534314	0.205038	0.148064
O13	O	0.929357	-0.381273	-0.176618
O14	O	1.429357	0.118727	0.323382
O15	O	0.860144	-0.181145	-0.270595
O16	O	1.360144	0.318855	0.229405
O17	O	1.030964	-0.381241	-0.278236
O18	O	1.530964	0.118759	0.221764
O19	O	0.937130	-0.181121	-0.347589
O20	O	1.437130	0.318879	0.152411
O21	O	0.855721	-0.295017	-0.173324
O22	O	1.355721	0.204983	0.326676
O23	O	0.754180	-0.295031	-0.274853
O24	O	1.254180	0.204969	0.225147
O25	O	0.852486	-0.381266	-0.456691
O26	O	1.352486	0.118734	0.043309
O27	O	0.750879	-0.381297	-0.355073
O28	O	1.250879	0.118703	0.144927
O29	O	0.932773	-0.294976	-0.453465
O30	O	1.432773	0.205024	0.046535
O31	O	0.925000	-0.495127	-0.282494
O32	O	1.425000	0.004873	0.217506
O33	O	0.848063	-0.495138	-0.359420
O34	O	1.348063	0.004862	0.140580
C35	C	0.729795	-0.338170	-0.314953
C36	C	1.229795	0.161830	0.185047
C37	C	0.660152	-0.338203	-0.314938
C38	C	1.160152	0.161797	0.185062
C39	C	0.625735	-0.383181	-0.356651
C40	C	1.125735	0.116819	0.143349
C41	C	0.560300	-0.383164	-0.356679
C42	C	1.060300	0.116836	0.143321
C43	C	0.529285	-0.338176	-0.314982
C44	C	1.029285	0.161824	0.185018
C45	C	0.563711	-0.293189	-0.273266
C46	C	1.063711	0.206811	0.226734
C47	C	0.629145	-0.293202	-0.273244
C48	C	1.129145	0.206798	0.226756
C49	C	0.425776	-0.332517	-0.258362
C50	C	0.925776	0.167483	0.241638
C51	C	0.360343	-0.332509	-0.258383
C52	C	0.860343	0.167491	0.241617
C53	C	0.327466	-0.338130	-0.315049
C54	C	0.827466	0.161870	0.184951
C55	C	0.360030	-0.343774	-0.371698
C56	C	0.860030	0.156226	0.128302
C57	C	0.425463	-0.343788	-0.371676
C58	C	0.925463	0.156212	0.128324
C59	C	0.458334	-0.338156	-0.315001
C60	C	0.958334	0.161844	0.184999
C61	C	0.222096	-0.383092	-0.356795
C62	C	0.722096	0.116908	0.143205
C63	C	0.156661	-0.383070	-0.356824
C64	C	0.656661	0.116930	0.143176
C65	C	0.160073	-0.293098	-0.273405
C66	C	0.660073	0.206902	0.226595
C67	C	0.225508	-0.293117	-0.273383
C68	C	0.725508	0.206883	0.226617
C69	C	0.256516	-0.338117	-0.315077
C70	C	0.756516	0.161883	0.184923
C71	C	0.885566	-0.520617	-0.321934
C72	C	1.385566	-0.020617	0.178066
C73	C	0.882621	-0.598685	-0.324911
C74	C	1.382621	-0.098685	0.175089
C75	C	0.921325	-0.635332	-0.286291
C76	C	1.421325	-0.135332	0.213709
C77	C	0.918559	-0.708685	-0.289094
C78	C	1.418559	-0.208685	0.210906
C79	C	0.877085	-0.745389	-0.330515
C80	C	1.377085	-0.245389	0.169485
C81	C	0.838379	-0.708736	-0.369139
C82	C	1.338379	-0.208736	0.130861
C83	C	0.841149	-0.635385	-0.366338
C84	C	1.341149	-0.135385	0.133662
C85	C	0.866720	-0.966864	-0.340976
C86	C	1.366720	-0.466864	0.159024
C87	C	0.863952	-1.040221	-0.343772
C88	C	1.363952	-0.540221	0.156228
C89	C	0.944133	-1.040164	-0.263728
C90	C	1.444133	-0.540164	0.236272
C91	C	0.946896	-0.966812	-0.260928
C92	C	1.446896	-0.466812	0.239072
C93	C	0.908193	-0.930165	-0.299555
C94	C	1.408193	-0.430165	0.200445
C95	C	0.874256	-0.820367	-0.333380
C96	C	1.374256	-0.320367	0.166620
C97	C	0.911026	-0.855188	-0.296692
C98	C	1.411026	-0.355188	0.203308
C99	C	1.056009	-0.338096	-0.315097
C100	C	1.556009	0.161904	0.184903
C101	C	1.125651	-0.338080	-0.315127
C102	C	1.625651	0.161920	0.184873
C103	C	0.892637	-0.338119	-0.478447
C104	C	1.392637	0.161881	0.021553
C105	C	0.892659	-0.338112	-0.548089
C106	C	1.392659	0.161888	-0.048089
C107	C	0.899647	-0.154936	-0.308102
C108	C	1.399647	0.345064	0.191898
C109	C	0.902656	-0.076868	-0.305152
C110	C	1.402656	0.423132	0.194848
C111	C	0.934463	-0.293179	-0.579123
C112	C	1.434463	0.206821	-0.079123
C113	C	0.934463	-0.293149	-0.644557
C114	C	1.434463	0.206851	-0.144557
C115	C	0.892666	-0.338065	-0.678955
C116	C	1.392666	0.161935	-0.178955
C117	C	0.850854	-0.383001	-0.647913
C118	C	1.350854	0.116999	-0.147913
C119	C	0.850851	-0.383025	-0.582480
C120	C	1.350851	0.116975	-0.082480
C121	C	0.885286	-0.401308	-0.785023
C122	C	1.385286	0.098692	-0.285023
C123	C	0.885294	-0.401285	-0.850455
C124	C	1.385294	0.098715	-0.350455
C125	C	0.892672	-0.337990	-0.880773
C126	C	1.392672	0.162010	-0.380773
C127	C	0.900056	-0.274717	-0.845651
C128	C	1.400056	0.225283	-0.345651
C129	C	0.900053	-0.274741	-0.780218
C130	C	1.400053	0.225259	-0.280218
C131	C	0.892664	-0.338043	-0.749907
C132	C	1.392664	0.161957	-0.249907
C133	C	0.934479	-0.293021	-0.982759
C134	C	1.434479	0.206979	-0.482759
C135	C	0.934475	-0.292989	-1.048194
C136	C	1.434475	0.207011	-0.548194
C137	C	0.850869	-0.382847	-1.051549
C138	C	1.350869	0.117153	-0.551549
C139	C	0.850870	-0.382872	-0.986115
C140	C	1.350870	0.117128	-0.486115
C141	C	0.892678	-0.337960	-0.951723
C142	C	1.392678	0.162040	-0.451723
C143	C	0.892570	-0.338096	-0.152236
C144	C	1.392570	0.161904	0.347764
C145	C	0.892676	-0.337904	-0.082588
C146	C	1.392676	0.162096	0.417412
H147	H	0.657168	-0.256574	-0.239276
H148	H	1.157168	0.243426	0.260724
H149	H	0.830186	-1.070103	-0.377512
H150	H	1.330186	-0.570103	0.122488
H151	H	0.333835	-0.327917	-0.212256
H152	H	0.833835	0.172083	0.287744
H153	H	0.816830	-0.419411	-1.079555
H154	H	1.316830	0.080589	-0.579555
H155	H	0.451974	-0.348381	-0.417801
H156	H	0.951974	0.151619	0.082199
O157	O	0.810241	-0.426591	-0.956064
O158	O	1.310241	0.073409	-0.456064
C159	C	0.773337	-0.466215	-1.000452
C160	C	1.273337	0.033785	-0.500452
H161	H	0.798909	-0.468627	-1.047207
H162	H	1.298909	0.031373	-0.547207
H163	H	0.764516	-0.521561	-0.983644
H164	H	1.264516	-0.021561	-0.483644
H165	H	0.726744	-0.440500	-1.006400
H166	H	1.226744	0.059500	-0.506400
H167	H	0.955095	-0.605453	-0.252559
H168	H	1.455095	-0.105453	0.247441
O169	O	0.975049	-0.249405	-0.674641
O170	O	1.475049	0.250595	-0.174641
C171	C	0.964053	-0.179407	-0.655999
C172	C	1.464053	0.320593	-0.155999
H173	H	0.940023	-0.177965	-0.608416
H174	H	1.440023	0.322035	-0.108416
H175	H	1.010490	-0.147911	-0.652601
H176	H	1.510490	0.352089	-0.152601
H177	H	0.932756	-0.155744	-0.691905
H178	H	1.432756	0.344256	-0.191905
H179	H	0.950076	-0.738520	-0.257645
H180	H	1.450076	-0.238520	0.242355
O181	O	0.810180	-0.426579	-0.552299
O182	O	1.310180	0.073421	-0.052299
C183	C	0.771264	-0.386618	-0.512885
C184	C	1.271264	0.113382	-0.012885
H185	H	0.769525	-0.331292	-0.530496
H186	H	1.269525	0.168708	-0.030496
H187	H	0.722066	-0.412033	-0.513072
H188	H	1.222066	0.087967	-0.013072
H189	H	0.790730	-0.384215	-0.463218
H190	H	1.290730	0.115785	0.036782
H191	H	0.816820	-0.419569	-0.675924
H192	H	1.316820	0.080431	-0.175924
O193	O	0.328199	-0.349255	-0.426804
O194	O	0.828199	0.150745	0.073196
C195	C	0.370971	-0.354212	-0.476796
C196	C	0.870971	0.145788	0.023204
H197	H	0.416798	-0.374564	-0.459258
H198	H	0.916798	0.125436	0.040742
H199	H	0.350637	-0.391830	-0.515032
H200	H	0.850637	0.108170	-0.015032
H201	H	0.380065	-0.300254	-0.496521
H202	H	0.880065	0.199746	0.003479
H203	H	0.879285	-0.452806	-0.879046
H204	H	1.379285	0.047194	-0.379046
O205	O	0.987156	-0.931240	-0.220612
O206	O	1.487156	-0.431240	0.279388
C207	C	0.972809	-0.949204	-0.158832
C208	C	1.472809	-0.449204	0.341168
H209	H	0.946709	-1.002490	-0.159537
H210	H	1.446709	-0.502490	0.340463
H211	H	1.017950	-0.951678	-0.130892
H212	H	1.517950	-0.451678	0.369108
H213	H	0.942167	-0.907970	-0.136112
H214	H	1.442167	-0.407970	0.363888
O215	O	0.833881	-0.855944	-0.373579
O216	O	1.333881	-0.355944	0.126421
C217	C	0.772113	-0.838123	-0.359114
C218	C	1.272113	-0.338123	0.140886
H219	H	0.772833	-0.784881	-0.332995
H220	H	1.272833	-0.284881	0.167005
H221	H	0.744088	-0.835626	-0.404201
H222	H	1.244088	-0.335626	0.095799
H223	H	0.749469	-0.879452	-0.328451
H224	H	1.249469	-0.379452	0.171549
H225	H	0.452538	-0.327937	-0.212214
H226	H	0.952538	0.172063	0.287786
H227	H	0.968506	-0.256607	-0.551125
H228	H	1.468506	0.243393	-0.051125
O229	O	0.981801	-1.075792	-0.226306
O230	O	1.481801	-0.575792	0.273694
C231	C	1.020640	-1.118160	-0.263650
C232	C	1.520640	-0.618160	0.236350
H233	H	1.025313	-1.096023	-0.312158
H234	H	1.525313	-0.596023	0.187842
H235	H	1.068843	-1.118940	-0.241086
H236	H	1.568843	-0.618940	0.258914
H237	H	0.999173	-1.173777	-0.267903
H238	H	1.499173	-0.673777	0.232097
O239	O	0.655757	-0.426911	-0.397216
O240	O	1.155757	0.073089	0.102784
C241	C	0.611341	-0.466619	-0.434028
C242	C	1.111341	0.033381	0.065972
H243	H	0.565819	-0.437844	-0.435165
H244	H	1.065819	0.062156	0.064835
H245	H	0.630004	-0.474199	-0.483664
H246	H	1.130004	0.025801	0.016336
H247	H	0.602284	-0.519922	-0.413025
H248	H	1.102284	-0.019922	0.086975
O249	O	0.829053	-0.931381	-0.378511
O250	O	1.329053	-0.431381	0.121489
C251	C	0.791861	-0.979509	-0.415674
C252	C	1.291861	-0.479509	0.084326
H253	H	0.787738	-1.031814	-0.392004
H254	H	1.287738	-0.531814	0.107996
H255	H	0.743286	-0.958377	-0.421480
H256	H	1.243286	-0.458377	0.078520
H257	H	0.814481	-0.987252	-0.463588
H258	H	1.314481	-0.487252	0.036412
H259	H	0.804613	-0.738626	-0.402867
H260	H	1.304613	-0.238626	0.097133
O261	O	0.803490	-0.599892	-0.403879
O262	O	1.303490	-0.099892	0.096121
C263	C	0.766302	-0.648015	-0.441051
C264	C	1.266302	-0.148015	0.058949
H265	H	0.762164	-0.700318	-0.417380
H266	H	1.262164	-0.200318	0.082620
H267	H	0.717734	-0.626875	-0.446873
H268	H	1.217734	-0.126875	0.053127
H269	H	0.788936	-0.655765	-0.488958
H270	H	1.288936	-0.155765	0.011042
O271	O	0.907199	-0.213217	-0.746195
O272	O	1.407199	0.286783	-0.246195
C273	C	0.913729	-0.157344	-0.786979
C274	C	1.413729	0.342656	-0.286979
H275	H	0.892039	-0.173957	-0.834241
H276	H	1.392039	0.326043	-0.334241
H277	H	0.888934	-0.110151	-0.766257
H278	H	1.388934	0.389849	-0.266257
H279	H	0.965493	-0.142742	-0.793417
H280	H	1.465493	0.357258	-0.293417
H281	H	0.879111	-0.452836	-0.760343
H282	H	1.379111	0.047164	-0.260343
O283	O	0.907103	-0.213230	-0.875117
O284	O	1.407103	0.286770	-0.375117
C285	C	0.854114	-0.204192	-0.912586
C286	C	1.354114	0.295808	-0.412586
H287	H	0.812588	-0.236453	-0.894062
H288	H	1.312588	0.263547	-0.394062
H289	H	0.842697	-0.146462	-0.911113
H290	H	1.342697	0.353538	-0.411113
H291	H	0.864209	-0.222351	-0.962880
H292	H	1.364209	0.277649	-0.462880
H293	H	0.944797	-0.825302	-0.262970
H294	H	1.444797	-0.325302	0.237030
O295	O	0.975021	-0.249291	-0.949368
O296	O	1.475021	0.250709	-0.449368
C297	C	0.964037	-0.179286	-0.962693
C298	C	1.464037	0.320714	-0.462693
H299	H	0.914120	-0.175743	-0.980509
H300	H	1.414120	0.324257	-0.480509
H301	H	0.970770	-0.144605	-0.918344
H302	H	1.470770	0.355395	-0.418344
H303	H	0.998338	-0.160900	-0.999999
H304	H	1.498338	0.339100	-0.499999
O305	O	0.252124	-0.426818	-0.397361
O306	O	0.752124	0.073182	0.102639
C307	C	0.207711	-0.466521	-0.434180
C308	C	0.707711	0.033479	0.065820
H309	H	0.162189	-0.437745	-0.435317
H310	H	0.662189	0.062255	0.064683
H311	H	0.226378	-0.474095	-0.483815
H312	H	0.726378	0.025905	0.016185
H313	H	0.198651	-0.519826	-0.413182
H314	H	0.698651	-0.019826	0.086818
O315	O	0.526790	-0.426895	-0.397115
O316	O	1.026790	0.073105	0.102885
C317	C	0.487151	-0.472201	-0.363100
C318	C	0.987151	0.027799	0.136900
H319	H	0.478263	-0.447344	-0.314719
H320	H	0.978263	0.052656	0.185281
H321	H	0.440799	-0.481651	-0.388980
H322	H	0.940799	0.018349	0.111020
H323	H	0.510339	-0.524243	-0.358098
H324	H	1.010339	-0.024243	0.141902
O325	O	0.123202	-0.426664	-0.397410
O326	O	0.623202	0.073336	0.102590
C327	C	0.086941	-0.386740	-0.436433
C328	C	0.586941	0.113260	0.063567
H329	H	0.108817	-0.331434	-0.438288
H330	H	0.608817	0.168566	0.061712
H331	H	0.085263	-0.412228	-0.485577
H332	H	0.585263	0.087772	0.014423
H333	H	0.037423	-0.384275	-0.416991
H334	H	0.537423	0.115725	0.083009
O335	O	0.974996	-0.249258	-1.078365
O336	O	1.474996	0.250742	-0.578365
C337	C	0.941075	-0.203894	-1.114470
C338	C	1.441075	0.296106	-0.614470
H339	H	0.891894	-0.199577	-1.094548
H340	H	1.391894	0.300423	-0.594548
H341	H	0.965820	-0.149837	-1.113168
H342	H	1.465820	0.350163	-0.613168
H343	H	0.938081	-0.225585	-1.164886
H344	H	1.438081	0.274415	-0.664886
H345	H	0.134822	-0.256465	-0.239458
H346	H	0.634822	0.243535	0.260542
H347	H	0.253531	-0.256494	-0.239412
H348	H	0.753531	0.243506	0.260588
H349	H	0.538455	-0.256558	-0.239317
H350	H	1.038455	0.243442	0.260683
