data_functionalizedCrystal
_audit_creation_method	'MofGen! by Chris Wilmer'
_symmetry_space_group_name_H-M	'P1'
_symmetry_Int_Tables_number	1
_symmetry_cell_setting	triclinic
loop_
_symmetry_equiv_pos_as_xyz
  x,y,z
_cell_length_a	11.792241
_cell_length_b	10.654546
_cell_length_c	9.130313
_cell_angle_alpha	90.001178
_cell_angle_beta	89.998583
_cell_angle_gamma	95.661551
loop_
_atom_site_label
_atom_site_type_symbol
_atom_site_fract_x
_atom_site_fract_y
_atom_site_fract_z
O1	O	0.159396	-1.667386	-0.121832
O2	O	0.174589	-1.301864	-0.121828
O3	O	0.001842	-1.493495	-0.121820
O4	O	0.332142	-1.475755	-0.121840
O5	O	0.001847	-1.493493	0.121779
O6	O	0.174593	-1.301861	0.121771
O7	O	0.159401	-1.667383	0.121767
Cu8	Cu	0.166997	-1.484622	0.144011
Cu9	Cu	0.166992	-1.484625	-0.144073
O10	O	0.332147	-1.475752	0.121759
C11	C	-0.040449	-1.492379	-0.000021
C12	C	-0.166470	-1.489044	-0.000022
C13	C	0.173476	-1.255068	-0.000028
C14	C	0.170141	-1.115634	-0.000026
C15	C	0.160513	-1.714179	-0.000037
C16	C	0.163848	-1.853613	-0.000048
C17	C	-0.397197	-1.482911	-0.000047
C18	C	-0.268804	-1.486318	-0.000034
C19	C	0.374438	-1.476868	-0.000044
C20	C	0.500460	-1.480203	-0.000052
N21	N	0.167001	-1.484629	0.346634
C22	C	0.168561	-1.050145	-0.132819
C23	C	0.165418	-0.919133	-0.132830
C24	C	0.165432	-0.919111	0.132755
C25	C	0.168583	-1.050119	0.132765
C26	C	0.170119	-1.115659	-0.265610
C27	C	0.168537	-1.050170	-0.398413
C28	C	0.165394	-0.919158	-0.398424
C29	C	0.163834	-0.853635	-0.265633
N30	N	0.166980	-1.484628	-0.346695
C31	C	0.090535	-1.569505	0.423289
C32	C	0.090521	-1.569502	0.576626
C33	C	0.243449	-1.399742	0.576638
C34	C	0.243456	-1.399741	0.423304
C35	C	0.014079	-1.654394	0.346619
C36	C	-0.062393	-1.739278	0.423275
C37	C	-0.062406	-1.739275	0.576611
C38	C	0.014051	-1.654387	0.653293
H39	H	0.172675	-1.222335	-0.265615
H40	H	-0.124679	-1.808382	0.639023
O41	O	0.169966	-1.113906	0.261662
C42	C	0.075339	-1.275340	0.415841
C43	C	0.073640	-1.203219	0.269797
H44	H	-0.002544	-1.347547	0.422480
H45	H	0.156056	-1.325800	0.422491
H46	H	0.073729	-1.205986	0.510726
H47	H	0.075207	-1.272488	0.174829
H48	H	-0.007070	-1.152739	0.263275
H49	H	0.305721	-1.330626	0.360891
O50	O	-0.136839	-1.821604	0.348888
C51	C	-0.333598	-1.893891	0.302112
C52	C	-0.249400	-1.800566	0.386396
H53	H	-0.424621	-1.876931	0.332430
H54	H	-0.320583	-1.879341	0.179326
H55	H	-0.317912	-1.994562	0.332261
H56	H	-0.265034	-1.699857	0.356370
H57	H	-0.262434	-1.815225	0.509161
O58	O	0.317605	-1.317121	0.651059
C59	C	0.382320	-1.099207	0.697931
C60	C	0.298254	-1.192634	0.613587
H61	H	0.366721	-0.998540	0.667643
H62	H	0.369180	-1.113682	0.820707
H63	H	0.473363	-1.116246	0.667806
H64	H	0.207179	-1.175652	0.643589
H65	H	0.311494	-1.178137	0.490831
O66	O	0.013905	-1.654527	0.197670
C67	C	-0.069932	-1.747734	-0.022382
C68	C	-0.069879	-1.747698	0.146299
H69	H	-0.137647	-1.823072	-0.063967
H70	H	-0.089453	-1.651333	-0.064097
H71	H	0.017337	-1.768879	-0.063962
H72	H	-0.157123	-1.726606	0.188004
H73	H	-0.050294	-1.844107	0.187914
H74	H	0.169817	-1.103526	-0.506526
H75	H	0.161287	-0.746955	-0.265653
O76	O	0.164064	-0.855456	-0.527383
C77	C	0.258624	-0.693940	-0.681511
C78	C	0.260291	-0.765999	-0.535423
H79	H	0.336401	-0.621580	-0.688046
H80	H	0.260352	-0.763207	-0.776469
H81	H	0.177824	-0.643627	-0.688125
H82	H	0.341077	-0.816316	-0.528666
H83	H	0.258502	-0.696673	-0.440535
H84	H	0.164160	-0.865752	0.240867
H85	H	0.014026	-1.654383	0.778150
