data_functionalizedCrystal
_audit_creation_method	'MofGen! by Chris Wilmer'
_symmetry_space_group_name_H-M	'P1'
_symmetry_Int_Tables_number	1
_symmetry_cell_setting	triclinic
loop_
_symmetry_equiv_pos_as_xyz
  x,y,z
_cell_length_a	10.489741
_cell_length_b	17.038272
_cell_length_c	9.565339
_cell_angle_alpha	89.999972
_cell_angle_beta	89.999100
_cell_angle_gamma	87.825365
loop_
_atom_site_label
_atom_site_type_symbol
_atom_site_fract_x
_atom_site_fract_y
_atom_site_fract_z
O1	O	1.704376	0.110370	-0.116175
O2	O	1.334150	0.120730	-0.116197
O3	O	1.517063	0.001722	-0.116175
O4	O	1.521463	0.229378	-0.116197
O5	O	1.517048	0.001729	0.116345
O6	O	1.334135	0.120738	0.116323
O7	O	1.704362	0.110377	0.116345
Zn8	Zn	1.519246	0.115558	0.153252
Zn9	Zn	1.519265	0.115549	-0.153103
O10	O	1.521449	0.229385	0.116324
C11	C	1.286537	0.119951	0.000061
C12	C	1.144689	0.117610	0.000053
C13	C	1.069466	0.041889	0.000073
C14	C	0.980692	0.077655	-0.114572
C15	C	0.980714	0.077680	0.114675
C16	C	1.057783	0.153408	-0.114687
C17	C	1.057813	0.153423	0.114662
C18	C	0.969072	0.189244	-0.000011
C19	C	1.513053	-0.027426	0.000085
C20	C	1.501111	-0.114288	0.000084
C21	C	1.610749	-0.163767	0.000092
C22	C	1.599521	-0.245383	0.000078
C23	C	1.478654	-0.277518	0.000066
C24	C	1.369007	-0.228032	0.000054
C25	C	1.380237	-0.146418	0.000058
C26	C	1.438983	-0.523505	0.000044
C27	C	1.427762	-0.605126	0.000045
C28	C	1.658277	-0.622471	0.000066
C29	C	1.669495	-0.540855	0.000078
C30	C	1.559849	-0.491376	0.000059
C31	C	1.467174	-0.360942	0.000056
C32	C	1.571330	-0.407954	0.000059
C33	C	1.751974	0.111156	0.000085
C34	C	1.893822	0.113497	0.000084
C35	C	1.525458	0.258533	0.000061
C36	C	1.537400	0.345395	0.000053
N37	N	1.519242	0.115565	0.362331
N38	N	1.519279	0.115536	-0.362183
C39	C	1.434621	0.170584	0.453524
C40	C	1.551599	0.186413	0.546708
C41	C	1.402315	0.099741	0.546703
C42	C	1.636281	0.131430	0.453464
C43	C	1.486918	0.044727	0.453450
C44	C	1.603976	0.060527	0.546592
H45	H	0.946687	0.045613	-0.211492
H46	H	1.747544	-0.662765	0.000079
H47	H	1.091612	0.185419	-0.211720
C48	C	1.742093	-0.129033	0.000029
C49	C	1.835705	-0.189838	-0.000009
C50	C	1.956716	-0.157874	-0.000094
H51	H	1.751448	-0.097567	0.081091
H52	H	1.751334	-0.097578	-0.081089
H53	H	1.826469	-0.221279	0.081100
H54	H	1.826392	-0.221309	-0.081066
H55	H	1.965956	-0.126419	-0.081211
H56	H	1.966057	-0.126408	0.080970
H57	H	2.020246	-0.199124	-0.000132
C58	C	0.935587	0.034828	0.243866
C59	C	0.986738	-0.042278	0.243328
C60	C	0.945212	-0.081780	0.362316
H61	H	0.845097	0.033977	0.243507
H62	H	0.963236	0.061182	0.325315
H63	H	0.959082	-0.068626	0.161901
H64	H	1.077225	-0.041450	0.243708
H65	H	0.972861	-0.055425	0.443765
H66	H	0.854722	-0.082625	0.361946
H67	H	0.979921	-0.134097	0.361973
H68	H	0.925476	0.251558	-0.000079
H69	H	1.669740	-0.381786	0.000038
C70	C	1.103157	0.195978	0.244064
C71	C	1.064373	0.156072	0.363791
C72	C	1.106140	0.195237	0.483032
H73	H	1.067382	0.248032	0.245082
H74	H	1.193587	0.197548	0.242727
H75	H	0.973961	0.154511	0.365128
H76	H	1.100144	0.104020	0.362819
H77	H	1.196569	0.196807	0.481695
H78	H	1.070361	0.247291	0.484035
H79	H	1.079841	0.168163	0.564280
C80	C	1.718447	-0.299200	0.000302
C81	C	1.718705	-0.346582	0.119901
C82	C	1.828234	-0.396176	0.120140
H83	H	1.792137	-0.268474	0.000387
H84	H	1.718866	-0.331439	-0.080747
H85	H	1.718298	-0.314346	0.200930
H86	H	1.645040	-0.377324	0.119842
H87	H	1.828653	-0.428416	0.039091
H88	H	1.901915	-0.365444	0.120221
H89	H	1.828418	-0.428336	0.201279
H90	H	1.767918	-0.514697	0.000088
C91	C	1.339491	0.232727	0.398821
C92	C	1.403387	0.286566	0.316304
C93	C	1.315801	0.343818	0.265870
H94	H	1.299626	0.259427	0.475282
H95	H	1.276607	0.208340	0.344095
H96	H	1.466248	0.310951	0.371027
H97	H	1.443247	0.259890	0.239822
H98	H	1.252916	0.319431	0.211144
H99	H	1.275940	0.370511	0.342339
H100	H	1.359139	0.380350	0.209866
C101	C	1.296413	-0.639865	-0.000057
C102	C	1.202791	-0.579067	-0.000116
C103	C	1.081786	-0.611040	-0.000230
H104	H	1.287046	-0.671332	0.081004
H105	H	1.287197	-0.671321	-0.081177
H106	H	1.212002	-0.547624	0.080996
H107	H	1.212116	-0.547595	-0.081170
H108	H	1.072570	-0.642495	-0.081350
H109	H	1.072433	-0.642506	0.080832
H110	H	1.018249	-0.569793	-0.000283
C111	C	1.450129	-0.035074	0.398849
C112	C	1.327544	-0.051320	0.445979
C113	C	1.293589	-0.124820	0.395690
H114	H	1.509279	-0.074351	0.432067
H115	H	1.451078	-0.034628	0.299534
H116	H	1.326604	-0.051772	0.545272
H117	H	1.268366	-0.012062	0.412764
H118	H	1.294538	-0.124374	0.296376
H119	H	1.352747	-0.164091	0.428911
H120	H	1.210408	-0.135849	0.427649
C121	C	1.319981	-0.469758	-0.000255
C122	C	1.319674	-0.422412	-0.119902
C123	C	1.210055	-0.372896	-0.120234
H124	H	1.319441	-0.437485	0.080733
H125	H	1.246363	-0.500564	-0.000333
H126	H	1.393273	-0.391610	-0.119811
H127	H	1.320195	-0.454665	-0.200909
H128	H	1.136436	-0.403702	-0.120312
H129	H	1.209525	-0.340628	-0.039241
H130	H	1.209826	-0.340772	-0.201419
C131	C	1.699724	-0.001434	0.600676
C132	C	1.821918	0.015489	0.553204
C133	C	1.910157	-0.041562	0.603017
H134	H	1.677629	-0.051648	0.567363
H135	H	1.698800	-0.001389	0.699994
H136	H	1.822838	0.015436	0.453907
H137	H	1.844053	0.065693	0.586513
H138	H	1.909234	-0.041516	0.702335
H139	H	1.888051	-0.091772	0.569701
H140	H	1.993077	-0.030083	0.570826
H141	H	1.270594	-0.254202	0.000035
C142	C	1.270520	0.081953	0.601584
C143	C	1.272558	0.081494	0.747939
C144	C	1.151167	0.065128	0.798538
H145	H	1.246843	0.032014	0.568430
H146	H	1.210467	0.121116	0.569797
H147	H	1.332591	0.042334	0.779713
H148	H	1.296212	0.131427	0.781130
H149	H	1.091114	0.104291	0.766751
H150	H	1.127500	0.015189	0.765375
H151	H	1.152531	0.064822	0.897844
H152	H	1.368763	-0.387115	0.000050
C153	C	1.587876	0.266270	0.601538
C154	C	1.488509	0.298017	0.684129
C155	C	1.521876	0.371577	0.734670
H156	H	1.602538	0.300374	0.525127
H157	H	1.663250	0.260526	0.656237
H158	H	1.413156	0.303765	0.629432
H159	H	1.473833	0.263936	0.760561
H160	H	1.597251	0.365833	0.789369
H161	H	1.536538	0.405674	0.658250
H162	H	1.454467	0.393124	0.790723
C163	C	1.261093	-0.092786	-0.000168
C164	C	1.188824	-0.107420	-0.119783
C165	C	1.079049	-0.058038	-0.120037
H166	H	1.284912	-0.039553	-0.000240
H167	H	1.211815	-0.102607	0.080871
H168	H	1.238091	-0.097593	-0.200800
H169	H	1.164971	-0.160644	-0.119736
H170	H	1.029772	-0.067859	-0.038999
H171	H	1.102881	-0.004807	-0.120106
H172	H	1.029995	-0.067965	-0.201188
C173	C	1.768063	0.149446	0.398823
C174	C	1.766472	0.149331	0.252459
C175	C	1.887825	0.165964	0.202073
H176	H	1.828408	0.110643	0.431255
H177	H	1.791107	0.199623	0.431482
H178	H	1.743443	0.099161	0.219814
H179	H	1.706152	0.188134	0.219990
H180	H	1.910869	0.216142	0.234732
H181	H	1.948160	0.127159	0.234515
H182	H	1.886758	0.165896	0.102762
H183	H	1.113334	-0.020359	-0.000064
