data_functionalizedCrystal
_audit_creation_method	'MofGen! by Chris Wilmer'
_symmetry_space_group_name_H-M	'P1'
_symmetry_Int_Tables_number	1
_symmetry_cell_setting	triclinic
loop_
_symmetry_equiv_pos_as_xyz
  x,y,z
_cell_length_a	17.077404
_cell_length_b	18.050590
_cell_length_c	17.077396
_cell_angle_alpha	89.969391
_cell_angle_beta	89.983895
_cell_angle_gamma	90.016523
loop_
_atom_site_label
_atom_site_type_symbol
_atom_site_fract_x
_atom_site_fract_y
_atom_site_fract_z
Zn1	Zn	1.200061	-0.295694	-0.443812
Zn2	Zn	1.450061	-0.045694	-0.193812
Zn3	Zn	1.700061	0.204306	0.056188
Zn4	Zn	1.950061	0.454306	0.306188
Zn5	Zn	1.199983	-0.419893	-0.312543
Zn6	Zn	1.449983	-0.169893	-0.062543
Zn7	Zn	1.699983	0.080107	0.187457
Zn8	Zn	1.949983	0.330107	0.437457
Zn9	Zn	1.068798	-0.295717	-0.312562
Zn10	Zn	1.318798	-0.045717	-0.062562
Zn11	Zn	1.568798	0.204283	0.187438
Zn12	Zn	1.818798	0.454283	0.437438
Zn13	Zn	1.068770	-0.419842	-0.443769
Zn14	Zn	1.318770	-0.169842	-0.193769
Zn15	Zn	1.568770	0.080158	0.056231
Zn16	Zn	1.818770	0.330158	0.306231
O17	O	1.134403	-0.357786	-0.378171
O18	O	1.384403	-0.107786	-0.128171
O19	O	1.634403	0.142214	0.121829
O20	O	1.884403	0.392214	0.371829
O21	O	1.309897	-0.312180	-0.426408
O22	O	1.559897	-0.062180	-0.176408
O23	O	1.809897	0.187820	0.073592
O24	O	2.059897	0.437820	0.323592
O25	O	1.182560	-0.403451	-0.202698
O26	O	1.432560	-0.153451	0.047302
O27	O	1.682560	0.096549	0.297302
O28	O	1.932560	0.346549	0.547302
O29	O	1.086254	-0.191789	-0.329999
O30	O	1.336254	0.058211	-0.079999
O31	O	1.586254	0.308211	0.170001
O32	O	1.836254	0.558211	0.420001
O33	O	1.309840	-0.403429	-0.329966
O34	O	1.559840	-0.153429	-0.079966
O35	O	1.809840	0.096571	0.170034
O36	O	2.059840	0.346571	0.420034
O37	O	1.182692	-0.191772	-0.426427
O38	O	1.432692	0.058228	-0.176427
O39	O	1.682692	0.308228	0.073573
O40	O	1.932692	0.558228	0.323573
O41	O	1.086179	-0.312220	-0.202713
O42	O	1.336179	-0.062220	0.047287
O43	O	1.586179	0.187780	0.297287
O44	O	1.836179	0.437780	0.547287
O45	O	0.958947	-0.312170	-0.329957
O46	O	1.208947	-0.062170	-0.079957
O47	O	1.458947	0.187830	0.170043
O48	O	1.708947	0.437830	0.420043
O49	O	1.086208	-0.403342	-0.553622
O50	O	1.336208	-0.153342	-0.303622
O51	O	1.586208	0.096658	-0.053622
O52	O	1.836208	0.346658	0.196378
O53	O	0.958927	-0.403365	-0.426354
O54	O	1.208927	-0.153365	-0.176354
O55	O	1.458927	0.096635	0.073646
O56	O	1.708927	0.346635	0.323646
O57	O	1.182666	-0.312131	-0.553653
O58	O	1.432666	-0.062131	-0.303653
O59	O	1.682666	0.187869	-0.053653
O60	O	1.932666	0.437869	0.196347
O61	O	1.182533	-0.523810	-0.329924
O62	O	1.432533	-0.273810	-0.079924
O63	O	1.682533	-0.023810	0.170076
O64	O	1.932533	0.226190	0.420076
O65	O	1.086132	-0.523773	-0.426336
O66	O	1.336132	-0.273773	-0.176336
O67	O	1.586132	-0.023773	0.073664
O68	O	1.836132	0.226227	0.323664
C69	C	0.930455	-0.357765	-0.378154
C70	C	1.180455	-0.107765	-0.128154
C71	C	1.430455	0.142235	0.121846
C72	C	1.680455	0.392235	0.371846
C73	C	0.843205	-0.357774	-0.378165
C74	C	1.093205	-0.107774	-0.128165
C75	C	1.343205	0.142226	0.121835
C76	C	1.593205	0.392226	0.371835
C77	C	0.802246	-0.310345	-0.428459
C78	C	1.052246	-0.060345	-0.178459
C79	C	1.302246	0.189655	0.071541
C80	C	1.552246	0.439655	0.321541
C81	C	0.720265	-0.310350	-0.428463
C82	C	0.970265	-0.060350	-0.178463
C83	C	1.220265	0.189650	0.071537
C84	C	1.470265	0.439650	0.321537
C85	C	0.679246	-0.357788	-0.378176
C86	C	0.929246	-0.107788	-0.128176
C87	C	1.179246	0.142212	0.121824
C88	C	1.429246	0.392212	0.371824
C89	C	0.720211	-0.405219	-0.327876
C90	C	0.970211	-0.155219	-0.077876
C91	C	1.220211	0.094781	0.172124
C92	C	1.470211	0.344781	0.422124
C93	C	0.802190	-0.405209	-0.327869
C94	C	1.052190	-0.155209	-0.077869
C95	C	1.302190	0.094791	0.172131
C96	C	1.552190	0.344791	0.422131
C97	C	0.549341	-0.405235	-0.327895
C98	C	0.799341	-0.155235	-0.077895
C99	C	1.049341	0.094765	0.172105
C100	C	1.299341	0.344765	0.422105
C101	C	0.467357	-0.405246	-0.327903
C102	C	0.717357	-0.155246	-0.077903
C103	C	0.967357	0.094754	0.172097
C104	C	1.217357	0.344754	0.422097
C105	C	0.467416	-0.310376	-0.428489
C106	C	0.717416	-0.060376	-0.178489
C107	C	0.967416	0.189624	0.071511
C108	C	1.217416	0.439624	0.321511
C109	C	0.549395	-0.310367	-0.428482
C110	C	0.799395	-0.060367	-0.178482
C111	C	1.049395	0.189633	0.071518
C112	C	1.299395	0.439633	0.321518
C113	C	0.590355	-0.357799	-0.378183
C114	C	0.840355	-0.107799	-0.128183
C115	C	1.090355	0.142201	0.121817
C116	C	1.340355	0.392201	0.371817
C117	C	1.134343	-0.550738	-0.378140
C118	C	1.384343	-0.300738	-0.128140
C119	C	1.634343	-0.050738	0.121860
C120	C	1.884343	0.199262	0.371860
C121	C	1.134389	-0.633284	-0.378153
C122	C	1.384389	-0.383284	-0.128153
C123	C	1.634389	-0.133284	0.121847
C124	C	1.884389	0.116716	0.371847
C125	C	1.186921	-0.832728	-0.325798
C126	C	1.436921	-0.582728	-0.075798
C127	C	1.686921	-0.332728	0.174202
C128	C	1.936921	-0.082728	0.424202
C129	C	1.206093	-0.882059	-0.397440
C130	C	1.456093	-0.632059	-0.147440
C131	C	1.706093	-0.382059	0.102560
C132	C	1.956093	-0.132059	0.352560
C133	C	1.134433	-0.784414	-0.378184
C134	C	1.384433	-0.534414	-0.128184
C135	C	1.634433	-0.284414	0.121816
C136	C	1.884433	-0.034414	0.371816
C137	C	1.115341	-0.882165	-0.306574
C138	C	1.365341	-0.632165	-0.056574
C139	C	1.615341	-0.382165	0.193426
C140	C	1.865341	-0.132165	0.443426
C141	C	1.134478	-0.930399	-0.378208
C142	C	1.384478	-0.680399	-0.128208
C143	C	1.634478	-0.430399	0.121792
C144	C	1.884478	-0.180399	0.371792
C145	C	1.153642	-0.832658	-0.449864
C146	C	1.403642	-0.582658	-0.199864
C147	C	1.653642	-0.332658	0.050136
C148	C	1.903642	-0.082658	0.300136
C149	C	1.062857	-0.832760	-0.358950
C150	C	1.312857	-0.582760	-0.108950
C151	C	1.562857	-0.332760	0.141050
C152	C	1.812857	-0.082760	0.391050
C153	C	1.082002	-0.882069	-0.430642
C154	C	1.332002	-0.632069	-0.180642
C155	C	1.582002	-0.382069	0.069358
C156	C	1.832002	-0.132069	0.319358
C157	C	1.134410	-0.700316	-0.378170
C158	C	1.384410	-0.450316	-0.128170
C159	C	1.634410	-0.200316	0.121830
C160	C	1.884410	0.049684	0.371830
C161	C	1.134501	-1.014496	-0.378231
C162	C	1.384501	-0.764496	-0.128231
C163	C	1.634501	-0.514496	0.121769
C164	C	1.884501	-0.264496	0.371769
C165	C	1.339147	-0.357808	-0.378190
C166	C	1.589147	-0.107808	-0.128190
C167	C	1.839147	0.142192	0.121810
C168	C	2.089147	0.392192	0.371810
C169	C	1.426397	-0.357817	-0.378197
C170	C	1.676397	-0.107817	-0.128197
C171	C	1.926397	0.142183	0.121803
C172	C	2.176397	0.392183	0.371803
C173	C	1.134442	-0.357729	-0.582916
C174	C	1.384442	-0.107729	-0.332916
C175	C	1.634442	0.142271	-0.082916
C176	C	1.884442	0.392271	0.167084
C177	C	1.134459	-0.357704	-0.670166
C178	C	1.384459	-0.107704	-0.420166
C179	C	1.634459	0.142296	-0.170166
C180	C	1.884459	0.392296	0.079834
C181	C	1.134485	-0.164081	-0.378220
C182	C	1.384485	0.085919	-0.128220
C183	C	1.634485	0.335919	0.121780
C184	C	1.884485	0.585919	0.371780
C185	C	1.134520	-0.081535	-0.378241
C186	C	1.384520	0.168465	-0.128241
C187	C	1.634520	0.418465	0.121759
C188	C	1.884520	0.668465	0.371759
C189	C	1.084289	-0.310194	-0.711163
C190	C	1.334289	-0.060194	-0.461163
C191	C	1.584289	0.189806	-0.211163
C192	C	1.834289	0.439806	0.038837
C193	C	1.084302	-0.310177	-0.793143
C194	C	1.334302	-0.060177	-0.543143
C195	C	1.584302	0.189823	-0.293143
C196	C	1.834302	0.439823	-0.043143
C197	C	1.134489	-0.357667	-0.834125
C198	C	1.384489	-0.107667	-0.584125
C199	C	1.634489	0.142333	-0.334125
C200	C	1.884489	0.392333	-0.084125
C201	C	1.184662	-0.405182	-0.793122
C202	C	1.434662	-0.155182	-0.543122
C203	C	1.684662	0.094818	-0.293122
C204	C	1.934662	0.344818	-0.043122
C205	C	1.184645	-0.405202	-0.711143
C206	C	1.434645	-0.155202	-0.461143
C207	C	1.684645	0.094798	-0.211143
C208	C	1.934645	0.344798	0.038857
C209	C	1.184696	-0.405136	-0.963993
C210	C	1.434696	-0.155136	-0.713993
C211	C	1.684696	0.094864	-0.463993
C212	C	1.934696	0.344864	-0.213993
C213	C	1.184715	-0.405115	-1.045977
C214	C	1.434715	-0.155115	-0.795977
C215	C	1.684715	0.094885	-0.545977
C216	C	1.934715	0.344885	-0.295977
C217	C	1.084353	-0.310111	-1.045992
C218	C	1.334353	-0.060111	-0.795992
C219	C	1.584353	0.189889	-0.545992
C220	C	1.834353	0.439889	-0.295992
C221	C	1.084336	-0.310131	-0.964013
C222	C	1.334336	-0.060131	-0.714013
C223	C	1.584336	0.189869	-0.464013
C224	C	1.834336	0.439869	-0.214013
C225	C	1.134509	-0.357645	-0.923016
C226	C	1.384509	-0.107645	-0.673016
C227	C	1.634509	0.142355	-0.423016
C228	C	1.884509	0.392355	-0.173016
C229	C	1.134409	-0.357790	-0.174224
C230	C	1.384409	-0.107790	0.075776
C231	C	1.634409	0.142210	0.325776
C232	C	1.884409	0.392210	0.575776
C233	C	1.134544	-0.357605	-0.086974
C234	C	1.384544	-0.107605	0.163026
C235	C	1.634544	0.142395	0.413026
C236	C	1.884544	0.392395	0.663026
H237	H	0.433961	-0.443874	-0.286955
H238	H	0.683961	-0.193874	-0.036955
H239	H	0.933961	0.056126	0.213045
H240	H	1.183961	0.306126	0.463045
H241	H	1.002325	-0.811088	-0.342645
H242	H	1.252325	-0.561088	-0.092645
H243	H	1.502325	-0.311088	0.157355
H244	H	1.752325	-0.061088	0.407355
H245	H	1.043445	-0.271493	-0.826519
H246	H	1.293445	-0.021493	-0.576519
H247	H	1.543445	0.228507	-0.326519
H248	H	1.793445	0.478507	-0.076519
Br249	Br	0.664680	-0.245980	-0.496723
Br250	Br	0.914680	0.004020	-0.246723
Br251	Br	1.164680	0.254020	0.003277
Br252	Br	1.414680	0.504020	0.253277
H253	H	1.043472	-0.271457	-0.930648
H254	H	1.293472	-0.021457	-0.680648
H255	H	1.543472	0.228543	-0.430648
H256	H	1.793472	0.478543	-0.180648
Br257	Br	1.016264	-0.245623	-1.101630
Br258	Br	1.266264	0.004377	-0.851630
Br259	Br	1.516264	0.254377	-0.601630
Br260	Br	1.766264	0.504377	-0.351630
H261	H	0.835638	-0.271718	-0.469411
H262	H	1.085638	-0.021718	-0.219411
H263	H	1.335638	0.228282	0.030589
H264	H	1.585638	0.478282	0.280589
H265	H	0.582688	-0.443858	-0.286934
H266	H	0.832688	-0.193858	-0.036934
H267	H	1.082688	0.056142	0.213066
H268	H	1.332688	0.306142	0.463066
Br269	Br	1.252835	-0.469559	-1.101596
Br270	Br	1.502835	-0.219559	-0.851596
Br271	Br	1.752835	0.030441	-0.601596
Br272	Br	2.002835	0.280441	-0.351596
Br273	Br	1.016179	-0.245734	-0.655552
Br274	Br	1.266179	0.004266	-0.405552
Br275	Br	1.516179	0.254266	-0.155552
Br276	Br	1.766179	0.504266	0.094448
Br277	Br	0.664543	-0.469593	-0.259621
Br278	Br	0.914543	-0.219593	-0.009621
Br279	Br	1.164543	0.030407	0.240379
Br280	Br	1.414543	0.280407	0.490379
Br281	Br	1.180716	-0.796573	-0.550846
Br282	Br	1.430716	-0.546573	-0.300846
Br283	Br	1.680716	-0.296573	-0.050846
Br284	Br	1.930716	-0.046573	0.199154
H285	H	1.225560	-0.443821	-0.930615
H286	H	1.475560	-0.193821	-0.680615
H287	H	1.725560	0.056179	-0.430615
H288	H	1.975560	0.306179	-0.180615
H289	H	1.225522	-0.443853	-0.826496
H290	H	1.475522	-0.193853	-0.576496
H291	H	1.725522	0.056147	-0.326496
H292	H	1.975522	0.306147	-0.076496
H293	H	1.225504	-0.443884	-0.677765
H294	H	1.475504	-0.193884	-0.427765
H295	H	1.725504	0.056116	-0.177765
H296	H	1.975504	0.306116	0.072235
Br297	Br	1.088396	-0.918414	-0.205623
Br298	Br	1.338396	-0.668414	0.044377
Br299	Br	1.588396	-0.418414	0.294377
Br300	Br	1.838396	-0.168414	0.544377
Br301	Br	0.605064	-0.245995	-0.496739
Br302	Br	0.855064	0.004005	-0.246739
Br303	Br	1.105064	0.254005	0.003261
Br304	Br	1.355064	0.504005	0.253261
Br305	Br	0.857780	-0.469578	-0.259608
Br306	Br	1.107780	-0.219578	-0.009608
Br307	Br	1.357780	0.030422	0.240392
Br308	Br	1.607780	0.280422	0.490392
H309	H	1.231323	-0.811063	-0.281542
H310	H	1.481323	-0.561063	-0.031542
H311	H	1.731323	-0.311063	0.218458
H312	H	1.981323	-0.061063	0.468458
H313	H	1.266642	-0.903715	-0.413724
H314	H	1.516642	-0.653715	-0.163724
H315	H	1.766642	-0.403715	0.086276
H316	H	2.016642	-0.153715	0.336276
H317	H	0.434063	-0.271754	-0.469443
H318	H	0.684063	-0.021754	-0.219443
H319	H	0.934063	0.228246	0.030557
H320	H	1.184063	0.478246	0.280557
Br321	Br	1.008050	-0.917954	-0.504579
Br322	Br	1.258050	-0.667954	-0.254579
Br323	Br	1.508050	-0.417954	-0.004579
Br324	Br	1.758050	-0.167954	0.245421
