data_functionalizedCrystal
_audit_creation_method	'MofGen! by Chris Wilmer'
_symmetry_space_group_name_H-M	'P1'
_symmetry_Int_Tables_number	1
_symmetry_cell_setting	triclinic
loop_
_symmetry_equiv_pos_as_xyz
  x,y,z
_cell_length_a	19.121269
_cell_length_b	11.169417
_cell_length_c	11.169409
_cell_angle_alpha	89.980176
_cell_angle_beta	92.467430
_cell_angle_gamma	92.435405
loop_
_atom_site_label
_atom_site_type_symbol
_atom_site_fract_x
_atom_site_fract_y
_atom_site_fract_z
Zn1	Zn	-0.279543	-1.855384	0.658217
Zn2	Zn	-0.397017	-1.863856	0.448992
Zn3	Zn	-0.279585	-1.654673	0.457548
Zn4	Zn	-0.396960	-1.663255	0.649641
O5	O	-0.338276	-1.759292	0.553599
O6	O	-0.295132	-2.024458	0.630471
O7	O	-0.381482	-1.836061	0.282174
O8	O	-0.181294	-1.674161	0.491337
O9	O	-0.381440	-2.030682	0.476754
O10	O	-0.181263	-1.821622	0.638767
O11	O	-0.295205	-1.682375	0.288460
O12	O	-0.295149	-1.487862	0.483021
O13	O	-0.381343	-1.688788	0.818731
O14	O	-0.381384	-1.494167	0.624151
O15	O	-0.295077	-1.829944	0.825032
O16	O	-0.495295	-1.844383	0.468439
O17	O	-0.495253	-1.697003	0.615855
C18	C	-0.338266	-1.447467	0.553585
C19	C	-0.338278	-1.314068	0.553606
C20	C	-0.155082	-1.745989	0.566963
C21	C	-0.077015	-1.740321	0.572658
C22	C	-0.520758	-1.772576	0.540314
C23	C	-0.598825	-1.778368	0.534670
C24	C	0.364515	-1.704307	0.608739
C25	C	0.291163	-1.709648	0.603378
C26	C	0.254473	-1.789057	0.523953
C27	C	0.291138	-1.863121	0.449876
C28	C	0.364489	-1.857773	0.455232
C29	C	0.033001	-1.809037	0.503937
C30	C	-0.040355	-1.814382	0.498589
C31	C	-0.040325	-1.660906	0.652090
C32	C	0.033027	-1.655571	0.657444
C33	C	0.069686	-1.729630	0.583363
C34	C	0.179495	-1.794521	0.518474
C35	C	0.144662	-1.724160	0.588837
C36	C	-0.338198	-1.759379	0.866648
C37	C	-0.338165	-1.759415	1.000050
C38	C	-0.338288	-2.072335	0.553615
C39	C	-0.338292	-2.205736	0.553621
C40	C	-0.338303	-1.759271	0.241773
C41	C	-0.338139	-1.759453	0.108385
H42	H	0.394383	-1.639649	0.673421
H43	H	0.261259	-1.927772	0.385201
C44	C	0.404815	-1.939248	0.373751
N45	N	0.435187	-2.000615	0.312374
H46	H	-0.070181	-1.600610	0.712402
C47	C	0.185023	-1.636814	0.676204
N48	N	0.215430	-1.571030	0.742014
H49	H	-0.070226	-1.879053	0.433912
H50	H	0.149614	-1.859177	0.453807
H51	H	0.261317	-1.649328	0.663682
H52	H	0.062898	-1.590910	0.722118
C53	C	0.073316	-1.890484	0.422422
N54	N	0.103684	-1.951826	0.361013
