data_functionalizedCrystal
_audit_creation_method	'MofGen! by Chris Wilmer'
_symmetry_space_group_name_H-M	'P1'
_symmetry_Int_Tables_number	1
_symmetry_cell_setting	triclinic
loop_
_symmetry_equiv_pos_as_xyz
  x,y,z
_cell_length_a	16.992695
_cell_length_b	16.992695
_cell_length_c	7.681187
_cell_angle_alpha	83.880724
_cell_angle_beta	96.135631
_cell_angle_gamma	90.668223
loop_
_atom_site_label
_atom_site_type_symbol
_atom_site_fract_x
_atom_site_fract_y
_atom_site_fract_z
O1	O	0.173901	1.043876	0.146369
O2	O	0.172071	0.815475	0.146388
O3	O	0.058785	0.928761	0.146365
O4	O	0.287187	0.930591	0.146393
O5	O	0.044805	0.942705	-0.146508
O6	O	0.158091	0.829420	-0.146485
O7	O	0.159921	1.057821	-0.146504
Zn8	Zn	0.156786	0.945834	-0.192994
Zn9	Zn	0.175206	0.927462	0.192879
O10	O	0.273207	0.944535	-0.146481
C11	C	0.162725	0.793087	-0.000046
C12	C	0.155697	0.705602	-0.000039
C13	C	0.022435	0.933377	-0.000071
C14	C	-0.065049	0.926348	-0.000070
N15	N	0.144215	0.958378	-0.456342
C16	C	-0.111041	0.994167	-0.000078
C17	C	-0.193240	0.987557	-0.000060
C18	C	-0.229448	0.913129	-0.000048
C19	C	-0.183451	0.845305	-0.000036
C20	C	-0.101252	0.851915	-0.000040
C21	C	-0.474761	0.885733	-0.000022
C22	C	-0.556967	0.879128	-0.000022
C23	C	-0.566751	1.021381	-0.000044
C24	C	-0.484550	1.027985	-0.000059
C25	C	-0.438559	0.960161	-0.000037
N26	N	-0.313470	0.906371	-0.000036
N27	N	-0.354539	0.966919	-0.000037
C28	C	0.309557	0.939919	-0.000040
C29	C	0.397042	0.946947	-0.000030
C30	C	0.169267	1.080209	-0.000066
C31	C	0.176296	1.167693	-0.000061
C32	C	0.108478	1.213684	-0.000063
C33	C	0.115087	1.295885	-0.000069
C34	C	0.189515	1.332093	-0.000059
C35	C	0.257338	1.286096	-0.000062
C36	C	0.250728	1.203897	-0.000069
C37	C	0.216910	1.577407	-0.000049
C38	C	0.223515	1.659611	-0.000037
C39	C	0.081263	1.669395	-0.000047
C40	C	0.074660	1.587193	-0.000043
C41	C	0.142483	1.541204	-0.000055
N42	N	0.196272	1.416115	-0.000060
N43	N	0.135724	1.457184	-0.000068
N44	N	0.187771	0.914923	0.456227
H45	H	-0.081567	1.054775	-0.000098
H46	H	0.232214	0.870578	0.531473
H47	H	0.099775	1.002733	0.468403
H48	H	-0.230684	1.042782	-0.000070
H49	H	-0.604205	1.076599	-0.000059
Cl50	Cl	-0.439035	1.121553	-0.000017
H51	H	-0.586445	0.818518	-0.000041
Cl52	Cl	-0.416955	0.800467	0.000010
Cl53	Cl	0.029824	1.353700	-0.000082
H54	H	-0.212937	0.784703	-0.000015
H55	H	0.026046	1.706848	-0.000039
Cl56	Cl	-0.043433	0.766654	-0.000024
H57	H	0.047871	1.184209	-0.000060
Cl58	Cl	0.317089	1.705129	-0.000027
H59	H	0.014053	1.557719	-0.000051
Cl60	Cl	0.302175	1.519601	-0.000040
Cl61	Cl	0.350905	1.331615	-0.000053
H62	H	0.305952	1.166452	-0.000074
