data_functionalizedCrystal
_audit_creation_method	'MofGen! by Chris Wilmer'
_symmetry_space_group_name_H-M	'P1'
_symmetry_Int_Tables_number	1
_symmetry_cell_setting	triclinic
loop_
_symmetry_equiv_pos_as_xyz
  x,y,z
_cell_length_a	12.645330
_cell_length_b	17.077404
_cell_length_c	17.077396
_cell_angle_alpha	89.980499
_cell_angle_beta	89.975148
_cell_angle_gamma	90.012610
loop_
_atom_site_label
_atom_site_type_symbol
_atom_site_fract_x
_atom_site_fract_y
_atom_site_fract_z
Zn1	Zn	-0.422033	1.200112	-0.443863
Zn2	Zn	0.077967	1.700112	0.056137
Zn3	Zn	-0.599318	1.200043	-0.312605
Zn4	Zn	-0.099318	1.700043	0.187395
Zn5	Zn	-0.422070	1.068844	-0.312610
Zn6	Zn	0.077930	1.568844	0.187390
Zn7	Zn	-0.599256	1.068836	-0.443828
Zn8	Zn	-0.099256	1.568836	0.056172
O9	O	-0.510669	1.134459	-0.378227
O10	O	-0.010669	1.634459	0.121773
O11	O	-0.445561	1.309950	-0.426463
O12	O	0.054439	1.809950	0.073537
O13	O	-0.575848	1.182614	-0.202759
O14	O	-0.075848	1.682614	0.297241
O15	O	-0.273718	1.086289	-0.330038
O16	O	0.226282	1.586289	0.169962
O17	O	-0.575812	1.309899	-0.330028
O18	O	-0.075812	1.809899	0.169972
O19	O	-0.273691	1.182731	-0.426468
O20	O	0.226309	1.682731	0.073532
O21	O	-0.445624	1.086222	-0.202763
O22	O	0.054376	1.586222	0.297237
O23	O	-0.445563	0.958996	-0.330005
O24	O	0.054437	1.458996	0.169995
O25	O	-0.575705	1.086275	-0.553680
O26	O	-0.075705	1.586275	-0.053680
O27	O	-0.575741	0.958990	-0.426410
O28	O	-0.075741	1.458990	0.073590
O29	O	-0.445500	1.182723	-0.553705
O30	O	0.054500	1.682723	-0.053705
O31	O	-0.747657	1.182606	-0.329995
O32	O	-0.247657	1.682606	0.170005
O33	O	-0.747611	1.086209	-0.426405
O34	O	-0.247611	1.586209	0.073595
C35	C	-0.510650	0.930511	-0.378205
C36	C	-0.010650	1.430511	0.121795
C37	C	-0.510667	0.843261	-0.378214
C38	C	-0.010667	1.343261	0.121786
C39	C	-0.786099	1.134420	-0.378213
C40	C	-0.286099	1.634420	0.121787
C41	C	-0.903929	1.134476	-0.378233
C42	C	-0.403929	1.634476	0.121767
C43	C	-0.578553	0.802288	-0.428332
C44	C	-0.078553	1.302288	0.071668
C45	C	-0.578555	0.720308	-0.428345
C46	C	-0.078555	1.220308	0.071655
C47	C	-0.510677	0.679302	-0.378235
C48	C	-0.010677	1.179302	0.121765
C49	C	-0.442783	0.720280	-0.328115
C50	C	0.057217	1.220280	0.171885
C51	C	-0.442777	0.802259	-0.328107
C52	C	0.057223	1.302259	0.171893
C53	C	-0.442804	0.549410	-0.328134
C54	C	0.057196	1.049410	0.171866
C55	C	-0.442812	0.467425	-0.328141
C56	C	0.057188	0.967425	0.171859
C57	C	-0.578583	0.467459	-0.428371
C58	C	-0.078583	0.967459	0.071629
C59	C	-0.578576	0.549438	-0.428363
C60	C	-0.078576	1.049438	0.071637
C61	C	-0.510684	0.590411	-0.378242
C62	C	-0.010684	1.090411	0.121758
C63	C	-0.948795	1.195189	-0.317634
C64	C	-0.448795	1.695189	0.182366
C65	C	-1.071356	1.195049	-0.317418
C66	C	-0.571356	1.695049	0.182582
C67	C	-1.071936	1.051754	-0.356004
C68	C	-0.571936	1.551754	0.143996
C69	C	-0.949338	1.052066	-0.355543
C70	C	-0.449338	1.552066	0.144457
C71	C	-0.949010	1.155844	-0.461259
C72	C	-0.449010	1.655844	0.038741
C73	C	-1.071615	1.157709	-0.460838
C74	C	-0.571615	1.657709	0.039162
C75	C	-0.234164	1.134519	-0.378258
C76	C	0.265836	1.634519	0.121742
C77	C	-0.116334	1.134544	-0.378271
C78	C	0.383666	1.634544	0.121729
C79	C	-0.510591	1.134506	-0.582971
C80	C	-0.010591	1.634506	-0.082971
C81	C	-0.510558	1.134526	-0.670221
C82	C	-0.010558	1.634526	-0.170221
C83	C	-0.510689	1.339203	-0.378249
C84	C	-0.010689	1.839203	0.121751
C85	C	-0.510698	1.426453	-0.378258
C86	C	-0.010698	1.926453	0.121742
C87	C	-0.442755	1.184749	-0.711225
C88	C	0.057245	1.684749	-0.211225
C89	C	-0.442719	1.184758	-0.793206
C90	C	0.057281	1.684758	-0.293206
C91	C	-0.510493	1.134549	-0.834180
C92	C	-0.010493	1.634549	-0.334180
C93	C	-0.578300	1.084321	-0.793170
C94	C	-0.078300	1.584321	-0.293170
C95	C	-0.578329	1.084308	-0.711191
C96	C	-0.078329	1.584308	-0.211191
C97	C	-0.578236	1.084352	-0.964040
C98	C	-0.078236	1.584352	-0.464040
C99	C	-0.578208	1.084366	-1.046025
C100	C	-0.078208	1.584366	-0.546025
C101	C	-0.442626	1.184802	-1.046055
C102	C	0.057374	1.684802	-0.546055
C103	C	-0.442656	1.184790	-0.964076
C104	C	0.057344	1.684790	-0.464076
C105	C	-0.510464	1.134563	-0.923071
C106	C	-0.010464	1.634563	-0.423071
C107	C	-0.510671	1.134456	-0.174279
C108	C	-0.010671	1.634456	0.325721
C109	C	-0.510405	1.134588	-0.087029
C110	C	-0.010405	1.634588	0.412971
H111	H	-0.633831	0.835670	-0.469135
H112	H	-0.133831	1.335670	0.030865
H113	H	-0.919661	1.005279	-0.397772
H114	H	-0.419661	1.505279	0.102228
H115	H	-0.918058	1.181203	-0.256467
H116	H	-0.418058	1.681203	0.243533
H117	H	-0.919989	1.111629	-0.506408
H118	H	-0.419989	1.611629	-0.006408
H119	H	-0.633479	1.043436	-0.826538
H120	H	-0.133479	1.543436	-0.326538
H121	H	-0.387527	0.434040	-0.287346
H122	H	0.112473	0.934040	0.212654
N123	N	-0.651283	1.030181	-1.090202
N124	N	-0.151283	1.530181	-0.590202
H125	H	-0.608161	0.993826	-1.124204
H126	H	-0.108161	1.493826	-0.624204
H127	H	-0.700411	1.062103	-1.124177
H128	H	-0.200411	1.562103	-0.624177
H129	H	-0.633530	1.043404	-0.677806
H130	H	-0.133530	1.543404	-0.177806
N131	N	-1.112155	1.103456	-0.523845
N132	N	-0.612155	1.603456	-0.023845
H133	H	-1.082122	1.119766	-0.576181
H134	H	-0.582122	1.619766	-0.076181
H135	H	-1.191891	1.106255	-0.525730
H136	H	-0.691891	1.606255	-0.025730
H137	H	-0.387510	1.225656	-0.826588
H138	H	0.112490	1.725656	-0.326588
N139	N	-0.651789	0.676115	-0.482389
N140	N	-0.151789	1.176115	0.017611
H141	H	-0.694799	0.714532	-0.514124
H142	H	-0.194799	1.214532	-0.014124
H143	H	-0.700786	0.642087	-0.450363
H144	H	-0.200786	1.142087	0.049637
H145	H	-0.633855	0.582823	-0.469163
H146	H	-0.133855	1.082823	0.030837
N147	N	-1.110532	0.990218	-0.412676
N148	N	-0.610532	1.490218	0.087324
H149	H	-1.157282	1.015477	-0.453426
H150	H	-0.657282	1.515477	0.046574
H151	H	-1.152162	0.949173	-0.383269
H152	H	-0.652162	1.449173	0.116731
H153	H	-0.387511	0.686886	-0.287318
H154	H	0.112489	1.186886	0.212682
N155	N	-0.651813	0.423273	-0.482430
N156	N	-0.151813	0.923273	0.017570
H157	H	-0.641517	0.365117	-0.474836
H158	H	-0.141517	0.865117	0.025164
H159	H	-0.635415	0.437632	-0.538512
H160	H	-0.135415	0.937632	-0.038512
N161	N	-0.369575	0.593605	-0.274080
N162	N	0.130425	1.093605	0.225920
H163	H	-0.326577	0.555189	-0.242334
H164	H	0.173423	1.055189	0.257666
H165	H	-0.412662	0.627597	-0.237696
H166	H	0.087338	1.127597	0.262304
H167	H	-1.102720	1.033380	-0.295998
H168	H	-0.602720	1.533380	0.204002
H169	H	-0.387492	0.835618	-0.287300
H170	H	0.112508	1.335618	0.212700
N171	N	-0.369478	1.238978	-1.090265
N172	N	0.130522	1.738978	-0.590265
H173	H	-0.412545	1.275351	-1.124283
H174	H	0.087455	1.775351	-0.624283
H175	H	-0.320340	1.207041	-1.124229
H176	H	0.179660	1.707041	-0.624229
N177	N	-1.111125	1.276360	-0.335818
N178	N	-0.611125	1.776360	0.164182
H179	H	-1.049014	1.312617	-0.344145
H180	H	-0.549014	1.812617	0.155855
H181	H	-1.155398	1.296069	-0.290709
H182	H	-0.655398	1.796069	0.209291
H183	H	-1.100761	1.180908	-0.255911
H184	H	-0.600761	1.680908	0.244089
H185	H	-0.920822	1.033986	-0.294859
H186	H	-0.420822	1.533986	0.205141
H187	H	-0.387474	1.225679	-0.930717
H188	H	0.112526	1.725679	-0.430717
H189	H	-1.100625	1.218635	-0.477631
H190	H	-0.600625	1.718635	0.022369
N191	N	-0.909667	1.276731	-0.335833
N192	N	-0.409667	1.776731	0.164167
H193	H	-0.862473	1.275111	-0.383533
H194	H	-0.362473	1.775111	0.116467
H195	H	-0.868382	1.297502	-0.289681
H196	H	-0.368382	1.797502	0.210319
N197	N	-0.651364	1.030176	-0.919811
N198	N	-0.151364	1.530176	-0.419811
H199	H	-0.694298	0.998372	-0.958206
H200	H	-0.194298	1.498372	-0.458206
H201	H	-0.700438	1.062114	-0.885797
H202	H	-0.200438	1.562114	-0.385797
H203	H	-0.387568	1.225638	-0.677870
H204	H	0.112432	1.725638	-0.177870
N205	N	-0.907961	1.234424	-0.488140
N206	N	-0.407961	1.734424	0.011860
H207	H	-0.859717	1.256968	-0.446766
H208	H	-0.359717	1.756968	0.053234
H209	H	-0.969414	1.271122	-0.497045
H210	H	-0.469414	1.771122	0.002955
