data_functionalizedCrystal
_audit_creation_method	'MofGen! by Chris Wilmer'
_symmetry_space_group_name_H-M	'P1'
_symmetry_Int_Tables_number	1
_symmetry_cell_setting	triclinic
loop_
_symmetry_equiv_pos_as_xyz
  x,y,z
_cell_length_a	10.654550
_cell_length_b	11.026607
_cell_length_c	10.065875
_cell_angle_alpha	79.302338
_cell_angle_beta	81.124230
_cell_angle_gamma	83.464540
loop_
_atom_site_label
_atom_site_type_symbol
_atom_site_fract_x
_atom_site_fract_y
_atom_site_fract_z
O1	O	0.512406	-1.632231	0.113491
O2	O	0.452411	-1.278420	0.113493
O3	O	0.301436	-1.463459	0.113487
O4	O	0.663381	-1.447191	0.113497
O5	O	0.330372	-1.428176	-0.113500
O6	O	0.481347	-1.243137	-0.113494
O7	O	0.541343	-1.596947	-0.113496
Zn8	Zn	0.515940	-1.414440	-0.149534
Zn9	Zn	0.477814	-1.460927	0.149531
O10	O	0.692318	-1.411908	-0.113490
C11	C	0.455811	-1.215474	-0.000000
C12	C	0.422816	-1.080483	0.000001
C13	C	0.268847	-1.444623	-0.000005
C14	C	0.128627	-1.441050	-0.000000
C15	C	0.537943	-1.659894	0.000000
C16	C	0.570936	-1.794886	0.000008
C17	C	0.072791	-1.549998	-0.000005
C18	C	-0.058961	-1.546634	0.000005
C19	C	-0.079031	-1.325363	0.000018
C20	C	0.052718	-1.328730	0.000018
C21	C	0.148700	-1.662318	-0.000023
C22	C	0.092866	-1.771275	-0.000030
C23	C	-0.038887	-1.767911	-0.000020
C24	C	-0.114805	-1.655590	-0.000004
C25	C	0.724907	-1.430744	0.000005
C26	C	0.865125	-1.434319	0.000009
N27	N	0.541960	-1.382723	-0.353639
C28	C	0.513919	-1.007444	0.000004
C29	C	0.479820	-0.867923	0.000005
C30	C	0.486858	-1.449884	-0.421420
C31	C	0.506896	-1.425483	-0.578586
N32	N	0.451786	-1.492654	0.353636
H33	H	0.255982	-1.665069	-0.000035
F34	F	0.287871	-1.027211	-0.000012
H35	H	0.389766	-1.568219	-0.588046
F36	F	0.705892	-0.848146	-0.000004
H37	H	0.603965	-1.307154	-0.411963
H38	H	-0.222088	-1.652862	0.000018
H39	H	-0.140853	-1.233917	0.000029
F40	F	0.112146	-1.212776	0.000024
H41	H	0.376568	-0.827174	0.000037
F42	F	0.405534	-1.548436	-0.345193
H43	H	0.617161	-1.048204	-0.000001
F44	F	0.173661	-1.890810	-0.000031
F45	F	0.587946	-1.326702	-0.654809
H46	H	-0.084345	-1.856631	-0.000011
