data_functionalizedCrystal
_audit_creation_method	'MofGen! by Chris Wilmer'
_symmetry_space_group_name_H-M	'P1'
_symmetry_Int_Tables_number	1
_symmetry_cell_setting	triclinic
loop_
_symmetry_equiv_pos_as_xyz
  x,y,z
_cell_length_a	16.109301
_cell_length_b	8.597304
_cell_length_c	14.586319
_cell_angle_alpha	82.296329
_cell_angle_beta	89.998857
_cell_angle_gamma	84.403059
loop_
_atom_site_label
_atom_site_type_symbol
_atom_site_fract_x
_atom_site_fract_y
_atom_site_fract_z
O1	O	1.104800	0.201732	-0.092121
O2	O	0.862945	0.226837	-0.094117
O3	O	0.988632	-0.014185	-0.075070
O4	O	0.979113	0.442754	-0.111168
O5	O	0.988623	-0.014188	0.077411
O6	O	0.862937	0.226833	0.058365
O7	O	1.104791	0.201729	0.060360
Cu8	Cu	0.983863	0.214281	0.073285
Cu9	Cu	0.983873	0.214285	-0.107042
O10	O	0.979104	0.442750	0.041313
C11	C	0.831958	0.225818	-0.017797
C12	C	0.739637	0.222769	-0.017561
C13	C	0.431740	0.355819	-0.028056
C14	C	0.518484	0.358699	-0.028289
C15	C	0.535991	0.072735	-0.005710
C16	C	0.449249	0.069857	-0.005484
C17	C	0.397125	0.211404	-0.016653
C18	C	0.570611	0.217161	-0.017112
C19	C	0.664663	0.220282	-0.017364
C20	C	0.303067	0.208284	-0.016402
C21	C	0.987605	-0.072658	0.005788
C22	C	0.984548	-0.246883	0.019545
C23	C	1.135779	0.202747	-0.015961
C24	C	1.228099	0.205796	-0.016203
C25	C	0.980131	0.501223	-0.039546
C26	C	0.983188	0.675448	-0.053310
N27	N	0.983862	0.214277	0.200117
N28	N	0.983881	0.214276	-0.233873
C29	C	1.039535	0.107588	0.443555
C30	C	1.039537	0.107584	0.539536
C31	C	0.928202	0.320970	0.522683
C32	C	0.928197	0.320965	0.426704
C33	C	0.983867	0.214276	0.387142
C34	C	0.983875	0.214277	0.579103
C35	C	0.983878	0.214274	0.683170
C36	C	0.983864	0.214277	0.283068
H37	H	0.389303	0.471076	-0.037151
H38	H	0.578441	-0.042507	0.003385
H39	H	0.421066	-0.047750	0.003799
H40	H	0.984359	-0.257759	-0.126215
C41	C	0.982837	-0.336095	0.116713
C42	C	0.909852	-0.412406	0.127513
C43	C	0.908249	-0.494615	0.217006
H44	H	0.984054	-0.264170	0.160660
H45	H	1.030040	-0.412049	0.126140
H46	H	0.862662	-0.336460	0.118096
H47	H	0.908620	-0.484355	0.083588
H48	H	0.955452	-0.570569	0.226433
H49	H	0.909469	-0.422680	0.260945
H50	H	0.858734	-0.546413	0.224343
H51	H	0.546663	0.476296	-0.037575
H52	H	1.084864	0.020713	0.411346
H53	H	1.084865	0.020708	0.585466
H54	H	0.882877	0.407836	0.554904
H55	H	0.882862	0.407844	0.380769
