data_functionalizedCrystal
_audit_creation_method	'MofGen! by Chris Wilmer'
_symmetry_space_group_name_H-M	'P1'
_symmetry_Int_Tables_number	1
_symmetry_cell_setting	triclinic
loop_
_symmetry_equiv_pos_as_xyz
  x,y,z
_cell_length_a	15.297475
_cell_length_b	16.120484
_cell_length_c	15.297908
_cell_angle_alpha	102.994106
_cell_angle_beta	72.640407
_cell_angle_gamma	83.687474
loop_
_atom_site_label
_atom_site_type_symbol
_atom_site_fract_x
_atom_site_fract_y
_atom_site_fract_z
Zn1	Zn	1.479999	-0.697536	-0.803988
Zn2	Zn	1.447826	-0.807759	-0.653616
Zn3	Zn	1.300320	-0.639188	-0.618910
Zn4	Zn	1.319279	-0.807685	-0.782212
O5	O	1.386856	-0.738042	-0.714682
O6	O	1.604725	-0.736608	-0.807679
O7	O	1.406860	-0.761010	-0.517739
O8	O	1.329685	-0.530282	-0.638050
O9	O	1.581087	-0.817588	-0.697201
O10	O	1.461695	-0.573151	-0.774026
O11	O	1.298488	-0.637161	-0.492240
O12	O	1.173841	-0.637089	-0.616935
O13	O	1.361998	-0.817462	-0.916375
O14	O	1.187771	-0.760883	-0.736912
O15	O	1.480079	-0.736536	-0.932373
O16	O	1.425244	-0.924395	-0.676086
O17	O	1.330801	-0.924340	-0.770565
C18	C	1.147359	-0.692647	-0.670795
C19	C	1.044904	-0.673251	-0.652043
C20	C	1.376617	-0.954621	-0.724754
C21	C	1.372326	-1.047296	-0.729109
C22	C	0.785135	-0.876674	-0.848706
C23	C	0.881396	-0.894903	-0.866322
C24	C	0.922278	-0.839492	-0.812754
C25	C	0.866889	-0.765848	-0.741567
C26	C	0.770618	-0.747621	-0.723944
C27	C	0.907761	-0.710439	-0.687992
C28	C	0.852372	-0.636795	-0.616805
C29	C	0.756111	-0.618571	-0.599186
C30	C	0.715229	-0.673982	-0.652754
C31	C	1.004032	-0.728666	-0.705615
C32	C	0.989515	-0.599613	-0.580853
C33	C	0.893254	-0.581384	-0.563237
C34	C	1.364500	-1.216979	-0.737082
C35	C	1.409380	-1.258299	-0.692327
C36	C	1.405026	-1.352716	-0.696763
C37	C	1.368853	-1.122553	-0.732647
C38	C	1.627288	-0.783615	-0.758741
C39	C	1.729746	-0.803035	-0.777516
C40	C	1.426742	-0.783499	-0.959363
C41	C	1.443739	-0.802871	-1.063632
C42	C	1.397164	-0.520626	-0.704596
C43	C	1.401556	-0.427976	-0.700298
C44	C	1.265966	-0.599553	-1.304456
C45	C	1.249998	-0.581345	-1.206490
C46	C	1.298431	-0.636725	-1.170770
C47	C	1.362836	-0.710316	-1.233027
C48	C	1.378811	-0.728522	-1.331003
C49	C	1.411277	-0.765694	-1.197318
C50	C	1.475681	-0.839285	-1.259574
C51	C	1.491652	-0.857488	-1.357540
C52	C	1.443219	-0.802108	-1.393260
C53	C	1.395302	-0.747488	-1.099342
C54	C	1.508147	-0.876457	-1.125889
C55	C	1.524115	-0.894665	-1.223855
C56	C	1.347181	-0.692712	-0.470959
C57	C	1.330374	-0.673139	-0.366712
H58	H	1.049121	-0.788627	-0.763577
Br59	Br	1.478870	-1.199074	-0.622910
Br60	Br	0.680940	-0.518633	-0.502565
Br61	Br	0.818075	-0.481440	-0.466631
H62	H	1.322809	-1.252512	-0.778724
H63	H	1.342864	-0.687568	-1.048662
Br64	Br	0.584585	-0.649239	-0.628857
Br65	Br	1.573888	-0.951616	-1.077422
H66	H	1.285426	-0.621896	-1.091002
Br67	Br	1.200253	-0.524397	-1.352938
H68	H	1.197559	-0.521428	-1.155807
Br69	Br	1.464870	-0.826829	-1.526216
Br70	Br	1.052920	-0.864231	-0.836664
H71	H	1.576555	-0.954582	-1.274557
Br72	Br	0.956558	-0.994846	-0.962925
Br73	Br	0.729643	-0.951883	-0.921373
H74	H	1.544102	-0.917406	-1.408229
H75	H	1.022800	-0.554493	-0.537232
