data_functionalizedCrystal
_audit_creation_method	'MofGen! by Chris Wilmer'
_symmetry_space_group_name_H-M	'P1'
_symmetry_Int_Tables_number	1
_symmetry_cell_setting	triclinic
loop_
_symmetry_equiv_pos_as_xyz
  x,y,z
_cell_length_a	19.805407
_cell_length_b	25.639239
_cell_length_c	19.805399
_cell_angle_alpha	89.971274
_cell_angle_beta	89.980427
_cell_angle_gamma	90.038686
loop_
_atom_site_label
_atom_site_type_symbol
_atom_site_fract_x
_atom_site_fract_y
_atom_site_fract_z
Zn1	Zn	1.034678	-0.208163	-0.382714
Zn2	Zn	1.034569	-0.295597	-0.269524
Zn3	Zn	0.921493	-0.208177	-0.269539
Zn4	Zn	0.921432	-0.295569	-0.382670
O5	O	0.978043	-0.251877	-0.326112
O6	O	1.129380	-0.219767	-0.367711
O7	O	1.019548	-0.284018	-0.174809
O8	O	0.936578	-0.135010	-0.284576
O9	O	1.129300	-0.284004	-0.284551
O10	O	1.019735	-0.135000	-0.367726
O11	O	0.936472	-0.219791	-0.174820
O12	O	0.826768	-0.219764	-0.284534
O13	O	0.936475	-0.283957	-0.477393
O14	O	0.826723	-0.283971	-0.367651
O15	O	1.019676	-0.219740	-0.477425
O16	O	1.019489	-0.368758	-0.284508
O17	O	0.936368	-0.368738	-0.367637
C18	C	0.802187	-0.251867	-0.326090
C19	C	0.726955	-0.251875	-0.326097
C20	C	0.977929	-0.387719	-0.326081
C21	C	0.977942	-0.445833	-0.326090
C22	C	0.691605	-0.285357	-0.369306
C23	C	0.620917	-0.285358	-0.369315
C24	C	0.585579	-0.251879	-0.326112
C25	C	0.620934	-0.218393	-0.282901
C26	C	0.691621	-0.218390	-0.282895
C27	C	0.335860	-0.218404	-0.282923
C28	C	0.265168	-0.218411	-0.282931
C29	C	0.265156	-0.285373	-0.369343
C30	C	0.335843	-0.285370	-0.369338
C31	C	0.371192	-0.251882	-0.326129
C32	C	0.447840	-0.251881	-0.326121
C33	C	0.508932	-0.251883	-0.326117
C34	C	1.021437	-0.806194	-0.282901
C35	C	1.021463	-0.860799	-0.282910
O36	O	1.058326	-0.889034	-0.246154
N37	N	0.978162	-0.888116	-0.326157
C38	C	0.934836	-0.860825	-0.369402
O39	O	0.898008	-0.889075	-0.406189
C40	C	0.934814	-0.806222	-0.369396
C41	C	0.978113	-0.778908	-0.326141
C42	C	1.064733	-0.778880	-0.239650
C43	C	1.064706	-0.724279	-0.239640
C44	C	1.021382	-0.696993	-0.282881
C45	C	0.978086	-0.724307	-0.326132
C46	C	0.891492	-0.778933	-0.412645
C47	C	0.891474	-0.724326	-0.412635
C48	C	0.934773	-0.697012	-0.369381
C49	C	0.934735	-0.642421	-0.369363
N50	N	0.978036	-0.615104	-0.326116
C51	C	1.021360	-0.642390	-0.282875
C52	C	0.934887	-0.975496	-0.369413
C53	C	0.934906	-1.030098	-0.369416
C54	C	1.021533	-1.030068	-0.282924
C55	C	1.021511	-0.975464	-0.282918
C56	C	0.978188	-0.948179	-0.326166
C57	C	1.021299	-0.527725	-0.282857
C58	C	1.021266	-0.473119	-0.282849
C59	C	0.934641	-0.473155	-0.369343
C60	C	0.934671	-0.527756	-0.369349
C61	C	0.978006	-0.555039	-0.326104
O62	O	0.897893	-0.614151	-0.406101
O63	O	1.058188	-0.614134	-0.246101
C64	C	1.154585	-0.251887	-0.326134
C65	C	1.229817	-0.251891	-0.326144
C66	C	0.978081	-0.251844	-0.502655
C67	C	0.978097	-0.251830	-0.577887
C68	C	0.978175	-0.115504	-0.326158
C69	C	0.978232	-0.057389	-0.326177
C70	C	1.021421	-0.218390	-0.613249
C71	C	1.021428	-0.218375	-0.683937
C72	C	0.978114	-0.251802	-0.719262
C73	C	0.934785	-0.285243	-0.683895
C74	C	0.934775	-0.285255	-0.613208
C75	C	0.934823	-0.285194	-0.968969
C76	C	0.934838	-0.285181	-1.039661
C77	C	1.021476	-0.218314	-1.039698
C78	C	1.021466	-0.218326	-0.969011
C79	C	0.978135	-0.251765	-0.933650
C80	C	0.978127	-0.251780	-0.857001
C81	C	0.978125	-0.251790	-0.795909
C82	C	0.978044	-0.251872	-0.150256
C83	C	0.978159	-0.251738	-0.075024
H84	H	0.720372	-0.312622	-0.404485
H85	H	0.899415	-0.549996	-0.404573
H86	H	1.056739	-0.191108	-0.940252
H87	H	0.720402	-0.191122	-0.247713
H88	H	0.236367	-0.312639	-0.404528
C89	C	1.069145	-0.945421	-0.235342
C90	C	1.063672	-0.952971	-0.158393
C91	C	1.111309	-0.922931	-0.110816
C92	C	1.164420	-0.885341	-0.140189
C93	C	1.169896	-0.877789	-0.217142
C94	C	1.122258	-0.907830	-0.264719
H95	H	1.024354	-0.980799	-0.136646
H96	H	1.107255	-0.928521	-0.053850
H97	H	1.199684	-0.863104	-0.104970
H98	H	1.209213	-0.849962	-0.238889
H99	H	1.126312	-0.902239	-0.321685
H100	H	0.899515	-0.312458	-0.712663
H101	H	0.899489	-0.312480	-0.584417
H102	H	0.592138	-0.312624	-0.404500
H103	H	0.899641	-1.052333	-0.404632
C104	C	1.068900	-0.443075	-0.235268
C105	C	1.063429	-0.450629	-0.158320
C106	C	1.111062	-0.420587	-0.110741
C107	C	1.164167	-0.382991	-0.140111
C108	C	1.169641	-0.375435	-0.217064
C109	C	1.122007	-0.405477	-0.264642
H110	H	1.024115	-0.478462	-0.136575
H111	H	1.107010	-0.426181	-0.053776
H112	H	1.199428	-0.360753	-0.104891
H113	H	1.208954	-0.347603	-0.238809
H114	H	1.126059	-0.399884	-0.321608
H115	H	0.899603	-0.953283	-0.404628
C116	C	0.886989	-0.443132	-0.416908
C117	C	0.833855	-0.405645	-0.387524
C118	C	0.786207	-0.375619	-0.435093
C119	C	0.791694	-0.383081	-0.512045
C120	C	0.844830	-0.420569	-0.541432
C121	C	0.892478	-0.450595	-0.493864
H122	H	0.829791	-0.400120	-0.330556
H123	H	0.746872	-0.347868	-0.413338
H124	H	0.756423	-0.360854	-0.547258
H125	H	0.848894	-0.426094	-0.598400
H126	H	0.931813	-0.478347	-0.515619
C127	C	0.843864	-0.808967	-0.460232
C128	C	0.766919	-0.801513	-0.454646
C129	C	0.719288	-0.831544	-0.502238
C130	C	0.748602	-0.869029	-0.555417
C131	C	0.825551	-0.876485	-0.561005
C132	C	0.873181	-0.846453	-0.513413
H133	H	0.745216	-0.773763	-0.415278
H134	H	0.662326	-0.826025	-0.498101
H135	H	0.713343	-0.891260	-0.590647
H136	H	0.847254	-0.904235	-0.600373
H137	H	0.930144	-0.851973	-0.517550
H138	H	1.100016	-0.801091	-0.204438
H139	H	0.236399	-0.191145	-0.247749
C140	C	1.069198	-1.060088	-0.235363
C141	C	1.063726	-1.052629	-0.158409
C142	C	1.111388	-1.082651	-0.110852
C143	C	1.164523	-1.120131	-0.140247
C144	C	1.169997	-1.127592	-0.217205
C145	C	1.122335	-1.097571	-0.264763
H146	H	1.024390	-1.024882	-0.136645
H147	H	1.107335	-1.077127	-0.053883
H148	H	1.199805	-1.142355	-0.105042
H149	H	1.209333	-1.155339	-0.238969
H150	H	1.126388	-1.103094	-0.321732
H151	H	1.056587	-0.549933	-0.247644
H152	H	0.364612	-0.312634	-0.404516
C153	C	0.374738	-0.181584	-0.235376
C154	C	0.335866	-0.144770	-0.187839
C155	C	0.374746	-0.107953	-0.140281
C156	C	0.452499	-0.107951	-0.140260
C157	C	0.491376	-0.144766	-0.187798
C158	C	0.452495	-0.181583	-0.235356
H159	H	0.278304	-0.144770	-0.187854
H160	H	0.345967	-0.080700	-0.105090
H161	H	0.481281	-0.080697	-0.105055
H162	H	0.548938	-0.144766	-0.187784
H163	H	0.481275	-0.208836	-0.270547
C164	C	0.887139	-0.321959	-0.930078
C165	C	0.887098	-0.321961	-0.852325
C166	C	0.839399	-0.358718	-0.813430
C167	C	0.791740	-0.395474	-0.852289
C168	C	0.791779	-0.395474	-0.930047
C169	C	0.839478	-0.358717	-0.968941
H170	H	0.922380	-0.294751	-0.823555
H171	H	0.839371	-0.358718	-0.755869
H172	H	0.756431	-0.422684	-0.823497
H173	H	0.756497	-0.422684	-0.958816
H174	H	0.839506	-0.358717	-1.026502
C175	C	1.112344	-0.694241	-0.192064
C176	C	1.106876	-0.701797	-0.115116
C177	C	1.154520	-0.671764	-0.067538
C178	C	1.207632	-0.634174	-0.096910
C179	C	1.213102	-0.626616	-0.173862
C180	C	1.165458	-0.656649	-0.221439
H181	H	1.067558	-0.729625	-0.093370
H182	H	1.150471	-0.677359	-0.010573
H183	H	1.242901	-0.611941	-0.061690
H184	H	1.252420	-0.598788	-0.195608
H185	H	1.169507	-0.651054	-0.278405
C186	C	0.843814	-0.694312	-0.460207
C187	C	0.766876	-0.701887	-0.454613
C188	C	0.719216	-0.671875	-0.502182
C189	C	0.748493	-0.634287	-0.555344
C190	C	0.825435	-0.626711	-0.560940
C191	C	0.873096	-0.656723	-0.513372
H192	H	0.745200	-0.729713	-0.415257
H193	H	0.662258	-0.677483	-0.498039
H194	H	0.713212	-0.612070	-0.590558
H195	H	0.847112	-0.598885	-0.600297
H196	H	0.930053	-0.651115	-0.517515
H197	H	1.056694	-0.191171	-0.584492
C198	C	1.069083	-0.181590	-0.722835
C199	C	1.116730	-0.144822	-0.683980
C200	C	1.164385	-0.108033	-0.722878
C201	C	1.164394	-0.108011	-0.800631
C202	C	1.116745	-0.144781	-0.839491
C203	C	1.069090	-0.181570	-0.800593
H204	H	1.116725	-0.144836	-0.626419
H205	H	1.199657	-0.080814	-0.694111
H206	H	1.199671	-0.080778	-0.829426
H207	H	1.116750	-0.144766	-0.897052
H208	H	1.033818	-0.208789	-0.829360
H209	H	0.899563	-0.312402	-1.068421
H210	H	0.592156	-0.191131	-0.247727
H211	H	1.056756	-0.191085	-1.068497
