data_functionalizedCrystal
_audit_creation_method	'MofGen! by Chris Wilmer'
_symmetry_space_group_name_H-M	'P1'
_symmetry_Int_Tables_number	1
_symmetry_cell_setting	triclinic
loop_
_symmetry_equiv_pos_as_xyz
  x,y,z
_cell_length_a	8.559649
_cell_length_b	14.853567
_cell_length_c	7.681481
_cell_angle_alpha	84.253558
_cell_angle_beta	94.913240
_cell_angle_gamma	76.706797
loop_
_atom_site_label
_atom_site_type_symbol
_atom_site_fract_x
_atom_site_fract_y
_atom_site_fract_z
O1	O	2.104976	-0.021001	-0.146403
O2	O	1.639875	0.025551	-0.146407
O3	O	1.884849	-0.129824	-0.146410
O4	O	1.860003	0.134373	-0.146400
O5	O	1.915001	-0.148986	0.146447
O6	O	1.670027	0.006388	0.146451
O7	O	2.135128	-0.040164	0.146455
Zn8	Zn	1.907365	-0.019930	0.192950
Zn9	Zn	1.867638	0.005317	-0.192902
O10	O	1.890155	0.115211	0.146458
C11	C	1.595429	0.019498	0.000021
C12	C	1.418072	0.029999	0.000019
C13	C	1.898798	-0.172914	0.000014
C14	C	1.895423	-0.272761	-0.000002
C15	C	1.735645	-0.674122	0.000030
C16	C	2.026680	-0.715759	0.000033
C17	C	2.029851	-0.621946	0.000022
C18	C	1.885917	-0.554217	0.000019
C19	C	1.738812	-0.580300	0.000025
C20	C	2.176955	-0.595857	0.000034
C21	C	2.180132	-0.502039	0.000025
C22	C	2.036196	-0.434307	0.000009
C23	C	1.889085	-0.460395	0.000014
C24	C	1.745151	-0.392666	0.000010
C25	C	1.598037	-0.418751	0.000002
C26	C	1.594876	-0.512568	0.000009
C27	C	2.039357	-0.340490	0.000002
C28	C	1.748318	-0.298844	0.000005
C29	C	2.179574	-0.034110	0.000023
C30	C	2.356930	-0.044611	0.000013
C31	C	1.876205	0.158302	0.000030
C32	C	1.879579	0.258149	0.000034
N33	N	1.934489	-0.037162	0.456284
N34	N	1.840527	0.022541	-0.456236
H35	H	1.440266	-0.116520	0.000002
C36	C	2.341958	-0.473353	0.000021
N37	N	2.463845	-0.451746	0.000010
C38	C	2.064085	-0.119492	0.557877
N39	N	2.161692	-0.181503	0.634399
H40	H	1.334725	0.101914	0.000012
C41	C	1.439715	-0.344238	-0.000002
N42	N	1.320471	-0.288111	-0.000008
H43	H	2.159136	-0.319256	0.000020
C44	C	1.433068	-0.541273	0.000037
N45	N	1.311198	-0.562899	0.000073
C46	C	2.335272	-0.670363	0.000050
N47	N	2.454522	-0.726487	0.000060
H48	H	1.631107	-0.243703	-0.000006
H49	H	1.615868	-0.695364	0.000017
C50	C	1.710937	0.104867	0.442178
N51	N	1.613326	0.166874	0.365652
H52	H	2.143865	-0.770909	0.000050
