data_functionalizedCrystal
_audit_creation_method	'MofGen! by Chris Wilmer'
_symmetry_space_group_name_H-M	'P1'
_symmetry_Int_Tables_number	1
_symmetry_cell_setting	triclinic
loop_
_symmetry_equiv_pos_as_xyz
  x,y,z
_cell_length_a	19.188930
_cell_length_b	15.538191
_cell_length_c	17.666332
_cell_angle_alpha	90.007318
_cell_angle_beta	89.990387
_cell_angle_gamma	114.791562
loop_
_atom_site_label
_atom_site_type_symbol
_atom_site_fract_x
_atom_site_fract_y
_atom_site_fract_z
O1	O	-0.227003	-1.250849	-0.062934
O2	O	0.272997	-0.750849	0.437066
O3	O	-0.146301	-0.976258	-0.062942
O4	O	0.353699	-0.476258	0.437058
O5	O	-0.290298	-1.121478	-0.062923
O6	O	0.209702	-0.621478	0.437077
O7	O	-0.083006	-1.105630	-0.062953
O8	O	0.416994	-0.605630	0.437047
O9	O	-0.290296	-1.121461	0.062974
O10	O	0.209704	-0.621461	0.562974
O11	O	-0.146299	-0.976241	0.062955
O12	O	0.353701	-0.476241	0.562955
O13	O	-0.227001	-1.250833	0.062962
O14	O	0.272999	-0.750833	0.562962
Cu15	Cu	-0.186650	-1.113535	0.074454
Cu16	Cu	0.313350	-0.613535	0.574454
Cu17	Cu	-0.186652	-1.113555	-0.074434
Cu18	Cu	0.313348	-0.613555	0.425566
O19	O	-0.083004	-1.105613	0.062944
O20	O	0.416996	-0.605613	0.562944
C21	C	-0.316179	-1.120956	0.000027
C22	C	0.183821	-0.620956	0.500027
C23	C	-0.393297	-1.119416	0.000034
C24	C	0.106703	-0.619416	0.500034
C25	C	-0.137857	-0.941119	0.000006
C26	C	0.362143	-0.441119	0.500006
C27	C	-0.112706	-0.836442	0.000003
C28	C	0.387294	-0.336442	0.500003
C29	C	-0.235446	-1.285971	0.000013
C30	C	0.264554	-0.785971	0.500013
C31	C	-0.260596	-1.390649	0.000010
C32	C	0.239404	-0.890649	0.500010
C33	C	-0.459623	-1.204626	0.000040
C34	C	0.040377	-0.704626	0.500040
C35	C	-0.532083	-1.203178	0.000028
C36	C	-0.032083	-0.703178	0.500028
C37	C	-0.538213	-1.116516	0.000025
C38	C	-0.038213	-0.616516	0.500025
C39	C	-0.471874	-1.031295	0.000014
C40	C	0.028126	-0.531295	0.500014
C41	C	-0.399416	-1.032744	0.000019
C42	C	0.100584	-0.532744	0.500019
N43	N	-0.629579	-1.050267	0.042868
N44	N	-0.129579	-0.550267	0.542868
N45	N	-0.698413	-1.048896	0.042865
N46	N	-0.198413	-0.548896	0.542865
C47	C	-0.756523	-1.112143	0.000009
C48	C	-0.256523	-0.612143	0.500009
N49	N	-0.743203	-1.176827	-0.042834
N50	N	-0.243203	-0.676827	0.457166
N51	N	-0.674364	-1.178201	-0.042828
N52	N	-0.174364	-0.678201	0.457172
C53	C	-0.616778	-1.114934	0.000019
C54	C	-0.116778	-0.614934	0.500019
C55	C	-0.901421	-1.195789	0.000001
C56	C	-0.401421	-0.695789	0.500001
C57	C	-0.973881	-1.194338	-0.000016
C58	C	-0.473881	-0.694338	0.499984
C59	C	-0.913670	-1.022452	-0.000021
C60	C	-0.413670	-0.522452	0.499979
C61	C	-0.841212	-1.023905	-0.000012
C62	C	-0.341212	-0.523905	0.499988
C63	C	-0.835093	-1.110577	0.000003
C64	C	-0.335093	-0.610577	0.500003
C65	C	-0.057123	-1.106134	-0.000009
C66	C	0.442877	-0.606134	0.499991
C67	C	0.019994	-1.107675	-0.000020
C68	C	0.519994	-0.607675	0.499980
N69	N	-0.186651	-1.113528	0.179173
N70	N	0.313349	-0.613528	0.679173
C71	C	-0.362571	-0.549681	0.000028
C72	C	0.137429	-0.049681	0.500028
C73	C	-0.338920	-0.451318	0.000024
C74	C	0.161080	0.048682	0.500024
C75	C	-0.205892	-0.428327	0.000005
C76	C	0.294108	0.071673	0.500005
C77	C	-0.229531	-0.526690	0.000012
C78	C	0.270469	-0.026690	0.500012
C79	C	-0.307872	-0.587360	0.000023
C80	C	0.192128	-0.087360	0.500023
C81	C	-0.174832	-0.564369	0.000008
C82	C	0.325168	-0.064369	0.500008
C83	C	-0.198470	-0.662724	0.000011
C84	C	0.301530	-0.162724	0.500011
C85	C	-0.276807	-0.723399	0.000020
C86	C	0.223193	-0.223399	0.500020
C87	C	-0.331509	-0.685715	0.000027
C88	C	0.168491	-0.185715	0.500027
C89	C	-0.096492	-0.503697	-0.000008
C90	C	0.403508	-0.003697	0.499992
C91	C	-0.041793	-0.541376	-0.000013
C92	C	0.458207	-0.041376	0.499987
C93	C	-0.065430	-0.639733	-0.000004
C94	C	0.434570	-0.139733	0.499996
C95	C	-0.143767	-0.700408	0.000004
C96	C	0.356233	-0.200408	0.500004
C97	C	-0.010728	-0.677417	-0.000011
C98	C	0.489272	-0.177417	0.499989
C99	C	-0.034366	-0.775772	-0.000007
C100	C	0.465634	-0.275772	0.499993
C101	C	-0.167405	-0.798763	0.000008
C102	C	0.332595	-0.298763	0.500008
C103	C	-0.250406	-1.177871	0.781232
C104	C	0.249594	-0.677871	1.281232
C105	C	-0.250405	-1.177873	0.701984
C106	C	0.249595	-0.677873	1.201984
C107	C	-0.186657	-1.113553	0.662355
C108	C	0.313343	-0.613553	1.162355
C109	C	-0.122898	-1.049243	0.701980
C110	C	0.377102	-0.549243	1.201980
C111	C	-0.122897	-1.049250	0.781226
C112	C	0.377103	-0.549250	1.281226
N113	N	-0.156641	-1.030071	0.537939
N114	N	0.343359	-0.530071	1.037939
N115	N	-0.156646	-1.030068	0.462659
N116	N	0.343354	-0.530068	0.962659
C117	C	-0.186653	-1.113532	0.423591
C118	C	0.313347	-0.613532	0.923591
N119	N	-0.216669	-1.197002	0.462647
N120	N	0.283331	-0.697002	0.962647
N121	N	-0.216668	-1.197004	0.537935
N122	N	0.283332	-0.697004	1.037935
C123	C	-0.186650	-1.113540	0.576426
C124	C	0.313350	-0.613540	1.076426
C125	C	-0.250405	-1.177844	0.298046
C126	C	0.249595	-0.677844	0.798046
C127	C	-0.250400	-1.177847	0.218797
C128	C	0.249600	-0.677847	0.718797
C129	C	-0.122894	-1.049210	0.218794
C130	C	0.377106	-0.549210	0.718794
C131	C	-0.122898	-1.049215	0.298042
C132	C	0.377102	-0.549215	0.798042
C133	C	-0.186657	-1.113531	0.337663
C134	C	0.313343	-0.613531	0.837663
N135	N	-0.186657	-1.113566	0.820847
N136	N	0.313343	-0.613566	1.320847
H137	H	-0.454647	-1.275200	0.000049
H138	H	0.045353	-0.775200	0.500049
H139	H	-1.027887	-1.263730	-0.000015
H140	H	-0.527887	-0.763730	0.499985
H141	H	-0.231198	-0.848165	0.000021
H142	H	0.268802	-0.348165	0.500021
H143	H	-0.302321	-1.230218	0.330307
H144	H	0.197679	-0.730218	0.830307
C145	C	-0.920405	-0.927125	-0.000027
C146	C	-0.420405	-0.427125	0.499973
H147	H	-0.973058	-0.938464	-0.000026
H148	H	-0.473058	-0.438464	0.499974
H149	H	-0.896152	-0.892057	-0.043930
H150	H	-0.396152	-0.392057	0.456070
H151	H	-0.896170	-0.892046	0.043881
H152	H	-0.396170	-0.392046	0.543881
H153	H	-0.787206	-0.954518	-0.000013
H154	H	-0.287206	-0.454518	0.499987
H155	H	-0.586095	-1.272569	0.000029
H156	H	-0.086095	-0.772569	0.500029
H157	H	-0.426363	-0.599082	0.000041
H158	H	0.073637	-0.099082	0.500041
C159	C	-0.478615	-0.935969	0.000014
C160	C	0.021385	-0.435969	0.500014
H161	H	-0.531268	-0.947308	0.000020
H162	H	-0.031268	-0.447308	0.500020
H163	H	-0.454366	-0.900900	-0.043890
H164	H	0.045634	-0.400900	0.456110
H165	H	-0.454377	-0.900891	0.043922
H166	H	0.045623	-0.400891	0.543922
H167	H	-0.345410	-0.963354	0.000014
H168	H	0.154590	-0.463354	0.500014
C169	C	-0.052769	-0.978460	0.175215
C170	C	0.447231	-0.478460	0.675215
H171	H	-0.014799	-0.940164	0.210162
H172	H	0.485201	-0.440164	0.710162
H173	H	-0.067977	-0.939310	0.144308
H174	H	0.432023	-0.439310	0.644308
H175	H	-0.032256	-1.012266	0.144295
H176	H	0.467744	-0.512266	0.644295
H177	H	-0.070989	-0.996848	0.330299
H178	H	0.429011	-0.496848	0.830299
H179	H	-0.296051	-0.803486	0.000013
H180	H	0.203949	-0.303486	0.500013
C181	C	-0.417683	-0.752457	0.000035
C182	C	0.082317	-0.252457	0.500035
H183	H	-0.446878	-0.715933	0.000033
H184	H	0.053122	-0.215933	0.500033
H185	H	-0.429671	-0.791303	0.043936
H186	H	0.070329	-0.291303	0.543936
H187	H	-0.429662	-0.791303	-0.043875
H188	H	0.070338	-0.291303	0.456125
H189	H	-0.383469	-0.420645	0.000026
H190	H	0.116531	0.079355	0.500026
H191	H	-0.896438	-1.266362	0.000009
H192	H	-0.396438	-0.766362	0.500009
C193	C	-0.119724	-0.361586	-0.000002
C194	C	0.380276	0.138414	0.499998
H195	H	-0.113479	-0.297613	0.000001
H196	H	0.386521	0.202387	0.500001
H197	H	-0.096261	-0.372988	-0.043904
H198	H	0.403739	0.127012	0.456096
H199	H	-0.096272	-0.372976	0.043907
H200	H	0.403728	0.127024	0.543907
H201	H	-0.077249	-0.423611	-0.000014
H202	H	0.422751	0.076389	0.499986
H203	H	0.021992	-0.491966	-0.000025
H204	H	0.521992	0.008034	0.499975
C205	C	0.075441	-0.610679	-0.000033
C206	C	0.575441	-0.110679	0.499967
H207	H	0.104633	-0.647206	-0.000041
H208	H	0.604633	-0.147206	0.499959
H209	H	0.087434	-0.571816	0.043863
H210	H	0.587434	-0.071816	0.543863
H211	H	0.087419	-0.571850	-0.043948
H212	H	0.587419	-0.071850	0.456052
C213	C	0.025801	-0.817223	-0.000012
C214	C	0.525801	-0.317223	0.499988
H215	H	0.075842	-0.767004	-0.000013
H216	H	0.575842	-0.267004	0.499987
H217	H	0.019343	-0.855120	-0.043915
H218	H	0.519343	-0.355120	0.456085
H219	H	0.019343	-0.855107	0.043897
H220	H	0.519343	-0.355107	0.543897
C221	C	-0.320532	-1.248628	0.824811
C222	C	0.179468	-0.748628	1.324811
H223	H	-0.358496	-1.286933	0.789863
H224	H	0.141504	-0.786933	1.289863
H225	H	-0.341047	-1.214838	0.855740
H226	H	0.158953	-0.714838	1.355740
H227	H	-0.305314	-1.287782	0.855709
H228	H	0.194686	-0.787782	1.355709
C229	C	-0.320535	-1.248605	0.658398
C230	C	0.179465	-0.748605	1.158398
H231	H	-0.358508	-1.286905	0.693345
H232	H	0.141492	-0.786905	1.193345
H233	H	-0.305330	-1.287753	0.627470
H234	H	0.194670	-0.787753	1.127470
H235	H	-0.341041	-1.214786	0.627499
H236	H	0.158959	-0.714786	1.127499
C237	C	-0.052777	-0.978493	0.658391
C238	C	0.447223	-0.478493	1.158391
H239	H	-0.061910	-0.987693	0.605520
H240	H	0.438090	-0.487693	1.105520
H241	H	-0.008721	-0.988542	0.671365
H242	H	0.491279	-0.488542	1.171365
H243	H	-0.044447	-0.915591	0.671389
H244	H	0.455553	-0.415591	1.171389
H245	H	-0.070984	-0.996884	0.813481
H246	H	0.429016	-0.496884	1.313481
C247	C	-0.320528	-1.248586	0.175220
C248	C	0.179472	-0.748586	0.675220
H249	H	-0.358501	-1.286882	0.210170
H250	H	0.141499	-0.786882	0.710170
H251	H	-0.305323	-1.287737	0.144297
H252	H	0.194677	-0.787737	0.644297
H253	H	-0.341036	-1.214773	0.144316
H254	H	0.158964	-0.714773	0.644316
