data_functionalizedCrystal
_audit_creation_method	'MofGen! by Chris Wilmer'
_symmetry_space_group_name_H-M	'P1'
_symmetry_Int_Tables_number	1
_symmetry_cell_setting	triclinic
loop_
_symmetry_equiv_pos_as_xyz
  x,y,z
_cell_length_a	10.654541
_cell_length_b	10.723024
_cell_length_c	9.198806
_cell_angle_alpha	89.997255
_cell_angle_beta	89.997047
_cell_angle_gamma	84.475899
loop_
_atom_site_label
_atom_site_type_symbol
_atom_site_fract_x
_atom_site_fract_y
_atom_site_fract_z
O1	O	0.176147	1.657212	-0.120852
O2	O	0.193008	1.294062	-0.120864
O3	O	0.001837	1.483989	-0.120849
O4	O	0.367318	1.467286	-0.120867
O5	O	0.001836	1.483973	0.120936
O6	O	0.193007	1.294047	0.120922
O7	O	0.176147	1.657197	0.120933
Cu8	Cu	0.184577	1.475621	0.143004
Cu9	Cu	0.184578	1.475639	-0.142935
O10	O	0.367318	1.467271	0.120918
C11	C	0.191781	1.247555	0.000028
C12	C	0.188109	1.109000	0.000023
C13	C	-0.044961	1.482755	0.000043
C14	C	-0.184404	1.479088	0.000040
N15	N	0.184576	1.475617	0.344118
C16	C	-0.212409	1.706196	0.000066
C17	C	-0.291921	1.818022	0.000082
C18	C	-0.422938	1.814569	0.000077
C19	C	-0.474446	1.699277	0.000052
C20	C	-0.394935	1.587451	0.000037
C21	C	-0.263916	1.590917	0.000046
C22	C	-0.366930	1.360346	0.000001
C23	C	-0.235912	1.363796	0.000016
C24	C	-0.418438	1.245054	-0.000024
C25	C	-0.338927	1.133225	-0.000029
C26	C	-0.207902	1.136683	-0.000023
C27	C	-0.156401	1.251970	0.000000
C28	C	0.414116	1.468504	0.000023
C29	C	0.553559	1.472172	0.000016
C30	C	0.177374	1.703705	0.000039
C31	C	0.181045	1.842259	0.000034
C32	C	0.074076	1.917227	0.000037
C33	C	0.077867	2.060431	0.000031
N34	N	0.184569	1.475652	-0.344049
C35	C	0.103955	1.555362	0.416321
C36	C	0.103950	1.555381	0.583734
H37	H	-0.105730	1.709019	0.000090
C38	C	0.277824	1.383411	0.572091
C39	C	0.228089	1.288131	0.466560
C40	C	0.321344	1.195890	0.382687
C41	C	0.464335	1.198929	0.404344
C42	C	0.514077	1.294212	0.509879
C43	C	0.420822	1.386453	0.593752
H44	H	0.122232	1.285878	0.450525
H45	H	0.284520	1.125355	0.304563
H46	H	0.533368	1.130646	0.342256
H47	H	0.619934	1.296465	0.525914
H48	H	0.457646	1.456988	0.671876
H49	H	-0.249968	1.911891	0.000115
H50	H	-0.487677	1.905628	0.000079
H51	H	-0.581129	1.696475	0.000031
H52	H	-0.525120	1.242250	-0.000037
H53	H	-0.380876	1.039364	-0.000059
H54	H	-0.143170	1.045620	-0.000042
H55	H	-0.049722	1.254797	0.000014
H56	H	-0.020312	1.875392	0.000066
H57	H	0.279689	2.044588	0.000015
H58	H	-0.013707	2.124851	0.000025
H59	H	0.275432	1.884095	0.000035
H60	H	0.034929	1.623616	0.354201
H61	H	0.034931	1.623658	0.645825
H62	H	0.253591	1.407355	0.406241
