data_functionalizedCrystal
_audit_creation_method	'MofGen! by Chris Wilmer'
_symmetry_space_group_name_H-M	'P1'
_symmetry_Int_Tables_number	1
_symmetry_cell_setting	triclinic
loop_
_symmetry_equiv_pos_as_xyz
  x,y,z
_cell_length_a	16.992694
_cell_length_b	19.188930
_cell_length_c	15.455313
_cell_angle_alpha	92.650876
_cell_angle_beta	87.142206
_cell_angle_gamma	86.906503
loop_
_atom_site_label
_atom_site_type_symbol
_atom_site_fract_x
_atom_site_fract_y
_atom_site_fract_z
O1	O	1.043326	0.145160	-0.072038
O2	O	0.815047	0.143535	-0.072064
O3	O	0.935773	0.043078	-0.072033
O4	O	0.922600	0.245617	-0.072069
O5	O	0.928870	0.048798	0.072227
O6	O	0.808144	0.149255	0.072197
O7	O	1.036422	0.150879	0.072222
Cu8	Cu	0.921653	0.150589	0.085382
Cu9	Cu	0.929817	0.143825	-0.085223
O10	O	0.915696	0.251336	0.072192
C11	C	0.782390	0.144306	0.000064
C12	C	0.695368	0.138072	0.000055
C13	C	0.931895	0.019902	0.000099
C14	C	0.930614	-0.057677	0.000107
C15	C	0.644922	0.198212	0.000045
C16	C	0.563155	0.192351	0.000058
C17	C	0.531836	0.126351	0.000075
C18	C	0.582288	0.066208	0.000087
C19	C	0.664053	0.072069	0.000080
C20	C	0.288320	0.102059	0.000102
C21	C	0.206548	0.096203	0.000106
C22	C	0.187420	0.222347	0.000079
C23	C	0.269188	0.228202	0.000067
C24	C	0.319633	0.168059	0.000084
N25	N	0.448257	0.120360	0.000085
N26	N	0.403210	0.174051	0.000079
C27	C	1.001452	-0.098455	0.000119
C28	C	1.000250	-0.171350	0.000105
C29	C	0.928204	-0.203463	0.000096
C30	C	0.857356	-0.162676	0.000079
C31	C	0.858561	-0.089783	0.000085
N32	N	0.870784	-0.312744	0.049185
N33	N	0.869644	-0.381990	0.049181
C34	C	0.924569	-0.423085	0.000078
N35	N	0.980688	-0.392319	-0.049011
N36	N	0.981830	-0.323067	-0.049004
C37	C	0.926889	-0.282503	0.000090
C38	C	0.994108	-0.542904	0.000074
C39	C	0.992903	-0.615801	0.000054
C40	C	0.850007	-0.607124	0.000038
C41	C	0.851215	-0.534230	0.000048
C42	C	0.923267	-0.502124	0.000070
C43	C	1.069079	0.150109	0.000093
C44	C	1.156102	0.156342	0.000096
C45	C	0.919575	0.274513	0.000057
C46	C	0.920856	0.352092	0.000044
N47	N	0.915916	0.155346	0.205376
N48	N	0.935560	0.139063	-0.205217
C49	C	0.967222	0.112686	0.250783
C50	C	0.962891	0.116291	0.341590
C51	C	0.907257	0.162559	0.386988
C52	C	0.855945	0.205221	0.341574
C53	C	0.860273	0.201613	0.250769
C54	C	0.888576	0.178116	0.658564
C55	C	0.884253	0.181723	0.749376
C56	C	0.991199	0.092792	0.749385
C57	C	0.995525	0.089190	0.658578
C58	C	0.944211	0.131849	0.613173
N59	N	0.902830	0.166246	0.479807
N60	N	0.948634	0.128158	0.520355
H61	H	0.670415	0.251956	0.000031
O62	O	0.789699	-0.050246	-0.000038
C63	C	0.749526	-0.068353	-0.074771
H64	H	0.770157	-0.123494	-0.099685
H65	H	0.683321	-0.066215	-0.057977
H66	H	0.762614	-0.029993	-0.127081
O67	O	1.064167	-0.511826	0.000041
C68	C	1.126435	-0.563453	0.000058
H69	H	1.105935	-0.615221	-0.027257
H70	H	1.178752	-0.547079	-0.041823
H71	H	1.144971	-0.569807	0.069266
H72	H	0.705127	0.023097	0.000088
O73	O	1.061649	-0.655520	0.000023
C74	C	1.045137	-0.726743	0.000028
H75	H	0.984880	-0.734048	-0.027296
H76	H	1.092314	-0.758867	-0.041852
H77	H	1.044867	-0.744906	0.069234
O78	O	1.021186	0.067629	0.206745
C79	C	1.007615	-0.001297	0.229004
H80	H	0.943657	-0.004161	0.253962
H81	H	1.019604	-0.038215	0.169315
H82	H	1.048607	-0.017250	0.281732
O83	O	0.138457	0.280781	-0.000084
C84	C	0.156195	0.317630	-0.074795
H85	H	0.186760	0.280267	-0.127012
H86	H	0.099280	0.341392	-0.099873
H87	H	0.196887	0.361027	-0.057913
O88	O	0.299642	0.292298	-0.000123
C89	C	0.349932	0.296479	-0.074844
H90	H	0.333213	0.256831	-0.127033
H91	H	0.343578	0.351324	-0.099960
H92	H	0.413670	0.284665	-0.057962
O93	O	0.176091	0.032097	-0.000025
C94	C	0.132917	0.021976	-0.074725
H95	H	0.154629	0.057455	-0.126958
H96	H	0.141639	-0.034870	-0.099786
H97	H	0.067574	0.035158	-0.057836
H98	H	0.522084	0.241323	0.000049
O99	O	0.782448	-0.494534	0.000161
C100	C	0.775285	-0.449172	0.074888
H101	H	0.836305	-0.441036	0.099807
H102	H	0.746701	-0.396741	0.058084
H103	H	0.737057	-0.473057	0.127199
O104	O	0.337205	0.043566	0.000076
C105	C	0.292025	-0.015941	0.000112
H106	H	0.232241	-0.002708	-0.027203
H107	H	0.324337	-0.060023	-0.041761
H108	H	0.282962	-0.033210	0.069326
H109	H	0.810642	0.242891	0.378543
H110	H	0.798696	-0.188827	0.000070
H111	H	1.004668	0.081553	0.378560
O112	O	0.780088	-0.638420	0.000063
C113	C	0.794214	-0.711504	0.000033
H114	H	0.854141	-0.724110	0.027355
H115	H	0.746120	-0.734785	0.041903
H116	H	0.793801	-0.734714	-0.069179
O117	O	0.551739	0.002147	0.000066
C118	C	0.468752	0.009868	0.000089
H119	H	0.450666	0.062188	-0.027233
H120	H	0.445786	-0.034301	-0.041783
H121	H	0.442699	0.007961	0.069300
H122	H	1.040827	0.051515	0.621617
H123	H	1.060123	-0.072320	0.000134
O124	O	1.069135	-0.210867	0.000158
C125	C	1.132989	-0.166900	0.000153
H126	H	1.111597	-0.112587	0.027461
H127	H	1.180599	-0.189342	0.042046
H128	H	1.158404	-0.163217	-0.069051
O129	O	0.810400	0.243125	0.206792
C130	C	0.760355	0.284726	0.266331
H131	H	0.789407	0.289898	0.331055
H132	H	0.749450	0.338757	0.240077
H133	H	0.701740	0.259163	0.276006
H134	H	1.032976	0.058060	0.786362
O135	O	0.830129	0.226680	0.793343
C136	C	0.785774	0.263568	0.733796
H137	H	0.788078	0.232329	0.669074
H138	H	0.721883	0.271721	0.760042
H139	H	0.811494	0.316480	0.724122
H140	H	0.846795	0.212852	0.621602
