data_functionalizedCrystal
_audit_creation_method	'MofGen! by Chris Wilmer'
_symmetry_space_group_name_H-M	'P1'
_symmetry_Int_Tables_number	1
_symmetry_cell_setting	triclinic
loop_
_symmetry_equiv_pos_as_xyz
  x,y,z
_cell_length_a	23.532407
_cell_length_b	27.732048
_cell_length_c	22.610064
_cell_angle_alpha	89.999096
_cell_angle_beta	89.997161
_cell_angle_gamma	82.745667
loop_
_atom_site_label
_atom_site_type_symbol
_atom_site_fract_x
_atom_site_fract_y
_atom_site_fract_z
O1	O	0.755138	0.058672	-0.049117
O2	O	0.589257	0.067162	-0.049135
O3	O	0.677349	-0.007472	-0.049114
O4	O	0.667046	0.133306	-0.049138
O5	O	0.677334	-0.007461	0.049255
O6	O	0.589241	0.067173	0.049234
O7	O	0.755123	0.058683	0.049252
Zn8	Zn	0.672179	0.062930	0.064861
Zn9	Zn	0.672200	0.062915	-0.064744
O10	O	0.667030	0.133317	0.049231
C11	C	0.568033	0.066952	0.000047
C12	C	0.504818	0.066302	0.000041
C13	C	0.105629	0.106391	0.000061
C14	C	0.046230	0.105787	0.000064
O15	O	0.009406	0.142951	0.000080
N16	N	0.023699	0.061418	0.000071
C17	C	0.060570	0.017649	0.000080
O18	O	0.035951	-0.020147	0.000086
C19	C	0.119967	0.018253	0.000080
C20	C	0.142495	0.062626	0.000068
C21	C	0.128158	0.150760	0.000049
C22	C	0.187552	0.151364	0.000044
C23	C	0.224419	0.107599	0.000051
C24	C	0.201890	0.063229	0.000063
C25	C	0.156837	-0.025515	0.000093
C26	C	0.216239	-0.024907	0.000094
C27	C	0.238766	0.019466	0.000082
C28	C	0.298151	0.020068	0.000065
N29	N	0.320683	0.064437	0.000059
C30	C	0.283817	0.108203	0.000052
C31	C	-0.064170	0.016383	0.000080
C32	C	-0.123567	0.015778	0.000075
C33	C	-0.137902	0.103917	0.000061
C34	C	-0.078505	0.104521	0.000061
C35	C	-0.041639	0.060753	0.000073
C36	C	0.408551	0.109467	0.000041
C37	C	0.467951	0.110067	0.000034
C38	C	0.482282	0.021928	0.000051
C39	C	0.422886	0.021328	0.000055
C40	C	0.386021	0.065102	0.000052
O41	O	0.335010	-0.017077	0.000052
O42	O	0.308444	0.145992	0.000053
C43	C	0.677125	-0.025473	0.000072
C44	C	0.676474	-0.079129	0.000077
C45	C	0.724431	-0.417871	0.000052
C46	C	0.722014	-0.619534	0.000043
O47	O	0.765867	-0.650722	0.000022
N48	N	0.669779	-0.638738	0.000038
C49	C	0.618144	-0.607523	0.000031
O50	O	0.573659	-0.628484	0.000020
C51	C	0.620561	-0.405860	0.000035
C52	C	0.672800	-0.386659	0.000046
C53	C	0.776665	-0.398669	0.000062
C54	C	0.777269	-0.348256	0.000067
C55	C	0.725638	-0.317045	0.000062
C56	C	0.673403	-0.336247	0.000052
C57	C	0.568927	-0.374646	0.000024
C58	C	0.569536	-0.324228	0.000024
C59	C	0.621775	-0.305027	0.000035
C60	C	0.622376	-0.254622	0.000052
N61	N	0.674611	-0.235418	0.000057
C62	C	0.726242	-0.266630	0.000062
C63	C	0.616879	-0.713399	0.000030
C64	C	0.616274	-0.763814	0.000030
C65	C	0.720145	-0.775822	0.000041
C66	C	0.720749	-0.725406	0.000045
C67	C	0.669114	-0.694195	0.000035
C68	C	0.727506	-0.160758	0.000074
C69	C	0.728105	-0.110341	0.000082
C70	C	0.624235	-0.098337	0.000068
C71	C	0.623635	-0.148751	0.000063
C72	C	0.675276	-0.179961	0.000064
O73	O	0.578547	-0.223406	0.000066
O74	O	0.770721	-0.245659	0.000060
C75	C	0.723827	-0.468283	0.000046
C76	C	0.671593	-0.487485	0.000036
C77	C	0.619962	-0.456274	0.000030
C78	C	0.670988	-0.537900	0.000036
C79	C	0.722619	-0.569112	0.000041
C80	C	0.774855	-0.549908	0.000046
C81	C	0.775458	-0.499495	0.000051
C82	C	0.567727	-0.475478	0.000025
C83	C	0.567127	-0.525891	0.000021
C84	C	0.618758	-0.557103	0.000026
C85	C	0.776346	0.058894	0.000068
C86	C	0.839562	0.059544	0.000071
C87	C	0.667254	0.151319	0.000044
C88	C	0.667905	0.204975	0.000035
N89	N	0.672170	0.062939	0.153314
N90	N	0.672214	0.062902	-0.153197
C91	C	0.711209	0.029873	0.561964
C92	C	0.711212	0.029869	0.623884
O93	O	0.744380	0.001762	0.655911
N94	N	0.672200	0.062905	0.654851
C95	C	0.633178	0.095944	0.623894
O96	O	0.599995	0.124044	0.655919
C97	C	0.633173	0.095945	0.561975
C98	C	0.672191	0.062910	0.531012
C99	C	0.750224	-0.003160	0.531001
C100	C	0.750222	-0.003156	0.469085
C101	C	0.711204	0.029881	0.438133
C102	C	0.672189	0.062914	0.469096
C103	C	0.594149	0.128981	0.531020
C104	C	0.594146	0.128979	0.469097
C105	C	0.633165	0.095944	0.438134
C106	C	0.633169	0.095955	0.376229
N107	N	0.672182	0.062919	0.345262
C108	C	0.711199	0.029882	0.376214
C109	C	0.633191	0.095939	0.753928
C110	C	0.633198	0.095941	0.815846
C111	C	0.711232	0.029865	0.815831
C112	C	0.711227	0.029866	0.753912
C113	C	0.672203	0.062903	0.722961
C114	C	0.711192	0.029894	0.246187
C115	C	0.711187	0.029902	0.184266
C116	C	0.633152	0.095976	0.184286
C117	C	0.633158	0.095969	0.246201
C118	C	0.672180	0.062924	0.277150
O119	O	0.600016	0.124047	0.344163
O120	O	0.744372	0.001783	0.344182
H121	H	0.098146	0.186402	0.000045
H122	H	0.762185	-0.801243	0.000045
H123	H	0.562367	0.155881	0.443900
H124	H	-0.060167	0.140653	0.000054
O125	O	0.518018	-0.020628	0.000031
C126	C	0.485403	-0.059924	0.000057
H127	H	0.440960	-0.047444	-0.018568
H128	H	0.507585	-0.090574	-0.028495
H129	H	0.481291	-0.073531	0.047253
H130	H	-0.034156	-0.019261	0.000084
O131	O	0.400933	-0.021745	0.000141
C132	C	0.367021	-0.024732	0.051102
H133	H	0.351896	0.013441	0.068080
H134	H	0.328288	-0.043812	0.039655
H135	H	0.393456	-0.046240	0.086777
O136	O	0.788108	-0.035320	0.560997
C137	C	0.779267	-0.083132	0.545875
H138	H	0.757302	-0.082974	0.500925
H139	H	0.822287	-0.107118	0.543738
H140	H	0.751064	-0.097966	0.580731
H141	H	0.581099	-0.164385	0.000070
O142	O	0.749054	-0.002279	0.845931
C143	C	0.718815	-0.031959	0.881759
H144	H	0.673911	-0.032579	0.863100
H145	H	0.742388	-0.070482	0.882464
H146	H	0.715695	-0.016816	0.928686
H147	H	0.527488	-0.298818	0.000014
H148	H	0.138506	-0.061648	0.000104
H149	H	0.742963	0.003001	0.159057
O150	O	0.565580	-0.782544	0.000050
C151	C	0.576110	-0.833735	0.000035
H152	H	0.620655	-0.845787	0.018666
H153	H	0.542703	-0.849057	0.028586
H154	H	0.573485	-0.847755	-0.047159
O155	O	0.778903	-0.091770	0.000064
C156	C	0.824342	-0.130133	0.000080
H157	H	0.808686	-0.164308	-0.018548
H158	H	0.860844	-0.119767	-0.028474
H159	H	0.840239	-0.137345	0.047274
H160	H	0.781993	-0.030058	0.443879
O161	O	0.826254	-0.480927	0.000032
C162	C	0.871688	-0.519294	0.000050
H163	H	0.856027	-0.553467	-0.018576
H164	H	0.908192	-0.508932	-0.028506
H165	H	0.887585	-0.526505	0.047244
O166	O	0.251968	-0.067470	0.000076
C167	C	0.219342	-0.106759	0.000102
H168	H	0.174900	-0.094270	-0.018520
H169	H	0.241515	-0.137411	-0.028453
H170	H	0.215229	-0.120367	0.047298
O171	O	0.595244	0.128054	0.845828
C172	C	0.560819	0.157220	0.805223
H173	H	0.560354	0.137403	0.761086
H174	H	0.515273	0.164790	0.823113
H175	H	0.578993	0.193050	0.798637
O176	O	0.777631	-0.191120	0.000157
C177	C	0.780391	-0.220635	0.051109
H178	H	0.735207	-0.222981	0.068085
H179	H	0.801957	-0.258626	0.039653
H180	H	0.806241	-0.204165	0.086790
H181	H	0.816894	-0.575329	0.000053
H182	H	0.574829	-0.687991	0.000022
H183	H	0.601415	0.122846	0.728730
O184	O	0.574135	-0.067945	0.000036
C185	C	0.585876	-0.019332	0.000054
H186	H	0.630598	-0.017612	-0.018559
H187	H	0.552949	0.003668	-0.028512
H188	H	0.583576	-0.004740	0.047247
H189	H	0.819807	-0.332628	0.000074
O190	O	0.595201	0.128077	0.276191
C191	C	0.560773	0.157246	0.235591
H192	H	0.560313	0.137435	0.191449
H193	H	0.515225	0.164808	0.253479
H194	H	0.578940	0.193080	0.229014
O195	O	0.516328	-0.544459	-0.000016
C196	C	0.470891	-0.506095	-0.000006
H197	H	0.486557	-0.471917	-0.018619
H198	H	0.434400	-0.516454	-0.028576
H199	H	0.454975	-0.498890	0.047184
H200	H	0.818712	-0.424077	0.000064
O201	O	0.749034	-0.002271	0.723789
C202	C	0.718771	-0.031970	0.688017
H203	H	0.674051	-0.012504	0.678725
H204	H	0.742607	-0.039764	0.644481
H205	H	0.715183	-0.067658	0.711916
H206	H	0.763286	-0.709776	0.000054
H207	H	0.526389	-0.390270	0.000011
O208	O	0.517607	-0.445114	0.000101
C209	C	0.514832	-0.415604	0.051058
H210	H	0.560011	-0.413262	0.068047
H211	H	0.493272	-0.377612	0.039603
H212	H	0.488970	-0.432077	0.086729
O213	O	0.556189	0.161090	0.560996
C214	C	0.521763	0.190250	0.520387
H215	H	0.521302	0.170431	0.476252
H216	H	0.476215	0.197818	0.538274
H217	H	0.539932	0.226082	0.513799
H218	H	0.742966	0.002985	0.271379
O219	O	0.595272	0.128019	0.154121
C220	C	0.603649	0.120940	0.092831
H221	H	0.625281	0.082418	0.084378
H222	H	0.560473	0.126496	0.069300
H223	H	0.631964	0.148181	0.075255
O224	O	0.209358	0.194501	-0.000043
C225	C	0.190486	0.221148	-0.051000
H226	H	0.149406	0.208165	-0.067983
H227	H	0.181879	0.261443	-0.039548
H228	H	0.224913	0.215386	-0.086674
H229	H	0.486290	0.146202	0.000023
H230	H	0.378542	0.145112	0.000040
H231	H	-0.167930	0.139553	0.000058
O232	O	-0.145474	-0.027314	-0.000025
C233	C	-0.179413	-0.030304	-0.050962
H234	H	-0.165586	-0.005115	-0.086575
H235	H	-0.173740	-0.069289	-0.068057
H236	H	-0.226357	-0.018927	-0.039442
