data_functionalizedCrystal
_audit_creation_method	'MofGen! by Chris Wilmer'
_symmetry_space_group_name_H-M	'P1'
_symmetry_Int_Tables_number	1
_symmetry_cell_setting	triclinic
loop_
_symmetry_equiv_pos_as_xyz
  x,y,z
_cell_length_a	14.519709
_cell_length_b	12.784890
_cell_length_c	11.295483
_cell_angle_alpha	93.661968
_cell_angle_beta	85.892680
_cell_angle_gamma	78.393352
loop_
_atom_site_label
_atom_site_type_symbol
_atom_site_fract_x
_atom_site_fract_y
_atom_site_fract_z
O1	O	1.219270	0.132176	-0.098869
O2	O	0.949457	0.148579	-0.098905
O3	O	1.104108	-0.014313	-0.098878
O4	O	1.064619	0.295067	-0.098896
O5	O	1.090527	-0.000027	0.099170
O6	O	0.935875	0.162864	0.099143
O7	O	1.205689	0.146461	0.099179
Cu8	Cu	1.069542	0.155967	0.117245
Cu9	Cu	1.085603	0.139073	-0.116971
O10	O	1.051037	0.309352	0.099152
C11	C	0.908369	0.154956	0.000114
C12	C	0.806175	0.152664	0.000100
C13	C	1.099886	-0.046765	0.000145
C14	C	1.107528	-0.164744	0.000143
C15	C	1.203305	-0.343538	0.000154
C16	C	1.196131	-0.232686	0.000156
C17	C	1.026094	-0.207660	0.000133
C18	C	1.033269	-0.318512	0.000132
C19	C	1.121878	-0.386447	0.000141
C20	C	1.129052	-0.497301	0.000131
C21	C	0.959015	-0.472272	0.000116
C22	C	0.951841	-0.361421	0.000118
C23	C	0.431964	0.144233	0.000155
C24	C	0.536082	0.146575	0.000140
C25	C	0.619067	0.148448	0.000127
C26	C	0.723191	0.150790	0.000113
C27	C	1.246777	0.140083	0.000157
C28	C	1.348970	0.142374	0.000163
C29	C	1.055259	0.341804	0.000126
C30	C	1.047618	0.459783	0.000120
N31	N	1.058251	0.167848	0.281979
N32	N	1.096902	0.127183	-0.281705
C33	C	1.178180	0.041594	0.531289
C34	C	1.169654	0.050581	0.655951
C35	C	1.032669	0.194802	0.655968
C36	C	1.041196	0.185815	0.531306
C37	C	1.113954	0.109210	0.468971
C38	C	1.122484	0.100229	0.344306
C39	C	0.985496	0.244444	0.344325
C40	C	0.976970	0.253431	0.468987
H41	H	1.201202	-0.552614	0.000131
H42	H	1.262438	-0.197755	0.000169
O43	O	0.906330	0.327976	0.529409
C44	C	0.914980	0.431023	0.498967
H45	H	0.956726	0.424456	0.408452
H46	H	0.953436	0.469060	0.569126
C47	C	0.764815	0.509140	0.604384
C48	C	0.816082	0.501075	0.493207
H49	H	0.703811	0.552354	0.600836
H50	H	0.758989	0.439716	0.624898
H51	H	0.796873	0.540834	0.662838
H52	H	0.784031	0.469370	0.434759
H53	H	0.821902	0.570495	0.472684
O54	O	0.865808	-0.295395	-0.000105
C55	C	0.863618	-0.237898	-0.102660
H56	H	0.918943	-0.283573	-0.174342
H57	H	0.879431	-0.155577	-0.079462
C58	C	0.697176	-0.168498	-0.061150
C59	C	0.765123	-0.224601	-0.149195
H60	H	0.636420	-0.160290	-0.089853
H61	H	0.698652	-0.207231	0.007946
H62	H	0.710366	-0.099903	-0.041826
H63	H	0.751939	-0.293199	-0.168506
H64	H	0.763643	-0.185878	-0.218295
H65	H	1.275455	-0.398854	0.000146
O66	O	0.940103	-0.141510	0.000084
C67	C	0.951235	-0.034468	0.000130
H68	H	1.025890	-0.032787	-0.037362
H69	H	0.938664	0.004420	0.095149
C70	C	0.787837	0.025595	-0.031482
C71	C	0.879527	0.027659	-0.077539
H72	H	0.743602	0.063920	-0.079386
H73	H	0.780336	-0.046521	-0.031508
H74	H	0.777375	0.057999	0.047700
H75	H	0.889992	-0.004758	-0.156713
H76	H	0.887029	0.099771	-0.077527
O77	O	0.923235	0.310173	0.283661
C78	C	0.972291	0.370683	0.211575
H79	H	1.049108	0.327183	0.192886
H80	H	0.968977	0.452700	0.259628
C81	C	0.832238	0.438178	0.116122
C82	C	0.926585	0.384746	0.093159
H83	H	0.804043	0.446857	0.043079
H84	H	0.799187	0.397414	0.164690
H85	H	0.829489	0.506520	0.156169
H86	H	0.929332	0.316401	0.053127
H87	H	0.959636	0.425498	0.044582
O88	O	1.232062	-0.014945	0.716618
C89	C	1.279468	0.047305	0.788694
H90	H	1.234801	0.131721	0.807377
H91	H	1.350317	0.051231	0.740637
C92	C	1.350741	-0.107712	0.884160
C93	C	1.295877	-0.004034	0.907115
H94	H	1.360868	-0.139382	0.957206
H95	H	1.318806	-0.149653	0.835598
H96	H	1.409776	-0.104426	0.844109
H97	H	1.236840	-0.007323	0.947151
H98	H	1.327803	0.037905	0.955687
O99	O	0.879896	-0.513916	-0.000107
C100	C	0.833446	-0.486580	-0.102669
H101	H	0.886136	-0.468595	-0.174350
H102	H	0.774682	-0.412760	-0.079483
C103	C	0.726195	-0.602821	-0.061155
C104	C	0.790912	-0.580741	-0.149198
H105	H	0.699954	-0.660901	-0.089855
H106	H	0.757486	-0.621236	0.007946
H107	H	0.677234	-0.541297	-0.041841
H108	H	0.839877	-0.642259	-0.168500
H109	H	0.759627	-0.562339	-0.218304
O110	O	1.193073	0.025655	0.283831
C111	C	1.184417	-0.077366	0.314361
H112	H	1.108286	-0.075567	0.348623
H113	H	1.233054	-0.103223	0.386741
C114	C	1.305609	-0.159611	0.161571
C115	C	1.212101	-0.157404	0.203643
H116	H	1.322689	-0.208984	0.093279
H117	H	1.311443	-0.090204	0.141005
H118	H	1.346128	-0.181156	0.221899
H119	H	1.171583	-0.135847	0.143322
H120	H	1.206261	-0.226810	0.224197
O121	O	1.248886	-0.032900	0.470915
C122	C	1.303766	-0.090631	0.552652
H123	H	1.259986	-0.085526	0.641523
H124	H	1.368581	-0.054989	0.565898
C125	C	1.389072	-0.215005	0.394844
C126	C	1.335298	-0.208743	0.503993
H127	H	1.408527	-0.287861	0.364827
H128	H	1.352102	-0.176109	0.339774
H129	H	1.443078	-0.185297	0.405896
H130	H	1.281288	-0.238438	0.492936
H131	H	1.372260	-0.247647	0.559060
H132	H	0.973426	0.257165	0.706737
