data_functionalizedCrystal
_audit_creation_method	'MofGen! by Chris Wilmer'
_symmetry_space_group_name_H-M	'P1'
_symmetry_Int_Tables_number	1
_symmetry_cell_setting	triclinic
loop_
_symmetry_equiv_pos_as_xyz
  x,y,z
_cell_length_a	12.827892
_cell_length_b	15.298563
_cell_length_c	12.827885
_cell_angle_alpha	80.356460
_cell_angle_beta	89.970024
_cell_angle_gamma	80.291908
loop_
_atom_site_label
_atom_site_type_symbol
_atom_site_fract_x
_atom_site_fract_y
_atom_site_fract_z
Zn1	Zn	-0.139193	-1.379159	-0.314918
Zn2	Zn	0.360807	-0.879159	0.185082
Zn3	Zn	-0.313988	-1.379067	-0.140196
Zn4	Zn	0.186012	-0.879067	0.359804
Zn5	Zn	-0.169520	-1.228302	-0.170374
Zn6	Zn	0.330480	-0.728302	0.329626
Zn7	Zn	-0.344171	-1.228290	-0.345062
Zn8	Zn	0.155829	-0.728290	0.154938
O9	O	-0.241718	-1.303704	-0.242637
O10	O	0.258282	-0.803704	0.257363
O11	O	-0.137056	-1.505382	-0.266496
O12	O	0.362944	-1.005382	0.233504
O13	O	-0.294885	-1.359035	0.002030
O14	O	0.205115	-0.859035	0.502030
O15	O	-0.019252	-1.248356	-0.189562
O16	O	0.480748	-0.748356	0.310438
O17	O	-0.265478	-1.505315	-0.138128
O18	O	0.234522	-1.005315	0.361872
O19	O	0.003029	-1.359190	-0.295758
O20	O	0.503029	-0.859190	0.204242
O21	O	-0.188744	-1.248268	-0.020141
O22	O	0.311256	-0.748268	0.479859
O23	O	-0.218011	-1.102065	-0.218791
O24	O	0.281989	-0.602065	0.281209
O25	O	-0.316920	-1.248336	-0.487293
O26	O	0.183080	-0.748336	0.012707
O27	O	-0.346327	-1.102056	-0.347134
O28	O	0.153673	-0.602056	0.152866
O29	O	-0.166323	-1.359179	-0.465146
O30	O	0.333677	-0.859179	0.034854
O31	O	-0.464237	-1.359023	-0.167358
O32	O	0.035763	-0.859023	0.332642
O33	O	-0.486412	-1.248248	-0.317872
O34	O	0.013588	-0.748248	0.182128
C35	C	-0.288736	-1.069329	-0.289509
C36	C	0.211264	-0.569329	0.210491
C37	C	-0.308875	-0.969062	-0.309586
C38	C	0.191125	-0.469062	0.190414
C39	C	-0.513239	-1.303649	-0.242629
C40	C	-0.013239	-0.803649	0.257371
C41	C	-0.629380	-1.303707	-0.242644
C42	C	-0.129380	-0.803707	0.257356
C43	C	-0.385245	-0.921980	-0.385732
C44	C	0.114755	-0.421980	0.114268
C45	C	-0.404162	-0.827774	-0.404605
C46	C	0.095838	-0.327774	0.095395
C47	C	-0.346717	-0.780642	-0.347328
C48	C	0.153283	-0.280642	0.152672
C49	C	-0.270351	-0.827724	-0.271176
C50	C	0.229649	-0.327724	0.228824
C51	C	-0.251426	-0.921939	-0.252307
C52	C	0.248574	-0.421939	0.247693
C53	C	-0.212898	-0.780600	-0.213903
C54	C	0.287102	-0.280600	0.286097
C55	C	-0.136532	-0.827682	-0.137751
C56	C	0.363468	-0.327682	0.362249
C57	C	-0.117612	-0.921888	-0.118885
C58	C	0.382388	-0.421888	0.381115
C59	C	-0.175057	-0.969021	-0.176161
C60	C	0.324943	-0.469021	0.323839
C61	C	-0.231823	-0.686385	-0.232772
C62	C	0.268177	-0.186385	0.267228
C63	C	-0.098004	-0.686344	-0.099347
C64	C	0.401996	-0.186344	0.400653
C65	C	-0.079087	-0.780550	-0.080474
C66	C	0.420913	-0.280550	0.419526
C67	C	-0.790177	-1.358647	-0.168240
C68	C	-0.290177	-0.858647	0.331760
C69	C	-0.670138	-1.358588	-0.168222
C70	C	-0.170138	-0.858588	0.331778
C71	C	0.030868	-1.303785	-0.242664
C72	C	0.530868	-0.803785	0.257336
C73	C	0.147028	-1.303819	-0.242675
C74	C	0.647028	-0.803819	0.257325
C75	C	-0.241605	-1.303767	-0.515195
C76	C	0.258395	-0.803767	-0.015195
C77	C	-0.241557	-1.303793	-0.631343
C78	C	0.258443	-0.803793	-0.131343
C79	C	-0.194510	-0.538995	-0.195574
C80	C	0.305490	-0.038995	0.304426
C81	C	-0.174374	-0.639262	-0.175493
C82	C	0.325626	-0.139262	0.324507
C83	C	-0.189019	-1.249000	-0.694096
C84	C	0.310981	-0.749000	-0.194096
C85	C	-0.188969	-1.249026	-0.814141
C86	C	0.311031	-0.749026	-0.314141
C87	C	-0.241744	-1.303694	0.028871
C88	C	0.258256	-0.803694	0.528871
C89	C	-0.241463	-1.303843	0.145053
C90	C	0.258537	-0.803843	0.645053
H91	H	-0.362124	-0.703935	-0.362700
H92	H	0.137876	-0.203935	0.137300
H93	H	-0.051225	-0.647969	-0.052711
H94	H	0.448775	-0.147969	0.447289
H95	H	-0.286500	-1.350722	-0.666492
H96	H	0.213500	-0.850722	-0.166492
C97	C	-0.379490	-1.316210	-0.729594
C98	C	0.120510	-0.816210	-0.229594
C99	C	-0.302194	-1.367175	-0.782169
C100	C	0.197806	-0.867175	-0.282169
H101	H	-0.416985	-1.355310	-0.684664
H102	H	0.083015	-0.855310	-0.184664
H103	H	-0.346558	-1.281827	-0.688435
H104	H	0.153442	-0.781827	-0.188435
H105	H	-0.427358	-1.276940	-0.780033
H106	H	0.072642	-0.776940	-0.280033
H107	H	-0.254321	-1.406442	-0.731730
H108	H	0.245679	-0.906442	-0.231730
H109	H	-0.335126	-1.401574	-0.823331
H110	H	0.164874	-0.901574	-0.323331
C111	C	-0.198838	-1.127805	-0.961244
C112	C	0.301162	-0.627805	-0.461244
C113	C	-0.128248	-1.185688	-0.886924
C114	C	0.371752	-0.685688	-0.386924
H115	H	-0.161351	-1.088698	-1.006173
H116	H	0.338649	-0.588698	-0.506173
H117	H	-0.231751	-1.162200	-1.002404
H118	H	0.268249	-0.662200	-0.502404
H119	H	-0.251278	-1.093251	-0.925555
H120	H	0.248722	-0.593251	-0.425555
H121	H	-0.075812	-1.220247	-0.922613
H122	H	0.424188	-0.720247	-0.422613
H123	H	-0.095319	-1.151289	-0.845759
H124	H	0.404681	-0.651289	-0.345759
H125	H	-0.055423	-0.960220	-0.056882
H126	H	0.444577	-0.460220	0.443118
C127	C	-0.732525	-1.291259	-0.385602
C128	C	-0.232525	-0.791259	0.114398
C129	C	-0.805591	-1.240390	-0.328695
C130	C	-0.305591	-0.740390	0.171305
H131	H	-0.703282	-1.252098	-0.438713
H132	H	-0.203282	-0.752098	0.061287
H133	H	-0.677581	-1.325640	-0.338900
H134	H	-0.177581	-0.825640	0.161100
H135	H	-0.767166	-1.330529	-0.417803
H136	H	-0.267166	-0.830529	0.082197
H137	H	-0.770947	-1.201124	-0.296487
H138	H	-0.270947	-0.701124	0.203513
H139	H	-0.860543	-1.205994	-0.375405
H140	H	-0.360543	-0.705994	0.124595
H141	H	-0.294000	-0.648060	-0.294778
H142	H	0.206000	-0.148060	0.205222
C143	C	-0.544871	-1.371028	-0.025258
C144	C	-0.044871	-0.871028	0.474742
C145	C	-0.597305	-1.421958	-0.082185
C146	C	-0.097305	-0.921958	0.417815
H147	H	-0.499911	-1.410153	0.027864
H148	H	0.000089	-0.910153	0.527864
H149	H	-0.503742	-1.336600	-0.071946
H150	H	-0.003742	-0.836600	0.428054
H151	H	-0.595405	-1.331800	0.006930
H152	H	-0.095405	-0.831800	0.506930
H153	H	-0.546772	-1.461182	-0.114380
H154	H	-0.046772	-0.961182	0.385620
H155	H	-0.638437	-1.456401	-0.035489
H156	H	-0.138437	-0.956401	0.464511
H157	H	-0.825285	-1.405628	-0.104522
H158	H	-0.325285	-0.905628	0.395478
H159	H	-0.466340	-0.789447	-0.466608
H160	H	0.033660	-0.289447	0.033392
H161	H	-0.432004	-0.960364	-0.432363
H162	H	0.067996	-0.460364	0.067637
H163	H	-0.144083	-1.202066	-0.658948
H164	H	0.355917	-0.702066	-0.158948
H165	H	-0.159663	-1.045731	-0.160794
H166	H	0.340337	-0.545731	0.339206
H167	H	-0.016909	-0.818897	-0.018471
H168	H	0.483091	-0.318897	0.481529
H169	H	-0.683333	-1.256768	-0.306378
H170	H	-0.183333	-0.756768	0.193622
