data_functionalizedCrystal
_audit_creation_method	'MofGen! by Chris Wilmer'
_symmetry_space_group_name_H-M	'P1'
_symmetry_Int_Tables_number	1
_symmetry_cell_setting	triclinic
loop_
_symmetry_equiv_pos_as_xyz
  x,y,z
_cell_length_a	6.817900
_cell_length_b	27.923559
_cell_length_c	12.908942
_cell_angle_alpha	96.764357
_cell_angle_beta	79.139444
_cell_angle_gamma	81.034929
loop_
_atom_site_label
_atom_site_type_symbol
_atom_site_fract_x
_atom_site_fract_y
_atom_site_fract_z
V1	V	3.963235	-0.150996	-0.147349
O2	O	3.965733	-0.148399	0.005538
O3	O	3.901937	-0.149696	-0.290685
O4	O	3.893172	-0.216972	-0.145760
O5	O	3.974558	-0.080657	-0.140390
V6	V	4.451341	-0.142615	-0.128982
O7	O	4.214440	-0.169379	-0.187639
O8	O	4.650333	-0.124231	-0.088692
O9	O	4.289432	-0.143915	0.014353
O10	O	4.566239	-0.145212	-0.281869
O11	O	4.557414	-0.212953	-0.135941
O12	O	4.298197	-0.076639	-0.130572
C13	C	3.744501	-0.147245	-0.325606
C14	C	3.775525	-0.146622	-0.442789
C15	C	4.195503	-0.150283	-0.673778
C16	C	4.224662	-0.149698	-0.783882
C17	C	3.863008	-0.144870	-0.773104
C18	C	3.833849	-0.145455	-0.663000
C19	C	4.000104	-0.148161	-0.613341
C20	C	3.970940	-0.148743	-0.503233
C21	C	3.609290	-0.143918	-0.492459
C22	C	3.638450	-0.143333	-0.602563
C23	C	3.733320	-0.233062	-0.140738
C24	C	3.757235	-0.286996	-0.140387
C25	C	3.934810	-0.628206	-0.234940
C26	C	4.024793	-0.830917	-0.233683
O27	O	4.061214	-0.862871	-0.315680
N28	N	4.006992	-0.849513	-0.136919
C29	C	3.966706	-0.817427	-0.040463
O30	O	3.953650	-0.837895	0.041869
C31	C	3.876737	-0.614717	-0.041722
C32	C	3.894521	-0.596124	-0.138491
C33	C	3.952593	-0.609613	-0.331702
C34	C	3.930087	-0.558938	-0.332015
C35	C	3.889798	-0.526856	-0.235566
C36	C	3.872015	-0.545450	-0.138804
C37	C	3.836465	-0.582632	0.054733
C38	C	3.813979	-0.531952	0.054409
C39	C	3.831763	-0.513360	-0.042360
C40	C	3.809220	-0.462693	-0.042669
N41	N	3.827021	-0.444097	-0.139432
C42	C	3.867310	-0.476179	-0.235881
C43	C	4.013938	-0.923853	-0.039809
C44	C	4.036427	-0.974530	-0.039494
C45	C	4.094517	-0.988017	-0.232714
C46	C	4.072013	-0.937339	-0.233028
C47	C	4.031739	-0.905258	-0.136573
C48	C	3.820042	-0.369758	-0.236531
C49	C	3.797524	-0.319078	-0.236835
C50	C	3.739447	-0.305595	-0.043616
C51	C	3.761953	-0.356271	-0.043311
C52	C	3.802259	-0.388351	-0.139777
O53	O	3.772821	-0.430711	0.039284
O54	O	3.880402	-0.455702	-0.318202
C55	C	3.957315	-0.678881	-0.234627
C56	C	3.939532	-0.697474	-0.137865
C57	C	3.899243	-0.665392	-0.041417
C58	C	3.962020	-0.748152	-0.137550
C59	C	4.002309	-0.780233	-0.233999
C60	C	4.020110	-0.761638	-0.330763
C61	C	3.997604	-0.710963	-0.331076
C62	C	3.881442	-0.683988	0.055347
C63	C	3.903948	-0.734663	0.055652
C64	C	3.944237	-0.766745	-0.040796
C65	C	4.110210	-0.146364	0.049269
C66	C	4.058423	-0.146991	0.166451
C67	C	4.121391	-0.060547	-0.135597
C68	C	4.076716	-0.006612	-0.135943
H69	H	3.812002	-0.303943	-0.315640
O70	O	3.970483	-0.889254	0.064233
H71	H	3.823656	-0.864004	0.072661
H72	H	3.503098	-0.141132	-0.643012
O73	O	4.150261	-0.151671	-0.449678
H74	H	4.224559	-0.119522	-0.461820
O75	O	4.435409	-0.151981	-0.849071
H76	H	4.546105	-0.153956	-0.796036
H77	H	3.706634	-0.279465	0.034910
O78	O	3.683712	-0.141964	-0.826677
H79	H	3.736828	-0.141916	-0.913393
H80	H	3.821965	-0.597761	0.133533
O81	O	3.398520	-0.141632	-0.427277
H82	H	3.406168	-0.142496	-0.342371
O83	O	3.863469	-0.404355	-0.340572
H84	H	3.872018	-0.382905	-0.407899
O85	O	3.742743	-0.376328	0.061059
H86	H	3.886801	-0.400930	0.061870
H87	H	4.012089	-0.695830	-0.409876
H88	H	4.330870	-0.152479	-0.633342
H89	H	4.127318	-1.014147	-0.311246
O90	O	3.949279	-0.538887	-0.436388
H91	H	3.981091	-0.569716	-0.503393
H92	H	3.985405	-0.635730	-0.410247
H93	H	4.086495	-0.922205	-0.311826
H94	H	3.889448	-0.749796	0.134460
H95	H	4.021917	-0.989663	0.039306
O96	O	3.770520	-0.497349	0.158445
H97	H	3.761918	-0.518795	0.225780
O98	O	4.063559	-0.796251	-0.434785
H99	H	3.937963	-0.787930	-0.477216
H100	H	3.848641	-0.657871	0.133889
