data_functionalizedCrystal
_audit_creation_method	'MofGen! by Chris Wilmer'
_symmetry_space_group_name_H-M	'P1'
_symmetry_Int_Tables_number	1
_symmetry_cell_setting	triclinic
loop_
_symmetry_equiv_pos_as_xyz
  x,y,z
_cell_length_a	7.681481
_cell_length_b	19.288864
_cell_length_c	19.288865
_cell_angle_alpha	83.136245
_cell_angle_beta	84.272648
_cell_angle_gamma	95.689744
loop_
_atom_site_label
_atom_site_type_symbol
_atom_site_fract_x
_atom_site_fract_y
_atom_site_fract_z
O1	O	0.147012	-0.914734	-0.093271
O2	O	0.146894	-0.712479	-0.104954
O3	O	0.146921	-0.819452	0.002019
O4	O	0.146984	-0.807761	-0.200244
O5	O	-0.145933	-0.832619	0.015216
O6	O	-0.145960	-0.725645	-0.091758
O7	O	-0.145843	-0.927901	-0.080074
Zn8	Zn	-0.192398	-0.828864	-0.083821
Zn9	Zn	0.193450	-0.811516	-0.101207
O10	O	-0.145870	-0.820927	-0.187048
C11	C	0.000451	-0.693186	-0.097979
C12	C	0.000405	-0.616085	-0.096848
N13	N	-0.455730	-0.840708	-0.071954
C14	C	0.000489	-0.825660	0.034494
C15	C	0.000473	-0.824531	0.111599
N16	N	0.456781	-0.799677	-0.113068
C17	C	0.000604	-0.947193	-0.087049
C18	C	0.000662	-1.024294	-0.088181
C19	C	0.000452	-0.571386	-0.159618
C20	C	0.000471	-0.498938	-0.158558
C21	C	0.000478	-0.471191	-0.094726
C22	C	0.000421	-0.515899	-0.031948
C23	C	0.000385	-0.588346	-0.033008
C24	C	0.103122	-0.358314	-0.049172
C25	C	0.103170	-0.285867	-0.048115
C26	C	0.000584	-0.247740	-0.091451
C27	C	-0.102026	-0.282066	-0.135859
C28	C	-0.102063	-0.354513	-0.136920
C29	C	0.000517	-0.392635	-0.093569
C30	C	0.000649	-0.124485	-0.153076
C31	C	0.000658	-0.052037	-0.152014
C32	C	0.000626	-0.068998	-0.025402
C33	C	0.000600	-0.141446	-0.026466
C34	C	0.000620	-0.169184	-0.090305
C35	C	0.000567	-0.814720	-0.219523
C36	C	0.000594	-0.815847	-0.296628
C37	C	0.000501	-0.887298	0.156294
C38	C	0.000528	-0.886236	0.228740
C39	C	0.000492	-0.822406	0.256489
C40	C	0.000474	-0.759630	0.211783
C41	C	0.000464	-0.760693	0.139338
C42	C	-0.102118	-0.776839	0.369400
C43	C	-0.102119	-0.775780	0.441844
C44	C	0.000529	-0.819124	0.479933
C45	C	0.103156	-0.863542	0.445570
C46	C	0.103147	-0.864604	0.373125
C47	C	0.000503	-0.821246	0.335042
C48	C	0.000589	-0.880744	0.603182
C49	C	0.000627	-0.879679	0.675629
C50	C	0.000556	-0.753072	0.658672
C51	C	0.000535	-0.754138	0.586226
C52	C	0.000544	-0.817976	0.558486
H53	H	-0.468033	-0.757792	-0.155034
H54	H	0.000451	-0.493301	0.020024
C55	C	0.000441	-0.689417	0.242301
H56	H	0.000438	-0.652185	0.205302
H57	H	-0.101680	-0.690957	0.274819
H58	H	0.102583	-0.681783	0.265598
C59	C	0.000547	-0.955280	0.277916
H60	H	0.000560	-0.945502	0.325034
H61	H	-0.101571	-0.986052	0.274136
H62	H	0.102691	-0.976877	0.264921
H63	H	0.000441	-0.709579	0.102947
C64	C	0.000442	-0.601897	-0.229837
H65	H	0.000455	-0.564896	-0.267068
H66	H	0.102546	-0.625236	-0.237488
H67	H	-0.101717	-0.634376	-0.228277
C68	C	-0.557299	-0.897296	-0.015261
H69	H	-0.680260	-0.896008	-0.016552
H70	H	-0.527119	-0.942297	-0.023965
H71	H	-0.527196	-0.888483	0.029716
C72	C	-0.214993	-0.726923	0.479639
H73	H	-0.200303	-0.732502	0.528241
H74	H	-0.178931	-0.679523	0.459984
H75	H	-0.335397	-0.738611	0.474018
C76	C	0.000550	-0.449760	-0.227609
H77	H	0.000572	-0.476656	-0.265781
H78	H	-0.101549	-0.425713	-0.225233
H79	H	0.102713	-0.416578	-0.234418
C80	C	0.000346	-0.637519	0.036039
H81	H	0.000317	-0.684639	0.026265
H82	H	0.102465	-0.624555	0.057623
H83	H	-0.101797	-0.633708	0.066824
C84	C	-0.214934	-0.392274	-0.185757
H85	H	-0.200249	-0.440880	-0.180183
H86	H	-0.335326	-0.386613	-0.174054
H87	H	-0.178834	-0.372632	-0.233168
C88	C	0.000619	-0.950960	0.572664
H89	H	0.000665	-0.988190	0.609661
H90	H	-0.101512	-0.958599	0.549367
H91	H	0.102751	-0.949413	0.540144
H92	H	0.000513	-0.939280	0.133713
C93	C	0.000475	-0.685095	0.537061
H94	H	0.000442	-0.646927	0.563961
H95	H	0.102590	-0.678284	0.503835
H96	H	-0.101673	-0.687474	0.513061
H97	H	-0.185716	-0.741542	0.338394
H98	H	-0.185563	-0.251025	-0.171147
C99	C	0.000710	-0.002868	-0.221064
H100	H	0.000733	-0.029766	-0.259234
H101	H	-0.101401	0.021172	-0.218685
H102	H	0.102861	0.030321	-0.227879
H103	H	0.000640	-0.147072	-0.205057
H104	H	0.000571	-0.177840	0.024648
C105	C	0.000644	-0.038484	0.044811
H106	H	0.000685	0.011066	0.036454
H107	H	-0.101487	-0.058415	0.075254
H108	H	0.102775	-0.049266	0.066040
H109	H	0.186728	-0.257924	-0.011959
H110	H	0.186670	-0.389351	-0.013881
H111	H	0.186713	-0.900769	0.345150
C112	C	0.216087	-0.911219	0.487456
H113	H	0.201418	-0.904220	0.535521
H114	H	0.180046	-0.958970	0.483369
H115	H	0.336482	-0.899869	0.469325
H116	H	0.000660	-0.930793	0.712019
H117	H	0.000535	-0.701099	0.681264
