data_functionalizedCrystal
_audit_creation_method	'MofGen! by Chris Wilmer'
_symmetry_space_group_name_H-M	'P1'
_symmetry_Int_Tables_number	1
_symmetry_cell_setting	triclinic
loop_
_symmetry_equiv_pos_as_xyz
  x,y,z
_cell_length_a	17.077404
_cell_length_b	18.215405
_cell_length_c	17.077396
_cell_angle_alpha	89.971420
_cell_angle_beta	89.981638
_cell_angle_gamma	90.020702
loop_
_atom_site_label
_atom_site_type_symbol
_atom_site_fract_x
_atom_site_fract_y
_atom_site_fract_z
Zn1	Zn	1.200055	-0.293024	-0.443818
Zn2	Zn	1.533389	0.040309	-0.110485
Zn3	Zn	1.866722	0.373643	0.222848
Zn4	Zn	1.199963	-0.416098	-0.312552
Zn5	Zn	1.533296	-0.082764	0.020781
Zn6	Zn	1.866630	0.250569	0.354115
Zn7	Zn	1.068787	-0.293045	-0.312569
Zn8	Zn	1.402121	0.040288	0.020764
Zn9	Zn	1.735454	0.373622	0.354098
Zn10	Zn	1.068756	-0.416049	-0.443778
Zn11	Zn	1.402089	-0.082716	-0.110445
Zn12	Zn	1.735422	0.250618	0.222888
O13	O	1.134390	-0.354554	-0.378179
O14	O	1.467724	-0.021221	-0.044846
O15	O	1.801057	0.312113	0.288487
O16	O	1.309890	-0.309362	-0.426415
O17	O	1.643223	0.023972	-0.093082
O18	O	1.976557	0.357305	0.240251
O19	O	1.182537	-0.399804	-0.202707
O20	O	1.515870	-0.066470	0.130626
O21	O	1.849203	0.266863	0.463959
O22	O	1.086252	-0.190058	-0.330003
O23	O	1.419586	0.143275	0.003330
O24	O	1.752919	0.476609	0.336664
O25	O	1.309822	-0.399783	-0.329975
O26	O	1.643155	-0.066450	0.003359
O27	O	1.976489	0.266883	0.336692
O28	O	1.182694	-0.190043	-0.426432
O29	O	1.516028	0.143291	-0.093098
O30	O	1.849361	0.476624	0.240235
O31	O	1.086163	-0.309397	-0.202720
O32	O	1.419496	0.023936	0.130614
O33	O	1.752829	0.357269	0.463947
O34	O	0.958936	-0.309350	-0.329964
O35	O	1.292269	0.023983	0.003369
O36	O	1.625603	0.357316	0.336702
O37	O	1.086198	-0.399700	-0.553631
O38	O	1.419532	-0.066367	-0.220297
O39	O	1.752865	0.266966	0.113036
O40	O	0.958913	-0.399721	-0.426363
O41	O	1.292246	-0.066388	-0.093030
O42	O	1.625580	0.266946	0.240303
O43	O	1.182664	-0.309315	-0.553660
O44	O	1.515997	0.024019	-0.220327
O45	O	1.849330	0.357352	0.113007
O46	O	1.182506	-0.519075	-0.329936
O47	O	1.515839	-0.185742	0.003398
O48	O	1.849173	0.147591	0.336731
O49	O	1.086109	-0.519040	-0.426347
O50	O	1.419442	-0.185706	-0.093014
O51	O	1.752775	0.147627	0.240320
C52	C	0.930442	-0.354533	-0.378162
C53	C	1.263776	-0.021200	-0.044828
C54	C	1.597109	0.312134	0.288505
C55	C	0.843193	-0.354542	-0.378173
C56	C	1.176526	-0.021209	-0.044840
C57	C	1.509859	0.312125	0.288494
C58	C	0.802239	-0.307543	-0.428466
C59	C	1.135572	0.025790	-0.095133
C60	C	1.468905	0.359124	0.238200
C61	C	0.720258	-0.307548	-0.428470
C62	C	1.053592	0.025785	-0.095136
C63	C	1.386925	0.359119	0.238197
C64	C	0.679233	-0.354556	-0.378183
C65	C	1.012567	-0.021222	-0.044850
C66	C	1.345900	0.312111	0.288483
C67	C	0.720193	-0.401557	-0.327885
C68	C	1.053526	-0.068223	0.005449
C69	C	1.386860	0.265110	0.338782
C70	C	0.802172	-0.401548	-0.327878
C71	C	1.135505	-0.068214	0.005456
C72	C	1.468839	0.265119	0.338789
C73	C	0.549323	-0.401573	-0.327904
C74	C	0.882656	-0.068240	0.005429
C75	C	1.215990	0.265093	0.338763
C76	C	0.467338	-0.401583	-0.327912
C77	C	0.800672	-0.068250	0.005421
C78	C	1.134005	0.265083	0.338755
C79	C	0.467409	-0.307574	-0.428496
C80	C	0.800743	0.025760	-0.095163
C81	C	1.134076	0.359093	0.238170
C82	C	0.549388	-0.307565	-0.428489
C83	C	0.882721	0.025769	-0.095156
C84	C	1.216055	0.359102	0.238177
C85	C	0.590342	-0.354567	-0.378191
C86	C	0.923676	-0.021233	-0.044858
C87	C	1.257009	0.312100	0.288475
C88	C	1.134315	-0.545760	-0.378152
C89	C	1.467648	-0.212427	-0.044819
C90	C	1.800982	0.120906	0.288514
C91	C	1.134355	-0.627559	-0.378167
C92	C	1.467688	-0.294226	-0.044834
C93	C	1.801021	0.039108	0.288500
C94	C	1.184596	-0.815684	-0.428445
C95	C	1.517929	-0.482351	-0.095112
C96	C	1.851263	-0.149017	0.238221
C97	C	1.184625	-0.892543	-0.428460
C98	C	1.517958	-0.559209	-0.095127
C99	C	1.851291	-0.225876	0.238207
C100	C	1.084282	-0.892672	-0.327962
C101	C	1.417615	-0.559339	0.005371
C102	C	1.750948	-0.226005	0.338705
C103	C	1.084250	-0.815815	-0.327952
C104	C	1.417583	-0.482481	0.005381
C105	C	1.750916	-0.149148	0.338715
C106	C	1.134411	-0.777323	-0.378192
C107	C	1.467745	-0.443989	-0.044859
C108	C	1.801078	-0.110656	0.288474
C109	C	1.134472	-0.931039	-0.378217
C110	C	1.467805	-0.597705	-0.044884
C111	C	1.801138	-0.264372	0.288449
C112	C	1.134502	-1.014372	-0.378233
C113	C	1.467836	-0.681039	-0.044900
C114	C	1.801169	-0.347706	0.288434
C115	C	1.134380	-0.693984	-0.378178
C116	C	1.467713	-0.360650	-0.044845
C117	C	1.801047	-0.027317	0.288489
C118	C	1.339135	-0.354575	-0.378198
C119	C	1.672468	-0.021242	-0.044864
C120	C	2.005801	0.312091	0.288469
C121	C	1.426384	-0.354585	-0.378205
C122	C	1.759718	-0.021251	-0.044872
C123	C	2.093051	0.312082	0.288461
C124	C	1.134438	-0.354500	-0.582924
C125	C	1.467771	-0.021166	-0.249590
C126	C	1.801104	0.312167	0.083743
C127	C	1.134458	-0.354477	-0.670174
C128	C	1.467791	-0.021143	-0.336840
C129	C	1.801125	0.312190	-0.003507
C130	C	1.134487	-0.162601	-0.378224
C131	C	1.467821	0.170732	-0.044890
C132	C	1.801154	0.504066	0.288443
C133	C	1.134528	-0.080802	-0.378243
C134	C	1.467862	0.252531	-0.044909
C135	C	1.801195	0.585865	0.288424
C136	C	1.184689	-0.307409	-0.711180
C137	C	1.518023	0.025925	-0.377847
C138	C	1.851356	0.359258	-0.044514
C139	C	1.184699	-0.307384	-0.793161
C140	C	1.518032	0.025949	-0.459827
C141	C	1.851366	0.359282	-0.126494
C142	C	1.134480	-0.354432	-0.834133
C143	C	1.467814	-0.021099	-0.500800
C144	C	1.801147	0.312235	-0.167466
C145	C	1.084243	-0.401502	-0.793121
C146	C	1.417577	-0.068169	-0.459787
C147	C	1.750910	0.265165	-0.126454
C148	C	1.084231	-0.401522	-0.711142
C149	C	1.417564	-0.068189	-0.377808
C150	C	1.750897	0.265145	-0.044475
C151	C	1.084275	-0.401458	-0.963991
C152	C	1.417608	-0.068124	-0.630657
C153	C	1.750942	0.265209	-0.297324
C154	C	1.084289	-0.401439	-1.045975
C155	C	1.417622	-0.068105	-0.712642
C156	C	1.750955	0.265228	-0.379309
C157	C	1.184743	-0.307320	-1.046010
C158	C	1.518077	0.026014	-0.712677
C159	C	1.851410	0.359347	-0.379343
C160	C	1.184730	-0.307340	-0.964031
C161	C	1.518064	0.025993	-0.630698
C162	C	1.851397	0.359327	-0.297364
C163	C	1.134494	-0.354411	-0.923024
C164	C	1.467828	-0.021078	-0.589691
C165	C	1.801161	0.312255	-0.256357
C166	C	1.134388	-0.354555	-0.174232
C167	C	1.467721	-0.021222	0.159102
C168	C	1.801055	0.312112	0.492435
C169	C	1.134520	-0.354371	-0.086982
C170	C	1.467853	-0.021037	0.246351
C171	C	1.801187	0.312296	0.579685
H172	H	0.582665	-0.439845	-0.286944
H173	H	0.915999	-0.106512	0.046389
H174	H	1.249332	0.226821	0.379723
C175	C	1.029042	-0.453259	-0.918885
C176	C	1.362376	-0.119926	-0.585551
C177	C	1.695709	0.213408	-0.252218
H178	H	0.999149	-0.481289	-0.955026
H179	H	1.332482	-0.147955	-0.621693
H180	H	1.665815	0.185378	-0.288359
H181	H	0.994841	-0.425136	-0.886892
H182	H	1.328174	-0.091803	-0.553558
H183	H	1.661507	0.241531	-0.220225
H184	H	1.059079	-0.485330	-0.886917
H185	H	1.392412	-0.151996	-0.553583
H186	H	1.725746	0.181337	-0.220250
H187	H	1.043443	-0.924021	-0.287057
H188	H	1.376776	-0.590688	0.046276
H189	H	1.710110	-0.257355	0.379610
C190	C	1.240001	-0.255539	-1.091110
C191	C	1.573335	0.077794	-0.757777
C192	C	1.906668	0.411127	-0.424443
H193	H	1.269915	-0.227530	-1.054967
H194	H	1.603248	0.105804	-0.721634
H195	H	1.936581	0.439137	-0.388301
H196	H	1.209998	-0.223460	-1.123093
H197	H	1.543332	0.109874	-0.789759
H198	H	1.876665	0.443207	-0.456426
H199	H	1.274195	-0.283693	-1.123089
H200	H	1.607528	0.049640	-0.789755
H201	H	1.940862	0.382974	-0.456422
H202	H	1.043319	-0.439842	-0.677755
H203	H	1.376652	-0.106509	-0.344422
H204	H	1.709986	0.226824	-0.011088
H205	H	0.686917	-0.269278	-0.469425
H206	H	1.020250	0.064055	-0.136092
H207	H	1.353584	0.397389	0.197241
H208	H	0.686784	-0.439828	-0.286937
H209	H	1.020117	-0.106494	0.046397
H210	H	1.353451	0.226839	0.379730
H211	H	1.043395	-0.439747	-1.079333
H212	H	1.376728	-0.106414	-0.746000
H213	H	1.710061	0.226919	-0.412666
H214	H	1.225488	-0.923773	-0.469383
H215	H	1.558821	-0.590440	-0.136049
H216	H	1.892155	-0.257107	0.197284
H217	H	1.043380	-0.784579	-0.287030
H218	H	1.376713	-0.451245	0.046303
H219	H	1.710046	-0.117912	0.379637
H220	H	0.835635	-0.269266	-0.469417
H221	H	1.168969	0.064068	-0.136084
H222	H	1.502302	0.397401	0.197249
H223	H	0.434060	-0.269301	-0.469449
H224	H	0.767394	0.064032	-0.136116
H225	H	1.100727	0.397365	0.197217
C226	C	0.594515	-0.255856	-0.483802
C227	C	0.927848	0.077477	-0.150468
C228	C	1.261181	0.410810	0.182865
H229	H	0.558384	-0.227860	-0.513753
H230	H	0.891717	0.105474	-0.180419
H231	H	1.225051	0.438807	0.152914
H232	H	0.626503	-0.284045	-0.517946
H233	H	0.959837	0.049289	-0.184613
H234	H	1.293170	0.382622	0.148721
H235	H	0.626488	-0.223751	-0.453823
H236	H	0.959821	0.109582	-0.120490
H237	H	1.293155	0.442916	0.212844
C238	C	0.422212	-0.453287	-0.272595
C239	C	0.755545	-0.119954	0.060738
C240	C	1.088879	0.213379	0.394072
H241	H	0.458342	-0.481272	-0.242631
H242	H	0.791676	-0.147938	0.090703
H243	H	1.125009	0.185395	0.424036
H244	H	0.390236	-0.485393	-0.302563
H245	H	0.723570	-0.152060	0.030770
H246	H	1.056903	0.181273	0.364103
H247	H	0.390225	-0.425089	-0.238451
H248	H	0.723558	-0.091756	0.094882
H249	H	1.056892	0.241577	0.428215
H250	H	0.835516	-0.439818	-0.286923
H251	H	1.168849	-0.106485	0.046410
H252	H	1.502182	0.226848	0.379744
H253	H	1.225440	-0.784346	-0.469355
H254	H	1.558773	-0.451012	-0.136022
H255	H	1.892106	-0.117679	0.197312
H256	H	1.225586	-0.269099	-0.677827
H257	H	1.558919	0.064234	-0.344493
H258	H	1.892252	0.397567	-0.011160
H259	H	1.225604	-0.269059	-0.826545
H260	H	1.558937	0.064275	-0.493212
H261	H	1.892271	0.397608	-0.159878
C262	C	1.239970	-0.255590	-0.918963
C263	C	1.573303	0.077744	-0.585629
C264	C	1.906636	0.411077	-0.252296
H265	H	1.269885	-0.227548	-0.955124
H266	H	1.603219	0.105785	-0.621791
H267	H	1.936552	0.439119	-0.288458
H268	H	1.274150	-0.283753	-0.886979
H269	H	1.607483	0.049580	-0.553646
H270	H	1.940817	0.382913	-0.220313
H271	H	1.209946	-0.223527	-0.886987
H272	H	1.543279	0.109806	-0.553654
H273	H	1.876613	0.443139	-0.220321
H274	H	1.043352	-0.439806	-0.826487
H275	H	1.376685	-0.106473	-0.493153
H276	H	1.710018	0.226860	-0.159820
