data_functionalizedCrystal
_audit_creation_method	'MofGen! by Chris Wilmer'
_symmetry_space_group_name_H-M	'P1'
_symmetry_Int_Tables_number	1
_symmetry_cell_setting	triclinic
loop_
_symmetry_equiv_pos_as_xyz
  x,y,z
_cell_length_a	15.944551
_cell_length_b	10.654550
_cell_length_c	9.730223
_cell_angle_alpha	89.999807
_cell_angle_beta	90.004286
_cell_angle_gamma	83.991821
loop_
_atom_site_label
_atom_site_type_symbol
_atom_site_fract_x
_atom_site_fract_y
_atom_site_fract_z
O1	O	1.115457	0.161961	-0.114143
O2	O	0.871023	0.181930	-0.114177
O3	O	0.998860	-0.010867	-0.114154
O4	O	0.987620	0.354757	-0.114166
O5	O	0.998858	-0.010862	0.114426
O6	O	0.871021	0.181934	0.114403
O7	O	1.115455	0.161966	0.114437
Zn8	Zn	0.993238	0.171951	0.150712
Zn9	Zn	0.993240	0.171944	-0.150452
O10	O	0.987618	0.354762	0.114414
C11	C	0.998034	-0.057652	0.000134
C12	C	0.995565	-0.197063	0.000129
C13	C	0.839723	0.181103	0.000109
C14	C	0.746463	0.178618	0.000096
C15	C	1.070833	-0.277522	0.000144
C16	C	1.068508	-0.408513	0.000134
C17	C	0.915639	-0.378572	0.000100
C18	C	0.917965	-0.247584	0.000101
C19	C	1.148432	-0.227002	0.000172
C20	C	1.223707	-0.307463	0.000188
C21	C	1.221382	-0.438453	0.000178
C22	C	1.143782	-0.488983	0.000152
C23	C	0.530880	0.053173	0.000127
C24	C	0.470198	0.111423	-0.112577
C25	C	0.575711	0.174122	0.000112
C26	C	0.470219	0.111456	0.112785
C27	C	0.410773	0.169770	0.000134
C28	C	0.516257	0.232405	-0.112684
C29	C	0.516284	0.232421	0.112779
C30	C	0.455620	0.290759	0.000047
C31	C	0.670728	0.176625	0.000099
C32	C	0.315757	0.167276	0.000138
C33	C	1.146755	0.162792	0.000148
C34	C	1.240015	0.165278	0.000152
C35	C	0.988444	0.401547	0.000123
C36	C	0.990913	0.540958	0.000119
N37	N	0.993243	0.171954	0.356249
N38	N	0.993242	0.171931	-0.355988
C39	C	1.049864	0.086613	0.428185
C40	C	1.049862	0.086598	0.572068
C41	C	0.936615	0.257276	0.572066
C42	C	0.936614	0.257285	0.428185
C43	C	1.106493	0.001283	0.356248
C44	C	1.163119	-0.084065	0.428184
C45	C	1.163117	-0.084080	0.572067
C46	C	1.106489	0.001252	0.644014
H47	H	1.150334	-0.120344	0.000185
H48	H	1.106502	0.001290	0.239091
H49	H	1.209218	-0.153581	0.630636
H50	H	0.536541	0.283521	-0.208071
H51	H	1.209220	-0.153547	0.369598
H52	H	1.106486	0.001224	0.761173
C53	C	0.411603	0.426491	-0.000040
H54	H	0.427361	0.469245	-0.080172
H55	H	0.428079	0.469774	0.079258
H56	H	0.352204	0.424186	0.000711
C57	C	0.874337	0.351143	0.651204
H58	H	0.882453	0.338923	0.747196
H59	H	0.818200	0.337457	0.627622
H60	H	0.883951	0.434971	0.627628
C61	C	1.309059	-0.251885	0.000216
H62	H	1.299666	-0.162349	0.000233
H63	H	1.340088	-0.279497	-0.079488
H64	H	1.340077	-0.279508	0.079943
C65	C	0.543890	0.301470	0.241495
H66	H	0.528299	0.258375	0.321501
H67	H	0.517080	0.385396	0.242303
H68	H	0.603333	0.303206	0.240107
C69	C	0.835175	-0.159068	0.000088
H70	H	0.847676	-0.073822	0.000078
H71	H	0.803384	-0.174379	0.079792
H72	H	0.803393	-0.174383	-0.079640
H73	H	0.852461	-0.419724	0.000081
H74	H	0.449836	0.060280	0.208064
H75	H	0.890507	0.326777	0.369614
C76	C	0.575119	-0.082428	-0.000039
H77	H	0.559454	-0.125197	-0.080224
H78	H	0.558713	-0.125849	0.079206
H79	H	0.634496	-0.079884	0.000760
H80	H	1.282674	-0.503962	0.000177
C81	C	0.442622	0.042316	-0.241284
H82	H	0.468634	-0.042083	-0.241147
H83	H	0.459147	0.084466	-0.321320
H84	H	0.383071	0.041908	-0.240769
H85	H	1.141895	-0.595646	0.000130
