data_functionalizedCrystal
_audit_creation_method	'MofGen! by Chris Wilmer'
_symmetry_space_group_name_H-M	'P1'
_symmetry_Int_Tables_number	1
_symmetry_cell_setting	triclinic
loop_
_symmetry_equiv_pos_as_xyz
  x,y,z
_cell_length_a	6.817900
_cell_length_b	16.418049
_cell_length_c	10.992410
_cell_angle_alpha	93.843616
_cell_angle_beta	108.764651
_cell_angle_gamma	103.389670
loop_
_atom_site_label
_atom_site_type_symbol
_atom_site_fract_x
_atom_site_fract_y
_atom_site_fract_z
V1	V	-4.086920	-0.115886	-0.401046
O2	O	-4.073689	0.005569	-0.392946
O3	O	-4.037641	-0.229782	-0.398750
O4	O	-4.064933	-0.114103	-0.575751
O5	O	-4.046208	-0.110911	-0.214720
V6	V	-4.567240	-0.101359	-0.378705
O7	O	-4.355206	-0.147753	-0.450051
O8	O	-4.749152	-0.069492	-0.329699
O9	O	-4.393313	0.012538	-0.381000
O10	O	-4.697868	-0.222813	-0.386805
O11	O	-4.725349	-0.106334	-0.565031
O12	O	-4.366021	-0.103141	-0.204000
C13	C	-3.881573	-0.257548	-0.392539
C14	C	-3.922744	-0.350660	-0.391827
C15	C	-3.916385	-0.109987	-0.618320
C16	C	-3.979686	-0.109283	-0.761145
C17	C	-4.200504	-0.569149	-0.396640
C18	C	-4.239178	-0.656639	-0.395982
C19	C	-3.873016	-0.648094	-0.383119
C20	C	-3.834349	-0.560608	-0.383786
C21	C	-3.998096	-0.521137	-0.390540
C22	C	-4.075438	-0.696113	-0.389215
C23	C	-4.117369	-0.790973	-0.388502
C24	C	-3.956164	-0.426271	-0.391256
C25	C	-3.848321	-0.102870	-0.956243
C26	C	-3.782517	-0.103949	-0.807764
C27	C	-4.158227	-0.191869	-0.838572
C28	C	-4.222713	-0.191138	-0.987135
C29	C	-4.138189	-0.031223	-0.948479
C30	C	-4.067573	-0.030831	-0.799465
C31	C	-4.212722	0.040299	-0.387208
C32	C	-4.150791	0.133410	-0.387928
C33	C	-4.177909	-0.107261	-0.161424
C34	C	-4.093847	-0.107960	-0.018597
H35	H	-4.333839	-0.537015	-0.402138
H36	H	-3.739703	-0.680242	-0.377617
H37	H	-3.712154	-0.159851	-0.783168
C38	C	-4.259695	-0.029459	-0.755387
N39	N	-4.404356	-0.028411	-0.722142
C40	C	-4.461837	-0.709448	-0.402688
N41	N	-4.629552	-0.749224	-0.407739
H42	H	-4.193449	-0.249242	-1.033632
C43	C	-4.466301	-0.200846	-1.044771
N44	N	-4.649772	-0.208167	-1.088179
H45	H	-3.669520	-0.521515	-0.378823
H46	H	-3.745217	-0.043079	-0.974839
C47	C	-3.600843	-0.023735	-0.735388
N48	N	-3.463988	0.036682	-0.680880
C49	C	-4.359184	-0.201176	-0.799693
N50	N	-4.510543	-0.208184	-0.770406
H51	H	-4.098730	-0.250115	-0.813194
H52	H	-4.050064	0.031491	-0.968593
C53	C	-3.893505	0.051705	-0.728414
N54	N	-3.762392	0.113870	-0.674889
H55	H	-3.810382	-0.158007	-1.004451
C56	C	-4.379027	-0.035272	-1.003679
N57	N	-4.560425	-0.038327	-1.045265
