data_functionalizedCrystal
_audit_creation_method	'MofGen! by Chris Wilmer'
_symmetry_space_group_name_H-M	'P1'
_symmetry_Int_Tables_number	1
_symmetry_cell_setting	triclinic
loop_
_symmetry_equiv_pos_as_xyz
  x,y,z
_cell_length_a	14.044220
_cell_length_b	15.186229
_cell_length_c	16.109301
_cell_angle_alpha	89.992751
_cell_angle_beta	91.674821
_cell_angle_gamma	89.995422
loop_
_atom_site_label
_atom_site_type_symbol
_atom_site_fract_x
_atom_site_fract_y
_atom_site_fract_z
O1	O	1.257639	0.073140	-0.200438
O2	O	1.757639	0.573140	0.299562
O3	O	0.981672	0.073163	-0.193205
O4	O	1.481672	0.573163	0.306795
O5	O	1.127237	0.073142	-0.076355
O6	O	1.627237	0.573142	0.423645
O7	O	1.112074	0.073161	-0.317289
O8	O	1.612074	0.573161	0.182711
O9	O	1.127235	-0.073315	-0.076347
O10	O	1.627235	0.426685	0.423653
O11	O	0.981671	-0.073295	-0.193198
O12	O	1.481671	0.426705	0.306802
O13	O	1.257638	-0.073317	-0.200431
O14	O	1.757638	0.426683	0.299569
Zn15	Zn	1.119654	-0.096559	-0.196813
Zn16	Zn	1.619654	0.403441	0.303187
Zn17	Zn	1.119656	0.096405	-0.196823
Zn18	Zn	1.619656	0.596405	0.303177
O19	O	1.112073	-0.073296	-0.317281
O20	O	1.612073	0.426704	0.182719
C21	C	0.946358	-0.000063	-0.190036
C22	C	1.446358	0.499937	0.309964
C23	C	0.841135	-0.000055	-0.180592
C24	C	1.341135	0.499945	0.319408
N25	N	1.119660	-0.228252	-0.196806
N26	N	1.619660	0.271748	0.303194
N27	N	1.119657	0.228097	-0.196824
N28	N	1.619657	0.728097	0.303176
C29	C	0.648479	-0.000074	-0.163326
C30	C	1.148479	0.499926	0.336674
C31	C	0.590825	-0.000072	-0.230306
C32	C	1.090825	0.499928	0.269694
C33	C	0.483625	-0.000083	-0.220699
C34	C	0.983625	0.499917	0.279301
C35	C	0.755690	-0.000064	-0.172932
C36	C	1.255690	0.499936	0.327068
C37	C	1.292952	-0.000089	-0.203600
C38	C	1.792952	0.499911	0.296400
C39	C	1.398175	-0.000091	-0.213044
C40	C	1.898175	0.499909	0.286956
C41	C	1.126622	-0.000087	-0.045330
C42	C	1.626622	0.499913	0.454670
C43	C	1.124781	-0.000088	0.047102
C44	C	1.624781	0.499912	0.547102
C45	C	1.184238	0.453811	-0.145201
C46	C	1.684238	0.953811	0.354799
C47	C	1.184240	0.546001	-0.145199
C48	C	1.684240	1.046001	0.354801
C49	C	1.055077	0.546028	-0.248435
C50	C	1.555077	1.046028	0.251565
C51	C	1.055079	0.453840	-0.248440
C52	C	1.555079	0.953840	0.251560
C53	C	1.119659	0.407734	-0.196819
C54	C	1.619659	0.907734	0.303181
C55	C	1.119659	0.592112	-0.196811
C56	C	1.619659	1.092112	0.303189
C57	C	1.119661	0.692068	-0.196809
C58	C	1.619661	1.192068	0.303191
C59	C	1.119658	0.307772	-0.196821
C60	C	1.619658	0.807772	0.303179
C61	C	1.112688	-0.000065	-0.348306
C62	C	1.612688	0.499935	0.151694
C63	C	1.114529	-0.000058	-0.440738
C64	C	1.614529	0.499942	0.059262
C65	C	1.206874	-0.000081	0.263266
C66	C	1.706874	0.499919	0.763266
C67	C	1.205137	-0.000073	0.350116
C68	C	1.705137	0.499927	0.850116
C69	C	1.032429	-0.000063	0.343091
C70	C	1.532429	0.499937	0.843091
C71	C	1.034168	-0.000064	0.256243
C72	C	1.534168	0.499936	0.756243
C73	C	1.121393	-0.000078	0.216333
C74	C	1.621393	0.499922	0.716333
C75	C	1.117917	-0.000069	0.390031
C76	C	1.617917	0.499931	0.890031
C77	C	1.116032	-0.000061	0.484197
C78	C	1.616032	0.499939	0.984197
C79	C	1.123278	-0.000084	0.122161
C80	C	1.623278	0.499916	0.622161
H81	H	0.621976	-0.000063	-0.294863
H82	H	1.121976	0.499937	0.205137
H83	H	0.617330	-0.000084	-0.098774
H84	H	1.117330	0.499916	0.401226
Br85	Br	1.271883	0.391242	-0.075145
Br86	Br	1.771883	0.891242	0.424855
Br87	Br	1.271892	0.608531	-0.075148
Br88	Br	1.771892	1.108531	0.424852
Br89	Br	0.967435	0.608604	-0.318488
Br90	Br	1.467435	1.108604	0.181512
Br91	Br	0.967438	0.391299	-0.318505
Br92	Br	1.467438	0.891299	0.181495
H93	H	1.277898	-0.000090	0.230774
H94	H	1.777898	0.499910	0.730774
H95	H	1.274744	-0.000074	0.388326
H96	H	1.774744	0.499926	0.888326
Br97	Br	0.914058	-0.000042	0.397260
Br98	Br	1.414058	0.499958	0.897260
Br99	Br	0.918149	-0.000048	0.192542
Br100	Br	1.418149	0.499952	0.692542
