data_functionalizedCrystal
_audit_creation_method	'MofGen! by Chris Wilmer'
_symmetry_space_group_name_H-M	'P1'
_symmetry_Int_Tables_number	1
_symmetry_cell_setting	triclinic
loop_
_symmetry_equiv_pos_as_xyz
  x,y,z
_cell_length_a	14.519709
_cell_length_b	14.519731
_cell_length_c	7.088929
_cell_angle_alpha	83.763267
_cell_angle_beta	96.220807
_cell_angle_gamma	83.684499
loop_
_atom_site_label
_atom_site_type_symbol
_atom_site_fract_x
_atom_site_fract_y
_atom_site_fract_z
O1	O	1.214440	0.130340	-0.158746
O2	O	0.945961	0.144580	-0.158805
O3	O	1.087310	0.003222	-0.158757
O4	O	1.073091	0.271698	-0.158795
O5	O	1.106200	-0.015712	0.159225
O6	O	0.964851	0.125646	0.159177
O7	O	1.233330	0.111406	0.159236
Cu8	Cu	1.100815	0.116797	0.188240
Cu9	Cu	1.078476	0.139189	-0.187810
O10	O	1.091981	0.252765	0.159187
C11	C	1.096089	-0.040605	0.000234
C12	C	1.094093	-0.142985	0.000235
C13	C	0.921046	0.134450	0.000178
C14	C	0.818663	0.132463	0.000156
C15	C	1.092470	-0.226129	0.000230
C16	C	1.090443	-0.330436	0.000215
C17	C	1.088834	-0.413575	0.000203
C18	C	1.086807	-0.517890	0.000191
C19	C	0.443772	0.125139	0.000244
C20	C	0.548078	0.127173	0.000219
C21	C	0.631214	0.128801	0.000199
C22	C	0.735527	0.130835	0.000177
C23	C	1.258245	0.121537	0.000248
C24	C	1.360627	0.123524	0.000257
C25	C	1.083202	0.296591	0.000192
C26	C	1.085197	0.398972	0.000179
N27	N	1.116534	0.101048	0.452734
N28	N	1.062764	0.154931	-0.452303
H29	H	1.172271	0.045212	0.534409
H30	H	1.007038	0.210770	0.466031
