data_functionalizedCrystal
_audit_creation_method	'MofGen! by Chris Wilmer'
_symmetry_space_group_name_H-M	'P1'
_symmetry_Int_Tables_number	1
_symmetry_cell_setting	triclinic
loop_
_symmetry_equiv_pos_as_xyz
  x,y,z
_cell_length_a	19.288864
_cell_length_b	10.654541
_cell_length_c	17.766277
_cell_angle_alpha	89.993913
_cell_angle_beta	89.976791
_cell_angle_gamma	83.810087
loop_
_atom_site_label
_atom_site_type_symbol
_atom_site_fract_x
_atom_site_fract_y
_atom_site_fract_z
O1	O	0.922378	0.156657	-0.062836
O2	O	0.720256	0.177790	-0.062784
O3	O	0.825965	-0.015616	-0.062806
O4	O	0.816669	0.350062	-0.062813
O5	O	0.825946	-0.015625	0.062382
O6	O	0.720237	0.177780	0.062404
O7	O	0.922359	0.156647	0.062353
Cu8	Cu	0.821296	0.167213	0.073809
Cu9	Cu	0.821319	0.167224	-0.074241
O10	O	0.816650	0.350053	0.062375
C11	C	0.694365	0.177105	-0.000183
C12	C	0.617248	0.175064	-0.000163
C13	C	0.573295	0.288545	-0.000177
C14	C	0.500835	0.286627	-0.000186
C15	C	0.472332	0.171222	-0.000195
C16	C	0.516296	0.057725	-0.000177
C17	C	0.588754	0.059646	-0.000161
C18	C	0.363483	0.080504	-0.044078
C19	C	0.291026	0.078588	-0.044098
C20	C	0.248848	0.165292	-0.000241
C21	C	0.279134	0.253935	0.043628
C22	C	0.351592	0.255856	0.043644
C23	C	0.393765	0.169126	-0.000212
C24	C	0.126325	0.276702	-0.000262
C25	C	0.053864	0.274780	-0.000266
C26	C	0.069327	0.045875	-0.000265
C27	C	0.141786	0.047800	-0.000254
C28	C	0.170280	0.163218	-0.000256
C29	C	0.825273	-0.062404	-0.000212
C30	C	0.823232	-0.201804	-0.000213
C31	C	0.949636	-0.232480	-0.000236
C32	C	1.011877	-0.313307	-0.000245
C33	C	1.009955	-0.444284	-0.000247
C34	C	0.945785	-0.494436	-0.000242
C35	C	0.883545	-0.413609	-0.000232
C36	C	0.885474	-0.282631	-0.000228
C37	C	0.757142	-0.382933	-0.000215
C38	C	0.759063	-0.251955	-0.000208
C39	C	0.692973	-0.433084	-0.000210
C40	C	0.630732	-0.352257	-0.000195
C41	C	0.632656	-0.221273	-0.000192
C42	C	0.696823	-0.171129	-0.000198
C43	C	0.948250	0.157332	-0.000250
C44	C	1.025367	0.159373	-0.000274
C45	C	0.817342	0.396841	-0.000220
C46	C	0.819383	0.536241	-0.000225
N47	N	0.821286	0.167204	0.177940
N48	N	0.821335	0.167223	-0.178371
C49	C	0.868109	0.081606	0.217317
C50	C	0.868113	0.081600	0.296119
C51	C	0.821301	0.167214	0.335540
C52	C	0.774468	0.252818	0.296154
C53	C	0.774461	0.252813	0.217354
C54	C	0.812750	0.281635	0.460378
C55	C	0.812763	0.281642	0.539176
C56	C	0.821319	0.167229	0.578587
C57	C	0.829878	0.052804	0.539188
C58	C	0.829871	0.052799	0.460388
C59	C	0.821303	0.167228	0.420986
C60	C	0.868150	0.081617	0.703410
C61	C	0.868149	0.081610	0.782213
C62	C	0.774507	0.252839	0.782247
C63	C	0.774504	0.252836	0.703445
C64	C	0.821329	0.167226	0.664031
H65	H	0.493085	-0.036239	-0.000195
H66	H	0.691413	-0.539734	-0.000216
Cl67	Cl	0.715593	0.360432	0.167848
H68	H	0.578490	-0.393102	-0.000195
H69	H	0.596490	0.382527	-0.000181
H70	H	0.736351	0.322525	0.328255
Cl71	Cl	0.699248	-0.006473	-0.000190
H72	H	0.736388	0.322543	0.814343
H73	H	0.465041	0.379041	-0.000195
Cl74	Cl	0.927011	-0.026012	0.653860
Cl75	Cl	0.840641	-0.091039	0.588723
Cl76	Cl	0.943371	-0.659094	-0.000295
H77	H	0.581972	-0.155470	-0.000187
Cl78	Cl	0.927013	-0.026015	0.831719
Cl79	Cl	0.715641	0.360457	0.653937
H80	H	0.906235	0.011895	0.185228
Cl81	Cl	1.092542	-0.250253	-0.000257
H82	H	0.376248	0.328028	0.079365
H83	H	0.805798	0.374812	0.571249
Cl84	Cl	0.644013	-0.083028	-0.000144
Cl85	Cl	0.802058	0.425486	0.410842
Cl86	Cl	0.033502	-0.099209	-0.000268
Cl87	Cl	0.226118	0.362944	0.098767
H88	H	0.906244	0.011893	0.328185
H89	H	0.149526	0.370682	-0.000253
H90	H	0.836838	-0.040369	0.428313
H91	H	1.060636	-0.510094	-0.000261
H92	H	0.018077	0.367194	-0.000273
H93	H	0.177574	-0.044609	-0.000246
H94	H	0.266373	0.006415	-0.079822
Cl95	Cl	0.416501	-0.028508	-0.099219
H96	H	0.951208	-0.125834	-0.000224
