data_functionalizedCrystal
_audit_creation_method	'MofGen! by Chris Wilmer'
_symmetry_space_group_name_H-M	'P1'
_symmetry_Int_Tables_number	1
_symmetry_cell_setting	triclinic
loop_
_symmetry_equiv_pos_as_xyz
  x,y,z
_cell_length_a	18.215407
_cell_length_b	19.076808
_cell_length_c	18.215399
_cell_angle_alpha	92.328322
_cell_angle_beta	90.019833
_cell_angle_gamma	92.323864
loop_
_atom_site_label
_atom_site_type_symbol
_atom_site_fract_x
_atom_site_fract_y
_atom_site_fract_z
Zn1	Zn	1.113298	-0.280216	0.404332
Zn2	Zn	1.108261	-0.397924	0.276316
Zn3	Zn	0.990230	-0.280239	0.281279
Zn4	Zn	0.985252	-0.397885	0.399343
O5	O	1.049260	-0.339066	0.340318
O6	O	1.215614	-0.295837	0.387362
O7	O	1.092578	-0.382339	0.173989
O8	O	1.010746	-0.181739	0.301767
O9	O	1.211913	-0.382316	0.293309
O10	O	1.101164	-0.181722	0.392174
O11	O	1.005861	-0.295876	0.177635
O12	O	0.886585	-0.295838	0.296929
O13	O	1.002263	-0.382250	0.502990
O14	O	0.882928	-0.382272	0.383670
O15	O	1.096338	-0.295799	0.506656
O16	O	1.087752	-0.496415	0.288471
O17	O	0.997378	-0.496386	0.378858
C18	C	0.858054	-0.339054	0.340297
C19	C	0.776255	-0.339065	0.340305
C20	C	0.586173	-0.384142	0.385409
C21	C	0.509314	-0.384145	0.385418
C22	C	0.513098	-0.294002	0.295242
C23	C	0.589956	-0.293996	0.295237
C24	C	0.626491	-0.339071	0.340319
C25	C	0.472775	-0.339078	0.340333
C26	C	0.389441	-0.339080	0.340343
C27	C	0.709830	-0.339068	0.340311
C28	C	1.041498	-0.521940	0.332601
C29	C	1.038245	-0.600174	0.329324
C30	C	1.083757	-0.636859	0.374893
C31	C	1.080698	-0.710369	0.371815
C32	C	1.032129	-0.747192	0.323165
C33	C	0.986612	-0.710501	0.277594
C34	C	0.989668	-0.636993	0.280676
C35	C	1.017940	-0.967045	0.308900
C36	C	1.014889	-1.040558	0.305820
C37	C	1.108974	-1.040420	0.400043
C38	C	1.112029	-0.966911	0.403117
C39	C	1.066510	-0.930227	0.357549
N40	N	1.029002	-0.822330	0.320016
N41	N	1.069633	-0.855090	0.360702
C42	C	1.241212	-0.339078	0.340339
C43	C	1.323011	-0.339084	0.340348
C44	C	1.049307	-0.339017	0.532273
C45	C	1.049327	-0.338996	0.614072
C46	C	1.057072	-0.155477	0.348081
C47	C	1.060401	-0.077243	0.351389
C48	C	1.049258	-0.339063	0.149111
C49	C	1.049389	-0.338886	0.067320
C50	C	1.098330	-0.293939	0.804178
C51	C	1.098340	-0.293919	0.881038
C52	C	1.000380	-0.383945	0.877209
C53	C	1.000368	-0.383961	0.800351
C54	C	1.049347	-0.338959	0.763838
C55	C	1.049369	-0.338923	0.917555
C56	C	1.049379	-0.338901	1.000890
C57	C	1.049336	-0.338980	0.680498
H58	H	0.615918	-0.420843	0.422120
H59	H	0.476491	-0.420845	0.422136
N60	N	0.473692	-0.245406	0.246599
H61	H	0.418884	-0.252255	0.253435
H62	H	0.486654	-0.256316	0.193567
H63	H	0.622784	-0.257289	0.258520
N64	N	1.136146	-0.597146	0.427362
H65	H	1.164512	-0.631543	0.455764
H66	H	1.107438	-0.566651	0.462670
H67	H	1.138226	-0.257258	0.913880
H68	H	0.960505	-0.420585	0.906948
H69	H	1.117764	-0.740235	0.408917
H70	H	1.151578	-0.936931	0.442732
N71	N	1.151158	-0.245404	0.764798
H72	H	1.184042	-0.274021	0.731712
H73	H	1.182139	-0.216895	0.802069
H74	H	0.960474	-0.420621	0.767505
N75	N	1.158067	-1.079986	0.449189
H76	H	1.148763	-1.132140	0.439858
H77	H	1.147116	-1.067114	0.502277
H78	H	0.975335	-1.070537	0.266202
H79	H	0.980878	-0.937182	0.271795
H80	H	0.947063	-0.740488	0.237985
H81	H	0.952607	-0.607124	0.243570
