data_functionalizedCrystal
_audit_creation_method	'MofGen! by Chris Wilmer'
_symmetry_space_group_name_H-M	'P1'
_symmetry_Int_Tables_number	1
_symmetry_cell_setting	triclinic
loop_
_symmetry_equiv_pos_as_xyz
  x,y,z
_cell_length_a	25.639239
_cell_length_b	16.625547
_cell_length_c	16.625539
_cell_angle_alpha	89.972942
_cell_angle_beta	90.031255
_cell_angle_gamma	89.962128
loop_
_atom_site_label
_atom_site_type_symbol
_atom_site_fract_x
_atom_site_fract_y
_atom_site_fract_z
Zn1	Zn	-0.208161	-1.232590	0.456032
Zn2	Zn	-0.295599	-1.232455	0.321193
Zn3	Zn	-0.208178	-1.097751	0.321198
Zn4	Zn	-0.295566	-1.097684	0.455967
O5	O	-0.251876	-1.165120	0.388597
O6	O	-0.219767	-1.345404	0.438171
O7	O	-0.284023	-1.214558	0.208361
O8	O	-0.135011	-1.115723	0.339113
O9	O	-0.284007	-1.345305	0.339105
O10	O	-0.134998	-1.214788	0.438176
O11	O	-0.219796	-1.115592	0.208365
O12	O	-0.219764	-0.984910	0.339050
O13	O	-0.283951	-1.115607	0.568808
O14	O	-0.283967	-0.984860	0.438065
O15	O	-0.219735	-1.214722	0.568856
O16	O	-0.368760	-1.214492	0.339041
O17	O	-0.368736	-1.115477	0.438060
C18	C	-0.251864	-0.955629	0.388551
C19	C	-0.251872	-0.866008	0.388551
C20	C	-0.251872	-0.793225	0.388558
C21	C	-0.251874	-0.701917	0.388574
C22	C	-0.251878	-0.629141	0.388592
C23	C	-0.251881	-0.537826	0.388608
C24	C	-0.387719	-1.164984	0.388561
C25	C	-0.445833	-1.165000	0.388572
C26	C	-0.806196	-1.216812	0.337127
C27	C	-0.860800	-1.216843	0.337137
O28	O	-0.889037	-1.260755	0.293356
N29	N	-0.888115	-1.165262	0.388651
C30	C	-0.860823	-1.113651	0.440163
O31	O	-0.889071	-1.069781	0.483981
C32	C	-0.806220	-1.113625	0.440156
C33	C	-0.778908	-1.165204	0.388633
C34	C	-0.778883	-1.268387	0.285609
C35	C	-0.724283	-1.268355	0.285597
C36	C	-0.696995	-1.216747	0.337103
C37	C	-0.724307	-1.165171	0.388621
C38	C	-0.778929	-1.062019	0.491671
C39	C	-0.724322	-1.061997	0.491660
C40	C	-0.697009	-1.113576	0.440137
C41	C	-0.642418	-1.113531	0.440116
N42	N	-0.615103	-1.165112	0.388602
C43	C	-0.642391	-1.216720	0.337096
C44	C	-0.975494	-1.113712	0.440175
C45	C	-1.030096	-1.113734	0.440179
C46	C	-1.030069	-1.216927	0.337154
C47	C	-0.975466	-1.216900	0.337147
C48	C	-0.948179	-1.165294	0.388662
C49	C	-0.527726	-1.216648	0.337075
C50	C	-0.473121	-1.216608	0.337065
C51	C	-0.473153	-1.113418	0.440093
C52	C	-0.527753	-1.113454	0.440100
C53	C	-0.555039	-1.165076	0.388588
O54	O	-0.614147	-1.069644	0.483877
O55	O	-0.614137	-1.260591	0.293293
C56	C	-0.115503	-1.165278	0.388652
C57	C	-0.057389	-1.165345	0.388676
C58	C	-0.251837	-1.165172	0.598906
C59	C	-0.251821	-1.165195	0.688528
C60	C	-0.251886	-0.375429	0.388635
C61	C	-0.251885	-0.465050	0.388625
C62	C	-0.251877	-1.165114	0.179107
C63	C	-0.251747	-1.165248	0.089486
C64	C	-0.251762	-1.165232	1.016704
C65	C	-0.251780	-1.165219	0.925395
C66	C	-0.251792	-1.165214	0.852618
C67	C	-0.251809	-1.165200	0.761304
H68	H	-0.450885	-1.258610	0.295107
F69	F	-1.059121	-1.271852	0.282335
F70	F	-0.444101	-1.058498	0.494909
F71	F	-0.556822	-1.058544	0.494921
H72	H	-0.702048	-1.310357	0.243645
F73	F	-0.946457	-1.058776	0.495002
H74	H	-1.052329	-1.071725	0.482127
F75	F	-0.946403	-1.271798	0.282311
H76	H	-0.549936	-1.258684	0.295131
H77	H	-0.801096	-1.310417	0.243666
F78	F	-0.807985	-1.007127	0.546517
F79	F	-0.695284	-1.007070	0.546492
