data_functionalizedCrystal
_audit_creation_method	'MofGen! by Chris Wilmer'
_symmetry_space_group_name_H-M	'P1'
_symmetry_Int_Tables_number	1
_symmetry_cell_setting	triclinic
loop_
_symmetry_equiv_pos_as_xyz
  x,y,z
_cell_length_a	16.974800
_cell_length_b	10.540539
_cell_length_c	16.053802
_cell_angle_alpha	92.593658
_cell_angle_beta	91.074188
_cell_angle_gamma	83.956435
loop_
_atom_site_label
_atom_site_type_symbol
_atom_site_fract_x
_atom_site_fract_y
_atom_site_fract_z
O1	O	1.049988	0.161812	0.001547
O2	O	0.820636	0.181243	-0.013957
O3	O	0.940544	-0.013238	-0.005850
O4	O	0.930079	0.356293	-0.006560
O5	O	0.933944	-0.002577	0.132562
O6	O	0.814035	0.191904	0.124456
O7	O	1.043388	0.172472	0.139959
Zn8	Zn	0.927663	0.183881	0.154183
Zn9	Zn	0.936360	0.169835	-0.028181
O10	O	0.923479	0.366953	0.131853
C11	C	0.787967	0.185639	0.053264
C12	C	0.700459	0.182840	0.047348
C13	C	0.655754	0.187333	0.120020
C14	C	0.573532	0.184683	0.114464
C15	C	0.536016	0.177549	0.036236
C16	C	0.580727	0.173052	-0.036441
C17	C	0.662948	0.175693	-0.030884
C18	C	0.290497	0.169019	0.011526
C19	C	0.208270	0.166382	0.005975
C20	C	0.201081	0.178011	0.156881
C21	C	0.283303	0.180659	0.162431
C22	C	0.328008	0.176155	0.089754
N23	N	0.451971	0.174844	0.030555
N24	N	0.412051	0.178851	0.095436
C25	C	0.936459	-0.055202	0.063301
C26	C	0.934112	-0.196124	0.063138
C27	C	0.844154	-0.378564	0.056745
C28	C	0.846519	-0.231949	0.057218
C29	C	0.972496	-0.252167	0.145028
C30	C	0.969503	-0.398673	0.144893
C31	C	0.978791	-0.411334	-0.012388
C32	C	0.979647	-0.264442	-0.013379
C33	C	1.076056	0.168076	0.072737
C34	C	1.163565	0.170875	0.078647
C35	C	0.927564	0.408917	0.062699
C36	C	0.929912	0.549839	0.062857
N37	N	0.921734	0.193466	0.278643
N38	N	0.942295	0.160240	-0.152640
C39	C	0.972774	0.110743	0.325788
C40	C	0.968634	0.117460	0.412914
C41	C	0.913457	0.206907	0.452895
C42	C	0.862412	0.289633	0.405744
C43	C	0.866548	0.282909	0.318619
C44	C	0.895386	0.236242	0.713083
C45	C	0.891255	0.242962	0.800215
C46	C	0.997477	0.070787	0.807379
C47	C	1.001612	0.064076	0.720252
C48	C	0.950564	0.146798	0.673108
N49	N	0.909226	0.213777	0.541953
N50	N	0.954792	0.139920	0.584052
H51	H	0.313843	0.186462	0.226133
H52	H	0.550175	0.167234	-0.100136
H53	H	1.043736	-0.241305	-0.013835
N54	N	0.711170	0.170837	-0.109265
H55	H	0.674929	0.165918	-0.159666
H56	H	0.739494	0.250296	-0.110653
N57	N	0.806162	-0.180789	-0.020800
H58	H	0.786672	-0.253496	-0.055808
H59	H	0.759781	-0.116786	-0.004931
H60	H	1.017709	0.037912	0.293241
N61	N	1.057515	-0.223205	0.154670
H62	H	1.064072	-0.171058	0.208220
H63	H	1.093395	-0.305840	0.156274
H64	H	1.042083	-0.459312	-0.008643
N65	N	1.023712	0.028283	0.463766
H66	H	1.059306	-0.029380	0.425219
H67	H	1.057095	0.079872	0.502259
N68	N	0.338713	0.164184	-0.066852
H69	H	0.378936	0.086402	-0.067510
H70	H	0.302418	0.159322	-0.117211
H71	H	0.177726	0.160576	-0.057731
H72	H	1.046542	-0.008758	0.687702
N73	N	0.831732	0.339442	0.843328
H74	H	0.794853	0.293571	0.877116
H75	H	0.860503	0.398549	0.881473
N76	N	1.052533	-0.018430	0.858226
H77	H	1.041542	-0.000603	0.919486
H78	H	1.043647	-0.109696	0.842356
N79	N	0.945024	-0.458812	-0.094282
H80	H	0.977265	-0.432851	-0.141708
H81	H	0.946899	-0.554952	-0.095189
N82	N	0.930009	-0.189295	0.220325
H83	H	0.885896	-0.124513	0.201572
H84	H	0.907080	-0.256283	0.252765
H85	H	0.853822	0.303599	0.674706
N86	N	0.794946	-0.412294	0.128323
H87	H	0.739951	-0.365902	0.123929
H88	H	0.791467	-0.507455	0.126093
H89	H	0.817481	0.362458	0.438301
H90	H	0.824985	0.350269	0.280234
H91	H	0.686293	0.193153	0.183722
H92	H	0.164674	0.181675	0.216050
N93	N	0.801889	-0.421713	-0.021427
H94	H	0.832590	-0.402902	-0.071919
H95	H	0.797787	-0.516536	-0.020531
N96	N	0.525312	0.189524	0.192843
H97	H	0.561618	0.193551	0.243248
H98	H	0.485460	0.267779	0.193700
H99	H	0.810412	-0.185446	0.111714
H100	H	0.935532	-0.421972	0.201871
H101	H	1.032328	-0.447073	0.152737
N102	N	0.942539	-0.215746	-0.093596
H103	H	0.896426	-0.149703	-0.080437
H104	H	0.983256	-0.175869	-0.126033
