data_functionalizedCrystal
_audit_creation_method	'MofGen! by Chris Wilmer'
_symmetry_space_group_name_H-M	'P1'
_symmetry_Int_Tables_number	1
_symmetry_cell_setting	triclinic
loop_
_symmetry_equiv_pos_as_xyz
  x,y,z
_cell_length_a	19.077105
_cell_length_b	18.050589
_cell_length_c	19.077314
_cell_angle_alpha	87.678811
_cell_angle_beta	89.892247
_cell_angle_gamma	87.724731
loop_
_atom_site_label
_atom_site_type_symbol
_atom_site_fract_x
_atom_site_fract_y
_atom_site_fract_z
Zn1	Zn	1.058259	-0.321949	-0.440443
Zn2	Zn	1.308259	-0.071949	-0.190443
Zn3	Zn	1.558259	0.178051	0.059557
Zn4	Zn	1.808259	0.428051	0.309557
Zn5	Zn	1.062888	-0.451316	-0.322942
Zn6	Zn	1.312888	-0.201316	-0.072942
Zn7	Zn	1.562888	0.048684	0.177058
Zn8	Zn	1.812888	0.298684	0.427058
Zn9	Zn	0.945474	-0.322359	-0.318235
Zn10	Zn	1.195474	-0.072359	-0.068235
Zn11	Zn	1.445474	0.177641	0.181765
Zn12	Zn	1.695474	0.427641	0.431765
Zn13	Zn	0.940713	-0.441311	-0.435696
Zn14	Zn	1.190713	-0.191311	-0.185696
Zn15	Zn	1.440713	0.058689	0.064304
Zn16	Zn	1.690713	0.308689	0.314304
O17	O	1.001834	-0.384234	-0.379329
O18	O	1.251834	-0.134234	-0.129329
O19	O	1.501834	0.115766	0.120671
O20	O	1.751834	0.365766	0.370671
O21	O	1.157205	-0.343125	-0.428814
O22	O	1.407205	-0.093125	-0.178814
O23	O	1.657205	0.156875	0.071186
O24	O	1.907205	0.406875	0.321186
O25	O	1.051243	-0.438569	-0.223985
O26	O	1.301243	-0.188569	0.026015
O27	O	1.551243	0.061431	0.276015
O28	O	1.801243	0.311431	0.526015
O29	O	0.960491	-0.218381	-0.334463
O30	O	1.210491	0.031619	-0.084463
O31	O	1.460491	0.281619	0.165537
O32	O	1.710491	0.531619	0.415537
O33	O	1.160606	-0.438171	-0.342486
O34	O	1.410606	-0.188171	-0.092486
O35	O	1.660606	0.061829	0.157514
O36	O	1.910606	0.311829	0.407514
O37	O	1.043353	-0.218080	-0.424249
O38	O	1.293353	0.031920	-0.174249
O39	O	1.543353	0.281920	0.075751
O40	O	1.793353	0.531920	0.325751
O41	O	0.964979	-0.343824	-0.220527
O42	O	1.214979	-0.093824	0.029473
O43	O	1.464979	0.156176	0.279473
O44	O	1.714979	0.406176	0.529473
O45	O	0.846511	-0.334122	-0.329860
O46	O	1.096511	-0.084122	-0.079860
O47	O	1.346511	0.165878	0.170140
O48	O	1.596511	0.415878	0.420140
O49	O	0.952376	-0.421119	-0.534658
O50	O	1.202376	-0.171119	-0.284658
O51	O	1.452376	0.078881	-0.034658
O52	O	1.702376	0.328881	0.215342
O53	O	0.843013	-0.421516	-0.416158
O54	O	1.093013	-0.171516	-0.166158
O55	O	1.343013	0.078484	0.083842
O56	O	1.593013	0.328484	0.333842
O57	O	1.038736	-0.333424	-0.538146
O58	O	1.288736	-0.083424	-0.288146
O59	O	1.538736	0.166576	-0.038146
O60	O	1.788736	0.416576	0.211854
O61	O	1.046626	-0.553912	-0.337882
O62	O	1.296626	-0.303912	-0.087882
O63	O	1.546626	-0.053912	0.162118
O64	O	1.796626	0.196088	0.412118
O65	O	0.956864	-0.546562	-0.420722
O66	O	1.206864	-0.296562	-0.170722
O67	O	1.456864	-0.046562	0.079278
O68	O	1.706864	0.203438	0.329278
C69	C	0.819266	-0.376779	-0.371983
C70	C	1.069266	-0.126779	-0.121983
C71	C	1.319266	0.123221	0.128017
C72	C	1.569266	0.373221	0.378017
C73	C	0.741162	-0.373607	-0.368857
C74	C	0.991162	-0.123607	-0.118857
C75	C	1.241162	0.126393	0.131143
C76	C	1.491162	0.376393	0.381143
C77	C	0.702668	-0.417692	-0.412249
C78	C	0.952668	-0.167692	-0.162249
C79	C	1.202668	0.082308	0.087751
C80	C	1.452668	0.332308	0.337751
C81	C	0.629281	-0.414702	-0.409315
C82	C	0.879281	-0.164702	-0.159315
C83	C	1.129281	0.085298	0.090685
C84	C	1.379281	0.335298	0.340685
C85	C	0.594389	-0.367629	-0.362985
C86	C	0.844389	-0.117629	-0.112985
C87	C	1.094389	0.132371	0.137015
C88	C	1.344389	0.382371	0.387015
C89	C	0.632887	-0.323538	-0.319592
C90	C	0.882887	-0.073538	-0.069592
C91	C	1.132887	0.176462	0.180408
C92	C	1.382887	0.426462	0.430408
C93	C	0.706273	-0.326525	-0.322530
C94	C	0.956273	-0.076525	-0.072530
C95	C	1.206273	0.173475	0.177470
C96	C	1.456273	0.423475	0.427470
C97	C	0.375102	-0.353804	-0.349392
C98	C	0.625102	-0.103804	-0.099392
C99	C	0.875102	0.146196	0.150608
C100	C	1.125102	0.396196	0.400608
C101	C	0.301711	-0.350822	-0.346456
C102	C	0.551711	-0.100822	-0.096456
C103	C	0.801711	0.149178	0.153544
C104	C	1.051711	0.399178	0.403544
C105	C	0.298110	-0.441985	-0.436180
C106	C	0.548110	-0.191985	-0.186180
C107	C	0.798110	0.058015	0.063820
C108	C	1.048110	0.308015	0.313820
C109	C	0.371497	-0.444971	-0.439111
C110	C	0.621497	-0.194971	-0.189111
C111	C	0.871497	0.055029	0.060889
C112	C	1.121497	0.305029	0.310889
C113	C	0.409989	-0.400878	-0.395720
C114	C	0.659989	-0.150878	-0.145720
C115	C	0.909989	0.099122	0.104280
C116	C	1.159989	0.349122	0.354280
N117	N	0.519375	-0.364573	-0.359984
N118	N	0.769375	-0.114573	-0.109984
N119	N	1.019375	0.135427	0.140016
N120	N	1.269375	0.385427	0.390016
N121	N	0.485001	-0.403931	-0.398725
N122	N	0.735001	-0.153931	-0.148725
N123	N	0.985001	0.096069	0.101275
N124	N	1.235001	0.346069	0.351275
C125	C	1.001749	-0.577183	-0.379314
C126	C	1.251749	-0.327183	-0.129314
C127	C	1.501749	-0.077183	0.120686
C128	C	1.751749	0.172817	0.370686
C129	C	1.001776	-0.659729	-0.379334
C130	C	1.251776	-0.409729	-0.129334
C131	C	1.501776	-0.159729	0.120666
C132	C	1.751776	0.090271	0.370666
C133	C	0.953011	-0.855212	-0.424367
C134	C	1.203011	-0.605212	-0.174367
C135	C	1.453011	-0.355212	0.075633
C136	C	1.703011	-0.105212	0.325633
C137	C	0.938459	-0.906779	-0.359560
C138	C	1.188459	-0.656779	-0.109560
C139	C	1.438459	-0.406779	0.140440
C140	C	1.688459	-0.156779	0.390440
C141	C	1.001845	-0.810862	-0.379346
C142	C	1.251845	-0.560862	-0.129346
C143	C	1.501845	-0.310862	0.120654
C144	C	1.751845	-0.060862	0.370654
C145	C	1.016431	-0.906378	-0.444162
C146	C	1.266431	-0.656378	-0.194162
C147	C	1.516431	-0.406378	0.055838
C148	C	1.766431	-0.156378	0.305838
C149	C	1.001910	-0.956849	-0.379363
C150	C	1.251910	-0.706849	-0.129363
C151	C	1.501910	-0.456849	0.120637
C152	C	1.751910	-0.206849	0.370637
C153	C	0.987261	-0.861342	-0.314503
C154	C	1.237261	-0.611342	-0.064503
C155	C	1.487261	-0.361342	0.185497
C156	C	1.737261	-0.111342	0.435497
C157	C	1.065261	-0.860935	-0.399149
C158	C	1.315261	-0.610935	-0.149149
C159	C	1.565261	-0.360935	0.100851
C160	C	1.815261	-0.110935	0.350851
C161	C	1.050735	-0.912483	-0.334299
C162	C	1.300735	-0.662483	-0.084299
C163	C	1.550735	-0.412483	0.165701
C164	C	1.800735	-0.162483	0.415701
C165	C	1.001806	-0.726762	-0.379337
C166	C	1.251806	-0.476762	-0.129337
C167	C	1.501806	-0.226762	0.120663
C168	C	1.751806	0.023238	0.370663
C169	C	1.001949	-1.040947	-0.379365
C170	C	1.251949	-0.790947	-0.129365
C171	C	1.501949	-0.540947	0.120635
C172	C	1.751949	-0.290947	0.370635
C173	C	1.185114	-0.391718	-0.386704
C174	C	1.435114	-0.141718	-0.136704
C175	C	1.685114	0.108282	0.113296
C176	C	1.935114	0.358282	0.363296
C177	C	1.263218	-0.394908	-0.389847
C178	C	1.513218	-0.144908	-0.139847
C179	C	1.763218	0.105092	0.110153
C180	C	2.013218	0.355092	0.360153
C181	C	0.994509	-0.376110	-0.562612
C182	C	1.244509	-0.126110	-0.312612
C183	C	1.494509	0.123890	-0.062612
C184	C	1.744509	0.373890	0.187388
C185	C	0.991387	-0.372648	-0.640716
C186	C	1.241387	-0.122648	-0.390716
C187	C	1.491387	0.127352	-0.140716
C188	C	1.741387	0.377352	0.109284
C189	C	1.001937	-0.190531	-0.379360
C190	C	1.251937	0.059469	-0.129360
C191	C	1.501937	0.309469	0.120640
C192	C	1.751937	0.559469	0.370640
C193	C	1.001981	-0.107987	-0.379374
C194	C	1.251981	0.142013	-0.129374
C195	C	1.501981	0.392013	0.120626
C196	C	1.751981	0.642013	0.370626
C197	C	1.034830	-0.420347	-0.679213
C198	C	1.284830	-0.170347	-0.429213
C199	C	1.534830	0.079653	-0.179213
C200	C	1.784830	0.329653	0.070787
C201	C	1.031897	-0.417085	-0.752600
C202	C	1.281897	-0.167085	-0.502600
C203	C	1.531897	0.082915	-0.252600
C204	C	1.781897	0.332915	-0.002600
C205	C	0.985517	-0.366127	-0.787489
C206	C	1.235517	-0.116127	-0.537489
C207	C	1.485517	0.133873	-0.287489
C208	C	1.735517	0.383873	-0.037489
C209	C	0.942072	-0.318422	-0.748987
C210	C	1.192072	-0.068422	-0.498987
C211	C	1.442072	0.181578	-0.248987
C212	C	1.692072	0.431578	0.001013
C213	C	0.945009	-0.321681	-0.675601
C214	C	1.195009	-0.071681	-0.425601
C215	C	1.445009	0.178319	-0.175601
C216	C	1.695009	0.428319	0.074399
C217	C	0.971920	-0.351087	-1.006775
C218	C	1.221920	-0.101087	-0.756775
C219	C	1.471920	0.148913	-0.506775
C220	C	1.721920	0.398913	-0.256775
C221	C	0.968985	-0.347833	-1.080166
C222	C	1.218985	-0.097833	-0.830166
C223	C	1.468985	0.152167	-0.580166
C224	C	1.718985	0.402167	-0.330166
C225	C	1.058811	-0.446496	-1.083774
C226	C	1.308811	-0.196496	-0.833774
C227	C	1.558811	0.053504	-0.583774
C228	C	1.808811	0.303504	-0.333774
C229	C	1.061741	-0.449753	-1.010387
C230	C	1.311741	-0.199753	-0.760387
C231	C	1.561741	0.050247	-0.510387
C232	C	1.811741	0.300247	-0.260387
C233	C	1.018299	-0.402046	-0.971891
C234	C	1.268299	-0.152046	-0.721891
C235	C	1.518299	0.097954	-0.471891
C236	C	1.768299	0.347954	-0.221891
N237	N	0.982516	-0.362793	-0.862502
N238	N	1.232516	-0.112793	-0.612502
N239	N	1.482516	0.137207	-0.362502
N240	N	1.732516	0.387207	-0.112502
N241	N	1.021304	-0.405377	-0.896879
N242	N	1.271304	-0.155377	-0.646879
N243	N	1.521304	0.094623	-0.396879
N244	N	1.771304	0.344623	-0.146879
C245	C	1.009170	-0.392274	-0.196761
C246	C	1.259170	-0.142274	0.053239
C247	C	1.509170	0.107726	0.303239
C248	C	1.759170	0.357726	0.553239
C249	C	1.012428	-0.395533	-0.118663
C250	C	1.262428	-0.145533	0.131337
C251	C	1.512428	0.104467	0.381337
C252	C	1.762428	0.354467	0.631337
H253	H	0.597943	-0.450602	-0.444648
H254	H	0.847943	-0.200602	-0.194648
H255	H	1.097943	0.049398	0.055352
H256	H	1.347943	0.299398	0.305352
F257	F	0.257139	-0.488911	-0.482355
F258	F	0.507139	-0.238911	-0.232355
F259	F	0.757139	0.011089	0.017645
F260	F	1.007139	0.261089	0.267645
F261	F	0.892715	-0.264185	-0.786120
F262	F	1.142715	-0.014185	-0.536120
F263	F	1.392715	0.235815	-0.286120
F264	F	1.642715	0.485815	-0.036120
F265	F	0.595750	-0.273434	-0.270289
F266	F	0.845750	-0.023434	-0.020289
F267	F	1.095750	0.226566	0.229711
F268	F	1.345750	0.476566	0.479711
H269	H	1.094180	-0.485335	-1.115125
H270	H	1.344180	-0.235335	-0.865125
H271	H	1.594180	0.014665	-0.615125
H272	H	1.844180	0.264665	-0.365125
F273	F	1.135301	-0.834512	-0.421063
F274	F	1.385301	-0.584512	-0.171063
F275	F	1.635301	-0.334512	0.078937
F276	F	1.885301	-0.084512	0.328937
H277	H	0.884861	-0.926994	-0.342824
H278	H	1.134861	-0.676994	-0.092824
H279	H	1.384861	-0.426994	0.157176
H280	H	1.634861	-0.176994	0.407176
H281	H	1.028742	-0.926230	-0.498970
H282	H	1.278742	-0.676230	-0.248970
H283	H	1.528742	-0.426230	0.001030
H284	H	1.778742	-0.176230	0.251030
H285	H	0.737614	-0.290622	-0.287199
H286	H	0.987614	-0.040622	-0.037199
H287	H	1.237614	0.209378	0.212801
H288	H	1.487614	0.459378	0.462801
H289	H	0.936544	-0.312244	-0.975441
H290	H	1.186544	-0.062244	-0.725441
H291	H	1.436544	0.187756	-0.475441
H292	H	1.686544	0.437756	-0.225441
H293	H	1.067273	-0.455927	-0.783941
H294	H	1.317273	-0.205927	-0.533941
H295	H	1.567273	0.044073	-0.283941
H296	H	1.817273	0.294073	-0.033941
F297	F	0.264578	-0.300723	-0.297139
F298	F	0.514578	-0.050723	-0.047139
F299	F	0.764578	0.199277	0.202861
F300	F	1.014578	0.449277	0.452861
H301	H	0.931219	-0.306331	-1.108570
H302	H	1.181219	-0.056331	-0.858570
H303	H	1.431219	0.193669	-0.608570
H304	H	1.681219	0.443669	-0.358570
H305	H	0.406434	-0.317906	-0.314054
H306	H	0.656434	-0.067906	-0.064054
H307	H	0.906434	0.182094	0.185946
H308	H	1.156434	0.432094	0.435946
H309	H	0.974888	-0.841577	-0.259678
H310	H	1.224888	-0.591577	-0.009678
H311	H	1.474888	-0.341577	0.240322
H312	H	1.724888	-0.091577	0.490322
F313	F	0.898961	-0.822512	-0.474057
F314	F	1.148961	-0.572512	-0.224057
F315	F	1.398961	-0.322512	0.025943
F316	F	1.648961	-0.072512	0.275943
H317	H	1.072600	-0.461841	-0.650812
H318	H	1.322600	-0.211841	-0.400812
H319	H	1.572600	0.038159	-0.150812
H320	H	1.822600	0.288159	0.099188
H321	H	1.099497	-0.491260	-0.981985
H322	H	1.349497	-0.241260	-0.731985
H323	H	1.599497	0.008740	-0.481985
H324	H	1.849497	0.258740	-0.231985
H325	H	0.909636	-0.282837	-0.644258
H326	H	1.159636	-0.032837	-0.394258
H327	H	1.409636	0.217163	-0.144258
H328	H	1.659636	0.467163	0.105742
H329	H	0.731072	-0.456027	-0.449973
H330	H	0.981072	-0.206027	-0.199973
H331	H	1.231072	0.043973	0.050027
H332	H	1.481072	0.293973	0.300027
F333	F	0.408627	-0.495075	-0.488419
F334	F	0.658627	-0.245075	-0.238419
F335	F	0.908627	0.004925	0.011581
F336	F	1.158627	0.254925	0.261581
H337	H	1.092063	-0.937365	-0.296187
H338	H	1.342063	-0.687365	-0.046187
H339	H	1.592063	-0.437365	0.203813
H340	H	1.842063	-0.187365	0.453813
