data_functionalizedCrystal
_audit_creation_method	'MofGen! by Chris Wilmer'
_symmetry_space_group_name_H-M	'P1'
_symmetry_Int_Tables_number	1
_symmetry_cell_setting	triclinic
loop_
_symmetry_equiv_pos_as_xyz
  x,y,z
_cell_length_a	8.497374
_cell_length_b	11.169416
_cell_length_c	11.169417
_cell_angle_alpha	90.005487
_cell_angle_beta	89.999901
_cell_angle_gamma	90.003741
loop_
_atom_site_label
_atom_site_type_symbol
_atom_site_fract_x
_atom_site_fract_y
_atom_site_fract_z
Zn1	Zn	0.891931	-0.477975	1.834781
Zn2	Zn	1.391931	0.022025	2.334781
Zn3	Zn	0.628155	-0.678625	1.834760
Zn4	Zn	1.128155	-0.178625	2.334760
Zn5	Zn	0.628167	-0.477959	1.634135
Zn6	Zn	1.128167	0.022041	2.134135
Zn7	Zn	0.891895	-0.678619	1.634096
Zn8	Zn	1.391895	-0.178619	2.134096
O9	O	0.760037	-0.578295	1.734443
O10	O	1.260037	-0.078295	2.234443
O11	O	0.856951	-0.504601	2.002728
O12	O	1.356951	-0.004601	2.502728
O13	O	0.407395	-0.652003	1.808155
O14	O	0.907395	-0.152003	2.308155
O15	O	0.663175	-0.310012	1.660777
O16	O	1.163175	0.189988	2.160777
O17	O	0.663156	-0.652018	2.002713
O18	O	1.163156	-0.152018	2.502713
O19	O	0.856962	-0.310023	1.808190
O20	O	1.356962	0.189977	2.308190
O21	O	0.407403	-0.504574	1.660757
O22	O	0.907403	-0.004574	2.160757
O23	O	0.663141	-0.504568	1.466181
O24	O	1.163141	-0.004568	1.966181
O25	O	1.112662	-0.652007	1.660709
O26	O	1.612662	-0.152007	2.160709
O27	O	0.856901	-0.651992	1.466151
O28	O	1.356901	-0.151992	1.966151
O29	O	1.112689	-0.504595	1.808151
O30	O	1.612689	-0.004595	2.308151
O31	O	0.663121	-0.846574	1.808116
O32	O	1.163121	-0.346574	2.308116
O33	O	0.856890	-0.846570	1.660689
O34	O	1.356890	-0.346570	2.160689
C35	C	0.760019	-0.578279	1.422618
C36	C	1.260019	-0.078279	1.922618
C37	C	0.760049	-0.578301	1.289218
C38	C	1.260049	-0.078301	1.789218
C39	C	0.760035	-0.890120	1.734429
C40	C	1.260035	-0.390120	2.234429
C41	C	0.760087	-1.023519	1.734532
C42	C	1.260087	-0.523519	2.234532
C43	C	1.171517	-0.578297	1.734434
C44	C	1.671517	-0.078297	2.234434
C45	C	1.350161	-0.578309	1.734437
C46	C	1.850161	-0.078309	2.234437
C47	C	0.760056	-0.578312	2.047485
C48	C	1.260056	-0.078312	2.547485
C49	C	0.760064	-0.578319	2.180885
C50	C	1.260064	-0.078319	2.680885
C51	C	0.760074	-0.265253	1.734490
C52	C	1.260074	0.234747	2.234490
C53	C	0.760090	-0.131853	1.734510
C54	C	1.260090	0.368147	2.234510
