data_functionalizedCrystal
_audit_creation_method	'MofGen! by Chris Wilmer'
_symmetry_space_group_name_H-M	'P1'
_symmetry_Int_Tables_number	1
_symmetry_cell_setting	triclinic
loop_
_symmetry_equiv_pos_as_xyz
  x,y,z
_cell_length_a	19.121102
_cell_length_b	19.121111
_cell_length_c	19.120915
_cell_angle_alpha	85.259367
_cell_angle_beta	90.090244
_cell_angle_gamma	89.871671
loop_
_atom_site_label
_atom_site_type_symbol
_atom_site_fract_x
_atom_site_fract_y
_atom_site_fract_z
Zn1	Zn	1.039554	0.343482	-0.456049
Zn2	Zn	1.372888	0.676816	-0.122716
Zn3	Zn	1.706221	1.010149	0.210617
Zn4	Zn	1.039469	0.456131	-0.343401
Zn5	Zn	1.372802	0.789465	-0.010067
Zn6	Zn	1.706136	1.122798	0.323266
Zn7	Zn	0.927772	0.333500	-0.333427
Zn8	Zn	1.261105	0.666834	-0.000094
Zn9	Zn	1.594438	1.000167	0.333240
Zn10	Zn	0.917297	0.455653	-0.455583
Zn11	Zn	1.250631	0.788987	-0.122250
Zn12	Zn	1.583964	1.122320	0.211083
O13	O	0.981023	0.397192	-0.397115
O14	O	1.314356	0.730525	-0.063782
O15	O	1.647690	1.063858	0.269552
O16	O	1.137454	0.362803	-0.445475
O17	O	1.470787	0.696136	-0.112142
O18	O	1.804120	1.029469	0.221191
O19	O	1.029000	0.435887	-0.243811
O20	O	1.362333	0.769220	0.089522
O21	O	1.695667	1.102553	0.422856
O22	O	0.947019	0.236559	-0.345714
O23	O	1.280353	0.569892	-0.012381
O24	O	1.613686	0.903226	0.320952
O25	O	1.137391	0.445565	-0.362713
O26	O	1.470724	0.778899	-0.029379
O27	O	1.804058	1.112232	0.303954
O28	O	1.029145	0.243893	-0.435804
O29	O	1.362479	0.577226	-0.102471
O30	O	1.695812	0.910559	0.230862
O31	O	0.946937	0.345790	-0.236483
O32	O	1.280270	0.679124	0.096850
O33	O	1.613603	1.012457	0.430183
O34	O	0.828472	0.345327	-0.345262
O35	O	1.161805	0.678660	-0.011929
O36	O	1.495138	1.011994	0.321404
O37	O	0.929167	0.444751	-0.553912
O38	O	1.262500	0.778084	-0.220578
O39	O	1.595834	1.111418	0.112755
O40	O	0.820776	0.435072	-0.435010
O41	O	1.154110	0.768405	-0.101677
O42	O	1.487443	1.101739	0.231657
O43	O	1.018989	0.362339	-0.554254
O44	O	1.352322	0.695673	-0.220921
O45	O	1.685655	1.029006	0.112413
O46	O	1.018843	0.554333	-0.362261
O47	O	1.352177	0.887667	-0.028928
O48	O	1.685510	1.221000	0.304406
O49	O	0.929084	0.553982	-0.444681
O50	O	1.262418	0.887316	-0.111348
O51	O	1.595751	1.220649	0.221986
C52	C	0.799237	0.389065	-0.389004
C53	C	1.132570	0.722398	-0.055670
C54	C	1.465903	1.055732	0.277663
C55	C	0.721466	0.385606	-0.385551
C56	C	1.054800	0.718939	-0.052218
C57	C	1.388133	1.052273	0.281116
C58	C	0.972836	0.579638	-0.404519
C59	C	1.306170	0.912972	-0.071185
C60	C	1.639503	1.246305	0.262148
C61	C	0.969397	0.657694	-0.407712
C62	C	1.302730	0.991027	-0.074379
C63	C	1.636064	1.324360	0.258954
C64	C	0.680941	0.430771	-0.430588
C65	C	1.014275	0.764105	-0.097254
C66	C	1.347608	1.097438	0.236079
C67	C	0.607868	0.427512	-0.427347
C68	C	0.941201	0.760845	-0.094013
C69	C	1.274535	1.094179	0.239320
C70	C	0.575321	0.379090	-0.379065
C71	C	0.908654	0.712424	-0.045731
C72	C	1.241988	1.045757	0.287602
C73	C	0.615851	0.333920	-0.334026
C74	C	0.949185	0.667253	-0.000692
C75	C	1.282518	1.000587	0.332641
C76	C	0.688923	0.337176	-0.337271
C77	C	1.022257	0.670510	-0.003937
C78	C	1.355590	1.003843	0.329396
C79	C	0.354890	0.366914	-0.366935
C80	C	0.688224	0.700247	-0.033602
C81	C	1.021557	1.033581	0.299732
C82	C	0.281813	0.363662	-0.363692
C83	C	0.615146	0.696996	-0.030359
C84	C	0.948480	1.030329	0.302975
C85	C	0.273835	0.457254	-0.457014
C86	C	0.607168	0.790587	-0.123681
C87	C	0.940501	1.123920	0.209653
C88	C	0.346909	0.460509	-0.460252
C89	C	0.680242	0.793842	-0.126919
C90	C	1.013575	1.127175	0.206415
C91	C	0.387432	0.415336	-0.415216
C92	C	0.720766	0.748670	-0.081882
C93	C	1.054099	1.082003	0.251451
C94	C	0.500628	0.375759	-0.375749
C95	C	0.833962	0.709092	-0.042415
C96	C	1.167295	1.042426	0.290918
C97	C	0.462124	0.418664	-0.418535
C98	C	0.795457	0.751998	-0.085202
C99	C	1.128790	1.085331	0.248131
C100	C	1.014547	0.694527	-0.366340
C101	C	1.347880	1.027860	-0.033006
C102	C	1.681213	1.361193	0.300327
C103	C	1.011316	0.767868	-0.369348
C104	C	1.344649	1.101201	-0.036014
C105	C	1.677983	1.434535	0.297319
C106	C	0.962931	0.804375	-0.413725
C107	C	1.296265	1.137708	-0.080392
C108	C	1.629598	1.471042	0.252942
C109	C	0.917779	0.767537	-0.455102
C110	C	1.251113	1.100870	-0.121769
C111	C	1.584446	1.434203	0.211564
C112	C	0.921014	0.694197	-0.452098
C113	C	1.254347	1.027530	-0.118764
C114	C	1.587681	1.360864	0.214569
C115	C	0.950828	1.025806	-0.424946
C116	C	1.284162	1.359139	-0.091612
C117	C	1.617495	1.692473	0.241721
C118	C	0.947596	1.099151	-0.427946
C119	C	1.280929	1.432484	-0.094612
C120	C	1.614262	1.765818	0.238721
C121	C	1.041133	1.099477	-0.342192
C122	C	1.374467	1.432810	-0.008858
C123	C	1.707800	1.766144	0.324475
C124	C	1.044361	1.026136	-0.339188
C125	C	1.377694	1.359469	-0.005854
C126	C	1.711028	1.692802	0.327479
C127	C	0.999212	0.989304	-0.380568
C128	C	1.332545	1.322638	-0.047234
C129	C	1.665878	1.655971	0.286099
C130	C	0.959626	0.879342	-0.416799
C131	C	1.292960	1.212675	-0.083466
C132	C	1.626293	1.546008	0.249868
C133	C	1.002520	0.914339	-0.377497
C134	C	1.335854	1.247672	-0.044164
C135	C	1.669187	1.581006	0.289170
C136	C	1.163519	0.405351	-0.405259
C137	C	1.496853	0.738684	-0.071925
C138	C	1.830186	1.072018	0.261408
C139	C	1.241288	0.408828	-0.408729
C140	C	1.574621	0.742161	-0.075396
C141	C	1.907955	1.075494	0.257938
C142	C	0.972919	0.404605	-0.580275
C143	C	1.306252	0.737939	-0.246941
C144	C	1.639586	1.071272	0.086392
C145	C	0.969466	0.407765	-0.658327
C146	C	1.302799	0.741098	-0.324993
C147	C	1.636132	1.074431	0.008340
C148	C	0.989254	1.214034	-0.389707
C149	C	1.322587	1.547368	-0.056374
C150	C	1.655921	1.880701	0.276959
C151	C	0.992746	1.135984	-0.386573
C152	C	1.326079	1.469317	-0.053240
C153	C	1.659412	1.802651	0.280094
C154	C	0.947593	0.427824	-1.099765
C155	C	1.280926	0.761158	-0.766431
C156	C	1.614259	1.094491	-0.433098
C157	C	0.950835	0.424845	-1.026426
C158	C	1.284169	0.758179	-0.693093
C159	C	1.617502	1.091512	-0.359759
C160	C	0.999225	0.380453	-0.989939
C161	C	1.332559	0.713786	-0.656606
C162	C	1.665892	1.047119	-0.323272
C163	C	1.044371	0.339031	-1.026794
C164	C	1.377704	0.672364	-0.693460
C165	C	1.711037	1.005698	-0.360127
C166	C	1.041124	0.342007	-1.100131
C167	C	1.374457	0.675340	-0.766797
C168	C	1.707791	1.008673	-0.433464
C169	C	1.011364	0.369319	-0.768518
C170	C	1.344698	0.702652	-0.435185
C171	C	1.678031	1.035985	-0.101851
C172	C	1.014609	0.366348	-0.695176
C173	C	1.347942	0.699681	-0.361843
C174	C	1.681276	1.033014	-0.028510
C175	C	0.921072	0.452161	-0.694814
C176	C	1.254406	0.785495	-0.361480
C177	C	1.587739	1.118828	-0.028147
C178	C	0.917833	0.455136	-0.768152
C179	C	1.251166	0.788469	-0.434819
C180	C	1.584500	1.121803	-0.101485
C181	C	0.962976	0.413712	-0.805000
C182	C	1.296309	0.747045	-0.471667
C183	C	1.629642	1.080378	-0.138333
C184	C	1.002542	0.377408	-0.914975
C185	C	1.335876	0.710742	-0.581642
C186	C	1.669209	1.044075	-0.248309
C187	C	0.959655	0.416753	-0.879962
C188	C	1.292988	0.750086	-0.546629
C189	C	1.626321	1.083419	-0.213295
C190	C	0.989138	0.389758	-0.214668
C191	C	1.322471	0.723092	0.118666
C192	C	1.655805	1.056425	0.451999
C193	C	0.992736	0.386407	-0.136614
C194	C	1.326069	0.719741	0.196719
C195	C	1.659403	1.053074	0.530052
H196	H	0.707436	0.470204	-0.469902
H197	H	1.040769	0.803537	-0.136569
H198	H	1.374102	1.136870	0.196765
Cl199	Cl	1.068151	0.317280	-0.814835
Cl200	Cl	1.401485	0.650614	-0.481502
Cl201	Cl	1.734818	0.983947	-0.148168
H202	H	0.373403	0.499940	-0.499567
H203	H	0.706736	0.833274	-0.166234
H204	H	1.040070	1.166607	0.167100
Cl205	Cl	0.574935	0.273042	-0.273332
Cl206	Cl	0.908268	0.606375	0.060001
Cl207	Cl	1.241602	0.939709	0.393334
Cl208	Cl	0.459706	0.314888	-0.315053
Cl209	Cl	0.793039	0.648221	0.018280
Cl210	Cl	1.126373	0.981554	0.351613
Cl211	Cl	1.063355	0.321582	-0.869098
Cl212	Cl	1.396689	0.654915	-0.535765
Cl213	Cl	1.730022	0.988249	-0.202432
H214	H	0.914065	0.995823	-0.458637
H215	H	1.247398	1.329157	-0.125304
H216	H	1.580731	1.662490	0.208029
Cl217	Cl	0.739869	0.280393	-0.280652
Cl218	Cl	1.073203	0.613726	0.052681
Cl219	Cl	1.406536	0.947060	0.386014
H220	H	1.083760	0.996413	-0.303052
H221	H	1.417093	1.329747	0.030281
H222	H	1.750426	1.663080	0.363614
H223	H	0.908191	0.463977	-1.129467
H224	H	1.241524	0.797310	-0.796134
H225	H	1.574858	1.130643	-0.462801
Cl226	Cl	0.240898	0.302790	-0.302985
Cl227	Cl	0.574231	0.636123	0.030348
Cl228	Cl	0.907565	0.969456	0.363682
Cl229	Cl	0.222887	0.514039	-0.513626
Cl230	Cl	0.556220	0.847373	-0.180293
Cl231	Cl	0.889553	1.180706	0.153040
H232	H	0.574876	0.464291	-0.464020
H233	H	0.908209	0.797624	-0.130686
H234	H	1.241542	1.130958	0.202647
Cl235	Cl	0.886756	1.145044	-0.483729
Cl236	Cl	1.220089	1.478377	-0.150396
Cl237	Cl	1.553423	1.811710	0.182938
H238	H	0.488627	0.458086	-0.457849
H239	H	0.821960	0.791420	-0.124516
H240	H	1.155293	1.124753	0.208817
Cl241	Cl	1.105188	0.283205	-0.980923
Cl242	Cl	1.438522	0.616539	-0.647589
Cl243	Cl	1.771855	0.949872	-0.314256
H244	H	1.048081	0.797854	-0.335657
H245	H	1.381415	1.131188	-0.002324
H246	H	1.714748	1.464521	0.331009
H247	H	1.053944	0.664807	-0.330200
H248	H	1.387277	0.998141	0.003133
H249	H	1.720610	1.331474	0.336467
Cl250	Cl	1.097893	1.145784	-0.290180
Cl251	Cl	1.431227	1.479117	0.043154
Cl252	Cl	1.764560	1.812451	0.376487
Cl253	Cl	0.856956	0.813432	-0.510895
Cl254	Cl	1.190290	1.146765	-0.177562
Cl255	Cl	1.523623	1.480098	0.155771
H256	H	1.041918	0.884613	-0.341368
H257	H	1.375251	1.217947	-0.008034
H258	H	1.708584	1.551280	0.325299
Cl259	Cl	0.864254	0.647893	-0.504114
Cl260	Cl	1.197587	0.981226	-0.170780
Cl261	Cl	1.530921	1.314559	0.162553
H262	H	0.387876	0.330136	-0.330258
H263	H	0.721210	0.663470	0.003075
H264	H	1.054543	0.996803	0.336408
H265	H	0.920230	0.909073	-0.452930
H266	H	1.253563	1.242407	-0.119596
H267	H	1.586897	1.575740	0.213737
Cl268	Cl	1.097870	0.289928	-1.146455
Cl269	Cl	1.431203	0.623261	-0.813122
Cl270	Cl	1.764536	0.956595	-0.479789
H271	H	0.878429	0.491286	-0.797855
H272	H	1.211763	0.824619	-0.464522
H273	H	1.545096	1.157952	-0.131188
Cl274	Cl	0.898822	0.472556	-0.925832
Cl275	Cl	1.232155	0.805890	-0.592499
Cl276	Cl	1.565488	1.139223	-0.259166
H277	H	0.914082	0.458579	-0.996427
H278	H	1.247415	0.791913	-0.663094
H279	H	1.580749	1.125246	-0.329760
H280	H	0.884319	0.485886	-0.664804
H281	H	1.217652	0.819219	-0.331471
H282	H	1.550986	1.152552	0.001863
Cl283	Cl	1.075448	0.310537	-0.649308
Cl284	Cl	1.408781	0.643870	-0.315974
Cl285	Cl	1.742115	0.977204	0.017359
