data_functionalizedCrystal
_audit_creation_method	'MofGen! by Chris Wilmer'
_symmetry_space_group_name_H-M	'P1'
_symmetry_Int_Tables_number	1
_symmetry_cell_setting	triclinic
loop_
_symmetry_equiv_pos_as_xyz
  x,y,z
_cell_length_a	17.077404
_cell_length_b	10.686285
_cell_length_c	17.077395
_cell_angle_alpha	85.609671
_cell_angle_beta	89.984359
_cell_angle_gamma	85.631810
loop_
_atom_site_label
_atom_site_type_symbol
_atom_site_fract_x
_atom_site_fract_y
_atom_site_fract_z
Zn1	Zn	1.224087	-0.502354	-0.419934
Zn2	Zn	1.234110	-0.713369	-0.278625
Zn3	Zn	1.092829	-0.502393	-0.288680
Zn4	Zn	1.102891	-0.713299	-0.409852
O5	O	1.163479	-0.607854	-0.349273
O6	O	1.335264	-0.530358	-0.401200
O7	O	1.215353	-0.685428	-0.170110
O8	O	1.101836	-0.325813	-0.314519
O9	O	1.342628	-0.685390	-0.297381
O10	O	1.198270	-0.325784	-0.410950
O11	O	1.111555	-0.530426	-0.177497
O12	O	0.984317	-0.530358	-0.304742
O13	O	1.118984	-0.685270	-0.521039
O14	O	0.991709	-0.685309	-0.393767
O15	O	1.208026	-0.530290	-0.528446
O16	O	1.225109	-0.889934	-0.287605
O17	O	1.128703	-0.889883	-0.384017
C18	C	0.959530	-0.607831	-0.349252
C19	C	0.872282	-0.607851	-0.349261
C20	C	1.179107	-0.935693	-0.333643
C21	C	1.185864	-1.075943	-0.326983
C22	C	0.835167	-0.688656	-0.395529
C23	C	0.753186	-0.688659	-0.395542
C24	C	0.708323	-0.607862	-0.349281
C25	C	0.745443	-0.527049	-0.303010
C26	C	0.827421	-0.527040	-0.303002
C27	C	0.574574	-0.527073	-0.303028
C28	C	0.492590	-0.527083	-0.303034
C29	C	0.500339	-0.688692	-0.395567
C30	C	0.582318	-0.688684	-0.395559
C31	C	0.619432	-0.607871	-0.349288
C32	C	1.368225	-0.607878	-0.349294
C33	C	1.455475	-0.607888	-0.349303
C34	C	1.163509	-0.607768	-0.554021
C35	C	1.163522	-0.607731	-0.641273
C36	C	1.147812	-0.278735	-0.364981
C37	C	1.141136	-0.138484	-0.371674
C38	C	1.209965	-0.526862	-1.020954
C39	C	1.209951	-0.526906	-0.938971
C40	C	1.163581	-0.607612	-0.894128
C41	C	1.117227	-0.688288	-0.931270
C42	C	1.117246	-0.688249	-1.013251
C43	C	1.117190	-0.688361	-0.760396
C44	C	1.117170	-0.688398	-0.678410
C45	C	1.209895	-0.527018	-0.686117
C46	C	1.209914	-0.526979	-0.768097
C47	C	1.163559	-0.607654	-0.805234
C48	C	1.163491	-0.607848	-0.145325
C49	C	1.163613	-0.607529	-0.058091
H50	H	0.871690	-0.754454	-0.433198
C51	C	1.260891	-0.438283	-0.645264
N52	N	1.299299	-0.371448	-0.614490
C53	C	1.066172	-0.777197	-0.629083
N54	N	1.027764	-0.844087	-0.591929
C55	C	1.066218	-0.777063	-0.881939
N56	N	1.027793	-0.843926	-0.844784
C57	C	1.082423	-1.065867	-0.430256
N58	N	1.038201	-1.011165	-0.474381
H59	H	0.722972	-0.754459	-0.433218
H60	H	1.247720	-0.461134	-1.057460
H61	H	1.229324	-1.129703	-0.283616
H62	H	0.470116	-0.754489	-0.433246
C63	C	1.260921	-0.438196	-0.817424
N64	N	1.299343	-0.371326	-0.854577
H65	H	1.247697	-0.461222	-0.908738
H66	H	0.456063	-0.461276	-0.265374
H67	H	0.604789	-0.461256	-0.265356
C68	C	0.631667	-0.777571	-0.446444
N69	N	0.668836	-0.844520	-0.484773
H70	H	1.079445	-0.754059	-0.790630
H71	H	1.079502	-0.753938	-1.043487
H72	H	0.708908	-0.461257	-0.265347
H73	H	0.857638	-0.461234	-0.265330
