data_functionalizedCrystal
_audit_creation_method	'MofGen! by Chris Wilmer'
_symmetry_space_group_name_H-M	'P1'
_symmetry_Int_Tables_number	1
_symmetry_cell_setting	triclinic
loop_
_symmetry_equiv_pos_as_xyz
  x,y,z
_cell_length_a	14.519709
_cell_length_b	16.109301
_cell_length_c	14.586319
_cell_angle_alpha	90.002176
_cell_angle_beta	90.006913
_cell_angle_gamma	96.429187
loop_
_atom_site_label
_atom_site_type_symbol
_atom_site_fract_x
_atom_site_fract_y
_atom_site_fract_z
O1	O	0.118543	-1.103332	0.076184
O2	O	0.133295	-0.861296	0.076199
O3	O	-0.008333	-0.988731	0.076183
O4	O	0.260171	-0.975897	0.076200
O5	O	-0.008342	-0.988730	-0.076298
O6	O	0.133287	-0.861295	-0.076282
O7	O	0.118534	-1.103331	-0.076296
Cu8	Cu	0.125910	-0.982313	-0.090212
Cu9	Cu	0.125920	-0.982314	0.090114
O10	O	0.260163	-0.975896	-0.076280
C11	C	0.132693	-0.830319	-0.000039
C12	C	0.130902	-0.738021	-0.000034
C13	C	-0.042696	-0.988132	-0.000057
C14	C	-0.145073	-0.986340	-0.000058
N15	N	0.125921	-0.982315	0.216946
C16	C	-0.519955	-0.979741	-0.000034
C17	C	-0.415651	-0.981574	-0.000041
C18	C	-0.332517	-0.983041	-0.000047
C19	C	-0.228207	-0.984873	-0.000052
C20	C	0.294526	-0.976494	-0.000038
C21	C	0.396903	-0.978287	-0.000031
C22	C	0.119136	-1.134307	-0.000056
C23	C	0.120928	-1.226606	-0.000055
C24	C	0.210775	-0.515887	-0.000040
C25	C	0.209085	-0.429163	-0.000046
C26	C	0.041048	-0.448747	-0.000053
C27	C	0.042739	-0.535468	-0.000053
C28	C	0.127606	-0.569036	-0.000042
C29	C	0.124224	-0.395591	-0.000047
C30	C	0.122390	-0.301562	-0.000054
C31	C	0.129440	-0.663071	-0.000037
N32	N	0.125902	-0.982318	-0.217044
C33	C	0.063329	-1.038853	0.451946
C34	C	0.063327	-1.038856	0.547927
C35	C	0.188500	-0.925777	0.547950
C36	C	0.188506	-0.925780	0.451971
C37	C	0.125915	-0.982317	0.403971
C38	C	0.125907	-0.982317	0.595932
C39	C	0.125905	-0.982319	0.699999
C40	C	0.125918	-0.982316	0.299897
H41	H	0.279879	-0.543214	-0.000037
H42	H	0.239475	-0.879740	0.412907
Br43	Br	0.321963	-0.357035	-0.000047
H44	H	0.012366	-1.084890	0.412866
H45	H	-0.024991	-0.578745	-0.000058
Br46	Br	-0.021610	-1.115591	0.613032
Br47	Br	-0.074122	-0.403185	-0.000064
H48	H	0.239458	-0.879745	0.587042
