data_functionalizedCrystal
_audit_creation_method	'MofGen! by Chris Wilmer'
_symmetry_space_group_name_H-M	'P1'
_symmetry_Int_Tables_number	1
_symmetry_cell_setting	triclinic
loop_
_symmetry_equiv_pos_as_xyz
  x,y,z
_cell_length_a	15.297327
_cell_length_b	12.759401
_cell_length_c	12.759393
_cell_angle_alpha	90.019676
_cell_angle_beta	80.357027
_cell_angle_gamma	99.706828
loop_
_atom_site_label
_atom_site_type_symbol
_atom_site_fract_x
_atom_site_fract_y
_atom_site_fract_z
Zn1	Zn	-0.359107	1.533810	0.666301
Zn2	Zn	-0.509992	1.503258	0.521006
Zn3	Zn	-0.359152	1.358100	0.490649
Zn4	Zn	-0.509926	1.327671	0.696634
O5	O	-0.434544	1.430710	0.593647
O6	O	-0.379131	1.676777	0.647037
O7	O	-0.490029	1.483951	0.369967
O8	O	-0.232901	1.406929	0.488551
O9	O	-0.489986	1.654330	0.540290
O10	O	-0.232868	1.536023	0.617601
O11	O	-0.379208	1.377304	0.347664
O12	O	-0.379144	1.207044	0.517963
O13	O	-0.489873	1.355067	0.839622
O14	O	-0.489917	1.184688	0.669299
O15	O	-0.379067	1.506517	0.817336
O16	O	-0.636229	1.454445	0.569702
O17	O	-0.636180	1.325441	0.698735
C18	C	-0.434529	1.157745	0.593629
C19	C	-0.434544	1.040966	0.593651
C20	C	-0.376926	0.997771	0.649359
C21	C	-0.376935	0.888046	0.649368
C22	C	-0.492188	0.864716	0.537959
C23	C	-0.492173	0.974441	0.537945
C24	C	-0.668939	1.383354	0.640827
C25	C	-0.769214	1.363191	0.661046
C26	C	-1.051847	1.575249	0.449499
C27	C	-0.957634	1.594192	0.430497
C28	C	-0.910524	1.536444	0.488132
C29	C	-0.957637	1.459749	0.564773
C30	C	-1.051859	1.440797	0.583771
C31	C	-0.910536	1.401993	0.622405
C32	C	-0.957649	1.325297	0.699046
C33	C	-1.051862	1.306350	0.718041
C34	C	-1.098972	1.364098	0.660405
C35	C	-0.816314	1.420944	0.603407
C36	C	-0.816326	1.286492	0.737680
C37	C	-0.910539	1.267549	0.756682
C38	C	-0.199235	1.478279	0.546306
C39	C	-0.098960	1.498550	0.526132
C40	C	-0.434458	1.430806	0.867663
C41	C	-0.434421	1.430847	0.984433
C42	C	-0.434561	1.704740	0.593666
C43	C	-0.434568	1.821515	0.593674
C44	C	-0.434566	1.430687	0.320684
C45	C	-0.434348	1.430901	0.203864
C46	C	-0.376715	1.509714	1.027690
C47	C	-0.376676	1.509739	1.137407
C48	C	-0.492057	1.352027	1.160599
C49	C	-0.492091	1.351997	1.050884
H50	H	-0.330016	0.852883	0.694729
H51	H	-1.090219	1.243887	0.780434
H52	H	-0.539109	0.810539	0.492606
H53	H	-0.777963	1.483390	0.541005
H54	H	-0.948912	1.205102	0.819083
H55	H	-0.329754	1.573915	0.973588
C56	C	-0.765026	1.223937	0.800192
C57	C	-0.672432	1.256970	0.767174
C58	C	-0.625141	1.199381	0.824739
H59	H	-0.780415	1.150215	0.787927
H60	H	-0.780359	1.236204	0.873910
H61	H	-0.657105	1.244695	0.693473
H62	H	-0.657016	1.330683	0.779442
H63	H	-0.640474	1.211648	0.898457
H64	H	-0.640537	1.125663	0.812470
H65	H	-0.562311	1.221793	0.802352
H66	H	-0.539011	1.287832	1.214717
H67	H	-0.329684	1.573959	1.172621
H68	H	-0.539094	1.009610	0.492575
C69	C	-0.554848	1.266307	1.004120
C70	C	-0.605368	1.197282	1.085800
C71	C	-0.663192	1.118343	1.042763
H72	H	-0.520446	1.227385	0.954387
H73	H	-0.594219	1.298507	0.969266
H74	H	-0.566002	1.165084	1.120638
H75	H	-0.639788	1.236172	1.135540
H76	H	-0.702563	1.150543	1.007908
H77	H	-0.628783	1.079429	0.993029
H78	H	-0.697482	1.071506	1.098176
H79	H	-0.833812	1.551872	0.472655
C80	C	-0.314256	1.069830	0.709852
C81	C	-0.263783	1.008515	0.758617
C82	C	-0.206031	1.074857	0.814341
H83	H	-0.348708	1.105700	0.762587
H84	H	-0.274852	1.120549	0.661827
H85	H	-0.303182	0.957815	0.806639
H86	H	-0.229313	0.972646	0.705906
H87	H	-0.166627	1.125576	0.766316
H88	H	-0.240490	1.110724	0.867070
H89	H	-0.171772	1.033266	0.847427
H90	H	-1.090213	1.622253	0.402573
H91	H	-1.175688	1.348681	0.675875
C92	C	-0.906648	1.677546	0.347293
C93	C	-0.968067	1.724087	0.300907
C94	C	-0.921131	1.800894	0.224265
H95	H	-0.869947	1.644881	0.293988
H96	H	-0.869857	1.730757	0.380084
H97	H	-1.004843	1.670885	0.268116
H98	H	-1.004770	1.756773	0.354185
H99	H	-0.884339	1.854105	0.257056
H100	H	-0.884432	1.768220	0.170967
H101	H	-0.962796	1.832488	0.192789
