data_functionalizedCrystal
_audit_creation_method	'MofGen! by Chris Wilmer'
_symmetry_space_group_name_H-M	'P1'
_symmetry_Int_Tables_number	1
_symmetry_cell_setting	triclinic
loop_
_symmetry_equiv_pos_as_xyz
  x,y,z
_cell_length_a	9.065218
_cell_length_b	10.654550
_cell_length_c	8.140239
_cell_angle_alpha	89.996625
_cell_angle_beta	89.997198
_cell_angle_gamma	84.750408
loop_
_atom_site_label
_atom_site_type_symbol
_atom_site_fract_x
_atom_site_fract_y
_atom_site_fract_z
O1	O	1.959391	0.184157	-0.136617
O2	O	2.459391	0.684157	0.363383
O3	O	1.530024	0.199263	-0.136620
O4	O	2.030024	0.699263	0.363380
O5	O	1.754580	0.009010	-0.136608
O6	O	2.254580	0.509010	0.363392
O7	O	1.734836	0.374410	-0.136629
O8	O	2.234836	0.874410	0.363371
O9	O	1.754567	0.009008	0.136619
O10	O	2.254567	0.509008	0.636619
O11	O	1.530011	0.199261	0.136607
O12	O	2.030011	0.699261	0.636607
O13	O	1.959379	0.184155	0.136610
O14	O	2.459379	0.684155	0.636610
Zn15	Zn	1.744693	0.191708	0.179989
Zn16	Zn	2.244693	0.691708	0.679989
Zn17	Zn	1.744710	0.191711	-0.179999
Zn18	Zn	2.244710	0.691711	0.320001
O19	O	1.734823	0.374408	0.136598
O20	O	2.234823	0.874408	0.636598
C21	C	1.475039	0.197810	-0.000006
C22	C	1.975039	0.697810	0.499994
C23	C	1.311220	0.193469	-0.000007
C24	C	1.811220	0.693469	0.499993
C25	C	1.753124	-0.037795	0.000005
C26	C	2.253124	0.462205	0.500005
C27	C	1.748786	-0.177255	0.000002
C28	C	2.248786	0.322745	0.500002
C29	C	1.881001	-0.256217	0.000002
C30	C	2.381001	0.243783	0.500002
C31	C	1.876917	-0.387254	-0.000018
C32	C	2.376917	0.112746	0.499982
C33	C	1.608391	-0.360354	-0.000031
C34	C	2.108391	0.139646	0.499969
C35	C	1.612477	-0.229320	-0.000023
C36	C	2.112477	0.270680	0.499977
C37	C	2.032639	-0.582482	-0.095750
C38	C	2.532639	-0.082482	0.404250
C39	C	2.164861	-0.661449	-0.095722
C40	C	2.664861	-0.161449	0.404278
C41	C	2.284719	-0.630803	0.000029
C42	C	2.784719	-0.130803	0.500029
C43	C	2.272361	-0.521192	0.095790
C44	C	2.772361	-0.021192	0.595790
C45	C	2.140137	-0.442232	0.095777
C46	C	2.640137	0.057768	0.595777
C47	C	2.020284	-0.472876	-0.000012
C48	C	2.520284	0.027124	0.499988
C49	C	1.456765	-0.034091	0.095723
C50	C	1.956765	0.465909	0.595723
C51	C	1.324539	0.044872	0.095721
C52	C	1.824539	0.544872	0.595721
C53	C	1.204668	0.014230	-0.000020
C54	C	1.704668	0.514230	0.499980
C55	C	1.217011	-0.095383	-0.095757
C56	C	1.717011	0.404617	0.404243
C57	C	1.349237	-0.174347	-0.095755
C58	C	1.849237	0.325653	0.404245
C59	C	1.469109	-0.143695	-0.000018
C60	C	1.969109	0.356305	0.499982
C61	C	2.014364	0.185608	-0.000007
C62	C	2.514364	0.685608	0.499993
C63	C	2.178183	0.189949	-0.000017
C64	C	2.678183	0.689949	0.499983
C65	C	1.736279	0.421213	-0.000018
C66	C	2.236279	0.921213	0.499982
C67	C	1.740616	0.560673	-0.000026
C68	C	2.240616	1.060673	0.499974
N69	N	1.744693	0.191705	0.425672
N70	N	2.244693	0.691705	0.925672
N71	N	1.744722	0.191704	-0.425682
N72	N	2.244722	0.691704	0.074318
H73	H	2.130073	-0.352992	0.173750
H74	H	2.630073	0.147008	0.673750
O75	O	2.178202	-0.779665	-0.199007
O76	O	2.678202	-0.279665	0.300993
H77	H	2.072652	-0.787701	-0.265624
H78	H	2.572652	-0.287701	0.234376
H79	H	1.935055	-0.607436	-0.173741
H80	H	2.435055	-0.107436	0.326259
H81	H	1.119389	-0.120351	-0.173682
H82	H	1.619389	0.379649	0.326318
O83	O	1.461381	-0.416517	-0.000022
O84	O	1.961381	0.083483	0.499978
H85	H	1.453101	-0.475580	-0.111374
H86	H	1.953101	0.024420	0.388626
O87	O	1.362548	-0.292570	-0.199024
O88	O	1.862548	0.207430	0.300976
H89	H	1.386463	-0.375906	-0.118292
H90	H	1.886463	0.124094	0.381708
O91	O	1.311216	0.163104	0.198974
O92	O	1.811216	0.663104	0.698974
H93	H	1.416791	0.171161	0.265532
H94	H	1.916791	0.671161	0.765532
O95	O	1.586063	-0.001048	0.198994
O96	O	2.086063	0.498952	0.698994
H97	H	1.555255	0.088426	0.265589
H98	H	2.055255	0.588426	0.765589
H99	H	1.991993	-0.213831	0.000019
H100	H	2.491993	0.286169	0.500019
H101	H	2.369961	-0.496258	0.173771
H102	H	2.869961	0.003742	0.673771
H103	H	2.392377	-0.695107	0.000049
H104	H	2.892377	-0.195107	0.500049
H105	H	1.096996	0.078524	0.000009
H106	H	1.596996	0.578524	0.500009
