data_functionalizedCrystal
_audit_creation_method	'MofGen! by Chris Wilmer'
_symmetry_space_group_name_H-M	'P1'
_symmetry_Int_Tables_number	1
_symmetry_cell_setting	triclinic
loop_
_symmetry_equiv_pos_as_xyz
  x,y,z
_cell_length_a	9.065215
_cell_length_b	8.559649
_cell_length_c	8.140239
_cell_angle_alpha	89.998339
_cell_angle_beta	89.997810
_cell_angle_gamma	77.396681
loop_
_atom_site_label
_atom_site_type_symbol
_atom_site_fract_x
_atom_site_fract_y
_atom_site_fract_z
O1	O	1.931011	0.233881	-0.136586
O2	O	2.431011	0.733881	0.363414
O3	O	1.499314	0.253072	-0.136593
O4	O	1.999314	0.753072	0.363407
O5	O	1.753195	0.011424	-0.136587
O6	O	2.253195	0.511424	0.363413
O7	O	1.677130	0.475528	-0.136591
O8	O	2.177130	0.975528	0.363409
O9	O	1.753183	0.011421	0.136640
O10	O	2.253183	0.511421	0.636640
O11	O	1.499302	0.253069	0.136635
O12	O	1.999302	0.753069	0.636635
O13	O	1.930999	0.233878	0.136641
O14	O	2.430999	0.733878	0.636641
Zn15	Zn	1.715148	0.243473	0.180019
Zn16	Zn	2.215148	0.743473	0.680019
Zn17	Zn	1.715164	0.243477	-0.179970
Zn18	Zn	2.215164	0.743477	0.320030
O19	O	1.677118	0.475525	0.136636
O20	O	2.177118	0.975525	0.636636
C21	C	1.444553	0.251227	0.000020
C22	C	1.944553	0.751227	0.500020
C23	C	1.281402	0.245715	0.000017
C24	C	1.781402	0.745715	0.500017
C25	C	1.758954	-0.048024	0.000024
C26	C	2.258954	0.451976	0.500024
C27	C	1.776112	-0.225156	0.000015
C28	C	2.276112	0.274844	0.500015
C29	C	1.985760	0.235723	0.000025
C30	C	2.485760	0.735723	0.500025
C31	C	2.148910	0.241234	0.000017
C32	C	2.648910	0.741234	0.500017
C33	C	1.671359	0.534973	0.000021
C34	C	2.171359	1.034973	0.500021
C35	C	1.654200	0.712105	0.000020
C36	C	2.154200	1.212105	0.500020
N37	N	1.715148	0.243469	0.425701
N38	N	2.215148	0.743469	0.925701
N39	N	1.715178	0.243468	-0.425652
N40	N	2.215178	0.743468	0.074348
H41	H	1.536699	-0.206097	0.000023
H42	H	2.036699	0.293903	0.500023
H43	H	1.893621	-0.306962	0.000030
H44	H	2.393621	0.193038	0.500030
