data_functionalizedCrystal
_audit_creation_method	'MofGen! by Chris Wilmer'
_symmetry_space_group_name_H-M	'P1'
_symmetry_Int_Tables_number	1
_symmetry_cell_setting	triclinic
loop_
_symmetry_equiv_pos_as_xyz
  x,y,z
_cell_length_a	18.215407
_cell_length_b	14.908520
_cell_length_c	18.215399
_cell_angle_alpha	93.269364
_cell_angle_beta	89.982632
_cell_angle_gamma	93.318033
loop_
_atom_site_label
_atom_site_type_symbol
_atom_site_fract_x
_atom_site_fract_y
_atom_site_fract_z
Zn1	Zn	1.108174	-0.359230	-0.432973
Zn2	Zn	1.358174	-0.109230	-0.182973
Zn3	Zn	1.608174	0.140770	0.067027
Zn4	Zn	1.858174	0.390770	0.317027
Zn5	Zn	1.100986	-0.510098	-0.317007
Zn6	Zn	1.350986	-0.260098	-0.067007
Zn7	Zn	1.600986	-0.010098	0.182993
Zn8	Zn	1.850986	0.239902	0.432993
Zn9	Zn	0.985106	-0.359251	-0.309927
Zn10	Zn	1.235106	-0.109251	-0.059927
Zn11	Zn	1.485106	0.140749	0.190073
Zn12	Zn	1.735106	0.390749	0.440073
Zn13	Zn	0.977979	-0.510040	-0.440034
Zn14	Zn	1.227979	-0.260040	-0.190034
Zn15	Zn	1.477979	-0.010040	0.059966
Zn16	Zn	1.727979	0.239960	0.309966
O17	O	1.043061	-0.434655	-0.374985
O18	O	1.293061	-0.184655	-0.124985
O19	O	1.543061	0.065345	0.125015
O20	O	1.793061	0.315345	0.375015
O21	O	1.210204	-0.379258	-0.417598
O22	O	1.460204	-0.129258	-0.167598
O23	O	1.710204	0.120742	0.082402
O24	O	1.960204	0.370742	0.332402
O25	O	1.085589	-0.490121	-0.213085
O26	O	1.335589	-0.240121	0.036915
O27	O	1.585589	0.009879	0.286915
O28	O	1.835589	0.259879	0.536915
O29	O	1.007422	-0.233004	-0.320331
O30	O	1.257422	0.016996	-0.070331
O31	O	1.507422	0.266996	0.179669
O32	O	1.757422	0.516996	0.429669
O33	O	1.204923	-0.490100	-0.332398
O34	O	1.454923	-0.240100	-0.082398
O35	O	1.704923	0.009900	0.167602
O36	O	1.954923	0.259900	0.417602
O37	O	1.097840	-0.232988	-0.410732
O38	O	1.347840	0.017012	-0.160732
O39	O	1.597840	0.267012	0.089268
O40	O	1.847840	0.517012	0.339268
O41	O	1.000452	-0.379295	-0.207883
O42	O	1.250452	-0.129295	0.042117
O43	O	1.500452	0.120705	0.292117
O44	O	1.750452	0.370705	0.542117
O45	O	0.881177	-0.379238	-0.327178
O46	O	1.131177	-0.129238	-0.077178
O47	O	1.381177	0.120762	0.172822
O48	O	1.631177	0.370762	0.422822
O49	O	0.995275	-0.490001	-0.542080
O50	O	1.245275	-0.240001	-0.292080
O51	O	1.495275	0.009999	-0.042080
O52	O	1.745275	0.259999	0.207920
O53	O	0.875941	-0.490022	-0.422767
O54	O	1.125941	-0.240022	-0.172767
O55	O	1.375941	0.009978	0.077233
O56	O	1.625941	0.259978	0.327233
O57	O	1.090929	-0.379202	-0.536892
O58	O	1.340929	-0.129202	-0.286892
O59	O	1.590929	0.120798	-0.036892
O60	O	1.840929	0.370798	0.213108
O61	O	1.078678	-0.636335	-0.339245
O62	O	1.328678	-0.386335	-0.089245
O63	O	1.578678	-0.136335	0.160755
O64	O	1.828678	0.113665	0.410755
O65	O	0.988305	-0.636292	-0.429632
O66	O	1.238305	-0.386292	-0.179632
O67	O	1.488305	-0.136292	0.070368
O68	O	1.738305	0.113708	0.320368
C69	C	0.851856	-0.434627	-0.374971
C70	C	1.101856	-0.184627	-0.124971
C71	C	1.351856	0.065373	0.125029
C72	C	1.601856	0.315373	0.375029
C73	C	0.770057	-0.434637	-0.374983
C74	C	1.020057	-0.184637	-0.124983
C75	C	1.270057	0.065363	0.125017
C76	C	1.520057	0.315363	0.375017
C77	C	0.584606	-0.377040	-0.419427
C78	C	0.834606	-0.127040	-0.169427
C79	C	1.084606	0.122960	0.080573
C80	C	1.334606	0.372960	0.330573
C81	C	0.507747	-0.377048	-0.419430
C82	C	0.757747	-0.127048	-0.169430
C83	C	1.007747	0.122952	0.080570
C84	C	1.257747	0.372952	0.330570
C85	C	0.502267	-0.492295	-0.330557
C86	C	0.752267	-0.242295	-0.080557
C87	C	1.002267	0.007705	0.169443
C88	C	1.252267	0.257705	0.419443
C89	C	0.579125	-0.492282	-0.330551
C90	C	0.829125	-0.242282	-0.080551
C91	C	1.079125	0.007718	0.169449
C92	C	1.329125	0.257718	0.419449
C93	C	0.620292	-0.434656	-0.374990
C94	C	0.870292	-0.184656	-0.124990
C95	C	1.120292	0.065344	0.125010
C96	C	1.370292	0.315344	0.375010
C97	C	0.466575	-0.434677	-0.374999
C98	C	0.716575	-0.184677	-0.124999
C99	C	0.966575	0.065323	0.125001
C100	C	1.216575	0.315323	0.375001
C101	C	0.383241	-0.434685	-0.375002
C102	C	0.633241	-0.184685	-0.125002
C103	C	0.883241	0.065315	0.124998
C104	C	1.133241	0.315315	0.374998
C105	C	0.703632	-0.434646	-0.374987
C106	C	0.953632	-0.184646	-0.124987
C107	C	1.203632	0.065354	0.125013
C108	C	1.453632	0.315354	0.375013
C109	C	1.031958	-0.669048	-0.385989
C110	C	1.281958	-0.419048	-0.135989
C111	C	1.531958	-0.169048	0.114011
C112	C	1.781958	0.080952	0.364011
C113	C	1.027275	-0.769322	-0.390721
C114	C	1.277275	-0.519322	-0.140721
C115	C	1.527275	-0.269322	0.109279
C116	C	1.777275	-0.019322	0.359279
C117	C	1.112678	-0.957731	-0.305568
C118	C	1.362678	-0.707731	-0.055568
C119	C	1.612678	-0.457731	0.194432
C120	C	1.862678	-0.207731	0.444432
C121	C	1.108281	-1.051948	-0.310012
C122	C	1.358281	-0.801948	-0.060012
C123	C	1.608281	-0.551948	0.189988
C124	C	1.858281	-0.301948	0.439988
C125	C	1.014088	-1.051973	-0.404056
C126	C	1.264088	-0.801973	-0.154056
C127	C	1.514088	-0.551973	0.095944
C128	C	1.764088	-0.301973	0.345944
C129	C	1.018485	-0.957757	-0.399612
C130	C	1.268485	-0.707757	-0.149612
C131	C	1.518485	-0.457757	0.100388
C132	C	1.768485	-0.207757	0.350388
C133	C	1.067781	-0.910639	-0.350366
C134	C	1.317781	-0.660639	-0.100366
C135	C	1.567781	-0.410639	0.149634
C136	C	1.817781	-0.160639	0.399634
C137	C	1.072174	-0.816421	-0.345919
C138	C	1.322174	-0.566421	-0.095919
C139	C	1.572174	-0.316421	0.154081
C140	C	1.822174	-0.066421	0.404081
C141	C	0.977985	-0.816448	-0.439966
C142	C	1.227985	-0.566448	-0.189966
C143	C	1.477985	-0.316448	0.060034
C144	C	1.727985	-0.066448	0.310034
C145	C	0.973588	-0.910665	-0.444410
C146	C	1.223588	-0.660665	-0.194410
C147	C	1.473588	-0.410665	0.055590
C148	C	1.723588	-0.160665	0.305590
C149	C	1.235013	-0.434683	-0.375000
C150	C	1.485013	-0.184683	-0.125000
C151	C	1.735013	0.065317	0.125000
C152	C	1.985013	0.315317	0.375000
C153	C	1.316811	-0.434695	-0.375006
C154	C	1.566811	-0.184695	-0.125006
C155	C	1.816811	0.065305	0.124994
C156	C	2.066811	0.315305	0.374994
C157	C	1.043109	-0.434593	-0.566935
C158	C	1.293109	-0.184593	-0.316935
C159	C	1.543109	0.065407	-0.066935
C160	C	1.793109	0.315407	0.183065
C161	C	1.043129	-0.434566	-0.648733
C162	C	1.293129	-0.184566	-0.398733
C163	C	1.543129	0.065434	-0.148733
C164	C	1.793129	0.315434	0.101267
C165	C	1.054228	-0.199347	-0.363954
C166	C	1.304228	0.050653	-0.113954
C167	C	1.554228	0.300653	0.136046
C168	C	1.804228	0.550653	0.386046
C169	C	1.058986	-0.099072	-0.359254
C170	C	1.308986	0.150928	-0.109254
C171	C	1.558986	0.400928	0.140746
C172	C	1.808986	0.650928	0.390746
C173	C	1.092956	-0.376819	-0.834224
C174	C	1.342956	-0.126819	-0.584224
C175	C	1.592956	0.123181	-0.334224
C176	C	1.842956	0.373181	-0.084224
C177	C	1.092966	-0.376792	-0.911082
C178	C	1.342966	-0.126792	-0.661082
C179	C	1.592966	0.123208	-0.411082
C180	C	1.842966	0.373208	-0.161082
C181	C	0.993361	-0.492174	-0.916473
C182	C	1.243361	-0.242174	-0.666473
C183	C	1.493361	0.007826	-0.416473
C184	C	1.743361	0.257826	-0.166473
C185	C	0.993348	-0.492195	-0.839616
C186	C	1.243348	-0.242195	-0.589616
C187	C	1.493348	0.007805	-0.339616
C188	C	1.743348	0.257805	-0.089616
C189	C	1.043150	-0.434519	-0.798494
C190	C	1.293150	-0.184519	-0.548494
C191	C	1.543150	0.065481	-0.298494
C192	C	1.793150	0.315481	-0.048494
C193	C	1.043173	-0.434471	-0.952208
C194	C	1.293173	-0.184471	-0.702208
C195	C	1.543173	0.065529	-0.452208
C196	C	1.793173	0.315529	-0.202208
C197	C	1.043183	-0.434443	-1.035541
C198	C	1.293183	-0.184443	-0.785541
C199	C	1.543183	0.065557	-0.535541
C200	C	1.793183	0.315557	-0.285541
C201	C	1.043139	-0.434545	-0.715156
C202	C	1.293139	-0.184545	-0.465156
C203	C	1.543139	0.065455	-0.215156
C204	C	1.793139	0.315455	0.034844
C205	C	1.043059	-0.434652	-0.183779
C206	C	1.293059	-0.184652	0.066221
C207	C	1.543059	0.065348	0.316221
C208	C	1.793059	0.315348	0.566221
C209	C	1.043193	-0.434424	-0.101969
C210	C	1.293193	-0.184424	0.148031
C211	C	1.543193	0.065576	0.398031
C212	C	1.793193	0.315576	0.648031
H213	H	0.478695	-0.330130	-0.455613
H214	H	0.728695	-0.080130	-0.205613
H215	H	0.978695	0.169870	0.044387
H216	H	1.228695	0.419870	0.294387
O217	O	0.939622	-0.554432	-0.801076
O218	O	1.189622	-0.304432	-0.551076
O219	O	1.439622	-0.054432	-0.301076
O220	O	1.689622	0.195568	-0.051076
H221	H	0.947975	-0.544747	-0.740725
H222	H	1.197975	-0.294747	-0.490725
H223	H	1.447975	-0.044747	-0.240725
H224	H	1.697975	0.205253	0.009275
O225	O	1.146668	-0.314613	-0.789870
O226	O	1.396668	-0.064613	-0.539870
O227	O	1.646668	0.185387	-0.289870
O228	O	1.896668	0.435387	-0.039870
H229	H	1.115902	-0.268725	-0.752692
H230	H	1.365902	-0.018725	-0.502692
H231	H	1.615902	0.231275	-0.252692
H232	H	1.865902	0.481275	-0.002692
H233	H	1.152812	-0.919367	-0.265465
H234	H	1.402812	-0.669367	-0.015465
H235	H	1.652812	-0.419367	0.234535
H236	H	1.902812	-0.169367	0.484535
H237	H	0.618123	-0.330114	-0.455609
H238	H	0.868123	-0.080114	-0.205609
H239	H	1.118123	0.169886	0.044391
H240	H	1.368123	0.419886	0.294391
O241	O	0.457866	-0.554452	-0.282631
O242	O	0.707866	-0.304452	-0.032631
O243	O	0.957866	-0.054452	0.217369
O244	O	1.207866	0.195548	0.467369
H245	H	0.398426	-0.544788	-0.290105
H246	H	0.648426	-0.294788	-0.040105
H247	H	0.898426	-0.044788	0.209895
H248	H	1.148426	0.205212	0.459895
H249	H	0.973958	-1.090353	-0.444155
H250	H	1.223958	-0.840353	-0.194155
H251	H	1.473958	-0.590353	0.055845
H252	H	1.723958	-0.340353	0.305845
O253	O	0.920419	-0.961484	-0.497524
O254	O	1.170419	-0.711484	-0.247524
O255	O	1.420419	-0.461484	0.002476
O256	O	1.670419	-0.211484	0.252476
H257	H	0.863512	-0.943461	-0.483995
H258	H	1.113512	-0.693461	-0.233995
H259	H	1.363512	-0.443461	0.016005
H260	H	1.613512	-0.193461	0.266005
O261	O	0.617624	-0.554424	-0.282618
O262	O	0.867624	-0.304424	-0.032618
O263	O	1.117624	-0.054424	0.217382
O264	O	1.367624	0.195576	0.467382
H265	H	0.576086	-0.594506	-0.251725
H266	H	0.826086	-0.344506	-0.001725
H267	H	1.076086	-0.094506	0.248275
H268	H	1.326086	0.155494	0.498275
O269	O	1.156703	-1.102753	-0.261700
O270	O	1.406703	-0.852753	-0.011700
O271	O	1.656703	-0.602753	0.238300
O272	O	1.906703	-0.352753	0.488300
H273	H	1.144959	-1.084738	-0.203078
H274	H	1.394959	-0.834738	0.046922
H275	H	1.644959	-0.584738	0.296922
H276	H	1.894959	-0.334738	0.546922
H277	H	1.112311	-0.778058	-0.305818
H278	H	1.362311	-0.528058	-0.055818
H279	H	1.612311	-0.278058	0.194182
H280	H	1.862311	-0.028058	0.444182
O281	O	0.929557	-0.765658	-0.488291
O282	O	1.179557	-0.515658	-0.238291
O283	O	1.429557	-0.265658	0.011709
O284	O	1.679557	-0.015658	0.261709
H285	H	0.940897	-0.692227	-0.476932
H286	H	1.190897	-0.442227	-0.226932
H287	H	1.440897	-0.192227	0.023068
H288	H	1.690897	0.057773	0.273068
O289	O	1.146689	-0.314565	-0.949622
O290	O	1.396689	-0.064565	-0.699622
O291	O	1.646689	0.185435	-0.449622
O292	O	1.896689	0.435435	-0.199622
H293	H	1.181318	-0.274470	-0.908113
H294	H	1.431318	-0.024470	-0.658113
H295	H	1.681318	0.225530	-0.408113
H296	H	1.931318	0.475530	-0.158113
O297	O	0.939648	-0.554379	-0.960827
O298	O	1.189648	-0.304379	-0.710827
O299	O	1.439648	-0.054379	-0.460827
O300	O	1.689648	0.195621	-0.210827
H301	H	0.970413	-0.600279	-0.997995
H302	H	1.220413	-0.350279	-0.747995
H303	H	1.470413	-0.100279	-0.497995
H304	H	1.720413	0.149721	-0.247995
