data_functionalizedCrystal
_audit_creation_method	'MofGen! by Chris Wilmer'
_symmetry_space_group_name_H-M	'P1'
_symmetry_Int_Tables_number	1
_symmetry_cell_setting	triclinic
loop_
_symmetry_equiv_pos_as_xyz
  x,y,z
_cell_length_a	21.295418
_cell_length_b	19.805405
_cell_length_c	19.805399
_cell_angle_alpha	90.029301
_cell_angle_beta	90.037822
_cell_angle_gamma	90.042223
loop_
_atom_site_label
_atom_site_type_symbol
_atom_site_fract_x
_atom_site_fract_y
_atom_site_fract_z
Zn1	Zn	0.962337	-0.269193	0.383041
Zn2	Zn	1.462337	0.230807	0.883041
Zn3	Zn	0.962258	-0.382382	0.269850
Zn4	Zn	1.462258	0.117618	0.769850
Zn5	Zn	0.857071	-0.269243	0.269830
Zn6	Zn	1.357071	0.230757	0.769830
Zn7	Zn	0.857037	-0.382377	0.382960
Zn8	Zn	1.357037	0.117623	0.882960
O9	O	0.909676	-0.325799	0.326420
O10	O	1.409676	0.174201	0.826420
O11	O	1.050416	-0.284189	0.368068
O12	O	1.550416	0.215811	0.868068
O13	O	0.948286	-0.367396	0.175130
O14	O	1.448286	0.132604	0.675130
O15	O	0.871082	-0.174520	0.284873
O16	O	1.371082	0.325480	0.784873
O17	O	1.050358	-0.367348	0.284907
O18	O	1.550358	0.132652	0.784907
O19	O	0.948421	-0.174483	0.368049
O20	O	1.448421	0.325517	0.868049
O21	O	0.871005	-0.284274	0.175116
O22	O	1.371005	0.215726	0.675116
O23	O	0.768977	-0.284269	0.284795
O24	O	1.268977	0.215731	0.784795
O25	O	0.871024	-0.367340	0.477688
O26	O	1.371024	0.132660	0.977688
O27	O	0.768952	-0.367388	0.367911
O28	O	1.268952	0.132612	0.867911
O29	O	0.948388	-0.284184	0.477747
O30	O	1.448388	0.215816	0.977747
O31	O	0.948253	-0.477097	0.284828
O32	O	1.448253	0.022903	0.784828
O33	O	0.870947	-0.477094	0.367930
O34	O	1.370947	0.022906	0.867930
C35	C	0.909605	-0.501655	0.326387
C36	C	1.409605	-0.001655	0.826387
C37	C	0.909632	-0.576887	0.326396
C38	C	1.409632	-0.076887	0.826396
C39	C	0.746124	-0.325834	0.326342
C40	C	1.246124	0.174166	0.826342
C41	C	0.676156	-0.325866	0.326325
C42	C	1.176156	0.174134	0.826325
C43	C	0.949924	-0.612210	0.283170
C44	C	1.449924	-0.112210	0.783170
C45	C	0.949951	-0.682899	0.283185
C46	C	1.449951	-0.182899	0.783185
C47	C	0.909682	-0.718262	0.326423
C48	C	1.409682	-0.218262	0.826423
C49	C	0.869388	-0.682934	0.369654
C50	C	1.369388	-0.182934	0.869654
C51	C	0.869365	-0.612247	0.369642
C52	C	1.369365	-0.112247	0.869642
C53	C	0.869481	-0.968007	0.369704
C54	C	1.369481	-0.468007	0.869704
C55	C	0.869506	-1.038699	0.369711
C56	C	1.369506	-0.538699	0.869711
C57	C	0.950067	-1.038659	0.283247
C58	C	1.450067	-0.538659	0.783247
C59	C	0.950044	-0.967972	0.283235
C60	C	1.450044	-0.467972	0.783235
C61	C	0.909753	-0.932650	0.326468
C62	C	1.409753	-0.432650	0.826468
C63	C	0.909725	-0.856001	0.326452
C64	C	1.409725	-0.356001	0.826452
C65	C	0.909706	-0.794909	0.326436
C66	C	1.409706	-0.294909	0.826436
C67	C	0.643293	-0.369203	0.369539
C68	C	1.143293	0.130797	0.869539
C69	C	0.577550	-0.369186	0.369569
C70	C	1.077550	0.130814	0.869569
C71	C	0.544673	-0.325840	0.326374
C72	C	1.044673	0.174160	0.826374
C73	C	0.577545	-0.282494	0.283157
C74	C	1.077545	0.217506	0.783157
C75	C	0.643286	-0.282507	0.283132
C76	C	1.143286	0.217493	0.783132
N77	N	0.441403	-0.320551	0.267174
N78	N	0.941403	0.179449	0.767174
N79	N	0.378951	-0.320543	0.267199
N80	N	0.878951	0.179457	0.767199
C81	C	0.346599	-0.325796	0.326446
C82	C	0.846599	0.174204	0.826446
N83	N	0.379057	-0.331072	0.385667
N84	N	0.879057	0.168928	0.885667
N85	N	0.441514	-0.331084	0.385642
N86	N	0.941514	0.168916	0.885642
C87	C	0.473388	-0.325820	0.326396
C88	C	0.973388	0.174180	0.826396
C89	C	0.242450	-0.369118	0.369696
C90	C	0.742450	0.130882	0.869696
C91	C	0.176706	-0.369096	0.369728
C92	C	0.676706	0.130904	0.869728
C93	C	0.176702	-0.282407	0.283309
C94	C	0.676702	0.217593	0.783309
C95	C	0.242444	-0.282425	0.283283
C96	C	0.742444	0.217575	0.783283
C97	C	0.275315	-0.325784	0.326476
C98	C	0.775315	0.174216	0.826476
C99	C	1.073866	-0.325763	0.326499
C100	C	1.573866	0.174237	0.826499
C101	C	1.143834	-0.325748	0.326532
C102	C	1.643834	0.174252	0.826532
C103	C	0.909711	-0.325756	0.502963
C104	C	1.409711	0.174244	1.002963
C105	C	0.909726	-0.325738	0.578195
C106	C	1.409726	0.174262	1.078195
C107	C	0.909764	-0.149256	0.326468
C108	C	1.409764	0.350744	0.826468
C109	C	0.909802	-0.074024	0.326488
C110	C	1.409802	0.425976	0.826488
C111	C	0.909677	-0.325792	0.150564
C112	C	1.409677	0.174208	0.650564
C113	C	0.909784	-0.325620	0.075333
C114	C	1.409784	0.174380	0.575333
C115	C	0.950010	-0.282437	0.613571
C116	C	1.450010	0.217563	1.113571
C117	C	0.950017	-0.282417	0.684260
C118	C	1.450017	0.217583	1.184260
C119	C	0.909742	-0.325702	0.719571
C120	C	1.409742	0.174298	1.219571
C121	C	0.869453	-0.369006	0.684190
C122	C	1.369453	0.130994	1.184190
C123	C	0.869444	-0.369021	0.613502
C124	C	1.369444	0.130979	1.113502
C125	C	0.869489	-0.368943	0.969263
C126	C	1.369489	0.131057	1.469263
C127	C	0.869502	-0.368925	1.039955
C128	C	1.369502	0.131075	1.539955
C129	C	0.950061	-0.282338	1.040020
C130	C	1.450061	0.217662	1.540020
C131	C	0.950052	-0.282354	0.969333
C132	C	1.450052	0.217646	1.469333
C133	C	0.909762	-0.325654	0.933958
C134	C	1.409762	0.174346	1.433958
C135	C	0.909754	-0.325674	0.857310
C136	C	1.409754	0.174326	1.357310
C137	C	0.909752	-0.325686	0.796218
C138	C	1.409752	0.174314	1.296218
H139	H	0.982713	-0.583422	0.247958
H140	H	1.482713	-0.083422	0.747958
H141	H	0.269202	-0.247139	0.248090
H142	H	0.769202	0.252861	0.748090
H143	H	0.982866	-0.247078	1.068831
H144	H	1.482866	0.252922	1.568831
O145	O	0.830258	-0.578004	0.411726
O146	O	1.330258	-0.078004	0.911726
C147	C	0.843998	-0.595204	0.479206
C148	C	1.343998	-0.095204	0.979206
H149	H	0.868209	-0.646500	0.480648
H150	H	1.368209	-0.146500	0.980648
H151	H	0.798553	-0.597651	0.509499
H152	H	1.298553	-0.097651	1.009499
H153	H	0.876341	-0.555370	0.502037
H154	H	1.376341	-0.055370	1.002037
H155	H	0.982809	-0.247190	0.584826
H156	H	1.482809	0.252810	1.084826
H157	H	0.269214	-0.404420	0.404870
H158	H	0.769214	0.095580	0.904870
H159	H	0.149950	-0.404386	0.404922
H160	H	0.649950	0.095614	0.904922
H161	H	0.836703	-0.404174	1.068703
H162	H	1.336703	0.095826	1.568703
H163	H	0.982821	-0.247158	0.713060
H164	H	1.482821	0.252842	1.213060
H165	H	0.982760	-0.711656	0.247986
H166	H	1.482760	-0.211656	0.747986
O167	O	0.989195	-0.240242	0.935138
O168	O	1.489195	0.259758	1.435138
C169	C	1.024763	-0.202029	0.981520
C170	C	1.524763	0.297971	1.481520
H171	H	0.998989	-0.199680	1.031896
H172	H	1.498989	0.300320	1.531896
H173	H	1.031500	-0.148703	0.961115
H174	H	1.531500	0.351297	1.461115
H175	H	1.072562	-0.226802	0.989056
H176	H	1.572562	0.273198	1.489056
H177	H	0.836691	-0.404210	0.940469
H178	H	1.336691	0.095790	1.440469
O179	O	0.675289	-0.411220	0.411537
O180	O	1.175289	0.088780	0.911537
C181	C	0.713374	-0.372747	0.455323
C182	C	1.213374	0.127253	0.955323
H183	H	0.723248	-0.321425	0.431539
H184	H	1.223248	0.178575	0.931539
H185	H	0.759587	-0.400338	0.464334
H186	H	1.259587	0.099662	0.964334
H187	H	0.688086	-0.365368	0.505501
H188	H	1.188086	0.134632	1.005501
H189	H	0.550788	-0.404477	0.404762
H190	H	1.050788	0.095523	0.904762
H191	H	0.836658	-0.404247	0.712945
H192	H	1.336658	0.095753	1.212945
O193	O	0.830370	-1.072948	0.411783
O194	O	1.330370	-0.572948	0.911783
C195	C	0.794793	-1.026615	0.449929
C196	C	1.294793	-0.526615	0.949929
H197	H	0.820557	-0.976194	0.452300
H198	H	1.320557	-0.476194	0.952300
H199	H	0.788062	-1.047015	0.503251
H200	H	1.288062	-0.547015	1.003251
H201	H	0.746992	-1.019170	0.425083
H202	H	1.246992	-0.519170	0.925083
H203	H	0.149934	-0.247110	0.248141
H204	H	0.649934	0.252890	0.748141
O205	O	0.989221	-0.933725	0.241213
O206	O	1.489221	-0.433725	0.741213
C207	C	1.024780	-0.980061	0.203052
C208	C	1.524780	-0.480061	0.703052
H209	H	1.026960	-1.030429	0.230785
H210	H	1.526960	-0.530429	0.730785
H211	H	1.074374	-0.959584	0.195898
H212	H	1.574374	-0.459584	0.695898
H213	H	1.001761	-0.987639	0.151615
H214	H	1.501761	-0.487639	0.651615
O215	O	0.830300	-0.411157	0.579240
O216	O	1.330300	0.088843	1.079240
C217	C	0.794747	-0.449351	0.625562
C218	C	1.294747	0.050649	1.125562
H219	H	0.820533	-0.451670	0.675967
H220	H	1.320533	0.048330	1.175967
H221	H	0.788012	-0.502688	0.605122
H222	H	1.288012	-0.002688	1.105122
H223	H	0.746947	-0.424582	0.633055
H224	H	1.246947	0.075418	1.133055
O225	O	0.989202	-1.073077	0.241329
O226	O	1.489202	-0.573077	0.741329
C227	C	0.980587	-1.143050	0.250604
C228	C	1.480587	-0.643050	0.750604
H229	H	0.959934	-1.152692	0.302808
H230	H	1.459934	-0.652692	0.802808
H231	H	1.027756	-1.169854	0.246097
H232	H	1.527756	-0.669854	0.746097
H233	H	0.947107	-1.163188	0.210407
H234	H	1.447107	-0.663188	0.710407
H235	H	0.670043	-0.247214	0.247942
H236	H	1.170043	0.252786	0.747942
H237	H	0.836674	-0.939253	0.404904
H238	H	1.336674	-0.439253	0.904904
O239	O	0.830291	-0.717388	0.411592
O240	O	1.330291	-0.217388	0.911592
C241	C	0.838960	-0.787354	0.402345
C242	C	1.338960	-0.287354	0.902345
H243	H	0.859608	-0.797019	0.350140
H244	H	1.359608	-0.297019	0.850140
H245	H	0.791813	-0.814269	0.406876
H246	H	1.291813	-0.314269	0.906876
H247	H	0.872465	-0.807349	0.442541
H248	H	1.372465	-0.307349	0.942541
O249	O	0.545584	-0.240486	0.241120
O250	O	1.045584	0.259514	0.741120
C251	C	0.507475	-0.278959	0.197357
C252	C	1.007475	0.221041	0.697357
H253	H	0.527239	-0.332266	0.193076
H254	H	1.027239	0.167734	0.693076
H255	H	0.506705	-0.254413	0.145312
H256	H	1.006705	0.245587	0.645312
H257	H	0.457667	-0.281308	0.218294
H258	H	0.957667	0.218692	0.718294
