data_functionalizedCrystal
_audit_creation_method	'MofGen! by Chris Wilmer'
_symmetry_space_group_name_H-M	'P1'
_symmetry_Int_Tables_number	1
_symmetry_cell_setting	triclinic
loop_
_symmetry_equiv_pos_as_xyz
  x,y,z
_cell_length_a	15.538191
_cell_length_b	15.995292
_cell_length_c	14.185569
_cell_angle_alpha	76.851103
_cell_angle_beta	97.875798
_cell_angle_gamma	65.370355
loop_
_atom_site_label
_atom_site_type_symbol
_atom_site_fract_x
_atom_site_fract_y
_atom_site_fract_z
O1	O	1.228594	-0.246483	-0.083445
O2	O	0.954315	-0.149796	-0.083439
O3	O	1.098980	-0.322317	-0.083444
O4	O	1.083929	-0.073961	-0.083440
O5	O	1.141716	-0.373277	0.083389
O6	O	0.997050	-0.200756	0.083394
O7	O	1.271330	-0.297443	0.083388
Cu8	Cu	1.138092	-0.253753	0.098624
Cu9	Cu	1.087552	-0.193486	-0.098675
O10	O	1.126664	-0.124922	0.083393
C11	C	0.940585	-0.165160	-0.000021
C12	C	0.836004	-0.135027	-0.000019
C13	C	0.548279	-0.434385	-0.000039
C14	C	0.450006	-0.406049	-0.000039
C15	C	0.427527	-0.246668	-0.000037
C16	C	0.525801	-0.274992	-0.000031
C17	C	0.586169	-0.368851	-0.000034
C18	C	0.563691	-0.209459	-0.000026
C19	C	0.661955	-0.237779	-0.000026
C20	C	0.722329	-0.331633	-0.000031
C21	C	0.684433	-0.397172	-0.000034
C22	C	0.503319	-0.115598	-0.000031
C23	C	0.541209	-0.050064	-0.000026
C24	C	0.639476	-0.078387	-0.000019
C25	C	0.699850	-0.172241	-0.000024
C26	C	0.677372	-0.012848	-0.000017
C27	C	0.775636	-0.041168	-0.000017
C28	C	0.798114	-0.200561	-0.000024
C29	C	1.119735	-0.378806	-0.000030
C30	C	1.117896	-0.471198	-0.000037
C31	C	1.111146	-0.806888	-0.000028
C32	C	1.215658	-0.815423	0.000342
C33	C	1.217545	-0.719235	-0.000037
C34	C	1.114496	-0.640349	-0.000032
C35	C	1.037889	-0.624484	-0.095297
C36	C	1.036613	-0.720869	-0.095373
C37	C	1.083079	-0.778030	0.094347
C38	C	1.087270	-0.683097	0.095602
C39	C	1.116382	-0.546225	-0.000038
C40	C	1.109255	-0.901008	-0.000029
C41	C	1.285059	-0.282078	-0.000032
C42	C	1.389638	-0.312209	-0.000041
C43	C	1.105909	-0.068432	-0.000023
C44	C	1.107746	0.023962	-0.000023
N45	N	1.173646	-0.296143	0.237394
N46	N	1.052006	-0.151104	-0.237445
C47	C	0.947549	-0.026597	0.605052
C48	C	0.974487	-0.058703	0.710073
C49	C	1.102614	-0.211437	0.710029
C50	C	1.075684	-0.179345	0.605006
C51	C	0.998151	-0.086923	0.552526
C52	C	1.126286	-0.239671	0.552480
C53	C	1.099361	-0.207579	0.447467
C54	C	1.021834	-0.115161	0.394979
C55	C	0.971226	-0.054831	0.447512
C56	C	1.203823	-0.332090	0.604963
C57	C	1.254426	-0.392416	0.552437
C58	C	1.227496	-0.360327	0.447421
C59	C	1.149969	-0.267909	0.394934
C60	C	1.278104	-0.420657	0.394888
C61	C	1.251178	-0.388565	0.289874
C62	C	1.123043	-0.235817	0.289920
H63	H	0.423306	-0.092542	-0.000034
C64	C	0.750846	-0.500423	-0.000031
N65	N	0.800867	-0.578188	-0.000032
C66	C	1.060827	-0.742564	-0.191576
N67	N	1.079071	-0.758903	-0.264035
C68	C	0.361112	-0.143428	-0.000029
N69	N	0.311091	-0.065667	-0.000018
H70	H	1.238279	-0.835853	-0.067595
H71	H	0.628203	0.063575	-0.000025
H72	H	1.273405	-0.876521	0.068661
C73	C	0.614692	-0.537637	-0.000036
N74	N	0.664713	-0.615401	-0.000038
H75	H	1.134459	-0.838170	0.166558
C76	C	0.474795	0.053176	-0.000018
N77	N	0.424773	0.130937	-0.000008
H78	H	0.958949	-0.710834	-0.099686
H79	H	1.225746	-0.358213	0.690471
C80	C	0.817318	0.030921	-0.000009
N81	N	0.848712	0.085222	-0.000005
H82	H	0.419161	-0.459421	-0.000045
C83	C	0.918811	0.007667	0.767848
N84	N	0.876877	0.057657	0.811363
H85	H	1.165745	-0.286686	0.752771
H86	H	0.999915	-0.089031	0.309470
C87	C	0.830423	-0.362787	-0.000030
N88	N	0.911841	-0.386252	-0.000027
C89	C	0.987644	-0.610052	0.103380
N90	N	0.912598	-0.555031	0.109229
H91	H	1.275922	-0.733495	0.068251
C92	C	1.249425	-0.683020	-0.092462
N93	N	1.273434	-0.655742	-0.162082
H94	H	0.961151	-0.568488	-0.098835
H95	H	1.055979	-0.593785	-0.166197
C96	C	1.339707	-0.494079	0.610177
N97	N	1.403939	-0.570656	0.653666
H98	H	1.341238	-0.495903	0.437631
C99	C	1.306841	-0.454928	0.232093
N100	N	1.348769	-0.504915	0.188571
H101	H	1.143335	-0.697612	0.166079
H102	H	1.006386	-0.768858	0.094993
H103	H	0.847272	-0.276992	-0.000020
C104	C	1.037715	-0.134170	0.232186
N105	N	0.973437	-0.057620	0.188700
H106	H	0.884408	0.048658	0.562320
C107	C	0.885898	0.046815	0.389778
N108	N	0.821620	0.123365	0.346293
