data_functionalizedCrystal
_audit_creation_method	'MofGen! by Chris Wilmer'
_symmetry_space_group_name_H-M	'P1'
_symmetry_Int_Tables_number	1
_symmetry_cell_setting	triclinic
loop_
_symmetry_equiv_pos_as_xyz
  x,y,z
_cell_length_a	21.295419
_cell_length_b	21.295416
_cell_length_c	16.959447
_cell_angle_alpha	90.029154
_cell_angle_beta	89.981387
_cell_angle_gamma	89.954868
loop_
_atom_site_label
_atom_site_type_symbol
_atom_site_fract_x
_atom_site_fract_y
_atom_site_fract_z
Zn1	Zn	0.962320	0.250370	-0.446919
Zn2	Zn	0.962233	0.355641	-0.314735
Zn3	Zn	0.857054	0.250416	-0.314754
Zn4	Zn	0.857012	0.355633	-0.446871
O5	O	0.909655	0.303015	-0.380820
O6	O	1.050397	0.264319	-0.429397
O7	O	0.948262	0.341705	-0.204127
O8	O	0.871071	0.162321	-0.332314
O9	O	1.050334	0.341660	-0.332282
O10	O	0.948409	0.162287	-0.429415
O11	O	0.870987	0.264397	-0.204141
O12	O	0.768959	0.264390	-0.332268
O13	O	0.871001	0.341647	-0.557489
O14	O	0.768929	0.341692	-0.429333
O15	O	0.948369	0.264311	-0.557524
O16	O	0.948222	0.443729	-0.332235
O17	O	0.870917	0.443723	-0.429315
C18	C	0.746103	0.303045	-0.380798
C19	C	0.676135	0.303073	-0.380807
C20	C	0.643324	0.262867	-0.431453
C21	C	0.577581	0.262850	-0.431456
C22	C	0.544652	0.303051	-0.380821
C23	C	0.577472	0.343259	-0.330166
C24	C	0.643213	0.343271	-0.330158
N25	N	0.441378	0.358129	-0.374647
N26	N	0.378926	0.358116	-0.374658
C27	C	0.346578	0.303018	-0.380839
N28	N	0.379040	0.247932	-0.387023
N29	N	0.441497	0.247945	-0.387016
C30	C	0.473367	0.303043	-0.380823
C31	C	0.242481	0.262790	-0.431491
C32	C	0.176737	0.262772	-0.431488
C33	C	0.176629	0.343187	-0.330202
C34	C	0.242371	0.343199	-0.330200
C35	C	0.275293	0.303002	-0.380849
C36	C	0.909573	0.466567	-0.380785
C37	C	0.909595	0.536535	-0.380797
C38	C	0.949884	0.569383	-0.330301
C39	C	0.949914	0.635126	-0.330322
C40	C	0.909643	0.668017	-0.380831
C41	C	0.869352	0.635161	-0.431337
C42	C	0.869328	0.569419	-0.431319
N43	N	0.854576	0.771297	-0.386855
N44	N	0.854601	0.833749	-0.386867
C45	C	0.909714	0.866092	-0.380887
N46	N	0.964804	0.833624	-0.374880
N47	N	0.964778	0.771167	-0.374864
C48	C	0.909665	0.739303	-0.380856
C49	C	0.950039	0.970226	-0.330412
C50	C	0.950069	1.035970	-0.330439
C51	C	0.869502	1.036003	-0.431449
C52	C	0.869477	0.970261	-0.431426
C53	C	0.909744	0.937376	-0.380903
C54	C	1.073845	0.302985	-0.380843
C55	C	1.143813	0.302972	-0.380852
C56	C	0.909690	0.302973	-0.586988
C57	C	0.909705	0.302955	-0.674845
C58	C	0.909755	1.138825	-0.380886
C59	C	0.909800	1.068857	-0.380949
C60	C	0.869431	0.343213	-0.716102
C61	C	0.949990	0.262677	-0.716141
C62	C	0.950003	0.262656	-0.798687
C63	C	0.909729	0.302914	-0.839944
C64	C	0.869441	0.343192	-0.798656
C65	C	0.990285	0.222374	-0.839982
C66	C	0.990300	0.222352	-0.922533
C67	C	0.950028	0.262613	-0.963792
C68	C	0.909739	0.302893	-0.922498
C69	C	0.869465	0.343151	-0.963755
C70	C	0.829179	0.383435	-0.922463
C71	C	0.829169	0.383453	-0.839914
C72	C	0.950037	0.262594	-1.046340
C73	C	0.869475	0.343130	-1.046309
C74	C	0.909656	0.303011	-0.175454
C75	C	0.909763	0.302852	-0.087598
H76	H	0.269288	0.230055	-0.472727
O77	O	0.993531	1.071397	-0.275972
H78	H	1.025560	1.101283	-0.311394
H79	H	0.982673	0.542611	-0.289164
O80	O	0.993484	0.219153	-1.090880
H81	H	1.021488	0.191165	-1.048323
O82	O	1.033749	0.178909	-0.967073
H83	H	1.083146	0.189701	-0.951241
O84	O	0.678834	0.219502	-0.486064
H85	H	0.644969	0.191535	-0.521274
H86	H	0.550657	0.375990	-0.288938
H87	H	0.150024	0.230028	-0.472729
H88	H	0.669927	0.376012	-0.288915
H89	H	0.149819	0.375919	-0.288974
H90	H	0.836668	0.943514	-0.472541
H91	H	0.269086	0.375942	-0.288962
H92	H	0.982777	0.229898	-0.682545
H93	H	0.982724	0.661877	-0.289202
O94	O	0.826063	1.071468	-0.485926
H95	H	0.832844	1.122701	-0.477451
O96	O	0.993485	0.934748	-0.275948
H97	H	0.965328	0.904850	-0.235683
H98	H	0.836565	0.661945	-0.472463
O99	O	0.826033	0.386548	-1.090808
H100	H	0.798016	0.414556	-1.048225
H101	H	0.796384	0.416209	-0.956065
O102	O	0.825858	0.533990	-0.485774
H103	H	0.836621	0.546559	-0.547829
O104	O	0.542179	0.219489	-0.486089
H105	H	0.576117	0.191543	-0.521310
H106	H	0.796370	0.416250	-0.806287
O107	O	0.825976	0.386658	-0.671574
H108	H	0.832730	0.379909	-0.607241
H109	H	1.023072	0.189597	-0.806385
