data_functionalizedCrystal
_audit_creation_method	'MofGen! by Chris Wilmer'
_symmetry_space_group_name_H-M	'P1'
_symmetry_Int_Tables_number	1
_symmetry_cell_setting	triclinic
loop_
_symmetry_equiv_pos_as_xyz
  x,y,z
_cell_length_a	13.897449
_cell_length_b	13.897447
_cell_length_c	18.215399
_cell_angle_alpha	90.025056
_cell_angle_beta	90.021193
_cell_angle_gamma	90.020357
loop_
_atom_site_label
_atom_site_type_symbol
_atom_site_fract_x
_atom_site_fract_y
_atom_site_fract_z
Zn1	Zn	1.474669	-0.384003	0.416157
Zn2	Zn	1.974669	0.115997	0.916157
Zn3	Zn	1.474564	-0.545313	0.293097
Zn4	Zn	1.974564	-0.045313	0.793097
Zn5	Zn	1.313365	-0.384036	0.293102
Zn6	Zn	1.813365	0.115964	0.793102
Zn7	Zn	1.313335	-0.545261	0.416119
Zn8	Zn	1.813335	-0.045261	0.916119
O9	O	1.393983	-0.464653	0.354619
O10	O	1.893983	0.035347	0.854619
O11	O	1.609637	-0.405410	0.399847
O12	O	2.109637	0.094590	0.899847
O13	O	1.453149	-0.523955	0.190114
O14	O	1.953149	-0.023955	0.690114
O15	O	1.334818	-0.249050	0.309443
O16	O	1.834818	0.250950	0.809443
O17	O	1.609560	-0.523923	0.309436
O18	O	2.109560	-0.023923	0.809436
O19	O	1.453328	-0.249026	0.399852
O20	O	1.953328	0.250974	0.899852
O21	O	1.334717	-0.405466	0.190117
O22	O	1.834717	0.094534	0.690117
O23	O	1.178379	-0.405415	0.309406
O24	O	1.678379	0.094585	0.809406
O25	O	1.334768	-0.523834	0.519109
O26	O	1.834768	-0.023834	1.019109
O27	O	1.178357	-0.523865	0.399787
O28	O	1.678357	-0.023865	0.899787
O29	O	1.453300	-0.405359	0.519137
O30	O	1.953300	0.094641	1.019137
O31	O	1.453121	-0.680288	0.309399
O32	O	1.953121	-0.180288	0.809399
O33	O	1.334666	-0.680249	0.399782
O34	O	1.834666	-0.180249	0.899782
C35	C	1.143369	-0.464638	0.354593
C36	C	1.643369	0.035362	0.854593
C37	C	1.036155	-0.464655	0.354600
C38	C	1.536155	0.035345	0.854600
C39	C	0.949085	-0.464659	0.354612
C40	C	1.449085	0.035341	0.854612
C41	C	0.839853	-0.464665	0.354634
C42	C	1.339853	0.035335	0.854634
C43	C	1.393905	-0.715268	0.354602
C44	C	1.893905	-0.215268	0.854602
C45	C	1.393960	-0.822482	0.354619
C46	C	1.893960	-0.322482	0.854619
C47	C	1.394006	-0.909551	0.354636
C48	C	1.894006	-0.409551	0.854636
C49	C	1.394074	-1.018784	0.354655
C50	C	1.894074	-0.518784	0.854655
C51	C	1.645576	-0.464669	0.354645
C52	C	2.145576	0.035331	0.854645
C53	C	1.752790	-0.464676	0.354656
C54	C	2.252790	0.035324	0.854656
C55	C	1.394042	-0.464587	0.546572
C56	C	1.894042	0.035413	1.046572
C57	C	1.394067	-0.464558	0.628371
C58	C	1.894067	0.035442	1.128371
C59	C	1.394088	-0.213060	0.354652
C60	C	1.894088	0.286940	0.854652
C61	C	1.394133	-0.105846	0.354666
C62	C	1.894133	0.394154	0.854666
C63	C	1.393980	-0.464650	0.163413
C64	C	1.893980	0.035350	0.663413
C65	C	1.394142	-0.464407	0.081614
C66	C	1.894142	0.035593	0.581614
C67	C	1.455809	-0.402811	0.816581
C68	C	1.955809	0.097189	1.316581
C69	C	1.455820	-0.402783	0.893439
C70	C	1.955820	0.097217	1.393439
C71	C	1.332394	-0.526157	0.893399
C72	C	1.832394	-0.026157	1.393399
C73	C	1.332378	-0.526179	0.816542
C74	C	1.832378	-0.026179	1.316542
C75	C	1.394091	-0.464508	0.778134
C76	C	1.894091	0.035492	1.278134
C77	C	1.394118	-0.464457	0.931851
C78	C	1.894118	0.035543	1.431851
C79	C	1.394130	-0.464427	1.015184
C80	C	1.894130	0.035573	1.515184
C81	C	1.394078	-0.464536	0.694795
C82	C	1.894078	0.035464	1.194795
H83	H	1.506057	-0.352591	0.785312
H84	H	2.006057	0.147409	1.285312
F85	F	1.521515	-0.337123	0.934353
F86	F	2.021515	0.162877	1.434353
H87	H	1.282113	-0.576420	0.785238
H88	H	1.782113	-0.076420	1.285238
H89	H	1.282151	-0.576370	0.924680
H90	H	1.782151	-0.076370	1.424680
