data_functionalizedCrystal
_audit_creation_method	'MofGen! by Chris Wilmer'
_symmetry_space_group_name_H-M	'P1'
_symmetry_Int_Tables_number	1
_symmetry_cell_setting	triclinic
loop_
_symmetry_equiv_pos_as_xyz
  x,y,z
_cell_length_a	6.817900
_cell_length_b	7.190401
_cell_length_c	12.850268
_cell_angle_alpha	94.835983
_cell_angle_beta	91.777450
_cell_angle_gamma	119.389243
loop_
_atom_site_label
_atom_site_type_symbol
_atom_site_fract_x
_atom_site_fract_y
_atom_site_fract_z
V1	V	4.161874	0.655563	0.141778
O2	O	4.210411	0.652906	-0.008527
O3	O	4.051304	0.641633	0.282770
O4	O	4.200305	0.945787	0.138845
O5	O	4.060378	0.346647	0.136394
V6	V	4.642307	0.619762	0.123888
O7	O	4.429912	0.734096	0.181019
O8	O	4.824466	0.541229	0.084647
O9	O	4.529670	0.633692	-0.017104
O10	O	4.711167	0.622419	0.274193
O11	O	4.861200	0.928678	0.129272
O12	O	4.380669	0.329538	0.126821
C13	C	3.878389	0.628863	0.317165
C14	C	3.869692	0.619235	0.434590
C15	C	4.365956	0.646467	-0.051493
C16	C	4.353525	0.656145	-0.168914
C17	C	4.182851	1.258485	0.132100
C18	C	4.068430	1.016826	0.133582
V19	V	4.129488	0.623031	0.625547
O20	O	4.172348	0.630800	0.778471
O21	O	4.036810	0.625559	0.478729
O22	O	3.887096	0.321339	0.622621
O23	O	4.323098	0.937126	0.633583
V24	V	4.668807	0.716150	0.672672
O25	O	4.337991	0.571290	0.599964
O26	O	4.934217	0.819835	0.724747
O27	O	4.526520	0.687867	0.806354
O28	O	4.749528	0.721925	0.526656
O29	O	4.598778	0.415599	0.671544
O30	O	4.676234	0.992087	0.662463
C31	C	4.530213	1.043425	0.647143
C32	C	4.622962	1.282684	0.644462
