data_functionalizedCrystal
_audit_creation_method	'MofGen! by Chris Wilmer'
_symmetry_space_group_name_H-M	'P1'
_symmetry_Int_Tables_number	1
_symmetry_cell_setting	triclinic
loop_
_symmetry_equiv_pos_as_xyz
  x,y,z
_cell_length_a	14.971486
_cell_length_b	13.262076
_cell_length_c	14.048226
_cell_angle_alpha	105.929439
_cell_angle_beta	89.998499
_cell_angle_gamma	95.961855
loop_
_atom_site_label
_atom_site_type_symbol
_atom_site_fract_x
_atom_site_fract_y
_atom_site_fract_z
O1	O	1.187327	-0.136795	-0.114480
O2	O	0.926972	-0.153176	-0.118749
O3	O	1.063705	0.007811	-0.077034
O4	O	1.050594	-0.297783	-0.156195
O5	O	1.063688	0.007821	0.081290
O6	O	0.926955	-0.153167	0.039575
O7	O	1.187310	-0.136786	0.043844
Zn8	Zn	1.057130	-0.144975	0.066847
Zn9	Zn	1.057152	-0.144987	-0.141752
O10	O	1.050577	-0.297773	0.002129
C11	C	0.893637	-0.152439	-0.039400
C12	C	0.794334	-0.150244	-0.038841
C13	C	0.737371	-0.244820	-0.063339
C14	C	0.644066	-0.242751	-0.062789
C15	C	0.607725	-0.146104	-0.037748
C16	C	0.664695	-0.051521	-0.013245
C17	C	0.757999	-0.053591	-0.013789
C18	C	0.470221	-0.047213	-0.012116
C19	C	0.376911	-0.045142	-0.011574
C20	C	0.356288	-0.236372	-0.061116
C21	C	0.449591	-0.238442	-0.061660
C22	C	0.506555	-0.143859	-0.037159
C23	C	1.062964	0.046924	0.012256
C24	C	1.060770	0.163455	0.042435
C25	C	1.059719	0.218225	0.142916
C26	C	1.057647	0.327710	0.171255
C27	C	1.056619	0.382434	0.099115
C28	C	1.057663	0.327663	-0.001368
C29	C	1.059742	0.218169	-0.029709
C30	C	1.056643	0.382378	-0.073510
C31	C	1.057687	0.327607	-0.173993
C32	C	1.059765	0.218124	-0.202329
C33	C	1.060793	0.163399	-0.130190
C34	C	1.054563	0.491873	-0.045168
C35	C	1.054587	0.491817	-0.217793
C36	C	1.056659	0.382332	-0.246132
C37	C	1.220645	-0.137523	-0.035507
C38	C	1.319948	-0.139718	-0.036072
N39	N	1.057122	-0.144966	0.209210
C40	C	1.051324	0.663114	-0.087154
C41	C	1.053536	0.546587	-0.117313
N42	N	1.057167	-0.144988	-0.284113
C43	C	1.117686	-0.073710	0.277491
C44	C	1.117692	-0.073709	0.377149
C45	C	1.057137	-0.144970	0.408522
C46	C	0.996566	-0.216230	0.340233
C47	C	0.996557	-0.216224	0.240578
C48	C	0.996592	-0.216237	0.547945
C49	C	0.996603	-0.216244	0.647606
C50	C	1.117728	-0.073722	0.684516
C51	C	1.117718	-0.073717	0.584862
C52	C	1.057148	-0.144978	0.516578
H53	H	0.804378	0.023422	0.006159
C54	C	1.056538	0.387961	0.281780
C55	C	1.057698	0.327778	0.361135
C56	C	1.056608	0.388033	0.471668
C57	C	1.054359	0.508472	0.502846
C58	C	1.053199	0.568661	0.423490
C59	C	1.054289	0.508406	0.312957
H60	H	1.059363	0.238616	0.338056
H61	H	1.057467	0.343476	0.530412
H62	H	1.053553	0.553076	0.584669
H63	H	1.051534	0.657823	0.446568
H64	H	1.053430	0.552963	0.254212
H65	H	1.167045	-0.015699	0.740118
H66	H	1.062481	0.074248	-0.153258
H67	H	1.057509	0.337722	-0.327947
C68	C	0.929985	-0.294626	0.682114
C69	C	0.965222	-0.374987	0.729792
C70	C	0.898602	-0.453371	0.764298
C71	C	0.796745	-0.451393	0.751127
C72	C	0.761503	-0.371029	0.703447
C73	C	0.828123	-0.292646	0.668941
H74	H	1.040627	-0.376454	0.739544
H75	H	0.924691	-0.512862	0.799594
H76	H	0.747429	-0.509418	0.776670
H77	H	0.686098	-0.369563	0.693695
H78	H	0.802034	-0.233155	0.633645
C79	C	1.184299	0.004681	0.242987
C80	C	1.250914	0.083065	0.318103
C81	C	1.317527	0.161461	0.283603
C82	C	1.317524	0.161472	0.173989
C83	C	1.250906	0.083085	0.098867
C84	C	1.184294	0.004689	0.133366
H85	H	1.250919	0.083059	0.399252
H86	H	1.366842	0.219488	0.339214
H87	H	1.366835	0.219505	0.148450
H88	H	1.250902	0.083091	0.017717
H89	H	1.134979	-0.053338	0.077755
C90	C	0.929936	-0.294610	0.165464
C91	C	0.863358	-0.373033	0.199960
C92	C	0.796731	-0.451417	0.124848
C93	C	0.796684	-0.451377	0.015240
C94	C	0.863264	-0.372951	-0.019260
C95	C	0.929891	-0.294567	0.055852
H96	H	0.863391	-0.373065	0.281102
H97	H	0.747444	-0.509473	0.150388
H98	H	0.747363	-0.509402	-0.040362
H99	H	0.863231	-0.372919	-0.100403
H100	H	0.979178	-0.236511	0.030311
C101	C	1.060853	0.158026	0.222258
C102	C	0.984704	0.070919	0.223431
C103	C	0.985840	0.010718	0.302779
C104	C	1.063124	0.037623	0.380954
C105	C	1.139278	0.124734	0.379783
C106	C	1.138142	0.184936	0.300436
H107	H	0.927488	0.050998	0.165559
H108	H	0.929465	-0.053768	0.303645
H109	H	1.063964	-0.006941	0.439692
H110	H	1.196493	0.144655	0.437656
H111	H	1.194517	0.249421	0.299570
H112	H	0.766951	-0.323520	-0.083731
H113	H	1.060626	0.173534	-0.284148
C114	C	1.053406	0.552113	0.065356
C115	C	0.976102	0.525237	0.129583
C116	C	0.974942	0.585476	0.240115
C117	C	1.051085	0.672591	0.286419
C118	C	1.128395	0.699471	0.222191
C119	C	1.129555	0.639231	0.111660
H120	H	0.919731	0.460746	0.095307
H121	H	0.917712	0.565578	0.287660
H122	H	1.050226	0.717184	0.368241
H123	H	1.184766	0.763962	0.256468
H124	H	1.186785	0.659130	0.064114
H125	H	0.597689	-0.319764	-0.082738
C126	C	1.184328	0.004668	0.550345
C127	C	1.182395	0.124207	0.595016
C128	C	1.249003	0.202594	0.560499
C129	C	1.317543	0.161441	0.481312
C130	C	1.319478	0.041896	0.436636
C131	C	1.252870	-0.036491	0.471153
H132	H	1.131655	0.154676	0.653639
H133	H	1.247570	0.291089	0.593571
H134	H	1.366850	0.219468	0.455760
H135	H	1.370218	0.011426	0.378013
H136	H	1.254303	-0.124987	0.438081
C137	C	0.489564	-0.344755	-0.089204
C138	C	0.468231	-0.423343	-0.027347
C139	C	0.508202	-0.529658	-0.054889
C140	C	0.569505	-0.557385	-0.144287
C141	C	0.590841	-0.478794	-0.206150
C142	C	0.550870	-0.372479	-0.178609
H143	H	0.422848	-0.402820	0.038836
H144	H	0.492408	-0.587836	-0.009093
H145	H	0.599094	-0.636085	-0.164675
H146	H	0.636224	-0.499317	-0.272334
H147	H	0.566664	-0.314302	-0.224404
H148	H	0.309903	-0.313386	-0.081061
H149	H	0.347326	0.033555	0.008818
C150	C	0.532885	0.056828	0.014832
C151	C	0.528572	0.136002	0.117551
C152	C	0.591236	0.240039	0.144493
C153	C	0.658214	0.264901	0.068716
C154	C	0.662529	0.185725	-0.034010
C155	C	0.599865	0.081688	-0.060952
H156	H	0.478989	0.117599	0.173652
H157	H	0.588041	0.298650	0.220538
H158	H	0.704602	0.341915	0.088660
H159	H	0.712112	0.204128	-0.090110
H160	H	0.603060	0.023077	-0.136996
H161	H	1.167008	-0.015687	0.432745
H162	H	0.635100	0.027170	0.007157
H163	H	1.054932	0.471582	0.122195
H164	H	1.053752	0.536373	-0.276536
H165	H	0.947267	-0.274262	0.492351
H166	H	0.947257	-0.274248	0.365783
