data_functionalizedCrystal
_audit_creation_method	'MofGen! by Chris Wilmer'
_symmetry_space_group_name_H-M	'P1'
_symmetry_Int_Tables_number	1
_symmetry_cell_setting	triclinic
loop_
_symmetry_equiv_pos_as_xyz
  x,y,z
_cell_length_a	16.625548
_cell_length_b	12.759400
_cell_length_c	16.625539
_cell_angle_alpha	90.025767
_cell_angle_beta	89.979432
_cell_angle_gamma	89.984247
loop_
_atom_site_label
_atom_site_type_symbol
_atom_site_fract_x
_atom_site_fract_y
_atom_site_fract_z
Zn1	Zn	1.232724	0.418234	-0.455924
Zn2	Zn	1.232646	0.593936	-0.321097
Zn3	Zn	1.097886	0.418274	-0.321104
Zn4	Zn	1.097875	0.593875	-0.455887
O5	O	1.165283	0.506080	-0.388503
O6	O	1.345546	0.441550	-0.438051
O7	O	1.214741	0.570676	-0.208265
O8	O	1.115810	0.271248	-0.339007
O9	O	1.345488	0.570637	-0.338994
O10	O	1.214875	0.271219	-0.438058
O11	O	1.115734	0.441618	-0.208271
O12	O	0.985052	0.441560	-0.338971
O13	O	1.115791	0.570534	-0.568724
O14	O	0.985044	0.570573	-0.437995
O15	O	1.214864	0.441492	-0.568751
O16	O	1.214730	0.740949	-0.338958
O17	O	1.115715	0.740904	-0.437988
C18	C	1.165235	0.779047	-0.388486
C19	C	1.165288	0.895824	-0.388506
C20	C	0.955792	0.506065	-0.388480
C21	C	0.866171	0.506084	-0.388490
C22	C	1.165335	0.506002	-0.598812
C23	C	1.165357	0.505968	-0.688433
C24	C	0.537995	0.506091	-0.388524
C25	C	0.629303	0.506086	-0.388512
C26	C	0.702080	0.506088	-0.388506
C27	C	0.793394	0.506082	-0.388495
C28	C	1.375591	0.506096	-0.388526
C29	C	1.465213	0.506103	-0.388536
C30	C	1.165353	0.232047	-0.388537
C31	C	1.165382	0.115270	-0.388552
C32	C	1.216903	0.950674	-0.336998
C33	C	1.216952	1.060398	-0.337023
C34	C	1.113765	1.060412	-0.440065
C35	C	1.113721	0.950690	-0.440044
C36	C	1.268470	0.895808	-0.285460
C37	C	1.320088	0.950658	-0.233947
C38	C	1.320138	1.060382	-0.233972
C39	C	1.268569	1.115256	-0.285510
C40	C	1.165394	0.505851	-1.016609
C41	C	1.165382	0.505887	-0.925300
C42	C	1.165376	0.505910	-0.852524
C43	C	1.165363	0.505945	-0.761209
C44	C	1.165277	0.506082	-0.179012
C45	C	1.165411	0.505819	-0.089391
H46	H	1.268433	0.806465	-0.285432
O47	O	1.375807	1.119548	-0.178417
H48	H	1.411651	1.062959	-0.142574
H49	H	1.071692	0.906031	-0.481987
O50	O	1.058143	1.119590	-0.495646
H51	H	0.994862	1.098599	-0.481757
O52	O	1.375722	0.891483	-0.178376
H53	H	1.367017	0.805971	-0.187010
O54	O	1.268618	1.233602	-0.285539
H55	H	1.313170	1.262528	-0.241061
