data_functionalizedCrystal
_audit_creation_method	'MofGen! by Chris Wilmer'
_symmetry_space_group_name_H-M	'P1'
_symmetry_Int_Tables_number	1
_symmetry_cell_setting	triclinic
loop_
_symmetry_equiv_pos_as_xyz
  x,y,z
_cell_length_a	17.699083
_cell_length_b	15.995350
_cell_length_c	16.776229
_cell_angle_alpha	89.995580
_cell_angle_beta	89.998886
_cell_angle_gamma	83.387695
loop_
_atom_site_label
_atom_site_type_symbol
_atom_site_fract_x
_atom_site_fract_y
_atom_site_fract_z
O1	O	1.004255	0.105885	-0.066173
O2	O	1.337588	0.439219	0.267161
O3	O	1.670921	0.772552	0.600494
O4	O	0.783899	0.119661	-0.066198
O5	O	1.117232	0.452994	0.267135
O6	O	1.450566	0.786328	0.600469
O7	O	0.900100	-0.009127	-0.066184
O8	O	1.233434	0.324207	0.267149
O9	O	1.566767	0.657540	0.600483
O10	O	0.888053	0.234673	-0.066187
O11	O	1.221387	0.568006	0.267147
O12	O	1.554720	0.901340	0.600480
O13	O	0.900085	-0.009135	0.066393
O14	O	1.233418	0.324199	0.399726
O15	O	1.566752	0.657532	0.733059
O16	O	0.783884	0.119653	0.066378
O17	O	1.117217	0.452986	0.399712
O18	O	1.450550	0.786320	0.733045
O19	O	1.004239	0.105877	0.066404
O20	O	1.337572	0.439211	0.399737
O21	O	1.670906	0.772544	0.733071
Zn22	Zn	0.894059	0.112764	0.087441
Zn23	Zn	1.227392	0.446097	0.420774
Zn24	Zn	1.560726	0.779431	0.754107
Zn25	Zn	0.894079	0.112774	-0.087235
Zn26	Zn	1.227413	0.446108	0.246099
Zn27	Zn	1.560746	0.779441	0.579432
O28	O	0.888038	0.234665	0.066390
O29	O	1.221371	0.567998	0.399723
O30	O	1.554704	0.901332	0.733056
C31	C	0.755694	0.119163	0.000087
C32	C	1.089027	0.452497	0.333420
C33	C	1.422360	0.785830	0.666753
C34	C	0.671673	0.117683	0.000077
C35	C	1.005006	0.451016	0.333410
C36	C	1.338340	0.784349	0.666744
C37	C	0.623178	0.193278	0.000076
C38	C	0.956511	0.526612	0.333410
C39	C	1.289844	0.859945	0.666743
C40	C	0.544232	0.191882	0.000087
C41	C	0.877565	0.525215	0.333420
C42	C	1.210899	0.858549	0.666753
C43	C	0.513783	0.114889	0.000092
C44	C	0.847117	0.448222	0.333425
C45	C	1.180450	0.781556	0.666759
C46	C	0.562285	0.039287	0.000095
C47	C	0.895618	0.372621	0.333428
C48	C	1.228951	0.705954	0.666762
C49	C	0.641229	0.040685	0.000090
C50	C	0.974562	0.374018	0.333424
C51	C	1.307895	0.707351	0.666757
C52	C	0.243912	0.033651	0.000115
C53	C	0.577246	0.366984	0.333448
C54	C	0.910579	0.700317	0.666781
C55	C	0.164962	0.032259	0.000117
C56	C	0.498295	0.365592	0.333450
C57	C	0.831629	0.698926	0.666784
C58	C	0.146916	0.184848	0.000111
C59	C	0.480249	0.518181	0.333444
C60	C	0.813582	0.851515	0.666778
C61	C	0.225860	0.186245	0.000106
C62	C	0.559193	0.519579	0.333440
C63	C	0.892526	0.852912	0.666773
C64	C	0.274354	0.110644	0.000114
C65	C	0.607688	0.443977	0.333447
C66	C	0.941021	0.777311	0.666780
C67	C	0.359956	0.112159	0.000104
C68	C	0.693289	0.445492	0.333437
C69	C	1.026623	0.778826	0.666771
C70	C	0.428183	0.113373	0.000096
C71	C	0.761516	0.446706	0.333429
C72	C	1.094850	0.780040	0.666763
C73	C	0.899595	-0.040324	0.000103
C74	C	1.232928	0.293009	0.333436
C75	C	1.566261	0.626342	0.666769
C76	C	0.898101	-0.133272	0.000098
C77	C	1.231435	0.200062	0.333431
C78	C	1.564768	0.533395	0.666765
C79	C	0.892739	-0.471008	0.000100
C80	C	1.226073	-0.137675	0.333433
C81	C	1.559406	0.195658	0.666767
C82	C	0.809983	-0.423406	-0.000207
C83	C	1.143316	-0.090073	0.333127
C84	C	1.476649	0.243261	0.666460
C85	C	0.811476	-0.326719	0.000092
C86	C	1.144810	0.006615	0.333426
C87	C	1.478143	0.339948	0.666759
C88	C	0.895399	-0.303453	0.000099
C89	C	1.228732	0.029880	0.333432
C90	C	1.562066	0.363213	0.666765
C91	C	0.936209	-0.344618	0.075810
C92	C	1.269542	-0.011285	0.409143
C93	C	1.602875	0.322048	0.742476
C94	C	0.934130	-0.441250	0.075873
C95	C	1.267463	-0.107917	0.409206
C96	C	1.600796	0.225417	0.742540
C97	C	0.935857	-0.441602	-0.074891
C98	C	1.269190	-0.108269	0.258442
C99	C	1.602523	0.225064	0.591775
C100	C	0.935837	-0.344657	-0.075892
C101	C	1.269171	-0.011324	0.257442
C102	C	1.602504	0.322010	0.590775
C103	C	0.896907	-0.208759	0.000101
C104	C	1.230240	0.124574	0.333434
C105	C	1.563573	0.457908	0.666767
C106	C	0.891234	-0.565703	0.000104
C107	C	1.224567	-0.232370	0.333437
C108	C	1.557901	0.100964	0.666770
C109	C	1.032445	0.106375	0.000117
C110	C	1.365778	0.439708	0.333451
C111	C	1.699111	0.773042	0.666784
C112	C	1.116465	0.107856	0.000122
C113	C	1.449799	0.441189	0.333455
C114	C	1.783132	0.774522	0.666789
C115	C	0.888544	0.265863	0.000101
C116	C	1.221877	0.599196	0.333435
C117	C	1.555210	0.932529	0.666768
C118	C	0.890037	0.358810	0.000101
C119	C	1.223370	0.692143	0.333434
C120	C	1.556703	1.025477	0.666767
N121	N	0.894051	0.112756	0.206652
N122	N	1.227384	0.446090	0.539985
N123	N	1.560717	0.779423	0.873318
N124	N	0.894094	0.112775	-0.206446
N125	N	1.227427	0.446109	0.126887
N126	N	1.560760	0.779442	0.460221
C127	C	0.945520	0.055752	0.248375
C128	C	1.278854	0.389086	0.581708
C129	C	1.612187	0.722419	0.915042
C130	C	0.945524	0.055752	0.331827
C131	C	1.278858	0.389085	0.665161
C132	C	1.612191	0.722418	0.998494
C133	C	0.894062	0.112760	0.373555
C134	C	1.227395	0.446093	0.706888
C135	C	1.560729	0.779426	1.040221
C136	C	0.842587	0.169766	0.331825
C137	C	1.175920	0.503100	0.665159
C138	C	1.509254	0.836433	0.998492
C139	C	0.842580	0.169762	0.248375
C140	C	1.175913	0.503096	0.581708
C141	C	1.509246	0.836429	0.915041
C142	C	0.842614	0.169783	0.668373
C143	C	1.175948	0.503116	1.001706
C144	C	1.509281	0.836449	1.335039
C145	C	0.842627	0.169784	0.751829
C146	C	1.175960	0.503117	1.085162
C147	C	1.509294	0.836451	1.418496
C148	C	0.945559	0.055772	0.751825
C149	C	1.278892	0.389105	1.085159
C150	C	1.612226	0.722439	1.418492
C151	C	0.945552	0.055768	0.668375
C152	C	1.278885	0.389102	1.001708
C153	C	1.612218	0.722435	1.335041
C154	C	0.894074	0.112771	0.626653
C155	C	1.227408	0.446105	0.959986
C156	C	1.560741	0.779438	1.293319
C157	C	0.894069	0.112770	0.536164
C158	C	1.227403	0.446104	0.869498
C159	C	1.560736	0.779437	1.202831
C160	C	0.894070	0.112765	0.464041
C161	C	1.227403	0.446099	0.797375
C162	C	1.560737	0.779432	1.130708
H163	H	0.140174	-0.030442	0.000122
H164	H	0.473508	0.302892	0.333456
H165	H	0.806841	0.636225	0.666789
O166	O	0.898649	-0.306960	0.150439
O167	O	1.231982	0.026373	0.483772
O168	O	1.565315	0.359706	0.817105
H169	H	0.940925	-0.276988	0.186183
H170	H	1.274258	0.056346	0.519516
H171	H	1.607591	0.389679	0.852849
O172	O	0.296210	-0.047888	0.000124
O173	O	0.629543	0.285445	0.333457
O174	O	0.962876	0.618778	0.666791
H175	H	0.285389	-0.084738	-0.053912
H176	H	0.618722	0.248595	0.279421
H177	H	0.952056	0.581929	0.612754
H178	H	0.800717	0.216208	0.785802
H179	H	1.134051	0.549542	1.119135
H180	H	1.467384	0.882875	1.452469
H181	H	0.908806	-0.462084	-0.132275
H182	H	1.242140	-0.128750	0.201058
H183	H	1.575473	0.204583	0.534391
H184	H	0.537487	-0.023402	0.000111
H185	H	0.870821	0.309932	0.333444
H186	H	1.204154	0.643265	0.666777
O187	O	0.896377	-0.308413	-0.150091
O188	O	1.229710	0.024921	0.183243
O189	O	1.563043	0.358254	0.516576
H190	H	0.848166	-0.261245	-0.132928
H191	H	1.181499	0.072088	0.200405
H192	H	1.514833	0.405422	0.533738
H193	H	0.800701	0.216198	0.634409
H194	H	1.134034	0.549531	0.967742
H195	H	1.467368	0.882865	1.301076
O196	O	0.894688	-0.465417	0.150830
O197	O	1.228022	-0.132084	0.484163
O198	O	1.561355	0.201249	0.817496
H199	H	0.934238	-0.509857	0.186162
H200	H	1.267572	-0.176523	0.519496
H201	H	1.600905	0.156810	0.852829
O202	O	1.017876	-0.326066	0.079559
O203	O	1.351209	0.007267	0.412893
O204	O	1.684542	0.340601	0.746226
H205	H	1.048610	-0.351784	0.025637
H206	H	1.381944	-0.018451	0.358970
H207	H	1.715277	0.314882	0.692303
O208	O	0.766164	-0.447854	-0.072120
O209	O	1.099497	-0.114520	0.261213
O210	O	1.432831	0.218813	0.594546
H211	H	0.715043	-0.476277	-0.052177
H212	H	1.048377	-0.142944	0.281156
H213	H	1.381710	0.190389	0.614490
O214	O	0.693541	-0.040850	0.000088
O215	O	1.026874	0.292484	0.333422
O216	O	1.360207	0.625817	0.666755
H217	H	0.659107	-0.094623	0.000086
H218	H	0.992440	0.238710	0.333419
H219	H	1.325773	0.572043	0.666752
H220	H	0.987473	0.009354	0.785804
H221	H	1.320806	0.342688	1.119137
H222	H	1.654139	0.676021	1.452471
O223	O	0.094612	0.266395	0.000120
O224	O	0.427945	0.599728	0.333454
O225	O	0.761278	0.933061	0.666787
H226	H	0.034601	0.252493	0.000137
H227	H	0.367934	0.585827	0.333470
H228	H	0.701267	0.919160	0.666803
H229	H	0.250646	0.248941	0.000098
H230	H	0.583980	0.582274	0.333432
H231	H	0.917313	0.915607	0.666765
O232	O	0.787067	0.231238	0.203359
O233	O	1.120401	0.564572	0.536693
O234	O	1.453734	0.897905	0.870026
H235	H	0.796707	0.296504	0.219353
H236	H	1.130040	0.629837	0.552686
H237	H	1.463373	0.963171	0.886019
H238	H	0.779397	-0.298228	-0.054181
H239	H	1.112730	0.035105	0.279153
H240	H	1.446063	0.368438	0.612486
O241	O	0.787081	0.231260	0.376825
O242	O	1.120415	0.564593	0.710159
O243	O	1.453748	0.897926	1.043492
H244	H	0.795739	0.221694	0.441864
H245	H	1.129072	0.555027	0.775197
H246	H	1.462405	0.888361	1.108531
O247	O	0.768687	-0.289714	0.072096
O248	O	1.102020	0.043620	0.405429
O249	O	1.435354	0.376953	0.738763
H250	H	0.807524	-0.257019	0.109944
H251	H	1.140857	0.076314	0.443277
H252	H	1.474191	0.409647	0.776610
H253	H	0.647962	0.255975	0.000071
H254	H	0.981296	0.589308	0.333405
H255	H	1.314629	0.922642	0.666738
H256	H	0.777046	-0.442936	0.053777
H257	H	1.110380	-0.109603	0.387111
H258	H	1.443713	0.223730	0.720444
O259	O	1.014604	-0.484142	0.080454
O260	O	1.347937	-0.150809	0.413788
O261	O	1.681271	0.182524	0.747121
H262	H	1.047321	-0.465691	0.028140
H263	H	1.380654	-0.132358	0.361473
H264	H	1.713988	0.200976	0.694806
O265	O	0.491923	0.273416	0.000086
O266	O	0.825257	0.606750	0.333420
O267	O	1.158590	0.940083	0.666753
H268	H	0.526359	0.327189	0.000072
H269	H	0.859693	0.660522	0.333406
H270	H	1.193026	0.993855	0.666739
O271	O	1.016908	-0.324484	-0.081947
O272	O	1.350242	0.008849	0.251387
O273	O	1.683575	0.342182	0.584720
H274	H	1.029704	-0.284603	-0.030657
H275	H	1.363037	0.048731	0.302677
H276	H	1.696371	0.382064	0.636010
H277	H	0.996873	-0.473487	-0.075395
H278	H	1.330206	-0.140154	0.257938
H279	H	1.663539	0.193179	0.591271
H280	H	0.987430	0.009334	0.214406
H281	H	1.320763	0.342667	0.547740
H282	H	1.654097	0.676000	0.881073
O283	O	1.001051	-0.005715	0.376832
O284	O	1.334384	0.327618	0.710166
O285	O	1.667718	0.660951	1.043499
H286	H	1.036846	-0.045344	0.333797
H287	H	1.370179	0.287989	0.667130
H288	H	1.703512	0.621322	1.000464
H289	H	0.987460	0.009350	0.634403
H290	H	1.320793	0.342683	0.967736
H291	H	1.654126	0.676017	1.301069
