data_functionalizedCrystal
_audit_creation_method	'MofGen! by Chris Wilmer'
_symmetry_space_group_name_H-M	'P1'
_symmetry_Int_Tables_number	1
_symmetry_cell_setting	triclinic
loop_
_symmetry_equiv_pos_as_xyz
  x,y,z
_cell_length_a	27.732066
_cell_length_b	9.730223
_cell_length_c	10.654546
_cell_angle_alpha	90.002162
_cell_angle_beta	83.566812
_cell_angle_gamma	90.005677
loop_
_atom_site_label
_atom_site_type_symbol
_atom_site_fract_x
_atom_site_fract_y
_atom_site_fract_z
O1	O	-0.641851	0.113999	-0.149523
O2	O	-0.501200	0.114060	-0.172218
O3	O	-0.574760	0.114036	0.022005
O4	O	-0.568291	0.114023	-0.343745
O5	O	-0.574756	-0.114544	0.022004
O6	O	-0.501195	-0.114520	-0.172218
O7	O	-0.641846	-0.114581	-0.149523
Zn8	Zn	-0.571520	-0.150842	-0.160871
Zn9	Zn	-0.571526	0.150321	-0.160870
O10	O	-0.568286	-0.114557	-0.343746
C11	C	-0.483188	-0.000222	-0.171738
C12	C	-0.429525	-0.000198	-0.170293
C13	C	-0.051677	-0.000252	-0.045679
C14	C	-0.253370	-0.000227	-0.050997
O15	O	-0.284021	-0.000276	0.045694
N16	N	-0.273214	-0.000226	-0.166169
C17	C	-0.242631	-0.000240	-0.280018
O18	O	-0.264138	-0.000253	-0.378101
C19	C	-0.040939	-0.000276	-0.274698
C20	C	-0.021098	-0.000263	-0.159520
C21	C	-0.031835	-0.000241	0.069491
C22	C	0.018585	-0.000240	0.070819
C23	C	0.049164	-0.000250	-0.043022
C24	C	0.029322	-0.000262	-0.158191
C25	C	-0.010358	-0.000300	-0.388547
C26	C	0.040068	-0.000312	-0.387206
C27	C	0.059909	-0.000299	-0.272028
C28	C	0.110321	-0.000271	-0.270704
N29	N	0.130166	-0.000272	-0.155532
C30	C	0.099587	-0.000261	-0.041691
C31	C	-0.348523	-0.000219	-0.282803
C32	C	-0.398946	-0.000208	-0.284134
C33	C	-0.409681	-0.000197	-0.055112
C34	C	-0.359257	-0.000198	-0.053783
C35	C	-0.328679	-0.000220	-0.167632
C36	C	0.205474	-0.000258	-0.038910
C37	C	0.255899	-0.000251	-0.037592
C38	C	0.266629	-0.000269	-0.266613
C39	C	0.216209	-0.000269	-0.267932
C40	C	0.185631	-0.000268	-0.154070
O41	O	0.141001	-0.000237	-0.367344
O42	O	0.121103	-0.000279	0.056377
C43	C	-0.102097	-0.000253	-0.047007
C44	C	-0.121939	-0.000265	-0.162176
C45	C	-0.091360	-0.000275	-0.276017
C46	C	-0.172361	-0.000254	-0.163507
C47	C	-0.202940	-0.000243	-0.049666
C48	C	-0.183096	-0.000244	0.065505
C49	C	-0.132676	-0.000243	0.066834
C50	C	-0.111204	-0.000274	-0.391189
C51	C	-0.161625	-0.000274	-0.392508
C52	C	-0.192204	-0.000264	-0.278667
N53	N	-0.571520	-0.356379	-0.160871
C54	C	-0.574283	-0.000249	0.068783
C55	C	-0.572863	-0.000233	0.208167
C56	C	0.340141	-0.000284	-0.149999
C57	C	0.286478	-0.000261	-0.151433
C58	C	-0.604106	-0.572200	-0.074889
C59	C	-0.604102	-0.428317	-0.074897
C60	C	-0.538942	-0.428331	-0.246851
C61	C	-0.538949	-0.572212	-0.246848
C62	C	-0.636688	-0.644130	0.011099
C63	C	-0.669266	-0.572187	0.097077
C64	C	-0.669262	-0.428304	0.097070
C65	C	-0.636680	-0.356364	0.011083
N66	N	-0.571531	0.355858	-0.160860
C67	C	-0.616174	-0.000251	0.289466
C68	C	-0.614837	-0.000231	0.420431
C69	C	-0.526874	-0.000182	0.388785
C70	C	-0.528212	-0.000192	0.257822
C71	C	-0.660825	-0.000292	0.239810
C72	C	-0.704140	-0.000311	0.321111
C73	C	-0.702803	-0.000292	0.452076
C74	C	-0.658151	-0.000253	0.501740
C75	C	-0.568764	-0.000251	0.609477
C76	C	-0.570188	-0.000204	0.470094
H77	H	0.034735	-0.000235	0.164610
H78	H	-0.026503	-0.000305	-0.482337
H79	H	-0.512415	-0.369748	-0.316857
H80	H	0.064963	-0.000337	-0.479918
H81	H	-0.056728	-0.000237	0.162199
H82	H	-0.695796	-0.630768	0.167078
H83	H	-0.740494	-0.000309	0.280665
H84	H	-0.695791	-0.369730	0.167068
H85	H	-0.490520	-0.000152	0.429232
H86	H	-0.086311	-0.000285	-0.483894
H87	H	-0.636682	-0.239205	0.011075
H88	H	0.200053	-0.000278	-0.361719
H89	H	-0.636693	-0.761286	0.011115
H90	H	0.291536	-0.000271	-0.359299
H91	H	-0.661919	-0.000312	0.133174
H92	H	-0.657065	-0.000222	0.608382
H93	H	-0.738071	-0.000294	0.518268
H94	H	0.272051	-0.000237	0.056205
H95	H	-0.492944	-0.000179	0.191626
H96	H	-0.343106	-0.000189	0.040005
H97	H	-0.434587	-0.000183	0.037581
H98	H	-0.415096	-0.000199	-0.377924
H99	H	0.180583	-0.000256	0.053807
H100	H	-0.116526	-0.000233	0.160624
H101	H	-0.323630	-0.000235	-0.375518
H102	H	-0.208002	-0.000228	0.158199
H103	H	-0.177774	-0.000275	-0.486307
H104	H	-0.512423	-0.630788	-0.316854
