data_functionalizedCrystal
_audit_creation_method	'MofGen! by Chris Wilmer'
_symmetry_space_group_name_H-M	'P1'
_symmetry_Int_Tables_number	1
_symmetry_cell_setting	triclinic
loop_
_symmetry_equiv_pos_as_xyz
  x,y,z
_cell_length_a	17.699097
_cell_length_b	14.519731
_cell_length_c	16.176319
_cell_angle_alpha	89.992219
_cell_angle_beta	89.988988
_cell_angle_gamma	83.488642
loop_
_atom_site_label
_atom_site_type_symbol
_atom_site_fract_x
_atom_site_fract_y
_atom_site_fract_z
O1	O	1.004414	0.116682	-0.068817
O2	O	1.504414	0.616682	0.431183
O3	O	0.784081	0.131842	-0.068804
O4	O	1.284081	0.631842	0.431196
O5	O	0.900081	-0.010000	-0.068803
O6	O	1.400081	0.490000	0.431197
O7	O	0.888414	0.258523	-0.068818
O8	O	1.388414	0.758523	0.431182
O9	O	0.900065	-0.010009	0.068690
O10	O	1.400065	0.489991	0.568690
O11	O	0.784065	0.131833	0.068689
O12	O	1.284065	0.631833	0.568689
O13	O	1.004398	0.116673	0.068676
O14	O	1.504398	0.616673	0.568676
Cu15	Cu	0.894230	0.124252	0.081237
Cu16	Cu	1.394230	0.624252	0.581237
Cu17	Cu	0.894249	0.124262	-0.081365
Cu18	Cu	1.394249	0.624262	0.418635
O19	O	0.888398	0.258514	0.068676
O20	O	1.388398	0.758514	0.568676
C21	C	0.755875	0.131292	-0.000056
C22	C	1.255875	0.631292	0.499944
C23	C	0.671852	0.129656	-0.000050
C24	C	1.171852	0.629656	0.499950
C25	C	0.899526	-0.044362	-0.000056
C26	C	1.399526	0.455638	0.499944
C27	C	0.897888	-0.146735	-0.000056
C28	C	1.397888	0.353265	0.499944
C29	C	0.156114	0.119634	-0.075031
C30	C	0.656114	0.619634	0.424969
C31	C	0.235062	0.121164	-0.075027
C32	C	0.735062	0.621164	0.424973
C33	C	0.274522	0.121926	-0.000076
C34	C	0.774522	0.621926	0.499924
C35	C	0.235029	0.121148	0.074876
C36	C	0.735029	0.621148	0.574876
C37	C	0.156083	0.119611	0.074871
C38	C	0.656083	0.619611	0.574871
C39	C	0.553412	0.127347	0.074897
C40	C	1.053412	0.627347	0.574897
C41	C	0.632363	0.128887	0.074897
C42	C	1.132363	0.628887	0.574897
C43	C	0.632391	0.128901	-0.075000
C44	C	1.132391	0.628901	0.425000
C45	C	0.553444	0.127363	-0.075005
C46	C	1.053444	0.627363	0.424995
C47	C	0.513960	0.126580	-0.000054
C48	C	1.013960	0.626580	0.499946
C49	C	0.428355	0.124919	-0.000059
C50	C	0.928355	0.624919	0.499941
C51	C	0.360124	0.123595	-0.000070
C52	C	0.860124	0.623595	0.499930
C53	C	0.896557	-0.229874	-0.000058
C54	C	1.396557	0.270126	0.499942
C55	C	0.894894	-0.334175	-0.000064
C56	C	1.394894	0.165825	0.499936
C57	C	0.893574	-0.417309	-0.000069
C58	C	1.393574	0.082691	0.499931
C59	C	0.891911	-0.521617	-0.000074
C60	C	1.391911	-0.021617	0.499926
C61	C	1.032604	0.117222	-0.000074
C62	C	1.532604	0.617222	0.499926
C63	C	1.116627	0.118858	-0.000085
C64	C	1.616627	0.618858	0.499915
C65	C	0.888953	0.292876	-0.000073
C66	C	1.388953	0.792876	0.499927
C67	C	0.890591	0.395249	-0.000079
C68	C	1.390591	0.895249	0.499921
N69	N	0.894222	0.124244	0.195602
N70	N	1.394222	0.624244	0.695602
N71	N	0.894263	0.124263	-0.195730
N72	N	1.394263	0.624263	0.304270
C73	C	0.945602	0.061462	0.238867
C74	C	1.445602	0.561462	0.738867
C75	C	0.945606	0.061461	0.325414
C76	C	1.445606	0.561461	0.825414
C77	C	0.894233	0.124247	0.368695
C78	C	1.394233	0.624247	0.868695
C79	C	0.842847	0.187032	0.325424
C80	C	1.342847	0.687032	0.825424
C81	C	0.842840	0.187028	0.238879
C82	C	1.342840	0.687028	0.738879
C83	C	0.842873	0.187049	0.674453
C84	C	1.342873	0.687049	1.174453
C85	C	0.842886	0.187050	0.761004
C86	C	1.342886	0.687050	1.261004
C87	C	0.945639	0.061482	0.760987
C88	C	1.445639	0.561482	1.260987
C89	C	0.945632	0.061478	0.674442
C90	C	1.445632	0.561478	1.174442
C91	C	0.894244	0.124259	0.631179
C92	C	1.394244	0.624259	1.131179
C93	C	0.894240	0.124258	0.537335
C94	C	1.394240	0.624258	1.037335
C95	C	0.894240	0.124253	0.462537
C96	C	1.394240	0.624253	0.962537
H97	H	0.123991	0.119020	-0.136065
H98	H	0.623991	0.619020	0.363935
H99	H	0.987480	0.010359	0.796221
H100	H	1.487480	0.510359	1.296221
H101	H	0.521274	0.126696	0.135927
H102	H	1.021274	0.626696	0.635927
H103	H	0.267164	0.121763	0.135902
H104	H	0.767164	0.621763	0.635902
H105	H	0.664549	0.129534	-0.136029
H106	H	1.164549	0.629534	0.363971
H107	H	0.123933	0.118989	0.135900
H108	H	0.623933	0.618989	0.635900
H109	H	0.521320	0.126747	-0.136038
H110	H	1.021320	0.626747	0.363962
H111	H	0.987440	0.010338	0.203633
H112	H	1.487440	0.510338	0.703633
H113	H	0.801048	0.238180	0.796242
H114	H	1.301048	0.738180	1.296242
H115	H	0.987468	0.010355	0.639205
H116	H	1.487468	0.510355	1.139205
H117	H	0.664489	0.129507	0.135934
H118	H	1.164489	0.629507	0.635934
H119	H	0.987443	0.010339	0.360639
H120	H	1.487443	0.510339	0.860639
H121	H	0.801014	0.238150	0.360669
H122	H	1.301014	0.738150	0.860669
H123	H	0.801033	0.238169	0.639235
H124	H	1.301033	0.738169	1.139235
H125	H	0.801000	0.238150	0.203654
H126	H	1.301000	0.738150	0.703654
H127	H	0.267209	0.121790	-0.136055
H128	H	0.767209	0.621790	0.363945
