data_functionalizedCrystal
_audit_creation_method	'MofGen! by Chris Wilmer'
_symmetry_space_group_name_H-M	'P1'
_symmetry_Int_Tables_number	1
_symmetry_cell_setting	triclinic
loop_
_symmetry_equiv_pos_as_xyz
  x,y,z
_cell_length_a	21.395362
_cell_length_b	19.077068
_cell_length_c	21.395356
_cell_angle_alpha	92.269849
_cell_angle_beta	89.957023
_cell_angle_gamma	92.343691
loop_
_atom_site_label
_atom_site_type_symbol
_atom_site_fract_x
_atom_site_fract_y
_atom_site_fract_z
Zn1	Zn	0.947857	-0.279924	-0.364584
Zn2	Zn	0.943558	-0.397624	-0.264010
Zn3	Zn	0.843072	-0.279976	-0.259787
Zn4	Zn	0.838838	-0.397620	-0.368715
O5	O	0.893331	-0.338786	-0.314274
O6	O	1.034965	-0.295518	-0.351281
O7	O	0.930201	-0.382041	-0.175773
O8	O	0.860543	-0.181477	-0.270192
O9	O	1.031807	-0.381991	-0.277390
O10	O	0.937528	-0.181439	-0.347186
O11	O	0.856374	-0.295606	-0.172670
O12	O	0.754831	-0.295601	-0.274198
O13	O	0.853327	-0.381984	-0.455844
O14	O	0.751721	-0.382034	-0.354227
O15	O	0.933423	-0.295514	-0.452809
O16	O	0.926095	-0.496116	-0.281396
O17	O	0.849158	-0.496113	-0.358322
C18	C	0.730542	-0.338823	-0.314203
C19	C	0.660900	-0.338856	-0.314188
C20	C	0.626581	-0.383921	-0.355801
C21	C	0.561146	-0.383904	-0.355828
C22	C	0.530032	-0.338829	-0.314231
C23	C	0.564359	-0.293755	-0.272615
C24	C	0.629793	-0.293769	-0.272593
C25	C	0.426511	-0.333169	-0.257624
C26	C	0.361078	-0.333161	-0.257645
C27	C	0.328213	-0.338783	-0.314299
C28	C	0.360789	-0.344429	-0.370934
C29	C	0.426222	-0.344443	-0.370912
C30	C	0.459081	-0.338809	-0.314251
C31	C	0.222943	-0.383832	-0.355945
C32	C	0.157507	-0.383810	-0.355973
C33	C	0.160721	-0.293665	-0.272755
C34	C	0.226156	-0.293683	-0.272732
C35	C	0.257262	-0.338771	-0.314326
C36	C	0.886718	-0.521652	-0.320779
C37	C	0.883946	-0.599883	-0.323583
C38	C	0.922732	-0.636615	-0.284883
C39	C	0.920129	-0.710121	-0.287523
C40	C	0.878736	-0.746895	-0.328862
C41	C	0.839948	-0.710158	-0.367567
C42	C	0.842555	-0.636653	-0.364929
C43	C	0.866643	-0.966733	-0.341047
C44	C	0.864038	-1.040243	-0.343681
C45	C	0.944219	-1.040201	-0.263637
C46	C	0.946820	-0.966695	-0.261000
C47	C	0.908035	-0.929965	-0.299707
N48	N	0.876072	-0.822030	-0.331561
N49	N	0.910702	-0.854831	-0.297011
C50	C	1.056756	-0.338749	-0.314346
C51	C	1.126398	-0.338734	-0.314377
C52	C	0.893382	-0.338743	-0.477696
C53	C	0.893404	-0.338724	-0.547337
C54	C	0.899987	-0.155206	-0.307757
C55	C	0.902824	-0.076975	-0.304980
C56	C	0.854973	-0.293712	-0.578424
C57	C	0.854971	-0.293699	-0.643859
C58	C	0.893412	-0.338690	-0.678204
C59	C	0.931845	-0.383711	-0.647109
C60	C	0.931841	-0.383728	-0.581675
C61	C	0.949667	-0.344206	-0.782106
C62	C	0.949672	-0.344185	-0.847538
C63	C	0.893424	-0.338643	-0.880023
C64	C	0.837169	-0.333108	-0.847067
C65	C	0.837165	-0.333125	-0.781633
C66	C	0.893420	-0.338678	-0.749156
C67	C	0.854988	-0.293614	-0.982062
C68	C	0.854985	-0.293606	-1.047499
C69	C	0.931864	-0.383615	-1.050747
C70	C	0.931862	-0.383627	-0.985312
C71	C	0.893424	-0.338623	-0.950973
C72	C	0.893318	-0.338779	-0.151486
C73	C	0.893425	-0.338599	-0.081839
H74	H	0.254098	-0.256990	-0.238843
H75	H	0.963165	-0.420247	-1.078710
H76	H	0.835061	-0.936833	-0.372563
H77	H	0.980525	-0.936755	-0.227339
H78	H	0.823690	-0.256970	-0.954102
C79	C	0.120217	-0.432624	-0.401231
C80	C	0.084167	-0.392827	-0.440062
C81	C	0.049813	-0.437771	-0.481767
H82	H	0.093490	-0.463261	-0.378389
H83	H	0.148099	-0.459464	-0.426033
H84	H	0.056288	-0.365999	-0.415263
H85	H	0.110878	-0.362192	-0.462917
H86	H	0.077695	-0.464611	-0.506568
H87	H	0.023090	-0.468406	-0.458920
H88	H	0.025354	-0.410775	-0.508122
C89	C	0.813271	-0.244818	-1.081369
C90	C	0.821481	-0.254453	-1.146024
C91	C	0.783055	-0.209531	-1.177247
H92	H	0.824113	-0.197497	-1.069054
H93	H	0.770786	-0.255140	-1.071013
H94	H	0.863956	-0.244125	-1.156376
H95	H	0.810635	-0.301764	-1.158358
H96	H	0.740571	-0.219853	-1.166890
H97	H	0.793901	-0.162213	-1.164927
H98	H	0.788616	-0.216066	-1.221118
C99	C	0.967737	-0.596819	-0.239978
C100	C	1.001158	-0.644724	-0.206663
C101	C	1.042629	-0.608093	-0.165298
H102	H	0.944868	-0.568193	-0.211565
H103	H	0.996077	-0.568108	-0.262935
H104	H	0.972822	-0.673424	-0.183708
H105	H	1.024039	-0.673351	-0.235060
H106	H	1.070969	-0.579381	-0.188255
H107	H	1.019755	-0.579468	-0.136889
H108	H	1.065314	-0.640590	-0.142693
C109	C	0.530662	-0.244858	-0.227349
C110	C	0.545970	-0.260083	-0.165873
C111	C	0.514948	-0.215043	-0.124158
H112	H	0.486768	-0.251259	-0.233232
H113	H	0.543139	-0.197571	-0.234865
H114	H	0.533489	-0.307358	-0.158360
H115	H	0.589858	-0.253678	-0.159971
H116	H	0.527425	-0.167757	-0.131674
H117	H	0.471056	-0.221448	-0.130047
H118	H	0.525335	-0.225363	-0.082442
C119	C	0.660386	-0.432949	-0.400865
C120	C	0.696255	-0.478028	-0.366917
C121	C	0.727400	-0.523205	-0.408410
H122	H	0.686971	-0.406149	-0.427253
H123	H	0.630591	-0.459827	-0.425645
H124	H	0.726046	-0.451153	-0.342147
H125	H	0.669684	-0.504844	-0.340530
H126	H	0.697606	-0.550083	-0.433190
H127	H	0.753982	-0.496399	-0.434796
H128	H	0.751736	-0.553801	-0.385382
H129	H	0.963158	-0.420279	-0.960001
C130	C	1.010810	-0.350197	-0.746953
C131	C	1.060076	-0.355016	-0.789816
C132	C	1.116408	-0.360528	-0.757457
H133	H	1.008605	-0.391000	-0.722873
H134	H	1.017813	-0.309853	-0.720012
H135	H	1.053075	-0.395356	-0.816746
H136	H	1.062302	-0.314218	-0.813898
H137	H	1.123412	-0.320184	-0.730516
H138	H	1.114197	-0.401331	-0.733378
H139	H	1.149843	-0.363792	-0.786534
H140	H	0.791367	-0.328591	-0.873514
C141	C	0.962417	-0.749975	-0.245662
C142	C	1.001077	-0.792007	-0.282771
C143	C	1.040096	-0.828694	-0.244254
H144	H	0.937614	-0.778802	-0.219305
H145	H	0.987474	-0.717517	-0.220724
H146	H	0.976023	-0.824460	-0.307699
H147	H	1.025894	-0.763197	-0.309127
H148	H	1.065153	-0.796236	-0.219316
H149	H	1.015288	-0.857517	-0.217899
H150	H	1.066336	-0.857212	-0.269427
C151	C	0.795105	-0.750172	-0.412490
C152	C	0.829065	-0.792314	-0.454193
C153	C	0.787774	-0.829190	-0.495578
H154	H	0.772361	-0.717849	-0.435225
H155	H	0.766807	-0.778938	-0.389536
H156	H	0.857352	-0.763551	-0.477145
H157	H	0.851806	-0.824650	-0.431476
H158	H	0.759476	-0.857955	-0.472624
H159	H	0.765032	-0.796862	-0.518309
H160	H	0.810809	-0.857792	-0.523875
C161	C	0.126832	-0.244822	-0.227600
C162	C	0.062181	-0.254474	-0.236508
C163	C	0.030939	-0.209505	-0.194910
H164	H	0.139213	-0.197512	-0.235094
H165	H	0.137107	-0.255090	-0.185842
H166	H	0.051910	-0.244201	-0.278257
H167	H	0.049781	-0.301775	-0.229009
H168	H	0.041214	-0.219773	-0.153152
H169	H	0.043325	-0.162198	-0.202407
H170	H	-0.012930	-0.216052	-0.200944
C171	C	0.325828	-0.326989	-0.196094
C172	C	0.368614	-0.322038	-0.146476
C173	C	0.336167	-0.316342	-0.089766
H174	H	0.298820	-0.367292	-0.191878
H175	H	0.301810	-0.286168	-0.195496
H176	H	0.392621	-0.362855	-0.147073
H177	H	0.395624	-0.281736	-0.150671
H178	H	0.312148	-0.275521	-0.089167
H179	H	0.309159	-0.356646	-0.085556
H180	H	0.365191	-0.312976	-0.056093
H181	H	0.453264	-0.328588	-0.211486
C182	C	1.010750	-0.350030	-0.883335
C183	C	1.020879	-0.290476	-0.918769
C184	C	1.077146	-0.295825	-0.951741
H185	H	1.008536	-0.390775	-0.910365
H186	H	1.044265	-0.353299	-0.854631
H187	H	0.987373	-0.287214	-0.947471
H188	H	1.023105	-0.249722	-0.891755
H189	H	1.110662	-0.299094	-0.923037
H190	H	1.074927	-0.336572	-0.978767
H191	H	1.084029	-0.255416	-0.975783
H192	H	0.791360	-0.328620	-0.754803
C193	C	0.973686	-0.432518	-0.684312
C194	C	1.036231	-0.417196	-0.667880
C195	C	1.074791	-0.462152	-0.702131
H196	H	0.968270	-0.426106	-0.727746
H197	H	0.962837	-0.479825	-0.675249
H198	H	1.047076	-0.369900	-0.676948
H199	H	1.041666	-0.423613	-0.624451
H200	H	1.063942	-0.509459	-0.693068
H201	H	1.069370	-0.455736	-0.745564
H202	H	1.117231	-0.451767	-0.690983
C203	C	0.986360	-1.079954	-0.221547
C204	C	1.023158	-1.032016	-0.184770
C205	C	1.061983	-1.068609	-0.145983
H206	H	1.012688	-1.108578	-0.246507
H207	H	0.961404	-1.108663	-0.195212
H208	H	1.048112	-1.003318	-0.211102
H209	H	0.996847	-1.003389	-0.159797
H210	H	1.037027	-1.097318	-0.119648
H211	H	1.088306	-1.097232	-0.170948
H212	H	1.086950	-1.036089	-0.121021
C213	C	0.819080	-1.080044	-0.388635
C214	C	0.785684	-1.032146	-0.421982
C215	C	0.744272	-1.068784	-0.463402
H216	H	0.790716	-1.108772	-0.365736
H217	H	0.842010	-1.108654	-0.417020
H218	H	0.762754	-1.003548	-0.393601
H219	H	0.814031	-1.003416	-0.444894
H220	H	0.767203	-1.097394	-0.491788
H221	H	0.715912	-1.097511	-0.440498
H222	H	0.721612	-1.036291	-0.486038
H223	H	0.452743	-0.349038	-0.417027
H224	H	0.533199	-0.420601	-0.389717
H225	H	0.334032	-0.349006	-0.417067
H226	H	0.963138	-0.420382	-0.556364
H227	H	0.810972	-0.606747	-0.396444
C228	C	0.256608	-0.432800	-0.401179
C229	C	0.212544	-0.472245	-0.437646
C230	C	0.243531	-0.517354	-0.479329
H231	H	0.280985	-0.463502	-0.378322
H232	H	0.283134	-0.405935	-0.427585
H233	H	0.186029	-0.499108	-0.411244
H234	H	0.188165	-0.441562	-0.460517
H235	H	0.270058	-0.490489	-0.505735
H236	H	0.267908	-0.548051	-0.456467
H237	H	0.213640	-0.544118	-0.504081
H238	H	0.823672	-0.257068	-0.550469
C239	C	0.813145	-0.244863	-0.677543
C240	C	0.750594	-0.260184	-0.662121
C241	C	0.712049	-0.215205	-0.693131
H242	H	0.818572	-0.251254	-0.721439
H243	H	0.823997	-0.197563	-0.665134
H244	H	0.739746	-0.307472	-0.674534
H245	H	0.745148	-0.253788	-0.618231
H246	H	0.722901	-0.167904	-0.680722
H247	H	0.717481	-0.221599	-0.737025
H248	H	0.669604	-0.225589	-0.682667
H249	H	0.657735	-0.257069	-0.238707
