data_functionalizedCrystal
_audit_creation_method	'MofGen! by Chris Wilmer'
_symmetry_space_group_name_H-M	'P1'
_symmetry_Int_Tables_number	1
_symmetry_cell_setting	triclinic
loop_
_symmetry_equiv_pos_as_xyz
  x,y,z
_cell_length_a	12.759401
_cell_length_b	19.077068
_cell_length_c	12.759393
_cell_angle_alpha	87.737652
_cell_angle_beta	90.019596
_cell_angle_gamma	92.327199
loop_
_atom_site_label
_atom_site_type_symbol
_atom_site_fract_x
_atom_site_fract_y
_atom_site_fract_z
Zn1	Zn	1.589372	-0.280161	0.610735
Zn2	Zn	1.582165	-0.397875	0.442093
Zn3	Zn	1.413669	-0.280196	0.435076
Zn4	Zn	1.406568	-0.397823	0.617732
O5	O	1.497944	-0.339014	0.526409
O6	O	1.735437	-0.295783	0.588373
O7	O	1.559769	-0.382301	0.294144
O8	O	1.442964	-0.181701	0.452512
O9	O	1.730142	-0.382267	0.464473
O10	O	1.572053	-0.181675	0.581568
O11	O	1.435976	-0.295843	0.288988
O12	O	1.265706	-0.295792	0.459297
O13	O	1.430862	-0.382178	0.763822
O14	O	1.260489	-0.382212	0.593493
O15	O	1.565167	-0.295733	0.758682
O16	O	1.552884	-0.496358	0.471257
O17	O	1.423873	-0.496320	0.600298
C18	C	1.224977	-0.339001	0.526394
C19	C	1.108200	-0.339013	0.526413
C20	C	1.486854	-0.521877	0.537321
C21	C	1.482206	-0.600107	0.542025
C22	C	0.940913	-0.384091	0.596195
C23	C	1.050637	-0.384083	0.596184
C24	C	1.056032	-0.293952	0.456642
C25	C	0.946309	-0.293964	0.456649
C26	C	1.547244	-0.636856	0.477106
C27	C	1.542878	-0.710361	0.481536
C28	C	1.473470	-0.747116	0.550880
C29	C	1.408429	-0.710361	0.615806
C30	C	1.412801	-0.636858	0.611381
C31	C	1.453192	-0.966949	0.571319
C32	C	1.448824	-1.040458	0.575738
C33	C	1.583275	-1.040452	0.441468
C34	C	1.587635	-0.966947	0.437044
C35	C	1.522599	-0.930199	0.501974
N36	N	1.469003	-0.822250	0.555408
N37	N	1.527071	-0.855066	0.497451
C38	C	1.771976	-0.339027	0.526425
C39	C	1.888752	-0.339032	0.526432
C40	C	1.498026	-0.338946	0.800438
C41	C	1.498061	-0.338917	0.917213
C42	C	1.509105	-0.155436	0.515477
C43	C	1.513861	-0.077207	0.510818
C44	C	1.497925	-0.339030	0.253443
C45	C	1.498105	-0.338861	0.136656
C46	C	1.568000	-0.293898	0.969400
C47	C	1.568019	-0.293868	1.079122
C48	C	1.428159	-0.383882	1.084462
C49	C	1.428135	-0.383908	0.974742
H50	H	0.894053	-0.420788	0.653016
H51	H	1.603759	-0.606935	0.420633
H52	H	1.392315	-1.070381	0.632225
H53	H	1.624969	-0.257207	1.121607
Cl54	Cl	1.674911	-0.920746	0.349879
H55	H	1.093101	-0.420774	0.652992
Cl56	Cl	1.128396	-0.237295	0.368926
H57	H	0.903839	-0.257271	0.399834
H58	H	1.371230	-0.420514	1.131315
H59	H	1.595838	-0.740278	0.428671
H60	H	1.371175	-0.420568	0.932251
H61	H	1.351920	-0.740293	0.672273
H62	H	1.636225	-1.070380	0.388607
H63	H	1.400235	-0.937034	0.624186
Cl64	Cl	1.331039	-0.590659	0.693001
H65	H	1.624936	-0.257261	0.922563
