data_functionalizedCrystal
_audit_creation_method	'MofGen! by Chris Wilmer'
_symmetry_space_group_name_H-M	'P1'
_symmetry_Int_Tables_number	1
_symmetry_cell_setting	triclinic
loop_
_symmetry_equiv_pos_as_xyz
  x,y,z
_cell_length_a	13.032831
_cell_length_b	12.759400
_cell_length_c	13.032268
_cell_angle_alpha	82.849813
_cell_angle_beta	89.113023
_cell_angle_gamma	82.819639
loop_
_atom_site_label
_atom_site_type_symbol
_atom_site_fract_x
_atom_site_fract_y
_atom_site_fract_z
Zn1	Zn	1.498516	-0.709532	0.780845
Zn2	Zn	1.520267	-0.866067	0.608867
Zn3	Zn	1.348373	-0.665643	0.587085
Zn4	Zn	1.326515	-0.860387	0.758992
O5	O	1.423418	-0.775407	0.683947
O6	O	1.645323	-0.751042	0.776293
O7	O	1.515715	-0.823490	0.462060
O8	O	1.368334	-0.524453	0.612817
O9	O	1.661303	-0.866048	0.649941
O10	O	1.478644	-0.556699	0.755172
O11	O	1.389425	-0.676239	0.446057
O12	O	1.201551	-0.670731	0.591628
O13	O	1.331081	-0.856366	0.905808
O14	O	1.185493	-0.813808	0.717927
O15	O	1.457450	-0.745534	0.921863
O16	O	1.494520	-1.012325	0.628751
O17	O	1.352172	-1.008152	0.739048
C18	C	1.156205	-0.736891	0.650043
C19	C	1.041887	-0.720442	0.635563
C20	C	0.983014	-0.783992	0.691504
C21	C	0.864860	-0.766993	0.676540
C22	C	1.423359	-1.048363	0.683918
C23	C	1.423424	-1.165153	0.683952
C24	C	1.497609	-1.222171	0.626602
C25	C	1.497668	-1.331908	0.626642
C26	C	1.349348	-1.327596	0.741382
C27	C	1.349295	-1.217863	0.741348
C28	C	1.571738	-1.169461	0.569206
C29	C	1.645929	-1.226480	0.511852
C30	C	1.645988	-1.336216	0.511891
C31	C	1.571857	-1.388934	0.569286
C32	C	1.691674	-0.814074	0.717984
C33	C	1.805989	-0.830552	0.732489
C34	C	1.389401	-0.805212	0.952195
C35	C	1.374905	-0.817913	1.066506
C36	C	1.423501	-0.501392	0.684002
C37	C	1.423537	-0.384623	0.684026
C38	C	1.457361	-0.745651	0.416751
C39	C	1.472056	-0.732683	0.302465
C40	C	1.430967	-0.768738	1.125413
C41	C	1.415986	-0.781864	1.243560
H42	H	1.004816	-0.653445	0.576595
H43	H	1.490051	-0.716916	1.088378
H44	H	0.843052	-0.897545	0.791471
H45	H	1.315811	-0.869723	1.103540
Cl46	Cl	1.739261	-1.407897	0.439800
H47	H	1.706289	-1.183553	0.465129
Cl48	Cl	1.563305	-0.652689	1.245305
H49	H	1.020083	-0.850982	0.750480
Cl50	Cl	0.807641	-0.663547	0.585490
Cl51	Cl	1.256159	-1.393870	0.813526
Cl52	Cl	1.571920	-1.031581	0.569477
Cl53	Cl	1.571563	-1.526781	0.568854
Cl54	Cl	1.256034	-1.146177	0.813448
H55	H	1.356888	-0.833678	1.280589
