data_functionalizedCrystal
_audit_creation_method	'MofGen! by Chris Wilmer'
_symmetry_space_group_name_H-M	'P1'
_symmetry_Int_Tables_number	1
_symmetry_cell_setting	triclinic
loop_
_symmetry_equiv_pos_as_xyz
  x,y,z
_cell_length_a	16.625548
_cell_length_b	16.120484
_cell_length_c	16.625539
_cell_angle_alpha	92.870299
_cell_angle_beta	89.982945
_cell_angle_gamma	92.926626
loop_
_atom_site_label
_atom_site_type_symbol
_atom_site_fract_x
_atom_site_fract_y
_atom_site_fract_z
Zn1	Zn	1.216358	-0.331898	-0.472168
Zn2	Zn	1.716358	0.168102	0.027832
Zn3	Zn	1.209425	-0.471318	-0.344164
Zn4	Zn	1.709425	0.028682	0.155836
Zn5	Zn	1.081527	-0.331926	-0.337349
Zn6	Zn	1.581527	0.168074	0.162651
Zn7	Zn	1.074648	-0.471275	-0.478952
Zn8	Zn	1.574648	0.028725	0.021048
O9	O	1.145490	-0.401604	-0.408158
O10	O	1.645490	0.098396	0.091842
O11	O	1.328271	-0.350399	-0.455200
O12	O	1.828271	0.149601	0.044800
O13	O	1.192436	-0.452857	-0.230429
O14	O	1.692436	0.047143	0.269571
O15	O	1.105193	-0.215256	-0.349542
O16	O	1.605193	0.284744	0.150458
O17	O	1.323177	-0.452831	-0.361157
O18	O	1.823177	0.047169	0.138843
O19	O	1.204253	-0.215236	-0.448592
O20	O	1.704253	0.284764	0.051408
O21	O	1.098470	-0.350446	-0.225423
O22	O	1.598470	0.149554	0.274577
O23	O	0.967782	-0.350404	-0.356121
O24	O	1.467782	0.149596	0.143879
O25	O	1.093469	-0.452757	-0.590883
O26	O	1.593469	0.047243	-0.090883
O27	O	0.962728	-0.452783	-0.460156
O28	O	1.462728	0.047217	0.039844
O29	O	1.197583	-0.350357	-0.585899
O30	O	1.697583	0.149643	-0.085899
O31	O	1.185766	-0.587979	-0.367736
O32	O	1.685766	-0.087979	0.132264
O33	O	1.086746	-0.587947	-0.466764
O34	O	1.586746	-0.087947	0.033236
C35	C	0.935999	-0.401592	-0.408135
C36	C	1.435999	0.098408	0.091865
C37	C	0.846377	-0.401607	-0.408146
C38	C	1.346377	0.098393	0.091854
C39	C	0.518202	-0.401613	-0.408180
C40	C	1.018202	0.098387	0.091820
C41	C	0.609510	-0.401609	-0.408168
C42	C	1.109510	0.098391	0.091832
C43	C	0.682287	-0.401611	-0.408162
C44	C	1.182287	0.098389	0.091838
C45	C	0.773601	-0.401606	-0.408151
C46	C	1.273601	0.098394	0.091849
C47	C	1.134779	-0.618213	-0.418743
C48	C	1.634779	-0.118213	0.081257
C49	C	1.130271	-0.710879	-0.423298
C50	C	1.630271	-0.210879	0.076702
C51	C	1.122045	-0.880541	-0.431631
C52	C	1.622045	-0.380541	0.068369
C53	C	1.169079	-0.921827	-0.384699
C54	C	1.669079	-0.421827	0.115301
C55	C	1.164502	-1.016233	-0.389335
C56	C	1.664502	-0.516233	0.110665
C57	C	1.126621	-0.786127	-0.426996
C58	C	1.626621	-0.286127	0.073004
C59	C	1.355798	-0.401617	-0.408182
C60	C	1.855798	0.098383	0.091818
C61	C	1.445419	-0.401622	-0.408192
C62	C	1.945419	0.098378	0.091808
C63	C	1.145532	-0.401549	-0.618465
C64	C	1.645532	0.098451	-0.118465
C65	C	1.145550	-0.401526	-0.708085
C66	C	1.645550	0.098474	-0.208085
C67	C	1.156264	-0.184150	-0.397550
C68	C	1.656264	0.315850	0.102450
C69	C	1.160855	-0.091484	-0.393029
C70	C	1.660855	0.408516	0.106971
C71	C	1.145564	-0.401507	-0.780866
C72	C	1.645564	0.098493	-0.280866
C73	C	1.145584	-0.401476	-0.872173
C74	C	1.645584	0.098524	-0.372173
C75	C	1.145605	-0.401447	-0.944948
C76	C	1.645605	0.098553	-0.444948
C77	C	1.145626	-0.401417	-1.036261
C78	C	1.645626	0.098583	-0.536261
C79	C	1.145497	-0.401599	-0.198667
C80	C	1.645497	0.098401	0.301333
C81	C	1.145647	-0.401388	-0.109036
C82	C	1.645647	0.098612	0.390964
H83	H	1.078343	-0.916094	-0.475289
H84	H	1.578343	-0.416094	0.024711
H85	H	1.212783	-0.886271	-0.341036
H86	H	1.712783	-0.386271	0.158964
