data_functionalizedCrystal
_audit_creation_method	'MofGen! by Chris Wilmer'
_symmetry_space_group_name_H-M	'P1'
_symmetry_Int_Tables_number	1
_symmetry_cell_setting	triclinic
loop_
_symmetry_equiv_pos_as_xyz
  x,y,z
_cell_length_a	10.686220
_cell_length_b	19.077068
_cell_length_c	19.077174
_cell_angle_alpha	85.342852
_cell_angle_beta	91.882865
_cell_angle_gamma	83.477335
loop_
_atom_site_label
_atom_site_type_symbol
_atom_site_fract_x
_atom_site_fract_y
_atom_site_fract_z
Zn1	Zn	1.937147	0.210211	-0.323598
Zn2	Zn	1.920694	0.324100	-0.211174
Zn3	Zn	1.717997	0.215279	-0.215485
Zn4	Zn	1.717913	0.337847	-0.338048
O5	O	1.823438	0.271859	-0.272076
O6	O	2.111543	0.217445	-0.300833
O7	O	1.886955	0.306032	-0.113403
O8	O	1.753989	0.115648	-0.225583
O9	O	2.099455	0.301119	-0.218236
O10	O	1.914997	0.111925	-0.305013
O11	O	1.738035	0.226082	-0.116570
O12	O	1.541407	0.239411	-0.239595
O13	O	1.753846	0.324548	-0.434474
O14	O	1.541345	0.329462	-0.329641
O15	O	1.914915	0.230774	-0.423858
O16	O	1.886874	0.424882	-0.232247
O17	O	1.737892	0.434981	-0.325461
C18	C	1.495591	0.286479	-0.286654
C19	C	1.355337	0.292751	-0.292908
C20	C	1.810623	0.455589	-0.279968
C21	C	1.805259	0.534186	-0.283363
C22	C	1.836206	0.278629	-0.455378
C23	C	1.841648	0.281514	-0.533491
C24	C	2.152564	0.257183	-0.257442
C25	C	2.292818	0.250929	-0.251205
C26	C	1.836337	0.087410	-0.264167
C27	C	1.841834	0.008809	-0.260797
C28	C	1.880370	0.565827	-0.236461
C29	C	1.875332	0.639677	-0.239658
C30	C	1.795175	0.681884	-0.289754
C31	C	1.720060	0.650238	-0.336661
C32	C	1.725106	0.576389	-0.333467
C33	C	1.771766	0.903314	-0.304510
C34	C	1.766723	0.977168	-0.307699
C35	C	1.921997	0.966602	-0.210696
C36	C	1.927030	0.892753	-0.207504
C37	C	1.851920	0.861113	-0.254413
N38	N	1.790020	0.757370	-0.293021
N39	N	1.857083	0.785627	-0.251149
C40	C	1.766673	0.241244	-0.571836
C41	C	1.771780	0.243961	-0.645232
C42	C	1.851870	0.286945	-0.680279
C43	C	1.926848	0.327219	-0.641929
C44	C	1.921733	0.324506	-0.568535
C45	C	1.875475	0.299527	-0.899606
C46	C	1.880587	0.302236	-0.973005
C47	C	1.725517	0.218979	-0.976303
C48	C	1.720415	0.216266	-0.902907
C49	C	1.795388	0.256543	-0.864563
N50	N	1.857095	0.289721	-0.755301
N51	N	1.790155	0.253770	-0.789543
C52	C	1.810795	0.265061	-0.089482
C53	C	1.805612	0.261966	-0.011350
H54	H	1.346592	0.210326	-0.210717
H55	H	1.992052	0.362221	-0.670471
H56	H	1.654800	0.684608	-0.377453
H57	H	1.663944	0.550627	-0.371660
H58	H	1.301557	0.333361	-0.333395
Br59	Br	2.023478	0.379166	-0.516494
H60	H	1.945637	0.531467	-0.195665
Br61	Br	2.023932	1.009546	-0.147040
Br62	Br	1.657984	0.182901	-0.524278
H63	H	1.936495	0.665436	-0.201464
H64	H	1.664477	0.186188	-1.007530
H65	H	1.992300	0.858389	-0.166712
Br66	Br	1.669831	0.860383	-0.368173
Br67	Br	1.657908	1.034450	-0.375680
H68	H	1.945811	0.337239	-1.001538
H69	H	1.710723	0.211172	-0.676450
Br70	Br	1.611724	0.157925	-0.855347
Br71	Br	1.977232	0.354185	-0.847577
