data_functionalizedCrystal
_audit_creation_method	'MofGen! by Chris Wilmer'
_symmetry_space_group_name_H-M	'P1'
_symmetry_Int_Tables_number	1
_symmetry_cell_setting	triclinic
loop_
_symmetry_equiv_pos_as_xyz
  x,y,z
_cell_length_a	6.817900
_cell_length_b	15.300992
_cell_length_c	14.858572
_cell_angle_alpha	94.836158
_cell_angle_beta	104.524003
_cell_angle_gamma	104.175078
loop_
_atom_site_label
_atom_site_type_symbol
_atom_site_fract_x
_atom_site_fract_y
_atom_site_fract_z
V1	V	-4.041806	-0.125326	-0.290242
O2	O	-4.025461	0.005438	-0.284428
O3	O	-3.996655	-0.247939	-0.288534
O4	O	-3.998399	-0.123655	-0.416699
O5	O	-4.023705	-0.119706	-0.155375
V6	V	-4.524366	-0.109655	-0.274077
O7	O	-4.305177	-0.159702	-0.325700
O8	O	-4.711192	-0.075279	-0.238618
O9	O	-4.346310	0.012958	-0.275785
O10	O	-4.658107	-0.240420	-0.279890
O11	O	-4.659864	-0.115275	-0.408943
O12	O	-4.344566	-0.111326	-0.147619
C13	C	-3.842285	-0.277821	-0.284026
C14	C	-3.886688	-0.378061	-0.283473
C15	C	-3.863544	-0.412109	-0.198019
C16	C	-3.905287	-0.506296	-0.197502
C17	C	-3.970158	-0.566432	-0.282440
C18	C	-3.993309	-0.532378	-0.367900
C19	C	-3.951581	-0.438193	-0.368417
C20	C	-4.080274	-0.728687	-0.366818
C21	C	-4.122001	-0.822877	-0.366302
C22	C	-4.033980	-0.796789	-0.195904
C23	C	-3.992252	-0.702605	-0.196420
C24	C	-4.015402	-0.668557	-0.281881
C25	C	-3.844509	-0.119283	-0.447513
C26	C	-3.890324	-0.118728	-0.550895
C27	C	-4.058010	-0.116698	-0.929459
C28	C	-4.011346	-0.117263	-0.824131
C29	C	-3.974168	-0.117714	-0.740180
C30	C	-3.927502	-0.118277	-0.634845
C31	C	-4.164022	0.042836	-0.280289
C32	C	-4.098857	0.143074	-0.280849
C33	C	-4.161798	-0.115701	-0.116800
C34	C	-4.095221	-0.116252	-0.013417
H35	H	-4.099162	-0.700970	-0.436410
O36	O	-4.185122	-0.881171	-0.448897
C37	C	-4.196588	-0.830926	-0.524437
H38	H	-4.217279	-0.761558	-0.501442
H39	H	-4.336611	-0.869711	-0.586339
H40	H	-4.045151	-0.820880	-0.546615
H41	H	-3.939419	-0.653643	-0.127256
O42	O	-4.011744	-0.830013	-0.112973
C43	C	-4.062470	-0.926037	-0.130726
H44	H	-4.169312	-0.951701	-0.205498
H45	H	-4.147439	-0.955944	-0.078609
H46	H	-3.911684	-0.948113	-0.122427
O47	O	-3.974400	-0.405230	-0.451492
C48	C	-4.184706	-0.440532	-0.507603
H49	H	-4.260270	-0.506665	-0.484476
H50	H	-4.187414	-0.454700	-0.584533
H51	H	-4.276492	-0.388777	-0.499175
O52	O	-4.056050	-0.590693	-0.450464
C53	C	-3.899282	-0.571254	-0.497994
H54	H	-3.798686	-0.497706	-0.472669
H55	H	-3.977098	-0.580942	-0.576945
H56	H	-3.795298	-0.619396	-0.482803
H57	H	-3.810706	-0.363151	-0.128853
O58	O	-3.882600	-0.539215	-0.114407
C59	C	-3.816430	-0.465943	-0.039551
H60	H	-3.736229	-0.401032	-0.063285
H61	H	-3.700541	-0.481585	0.022659
H62	H	-3.959007	-0.455960	-0.017497
