data_functionalizedCrystal
_audit_creation_method	'MofGen! by Chris Wilmer'
_symmetry_space_group_name_H-M	'P1'
_symmetry_Int_Tables_number	1
_symmetry_cell_setting	triclinic
loop_
_symmetry_equiv_pos_as_xyz
  x,y,z
_cell_length_a	16.992694
_cell_length_b	16.992695
_cell_length_c	16.053802
_cell_angle_alpha	92.741074
_cell_angle_beta	87.249047
_cell_angle_gamma	90.668223
loop_
_atom_site_label
_atom_site_type_symbol
_atom_site_fract_x
_atom_site_fract_y
_atom_site_fract_z
O1	O	1.053959	0.163815	-0.069325
O2	O	0.825560	0.161983	-0.069350
O3	O	0.938844	0.048699	-0.069331
O4	O	0.940676	0.277099	-0.069344
O5	O	0.932607	0.054907	0.069527
O6	O	0.819323	0.168191	0.069508
O7	O	1.047722	0.170023	0.069533
Zn8	Zn	0.932532	0.170093	0.091567
Zn9	Zn	0.940750	0.161913	-0.091384
O10	O	0.934438	0.283307	0.069514
C11	C	0.793082	0.162731	0.000076
C12	C	0.705597	0.155702	0.000067
C13	C	0.933370	0.022443	0.000098
C14	C	0.926341	-0.065042	0.000097
C15	C	0.659607	0.223520	0.000064
C16	C	0.577405	0.216911	0.000076
C17	C	0.541197	0.142484	0.000085
C18	C	0.587193	0.074661	0.000091
C19	C	0.669393	0.081270	0.000085
C20	C	0.295881	0.115090	0.000109
C21	C	0.213676	0.108486	0.000112
C22	C	0.203893	0.250737	0.000099
C23	C	0.286095	0.257339	0.000088
C24	C	0.332084	0.189517	0.000098
N25	N	0.457174	0.135727	0.000094
N26	N	0.416105	0.196275	0.000094
C27	C	0.994158	-0.111032	0.000105
C28	C	0.987550	-0.193233	0.000096
C29	C	0.913123	-0.229442	0.000086
C30	C	0.845300	-0.183446	0.000075
C31	C	0.851910	-0.101246	0.000078
C32	C	0.885729	-0.474757	0.000071
C33	C	0.879124	-0.556962	0.000071
C34	C	1.021375	-0.566745	0.000091
C35	C	1.027978	-0.484543	0.000099
C36	C	0.960155	-0.438554	0.000083
N37	N	0.906366	-0.313465	0.000079
N38	N	0.966913	-0.354533	0.000084
C39	C	1.080201	0.169275	0.000105
C40	C	1.167685	0.176304	0.000109
C41	C	0.939913	0.309563	0.000084
C42	C	0.946942	0.397047	0.000079
N43	N	0.926930	0.175675	0.216427
N44	N	0.946358	0.156325	-0.216243
C45	C	0.975152	0.127492	0.260129
C46	C	0.971241	0.131404	0.347535
C47	C	0.919110	0.183504	0.391237
C48	C	0.870883	0.231689	0.347529
C49	C	0.874791	0.227772	0.260125
C50	C	0.902039	0.200593	0.652644
C51	C	0.898136	0.204508	0.740055
C52	C	0.998493	0.104222	0.740054
C53	C	1.002400	0.100313	0.652648
C54	C	0.954169	0.148494	0.608948
N55	N	0.915113	0.187507	0.480580
N56	N	0.958163	0.144487	0.519606
H57	H	0.689081	0.284126	0.000056
H58	H	1.010506	0.092170	0.383116
O59	O	1.025667	0.076806	0.217606
C60	C	0.982698	0.023300	0.167105
H61	H	0.923669	0.050200	0.153994
H62	H	1.017519	0.010119	0.105649
H63	H	0.972162	-0.033684	0.200836
H64	H	0.706838	0.026046	0.000087
H65	H	1.044848	0.057889	0.617067
O66	O	1.087270	-0.611378	0.000244
C67	C	1.128937	-0.591046	0.072153
H68	H	1.086882	-0.563345	0.122417
H69	H	1.155772	-0.646245	0.096290
H70	H	1.177848	-0.547107	0.055898
O71	O	0.773050	-0.218713	-0.000047
C72	C	0.768195	-0.269165	-0.071974
H73	H	0.830034	-0.286797	-0.095943
H74	H	0.732720	-0.324174	-0.055803
H75	H	0.737905	-0.237321	-0.122336
O76	O	0.340518	0.049178	-0.000035
C77	C	0.326610	0.001071	-0.071937
H78	H	0.303408	0.038626	-0.122204
H79	H	0.383965	-0.027932	-0.096075
H80	H	0.281213	-0.046379	-0.055673
H81	H	0.166440	0.305954	0.000092
H82	H	1.088584	-0.455068	0.000108
H83	H	0.818513	-0.586440	0.000076
O84	O	1.045219	0.057333	0.782545
C85	C	0.997757	0.008384	0.833132
H86	H	0.936772	0.001952	0.806799
H87	H	1.025907	-0.052111	0.834132
H88	H	0.992212	0.035728	0.899370
O89	O	1.066434	-0.075820	0.000262
C90	C	1.071282	-0.025341	0.072169
H91	H	1.026672	-0.045089	0.122431
H92	H	1.133178	-0.027662	0.096312
H93	H	1.057915	0.037546	0.055910
O94	O	0.820171	0.282315	0.389850
C95	C	0.778459	0.324014	0.332531
H96	H	0.778338	0.288892	0.270232
H97	H	0.715216	0.333175	0.357791
H98	H	0.808091	0.383695	0.323222
O99	O	0.828064	0.274614	0.217578
C100	C	0.875521	0.323593	0.167019
H101	H	0.935741	0.295551	0.153922
H102	H	0.846191	0.331211	0.105558
H103	H	0.883004	0.383621	0.200691
O104	O	0.532774	0.282808	-0.000079
C105	C	0.553118	0.324478	-0.071993
H106	H	0.580822	0.282426	-0.122254
H107	H	0.497923	0.351318	-0.096131
H108	H	0.597057	0.373387	-0.055745
O109	O	0.321137	0.329701	0.000121
C110	C	0.262918	0.388143	0.000100
H111	H	0.204580	0.363758	0.026394
H112	H	0.281442	0.441598	0.040409
H113	H	0.255654	0.406330	-0.066518
H114	H	0.796685	-0.063801	0.000071
H115	H	0.184198	0.047875	0.000119
H116	H	1.042774	-0.230676	0.000105
H117	H	0.830503	-0.437322	0.000059
H118	H	0.855683	0.246937	0.775633
H119	H	0.862769	0.239826	0.617070
H120	H	0.557705	0.014061	0.000110
