data_functionalizedCrystal
_audit_creation_method	'MofGen! by Chris Wilmer'
_symmetry_space_group_name_H-M	'P1'
_symmetry_Int_Tables_number	1
_symmetry_cell_setting	triclinic
loop_
_symmetry_equiv_pos_as_xyz
  x,y,z
_cell_length_a	16.120530
_cell_length_b	16.120484
_cell_length_c	16.120728
_cell_angle_alpha	84.367400
_cell_angle_beta	89.860094
_cell_angle_gamma	90.167327
loop_
_atom_site_label
_atom_site_type_symbol
_atom_site_fract_x
_atom_site_fract_y
_atom_site_fract_z
Zn1	Zn	1.224873	-0.422442	0.554816
Zn2	Zn	1.224796	-0.555083	0.422120
Zn3	Zn	1.093642	-0.408310	0.408058
Zn4	Zn	1.078766	-0.554358	0.554054
O5	O	1.155519	-0.485048	0.484762
O6	O	1.340897	-0.446254	0.543418
O7	O	1.213591	-0.530003	0.303622
O8	O	1.117308	-0.293553	0.421960
O9	O	1.340840	-0.543706	0.445927
O10	O	1.213723	-0.303935	0.529782
O11	O	1.117234	-0.422170	0.293290
O12	O	0.975634	-0.421466	0.421220
O13	O	1.091953	-0.542469	0.670788
O14	O	0.964704	-0.528767	0.528483
O15	O	1.199298	-0.445551	0.671348
O16	O	1.199166	-0.671619	0.445188
O17	O	1.091879	-0.671086	0.542118
C18	C	0.940083	-0.473505	0.473243
C19	C	0.847916	-0.468588	0.468336
C20	C	0.679167	-0.459591	0.459384
C21	C	0.632705	-0.510570	0.510204
C22	C	0.538807	-0.505564	0.505223
C23	C	0.773073	-0.464596	0.464364
C24	C	1.143921	-0.701596	0.495115
C25	C	1.139034	-0.794242	0.499577
C26	C	1.130115	-0.963868	0.507739
C27	C	1.181071	-1.005397	0.461807
C28	C	1.176108	-1.099782	0.466348
C29	C	1.135076	-0.869474	0.503198
C30	C	1.371796	-0.496637	0.496326
C31	C	1.463961	-0.501576	0.501254
C32	C	1.143975	-0.495505	0.702155
C33	C	1.139055	-0.499962	0.794795
C34	C	1.167184	-0.267657	0.474387
C35	C	1.172154	-0.175017	0.469967
C36	C	1.130044	-0.508077	0.964408
C37	C	1.180964	-0.462098	1.005970
C38	C	1.175950	-0.466613	1.100348
C39	C	1.135057	-0.503563	0.870021
C40	C	1.167018	-0.474654	1.268215
C41	C	1.171956	-0.470211	1.175577
H42	H	1.228421	-0.970065	0.419071
O43	O	1.073662	-0.559184	1.006558
C44	C	1.051363	-0.675697	1.109800
C45	C	1.115299	-0.617889	1.062097
H46	H	1.085001	-0.723162	1.154728
H47	H	1.013820	-0.709676	1.063665
H48	H	1.007923	-0.637002	1.146365
H49	H	1.158793	-0.656522	1.025531
H50	H	1.152782	-0.583906	1.108274
H51	H	1.082767	-0.999197	0.550470
O52	O	0.669508	-0.567102	0.566500
C53	C	0.798013	-0.623639	0.622907
C54	C	0.756438	-0.559594	0.559106
H55	H	0.868303	-0.617579	0.616962
H56	H	0.778286	-0.689247	0.610489
H57	H	0.778220	-0.611466	0.688551
H58	H	0.776211	-0.571690	0.493437
H59	H	0.776165	-0.494007	0.571596
H60	H	1.228324	-0.419341	0.970673
H61	H	0.648426	-0.412192	0.412137
