data_functionalizedCrystal
_audit_creation_method	'MofGen! by Chris Wilmer'
_symmetry_space_group_name_H-M	'P1'
_symmetry_Int_Tables_number	1
_symmetry_cell_setting	triclinic
loop_
_symmetry_equiv_pos_as_xyz
  x,y,z
_cell_length_a	16.974800
_cell_length_b	10.723024
_cell_length_c	9.198806
_cell_angle_alpha	89.997736
_cell_angle_beta	93.653122
_cell_angle_gamma	83.927745
loop_
_atom_site_label
_atom_site_type_symbol
_atom_site_fract_x
_atom_site_fract_y
_atom_site_fract_z
O1	O	1.050011	0.158949	0.002693
O2	O	1.550011	0.658949	0.502693
O3	O	0.819914	0.179225	-0.024391
O4	O	1.319914	0.679225	0.475609
O5	O	0.940270	-0.012570	-0.010219
O6	O	1.440270	0.487430	0.489781
O7	O	0.929655	0.350745	-0.011479
O8	O	1.429655	0.850745	0.488521
O9	O	0.940261	-0.012572	0.231565
O10	O	1.440261	0.487428	0.731565
O11	O	0.819905	0.179224	0.217393
O12	O	1.319905	0.679224	0.717393
O13	O	1.050002	0.158948	0.244477
O14	O	1.550002	0.658948	0.744477
Cu15	Cu	0.934952	0.169086	0.253012
Cu16	Cu	1.434952	0.669086	0.753012
Cu17	Cu	0.934963	0.169087	-0.032926
Cu18	Cu	1.434963	0.669087	0.467074
O19	O	0.929646	0.350743	0.230305
O20	O	1.429646	0.850743	0.730305
C21	C	0.790447	0.178457	0.093033
C22	C	1.290447	0.678457	0.593033
C23	C	0.702657	0.176153	0.082700
C24	C	1.202657	0.676153	0.582700
C25	C	0.661413	0.175067	0.209645
C26	C	1.161413	0.675067	0.709645
C27	C	0.578928	0.172882	0.199940
C28	C	1.078928	0.672882	0.699940
C29	C	0.537686	0.171793	0.063288
C30	C	1.037686	0.671793	0.563288
C31	C	0.578936	0.172876	-0.063667
C32	C	1.078936	0.672876	0.436333
C33	C	0.661421	0.175051	-0.053960
C34	C	1.161421	0.675051	0.446040
C35	C	0.290993	0.165278	0.020125
C36	C	0.790993	0.665278	0.520125
C37	C	0.208502	0.163106	0.010428
C38	C	0.708502	0.663106	0.510428
C39	C	0.208499	0.163111	0.274036
C40	C	0.708499	0.663111	0.774036
C41	C	0.290985	0.165294	0.283730
C42	C	0.790985	0.665294	0.783730
C43	C	0.332229	0.166370	0.156776
C44	C	0.832229	0.666370	0.656776
N45	N	0.453372	0.169564	0.053365
N46	N	0.953372	0.669564	0.553365
N47	N	0.416542	0.168590	0.166701
N48	N	0.916542	0.668590	0.666701
C49	C	0.939493	-0.059059	0.110580
C50	C	1.439493	0.440941	0.610580
C51	C	0.937181	-0.197577	0.110303
C52	C	1.437181	0.302423	0.610303
C53	C	1.004526	-0.273591	0.118228
C54	C	1.504526	0.226409	0.618228
C55	C	1.002139	-0.416758	0.117942
C56	C	1.502139	0.083242	0.617942
C57	C	1.079469	0.159717	0.127050
C58	C	1.579469	0.659717	0.627050
C59	C	1.167258	0.162020	0.137373
C60	C	1.667258	0.662020	0.637373
C61	C	0.930423	0.397232	0.109502
C62	C	1.430423	0.897232	0.609502
C63	C	0.932734	0.535751	0.109770
C64	C	1.432734	1.035751	0.609770
N65	N	0.934951	0.169084	0.454125
N66	N	1.434951	0.669084	0.954125
N67	N	0.934971	0.169080	-0.234039
N68	N	1.434971	0.669080	0.265961
C69	C	0.985609	0.088379	0.699691
C70	C	1.485609	0.588379	1.199691
C71	C	0.985599	0.088381	0.532278
C72	C	1.485599	0.588381	1.032278
H73	H	0.174910	0.162233	0.377395
H74	H	0.674910	0.662233	0.877395
F75	F	0.334871	0.166460	0.429174
F76	F	0.834871	0.666460	0.929174
H77	H	1.028974	0.019291	0.766894
H78	H	1.528974	0.519291	1.266894
F79	F	1.082200	-0.220123	0.127362
F80	F	1.582200	0.279877	0.627362
F81	F	1.042264	-0.001935	0.457763
F82	F	1.542264	0.498065	0.957763
F83	F	0.878276	0.259391	0.528630
F84	F	1.378276	0.759391	1.028630
H85	H	0.891612	0.238176	0.698758
H86	H	1.391612	0.738176	1.198758
H87	H	0.875078	-0.398941	0.102995
H88	H	1.375078	0.101059	0.602995
H89	H	0.694985	0.175964	0.320921
H90	H	1.194985	0.675964	0.820921
H91	H	0.174925	0.162223	-0.100856
H92	H	0.674925	0.662223	0.399144
F93	F	0.535035	0.171744	0.335053
F94	F	1.035035	0.671744	0.835053
H95	H	0.324564	0.166150	-0.083250
H96	H	0.824564	0.666150	0.416750
H97	H	0.545351	0.171980	-0.174931
H98	H	1.045351	0.671980	0.325069
H99	H	0.695000	0.175938	-0.157333
H100	H	1.195000	0.675938	0.342667
H101	H	1.059792	-0.482073	0.124733
H102	H	1.559792	0.017927	0.624733
F103	F	0.859508	-0.251046	0.101147
F104	F	1.359508	0.248954	0.601147
