data_functionalizedCrystal
_audit_creation_method	'MofGen! by Chris Wilmer'
_symmetry_space_group_name_H-M	'P1'
_symmetry_Int_Tables_number	1
_symmetry_cell_setting	triclinic
loop_
_symmetry_equiv_pos_as_xyz
  x,y,z
_cell_length_a	10.489741
_cell_length_b	10.868271
_cell_length_c	11.792241
_cell_angle_alpha	90.005737
_cell_angle_beta	84.366295
_cell_angle_gamma	89.997969
loop_
_atom_site_label
_atom_site_type_symbol
_atom_site_fract_x
_atom_site_fract_y
_atom_site_fract_z
O1	O	1.693501	0.102247	0.160139
O2	O	2.193501	0.602247	0.660139
O3	O	1.322254	0.102266	0.175170
O4	O	1.822254	0.602266	0.675170
O5	O	1.516886	0.102247	0.002508
O6	O	2.016886	0.602247	0.502508
O7	O	1.498868	0.102265	0.332801
O8	O	1.998868	0.602265	0.832801
O9	O	1.516884	-0.102397	0.002499
O10	O	2.016884	0.397603	0.502499
O11	O	1.322252	-0.102379	0.175160
O12	O	1.822252	0.397621	0.675160
O13	O	1.693498	-0.102398	0.160129
O14	O	2.193498	0.397602	0.660129
Zn15	Zn	1.507875	-0.134880	0.167643
Zn16	Zn	2.007875	0.365120	0.667643
Zn17	Zn	1.507878	0.134748	0.167656
Zn18	Zn	2.007878	0.634748	0.667656
O19	O	1.498866	-0.102379	0.332791
O20	O	1.998866	0.397621	0.832791
C21	C	1.274725	-0.000054	0.174030
C22	C	1.774725	0.499946	0.674030
C23	C	1.133107	-0.000047	0.170633
C24	C	1.633107	0.499953	0.670633
N25	N	1.507882	-0.318894	0.167634
N26	N	2.007882	0.181106	0.667634
C27	C	1.065341	-0.000065	0.060774
C28	C	1.565341	0.499935	0.560774
C29	C	0.973039	0.100836	0.112675
C30	C	1.473039	0.600836	0.612675
C31	C	0.973070	-0.100927	0.112692
C32	C	1.473070	0.399073	0.612692
C33	C	1.042670	0.100937	0.222580
C34	C	1.542670	0.600937	0.722580
C35	C	1.042711	-0.100917	0.222581
C36	C	1.542711	0.399083	0.722581
C37	C	0.950436	0.000008	0.274563
C38	C	1.450436	0.500008	0.774563
N39	N	1.507880	0.318762	0.167656
N40	N	2.007880	0.818762	0.667656
C41	C	1.741027	-0.000075	0.161269
C42	C	2.241027	0.499925	0.661269
C43	C	1.882645	-0.000074	0.164666
C44	C	2.382645	0.499926	0.664666
C45	C	1.515753	-0.000075	-0.039791
C46	C	2.015753	0.499925	0.460209
C47	C	1.512366	-0.000073	-0.165813
C48	C	2.012366	0.499927	0.334187
C49	C	1.507877	0.569768	0.167649
C50	C	2.007877	1.069768	0.667649
C51	C	1.507875	0.430091	0.167657
C52	C	2.007875	0.930091	0.667657
C53	C	1.506136	-0.000052	-0.396542
C54	C	2.006136	0.499948	0.103458
C55	C	1.509598	-0.000064	-0.268148
C56	C	2.009598	0.499936	0.231852
C57	C	1.499999	-0.000055	0.375090
C58	C	1.999999	0.499945	0.875090
C59	C	1.503387	-0.000048	0.501113
C60	C	2.003387	0.499952	1.001113
H61	H	1.115339	0.000057	-0.029538
H62	H	1.615339	0.500057	0.470462
H63	H	1.073598	-0.186222	0.269023
H64	H	1.573598	0.313778	0.769023
H65	H	0.942184	0.186137	0.066195
H66	H	1.442184	0.686137	0.566195
F67	F	1.082753	0.212563	0.283296
F68	F	1.582753	0.712563	0.783296
H69	H	0.942250	-0.186231	0.066184
H70	H	1.442250	0.313769	0.566184
H71	H	0.900704	0.000068	0.364970
H72	H	1.400704	0.500068	0.864970
