data_functionalizedCrystal
_audit_creation_method	'MofGen! by Chris Wilmer'
_symmetry_space_group_name_H-M	'P1'
_symmetry_Int_Tables_number	1
_symmetry_cell_setting	triclinic
loop_
_symmetry_equiv_pos_as_xyz
  x,y,z
_cell_length_a	13.635800
_cell_length_b	13.248089
_cell_length_c	9.170643
_cell_angle_alpha	67.594618
_cell_angle_beta	67.540368
_cell_angle_gamma	39.683761
loop_
_atom_site_label
_atom_site_type_symbol
_atom_site_fract_x
_atom_site_fract_y
_atom_site_fract_z
V1	V	2.185419	-0.467856	0.278460
O2	O	2.288865	-0.490260	0.055266
O3	O	2.051356	-0.434543	0.486116
O4	O	2.285818	-0.685643	0.304298
O5	O	2.052780	-0.237423	0.238343
V6	V	2.425324	-0.443953	0.248204
O7	O	2.320121	-0.520291	0.344828
O8	O	2.515720	-0.391518	0.181836
O9	O	2.447784	-0.477265	0.040547
O10	O	2.380576	-0.421549	0.471397
O11	O	2.616661	-0.674386	0.288320
O12	O	2.213322	-0.226166	0.222366
C13	C	1.943098	-0.419393	0.535797
C14	C	1.874959	-0.393607	0.705753
C15	C	2.242177	-0.739693	0.303867
C16	C	2.364178	-0.917537	0.326367
C17	C	1.934497	-0.388362	0.794439
C18	C	1.870503	-0.364157	0.954138
C19	C	1.746963	-0.345188	1.025146
C20	C	1.687426	-0.350439	0.936450
C21	C	1.751427	-0.374655	0.776756
V22	V	2.685419	-0.467856	0.278460
O23	O	2.788865	-0.490260	0.055266
O24	O	2.551356	-0.434543	0.486116
O25	O	2.785818	-0.685643	0.304298
O26	O	2.552780	-0.237423	0.238343
V27	V	2.925324	-0.443953	0.248204
O28	O	2.820121	-0.520291	0.344828
O29	O	3.015720	-0.391518	0.181836
O30	O	2.947784	-0.477265	0.040547
O31	O	2.880576	-0.421549	0.471397
O32	O	3.116661	-0.674386	0.288320
O33	O	2.713322	-0.226166	0.222366
C34	C	2.387706	-0.492411	-0.009126
C35	C	2.445469	-0.518206	-0.179079
C36	C	2.588626	-0.172107	0.222800
C37	C	2.456247	0.005738	0.200293
C38	C	2.443098	-0.419393	0.535797
C39	C	2.374959	-0.393607	0.705753
C40	C	2.088626	-0.172107	0.222800
C41	C	1.956247	0.005738	0.200293
C42	C	2.742177	-0.739693	0.303867
C43	C	2.864178	-0.917537	0.326367
C44	C	2.887706	-0.492411	-0.009126
C45	C	2.945469	-0.518206	-0.179079
C46	C	1.808410	0.082228	0.198437
C47	C	1.684017	0.249331	0.177270
C48	C	1.707461	0.339940	0.157971
C49	C	1.855315	0.263439	0.159823
C50	C	1.979707	0.096339	0.180978
C51	C	3.013187	-1.008104	0.345654
C52	C	3.127840	-1.175208	0.366774
C53	C	3.093480	-1.251742	0.368618
C54	C	2.944457	-1.161163	0.349324
C55	C	2.829810	-0.994062	0.328193
C56	C	3.058426	-0.523456	-0.267763
C57	C	3.112697	-0.547668	-0.427461
C58	C	3.054015	-0.566641	-0.498467
C59	C	2.941044	-0.561385	-0.409773
C60	C	2.886767	-0.537163	-0.250082
H61	H	2.035083	-0.403794	0.736644
H62	H	1.563640	0.311594	0.175766
C63	C	1.936002	-0.358381	1.051681
H64	H	1.880215	-0.341265	1.156968
H65	H	1.925515	-0.273544	1.002631
H66	H	2.042691	-0.456797	1.055642
H67	H	1.606155	0.476002	0.140766
H68	H	1.694863	-0.325471	1.155180
C69	C	2.142315	0.012217	0.183045
H70	H	2.138443	0.090123	0.168539
H71	H	2.213574	-0.050974	0.099328
H72	H	2.175232	-0.054373	0.282570
C73	C	2.383774	-1.012589	0.495444
H74	H	2.309649	-0.940606	0.571519
H75	H	2.485536	-1.082397	0.515145
H76	H	2.368198	-1.073385	0.503981
C77	C	1.551526	-0.329556	1.014569
H78	H	1.521936	-0.314365	1.122371
H79	H	1.582959	-0.422314	1.011288
H80	H	1.465818	-0.239068	0.958251
C81	C	2.233716	-0.222829	-0.251817
H82	H	2.212126	-0.227306	-0.139328
H83	H	2.146030	-0.172285	-0.289292
H84	H	2.255873	-0.163539	-0.300630
C85	C	2.586725	-0.688997	-0.221506
H86	H	2.623206	-0.763704	-0.126465
H87	H	2.666965	-0.699947	-0.287778
H88	H	2.557134	-0.708711	-0.276429
C89	C	2.906675	-1.245367	0.351374
H90	H	2.996299	-1.357855	0.366743
H91	H	2.875571	-1.213391	0.252719
H92	H	2.824855	-1.216823	0.435966
H93	H	2.441726	-0.923893	0.075146
C94	C	1.685905	-0.380394	0.679210
H95	H	1.603154	-0.365609	0.744377
H96	H	1.765630	-0.481167	0.643043
H97	H	1.648473	-0.297915	0.590042
H98	H	2.708482	-0.920334	0.312493
C99	C	1.782595	-0.017412	0.219648
H100	H	1.676730	0.052095	0.215488
H101	H	1.808398	-0.084608	0.319875
H102	H	1.846712	-0.081171	0.136628
C103	C	3.122984	-0.502576	-0.189689
H104	H	3.198015	-0.509155	-0.265402
H105	H	3.170191	-0.584453	-0.101245
H106	H	3.040564	-0.401208	-0.154289
H107	H	1.874382	0.337238	0.144102
C108	C	3.236971	-0.553461	-0.524991
H109	H	3.264157	-0.538719	-0.459814
H110	H	3.196924	-0.471006	-0.614169
H111	H	3.326518	-0.654257	-0.561134
H112	H	3.098223	-0.586363	-0.628500
H113	H	3.041192	-0.945813	0.344161
C114	C	2.876522	-0.582278	-0.487890
H115	H	2.925049	-0.597476	-0.595689
H116	H	2.767559	-0.489521	-0.484615
H117	H	2.897190	-0.672765	-0.431566
H118	H	2.794798	-0.532905	-0.177882
H119	H	3.249170	-1.248935	0.382488
H120	H	3.186847	-1.387808	0.385827
