data_functionalizedCrystal
_audit_creation_method	'MofGen! by Chris Wilmer'
_symmetry_space_group_name_H-M	'P1'
_symmetry_Int_Tables_number	1
_symmetry_cell_setting	triclinic
loop_
_symmetry_equiv_pos_as_xyz
  x,y,z
_cell_length_a	10.654550
_cell_length_b	16.992695
_cell_length_c	9.730223
_cell_angle_alpha	89.998169
_cell_angle_beta	89.996251
_cell_angle_gamma	87.576563
loop_
_atom_site_label
_atom_site_type_symbol
_atom_site_fract_x
_atom_site_fract_y
_atom_site_fract_z
O1	O	1.677356	0.110186	-0.114405
O2	O	1.312785	0.120685	-0.114384
O3	O	1.493609	0.001285	-0.114383
O4	O	1.496532	0.229586	-0.114405
O5	O	1.493607	0.001288	0.114196
O6	O	1.312783	0.120688	0.114196
O7	O	1.677354	0.110189	0.114175
Zn8	Zn	1.495068	0.115439	0.150477
Zn9	Zn	1.495071	0.115435	-0.150686
O10	O	1.496530	0.229589	0.114174
C11	C	1.265919	0.119915	-0.000091
C12	C	1.126277	0.117609	-0.000082
C13	C	1.052866	0.187910	-0.000109
C14	C	0.921658	0.185738	-0.000132
C15	C	0.937282	0.042959	-0.000108
C16	C	1.068488	0.045131	-0.000075
C17	C	1.043844	0.270342	-0.000129
C18	C	0.912636	0.268171	-0.000152
C19	C	1.489848	-0.027947	-0.000093
C20	C	1.478628	-0.115052	-0.000093
C21	C	1.586879	-0.164704	-0.000098
C22	C	1.576330	-0.246548	-0.000111
C23	C	1.457529	-0.278738	-0.000108
C24	C	1.349270	-0.229080	-0.000107
C25	C	1.359820	-0.147237	-0.000105
C26	C	1.413802	-0.522574	-0.000124
C27	C	1.403260	-0.604422	-0.000123
C28	C	1.630321	-0.621884	-0.000129
C29	C	1.640861	-0.540040	-0.000118
C30	C	1.532602	-0.490389	-0.000124
N31	N	1.446743	-0.362396	-0.000116
N32	N	1.543389	-0.406733	-0.000126
C33	C	1.724220	0.110959	-0.000121
C34	C	1.863862	0.113265	-0.000139
C35	C	1.500291	0.258821	-0.000119
C36	C	1.511510	0.345926	-0.000128
N37	N	1.495075	0.115441	0.356014
N38	N	1.495073	0.115427	-0.356223
C39	C	1.575168	0.062589	0.427940
C40	C	1.575164	0.062580	0.571823
C41	C	1.414971	0.168281	0.571841
C42	C	1.414970	0.168286	0.427961
C43	C	1.667658	0.001565	0.427931
C44	C	1.667654	0.001556	0.571814
H45	H	0.869116	0.293084	0.098529
C46	C	1.272573	-0.639830	-0.000144
H47	H	1.209608	-0.598539	-0.000164
H48	H	1.263724	-0.671398	0.079563
H49	H	1.263760	-0.671391	-0.079869
C50	C	1.619804	-0.075425	0.632107
H51	H	1.598504	-0.109702	0.559394
H52	H	1.547661	-0.063904	0.687068
H53	H	1.683750	-0.100168	0.687043
C54	C	1.294725	-0.467965	-0.000132
H55	H	1.318015	-0.414611	-0.000150
H56	H	1.246341	-0.477789	0.079577
H57	H	1.246362	-0.477794	-0.079855
C58	C	1.793061	0.027376	0.367616
H59	H	1.788781	0.026506	0.270107
H60	H	1.859219	-0.007688	0.397753
H61	H	1.808535	0.079249	0.397763
H62	H	0.873588	0.299229	-0.095823
H63	H	1.081769	0.296589	-0.098819
H64	H	1.765327	0.014998	0.610857
H65	H	1.128255	-0.012114	-0.000033
C66	C	1.326878	0.226426	0.348840
H67	H	1.338344	0.218860	0.252845
H68	H	1.345775	0.278862	0.372429
H69	H	1.242159	0.217414	0.372418
C70	C	1.771542	-0.504636	-0.000139
H71	H	1.834503	-0.545929	-0.000158
H72	H	1.780382	-0.473072	0.079569
H73	H	1.780369	-0.473072	-0.079863
H74	H	1.641004	-0.058735	0.388884
H75	H	0.890215	-0.016050	-0.000123
C76	C	1.218592	-0.264487	-0.000101
H77	H	1.227810	-0.320341	-0.000088
H78	H	1.173671	-0.247486	-0.079807
H79	H	1.173679	-0.247486	0.079625
C80	C	1.240745	-0.092620	-0.000096
H81	H	1.168479	-0.123512	-0.000083
H82	H	1.240143	-0.060329	-0.079806
H83	H	1.240139	-0.060333	0.079626
C84	C	1.717559	-0.129297	-0.000096
H85	H	1.708342	-0.073443	-0.000080
H86	H	1.762480	-0.146296	-0.079808
H87	H	1.762470	-0.146302	0.079623
C88	C	1.749398	-0.676498	-0.000136
H89	H	1.821661	-0.645604	-0.000130
H90	H	1.750004	-0.708785	-0.079848
H91	H	1.750004	-0.708789	0.079584
C92	C	1.087240	0.313903	0.129087
H93	H	1.016051	0.330336	0.182216
H94	H	1.131892	0.358666	0.102509
H95	H	1.140536	0.279573	0.182265
C96	C	1.695402	-0.301165	-0.000130
H97	H	1.672108	-0.354518	-0.000153
H98	H	1.743784	-0.291349	0.079576
H99	H	1.743770	-0.291330	-0.079856
C100	C	1.326870	0.226410	0.650987
H101	H	1.338345	0.218842	0.746979
H102	H	1.242159	0.217405	0.627410
H103	H	1.345775	0.278854	0.627411
