data_functionalizedCrystal
_audit_creation_method	'MofGen! by Chris Wilmer'
_symmetry_space_group_name_H-M	'P1'
_symmetry_Int_Tables_number	1
_symmetry_cell_setting	triclinic
loop_
_symmetry_equiv_pos_as_xyz
  x,y,z
_cell_length_a	12.759401
_cell_length_b	19.076919
_cell_length_c	12.759393
_cell_angle_alpha	92.335790
_cell_angle_beta	89.980324
_cell_angle_gamma	87.669368
loop_
_atom_site_label
_atom_site_type_symbol
_atom_site_fract_x
_atom_site_fract_y
_atom_site_fract_z
Zn1	Zn	1.589336	0.280176	-0.577129
Zn2	Zn	1.922669	0.613509	-0.243796
Zn3	Zn	2.256003	0.946843	0.089538
Zn4	Zn	1.582114	0.397897	-0.394367
Zn5	Zn	1.915447	0.731230	-0.061033
Zn6	Zn	2.248780	1.064563	0.272300
Zn7	Zn	1.413633	0.280211	-0.401466
Zn8	Zn	1.746966	0.613544	-0.068132
Zn9	Zn	2.080299	0.946878	0.265201
Zn10	Zn	1.406516	0.397845	-0.570011
Zn11	Zn	1.739850	0.731179	-0.236678
Zn12	Zn	2.073183	1.064512	0.096656
O13	O	1.497900	0.339032	-0.485743
O14	O	1.831233	0.672366	-0.152410
O15	O	2.164566	1.005699	0.180924
O16	O	1.735399	0.295799	-0.552893
O17	O	2.068732	0.629132	-0.219560
O18	O	2.402065	0.962465	0.113774
O19	O	1.559720	0.382322	-0.248285
O20	O	1.893053	0.715655	0.085048
O21	O	2.226387	1.048988	0.418382
O22	O	1.442941	0.181710	-0.430718
O23	O	1.776274	0.515043	-0.097384
O24	O	2.109608	0.848376	0.235949
O25	O	1.730092	0.382288	-0.418618
O26	O	2.063426	0.715621	-0.085285
O27	O	2.396759	1.048954	0.248048
O28	O	1.572029	0.181684	-0.559777
O29	O	1.905363	0.515017	-0.226443
O30	O	2.238696	0.848350	0.106890
O31	O	1.435938	0.295859	-0.253501
O32	O	1.769271	0.629192	0.079833
O33	O	2.102604	0.962525	0.413166
O34	O	1.265668	0.295809	-0.423816
O35	O	1.599001	0.629142	-0.090482
O36	O	1.932335	0.962475	0.242851
O37	O	1.430812	0.382200	-0.717978
O38	O	1.764145	0.715533	-0.384645
O39	O	2.097479	1.048867	-0.051312
O40	O	1.260440	0.382234	-0.547645
O41	O	1.593773	0.715567	-0.214312
O42	O	1.927106	1.048901	0.119022
O43	O	1.565129	0.295749	-0.723208
O44	O	1.898462	0.629082	-0.389875
O45	O	2.231796	0.962415	-0.056541
O46	O	1.552819	0.496387	-0.411716
O47	O	1.886153	0.829720	-0.078383
O48	O	2.219486	1.163054	0.254950
O49	O	1.423809	0.496349	-0.540761
O50	O	1.757142	0.829682	-0.207428
O51	O	2.090475	1.163016	0.125905
C52	C	1.224933	0.339020	-0.485729
C53	C	1.558266	0.672354	-0.152396
C54	C	1.891600	1.005687	0.180938
C55	C	1.108156	0.339032	-0.485747
C56	C	1.441489	0.672365	-0.152414
C57	C	1.774822	1.005699	0.180920
C58	C	1.056052	0.294079	-0.555762
C59	C	1.389386	0.627412	-0.222429
C60	C	1.722719	0.960745	0.110904
C61	C	0.946328	0.294086	-0.555769
C62	C	1.279661	0.627419	-0.222436
C63	C	1.612995	0.960752	0.110898
C64	C	0.940819	0.384006	-0.415741
C65	C	1.274153	0.717339	-0.082408
C66	C	1.607486	1.050672	0.250926
C67	C	1.050542	0.383995	-0.415730
C68	C	1.383875	0.717328	-0.082397
C69	C	1.717209	1.050661	0.250936
C70	C	1.486787	0.521907	-0.474719
C71	C	1.820120	0.855240	-0.141386
C72	C	2.153453	1.188574	0.191948
C73	C	1.482128	0.600142	-0.470038
C74	C	1.815462	0.933475	-0.136705
C75	C	2.148795	1.266808	0.196629
C76	C	1.547099	0.636823	-0.535087
C77	C	1.880433	0.970156	-0.201754
C78	C	2.213766	1.303489	0.131579
C79	C	1.542718	0.710332	-0.530691
C80	C	1.876052	1.043666	-0.197358
C81	C	2.209385	1.376999	0.135976
C82	C	1.473371	0.747160	-0.461239
C83	C	1.806704	1.080493	-0.127906
C84	C	2.140038	1.413827	0.205427
C85	C	1.408393	0.710474	-0.396187
C86	C	1.741726	1.043807	-0.062854
C87	C	2.075060	1.377141	0.270479
C88	C	1.412769	0.636966	-0.400590
C89	C	1.746103	0.970299	-0.067256
C90	C	2.079436	1.303632	0.266077
C91	C	1.453076	0.967014	-0.440866
C92	C	1.786409	1.300348	-0.107533
C93	C	2.119742	1.633681	0.225801
C94	C	1.448706	1.040528	-0.436466
C95	C	1.782040	1.373861	-0.103133
C96	C	2.115373	1.707195	0.230200
C97	C	1.583031	1.040381	-0.570972
C98	C	1.916364	1.373715	-0.237639
C99	C	2.249697	1.707048	0.095695
C100	C	1.587405	0.966871	-0.575364
C101	C	1.920739	1.300205	-0.242030
C102	C	2.254072	1.633538	0.091303
C103	C	1.522424	0.930192	-0.510316
C104	C	1.855757	1.263525	-0.176982
C105	C	2.189090	1.596859	0.156351
N106	N	1.468894	0.822299	-0.456741
N107	N	1.802227	1.155632	-0.123408
N108	N	2.135560	1.488965	0.209925
N109	N	1.526897	0.855054	-0.514820
N110	N	1.860230	1.188388	-0.181486
N111	N	2.193563	1.521721	0.151847
C112	C	1.771932	0.339045	-0.485758
C113	C	2.105265	0.672378	-0.152425
C114	C	2.438599	1.005712	0.180909
C115	C	1.888708	0.339050	-0.485764
C116	C	2.222042	0.672384	-0.152431
C117	C	2.555375	1.005717	0.180903
C118	C	1.509041	1.155443	-0.496822
C119	C	1.842374	1.488777	-0.163489
C120	C	2.175708	1.822110	0.169844
C121	C	1.513677	1.077209	-0.501516
C122	C	1.847010	1.410542	-0.168182
C123	C	2.180344	1.743875	0.165151
C124	C	1.497982	0.338965	-0.759781
C125	C	1.831316	0.672298	-0.426447
C126	C	2.164649	1.005631	-0.093114
C127	C	1.498018	0.338936	-0.876559
C128	C	1.831351	0.672269	-0.543226
C129	C	2.164684	1.005603	-0.209892
C130	C	1.567962	0.293914	-0.934146
C131	C	1.901295	0.627247	-0.600813
C132	C	2.234628	0.960580	-0.267480
C133	C	1.567981	0.293883	-1.043872
C134	C	1.901315	0.627217	-0.710539
C135	C	2.234648	0.960550	-0.377206
C136	C	1.428109	0.383904	-1.038414
C137	C	1.761443	0.717237	-0.705081
C138	C	2.094776	1.050570	-0.371747
C139	C	1.428085	0.383930	-0.928690
C140	C	1.761419	0.717263	-0.595357
C141	C	2.094752	1.050597	-0.262023
C142	C	1.497881	0.339049	-0.212775
C143	C	1.831214	0.672382	0.120559
C144	C	2.164547	1.005715	0.453892
C145	C	1.498061	0.338879	-0.096009
C146	C	1.831394	0.672213	0.237325
C147	C	2.164728	1.005546	0.570658
H148	H	1.603574	0.606842	-0.591638
H149	H	1.936907	0.940176	-0.258305
H150	H	2.270240	1.273509	0.075029
Cl151	Cl	1.655924	0.237287	-1.116263
Cl152	Cl	1.989258	0.570621	-0.782929
Cl153	Cl	2.322591	0.903954	-0.449596
H154	H	1.102959	0.257465	-0.612771
H155	H	1.436292	0.590798	-0.279438
H156	H	1.769625	0.924131	0.053896
H157	H	1.400167	0.937156	-0.387899
H158	H	1.733500	1.270489	-0.054566
H159	H	2.066834	1.603822	0.278767
Cl160	Cl	1.361524	1.086825	-0.349145
Cl161	Cl	1.694857	1.420158	-0.015812
Cl162	Cl	2.028191	1.753491	0.317522
Cl163	Cl	0.880831	0.237569	-0.643791
Cl164	Cl	1.214165	0.570903	-0.310458
Cl165	Cl	1.547498	0.904236	0.022875
H166	H	0.893897	0.420613	-0.358737
H167	H	1.227230	0.753947	-0.025404
H168	H	1.560563	1.087280	0.307930
Cl169	Cl	1.116049	0.440505	-0.327693
Cl170	Cl	1.449382	0.773838	0.005640
Cl171	Cl	1.782715	1.107172	0.338974
H172	H	1.371175	0.420538	-1.080872
H173	H	1.704508	0.753871	-0.747539
H174	H	2.037842	1.087204	-0.414206
Cl175	Cl	1.340142	0.440530	-0.856289
Cl176	Cl	1.673476	0.773864	-0.522956
Cl177	Cl	2.006809	1.107197	-0.189623
H178	H	1.595632	0.740195	-0.583653
H179	H	1.928966	1.073528	-0.250320
H180	H	2.262299	1.406861	0.083014
Cl181	Cl	1.664712	1.086497	-0.652746
Cl182	Cl	1.998045	1.419830	-0.319412
Cl183	Cl	2.331379	1.753163	0.013921
Cl184	Cl	1.674587	0.920579	-0.662680
Cl185	Cl	2.007920	1.253913	-0.329346
Cl186	Cl	2.341254	1.587246	0.003987
Cl187	Cl	1.321203	0.756772	-0.308886
Cl188	Cl	1.654536	1.090105	0.024447
Cl189	Cl	1.987869	1.423438	0.357780
Cl190	Cl	1.331087	0.590852	-0.318811
Cl191	Cl	1.664420	0.924186	0.014522
Cl192	Cl	1.997754	1.257519	0.347855
Cl193	Cl	1.655872	0.237347	-0.868614
Cl194	Cl	1.989206	0.570680	-0.535280
Cl195	Cl	2.322539	0.904014	-0.201947
