data_functionalizedCrystal
_audit_creation_method	'MofGen! by Chris Wilmer'
_symmetry_space_group_name_H-M	'P1'
_symmetry_Int_Tables_number	1
_symmetry_cell_setting	triclinic
loop_
_symmetry_equiv_pos_as_xyz
  x,y,z
_cell_length_a	15.537937
_cell_length_b	15.186229
_cell_length_c	16.109301
_cell_angle_alpha	89.998949
_cell_angle_beta	114.637940
_cell_angle_gamma	90.004193
loop_
_atom_site_label
_atom_site_type_symbol
_atom_site_fract_x
_atom_site_fract_y
_atom_site_fract_z
O1	O	-1.250065	-0.073198	-0.270171
O2	O	-0.975762	-0.073208	-0.174140
O3	O	-1.120449	-0.073194	-0.345459
O4	O	-1.105378	-0.073212	-0.098852
O5	O	-1.120431	0.073263	-0.345445
O6	O	-0.975744	0.073250	-0.174125
O7	O	-1.250048	0.073259	-0.270157
Zn8	Zn	-1.112893	0.096507	-0.222139
Zn9	Zn	-1.112917	-0.096456	-0.222158
O10	O	-1.105361	0.073245	-0.098837
C11	C	-0.940653	0.000020	-0.164084
C12	C	-0.836064	0.000017	-0.134155
C13	C	-0.677398	0.000007	-0.012841
C14	C	-0.775676	0.000010	-0.040974
C15	C	-0.798190	0.000025	-0.199240
C16	C	-0.699912	0.000027	-0.171120
C17	C	-0.639523	0.000017	-0.077920
C18	C	-0.662038	0.000037	-0.236199
C19	C	-0.563768	0.000034	-0.208081
C20	C	-0.503373	0.000021	-0.114885
C21	C	-0.541254	0.000014	-0.049802
C22	C	-0.722428	0.000041	-0.329399
C23	C	-0.684554	0.000051	-0.394478
C24	C	-0.586282	0.000054	-0.366361
C25	C	-0.525887	0.000041	-0.273164
C26	C	-0.548402	0.000061	-0.431444
C27	C	-0.450132	0.000058	-0.403326
C28	C	-0.427618	0.000038	-0.245047
N29	N	-1.112884	0.228200	-0.222129
C30	C	-1.170023	0.453921	-0.188932
C31	C	-1.170032	0.546111	-0.188939
C32	C	-1.055787	0.546124	-0.255366
C33	C	-1.055783	0.453936	-0.255364
C34	C	-1.112899	0.407837	-0.222141
C35	C	-1.112913	0.592214	-0.222151
C36	C	-1.112923	0.692171	-0.222160
C37	C	-1.112890	0.307874	-0.222134
C38	C	-0.285156	0.000035	-0.280208
C39	C	-0.389743	0.000048	-0.310125
C40	C	-1.119830	0.000035	-0.376243
C41	C	-1.117999	0.000036	-0.467986
N42	N	-1.112928	0.771851	-0.222164
C43	C	-1.199598	0.000025	-0.714869
C44	C	-1.197871	0.000018	-0.801069
C45	C	-1.026205	0.000016	-0.729418
C46	C	-1.027933	0.000017	-0.643221
C47	C	-1.114632	0.000026	-0.635950
C48	C	-1.111177	0.000018	-0.808347
C49	C	-1.109304	0.000010	-0.901808
C50	C	-1.116506	0.000032	-0.542483
C51	C	-1.105980	0.000014	-0.068054
C52	C	-1.107810	0.000007	0.023689
H53	H	-0.628225	0.000011	0.063052
Cl54	Cl	-0.351692	0.000043	-0.127878
H55	H	-1.009283	0.583669	-0.282413
H56	H	-1.267059	0.000016	-0.865325
Cl57	Cl	-1.241834	0.395971	-0.147176
Cl58	Cl	-1.241850	0.604041	-0.147190
Cl59	Cl	-0.983962	0.395997	-0.297114
H60	H	-0.806508	0.000012	0.012029
Cl61	Cl	-0.379832	0.000014	-0.079534
Cl62	Cl	-0.874116	0.000039	-0.316402
H63	H	-1.270194	0.000031	-0.708954
Cl64	Cl	-0.921110	0.000010	-0.544000
Cl65	Cl	-0.465328	0.000019	0.067367
Cl66	Cl	-0.760479	0.000065	-0.511640
Cl67	Cl	-0.845969	0.000039	-0.364747
Cl68	Cl	-0.624330	0.000064	-0.548605
H69	H	-0.955617	0.000010	-0.735350
Cl70	Cl	-0.402514	0.000079	-0.485140
