data_functionalizedCrystal
_audit_creation_method	'MofGen! by Chris Wilmer'
_symmetry_space_group_name_H-M	'P1'
_symmetry_Int_Tables_number	1
_symmetry_cell_setting	triclinic
loop_
_symmetry_equiv_pos_as_xyz
  x,y,z
_cell_length_a	17.077404
_cell_length_b	12.759400
_cell_length_c	17.077396
_cell_angle_alpha	89.975532
_cell_angle_beta	89.981638
_cell_angle_gamma	90.011136
loop_
_atom_site_label
_atom_site_type_symbol
_atom_site_fract_x
_atom_site_fract_y
_atom_site_fract_z
Zn1	Zn	1.200108	-0.418323	-0.443841
Zn2	Zn	1.200037	-0.594024	-0.312584
Zn3	Zn	1.068839	-0.418353	-0.312591
Zn4	Zn	1.068830	-0.593954	-0.443810
O5	O	1.134453	-0.506164	-0.378207
O6	O	1.309945	-0.441647	-0.426439
O7	O	1.182608	-0.570762	-0.202738
O8	O	1.086286	-0.271328	-0.330018
O9	O	1.309893	-0.570733	-0.330005
O10	O	1.182728	-0.271306	-0.426446
O11	O	1.086218	-0.441698	-0.202743
O12	O	0.958991	-0.441631	-0.329988
O13	O	1.086269	-0.570615	-0.553661
O14	O	0.958984	-0.570644	-0.426394
O15	O	1.182719	-0.441580	-0.553684
O16	O	1.182598	-0.741036	-0.329975
O17	O	1.086201	-0.740985	-0.426387
C18	C	0.930506	-0.506134	-0.378189
C19	C	0.843256	-0.506146	-0.378200
C20	C	0.802293	-0.439051	-0.428490
C21	C	0.720313	-0.439057	-0.428493
C22	C	0.679296	-0.506166	-0.378211
C23	C	0.720264	-0.573265	-0.327915
C24	C	0.802243	-0.573252	-0.327908
C25	C	0.549394	-0.573289	-0.327935
C26	C	0.467410	-0.573303	-0.327943
C27	C	0.467464	-0.439094	-0.428520
C28	C	0.549443	-0.439081	-0.428513
C29	C	0.590405	-0.506182	-0.378218
C30	C	1.134412	-0.779131	-0.378194
C31	C	1.134466	-0.895908	-0.378215
C32	C	1.184659	-0.950678	-0.428466
C33	C	1.184695	-1.060402	-0.428486
C34	C	1.084345	-1.060575	-0.327995
C35	C	1.084305	-0.950853	-0.327981
C36	C	1.242598	-0.950580	-0.486482
C37	C	1.242634	-1.060304	-0.486501
C38	C	1.339198	-0.506194	-0.378225
C39	C	1.426447	-0.506207	-0.378232
C40	C	1.134501	-0.506086	-0.582951
C41	C	1.134521	-0.506053	-0.670201
C42	C	1.134516	-0.232130	-0.378236
C43	C	1.134543	-0.115354	-0.378249
C44	C	1.184744	-0.438859	-0.711204
C45	C	1.184754	-0.438824	-0.793184
C46	C	1.134543	-0.505989	-0.834160
C47	C	1.084315	-0.573187	-0.793151
C48	C	1.084302	-0.573216	-0.711172
C49	C	1.084347	-0.573124	-0.964022
C50	C	1.084360	-0.573096	-1.046006
C51	C	1.184798	-0.438732	-1.046034
C52	C	1.184785	-0.438761	-0.964055
C53	C	1.134557	-0.505960	-0.923051
C54	C	1.134451	-0.506165	-0.174259
C55	C	1.134583	-0.505902	-0.087009
H56	H	0.686862	-0.627901	-0.286970
O57	O	0.427648	-0.638631	-0.279135
C58	C	0.447662	-0.743375	-0.296158
H59	H	0.507200	-0.745606	-0.326317
H60	H	0.401541	-0.778838	-0.336478
C61	C	0.378274	-0.804134	-0.182504
C62	C	0.451404	-0.806874	-0.219540
H63	H	0.380579	-0.843306	-0.135244
H64	H	0.364788	-0.733567	-0.171037
H65	H	0.339848	-0.833684	-0.216112
H66	H	0.489827	-0.777312	-0.185936
H67	H	0.464897	-0.877438	-0.231000
O68	O	1.035544	-0.638517	-0.924311
C69	C	0.991224	-0.697787	-0.978054
H70	H	1.023377	-0.701384	-1.036502
H71	H	0.931606	-0.659327	-0.986756
C72	C	0.940421	-0.805206	-0.874268
C73	C	0.979916	-0.809632	-0.946052
H74	H	0.933442	-0.874196	-0.854526
H75	H	0.970278	-0.765273	-0.838059
H76	H	0.890744	-0.773152	-0.881529
H77	H	1.029596	-0.841674	-0.938788
H78	H	0.950067	-0.849574	-0.982259
O79	O	1.035609	-0.638647	-0.671370
C80	C	1.052738	-0.743351	-0.691406
H81	H	1.115447	-0.748648	-0.713959
H82	H	1.010650	-0.770800	-0.738975
C83	C	0.966569	-0.806985	-0.590869
C84	C	1.043593	-0.813493	-0.618563
H85	H	0.960925	-0.850254	-0.545937
H86	H	0.955027	-0.736444	-0.577371
H87	H	0.931505	-0.829857	-0.630516
H88	H	1.078655	-0.790609	-0.578919
H89	H	1.055141	-0.884032	-0.632052
H90	H	1.043430	-0.627870	-0.826520
O91	O	1.233549	-0.373299	-1.085769
C92	C	1.216403	-0.268593	-1.065752
H93	H	1.186216	-0.266441	-1.006226
H94	H	1.176063	-0.233175	-1.111887
C95	C	1.330019	-0.207612	-1.135086
C96	C	1.292949	-0.204969	-1.061972
H97	H	1.377235	-0.168364	-1.132758
H98	H	1.341570	-0.278154	-1.148575
H99	H	1.296395	-0.178099	-1.173524
H100	H	1.326569	-0.234494	-1.023538
H101	H	1.281406	-0.134430	-1.048477
O102	O	1.035511	-1.113904	-0.279281
C103	C	0.957258	-1.087125	-0.296351
H104	H	0.953251	-1.056912	-0.359053
H105	H	0.936742	-1.023489	-0.254238
C106	C	0.909829	-1.221754	-0.210176
C107	C	0.904906	-1.184655	-0.287189
H108	H	0.877534	-1.281913	-0.204521
H109	H	0.962549	-1.239794	-0.198672
H110	H	0.892733	-1.168715	-0.175090
H111	H	0.922011	-1.237688	-0.322272
H112	H	0.852187	-1.166626	-0.298698
O113	O	0.589274	-0.638522	-0.279190
C114	C	0.636692	-0.706461	-0.323797
H115	H	0.648997	-0.669502	-0.383330
H116	H	0.605098	-0.784339	-0.332327
C117	C	0.699435	-0.770795	-0.207462
C118	C	0.714553	-0.725397	-0.280579
H119	H	0.747462	-0.782480	-0.180802
H120	H	0.667487	-0.725027	-0.177409
H121	H	0.673104	-0.835688	-0.214581
H122	H	0.740874	-0.660499	-0.273458
H123	H	0.746508	-0.771155	-0.310630
H124	H	1.226272	-0.920769	-0.547259
H125	H	0.835683	-0.384406	-0.469438
H126	H	0.686965	-0.384423	-0.469446
H127	H	0.835594	-0.627888	-0.286957
O128	O	0.589167	-0.373794	-0.477382
C129	C	0.535435	-0.314589	-0.521787
H130	H	0.476983	-0.310902	-0.489649
H131	H	0.526742	-0.353164	-0.581357
C132	C	0.639239	-0.207316	-0.572709
C133	C	0.567448	-0.202780	-0.533233
H134	H	0.658986	-0.138348	-0.579773
H135	H	0.675439	-0.247205	-0.542795
H136	H	0.631984	-0.239466	-0.622347
H137	H	0.574705	-0.170643	-0.483593
H138	H	0.531249	-0.162882	-0.563139
H139	H	0.434108	-0.384456	-0.469470
O140	O	1.035459	-0.897604	-0.279283
C141	C	0.984727	-0.834128	-0.323926
H142	H	0.979864	-0.867146	-0.385751
H143	H	1.008963	-0.750946	-0.326635
C144	C	0.909113	-0.792001	-0.209578
C145	C	0.903135	-0.832559	-0.285512
H146	H	0.858784	-0.791028	-0.185882
H147	H	0.943293	-0.834762	-0.179501
H148	H	0.929313	-0.722686	-0.211847
H149	H	0.882945	-0.901877	-0.283242
H150	H	0.868949	-0.789809	-0.315588
H151	H	1.300347	-0.916512	-0.464750
H152	H	1.043473	-0.627786	-1.079367
H153	H	1.220823	-1.094306	-0.544234
O154	O	1.315239	-1.095668	-0.467230
C155	C	1.370137	-1.058675	-0.522389
H156	H	1.346247	-0.985277	-0.552027
H157	H	1.381151	-1.121744	-0.568357
C158	C	1.476840	-1.122366	-0.444109
C159	C	1.447500	-1.032212	-0.480507
H160	H	1.524563	-1.106047	-0.418276
H161	H	1.439855	-1.147293	-0.406948
H162	H	1.486012	-1.174915	-0.482422
H163	H	1.438319	-0.979670	-0.442193
H164	H	1.484486	-1.007276	-0.517660
H165	H	1.225634	-0.384168	-0.677847
O166	O	1.233617	-0.373522	-0.832893
C167	C	1.277922	-0.314234	-0.779148
H168	H	1.280618	-0.357292	-0.720707
H169	H	1.249198	-0.234437	-0.770432
C170	C	1.358164	-0.246218	-0.882936
C171	C	1.361481	-0.299106	-0.811159
H172	H	1.409707	-0.236881	-0.902683
H173	H	1.328314	-0.286158	-0.919146
H174	H	1.334225	-0.179726	-0.875663
H175	H	1.385411	-0.365601	-0.818435
H176	H	1.391337	-0.259177	-0.774951
H177	H	1.225675	-0.384075	-0.930694
