data_functionalizedCrystal
_audit_creation_method	'MofGen! by Chris Wilmer'
_symmetry_space_group_name_H-M	'P1'
_symmetry_Int_Tables_number	1
_symmetry_cell_setting	triclinic
loop_
_symmetry_equiv_pos_as_xyz
  x,y,z
_cell_length_a	16.109295
_cell_length_b	16.109301
_cell_length_c	15.186229
_cell_angle_alpha	89.996650
_cell_angle_beta	90.000628
_cell_angle_gamma	96.539666
loop_
_atom_site_label
_atom_site_type_symbol
_atom_site_fract_x
_atom_site_fract_y
_atom_site_fract_z
O1	O	-0.106866	1.103128	-0.073222
O2	O	0.226467	1.436462	0.260111
O3	O	0.559800	1.769795	0.593445
O4	O	-0.120166	0.861066	-0.073223
O5	O	0.213168	1.194400	0.260110
O6	O	0.546501	1.527733	0.593443
O7	O	0.007515	0.988749	-0.073224
O8	O	0.340849	1.322083	0.260110
O9	O	0.674182	1.655416	0.593443
O10	O	-0.234547	0.975445	-0.073222
O11	O	0.098786	1.308779	0.260112
O12	O	0.432119	1.642112	0.593445
O13	O	0.007517	0.988741	0.073233
O14	O	0.340850	1.322074	0.406567
O15	O	0.674184	1.655408	0.739900
O16	O	-0.120164	0.861058	0.073234
O17	O	0.213169	1.194391	0.406567
O18	O	0.546503	1.527724	0.739901
O19	O	-0.106865	1.103120	0.073235
O20	O	0.226469	1.436453	0.406568
O21	O	0.559802	1.769787	0.739902
Zn22	Zn	-0.113514	0.982087	0.096488
Zn23	Zn	0.219819	1.315421	0.429821
Zn24	Zn	0.553153	1.648754	0.763155
Zn25	Zn	-0.113516	0.982099	-0.096476
Zn26	Zn	0.219817	1.315432	0.236857
Zn27	Zn	0.553150	1.648765	0.570191
O28	O	-0.234546	0.975437	0.073236
O29	O	0.098788	1.308770	0.406569
O30	O	0.432121	1.642103	0.739902
C31	C	-0.119626	0.830087	0.000005
C32	C	0.213707	1.163420	0.333339
C33	C	0.547041	1.496754	0.666672
C34	C	-0.118011	0.737792	0.000005
C35	C	0.215322	1.071125	0.333338
C36	C	0.548656	1.404458	0.666671
C37	C	0.038491	0.988207	0.000003
C38	C	0.371824	1.321540	0.333336
C39	C	0.705158	1.654874	0.666669
C40	C	0.130787	0.986594	-0.000004
C41	C	0.464120	1.319927	0.333329
C42	C	0.797453	1.653261	0.666663
C43	C	0.353060	1.058606	-0.000036
C44	C	0.686393	1.391939	0.333297
C45	C	1.019726	1.725273	0.666631
C46	C	0.439780	1.057084	-0.000050
C47	C	0.773114	1.390417	0.333283
C48	C	1.106447	1.723750	0.666616
C49	C	0.419906	0.905595	-0.000047
C50	C	0.753239	1.238928	0.333287
C51	C	1.086573	1.572261	0.666620
C52	C	0.333187	0.907118	-0.000038
C53	C	0.666520	1.240451	0.333295
C54	C	0.999854	1.573784	0.666628
C55	C	0.299766	0.983626	-0.000029
C56	C	0.633100	1.316959	0.333305
C57	C	0.966433	1.650293	0.666638
C58	C	0.473206	0.980580	-0.000051
C59	C	0.806539	1.313914	0.333282
C60	C	1.139873	1.647247	0.666615
C61	C	0.567232	0.978929	-0.000067
C62	C	0.900566	1.312263	0.333266
C63	C	1.233899	1.645596	0.666600
C64	C	0.205734	0.985277	-0.000014
C65	C	0.539068	1.318611	0.333319
C66	C	0.872401	1.651944	0.666652
C67	C	-0.107404	1.134099	0.000005
C68	C	0.225929	1.467432	0.333338
C69	C	0.559263	1.800766	0.666671
C70	C	-0.109019	1.226394	-0.000000
C71	C	0.224314	1.559728	0.333333
C72	C	0.557647	1.893061	0.666666
C73	C	0.734479	0.975984	-0.000014
C74	C	1.067813	1.309317	0.333320
C75	C	1.401146	1.642651	0.666653
C76	C	0.642186	0.977612	-0.000076
C77	C	0.975519	1.310946	0.333257
C78	C	1.308852	1.644279	0.666591
N79	N	-0.113512	0.982086	0.228181
N80	N	0.219822	1.315419	0.561514
N81	N	0.553155	1.648753	0.894847
C82	C	-0.037011	1.448668	0.000003
C83	C	0.296322	1.782002	0.333337
C84	C	0.629655	2.115335	0.666670
C85	C	-0.038535	1.535389	0.000006
C86	C	0.294798	1.868722	0.333340
C87	C	0.628131	2.202055	0.666673
C88	C	-0.190025	1.515511	0.000004
C89	C	0.143309	1.848844	0.333337
C90	C	0.476642	2.182178	0.666670
C91	C	-0.188500	1.428792	0.000007
C92	C	0.144834	1.762126	0.333340
C93	C	0.478167	2.095459	0.666673
C94	C	-0.111991	1.395374	0.000002
C95	C	0.221343	1.728707	0.333335
C96	C	0.554676	2.062040	0.666669
C97	C	-0.115040	1.568813	0.000002
C98	C	0.218294	1.902146	0.333335
C99	C	0.551627	2.235479	0.666669
C100	C	-0.116693	1.662839	0.000005
C101	C	0.216641	1.996172	0.333339
C102	C	0.549974	2.329505	0.666672
C103	C	-0.110337	1.301342	0.000000
C104	C	0.222996	1.634675	0.333334
C105	C	0.556330	1.968008	0.666667
N106	N	-0.113512	0.982107	-0.228169
N107	N	0.219821	1.315440	0.105165
N108	N	0.553155	1.648774	0.438498
C109	C	-0.056994	1.038643	0.453903
C110	C	0.276340	1.371977	0.787236
C111	C	0.609673	1.705310	1.120570
C112	C	-0.056992	1.038646	0.546093
C113	C	0.276342	1.371979	0.879426
C114	C	0.609675	1.705313	1.212759
C115	C	-0.170033	0.925543	0.546102
C116	C	0.163301	1.258877	0.879436
C117	C	0.496634	1.592210	1.212769
C118	C	-0.170030	0.925538	0.453914
C119	C	0.163303	1.258871	0.787248
C120	C	0.496637	1.592204	1.120581
C121	C	-0.113511	0.982092	0.407817
C122	C	0.219822	1.315425	0.741150
C123	C	0.553155	1.648759	1.074484
C124	C	-0.113512	0.982101	0.592195
C125	C	0.219821	1.315434	0.925528
C126	C	0.553155	1.648767	1.258861
C127	C	-0.113510	0.982103	0.692151
C128	C	0.219823	1.315436	1.025484
C129	C	0.553156	1.648770	1.358818
C130	C	-0.113512	0.982089	0.307855
C131	C	0.219821	1.315422	0.641188
C132	C	0.553155	1.648756	0.974521
H133	H	0.483169	1.118140	-0.000058
H134	H	0.816502	1.451474	0.333275
H135	H	1.149836	1.784807	0.666608
H136	H	-0.216050	0.879499	0.583644
H137	H	0.117283	1.212832	0.916977
H138	H	0.450617	1.546166	1.250311
N139	N	-0.230984	0.864534	0.404199
N140	N	0.102349	1.197867	0.737533
N141	N	0.435682	1.531200	1.070866
H142	H	-0.266792	0.828710	0.447389
H143	H	0.066541	1.162044	0.780722
H144	H	0.399875	1.495377	1.114055
H145	H	-0.267748	0.896344	0.365939
H146	H	0.065585	1.229677	0.699273
H147	H	0.398918	1.563011	1.032606
H148	H	0.289793	0.846056	-0.000035
H149	H	0.623126	1.179389	0.333298
H150	H	0.956460	1.512723	0.666632
H151	H	0.325852	1.120904	-0.000030
H152	H	0.659185	1.454237	0.333304
H153	H	0.992519	1.787570	0.666637
H154	H	-0.010972	1.084692	0.416373
H155	H	0.322362	1.418026	0.749706
H156	H	0.655695	1.751359	1.083040
N157	N	0.455961	0.823083	-0.000045
N158	N	0.789294	1.156416	0.333289
N159	N	1.122627	1.489749	0.666622
H160	H	0.436527	0.790234	0.054250
H161	H	0.769860	1.123568	0.387583
H162	H	1.103194	1.456901	0.720917
H163	H	0.436514	0.790299	-0.054369
H164	H	0.769847	1.123633	0.278964
H165	H	1.103180	1.456966	0.612297
N166	N	0.045505	1.412621	0.000001
N167	N	0.378838	1.745954	0.333334
N168	N	0.712171	2.079288	0.666668
H169	H	0.092772	1.459545	0.000004
H170	H	0.426105	1.792879	0.333337
H171	H	0.759438	2.126212	0.666671
H172	H	0.049435	1.377072	0.054296
H173	H	0.382768	1.710405	0.387629
H174	H	0.716102	2.043738	0.720962
H175	H	0.022520	1.578778	0.000009
H176	H	0.355854	1.912112	0.333342
H177	H	0.689187	2.245445	0.666675
H178	H	-0.252316	1.542732	0.000005
H179	H	0.081018	1.876065	0.333339
H180	H	0.414351	2.209398	0.666672
N181	N	-0.269388	1.371324	0.000013
N182	N	0.063946	1.704657	0.333346
N183	N	0.397279	2.037991	0.666679
H184	H	-0.272146	1.334896	-0.054273
H185	H	0.061187	1.668229	0.279060
H186	H	0.394520	2.001562	0.612394
H187	H	-0.272087	1.334960	0.054346
H188	H	0.061246	1.668293	0.387680
H189	H	0.394579	2.001627	0.721013
N190	N	0.003955	1.099651	0.595801
N191	N	0.337288	1.432985	0.929134
N192	N	0.670622	1.766318	1.262468
H193	H	0.039753	1.135479	0.552607
H194	H	0.373086	1.468812	0.885940
H195	H	0.706419	1.802146	1.219273
H196	H	-0.027901	1.136390	0.634038
H197	H	0.305432	1.469723	0.967371
H198	H	0.638766	1.803056	1.300704
