data_functionalizedCrystal
_audit_creation_method	'MofGen! by Chris Wilmer'
_symmetry_space_group_name_H-M	'P1'
_symmetry_Int_Tables_number	1
_symmetry_cell_setting	triclinic
loop_
_symmetry_equiv_pos_as_xyz
  x,y,z
_cell_length_a	14.971486
_cell_length_b	23.532357
_cell_length_c	13.448316
_cell_angle_alpha	89.987857
_cell_angle_beta	89.998199
_cell_angle_gamma	83.221211
loop_
_atom_site_label
_atom_site_type_symbol
_atom_site_fract_x
_atom_site_fract_y
_atom_site_fract_z
O1	O	1.186142	0.074218	-0.082590
O2	O	1.686142	0.574218	0.417410
O3	O	0.925646	0.083106	-0.082619
O4	O	1.425646	0.583106	0.417381
O5	O	1.063773	-0.004238	-0.082583
O6	O	1.563773	0.495762	0.417417
O7	O	1.048016	0.161562	-0.082626
O8	O	1.548016	0.661562	0.417374
O9	O	1.063755	-0.004243	0.082801
O10	O	1.563755	0.495757	0.582801
O11	O	0.925629	0.083101	0.082765
O12	O	1.425629	0.583101	0.582765
O13	O	1.186125	0.074213	0.082794
O14	O	1.686125	0.574213	0.582794
Cu15	Cu	1.055875	0.078656	0.097880
Cu16	Cu	1.555875	0.578656	0.597880
Cu17	Cu	1.055896	0.078663	-0.097705
Cu18	Cu	1.555896	0.578663	0.402295
O19	O	1.047998	0.161557	0.082758
O20	O	1.547998	0.661557	0.582758
C21	C	0.892317	0.082706	0.000070
C22	C	1.392317	0.582706	0.500070
C23	C	0.793033	0.081515	0.000060
C24	C	1.293033	0.581515	0.500060
C25	C	1.063370	-0.025459	0.000112
C26	C	1.563370	0.474541	0.500112
C27	C	1.062185	-0.088682	0.000121
C28	C	1.562185	0.411318	0.500121
C29	C	0.735251	0.132827	0.000048
C30	C	1.235251	0.632827	0.500048
C31	C	0.641964	0.131704	0.000063
C32	C	1.141964	0.631704	0.500063
C33	C	0.606460	0.079269	0.000083
C34	C	1.106460	0.579269	0.500083
C35	C	0.664249	0.027953	0.000098
C36	C	1.164249	0.527953	0.500098
C37	C	0.757535	0.029076	0.000090
C38	C	1.257535	0.529076	0.500090
C39	C	0.469812	0.025615	0.000112
C40	C	0.969812	0.525615	0.500112
C41	C	0.376520	0.024492	0.000118
C42	C	0.876520	0.524492	0.500118
C43	C	0.354241	0.128244	0.000086
C44	C	0.854241	0.628244	0.500086
C45	C	0.447526	0.129367	0.000078
C46	C	0.947526	0.629367	0.500078
C47	C	0.505309	0.078050	0.000090
C48	C	1.005309	0.578050	0.500090
C49	C	1.054755	-0.480723	-0.090084
C50	C	1.554755	0.019277	0.409916
C51	C	1.053629	-0.540127	-0.090090
C52	C	1.553629	-0.040127	0.409910
O53	O	1.053024	-0.570843	-0.166760
O54	O	1.553024	-0.070843	0.333240
N55	N	1.053061	-0.569844	0.000060
N56	N	1.553061	-0.069844	0.500060
C57	C	1.053610	-0.540152	0.090221
C58	C	1.553610	-0.040152	0.590221
O59	O	1.053023	-0.570883	0.166899
O60	O	1.553023	-0.070883	0.666899
C61	C	1.054730	-0.480748	0.090225
C62	C	1.554730	0.019252	0.590225
C63	C	1.055307	-0.451036	0.000070
C64	C	1.555307	0.048964	0.500070
C65	C	1.055331	-0.451010	-0.180232
C66	C	1.555331	0.048990	0.319768
C67	C	1.056459	-0.391610	-0.180226
C68	C	1.556459	0.108390	0.319774
C69	C	1.057011	-0.361923	-0.090072
C70	C	1.557011	0.138077	0.409928
C71	C	1.056435	-0.391635	0.000076
C72	C	1.556435	0.108365	0.500076
C73	C	1.055273	-0.451057	0.180385
C74	C	1.555273	0.048943	0.680385
C75	C	1.056393	-0.391649	0.180382
C76	C	1.556393	0.108351	0.680382
C77	C	1.056970	-0.361937	0.090227
C78	C	1.556970	0.138063	0.590227
C79	C	1.058115	-0.302548	0.090237
C80	C	1.558115	0.197452	0.590237
N81	N	1.058683	-0.272832	0.000087
N82	N	1.558683	0.227168	0.500087
C83	C	1.058131	-0.302519	-0.090067
C84	C	1.558131	0.197481	0.409933
C85	C	1.051256	-0.664904	0.090204
C86	C	1.551256	-0.164904	0.590204
C87	C	1.050143	-0.724307	0.090200
C88	C	1.550143	-0.224307	0.590200
C89	C	1.050160	-0.724278	-0.090111
C90	C	1.550160	-0.224278	0.409889
C91	C	1.051280	-0.664874	-0.090106
C92	C	1.551280	-0.164874	0.409894
C93	C	1.051824	-0.635187	0.000054
C94	C	1.551824	-0.135187	0.500054
C95	C	1.060501	-0.177775	-0.090047
C96	C	1.560501	0.322225	0.409953
C97	C	1.061633	-0.118370	-0.090033
C98	C	1.561633	0.381630	0.409967
C99	C	1.061611	-0.118404	0.090277
C100	C	1.561611	0.381596	0.590277
C101	C	1.060484	-0.177804	0.090264
C102	C	1.560484	0.322196	0.590264
C103	C	1.059926	-0.207488	0.000093
C104	C	1.559926	0.292512	0.500093
O105	O	1.058717	-0.271794	0.166867
O106	O	1.558717	0.228206	0.666867
O107	O	1.058707	-0.271780	-0.166733
O108	O	1.558707	0.228220	0.333267
C109	C	1.219454	0.074613	0.000103
C110	C	1.719454	0.574613	0.500103
C111	C	1.318738	0.075804	0.000106
C112	C	1.818738	0.575804	0.500106
C113	C	1.048401	0.182778	0.000061
C114	C	1.548401	0.682778	0.500061
C115	C	1.049586	0.246001	0.000045
C116	C	1.549586	0.746001	0.500045
N117	N	1.055868	0.078651	0.235445
N118	N	1.555868	0.578651	0.735445
N119	N	1.055911	0.078663	-0.235269
N120	N	1.555911	0.578663	0.264731
C121	C	1.117049	0.039991	0.287501
C122	C	1.617049	0.539991	0.787501
C123	C	1.117054	0.039991	0.391604
C124	C	1.617054	0.539991	0.891604
C125	C	1.055882	0.078654	0.443649
C126	C	1.555882	0.578654	0.943649
C127	C	0.994695	0.117315	0.391586
C128	C	1.494695	0.617315	0.891586
C129	C	0.994685	0.117313	0.287484
C130	C	1.494685	0.617313	0.787484
C131	C	0.994719	0.117319	0.608566
C132	C	1.494719	0.617319	1.108566
C133	C	0.994729	0.117323	0.712674
C134	C	1.494729	0.617323	1.212674
C135	C	1.117088	0.039998	0.712685
C136	C	1.617088	0.539998	1.212685
C137	C	1.117079	0.039995	0.608584
C138	C	1.617079	0.539995	1.108584
C139	C	1.055892	0.078657	0.556528
C140	C	1.555892	0.578657	1.056528
H141	H	0.764150	0.175526	0.000031
H142	H	1.264150	0.675526	0.500031
N143	N	0.932240	0.156804	0.765855
N144	N	1.432240	0.656804	1.265855
N145	N	0.932261	0.156798	0.858801
N146	N	1.432261	0.656798	1.358801
H147	H	0.888126	0.184682	0.896362
H148	H	1.388126	0.684682	1.396362
H149	H	0.944891	0.148801	0.566185
H150	H	1.444891	0.648801	1.066185
N151	N	0.295235	0.180668	0.000089
N152	N	0.795235	0.680668	0.500089
N153	N	0.326946	0.227482	0.000068
N154	N	0.826946	0.727482	0.500068
H155	H	0.285271	0.264506	0.000068
H156	H	0.785271	0.764506	0.500068
H157	H	0.944883	0.148793	0.433967
H158	H	1.444883	0.648793	0.933967
N159	N	0.528824	-0.026808	0.000138
N160	N	1.028824	0.473192	0.500138
N161	N	0.497116	-0.073622	0.000157
N162	N	0.997116	0.426378	0.500157
H163	H	0.538793	-0.110645	0.000174
H164	H	1.038793	0.389355	0.500174
H165	H	1.056926	-0.367423	-0.253640
H166	H	1.556926	0.132577	0.246360
N167	N	1.179523	0.000497	0.444804
N168	N	1.679523	0.500497	0.944804
N169	N	1.234870	0.018607	0.502911
N170	N	1.734870	0.518607	1.002911
H171	H	1.278976	-0.009292	0.540493
H172	H	1.778976	0.490708	1.040493
H173	H	0.594921	0.173488	0.000053
H174	H	1.094921	0.673488	0.500053
H175	H	1.166866	0.008510	0.245132
H176	H	1.666866	0.508510	0.745132
H177	H	1.054805	-0.475239	0.253800
H178	H	1.554805	0.024761	0.753800
H179	H	0.944864	0.148793	0.245101
H180	H	1.444864	0.648793	0.745101
H181	H	1.056823	-0.367480	0.253804
H182	H	1.556823	0.132520	0.753804
H183	H	0.635335	-0.014741	0.000128
H184	H	1.135335	0.485259	0.500128
N185	N	0.483780	0.182932	0.000043
N186	N	0.983780	0.682932	0.500043
N187	N	0.432181	0.228745	0.000029
N188	N	0.932181	0.728745	0.500029
H189	H	0.457784	0.266577	0.000004
H190	H	0.957784	0.766577	0.500004
N191	N	1.062163	-0.088061	0.182353
N192	N	1.562163	0.411939	0.682353
N193	N	0.999727	-0.049704	0.202441
N194	N	1.499727	0.450296	0.702441
H195	H	1.000110	-0.028271	0.267470
H196	H	1.500110	0.471729	0.767470
N197	N	1.179574	0.000484	0.765835
N198	N	1.679574	0.500484	1.265835
N199	N	1.178821	-0.052156	0.754203
N200	N	1.678821	0.447844	1.254203
H201	H	1.222951	-0.080064	0.791736
H202	H	1.722951	0.419936	1.291736
H203	H	0.804581	-0.012708	0.000099
H204	H	1.304581	0.487292	0.500099
N205	N	0.340267	-0.029073	0.000141
N206	N	0.840267	0.470927	0.500141
N207	N	0.391865	-0.074887	0.000162
N208	N	0.891865	0.425113	0.500162
H209	H	0.366262	-0.112718	0.000179
H210	H	0.866262	0.387282	0.500179
N211	N	1.062229	-0.088029	-0.182138
N212	N	1.562229	0.411971	0.317862
N213	N	1.061736	-0.114547	-0.262624
N214	N	1.561736	0.385453	0.237376
H215	H	1.062157	-0.093122	-0.327672
H216	H	1.562157	0.406878	0.172328
H217	H	1.166894	0.008516	0.566209
H218	H	1.666894	0.508516	1.066209
N219	N	1.054783	-0.481318	-0.272342
N220	N	1.554783	0.018682	0.227658
N221	N	1.117980	-0.479870	-0.332685
N222	N	1.617980	0.020130	0.167315
H223	H	1.117601	-0.501271	-0.397746
H224	H	1.617601	-0.001271	0.102254
N225	N	1.059927	-0.208081	-0.182161
N226	N	1.559927	0.291919	0.317839
N227	N	1.060442	-0.181535	-0.262637
N228	N	1.560442	0.318465	0.237363
H229	H	1.060041	-0.202939	-0.327693
H230	H	1.560041	0.297061	0.172307
H231	H	1.051748	-0.640686	-0.163519
H232	H	1.551748	-0.140686	0.336481
N233	N	1.049609	-0.754618	-0.182195
N234	N	1.549609	-0.254618	0.317805
N235	N	1.048613	-0.807657	-0.182176
N236	N	1.548613	-0.307657	0.317824
H237	H	1.048229	-0.829088	-0.247206
H238	H	1.548229	-0.329088	0.252794
N239	N	1.049552	-0.754662	0.182283
N240	N	1.549552	-0.254662	0.682283
N241	N	1.048542	-0.807700	0.182279
N242	N	1.548542	-0.307700	0.682279
H243	H	1.048119	-0.829138	0.247315
H244	H	1.548119	-0.329138	0.747315
H245	H	1.051703	-0.640736	0.163628
H246	H	1.551703	-0.140736	0.663628
N247	N	1.059903	-0.208150	0.182361
N248	N	1.559903	0.291850	0.682361
N249	N	1.060396	-0.181633	0.262849
N250	N	1.560396	0.318367	0.762849
H251	H	1.059976	-0.203060	0.327896
H252	H	1.559976	0.296940	0.827896
