data_functionalizedCrystal
_audit_creation_method	'MofGen! by Chris Wilmer'
_symmetry_space_group_name_H-M	'P1'
_symmetry_Int_Tables_number	1
_symmetry_cell_setting	triclinic
loop_
_symmetry_equiv_pos_as_xyz
  x,y,z
_cell_length_a	14.628931
_cell_length_b	23.196402
_cell_length_c	23.196402
_cell_angle_alpha	90.003332
_cell_angle_beta	59.998114
_cell_angle_gamma	60.003473
loop_
_atom_site_label
_atom_site_type_symbol
_atom_site_fract_x
_atom_site_fract_y
_atom_site_fract_z
Zr1	Zr	1.000554	-0.075666	0.555368
O2	O	1.191261	-0.167715	0.463308
O3	O	0.809848	-0.047448	0.583589
O4	O	1.000551	-0.167717	0.583579
O5	O	1.000561	0.047424	0.463326
O6	O	1.000547	-0.167719	0.678451
O7	O	1.000558	-0.047446	0.463318
O8	O	0.659415	0.047420	0.678469
O9	O	1.341693	-0.167715	0.463308
O10	O	0.888285	-0.035415	0.666427
O11	O	0.888289	0.035387	0.595631
O12	O	1.112817	-0.106214	0.595619
O13	O	1.112822	-0.035412	0.524823
Zr14	Zr	1.000552	0.075637	0.706690
Zr15	Zr	1.000548	-0.075669	0.706677
Zr16	Zr	1.000558	0.075640	0.555381
Zr17	Zr	1.240476	-0.075666	0.555368
Zr18	Zr	0.760630	0.075637	0.706690
O19	O	1.191258	0.047419	0.678469
O20	O	1.191252	-0.167719	0.678451
O21	O	1.191266	0.047424	0.463326
O22	O	0.809845	0.167686	0.798750
O23	O	0.809839	-0.047453	0.798732
O24	O	0.809853	0.167690	0.583607
O25	O	1.000545	-0.047453	0.798732
O26	O	1.000555	0.167688	0.678479
O27	O	1.000559	0.167690	0.583607
O28	O	1.000547	0.047417	0.798740
O29	O	1.341688	-0.167717	0.583579
O30	O	0.659418	0.167688	0.678479
O31	O	0.659413	0.167686	0.798750
O32	O	0.659410	0.047417	0.798740
O33	O	1.341696	-0.047446	0.463318
O34	O	1.341691	-0.047449	0.583589
O35	O	0.888288	0.106185	0.666439
O36	O	0.888284	0.035384	0.737235
O37	O	1.112816	-0.035415	0.666427
O38	O	1.112821	0.035386	0.595631
C39	C	0.700448	-0.000014	0.631029
C40	C	0.598595	-0.000014	0.631029
C41	C	1.000561	-0.000010	0.441764
C42	C	1.000563	-0.000009	0.377529
C43	C	1.000557	0.189247	0.631045
C44	C	1.000559	0.253481	0.631050
C45	C	0.553183	-0.035137	0.666148
C46	C	0.447913	-0.035137	0.666149
C47	C	1.300658	-0.000015	0.631029
C48	C	1.402511	-0.000015	0.631029
C49	C	1.000548	-0.189276	0.631013
C50	C	1.000547	-0.253510	0.631008
C51	C	1.117759	0.246699	0.594093
C52	C	1.117761	0.307054	0.594082
C53	C	1.000556	0.374189	0.631044
C54	C	0.883340	0.380968	0.668003
C55	C	0.883342	0.320614	0.668006
C56	C	0.910759	0.498125	0.692946
C57	C	0.910763	0.558476	0.692945
C58	C	1.000546	0.560343	0.631032
C59	C	1.090348	0.501843	0.569120
C60	C	1.090350	0.441489	0.569124
C61	C	1.000541	0.439637	0.631043
C62	C	1.117756	0.619002	0.594059
C63	C	1.117753	0.679359	0.594047
C64	C	0.883329	0.753273	0.667974
C65	C	0.883335	0.692916	0.667980
C66	C	1.000553	0.625783	0.631024
C67	C	1.000571	-0.052277	0.347352
C68	C	1.000560	-0.052277	0.287001
C69	C	1.000566	-0.000014	0.256821
C70	C	1.000550	0.052263	0.287007
C71	C	1.000549	0.052266	0.347361
C72	C	1.075896	0.016272	0.137447
C73	C	1.075906	0.016264	0.077092
C74	C	1.000564	-0.000018	0.070670
C75	C	0.925230	-0.016308	0.124607
C76	C	0.925229	-0.016305	0.184961
C77	C	1.000567	-0.000011	0.191377
C78	C	1.000558	-0.052289	-0.024946
C79	C	1.000539	-0.052284	-0.085295
C80	C	1.000542	0.052253	-0.085292
C81	C	1.000549	0.052251	-0.024940
C82	C	1.000563	-0.000023	0.005228
C83	C	1.000545	-0.000019	0.820294
C84	C	1.000543	-0.000020	0.884529
C85	C	0.700440	-0.000018	0.820294
C86	C	0.598584	-0.000020	0.884529
C87	C	0.700452	0.189247	0.631045
C88	C	0.598601	0.253481	0.631050
C89	C	0.700445	0.189243	0.820310
C90	C	0.598591	0.253476	0.884550
C91	C	1.300661	-0.189272	0.441748
C92	C	1.402515	-0.253504	0.377508
C93	C	1.300666	-0.000011	0.441764
C94	C	1.402521	-0.000009	0.377529
C95	C	1.300653	-0.189276	0.631013
C96	C	1.402505	-0.253510	0.631008
C97	C	0.550752	-0.036983	0.877733
C98	C	0.455062	-0.036998	0.938083
C99	C	0.407198	-0.000046	1.005228
C100	C	0.455039	0.036919	1.012022
C101	C	0.550735	0.036929	0.951673
C102	C	0.550770	0.320608	0.668014
C103	C	0.455083	0.380969	0.668016
C104	C	0.407222	0.374200	0.631059
C105	C	0.455063	0.307065	0.594090
C106	C	0.550755	0.246707	0.594084
C107	C	0.550756	0.246682	0.951679
C108	C	0.455067	0.307029	1.012046
C109	C	0.407207	0.374169	1.005282
C110	C	0.455051	0.380962	0.938145
C111	C	0.550745	0.320615	0.877781
C112	C	1.450361	-0.246711	0.310379
C113	C	1.546080	-0.307058	0.250012
C114	C	1.593945	-0.374198	0.256776
C115	C	1.546095	-0.380991	0.323913
C116	C	1.450384	-0.320644	0.384277
C117	C	1.450363	0.036948	0.384325
C118	C	1.546081	0.036946	0.323975
C119	C	1.593948	-0.000008	0.256830
C120	C	1.546102	-0.036970	0.250036
C121	C	1.450393	-0.036972	0.310385
C122	C	1.450335	-0.246718	0.667973
C123	C	1.546022	-0.307067	0.667981
C124	C	1.593885	-0.374206	0.631021
C125	C	1.546045	-0.380996	0.594055
C126	C	1.450353	-0.320649	0.594051
H127	H	0.408866	-0.065210	0.696213
H128	H	0.589667	0.067033	0.957216
O129	O	1.597614	-0.299731	0.707849
H130	H	1.579222	-0.325443	0.748710
O131	O	1.398770	-0.327973	0.554176
H132	H	1.479122	-0.357277	0.497373
H133	H	0.416081	0.301564	0.564001
H134	H	1.411394	-0.192047	0.304858
H135	H	0.416069	0.435635	0.932648
O136	O	1.000536	0.108625	-0.117838
H137	H	0.912889	0.161318	-0.078616
O138	O	1.697190	-0.439285	0.191666
H139	H	1.722409	-0.423274	0.143853
O140	O	1.398756	0.076808	0.456739
H141	H	1.324155	0.070609	0.497570
O142	O	0.602353	0.174282	0.554260
H143	H	0.583949	0.145061	0.591614
H144	H	0.416121	-0.067099	0.932537
H145	H	1.000552	0.094817	0.262432
O146	O	1.597653	-0.299715	0.177611
H147	H	1.703216	-0.325421	0.148338
H148	H	0.787898	0.698441	0.698079
O149	O	1.697174	0.000002	0.191745
H150	H	1.722435	-0.031906	0.143909
O151	O	1.597716	-0.453408	0.331205
H152	H	1.672294	-0.494223	0.277947
H153	H	1.411429	-0.326184	0.438935
O154	O	0.602382	0.174270	0.958983
H155	H	0.553046	0.179696	1.015808
H156	H	0.837647	0.606102	0.743358
H157	H	0.416123	0.301486	1.066705
H158	H	0.592232	-0.065203	0.696218
H159	H	1.585020	0.067047	0.329521
O160	O	1.597735	-0.076827	0.177614
H161	H	1.672314	-0.070606	0.136798
H162	H	1.411443	-0.067065	0.304842
O163	O	0.813921	0.496113	0.759729
H164	H	0.751494	0.546923	0.802780
H165	H	0.441563	0.030053	0.600957
O166	O	1.398708	-0.174307	0.707848
H167	H	1.448041	-0.179735	0.733559
H168	H	0.329287	0.423302	1.054440
H169	H	1.671804	-0.423340	0.631030
O170	O	0.602308	0.327946	0.805377
H171	H	0.552929	0.384773	0.810822
H172	H	1.585029	-0.435669	0.563963
O173	O	0.304006	0.439308	0.631074
H174	H	0.278759	0.423329	0.599163
H175	H	0.559536	0.030057	0.600964
O176	O	0.843950	-0.033865	0.117698
H177	H	0.856588	-0.031121	0.066675
O178	O	1.244171	0.299752	0.554222
H179	H	1.300360	0.270462	0.575588
O180	O	1.244180	0.174292	0.554231
H181	H	1.300381	0.168148	0.497425
O182	O	1.187193	0.378395	0.502355
H183	H	1.249626	0.389827	0.459298
H184	H	1.163458	0.503359	0.518705
H185	H	1.000566	-0.094841	0.262427
H186	H	0.329275	-0.000060	1.054362
O187	O	1.244173	0.546590	0.554193
H188	H	1.325674	0.552016	0.528480
H189	H	0.416054	0.067004	1.066699
H190	H	0.787911	0.435633	0.698095
H191	H	1.213195	0.673831	0.563947
H192	H	0.787901	0.326140	0.698102
O193	O	0.756919	0.825680	0.707851
H194	H	0.751308	0.854949	0.670544
O195	O	1.000576	-0.108653	0.379895
H196	H	1.000570	-0.144995	0.348771
H197	H	1.000564	-0.094852	-0.000380
O198	O	0.843974	-0.033866	0.243138
H199	H	0.791574	-0.045185	0.228542
O200	O	1.000547	0.108642	0.379908
H201	H	0.912907	0.138778	0.435041
H202	H	1.000537	-0.094845	-0.109863
O203	O	1.000548	0.108623	0.007612
H204	H	1.000558	0.144964	-0.023514
O205	O	0.602381	0.327917	0.707877
H206	H	0.646000	0.357214	0.686512
H207	H	1.137253	0.029525	0.033178
H208	H	1.137169	0.029589	0.142692
H209	H	0.589722	-0.067082	0.823066
H210	H	0.416143	0.435626	0.698122
