data_functionalizedCrystal
_audit_creation_method	'MofGen! by Chris Wilmer'
_symmetry_space_group_name_H-M	'P1'
_symmetry_Int_Tables_number	1
_symmetry_cell_setting	triclinic
loop_
_symmetry_equiv_pos_as_xyz
  x,y,z
_cell_length_a	11.792241
_cell_length_b	11.792241
_cell_length_c	10.268362
_cell_angle_alpha	89.994090
_cell_angle_beta	89.996518
_cell_angle_gamma	95.806584
loop_
_atom_site_label
_atom_site_type_symbol
_atom_site_fract_x
_atom_site_fract_y
_atom_site_fract_z
O1	O	1.506902	-0.155570	0.108174
O2	O	1.840236	0.177763	0.441508
O3	O	2.173569	0.511097	0.774841
O4	O	1.176561	-0.171603	0.108205
O5	O	1.509895	0.161730	0.441538
O6	O	1.843228	0.495064	0.774871
O7	O	1.349748	0.001584	0.108180
O8	O	1.683082	0.334917	0.441513
O9	O	2.016415	0.668251	0.774846
O10	O	1.333715	-0.328757	0.108199
O11	O	1.667049	0.004576	0.441533
O12	O	2.000382	0.337910	0.774866
O13	O	1.349746	0.001594	-0.108421
O14	O	1.683079	0.334927	0.224912
O15	O	2.016413	0.668261	0.558246
O16	O	1.176559	-0.171593	-0.108396
O17	O	1.509892	0.161740	0.224937
O18	O	1.843226	0.495074	0.558271
O19	O	1.506900	-0.155560	-0.108426
O20	O	1.840233	0.177773	0.224907
O21	O	2.173567	0.511107	0.558240
Cu22	Cu	1.341729	-0.163576	-0.128188
Cu23	Cu	1.675063	0.169758	0.205145
Cu24	Cu	2.008396	0.503091	0.538478
Cu25	Cu	1.341732	-0.163588	0.127967
Cu26	Cu	1.675065	0.169746	0.461300
Cu27	Cu	2.008399	0.503079	0.794634
O28	O	1.333713	-0.328747	-0.108401
O29	O	1.667046	0.004586	0.224932
O30	O	2.000380	0.337920	0.558265
C31	C	1.134269	-0.170591	-0.000092
C32	C	1.467603	0.162742	0.333242
C33	C	1.800936	0.496076	0.666575
C34	C	1.008255	-0.167576	-0.000080
C35	C	1.341589	0.165757	0.333253
C36	C	1.674922	0.499090	0.666586
C37	C	1.348740	0.043880	-0.000120
C38	C	1.682073	0.377213	0.333213
C39	C	2.015407	0.710547	0.666546
C40	C	1.345726	0.169894	-0.000119
C41	C	1.679059	0.503227	0.333215
C42	C	2.012392	0.836560	0.666548
N43	N	1.341734	-0.163588	0.308133
N44	N	1.675068	0.169746	0.641466
N45	N	2.008401	0.503079	0.974799
C46	C	0.777543	-0.162034	-0.000118
C47	C	1.110877	0.171300	0.333215
C48	C	1.444210	0.504633	0.666549
C49	C	0.905928	-0.165113	-0.000097
C50	C	1.239262	0.168220	0.333236
C51	C	1.572595	0.501553	0.666569
C52	C	1.549192	-0.156572	-0.000127
C53	C	1.882525	0.176761	0.333206
C54	C	2.215859	0.510095	0.666540
C55	C	1.675206	-0.159587	-0.000130
C56	C	2.008539	0.173747	0.333204
C57	C	2.341873	0.507080	0.666537
C58	C	1.334721	-0.371043	-0.000099
C59	C	1.668055	-0.037710	0.333235
C60	C	2.001388	0.295624	0.666568
C61	C	1.337736	-0.497057	-0.000092
C62	C	1.671069	-0.163723	0.333242
C63	C	2.004402	0.169610	0.666575
C64	C	1.340183	0.400606	-0.000096
C65	C	1.673516	0.733939	0.333237
C66	C	2.006849	1.067272	0.666570
C67	C	1.343262	0.272221	-0.000108
C68	C	1.676596	0.605554	0.333225
C69	C	2.009929	0.938887	0.666558
N70	N	1.341736	-0.163566	-0.308354
N71	N	1.675069	0.169767	0.024979
N72	N	2.008403	0.503100	0.358312
C73	C	1.341731	-0.163581	0.573803
C74	C	1.675065	0.169752	0.907137
C75	C	2.008398	0.503086	1.240470
C76	C	1.341730	-0.163588	0.425965
C77	C	1.675063	0.169745	0.759299
C78	C	2.008396	0.503078	1.092632
