data_functionalizedCrystal
_audit_creation_method	'MofGen! by Chris Wilmer'
_symmetry_space_group_name_H-M	'P1'
_symmetry_Int_Tables_number	1
_symmetry_cell_setting	triclinic
loop_
_symmetry_equiv_pos_as_xyz
  x,y,z
_cell_length_a	19.077236
_cell_length_b	12.759394
_cell_length_c	19.077174
_cell_angle_alpha	92.276241
_cell_angle_beta	85.294282
_cell_angle_gamma	92.306804
loop_
_atom_site_label
_atom_site_type_symbol
_atom_site_fract_x
_atom_site_fract_y
_atom_site_fract_z
Zn1	Zn	1.093786	-0.379333	-0.441992
Zn2	Zn	1.088993	-0.548246	-0.324112
Zn3	Zn	0.971168	-0.379349	-0.319375
Zn4	Zn	0.975885	-0.561739	-0.437217
O5	O	1.032458	-0.467167	-0.380674
O6	O	1.191803	-0.396085	-0.430336
O7	O	1.069383	-0.520201	-0.224833
O8	O	0.987465	-0.232324	-0.335656
O9	O	1.188281	-0.520185	-0.343730
O10	O	1.077553	-0.232313	-0.425742
O11	O	0.982817	-0.396113	-0.221353
O12	O	0.873141	-0.409197	-0.331026
O13	O	0.995505	-0.543183	-0.536501
O14	O	0.876607	-0.543199	-0.417604
O15	O	1.082127	-0.409170	-0.540009
O16	O	1.073957	-0.697058	-0.339100
O17	O	0.990857	-0.706972	-0.422198
C18	C	0.849295	-0.477664	-0.373283
C19	C	0.770937	-0.482182	-0.370138
C20	C	0.735962	-0.419802	-0.413821
C21	C	0.662337	-0.424041	-0.410860
C22	C	0.623688	-0.490666	-0.364219
C23	C	0.658668	-0.553048	-0.320532
C24	C	0.732292	-0.548803	-0.323490
C25	C	0.403299	-0.510274	-0.350527
C26	C	0.329670	-0.514517	-0.347573
C27	C	0.333343	-0.385509	-0.437900
C28	C	0.406969	-0.381274	-0.440857
C29	C	0.441942	-0.443652	-0.397167
N30	N	0.548431	-0.495003	-0.361193
N31	N	0.517198	-0.439308	-0.400191
C32	C	1.032418	-0.740136	-0.380661
C33	C	1.032467	-0.856911	-0.380681
C34	C	1.126210	-0.856748	-0.474553
C35	C	1.173104	-0.911526	-0.521495
C36	C	1.173147	-1.021247	-0.521512
C37	C	1.126289	-1.076191	-0.474583
C38	C	1.079395	-1.021412	-0.427641
C39	C	1.079359	-0.911690	-0.427628
C40	C	0.985649	-1.021575	-0.333774
C41	C	0.985609	-0.911855	-0.333753
C42	C	0.938791	-1.076520	-0.286845
C43	C	0.891899	-1.021741	-0.239899
C44	C	0.891859	-0.912014	-0.239883
C45	C	0.938715	-0.857077	-0.286811
C46	C	1.216337	-0.456629	-0.388094
C47	C	1.294695	-0.452138	-0.391256
C48	C	1.039877	-0.477680	-0.564549
C49	C	1.043039	-0.482160	-0.642906
C50	C	1.032518	-0.193131	-0.380703
C51	C	1.032543	-0.076354	-0.380716
C52	C	0.999456	-0.419660	-0.677905
C53	C	1.002424	-0.423878	-0.751530
C54	C	1.048978	-0.490592	-0.790153
C55	C	1.092563	-0.553099	-0.755149
C56	C	1.089591	-0.548885	-0.681525
C57	C	1.062696	-0.510126	-1.010537
C58	C	1.065666	-0.514333	-1.084165
C59	C	0.975526	-0.385113	-1.080541
C60	C	0.972561	-0.380900	-1.006917
C61	C	1.016143	-0.443412	-0.971919
N62	N	1.052015	-0.494903	-0.865409
N63	N	1.013102	-0.439105	-0.896664
C64	C	1.025109	-0.456616	-0.197516
C65	C	1.022084	-0.451833	-0.119165
H66	H	0.298204	-0.568776	-0.309593
H67	H	0.966931	-0.372988	-0.780023
H68	H	0.431766	-0.561068	-0.314952
H69	H	1.130465	-0.607424	-0.786601
O70	O	0.846288	-1.075075	-0.194389
C71	C	0.725024	-1.113678	-0.155221
C72	C	0.776600	-1.053234	-0.206813
H73	H	0.668671	-1.096024	-0.165238
H74	H	0.733045	-1.201523	-0.163301
H75	H	0.735182	-1.088176	-0.098889
H76	H	0.766474	-1.078646	-0.263166
H77	H	0.768568	-0.965400	-0.198672
O78	O	0.444541	-0.316702	-0.486239
C79	C	0.531549	-0.303429	-0.584751
C80	C	0.489034	-0.376675	-0.533408
H81	H	0.567543	-0.351886	-0.622890
H82	H	0.493933	-0.259594	-0.615514
H83	H	0.564681	-0.244563	-0.553818
H84	H	0.455899	-0.435602	-0.564286
H85	H	0.526688	-0.420434	-0.502644
H86	H	0.961550	-0.365328	-0.646463
O87	O	1.218716	-0.858265	-0.567051
C88	C	1.339981	-0.819572	-0.606171
C89	C	1.288407	-0.879959	-0.554545
H90	H	1.396337	-0.837073	-0.596068
H91	H	1.329916	-0.845117	-0.662520
H92	H	1.331864	-0.731749	-0.598111
H93	H	1.296493	-0.967794	-0.562541
H94	H	1.298484	-0.854327	-0.498215
O95	O	0.766380	-0.609297	-0.281086
C96	C	0.878177	-0.659976	-0.245640
C97	C	0.839663	-0.591395	-0.293694
H98	H	0.937433	-0.645543	-0.255827
H99	H	0.861451	-0.638974	-0.188222
H100	H	0.864152	-0.746249	-0.257331
H101	H	0.853669	-0.505102	-0.282066
H102	H	0.856392	-0.612486	-0.351098
O103	O	0.299257	-0.324949	-0.480263
C104	C	0.187465	-0.274351	-0.515768
C105	C	0.225977	-0.342980	-0.467742
H106	H	0.128212	-0.288921	-0.505673
H107	H	0.201397	-0.188050	-0.504062
H108	H	0.204285	-0.295329	-0.573167
H109	H	0.209178	-0.322094	-0.410327
H110	H	0.212044	-0.429263	-0.479509
H111	H	0.627195	-0.607290	-0.282553
O112	O	0.773537	-0.355236	-0.459205
C113	C	0.860549	-0.341963	-0.557713
C114	C	0.818031	-0.415210	-0.506373
H115	H	0.896543	-0.390420	-0.595852
H116	H	0.822936	-0.298125	-0.588477
H117	H	0.893681	-0.283100	-0.526779
H118	H	0.784896	-0.474134	-0.537253
H119	H	0.855683	-0.458972	-0.475608
H120	H	1.126187	-0.767407	-0.474538
O121	O	1.218661	-1.074361	-0.567210
C122	C	1.257600	-1.112807	-0.688534
C123	C	1.206030	-1.052574	-0.636858
H124	H	1.247397	-1.095230	-0.744856
H125	H	1.313967	-1.087198	-0.678554
H126	H	1.249583	-1.200654	-0.680443
H127	H	1.213984	-0.964715	-0.644919
H128	H	1.149683	-1.078269	-0.646851
O129	O	0.846401	-0.858684	-0.194252
C130	C	0.833091	-0.730021	-0.098635
C131	C	0.884652	-0.790320	-0.150282
H132	H	0.863997	-0.674752	-0.063063
H133	H	0.797502	-0.682571	-0.129440
H134	H	0.799597	-0.788167	-0.065135
H135	H	0.918192	-0.732249	-0.183796
H136	H	0.920193	-0.837787	-0.119435
O137	O	0.927277	-0.316069	-0.969507
C138	C	0.838220	-0.188288	-0.973686
C139	C	0.889456	-0.261689	-1.016139
H140	H	0.807639	-0.144286	-1.011370
H141	H	0.799908	-0.236610	-0.937739
H142	H	0.869224	-0.129572	-0.940515
H143	H	0.858510	-0.320418	-1.049350
H144	H	0.927768	-0.213299	-1.052042
H145	H	1.125086	-0.599771	-0.653030
H146	H	0.633863	-0.373248	-0.446432
H147	H	1.126322	-1.165531	-0.474607
H148	H	0.938826	-1.165860	-0.286865
H149	H	0.938690	-0.767736	-0.286800
H150	H	0.940043	-0.334221	-1.109045
O151	O	1.110909	-0.579236	-1.121577
C152	C	1.200030	-0.706918	-1.117408
C153	C	1.148816	-0.633489	-1.074953
H154	H	1.230702	-0.750785	-1.079730
H155	H	1.169074	-0.765741	-1.150550
H156	H	1.238266	-0.658525	-1.153385
H157	H	1.110569	-0.681796	-1.038938
H158	H	1.179817	-0.574663	-1.041857
O159	O	1.104934	-0.570957	-0.976514
C160	C	1.111046	-0.707474	-0.893736
C161	C	1.063125	-0.638666	-0.932234
H162	H	1.077263	-0.762218	-0.857916
H163	H	1.144816	-0.755946	-0.933961
H164	H	1.146544	-0.655136	-0.860792
H165	H	1.027584	-0.690925	-0.965177
H166	H	1.029403	-0.590185	-0.891973
