data_functionalizedCrystal
_audit_creation_method	'MofGen! by Chris Wilmer'
_symmetry_space_group_name_H-M	'P1'
_symmetry_Int_Tables_number	1
_symmetry_cell_setting	triclinic
loop_
_symmetry_equiv_pos_as_xyz
  x,y,z
_cell_length_a	10.654556
_cell_length_b	16.992695
_cell_length_c	9.730223
_cell_angle_alpha	89.996725
_cell_angle_beta	89.998169
_cell_angle_gamma	87.577880
loop_
_atom_site_label
_atom_site_type_symbol
_atom_site_fract_x
_atom_site_fract_y
_atom_site_fract_z
O1	O	1.677359	0.110212	-0.114239
O2	O	1.312788	0.120705	-0.114254
O3	O	1.493612	0.001308	-0.114236
O4	O	1.496535	0.229609	-0.114257
O5	O	1.493599	0.001308	0.114344
O6	O	1.312775	0.120705	0.114326
O7	O	1.677346	0.110212	0.114341
Zn8	Zn	1.495058	0.115459	0.150625
Zn9	Zn	1.495076	0.115459	-0.150539
O10	O	1.496522	0.229609	0.114323
C11	C	1.265917	0.119934	0.000035
C12	C	1.126275	0.117625	0.000029
C13	C	0.929456	0.114375	-0.124559
C14	C	1.060665	0.116539	-0.124567
C15	C	1.060669	0.116539	0.124643
C16	C	0.929463	0.114370	0.124650
C17	C	1.489845	-0.027925	0.000054
C18	C	1.478626	-0.115030	0.000053
C19	C	1.586877	-0.164681	0.000059
C20	C	1.576327	-0.246525	0.000045
C21	C	1.457527	-0.278717	0.000036
C22	C	1.349268	-0.229060	0.000026
C23	C	1.359818	-0.147218	0.000030
C24	C	1.413800	-0.522553	0.000015
C25	C	1.403257	-0.604402	0.000016
C26	C	1.630318	-0.621861	0.000032
C27	C	1.640858	-0.540016	0.000044
C28	C	1.532599	-0.490367	0.000027
N29	N	1.446741	-0.362375	0.000027
N30	N	1.543386	-0.406710	0.000027
C31	C	1.724217	0.110984	0.000049
C32	C	1.863859	0.113292	0.000045
C33	C	1.500289	0.258842	0.000030
C34	C	1.511508	0.345948	0.000022
N35	N	1.495055	0.115458	0.356162
N36	N	1.495088	0.115453	-0.356075
C37	C	1.576036	0.163485	0.428081
C38	C	1.576057	0.163480	0.571964
C39	C	1.414103	0.067421	0.571996
C40	C	1.414090	0.067422	0.428115
H41	H	1.114099	0.117419	0.226092
H42	H	1.641963	0.202599	0.369501
H43	H	1.642002	0.202587	0.630514
O44	O	0.865853	0.113430	-0.245681
C45	C	0.890475	0.181793	-0.321480
H46	H	0.983269	0.205980	-0.286058
H47	H	0.811439	0.228067	-0.304209
C48	C	0.784818	0.131582	-0.518963
C49	C	0.898794	0.161285	-0.475465
H50	H	0.789944	0.118933	-0.613949
H51	H	0.768225	0.085525	-0.467895
H52	H	0.718966	0.170148	-0.504559
H53	H	0.964640	0.122715	-0.489853
H54	H	0.915398	0.207334	-0.526540
O55	O	1.756166	-0.508617	0.000100
C56	C	1.742264	-0.425734	0.000065
H57	H	1.646136	-0.407055	0.043342
H58	H	1.750639	-0.402919	-0.109597
C59	C	1.963684	-0.414191	0.036548
C60	C	1.845622	-0.391248	0.089713
H61	H	2.027443	-0.392918	0.091842
H62	H	1.973052	-0.470031	0.036567
H63	H	1.970645	-0.395177	-0.054836
H64	H	1.838657	-0.410271	0.181088
H65	H	1.836256	-0.335411	0.089712
H66	H	1.252537	-0.255278	0.000010
H67	H	1.664477	-0.286947	0.000053
O68	O	1.335490	0.020838	0.642103
C69	C	1.352815	0.031161	0.784520
H70	H	1.394550	0.090807	0.804138
H71	H	1.419476	-0.017604	0.825417
C72	C	1.174054	-0.045520	0.834249
C73	C	1.225304	0.027742	0.858344
H74	H	1.095401	-0.047632	0.879789
H75	H	1.162383	-0.052477	0.738300
H76	H	1.229617	-0.086149	0.868330
H77	H	1.169748	0.068369	0.824248
H78	H	1.236961	0.034706	0.954289
H79	H	1.114069	0.117421	-0.226032
O80	O	1.702378	-0.133542	0.000004
C81	C	1.795659	-0.194920	0.000035
H82	H	1.754854	-0.250698	-0.043239
H83	H	1.829442	-0.206313	0.109696
C84	C	1.957154	-0.102719	-0.036457
C85	C	1.907040	-0.171225	-0.089618
H86	H	2.025862	-0.088103	-0.091753
H87	H	1.894310	-0.061367	-0.036473
H88	H	1.985297	-0.112223	0.054926
H89	H	1.878884	-0.161718	-0.180993
H90	H	1.969882	-0.212575	-0.089620
O91	O	1.735346	-0.670203	-0.000024
C92	C	1.700567	-0.749343	0.000005
H93	H	1.601560	-0.753017	-0.043271
H94	H	1.702952	-0.772988	0.109665
C95	C	1.914698	-0.794375	-0.036486
C96	C	1.793100	-0.798889	-0.089649
H97	H	1.971779	-0.824939	-0.091783
H98	H	1.938131	-0.741058	-0.036500
H99	H	1.916668	-0.814078	0.054896
H100	H	1.791128	-0.779177	-0.181023
H101	H	1.769669	-0.852204	-0.089652
H102	H	1.325647	-0.482138	0.000002
H103	H	1.348144	0.028309	0.369557
H104	H	1.306511	-0.630609	0.000031
H105	H	0.876053	0.113487	0.226124
H106	H	1.271669	-0.106793	0.000025
