data_functionalizedCrystal
_audit_creation_method	'MofGen! by Chris Wilmer'
_symmetry_space_group_name_H-M	'P1'
_symmetry_Int_Tables_number	1
_symmetry_cell_setting	triclinic
loop_
_symmetry_equiv_pos_as_xyz
  x,y,z
_cell_length_a	16.625548
_cell_length_b	29.839131
_cell_length_c	16.625539
_cell_angle_alpha	89.967906
_cell_angle_beta	89.979432
_cell_angle_gamma	90.042488
loop_
_atom_site_label
_atom_site_type_symbol
_atom_site_fract_x
_atom_site_fract_y
_atom_site_fract_z
Zn1	Zn	1.232574	-0.178840	-0.455888
Zn2	Zn	1.232433	-0.253971	-0.321046
Zn3	Zn	1.097736	-0.178857	-0.321069
Zn4	Zn	1.097662	-0.253945	-0.455836
O5	O	1.165101	-0.216403	-0.388460
O6	O	1.345388	-0.188810	-0.438013
O7	O	1.214537	-0.244025	-0.208217
O8	O	1.115713	-0.115987	-0.338984
O9	O	1.345284	-0.244008	-0.338946
O10	O	1.214778	-0.115975	-0.438035
O11	O	1.115576	-0.188839	-0.208233
O12	O	0.984894	-0.188814	-0.338933
O13	O	1.115586	-0.243964	-0.568676
O14	O	0.984839	-0.243981	-0.437947
O15	O	1.214706	-0.188785	-0.568714
O16	O	1.214465	-0.316834	-0.338896
O17	O	1.115449	-0.316815	-0.437925
C18	C	0.955610	-0.216397	-0.388437
C19	C	0.865989	-0.216405	-0.388447
C20	C	1.164956	-0.333126	-0.388420
C21	C	1.164967	-0.383060	-0.388430
C22	C	0.537814	-0.216408	-0.388481
C23	C	0.629122	-0.216406	-0.388469
C24	C	0.701899	-0.216406	-0.388463
C25	C	0.793213	-0.216404	-0.388452
C26	C	1.216752	-0.692701	-0.336971
C27	C	1.216852	-0.880374	-0.337002
O28	O	1.260766	-0.904636	-0.293219
N29	N	1.165268	-0.903845	-0.388521
C30	C	1.113660	-0.880395	-0.440039
O31	O	1.069793	-0.904665	-0.483866
C32	C	1.113565	-0.692723	-0.440011
C33	C	1.165146	-0.669254	-0.388483
C34	C	1.268330	-0.669232	-0.285447
C35	C	1.268302	-0.622316	-0.285437
C36	C	1.216695	-0.598870	-0.336950
C37	C	1.165118	-0.622339	-0.388473
C38	C	1.061962	-0.669274	-0.491533
C39	C	1.061944	-0.622353	-0.491523
C40	C	1.113525	-0.598884	-0.439995
C41	C	1.113483	-0.551977	-0.439975
N42	N	1.165067	-0.528505	-0.388456
C43	C	1.216673	-0.551952	-0.336944
C44	C	1.113712	-0.978926	-0.440049
C45	C	1.113735	-1.025844	-0.440055
C46	C	1.216928	-1.025819	-0.337019
C47	C	1.216901	-0.978900	-0.337009
C48	C	1.165296	-0.955455	-0.388530
C49	C	1.216609	-0.453426	-0.336925
C50	C	1.216573	-0.406506	-0.336917
C51	C	1.113383	-0.406535	-0.439956
C52	C	1.113416	-0.453451	-0.439962
C53	C	1.165035	-0.476895	-0.388443
O54	O	1.069599	-0.527685	-0.483742
O55	O	1.260546	-0.527674	-0.293136
C56	C	1.216781	-0.739616	-0.336981
C57	C	1.165203	-0.763085	-0.388504
C58	C	1.113597	-0.739639	-0.440017
C59	C	1.165226	-0.810003	-0.388510
C60	C	1.216832	-0.833449	-0.336997
C61	C	1.268416	-0.809978	-0.285479
C62	C	1.268387	-0.763062	-0.285468
C63	C	1.062014	-0.763110	-0.491536
C64	C	1.062046	-0.810026	-0.491541
C65	C	1.113652	-0.833472	-0.440028
C66	C	1.375410	-0.216410	-0.388483
C67	C	1.465031	-0.216413	-0.388493
C68	C	1.165154	-0.216370	-0.598769
C69	C	1.165176	-0.216355	-0.688390
C70	C	1.165269	-0.099225	-0.388518
C71	C	1.165341	-0.049290	-0.388542
C72	C	1.165213	-0.216305	-1.016566
C73	C	1.165201	-0.216320	-0.925257
C74	C	1.165195	-0.216330	-0.852481
C75	C	1.165182	-0.216345	-0.761167
C76	C	1.165095	-0.216404	-0.178969
C77	C	1.165229	-0.216292	-0.089348
H78	H	1.258577	-0.387399	-0.294954
O79	O	1.063303	-0.383802	-0.490110
C80	C	1.080912	-0.395217	-0.570489
H81	H	1.111913	-0.429268	-0.572194
H82	H	1.022708	-0.396834	-0.606604
H83	H	1.122353	-0.368781	-0.597667
O84	O	1.318536	-0.740218	-0.235529
C85	C	1.370592	-0.713041	-0.281474
H86	H	1.342117	-0.706001	-0.342549
H87	H	1.381406	-0.680057	-0.248628
H88	H	1.430346	-0.731089	-0.290396
O89	O	1.267085	-0.956174	-0.286932
C90	C	1.312617	-0.986935	-0.241454
H91	H	1.315401	-1.020365	-0.274490
H92	H	1.376146	-0.973350	-0.232905
H93	H	1.283124	-0.991964	-0.180191
H94	H	1.071725	-1.044948	-0.482007
H95	H	1.019922	-0.603266	-0.533480
H96	H	1.258948	-1.044917	-0.295075
H97	H	1.019955	-0.688375	-0.533489
H98	H	1.310433	-0.829076	-0.243533
H99	H	1.020035	-0.829130	-0.533501
O100	O	1.063536	-0.956104	-0.489983
C101	C	1.011455	-0.929020	-0.444025
H102	H	1.039927	-0.921992	-0.382949
H103	H	1.000605	-0.896024	-0.476859
H104	H	0.951721	-0.947142	-0.435106
H105	H	1.310306	-0.603210	-0.243481
H106	H	1.071417	-0.472560	-0.481922
O107	O	1.011801	-0.740407	-0.541599
C108	C	0.966298	-0.771190	-0.587081
H109	H	0.963558	-0.804648	-0.554055
H110	H	0.902752	-0.757674	-0.595614
H111	H	0.995787	-0.776138	-0.648350
H112	H	1.258644	-0.472509	-0.294976
H113	H	1.310358	-0.688317	-0.243499
