data_functionalizedCrystal
_audit_creation_method	'MofGen! by Chris Wilmer'
_symmetry_space_group_name_H-M	'P1'
_symmetry_Int_Tables_number	1
_symmetry_cell_setting	triclinic
loop_
_symmetry_equiv_pos_as_xyz
  x,y,z
_cell_length_a	29.839134
_cell_length_b	29.839131
_cell_length_c	12.759387
_cell_angle_alpha	89.955090
_cell_angle_beta	89.977161
_cell_angle_gamma	90.015800
loop_
_atom_site_label
_atom_site_type_symbol
_atom_site_fract_x
_atom_site_fract_y
_atom_site_fract_z
Zn1	Zn	0.686786	-0.179063	-0.593967
Zn2	Zn	1.186786	0.320937	-0.093967
Zn3	Zn	0.686712	-0.254200	-0.418244
Zn4	Zn	1.186712	0.245800	0.081756
Zn5	Zn	0.611655	-0.179060	-0.418297
Zn6	Zn	1.111655	0.320940	0.081703
Zn7	Zn	0.611625	-0.254141	-0.593876
Zn8	Zn	1.111625	0.245859	-0.093876
O9	O	0.649195	-0.216616	-0.506096
O10	O	1.149195	0.283384	-0.006096
O11	O	0.749643	-0.189056	-0.570673
O12	O	1.249643	0.310944	-0.070673
O13	O	0.676738	-0.244256	-0.271230
O14	O	1.176738	0.255744	0.228770
O15	O	0.621665	-0.116193	-0.441660
O16	O	1.121665	0.383807	0.058340
O17	O	0.749589	-0.244259	-0.441570
O18	O	1.249589	0.255741	0.058430
O19	O	0.676863	-0.116195	-0.570724
O20	O	1.176863	0.383805	-0.070724
O21	O	0.621593	-0.189051	-0.271268
O22	O	1.121593	0.310949	0.228732
O23	O	0.548784	-0.188993	-0.441572
O24	O	1.048784	0.311007	0.058428
O25	O	0.621613	-0.244158	-0.740909
O26	O	1.121613	0.255842	-0.240909
O27	O	0.548762	-0.244155	-0.570569
O28	O	1.048762	0.255845	-0.070569
O29	O	0.676834	-0.188998	-0.740976
O30	O	1.176834	0.311002	-0.240976
O31	O	0.676708	-0.317059	-0.441482
O32	O	1.176708	0.182941	0.058518
O33	O	0.621542	-0.317016	-0.570518
O34	O	1.121542	0.182984	-0.070518
C35	C	0.532472	-0.216568	-0.506067
C36	C	1.032472	0.283432	-0.006067
C37	C	0.482538	-0.216558	-0.506079
C38	C	0.982538	0.283442	-0.006079
C39	C	0.125974	-0.187931	-0.573452
C40	C	0.625974	0.312069	-0.073452
C41	C	0.313648	-0.187895	-0.573428
C42	C	0.813648	0.312105	-0.073428
O43	O	0.337933	-0.163499	-0.630706
O44	O	0.837933	0.336501	-0.130706
N45	N	0.337092	-0.216587	-0.506104
N46	N	0.837092	0.283413	-0.006104
C47	C	0.313616	-0.245292	-0.438786
C48	C	0.813616	0.254708	0.061214
O49	O	0.337864	-0.269699	-0.381530
O50	O	0.837864	0.230301	0.118470
C51	C	0.125944	-0.245331	-0.438817
C52	C	0.625944	0.254669	0.061183
C53	C	0.102501	-0.216633	-0.506137
C54	C	0.602501	0.283367	-0.006137
C55	C	0.102532	-0.159237	-0.640768
C56	C	0.602532	0.340763	-0.140768
C57	C	0.055616	-0.159244	-0.640769
C58	C	0.555616	0.340756	-0.140769
C59	C	0.032144	-0.187946	-0.573455
C60	C	0.532144	0.312054	-0.073455
C61	C	0.055586	-0.216641	-0.506139
C62	C	0.555586	0.283359	-0.006139
C63	C	0.102469	-0.274038	-0.371505
C64	C	0.602469	0.225962	0.128495
C65	C	0.055547	-0.274046	-0.371520
C66	C	0.555547	0.225954	0.128480
C67	C	0.032105	-0.245348	-0.438841
C68	C	0.532105	0.254652	0.061159
C69	C	-0.014802	-0.245351	-0.438825
C70	C	0.485198	0.254649	0.061175
N71	N	-0.038247	-0.216659	-0.506149
N72	N	0.461753	0.283341	-0.006149
C73	C	-0.014774	-0.187956	-0.573464
C74	C	0.485226	0.312044	-0.073464
C75	C	0.412147	-0.245270	-0.438774
C76	C	0.912147	0.254730	0.061226
C77	C	0.459065	-0.245260	-0.438765
C78	C	0.959065	0.254740	0.061235
C79	C	0.459093	-0.187863	-0.573408
C80	C	0.959093	0.312137	-0.073408
C81	C	0.412174	-0.187871	-0.573411
C82	C	0.912174	0.312129	-0.073411
C83	C	0.388702	-0.216578	-0.506097
C84	C	0.888702	0.283422	-0.006097
C85	C	-0.113300	-0.187974	-0.573461
C86	C	0.386700	0.312026	-0.073461
C87	C	-0.160220	-0.187983	-0.573453
C88	C	0.339780	0.312017	-0.073453
C89	C	-0.160244	-0.245381	-0.438814
C90	C	0.339756	0.254619	0.061186
C91	C	-0.113328	-0.245371	-0.438818
C92	C	0.386672	0.254629	0.061182
C93	C	-0.089858	-0.216666	-0.506150
C94	C	0.410142	0.283334	-0.006150
O95	O	-0.039116	-0.269738	-0.381586
O96	O	0.460884	0.230262	0.118414
O97	O	-0.039030	-0.163560	-0.630728
O98	O	0.460970	0.336440	-0.130728
C99	C	0.172890	-0.187924	-0.573451
C100	C	0.672890	0.312076	-0.073451
C101	C	0.196332	-0.216618	-0.506135
C102	C	0.696332	0.283382	-0.006135
C103	C	0.172859	-0.245320	-0.438820
C104	C	0.672859	0.254680	0.061180
C105	C	0.243250	-0.216608	-0.506126
C106	C	0.743250	0.283392	-0.006126
C107	C	0.266723	-0.187906	-0.573440
C108	C	0.766723	0.312094	-0.073440
C109	C	0.243278	-0.159214	-0.640764
C110	C	0.743278	0.340786	-0.140764
C111	C	0.196363	-0.159222	-0.640765
C112	C	0.696363	0.340778	-0.140765
C113	C	0.196304	-0.274012	-0.371496
C114	C	0.696304	0.225988	0.128504
C115	C	0.243220	-0.274002	-0.371499
C116	C	0.743220	0.225998	0.128501
C117	C	0.266693	-0.245300	-0.438814
C118	C	0.766693	0.254700	0.061186
C119	C	0.649126	-0.333338	-0.506007
C120	C	1.149126	0.166662	-0.006007
C121	C	0.649138	-0.383273	-0.506005
C122	C	1.149138	0.116727	-0.006005
C123	C	0.677930	-0.692882	-0.573395
C124	C	1.177930	-0.192882	-0.073395
C125	C	0.677979	-0.880555	-0.573459
C126	C	1.177979	-0.380555	-0.073459
O127	O	0.702392	-0.904792	-0.630691
O128	O	1.202392	-0.404792	-0.130691
N129	N	0.649271	-0.904058	-0.506213
N130	N	1.149271	-0.404058	-0.006213
C131	C	0.620546	-0.880639	-0.438951
C132	C	1.120546	-0.380639	0.061049
O133	O	0.596126	-0.904936	-0.381763
O134	O	1.096126	-0.404936	0.118237
C135	C	0.620496	-0.692967	-0.438894
C136	C	1.120496	-0.192967	0.061106
C137	C	0.649209	-0.669467	-0.506137
C138	C	1.149209	-0.169467	-0.006137
C139	C	0.706641	-0.669382	-0.640634
C140	C	1.206641	-0.169382	-0.140634
C141	C	0.706630	-0.622467	-0.640613
C142	C	1.206630	-0.122467	-0.140613
C143	C	0.677909	-0.599051	-0.573354
C144	C	1.177909	-0.099051	-0.073354
C145	C	0.649198	-0.622551	-0.506116
C146	C	1.149198	-0.122551	-0.006116
C147	C	0.591769	-0.669549	-0.371638
C148	C	1.091769	-0.169549	0.128362
C149	C	0.591758	-0.622628	-0.371632
C150	C	1.091758	-0.122628	0.128368
C151	C	0.620472	-0.599128	-0.438875
C152	C	1.120472	-0.099128	0.061125
C153	C	0.620466	-0.552221	-0.438837
C154	C	1.120466	-0.052221	0.061163
N155	N	0.649174	-0.528718	-0.506083
N156	N	1.149174	-0.028718	-0.006083
C157	C	0.677895	-0.552134	-0.573342
C158	C	1.177895	-0.052134	-0.073342
C159	C	0.620576	-0.979170	-0.438984
C160	C	1.120576	-0.479170	0.061016
C161	C	0.620589	-1.026087	-0.438997
C162	C	1.120589	-0.526087	0.061003
C163	C	0.678021	-1.026001	-0.573506
C164	C	1.178021	-0.526001	-0.073506
C165	C	0.678010	-0.979082	-0.573487
C166	C	1.178010	-0.479082	-0.073487
C167	C	0.649284	-0.955667	-0.506230
C168	C	1.149284	-0.455667	-0.006230
C169	C	0.677871	-0.453608	-0.573293
C170	C	1.177871	0.046392	-0.073293
C171	C	0.677859	-0.406688	-0.573263
C172	C	1.177859	0.093312	-0.073263
C173	C	0.620426	-0.406779	-0.438758
C174	C	1.120426	0.093221	0.061242
C175	C	0.620439	-0.453695	-0.438784
C176	C	1.120439	0.046305	0.061216
C177	C	0.649163	-0.477108	-0.506059
C178	C	1.149163	0.022892	-0.006059
O179	O	0.596062	-0.527955	-0.381643
O180	O	1.096062	-0.027955	0.118357
O181	O	0.702305	-0.527829	-0.630537
O182	O	1.202305	-0.027829	-0.130537
C183	C	0.677941	-0.739798	-0.573416
C184	C	1.177941	-0.239798	-0.073416
C185	C	0.649230	-0.763298	-0.506178
C186	C	1.149230	-0.263298	-0.006178
C187	C	0.620509	-0.739882	-0.438919
C188	C	1.120509	-0.239882	0.061081
C189	C	0.649244	-0.810216	-0.506190
C190	C	1.149244	-0.310216	-0.006190
C191	C	0.677965	-0.833631	-0.573449
C192	C	1.177965	-0.333631	-0.073449
C193	C	0.706673	-0.810129	-0.640695
C194	C	1.206673	-0.310129	-0.140695
C195	C	0.706662	-0.763213	-0.640675
C196	C	1.206662	-0.263213	-0.140675
C197	C	0.591801	-0.763385	-0.371673
C198	C	1.091801	-0.263385	0.128327
C199	C	0.591815	-0.810300	-0.371698
C200	C	1.091815	-0.310300	0.128302
C201	C	0.620536	-0.833716	-0.438957
C202	C	1.120536	-0.333716	0.061043
C203	C	0.766373	-0.216664	-0.506126
C204	C	1.266373	0.283336	-0.006126
C205	C	0.816307	-0.216685	-0.506138
C206	C	1.316307	0.283315	-0.006138
C207	C	0.649228	-0.216572	-0.780130
C208	C	1.149228	0.283428	-0.280130
C209	C	0.649243	-0.216553	-0.896906
C210	C	1.149243	0.283447	-0.396906
C211	C	0.649276	-0.099437	-0.506208
C212	C	1.149276	0.400563	-0.006208
C213	C	0.649310	-0.049503	-0.506256
C214	C	1.149310	0.450497	-0.006256
C215	C	0.706748	-0.159119	-0.896996
C216	C	1.206748	0.340881	-0.396996
C217	C	0.735507	-0.130395	-0.951901
C218	C	1.235507	0.369605	-0.451901
C219	C	0.735518	-0.130379	-1.061623
C220	C	1.235518	0.369621	-0.561623
C221	C	0.706766	-0.159088	-1.116442
C222	C	1.206766	0.340912	-0.616442
C223	C	0.678007	-0.187812	-1.061536
C224	C	1.178007	0.312188	-0.561536
C225	C	0.678000	-0.187826	-0.951812
C226	C	1.178000	0.312174	-0.451812
C227	C	0.620500	-0.245243	-1.061447
C228	C	1.120500	0.254757	-0.561447
C229	C	0.620491	-0.245262	-0.951725
C230	C	1.120491	0.254738	-0.451725
C231	C	0.591748	-0.273953	-1.116266
C232	C	1.091748	0.226047	-0.616266
C233	C	0.562991	-0.302679	-1.061360
C234	C	1.062991	0.197321	-0.561360
C235	C	0.562982	-0.302695	-0.951632
C236	C	1.062982	0.197305	-0.451632
C237	C	0.591732	-0.273986	-0.896820
C238	C	1.091732	0.226014	-0.396820
C239	C	0.649187	-0.216627	-0.233128
C240	C	1.149187	0.283373	0.266872
C241	C	0.649259	-0.216519	-0.116352
C242	C	1.149259	0.283481	0.383648
H243	H	-0.179305	-0.164612	-0.628274
H244	H	0.320695	0.335388	-0.128274
H245	H	0.539581	-0.326050	-1.106002
H246	H	1.039581	0.173950	-0.606002
H247	H	0.568365	-0.603566	-0.316864
H248	H	1.068365	-0.103566	0.183136
H249	H	0.758933	-0.106987	-1.106327
H250	H	1.258933	0.393013	-0.606327
H251	H	-0.179364	-0.268748	-0.384004
H252	H	0.320636	0.231252	0.115996
H253	H	-0.094240	-0.268735	-0.383990
H254	H	0.405760	0.231265	0.116010
H255	H	0.701242	-0.387556	-0.628020
H256	H	1.201242	0.112444	-0.128020
H257	H	0.597062	-0.472829	-0.384021
H258	H	1.097062	0.027171	0.115979
H259	H	0.597042	-0.387707	-0.383994
H260	H	1.097042	0.112293	0.116006
F261	F	0.737222	-0.738209	-0.712246
F262	F	1.237222	-0.238209	-0.212246
H263	H	0.758916	-0.107020	-0.907256
H264	H	1.258916	0.392980	-0.407256
H265	H	-0.094196	-0.164600	-0.628288
H266	H	0.405804	0.335400	-0.128288
H267	H	0.177280	-0.135853	-0.695585
H268	H	0.677280	0.364147	-0.195585
F269	F	0.268268	-0.128666	-0.712402
F270	F	0.768268	0.371334	-0.212402
F271	F	0.030569	-0.304603	-0.299880
F272	F	0.530569	0.195397	0.200120
F273	F	0.591760	-0.273934	-1.233042
F274	F	1.091760	0.226066	-0.733042
H275	H	0.539558	-0.326080	-0.906934
H276	H	1.039558	0.173920	-0.406934
H277	H	0.393090	-0.164503	-0.628228
H278	H	0.893090	0.335497	-0.128228
H279	H	0.568388	-0.688675	-0.316881
H280	H	1.068388	-0.188675	0.183119
F281	F	0.268164	-0.304543	-0.299832
F282	F	0.768164	0.195457	0.200168
F283	F	0.171329	-0.304559	-0.299838
F284	F	0.671329	0.195441	0.200162
F285	F	0.708443	-0.478519	-0.644894
F286	F	1.208443	0.021481	-0.144894
H287	H	0.591729	-0.273998	-0.807478
H288	H	1.091729	0.226002	-0.307478
F289	F	0.737242	-0.835057	-0.712273
F290	F	1.237242	-0.335057	-0.212273
H291	H	0.706746	-0.159134	-0.807654
H292	H	1.206746	0.340866	-0.307654
H293	H	0.568433	-0.829430	-0.316931
H294	H	1.068433	-0.329430	0.183069
F295	F	0.706775	-0.159066	-1.233217
F296	F	1.206775	0.340934	-0.733217
H297	H	0.036534	-0.135878	-0.695593
H298	H	0.536534	0.364122	-0.195593
F299	F	0.737188	-0.597462	-0.712189
F300	F	1.237188	-0.097462	-0.212189
H301	H	0.121639	-0.135864	-0.695589
H302	H	0.621639	0.364136	-0.195589
F303	F	0.561228	-0.738470	-0.300088
F304	F	1.061228	-0.238470	0.199912
H305	H	0.478212	-0.164492	-0.628216
H306	H	0.978212	0.335508	-0.128216
H307	H	0.478147	-0.268623	-0.383934
H308	H	0.978147	0.231377	0.116066
H309	H	0.393040	-0.268647	-0.383955
H310	H	0.893040	0.231353	0.116045
H311	H	0.121547	-0.297406	-0.316685
H312	H	0.621547	0.202594	0.183315
H313	H	0.730029	-0.688442	-0.695410
H314	H	1.230029	-0.188442	-0.195410
F315	F	0.708569	-0.954076	-0.645057
F316	F	1.208569	-0.454076	-0.145057
H317	H	0.701407	-1.045073	-0.628270
H318	H	1.201407	-0.545073	-0.128270
H319	H	0.597213	-1.045217	-0.384230
H320	H	1.097213	-0.545217	0.115770
H321	H	0.597183	-0.960109	-0.384212
H322	H	1.097183	-0.460109	0.115788
