data_functionalizedCrystal
_audit_creation_method	'MofGen! by Chris Wilmer'
_symmetry_space_group_name_H-M	'P1'
_symmetry_Int_Tables_number	1
_symmetry_cell_setting	triclinic
loop_
_symmetry_equiv_pos_as_xyz
  x,y,z
_cell_length_a	21.295417
_cell_length_b	12.759401
_cell_length_c	21.295420
_cell_angle_alpha	89.986727
_cell_angle_beta	90.017552
_cell_angle_gamma	89.971285
loop_
_atom_site_label
_atom_site_type_symbol
_atom_site_fract_x
_atom_site_fract_y
_atom_site_fract_z
Zn1	Zn	-0.250736	-1.606075	0.355874
Zn2	Zn	0.249264	-1.106075	0.855874
Zn3	Zn	-0.355981	-1.605940	0.250600
Zn4	Zn	0.144019	-1.105940	0.750600
Zn5	Zn	-0.250726	-1.430396	0.250623
Zn6	Zn	0.249274	-0.930396	0.750623
Zn7	Zn	-0.355968	-1.430317	0.355835
Zn8	Zn	0.144032	-0.930317	0.855835
O9	O	-0.303353	-1.518182	0.303233
O10	O	0.196647	-1.018182	0.803233
O11	O	-0.264707	-1.753078	0.341916
O12	O	0.235293	-1.253078	0.841916
O13	O	-0.342019	-1.582630	0.162514
O14	O	0.157981	-1.082630	0.662514
O15	O	-0.162638	-1.453790	0.264611
O16	O	0.337362	-0.953790	0.764611
O17	O	-0.342029	-1.752979	0.264571
O18	O	0.157971	-1.252979	0.764571
O19	O	-0.162646	-1.582861	0.341939
O20	O	0.337354	-1.082861	0.841939
O21	O	-0.264689	-1.453659	0.162531
O22	O	0.235311	-0.953659	0.662531
O23	O	-0.264677	-1.283365	0.264574
O24	O	0.235323	-0.783365	0.764574
O25	O	-0.342008	-1.453655	0.443930
O26	O	0.157992	-0.953655	0.943930
O27	O	-0.341998	-1.283307	0.341872
O28	O	0.158002	-0.783307	0.841872
O29	O	-0.264695	-1.582784	0.443959
O30	O	0.235305	-1.082784	0.943959
O31	O	-0.444069	-1.582554	0.264533
O32	O	0.055931	-1.082554	0.764533
O33	O	-0.444059	-1.453525	0.341850
O34	O	0.055941	-0.953525	0.841850
C35	C	-0.303336	-1.245215	0.303222
C36	C	0.196664	-0.745215	0.803222
C37	C	-0.303344	-1.128438	0.303232
C38	C	0.196656	-0.628438	0.803232
C39	C	-0.263153	-1.073629	0.343567
C40	C	0.236847	-0.573629	0.843567
C41	C	-0.263157	-0.963905	0.343570
C42	C	0.236843	-0.463905	0.843570
C43	C	-0.343547	-0.963810	0.262901
C44	C	0.156453	-0.463810	0.762901
C45	C	-0.343540	-1.073532	0.262896
C46	C	0.156460	-0.573532	0.762896
C47	C	-0.466905	-1.518045	0.303198
C48	C	0.033095	-1.018045	0.803198
C49	C	-0.536873	-1.518082	0.303205
C50	C	-0.036873	-1.018082	0.803205
C51	C	-0.569723	-1.585327	0.262987
C52	C	-0.069723	-1.085327	0.762987
C53	C	-0.635466	-1.585376	0.263001
C54	C	-0.135466	-1.085376	0.763001
C55	C	-0.668355	-1.518161	0.303226
C56	C	-0.168355	-1.018161	0.803226
C57	C	-0.635497	-1.450911	0.343451
C58	C	-0.135497	-0.950911	0.843451
C59	C	-0.569756	-1.450872	0.343440
C60	C	-0.069756	-0.950872	0.843440
N61	N	-0.771620	-1.426253	0.308021
N62	N	-0.271620	-0.926253	0.808021
N63	N	-0.834072	-1.426294	0.308028
N64	N	-0.334072	-0.926294	0.808028
C65	C	-0.866430	-1.518279	0.303262
C66	C	-0.366430	-1.018279	0.803262
N67	N	-0.833977	-1.610224	0.298477
N68	N	-0.333977	-1.110224	0.798477
N69	N	-0.771520	-1.610182	0.298468
N70	N	-0.271520	-1.110182	0.798468
C71	C	-0.739641	-1.518198	0.303243
C72	C	-0.239641	-1.018198	0.803243
C73	C	-0.970566	-1.585584	0.263058
C74	C	-0.470566	-1.085584	0.763058
C75	C	-1.036310	-1.585635	0.263077
C76	C	-0.536310	-1.085635	0.763077
C77	C	-1.036339	-1.451160	0.343523
C78	C	-0.536339	-0.951160	0.843523
C79	C	-0.970597	-1.451119	0.343508
C80	C	-0.470597	-0.951119	0.843508
C81	C	-0.937714	-1.518329	0.303272
C82	C	-0.437714	-1.018329	0.803272
C83	C	-0.139163	-1.518349	0.303282
C84	C	0.360837	-1.018349	0.803282
C85	C	-0.069195	-1.518420	0.303303
C86	C	0.430805	-1.018420	0.803303
C87	C	-0.303351	-1.518226	0.467423
C88	C	0.196649	-1.018226	0.967423
C89	C	-0.303351	-1.518245	0.537392
C90	C	0.196649	-1.018245	1.037392
C91	C	-0.303365	-0.792216	0.303243
C92	C	0.196635	-0.292216	0.803243
C93	C	-0.303355	-0.908992	0.303241
C94	C	0.196645	-0.408992	0.803241
C95	C	-0.263088	-1.451099	0.570257
C96	C	0.236912	-0.951099	1.070257
C97	C	-0.263091	-1.451080	0.636000
C98	C	0.236909	-0.951080	1.136000
C99	C	-0.303351	-1.518225	0.668874
C100	C	0.196649	-1.018225	1.168874
C101	C	-0.343621	-1.585375	0.636000
C102	C	0.156379	-1.085375	1.136000
C103	C	-0.343621	-1.585385	0.570259
C104	C	0.156379	-1.085385	1.070259
N105	N	-0.308184	-1.610170	0.772110
N106	N	0.191816	-1.110170	1.272110
N107	N	-0.308180	-1.610158	0.834562
N108	N	0.191820	-1.110158	1.334562
C109	C	-0.303354	-1.518198	0.866949
C110	C	0.196646	-1.018198	1.366949
N111	N	-0.298520	-1.426249	0.834525
N112	N	0.201480	-0.926249	1.334525
N113	N	-0.298520	-1.426262	0.772068
N114	N	0.201480	-0.926262	1.272068
C115	C	-0.303356	-1.518221	0.740159
C116	C	0.196644	-1.018221	1.240159
C117	C	-0.263093	-1.451026	0.971100
C118	C	0.236907	-0.951026	1.471100
C119	C	-0.263101	-1.451005	1.036844
C120	C	0.236899	-0.951005	1.536844
C121	C	-0.343628	-1.585310	1.036843
C122	C	0.156372	-1.085310	1.536843
C123	C	-0.343623	-1.585321	0.971101
C124	C	0.156377	-1.085321	1.471101
C125	C	-0.303352	-1.518181	0.938233
C126	C	0.196648	-1.018181	1.438233
C127	C	-0.303367	-1.518140	1.139682
C128	C	0.196633	-1.018140	1.639682
C129	C	-0.303361	-1.518150	1.069714
C130	C	0.196639	-1.018150	1.569714
H131	H	-0.376274	-0.919091	0.230062
H132	H	0.123726	-0.419091	0.730062
Cl133	Cl	-0.212457	-1.366686	0.677326
Cl134	Cl	0.287543	-0.866686	1.177326
Cl135	Cl	-0.394062	-1.142441	0.212178
Cl136	Cl	0.105938	-0.642441	0.712178
Cl137	Cl	-0.212472	-1.366617	0.929778
Cl138	Cl	0.287528	-0.866617	1.429778
H139	H	-1.063117	-1.396437	0.376278
H140	H	-0.563117	-0.896437	0.876278
Cl141	Cl	-0.528388	-1.669835	0.212414
Cl142	Cl	-0.028388	-1.169835	0.712414
H143	H	-0.230429	-0.919283	0.376414
H144	H	0.269571	-0.419283	0.876414
Cl145	Cl	-0.212465	-1.366690	0.528942
Cl146	Cl	0.287535	-0.866690	1.028942
Cl147	Cl	-0.929224	-1.670074	0.212477
Cl148	Cl	-0.429224	-1.170074	0.712477
Cl149	Cl	-0.676772	-1.669918	0.212437
Cl150	Cl	-0.176772	-1.169918	0.712437
H151	H	-0.376408	-1.640067	0.543500
H152	H	0.123592	-1.140067	1.043500
Cl153	Cl	-0.676843	-1.366418	0.394023
Cl154	Cl	-0.176843	-0.866418	0.894023
Cl155	Cl	-0.394237	-1.669781	0.677327
Cl156	Cl	0.105763	-1.169781	1.177327
Cl157	Cl	-0.528456	-1.366327	0.394003
Cl158	Cl	-0.028456	-0.866327	0.894003
Cl159	Cl	-1.077608	-1.670187	0.212518
Cl160	Cl	-0.577608	-1.170187	0.712518
Cl161	Cl	-0.212619	-1.142650	0.394272
Cl162	Cl	0.287381	-0.642650	0.894272
H163	H	-0.943848	-1.396357	0.376254
H164	H	-0.443848	-0.896357	0.876254
H165	H	-0.376408	-1.640001	0.944341
H166	H	0.123592	-1.140001	1.444341
Cl167	Cl	-0.212497	-1.366556	1.078162
Cl168	Cl	0.287503	-0.866556	1.578162
Cl169	Cl	-0.394244	-1.669715	1.078164
Cl170	Cl	0.105756	-1.169715	1.578164
