data_functionalizedCrystal
_audit_creation_method	'MofGen! by Chris Wilmer'
_symmetry_space_group_name_H-M	'P1'
_symmetry_Int_Tables_number	1
_symmetry_cell_setting	triclinic
loop_
_symmetry_equiv_pos_as_xyz
  x,y,z
_cell_length_a	16.120530
_cell_length_b	17.640280
_cell_length_c	16.120704
_cell_angle_alpha	82.224934
_cell_angle_beta	89.859679
_cell_angle_gamma	104.611321
loop_
_atom_site_label
_atom_site_type_symbol
_atom_site_fract_x
_atom_site_fract_y
_atom_site_fract_z
Zn1	Zn	1.337048	0.401017	0.453696
Zn2	Zn	1.372191	0.526918	0.289251
Zn3	Zn	1.202064	0.387597	0.310321
Zn4	Zn	1.225969	0.526235	0.421357
O5	O	1.284318	0.460442	0.368656
O6	O	1.459395	0.423620	0.436598
O7	O	1.354326	0.503106	0.176756
O8	O	1.195258	0.278666	0.351692
O9	O	1.485214	0.516119	0.315781
O10	O	1.294430	0.288526	0.457029
O11	O	1.229335	0.400748	0.192236
O12	O	1.087550	0.400086	0.320334
O13	O	1.236000	0.514956	0.540937
O14	O	1.105112	0.501943	0.401912
O15	O	1.317609	0.422958	0.564696
O16	O	1.377506	0.637539	0.284424
O17	O	1.270077	0.637037	0.381482
C18	C	1.065816	0.449484	0.359901
C19	C	0.972344	0.444817	0.356171
C20	C	1.330221	0.665996	0.327176
C21	C	1.349934	0.753938	0.309461
C22	C	1.275551	0.470378	0.583546
C23	C	1.271815	0.474612	0.675119
C24	C	0.801206	0.436276	0.349372
C25	C	0.768281	0.484669	0.387990
C26	C	0.673054	0.479917	0.384207
C27	C	0.896441	0.441027	0.353154
C28	C	1.503672	0.471443	0.377447
C29	C	1.597148	0.476131	0.381193
C30	C	1.238258	0.254087	0.410318
C31	C	1.218630	0.166151	0.428071
C32	C	1.134891	1.041973	0.503548
C33	C	1.153417	1.124607	0.486876
C34	C	1.265345	1.125072	0.385919
C35	C	1.246831	1.042437	0.402585
C36	C	1.181602	1.000894	0.461400
C37	C	1.293542	1.001358	0.360437
C38	C	1.275026	0.918730	0.377099
C39	C	1.209799	0.877181	0.435910
C40	C	1.163086	0.918266	0.478062
C41	C	1.358766	1.042902	0.301619
C42	C	1.405478	1.001823	0.259471
C43	C	1.386966	0.919194	0.276137
C44	C	1.321739	0.877645	0.334947
C45	C	1.433679	0.878109	0.233984
C46	C	1.415163	0.795481	0.250647
C47	C	1.303223	0.795017	0.351609
C48	C	1.303670	0.438661	0.895350
C49	C	1.264959	0.482308	0.842785
C50	C	1.268775	0.478024	0.749487
C51	C	1.299855	0.442943	0.988657
C52	C	1.293055	0.450570	1.154598
C53	C	1.296812	0.446359	1.063021
H54	H	0.811611	0.529666	0.423894
H55	H	1.339676	0.398081	0.870284
H56	H	1.228946	0.522887	0.867853
N57	N	1.064532	0.997159	0.566979
H58	H	1.059891	0.938582	0.571134
H59	H	1.078400	1.014951	0.623447
H60	H	0.757879	0.391282	0.313471
N61	N	1.504015	0.922918	0.170537
H62	H	1.508651	0.981496	0.166371
H63	H	1.560301	0.912041	0.188728
H64	H	1.250113	0.761191	0.399508
H65	H	1.194719	0.809899	0.449469
N66	N	1.378734	1.132022	0.283644
H67	H	1.396299	1.155291	0.336780
H68	H	1.427118	1.152041	0.239962
N69	N	1.092739	0.873443	0.541502
H70	H	1.106568	0.891173	0.598005
H71	H	1.036444	0.884276	0.523275
N72	N	1.103030	1.168916	0.532336
H73	H	1.058900	1.130057	0.572121
H74	H	1.143348	1.206644	0.564956
H75	H	1.318452	1.158908	0.338029
N76	N	1.475820	1.046631	0.196028
H77	H	1.480460	1.105209	0.191864
H78	H	1.532101	1.035749	0.214225
H79	H	1.453199	0.762034	0.216324
