data_functionalizedCrystal
_audit_creation_method	'MofGen! by Chris Wilmer'
_symmetry_space_group_name_H-M	'P1'
_symmetry_Int_Tables_number	1
_symmetry_cell_setting	triclinic
loop_
_symmetry_equiv_pos_as_xyz
  x,y,z
_cell_length_a	12.759401
_cell_length_b	18.050590
_cell_length_c	12.759393
_cell_angle_alpha	89.964042
_cell_angle_beta	89.981503
_cell_angle_gamma	90.018784
loop_
_atom_site_label
_atom_site_type_symbol
_atom_site_fract_x
_atom_site_fract_y
_atom_site_fract_z
Zn1	Zn	1.606216	-0.295610	-0.593982
Zn2	Zn	1.606102	-0.419820	-0.418289
Zn3	Zn	1.430521	-0.295649	-0.418318
Zn4	Zn	1.430494	-0.419763	-0.593927
O5	O	1.518333	-0.357710	-0.506129
O6	O	1.753222	-0.312094	-0.570687
O7	O	1.582774	-0.403389	-0.271272
O8	O	1.453886	-0.191719	-0.441655
O9	O	1.753138	-0.403351	-0.441606
O10	O	1.582968	-0.191690	-0.570715
O11	O	1.453776	-0.312161	-0.271293
O12	O	1.283497	-0.312105	-0.441602
O13	O	1.453841	-0.403253	-0.740956
O14	O	1.283477	-0.403291	-0.570622
O15	O	1.582942	-0.312038	-0.740996
O16	O	1.582748	-0.523737	-0.441553
O17	O	1.453730	-0.523695	-0.570594
C18	C	1.245366	-0.357697	-0.506110
C19	C	1.128589	-0.357709	-0.506126
C20	C	1.073687	-0.405150	-0.438822
C21	C	0.963963	-0.405163	-0.438840
C22	C	0.964053	-0.310287	-0.573470
C23	C	1.073775	-0.310278	-0.573456
C24	C	1.073635	-0.459924	-0.361092
C25	C	0.963910	-0.459937	-0.361110
C26	C	1.518252	-0.550663	-0.506087
C27	C	1.518314	-0.633208	-0.506105
C28	C	1.588620	-0.832655	-0.436030
C29	C	1.614285	-0.881978	-0.531917
C30	C	1.518374	-0.784339	-0.506146
C31	C	1.492815	-0.882097	-0.410303
C32	C	1.518433	-0.930324	-0.506179
C33	C	1.544088	-0.832575	-0.602084
C34	C	1.422573	-0.832689	-0.480405
C35	C	1.448203	-0.881990	-0.576358
C36	C	1.518342	-0.700240	-0.506127
C37	C	1.518465	-1.014420	-0.506209
C38	C	1.792366	-0.357724	-0.506149
C39	C	1.909143	-0.357730	-0.506158
C40	C	1.518401	-0.357635	-0.780163
C41	C	1.518431	-0.357603	-0.896939
C42	C	1.518443	-0.164005	-0.506194
C43	C	1.518490	-0.081459	-0.506222
C44	C	1.451290	-0.310091	-0.951818
C45	C	1.451321	-0.310069	-1.061543
C46	C	1.585644	-0.405072	-1.061499
C47	C	1.585606	-0.405097	-0.951777
C48	C	1.373743	-0.255240	-0.951845
C49	C	1.373774	-0.255218	-1.061569
C50	C	1.518326	-0.357732	-0.233162
C51	C	1.518500	-0.357555	-0.116386
H52	H	0.929877	-0.514605	-0.390116
H53	H	1.565650	-0.810915	-0.683221
C54	C	1.133573	-0.258858	-0.646499
C55	C	1.241396	-0.269015	-0.632101
C56	C	1.296515	-0.221666	-0.699385
H57	H	1.115729	-0.208916	-0.631332
H58	H	1.115678	-0.269803	-0.717084
H59	H	1.259284	-0.258065	-0.561533
H60	H	1.259272	-0.318947	-0.647277
H61	H	1.278619	-0.232611	-0.769970
H62	H	1.278662	-0.171727	-0.684212
H63	H	1.369678	-0.228556	-0.689632
H64	H	1.395597	-0.197692	-1.091372
C65	C	1.463803	-0.911201	-0.302305
C66	C	1.372454	-0.953891	-0.309522
C67	C	1.345715	-0.980720	-0.210058
H68	H	1.452094	-0.870731	-0.256220
H69	H	1.519339	-0.940928	-0.276030
H70	H	1.316931	-0.924166	-0.335783
H71	H	1.384138	-0.994372	-0.355588
H72	H	1.401251	-1.010446	-0.183783
H73	H	1.334011	-0.940245	-0.163981
H74	H	1.283738	-1.009693	-0.214943
H75	H	1.640263	-0.443796	-0.907098
H76	H	1.107639	-0.439254	-0.283848
C77	C	1.412640	-0.182470	-0.906282
C78	C	1.410541	-0.186398	-0.796706
C79	C	1.446377	-0.119380	-0.754698
H80	H	1.368653	-0.143224	-0.929176
H81	H	1.482374	-0.173598	-0.929211
H82	H	1.340817	-0.195262	-0.773787
H83	H	1.454530	-0.225631	-0.773783
H84	H	1.516112	-0.110508	-0.777626
H85	H	1.402387	-0.080139	-0.777599
H86	H	1.444967	-0.122039	-0.680347
H87	H	1.296475	-0.275806	-1.095591
H88	H	1.648045	-0.810992	-0.376796
C89	C	0.924355	-0.439254	-0.252620
C90	C	1.009854	-0.426591	-0.186241
C91	C	0.973456	-0.407527	-0.086302
H92	H	0.882997	-0.478562	-0.225351
H93	H	0.883038	-0.395592	-0.257124
H94	H	1.051154	-0.470248	-0.181734
H95	H	1.051220	-0.387280	-0.213477
H96	H	0.932139	-0.363865	-0.090806
H97	H	0.932098	-0.446837	-0.059044
H98	H	1.031460	-0.398925	-0.041255
C99	C	0.904348	-0.258818	-0.646449
C100	C	0.796506	-0.268967	-0.632042
C101	C	0.741477	-0.221559	-0.699243
H102	H	0.922235	-0.269697	-0.717051
H103	H	0.922275	-0.208889	-0.631188
H104	H	0.778587	-0.318885	-0.647310
H105	H	0.778588	-0.258083	-0.561454
H106	H	0.759403	-0.171629	-0.683982
H107	H	0.759372	-0.232442	-0.769841
H108	H	0.668301	-0.228434	-0.689470
C109	C	1.722417	-0.910816	-0.560776
C110	C	1.795617	-0.885841	-0.487090
C111	C	1.895237	-0.912397	-0.513625
H112	H	1.741221	-0.893149	-0.628357
H113	H	1.721537	-0.963445	-0.561159
H114	H	1.796501	-0.833223	-0.486718
H115	H	1.776847	-0.903506	-0.419503
H116	H	1.894357	-0.965025	-0.514008
H117	H	1.914031	-0.894728	-0.581208
H118	H	1.944914	-0.895461	-0.463629
H119	H	1.640337	-0.443739	-1.106161
C120	C	1.369164	-0.910659	-0.655691
C121	C	1.396440	-0.885443	-0.755849
C122	C	1.323668	-0.911847	-0.828961
H123	H	1.301253	-0.893051	-0.638114
H124	H	1.369222	-0.963289	-0.654934
H125	H	1.396371	-0.832823	-0.756603
H126	H	1.464339	-0.903049	-0.773459
H127	H	1.323726	-0.964477	-0.828203
H128	H	1.255761	-0.894237	-0.811374
H129	H	1.342170	-0.894747	-0.896927
C130	C	1.314451	-0.803893	-0.451453
C131	C	1.240890	-0.829993	-0.523989
C132	C	1.141275	-0.803490	-0.497332
H133	H	1.314915	-0.751273	-0.452304
H134	H	1.296306	-0.820843	-0.383312
H135	H	1.259030	-0.813039	-0.592112
H136	H	1.240393	-0.882610	-0.523148
H137	H	1.123130	-0.820440	-0.429191
H138	H	1.141750	-0.750871	-0.498184
H139	H	1.091350	-0.821200	-0.546537
C140	C	1.265262	-0.275938	-0.912182
C141	C	1.238718	-0.346587	-0.948840
C142	C	1.138804	-0.365683	-0.912313
H143	H	1.215545	-0.240919	-0.936988
H144	H	1.265215	-0.275999	-0.837723
H145	H	1.238757	-0.346521	-1.023284
H146	H	1.288408	-0.381622	-0.924038
H147	H	1.138757	-0.365745	-0.837853
H148	H	1.089097	-0.330660	-0.937121
H149	H	1.120786	-0.413623	-0.937171
C150	C	1.113132	-0.536675	-0.390022
C151	C	1.027599	-0.583632	-0.407731
C152	C	1.063943	-0.654335	-0.434398
H153	H	1.154438	-0.555832	-0.334333
H154	H	1.154490	-0.533625	-0.451806
H155	H	0.986258	-0.586685	-0.345955
H156	H	0.986284	-0.564499	-0.463425
H157	H	1.105301	-0.651285	-0.496182
H158	H	1.105249	-0.673485	-0.378706
H159	H	1.005915	-0.686202	-0.446427
