data_functionalizedCrystal
_audit_creation_method	'MofGen! by Chris Wilmer'
_symmetry_space_group_name_H-M	'P1'
_symmetry_Int_Tables_number	1
_symmetry_cell_setting	triclinic
loop_
_symmetry_equiv_pos_as_xyz
  x,y,z
_cell_length_a	19.188930
_cell_length_b	15.944551
_cell_length_c	15.021413
_cell_angle_alpha	90.002826
_cell_angle_beta	89.998889
_cell_angle_gamma	96.678240
loop_
_atom_site_label
_atom_site_type_symbol
_atom_site_fract_x
_atom_site_fract_y
_atom_site_fract_z
O1	O	0.090039	-1.114192	-0.073949
O2	O	0.101141	-0.869601	-0.073973
O3	O	-0.006048	-0.998955	-0.073943
O4	O	0.197227	-0.984838	-0.073979
O5	O	-0.006033	-0.998934	0.074121
O6	O	0.101156	-0.869580	0.074091
O7	O	0.090054	-1.114171	0.074115
Zn8	Zn	0.095607	-0.991873	0.097611
Zn9	Zn	0.095587	-0.991900	-0.097470
O10	O	0.197242	-0.984817	0.074085
C11	C	-0.032052	-0.998487	0.000091
C12	C	-0.109560	-0.997115	0.000099
C13	C	0.100687	-0.838298	0.000056
C14	C	0.099306	-0.745057	0.000048
C15	C	0.090507	-1.145474	0.000083
C16	C	0.091889	-1.238715	0.000086
C17	C	-0.154288	-1.073016	0.000111
C18	C	-0.227115	-1.071726	0.000096
C19	C	-0.255211	-0.994532	0.000088
C20	C	-0.210474	-0.918622	0.000072
C21	C	-0.137648	-0.919913	0.000077
N22	N	-0.363364	-0.935519	0.050472
N23	N	-0.432546	-0.934298	0.050468
C24	C	-0.474630	-0.990637	0.000070
N25	N	-0.444921	-1.048256	-0.050314
N26	N	-0.375733	-1.049480	-0.050307
C27	C	-0.334178	-0.993123	0.000082
C28	C	-0.598326	-1.065145	0.000064
C29	C	-0.671154	-1.063852	0.000044
C30	C	-0.654511	-0.910745	0.000029
C31	C	-0.581685	-0.912040	0.000040
C32	C	-0.553597	-0.989242	0.000062
C33	C	0.223247	-0.985285	0.000048
C34	C	0.300755	-0.986657	0.000035
N35	N	0.095621	-0.991860	0.230749
C36	C	0.029563	-0.530462	0.000078
C37	C	0.061941	-0.469331	-0.072931
C38	C	0.096806	-0.574341	0.000059
C39	C	0.061972	-0.469332	0.073048
C40	C	0.094386	-0.409437	0.000074
C41	C	0.129203	-0.514438	-0.073010
C42	C	0.129225	-0.514446	0.073035
C43	C	0.161652	-0.453332	0.000008
C44	C	0.098198	-0.669338	0.000050
C45	C	0.093000	-0.314441	0.000076
N46	N	0.095568	-0.991919	-0.230607
C47	C	0.145161	-0.932038	0.470418
C48	C	0.158716	-1.007887	0.529757
C49	C	0.095603	-0.991882	0.412356
C50	C	0.082064	-0.916053	0.529759
C51	C	0.095588	-0.991896	0.587780
C52	C	0.109189	-1.067770	0.470388
C53	C	0.032510	-0.975885	0.470384
C54	C	0.046038	-1.051789	0.529697
C55	C	0.095614	-0.991872	0.311299
C56	C	0.095577	-0.991914	0.688835
H57	H	-0.131424	-1.135880	0.000125
N58	N	-0.034396	-0.958860	0.437650
N59	N	-0.057264	-0.890795	0.456639
H60	H	-0.104518	-0.878762	0.433520
N61	N	0.231725	-0.411449	-0.000032
N62	N	0.272679	-0.423846	0.062047
H63	H	0.322165	-0.394259	0.062017
N64	N	0.067716	-0.835597	0.562480
N65	N	0.107909	-0.770663	0.543486
H66	H	0.097783	-0.713839	0.566595
H67	H	0.157617	-0.534328	-0.134801
N68	N	-0.091966	-0.842371	0.000061
N69	N	-0.117056	-0.773450	0.000044
H70	H	-0.084792	-0.718684	0.000033
N71	N	-0.272824	-1.149253	0.000123
N72	N	-0.337845	-1.148085	0.000125
H73	H	-0.370126	-1.202837	0.000146
H74	H	0.187105	-0.881481	0.444391
N75	N	-0.239183	-0.839778	0.000075
N76	N	-0.277966	-0.821972	0.062486
H77	H	-0.298243	-0.766286	0.062487
N78	N	-0.569641	-1.144007	0.000089
N79	N	-0.609589	-1.211773	0.000094
H80	H	-0.589332	-1.267472	0.000113
N81	N	0.026300	-0.444241	0.150481
N82	N	0.019985	-0.368021	0.163210
H83	H	-0.005212	-0.350301	0.217894
H84	H	0.212066	-1.021431	0.555837
N85	N	-0.716835	-1.141395	0.000044
N86	N	-0.691743	-1.210314	0.000060
H87	H	-0.724006	-1.265082	0.000059
H88	H	-0.677386	-0.847892	0.000018
N89	N	0.164879	-0.539552	0.150464
N90	N	0.141968	-0.525354	0.226216
H91	H	0.167144	-0.543086	0.280908
H92	H	0.120698	-1.131917	0.444419
N93	N	-0.536002	-0.834500	0.000031
N94	N	-0.561093	-0.765581	0.000021
H95	H	-0.528830	-0.710814	0.000012
H96	H	-0.026244	-0.564003	-0.000002
H97	H	0.004119	-1.102459	0.555561
N98	N	0.026252	-0.444259	-0.150353
N99	N	-0.036501	-0.472265	-0.163354
H100	H	-0.061710	-0.454565	-0.218033
