data_functionalizedCrystal
_audit_creation_method	'MofGen! by Chris Wilmer'
_symmetry_space_group_name_H-M	'P1'
_symmetry_Int_Tables_number	1
_symmetry_cell_setting	triclinic
loop_
_symmetry_equiv_pos_as_xyz
  x,y,z
_cell_length_a	11.792241
_cell_length_b	10.967819
_cell_length_c	9.482900
_cell_angle_alpha	68.706355
_cell_angle_beta	80.596456
_cell_angle_gamma	95.541128
loop_
_atom_site_label
_atom_site_type_symbol
_atom_site_fract_x
_atom_site_fract_y
_atom_site_fract_z
O1	O	-0.077850	1.746071	-0.558334
O2	O	0.255483	2.079404	-0.225000
O3	O	0.588817	2.412738	0.108333
O4	O	-0.106896	1.367715	-0.463543
O5	O	0.226437	1.701049	-0.130210
O6	O	0.559770	2.034382	0.203124
O7	O	0.073114	1.566076	-0.513248
O8	O	0.406448	1.899410	-0.179914
O9	O	0.739781	2.232743	0.153419
O10	O	-0.257861	1.547710	-0.508629
O11	O	0.075473	1.881043	-0.175296
O12	O	0.408806	2.214377	0.158038
O13	O	0.036408	1.525786	-0.261359
O14	O	0.369742	1.859119	0.071974
O15	O	0.703075	2.192452	0.405307
O16	O	-0.143603	1.327425	-0.211655
O17	O	0.189731	1.660758	0.121679
O18	O	0.523064	1.994091	0.455012
O19	O	-0.114556	1.705780	-0.306445
O20	O	0.218777	2.039114	0.026888
O21	O	0.552110	2.372447	0.360221
Cu22	Cu	-0.132431	1.512924	-0.236051
Cu23	Cu	0.200902	1.846257	0.097283
Cu24	Cu	0.534236	2.179590	0.430616
Cu25	Cu	-0.089022	1.560572	-0.533938
Cu26	Cu	0.244312	1.893905	-0.200604
Cu27	Cu	0.577645	2.227239	0.132729
O28	O	-0.294567	1.507419	-0.256741
O29	O	0.038766	1.840753	0.076593
O30	O	0.372100	2.174086	0.409926
C31	C	-0.125909	1.299132	-0.325464
C32	C	0.207425	1.632465	0.007869
C33	C	0.540758	1.965799	0.341203
C34	C	-0.127858	1.154803	-0.289305
C35	C	0.205475	1.488136	0.044028
C36	C	0.538808	1.821469	0.377361
C37	C	-0.111735	0.962166	-0.366328
C38	C	0.221598	1.295499	-0.032994
C39	C	0.554932	1.628833	0.300339
C40	C	-0.109713	1.111338	-0.403690
C41	C	0.223620	1.444671	-0.070357
C42	C	0.556953	1.778004	0.262976
C43	C	-0.318466	1.528718	-0.382972
C44	C	0.014868	1.862051	-0.049638
C45	C	0.348201	2.195385	0.283695
C46	C	-0.444361	1.532169	-0.383830
C47	C	-0.111028	1.865503	-0.050497
C48	C	0.222305	2.198836	0.282837
C49	C	-0.674850	1.538524	-0.385459
C50	C	-0.341516	1.871857	-0.052125
C51	C	-0.008183	2.205191	0.281208
C52	C	-0.546589	1.534993	-0.384554
C53	C	-0.213256	1.868327	-0.051221
C54	C	0.120078	2.201660	0.282113
C55	C	0.097013	1.544778	-0.387020
C56	C	0.430347	1.878112	-0.053687
C57	C	0.763680	2.211445	0.279646
C58	C	0.222911	1.541328	-0.386172
C59	C	0.556244	1.874662	-0.052838
C60	C	0.889577	2.207995	0.280495
C61	C	-0.095544	1.774364	-0.444528
C62	C	0.237790	2.107697	-0.111195
C63	C	0.571123	2.441031	0.222139
C64	C	-0.093592	1.918695	-0.480696
C65	C	0.239741	2.252029	-0.147363
C66	C	0.573074	2.585362	0.185970
N67	N	-0.162962	1.479420	-0.026535
N68	N	0.170371	1.812753	0.306798
N69	N	0.503705	2.146087	0.640132
N70	N	-0.058481	1.594086	-0.743456
N71	N	0.274852	1.927419	-0.410122
N72	N	0.608185	2.260753	-0.076789
C73	C	-0.098021	1.550681	0.027808
C74	C	0.235312	1.884014	0.361141
C75	C	0.568646	2.217347	0.694474
C76	C	-0.123432	1.522815	0.202208
C77	C	0.209901	1.856148	0.535541
C78	C	0.543235	2.189481	0.868874
H79	H	-0.128771	0.888946	-0.240752
H80	H	0.204563	1.222279	0.092582
H81	H	0.537896	1.555612	0.425915
H82	H	-0.237369	1.397776	0.056053
H83	H	0.095965	1.731109	0.389386
H84	H	0.429298	2.064442	0.722720
H85	H	-0.197843	1.441165	0.284792
H86	H	0.135490	1.774499	0.618125
H87	H	0.468823	2.107832	0.951458
F88	F	-0.071341	1.014391	-0.644837
F89	F	0.261992	1.347724	-0.311503
F90	F	0.595325	1.681058	0.021830
F91	F	0.038603	1.701021	0.148555
F92	F	0.371937	2.034354	0.481888
F93	F	0.705270	2.367688	0.815222
F94	F	-0.087461	1.207030	-0.567839
F95	F	0.245873	1.540363	-0.234506
F96	F	0.579206	1.873697	0.098827
H97	H	-0.144896	1.081587	-0.163720
H98	H	0.188438	1.414921	0.169613
H99	H	0.521771	1.748254	0.502947
F100	F	-0.000566	1.657158	-0.080076
F101	F	0.332768	1.990492	0.253258
F102	F	0.666101	2.323825	0.586591
