data_functionalizedCrystal
_audit_creation_method	'MofGen! by Chris Wilmer'
_symmetry_space_group_name_H-M	'P1'
_symmetry_Int_Tables_number	1
_symmetry_cell_setting	triclinic
loop_
_symmetry_equiv_pos_as_xyz
  x,y,z
_cell_length_a	14.908294
_cell_length_b	18.215407
_cell_length_c	18.215405
_cell_angle_alpha	89.974667
_cell_angle_beta	93.262653
_cell_angle_gamma	86.721796
loop_
_atom_site_label
_atom_site_type_symbol
_atom_site_fract_x
_atom_site_fract_y
_atom_site_fract_z
Zn1	Zn	-0.510070	-1.101045	-0.316975
Zn2	Zn	-0.176737	-0.767712	0.016359
Zn3	Zn	0.156597	-0.434378	0.349692
Zn4	Zn	-0.359205	-1.108060	-0.432950
Zn5	Zn	-0.025872	-0.774727	-0.099617
Zn6	Zn	0.307462	-0.441393	0.233717
Zn7	Zn	-0.359229	-0.985083	-0.309904
Zn8	Zn	-0.025895	-0.651750	0.023429
Zn9	Zn	0.307438	-0.318416	0.356763
Zn10	Zn	-0.510012	-0.977946	-0.440002
Zn11	Zn	-0.176679	-0.644613	-0.106669
Zn12	Zn	0.156654	-0.311279	0.226664
O13	O	-0.434629	-1.043033	-0.374958
O14	O	-0.101296	-0.709700	-0.041624
O15	O	0.232038	-0.376367	0.291709
O16	O	-0.490072	-1.204959	-0.332367
O17	O	-0.156738	-0.871626	0.000966
O18	O	0.176595	-0.538292	0.334300
O19	O	-0.232967	-1.097669	-0.410717
O20	O	0.100366	-0.764336	-0.077384
O21	O	0.433699	-0.431003	0.255950
O22	O	-0.379272	-1.000517	-0.207859
O23	O	-0.045939	-0.667183	0.125474
O24	O	0.287395	-0.333850	0.458808
O25	O	-0.379232	-1.210113	-0.417573
O26	O	-0.045898	-0.876780	-0.084240
O27	O	0.287435	-0.543446	0.249093
O28	O	-0.490094	-1.085713	-0.213054
O29	O	-0.156761	-0.752380	0.120279
O30	O	0.176572	-0.419047	0.453613
O31	O	-0.232985	-1.007319	-0.320315
O32	O	0.100349	-0.673985	0.013018
O33	O	0.433682	-0.340652	0.346351
O34	O	-0.379216	-0.881153	-0.327154
O35	O	-0.045883	-0.547819	0.006179
O36	O	0.287450	-0.214486	0.339513
O37	O	-0.636261	-0.988353	-0.429593
O38	O	-0.302928	-0.655020	-0.096260
O39	O	0.030406	-0.321686	0.237074
O40	O	-0.489996	-0.875909	-0.422737
O41	O	-0.156663	-0.542576	-0.089403
O42	O	0.176670	-0.209243	0.243930
O43	O	-0.636303	-1.078793	-0.339205
O44	O	-0.302970	-0.745460	-0.005872
O45	O	0.030363	-0.412126	0.327461
O46	O	-0.379176	-1.090749	-0.536868
O47	O	-0.045843	-0.757416	-0.203535
O48	O	0.287491	-0.424082	0.129799
O49	O	-0.489973	-0.995155	-0.542050
O50	O	-0.156640	-0.661822	-0.208716
O51	O	0.176693	-0.328488	0.124617
C52	C	-0.434603	-0.851828	-0.374944
C53	C	-0.101270	-0.518495	-0.041611
C54	C	0.232064	-0.185162	0.291723
C55	C	-0.434613	-0.770029	-0.374957
C56	C	-0.101280	-0.436696	-0.041623
C57	C	0.232053	-0.103362	0.291710
C58	C	-0.434586	-1.042958	-0.566162
C59	C	-0.101252	-0.709624	-0.232829
C60	C	0.232081	-0.376291	0.100505
C61	C	-0.434597	-1.042991	-0.647961
C62	C	-0.101264	-0.709658	-0.314628
C63	C	0.232069	-0.376325	0.018705
C64	C	-0.669930	-1.031994	-0.385975
C65	C	-0.336597	-0.698661	-0.052641
C66	C	-0.003264	-0.365328	0.280692
C67	C	-0.770202	-1.027290	-0.390669
C68	C	-0.436868	-0.693957	-0.057336
C69	C	-0.103535	-0.360624	0.275997
C70	C	-0.911509	-0.973574	-0.444338
C71	C	-0.578175	-0.640241	-0.111004
C72	C	-0.244842	-0.306908	0.222329
C73	C	-0.817295	-0.977993	-0.439932
C74	C	-0.483962	-0.644660	-0.106598
C75	C	-0.150628	-0.311326	0.226735
C76	C	-0.817329	-1.072171	-0.345808
C77	C	-0.483996	-0.738837	-0.012475
C78	C	-0.150662	-0.405504	0.320859
C79	C	-0.911543	-1.067752	-0.350214
C80	C	-0.578209	-0.734419	-0.016880
C81	C	-0.244876	-0.401085	0.316453
C82	C	-0.958629	-1.018453	-0.399481
C83	C	-0.625296	-0.685120	-0.066148
C84	C	-0.291963	-0.351786	0.267186
C85	C	-1.052845	-1.014038	-0.403890
C86	C	-0.719512	-0.680705	-0.070557
C87	C	-0.386178	-0.347372	0.262777
C88	C	-1.052877	-1.108212	-0.309763
C89	C	-0.719544	-0.774879	0.023570
C90	C	-0.386211	-0.441545	0.356904
C91	C	-0.958663	-1.112631	-0.305357
C92	C	-0.625330	-0.779297	0.027976
C93	C	-0.291997	-0.445964	0.361310
C94	C	-0.200243	-1.054072	-0.363931
C95	C	0.133090	-0.720739	-0.030597
C96	C	0.466424	-0.387405	0.302736
C97	C	-0.099972	-1.058919	-0.359028
C98	C	0.233361	-0.725585	-0.025695
C99	C	0.566694	-0.392252	0.307638
C100	C	-0.434656	-1.234985	-0.374972
C101	C	-0.101322	-0.901652	-0.041639
C102	C	0.232011	-0.568318	0.291695
C103	C	-0.434667	-1.316783	-0.374978
C104	C	-0.101333	-0.983450	-0.041645
C105	C	0.232000	-0.650117	0.291688
C106	C	-0.492224	-0.579128	-0.424797
C107	C	-0.158891	-0.245794	-0.091464
C108	C	0.174442	0.087539	0.241869
C109	C	-0.492236	-0.502268	-0.424800
C110	C	-0.158902	-0.168935	-0.091467
C111	C	0.174431	0.164398	0.241867
C112	C	-0.377053	-0.507690	-0.325132
C113	C	-0.043720	-0.174357	0.008201
C114	C	0.289613	0.158976	0.341534
C115	C	-0.377047	-0.584548	-0.325127
C116	C	-0.043714	-0.251215	0.008207
C117	C	0.289619	0.082119	0.341540
C118	C	-0.434631	-0.620265	-0.374963
C119	C	-0.101298	-0.286931	-0.041630
C120	C	0.232035	0.046402	0.291703
C121	C	-0.434649	-0.466548	-0.374972
C122	C	-0.101315	-0.133214	-0.041638
C123	C	0.232018	0.200119	0.291695
C124	C	-0.434661	-0.383214	-0.374975
C125	C	-0.101327	-0.049880	-0.041641
C126	C	0.232006	0.283453	0.291692
C127	C	-0.434621	-0.703604	-0.374960
C128	C	-0.101288	-0.370271	-0.041626
C129	C	0.232045	-0.036937	0.291707
C130	C	-0.377011	-1.092873	-0.833438
C131	C	-0.043678	-0.759539	-0.500105
C132	C	0.289656	-0.426206	-0.166771
C133	C	-0.377033	-1.092905	-0.910298
C134	C	-0.043700	-0.759571	-0.576964
C135	C	0.289634	-0.426238	-0.243631
C136	C	-0.492312	-0.993285	-0.915729
C137	C	-0.158978	-0.659952	-0.582395
C138	C	0.174355	-0.326619	-0.249062
C139	C	-0.492294	-0.993258	-0.838870
C140	C	-0.158960	-0.659924	-0.505537
C141	C	0.174373	-0.326591	-0.172204
C142	C	-0.434638	-1.043050	-0.797727
C143	C	-0.101305	-0.709717	-0.464393
C144	C	0.232028	-0.376384	-0.131060
C145	C	-0.434678	-1.043110	-0.951445
C146	C	-0.101345	-0.709777	-0.618111
C147	C	0.231989	-0.376443	-0.284778
C148	C	-0.434702	-1.043144	-1.034779
C149	C	-0.101369	-0.709811	-0.701446
C150	C	0.231964	-0.376478	-0.368113
C151	C	-0.434615	-1.043017	-0.714387
C152	C	-0.101282	-0.709684	-0.381053
C153	C	0.232051	-0.376351	-0.047720
C154	C	-0.434692	-1.043129	-0.183008
C155	C	-0.101359	-0.709795	0.150326
C156	C	0.231974	-0.376462	0.483659
C157	C	-0.434719	-1.043169	-0.101210
C158	C	-0.101386	-0.709836	0.232123
C159	C	0.231947	-0.376502	0.565457
H160	H	-1.091182	-0.973898	-0.444008
H161	H	-0.757848	-0.640565	-0.110674
H162	H	-0.424515	-0.307232	0.222659
H163	H	-0.330066	-1.133418	-0.799941
H164	H	0.003267	-0.800085	-0.466607
H165	H	0.336601	-0.466751	-0.133274
H166	H	-0.330108	-1.133476	-0.939370
H167	H	0.003225	-0.800142	-0.606037
H168	H	0.336558	-0.466809	-0.272703
F169	F	-0.961624	-0.921113	-0.496776
F170	F	-0.628291	-0.587779	-0.163442
F171	F	-0.294957	-0.254446	0.169891
H172	H	-0.330148	-0.618043	-0.284541
H173	H	0.003185	-0.284710	0.048792
H174	H	0.336518	0.048624	0.382125
F175	F	-0.553513	-0.617137	-0.477836
F176	F	-0.220179	-0.283804	-0.144502
F177	F	0.113154	0.049530	0.188831
F178	F	-0.553636	-0.940230	-0.800862
F179	F	-0.220303	-0.606897	-0.467529
F180	F	0.113031	-0.273563	-0.134195
F181	F	-0.767149	-0.930225	-0.487673
F182	F	-0.433815	-0.596892	-0.154339
F183	F	-0.100482	-0.263559	0.178994
F184	F	-0.908541	-1.165082	-0.252914
F185	F	-0.575208	-0.831749	0.080420
F186	F	-0.241874	-0.498416	0.413753
F187	F	-0.767201	-1.124598	-0.293343
F188	F	-0.433868	-0.791264	0.039990
F189	F	-0.100534	-0.457931	0.373324
F190	F	-1.103033	-1.155982	-0.262024
F191	F	-0.769700	-0.822648	0.071310
F192	F	-0.436367	-0.489315	0.404643
H193	H	-0.539251	-0.952745	-0.949237
H194	H	-0.205918	-0.619412	-0.615903
H195	H	0.127415	-0.286078	-0.282570
F196	F	-0.315771	-0.469672	-0.272097
F197	F	0.017563	-0.136338	0.061237
F198	F	0.350896	0.196995	0.394570
F199	F	-0.553535	-0.458490	-0.477839
F200	F	-0.220202	-0.125157	-0.144506
F201	F	0.113131	0.208177	0.188828
