data_functionalizedCrystal
_audit_creation_method	'MofGen! by Chris Wilmer'
_symmetry_space_group_name_H-M	'P1'
_symmetry_Int_Tables_number	1
_symmetry_cell_setting	triclinic
loop_
_symmetry_equiv_pos_as_xyz
  x,y,z
_cell_length_a	13.897449
_cell_length_b	29.839131
_cell_length_c	13.897441
_cell_angle_alpha	89.964857
_cell_angle_beta	89.979267
_cell_angle_gamma	90.042700
loop_
_atom_site_label
_atom_site_type_symbol
_atom_site_fract_x
_atom_site_fract_y
_atom_site_fract_z
Zn1	Zn	1.474544	-0.178824	-0.545351
Zn2	Zn	1.474371	-0.253959	-0.384039
Zn3	Zn	1.313233	-0.178845	-0.384069
Zn4	Zn	1.313148	-0.253929	-0.545292
O5	O	1.393824	-0.216389	-0.464688
O6	O	1.609502	-0.188794	-0.523965
O7	O	1.452959	-0.244016	-0.249061
O8	O	1.334739	-0.115975	-0.405500
O9	O	1.609375	-0.243995	-0.405450
O10	O	1.453253	-0.115959	-0.523993
O11	O	1.334571	-0.188830	-0.249083
O12	O	1.178240	-0.188802	-0.405443
O13	O	1.334594	-0.243945	-0.680281
O14	O	1.178177	-0.243966	-0.523893
O15	O	1.453171	-0.188765	-0.680325
O16	O	1.452876	-0.316822	-0.405393
O17	O	1.334426	-0.316800	-0.523864
C18	C	1.143209	-0.216383	-0.464666
C19	C	1.035995	-0.216391	-0.464679
C20	C	0.839700	-0.216393	-0.464704
C21	C	0.948933	-0.216391	-0.464688
C22	C	1.393649	-0.333112	-0.464640
C23	C	1.393663	-0.383046	-0.464652
C24	C	1.455613	-0.692688	-0.403090
C25	C	1.455732	-0.880361	-0.403127
O26	O	1.508265	-0.904625	-0.350748
N27	N	1.394024	-0.903831	-0.464760
C28	C	1.332286	-0.880380	-0.526393
O29	O	1.279809	-0.904649	-0.578824
C30	C	1.332172	-0.692708	-0.526360
C31	C	1.393878	-0.669240	-0.464716
C32	C	1.517314	-0.669221	-0.341451
C33	C	1.517280	-0.622305	-0.341439
C34	C	1.455545	-0.598857	-0.403065
C35	C	1.393844	-0.622325	-0.464703
C36	C	1.270440	-0.669258	-0.587997
C37	C	1.270419	-0.622336	-0.587985
C38	C	1.332124	-0.598869	-0.526341
C39	C	1.332074	-0.551962	-0.526317
N40	N	1.393782	-0.528492	-0.464684
C41	C	1.455518	-0.551939	-0.403057
C42	C	1.332349	-0.978911	-0.526405
C43	C	1.332375	-1.025828	-0.526412
C44	C	1.455823	-1.025806	-0.403147
C45	C	1.455790	-0.978888	-0.403136
C46	C	1.394057	-0.955441	-0.464772
C47	C	1.455441	-0.453414	-0.403035
C48	C	1.455398	-0.406494	-0.403026
C49	C	1.331955	-0.406520	-0.526294
C50	C	1.331993	-0.453436	-0.526301
C51	C	1.393744	-0.476881	-0.464668
O52	O	1.279576	-0.527669	-0.578676
O53	O	1.508002	-0.527662	-0.350650
C54	C	1.455647	-0.739604	-0.403102
C55	C	1.393946	-0.763071	-0.464741
C56	C	1.332211	-0.739623	-0.526367
C57	C	1.393973	-0.809989	-0.464748
C58	C	1.455708	-0.833437	-0.403122
C59	C	1.517416	-0.809967	-0.341489
C60	C	1.517382	-0.763051	-0.341476
C61	C	1.270503	-0.763093	-0.588000
C62	C	1.270541	-0.810009	-0.588007
C63	C	1.332276	-0.833457	-0.526381
C64	C	1.645417	-0.216395	-0.464710
C65	C	1.752631	-0.216398	-0.464720
C66	C	1.393892	-0.216349	-0.716281
C67	C	1.393921	-0.216332	-0.823495
C68	C	1.394025	-0.099211	-0.464757
C69	C	1.394111	-0.049276	-0.464786
C70	C	1.393948	-0.216302	-1.019790
C71	C	1.393930	-0.216320	-0.910558
C72	C	1.393811	-0.216396	-0.214073
C73	C	1.393969	-0.216287	-0.106860
H74	H	1.505646	-0.387388	-0.352824
C75	C	1.585161	-0.596493	-0.273635
C76	C	1.660851	-0.564188	-0.315491
C77	C	1.728737	-0.538379	-0.247685
C78	C	1.720932	-0.544874	-0.138025
C79	C	1.645239	-0.577180	-0.096164
C80	C	1.577353	-0.602989	-0.163969
H81	H	1.666631	-0.559379	-0.396673
H82	H	1.784770	-0.514464	-0.278674
H83	H	1.771185	-0.525768	-0.087831
H84	H	1.639459	-0.581989	-0.014981
H85	H	1.521320	-0.626904	-0.132980
H86	H	1.567591	-0.688307	-0.291268
H87	H	1.505726	-0.472497	-0.352851
C88	C	1.585327	-0.835765	-0.273700
C89	C	1.694975	-0.829261	-0.281672
C90	C	1.762887	-0.855062	-0.213892
C91	C	1.721150	-0.887367	-0.138140
C92	C	1.611497	-0.893872	-0.130165
C93	C	1.543585	-0.868071	-0.197945
H94	H	1.725876	-0.805346	-0.337751
H95	H	1.844060	-0.850246	-0.219795
H96	H	1.771423	-0.906466	-0.087965
H97	H	1.580596	-0.917787	-0.074086
H98	H	1.462412	-0.872887	-0.192041
C99	C	1.264116	-0.479255	-0.594101
C100	C	1.154458	-0.472866	-0.586134
C101	C	1.086588	-0.498683	-0.653943
C102	C	1.128376	-0.530888	-0.729719
C103	C	1.238039	-0.537278	-0.737690
C104	C	1.305909	-0.511462	-0.669881
H105	H	1.123520	-0.449025	-0.530036
H106	H	1.005408	-0.493952	-0.648042
H107	H	1.078135	-0.549999	-0.779916
H108	H	1.268978	-0.561120	-0.793788
H109	H	1.387089	-0.516192	-0.675782
C110	C	1.523738	-1.051604	-0.335362
C111	C	1.523764	-1.103212	-0.335383
C112	C	1.591681	-1.129013	-0.267608
C113	C	1.659571	-1.103205	-0.199811
C114	C	1.659547	-1.051595	-0.199787
C115	C	1.591631	-1.025794	-0.267563
H116	H	1.473506	-1.122319	-0.385572
H117	H	1.591699	-1.167218	-0.267625
H118	H	1.709848	-1.122304	-0.149640
H119	H	1.709806	-1.032488	-0.149598
H120	H	1.591613	-0.987588	-0.267545
H121	H	1.506036	-0.959783	-0.352940
C122	C	1.264491	-1.051640	-0.594215
C123	C	1.196592	-1.025841	-0.662002
C124	C	1.128710	-1.051650	-0.729812
C125	C	1.128727	-1.103258	-0.729834
C126	C	1.196629	-1.129059	-0.662043
C127	C	1.264511	-1.103250	-0.594234
H128	H	1.196576	-0.987635	-0.661989
H129	H	1.078444	-1.032550	-0.779995
H130	H	1.078477	-1.122364	-0.780030
H131	H	1.196644	-1.167265	-0.662057
H132	H	1.314777	-1.122350	-0.544051
H133	H	1.282075	-0.959823	-0.576598
H134	H	1.220189	-0.688357	-0.638190
H135	H	1.220285	-0.829112	-0.638204
H136	H	1.220149	-0.603248	-0.638179
H137	H	1.281688	-0.387422	-0.576466
H138	H	1.567628	-0.743947	-0.291280
C139	C	1.202586	-0.737306	-0.655793
C140	C	1.092942	-0.743822	-0.647816
C141	C	1.025016	-0.718037	-0.715612
C142	C	1.066735	-0.685738	-0.791383
C143	C	1.176385	-0.679221	-0.799363
C144	C	1.244310	-0.705005	-0.731568
H145	H	1.062054	-0.767733	-0.591723
H146	H	0.943846	-0.722862	-0.709704
H147	H	1.016452	-0.666651	-0.841569
H148	H	1.207273	-0.655310	-0.855457
H149	H	1.325481	-0.700181	-0.737475
