data_functionalizedCrystal
_audit_creation_method	'MofGen! by Chris Wilmer'
_symmetry_space_group_name_H-M	'P1'
_symmetry_Int_Tables_number	1
_symmetry_cell_setting	triclinic
loop_
_symmetry_equiv_pos_as_xyz
  x,y,z
_cell_length_a	27.732048
_cell_length_b	27.732048
_cell_length_c	26.210047
_cell_angle_alpha	89.988553
_cell_angle_beta	90.000479
_cell_angle_gamma	97.357346
loop_
_atom_site_label
_atom_site_type_symbol
_atom_site_fract_x
_atom_site_fract_y
_atom_site_fract_z
O1	O	-0.057510	0.640931	-0.042463
O2	O	-0.066255	0.500138	-0.042459
O3	O	0.008514	0.574907	-0.042451
O4	O	-0.132279	0.566162	-0.042470
O5	O	0.008502	0.574893	0.042407
O6	O	-0.066267	0.500123	0.042399
O7	O	-0.057522	0.640917	0.042395
Cu8	Cu	-0.061895	0.570519	0.050145
Cu9	Cu	-0.061882	0.570536	-0.050209
O10	O	-0.132291	0.566147	0.042388
C11	C	0.026515	0.574716	-0.000021
C12	C	0.080170	0.574164	-0.000017
C13	C	-0.057699	0.658931	-0.000036
C14	C	-0.058252	0.712586	-0.000041
C15	C	-0.066078	0.482124	-0.000029
C16	C	-0.065525	0.428469	-0.000027
C17	C	-0.150292	0.566338	-0.000044
C18	C	-0.203947	0.566891	-0.000052
C19	C	0.418985	0.614867	-0.000044
C20	C	0.620645	0.612816	-0.000051
O21	O	0.651900	0.650037	-0.000075
N22	N	0.639768	0.568481	-0.000049
C23	C	0.608474	0.524656	-0.000049
O24	O	0.629367	0.486899	-0.000053
C25	C	0.406815	0.526707	-0.000046
C26	C	0.387694	0.571045	-0.000042
C27	C	0.399864	0.659202	-0.000041
C28	C	0.349452	0.659714	-0.000037
C29	C	0.318161	0.615892	-0.000035
C30	C	0.337282	0.571557	-0.000038
C31	C	0.375521	0.482882	-0.000049
C32	C	0.325104	0.483399	-0.000049
C33	C	0.305983	0.527737	-0.000046
C34	C	0.255580	0.528248	-0.000031
N35	N	0.236456	0.572583	-0.000033
C36	C	0.267747	0.616405	-0.000035
C37	C	0.714348	0.523582	-0.000050
C38	C	0.764762	0.523069	-0.000050
C39	C	0.776930	0.611230	-0.000053
C40	C	0.726514	0.611742	-0.000049
C41	C	0.695224	0.567917	-0.000052
C42	C	0.161878	0.617477	-0.000025
C43	C	0.111461	0.617986	-0.000019
C44	C	0.099298	0.529825	-0.000018
C45	C	0.149710	0.529316	-0.000022
C46	C	0.180999	0.573147	-0.000027
O47	O	0.224296	0.491047	-0.000014
O48	O	0.246844	0.654156	-0.000043
C49	C	0.469397	0.614355	-0.000049
C50	C	0.488518	0.570021	-0.000051
C51	C	0.457228	0.526198	-0.000050
C52	C	0.538933	0.569508	-0.000051
C53	C	0.570223	0.613330	-0.000053
C54	C	0.551100	0.657665	-0.000055
C55	C	0.500688	0.658177	-0.000051
C56	C	0.476351	0.481863	-0.000048
C57	C	0.526764	0.481355	-0.000052
C58	C	0.558054	0.525177	-0.000053
N59	N	-0.061905	0.570510	0.120729
C60	C	-0.017548	1.051401	-0.000018
C61	C	-0.019599	1.253060	-0.000017
O62	O	0.017621	1.284316	0.000010
N63	N	-0.063935	1.272184	-0.000025
C64	C	-0.107760	1.240890	-0.000029
O65	O	-0.145517	1.261783	-0.000030
C66	C	-0.105709	1.039231	-0.000027
C67	C	-0.061371	1.020110	-0.000024
C68	C	0.026786	1.032280	-0.000015
C69	C	0.027298	0.981868	-0.000019
C70	C	-0.016524	0.950577	-0.000025
C71	C	-0.060858	0.969698	-0.000028
C72	C	-0.149534	1.007937	-0.000028
C73	C	-0.149017	0.957520	-0.000026
C74	C	-0.104679	0.938399	-0.000023
C75	C	-0.104168	0.887996	-0.000037
N76	N	-0.059833	0.868872	-0.000029
C77	C	-0.016011	0.900163	-0.000023
C78	C	-0.108834	1.346764	-0.000031
C79	C	-0.109347	1.397178	-0.000033
C80	C	-0.021186	1.409345	-0.000020
C81	C	-0.020674	1.358930	-0.000022
C82	C	-0.064499	1.327640	-0.000024
C83	C	-0.014938	0.794293	-0.000030
C84	C	-0.014430	0.743876	-0.000035
C85	C	-0.102591	0.731713	-0.000046
C86	C	-0.103099	0.782126	-0.000043
C87	C	-0.059269	0.813415	-0.000034
O88	O	-0.141369	0.856712	-0.000058
O89	O	0.021740	0.879260	-0.000011
C90	C	-0.018061	1.101813	-0.000015
C91	C	-0.062395	1.120934	-0.000018
C92	C	-0.106217	1.089643	-0.000024
C93	C	-0.062908	1.171348	-0.000020
C94	C	-0.019086	1.202639	-0.000014
C95	C	0.025249	1.183515	-0.000006
C96	C	0.025761	1.133103	-0.000009
C97	C	-0.150553	1.108767	-0.000032
C98	C	-0.151061	1.159180	-0.000029
C99	C	-0.107239	1.190470	-0.000023
N100	N	-0.061868	0.570548	-0.120793
C101	C	-0.028781	0.603640	0.473247
C102	C	-0.028774	0.603651	0.686905
O103	O	-0.000614	0.631801	0.714530
N104	N	-0.061871	0.570538	0.713623
C105	C	-0.094970	0.537419	0.686923
O106	O	-0.123117	0.509251	0.714551
C107	C	-0.094974	0.537406	0.473266
C108	C	-0.061878	0.570524	0.446550
C109	C	0.004312	0.636755	0.446531
C110	C	0.004308	0.636754	0.393120
C111	C	-0.028789	0.603638	0.366424
C112	C	-0.061882	0.570523	0.393139
C113	C	-0.128070	0.504284	0.446567
C114	C	-0.128067	0.504283	0.393149
C115	C	-0.094971	0.537401	0.366434
C116	C	-0.094983	0.537405	0.313031
N117	N	-0.061886	0.570518	0.286313
C118	C	-0.028789	0.603634	0.313010
C119	C	-0.094966	0.537428	0.799097
C120	C	-0.094965	0.537432	0.852511
C121	C	-0.028769	0.603664	0.852489
C122	C	-0.028773	0.603662	0.799074
C123	C	-0.061869	0.570541	0.772379
C124	C	-0.028800	0.603629	0.200842
C125	C	-0.028808	0.603626	0.147425
C126	C	-0.095002	0.537393	0.147452
C127	C	-0.094996	0.537397	0.200863
C128	C	-0.061891	0.570517	0.227557
O129	O	-0.123125	0.509267	0.285374
O130	O	-0.000639	0.631790	0.285372
C131	C	-0.028777	0.603642	0.526658
C132	C	-0.061871	0.570527	0.553373
C133	C	-0.094968	0.537410	0.526677
C134	C	-0.061870	0.570530	0.606788
C135	C	-0.028773	0.603646	0.633484
C136	C	0.004323	0.636759	0.606766
C137	C	0.004320	0.636758	0.553354
C138	C	-0.128064	0.504298	0.553395
C139	C	-0.128058	0.504302	0.606807
C140	C	-0.094961	0.537418	0.633503
H141	H	0.187348	0.653168	-0.000031
H142	H	-0.155019	0.477317	0.468311
O143	O	-0.145126	0.701263	-0.000118
C144	C	-0.147467	0.671754	-0.044072
H145	H	-0.109117	0.669493	-0.058725
H146	H	-0.165756	0.633723	-0.034187
H147	H	-0.169420	0.688181	-0.074847
H148	H	-0.121918	0.510456	0.777365
H149	H	0.095896	0.654093	-0.000015
H150	H	-0.001842	0.630598	0.222569
O151	O	0.036398	0.668948	0.472515
C152	C	0.010716	0.698586	0.503391
H153	H	-0.027240	0.679049	0.511407
H154	H	0.030950	0.706396	0.540946
H155	H	0.007672	0.734279	0.482789
O156	O	-0.191559	0.927076	-0.000098
C157	C	-0.193903	0.897570	-0.044055
H158	H	-0.155554	0.895301	-0.058704
H159	H	-0.212202	0.859541	-0.034174
H160	H	-0.215849	0.914006	-0.074830
H161	H	-0.155018	0.477311	0.371416
O162	O	0.445910	0.439324	0.000024
C163	C	0.416396	0.436968	0.043982
H164	H	0.414123	0.475313	0.058632
H165	H	0.378370	0.418669	0.034103
H166	H	0.432829	0.415017	0.074756
O167	O	0.068801	1.114475	0.000063
C168	C	0.071740	1.085679	0.044018
H169	H	0.033545	1.072834	0.058666
H170	H	0.090763	1.052809	0.034136
H171	H	0.093288	1.108107	0.074796
O172	O	-0.146211	0.800622	-0.000028
C173	C	-0.184779	0.762191	-0.000051
H174	H	-0.171492	0.728033	0.016011
H175	H	-0.215760	0.772492	0.024583
H176	H	-0.198272	0.754971	-0.040764
H177	H	0.031269	0.663725	0.531606
H178	H	0.576585	0.693347	-0.000054
H179	H	-0.001823	0.630629	0.777325
H180	H	-0.144524	1.321291	-0.000033
O181	O	0.807311	0.653812	0.000032
C182	C	0.798693	0.680761	0.043970
H183	H	0.781272	0.655113	0.074694
H184	H	0.834611	0.700412	0.058715
H185	H	0.773229	0.708548	0.034029
H186	H	0.031271	0.663725	0.628510
H187	H	-0.155013	0.477334	0.628555
O188	O	0.545254	0.438238	-0.000077
C189	C	0.506819	0.399673	-0.000062
H190	H	0.472666	0.412970	-0.016121
H191	H	0.517123	0.368701	-0.024704
H192	H	0.499589	0.386164	0.040648
O193	O	0.482198	0.701290	-0.000074
C194	C	0.520634	0.739853	-0.000064
H195	H	0.554784	0.726561	-0.016129
H196	H	0.510330	0.770837	-0.024701
H197	H	0.527870	0.753346	0.040646
O198	O	0.294661	0.440857	0.000017
C199	C	0.265145	0.438497	0.043975
H200	H	0.262873	0.476841	0.058629
H201	H	0.227119	0.420201	0.034092
H202	H	0.281575	0.416541	0.074747
H203	H	0.060931	1.209001	-0.000004
O204	O	0.036508	0.668940	0.367251
C205	C	0.065710	0.698172	0.402277
H206	H	0.066113	0.678357	0.440356
H207	H	0.104368	0.705834	0.386848
H208	H	0.050264	0.733963	0.407949
O209	O	0.003450	0.635812	0.878370
C210	C	0.051247	0.628299	0.865332
H211	H	0.051058	0.609670	0.826553
H212	H	0.075308	0.664808	0.863502
H213	H	0.066023	0.604347	0.895399
O214	O	-0.194178	1.177669	-0.000010
C215	C	-0.232743	1.139235	-0.000027
H216	H	-0.219451	1.105079	0.016034
H217	H	-0.263722	1.149534	0.024610
H218	H	-0.246240	1.132013	-0.040739
O219	O	-0.192595	1.026521	-0.000126
C220	C	-0.195526	1.055332	-0.044071
H221	H	-0.170345	1.043608	-0.074782
H222	H	-0.234515	1.050509	-0.058832
H223	H	-0.184089	1.095176	-0.034135
O224	O	0.168206	0.486205	-0.000046
C225	C	0.129775	0.447637	-0.000028
H226	H	0.095619	0.460930	-0.016085
H227	H	0.140080	0.416665	-0.024670
H228	H	0.122549	0.434128	0.040683
O229	O	0.003391	0.635816	0.121554
C230	C	0.032595	0.665051	0.156575
H231	H	0.033005	0.645237	0.194654
H232	H	0.071251	0.672716	0.141140
H233	H	0.017147	0.700841	0.162249
H234	H	-0.121950	0.510434	0.222615
O235	O	-0.127169	0.505290	0.121457
C236	C	-0.156822	0.530949	0.090562
H237	H	-0.137313	0.568920	0.082555
H238	H	-0.164601	0.510717	0.053003
H239	H	-0.192530	0.533957	0.111142
O240	O	0.022438	1.340439	0.000006
C241	C	0.061004	1.378873	-0.000005
H242	H	0.047709	1.413022	0.016057
H243	H	0.091980	1.368563	0.024636
H244	H	0.074506	1.386114	-0.040714
O245	O	0.783253	0.479956	-0.000070
C246	C	0.744818	0.441391	-0.000057
H247	H	0.710667	0.454686	-0.016121
H248	H	0.755124	0.410417	-0.024694
H249	H	0.737584	0.427885	0.040654
H250	H	-0.155015	0.477330	0.531663
O251	O	-0.193111	1.078354	0.000048
C252	C	-0.195462	1.048805	0.043986
H253	H	-0.170609	1.067437	0.074713
H254	H	-0.234447	1.042851	0.058727
H255	H	-0.183234	1.012233	0.034048
H256	H	0.073812	0.494146	-0.000015
O257	O	0.707965	0.654824	-0.000142
C258	C	0.724002	0.681525	-0.044084
H259	H	0.734299	0.655595	-0.074800
H260	H	0.693611	0.701862	-0.058839
H261	H	0.757061	0.708707	-0.034148
H262	H	0.014496	1.434831	-0.000017
O263	O	0.683906	0.481039	0.000019
C264	C	0.654388	0.478682	0.043974
H265	H	0.652113	0.517027	0.058624
H266	H	0.616363	0.460382	0.034091
H267	H	0.670818	0.456730	0.074750
O268	O	-0.127136	0.505218	0.878380
C269	C	-0.156353	0.475998	0.843356
H270	H	-0.136536	0.475603	0.805282
H271	H	-0.163993	0.437340	0.858796
H272	H	-0.192156	0.491421	0.837671
H273	H	0.425336	0.694889	-0.000045
O274	O	0.330962	0.702827	-0.000061
C275	C	0.369399	0.741390	-0.000051
H276	H	0.403549	0.728098	-0.016116
H277	H	0.359094	0.772373	-0.024690
H278	H	0.376634	0.754883	0.040659
H279	H	0.391080	0.446777	-0.000055
H280	H	0.020752	0.819764	-0.000023
O281	O	0.028685	0.725384	-0.000009
C282	C	0.067252	0.763817	-0.000014
H283	H	0.053959	0.797965	0.016051
H284	H	0.098226	0.753502	0.024626
H285	H	0.080756	0.771061	-0.040723
H286	H	0.063403	0.966305	-0.000015
H287	H	-0.145452	1.412741	-0.000042
O288	O	0.069403	1.062602	-0.000034
C289	C	0.108637	1.034904	-0.000017
H290	H	0.096073	0.997187	-0.016080
H291	H	0.139323	1.053723	-0.024654
H292	H	0.122242	1.031405	0.040694
