data_functionalizedCrystal
_audit_creation_method	'MofGen! by Chris Wilmer'
_symmetry_space_group_name_H-M	'P1'
_symmetry_Int_Tables_number	1
_symmetry_cell_setting	triclinic
loop_
_symmetry_equiv_pos_as_xyz
  x,y,z
_cell_length_a	16.109301
_cell_length_b	10.489716
_cell_length_c	15.186229
_cell_angle_alpha	90.000291
_cell_angle_beta	89.999362
_cell_angle_gamma	83.995308
loop_
_atom_site_label
_atom_site_type_symbol
_atom_site_fract_x
_atom_site_fract_y
_atom_site_fract_z
O1	O	1.104132	0.163949	-0.073165
O2	O	0.862194	0.184352	-0.073178
O3	O	0.988679	-0.011530	-0.073174
O4	O	0.977647	0.359830	-0.073169
O5	O	0.988670	-0.011532	0.073283
O6	O	0.862186	0.184349	0.073279
O7	O	1.104123	0.163946	0.073292
Zn8	Zn	0.983153	0.174147	0.096539
Zn9	Zn	0.983164	0.174151	-0.096425
O10	O	0.977639	0.359827	0.073289
C11	C	0.831210	0.183524	0.000049
C12	C	0.738900	0.181046	0.000044
C13	C	0.987846	-0.059051	0.000052
C14	C	0.985366	-0.200646	0.000043
C15	C	0.517302	0.291517	0.000055
C16	C	0.430567	0.289179	0.000061
C17	C	0.449022	0.056772	0.000054
C18	C	0.535755	0.059112	0.000055
C19	C	0.569893	0.176488	0.000051
C20	C	0.396425	0.171810	0.000056
C21	C	0.302383	0.169274	0.000062
C22	C	0.663940	0.179024	0.000046
C23	C	1.062930	-0.299445	0.000056
C24	C	1.021948	-0.376210	-0.072155
C25	C	1.021921	-0.376176	0.072240
C26	C	0.944416	-0.275546	-0.072227
C27	C	0.944401	-0.275507	0.072233
C28	C	0.903361	-0.352222	0.000004
C29	C	1.135107	0.164774	0.000064
C30	C	1.227418	0.167252	0.000063
C31	C	0.978472	0.407349	0.000061
C32	C	0.980952	0.548944	0.000063
N33	N	0.983152	0.174144	0.228232
N34	N	0.983173	0.174144	-0.228117
C35	C	1.039178	0.087437	0.453956
C36	C	1.039181	0.087434	0.546146
C37	C	0.927140	0.260855	0.546152
C38	C	0.927134	0.260851	0.453964
C39	C	0.983158	0.174143	0.407868
C40	C	0.983166	0.174144	0.592246
C41	C	0.983169	0.174142	0.692202
C42	C	0.983155	0.174144	0.307906
H43	H	0.387751	0.382847	0.000067
H44	H	0.545093	0.387092	0.000059
H45	H	0.881511	0.331459	0.416436
H46	H	0.911683	-0.231515	0.133282
C47	C	0.411469	-0.072337	0.000047
C48	C	0.316067	-0.074918	0.000039
C49	C	0.278516	-0.204030	0.000028
C50	C	0.336367	-0.330561	0.000025
C51	C	0.431775	-0.327985	0.000032
C52	C	0.469326	-0.198873	0.000043
H53	H	0.273237	0.018753	0.000042
H54	H	0.207888	-0.205936	0.000023
H55	H	0.308569	-0.426137	0.000016
H56	H	0.474605	-0.421655	0.000029
H57	H	0.539954	-0.196966	0.000048
C58	C	0.593612	-0.067430	0.000048
C59	C	0.589299	-0.163624	0.076095
C60	C	0.647155	-0.290158	0.076092
C61	C	0.709324	-0.320499	0.000042
C62	C	0.713639	-0.224303	-0.076010
C63	C	0.655783	-0.097768	-0.076007
H64	H	0.543275	-0.141166	0.132396
H65	H	0.643960	-0.361369	0.132391
H66	H	0.752152	-0.414168	0.000040
H67	H	0.759663	-0.246761	-0.132312
H68	H	0.658979	-0.026558	-0.132307
H69	H	1.130398	-0.275748	-0.000014
H70	H	1.054694	-0.420179	-0.133202
H71	H	0.911694	-0.231766	-0.133344
C72	C	1.066164	-0.435538	0.154718
C73	C	1.159085	-0.420731	0.170564
C74	C	1.203334	-0.480089	0.253037
C75	C	1.154661	-0.554253	0.319664
C76	C	1.061734	-0.569063	0.303820
C77	C	1.017486	-0.509705	0.221347
H78	H	1.195120	-0.365827	0.121241
H79	H	1.272125	-0.469125	0.264765
H80	H	1.187417	-0.598193	0.380715
H81	H	1.025699	-0.623966	0.353143
H82	H	0.948695	-0.520669	0.209619
H83	H	0.835843	-0.375673	-0.000038
C84	C	1.100797	-0.007949	0.403251
C85	C	1.162414	-0.103329	0.453952
C86	C	1.224032	-0.198721	0.403250
C87	C	1.224033	-0.198733	0.301847
C88	C	1.162413	-0.103349	0.251140
C89	C	1.100795	-0.007957	0.301842
H90	H	1.162416	-0.103324	0.529022
H91	H	1.269647	-0.269331	0.440787
H92	H	1.269646	-0.269347	0.264314
H93	H	1.162412	-0.103354	0.176070
H94	H	1.055180	0.062653	0.264305
C95	C	0.865522	0.356241	0.596857
C96	C	0.865570	0.356326	0.698260
C97	C	0.803951	0.451718	0.748962
C98	C	0.742285	0.547025	0.698261
C99	C	0.742235	0.546943	0.596853
C100	C	0.803853	0.451551	0.546150
H101	H	0.911221	0.285771	0.735797
H102	H	0.803989	0.451778	0.824032
H103	H	0.696672	0.617639	0.735794
H104	H	0.696584	0.617498	0.559316
H105	H	0.803816	0.451491	0.471081
H106	H	1.084797	0.016828	0.583668
