data_functionalizedCrystal
_audit_creation_method	'MofGen! by Chris Wilmer'
_symmetry_space_group_name_H-M	'P1'
_symmetry_Int_Tables_number	1
_symmetry_cell_setting	triclinic
loop_
_symmetry_equiv_pos_as_xyz
  x,y,z
_cell_length_a	16.120530
_cell_length_b	18.101397
_cell_length_c	18.101389
_cell_angle_alpha	89.978953
_cell_angle_beta	87.084523
_cell_angle_gamma	87.115827
loop_
_atom_site_label
_atom_site_type_symbol
_atom_site_fract_x
_atom_site_fract_y
_atom_site_fract_z
Zn1	Zn	1.274561	-0.352405	-0.476057
Zn2	Zn	1.274469	-0.476226	-0.352206
Zn3	Zn	1.135145	-0.346118	-0.345958
Zn4	Zn	1.135116	-0.469918	-0.469737
O5	O	1.204823	-0.411167	-0.410989
O6	O	1.391215	-0.374101	-0.464887
O7	O	1.255962	-0.458976	-0.247743
O8	O	1.153690	-0.243321	-0.363246
O9	O	1.391148	-0.465072	-0.373894
O10	O	1.256118	-0.247940	-0.458829
O11	O	1.153601	-0.363386	-0.243153
O12	O	1.018475	-0.357269	-0.357118
O13	O	1.153639	-0.454321	-0.574209
O14	O	1.018454	-0.448225	-0.448057
O15	O	1.256089	-0.367984	-0.578853
O16	O	1.255933	-0.579020	-0.367766
O17	O	1.153551	-0.574386	-0.454116
C18	C	0.988214	-0.401381	-0.401224
C19	C	0.895548	-0.397212	-0.397064
C20	C	0.725886	-0.389585	-0.389476
C21	C	0.684600	-0.432804	-0.432557
C22	C	0.590194	-0.428559	-0.428335
C23	C	0.820300	-0.393828	-0.393697
C24	C	1.204751	-0.603574	-0.410950
C25	C	1.204797	-0.685890	-0.410962
C26	C	1.204904	-0.984986	-0.411034
C27	C	1.269140	-0.956538	-0.356544
C28	C	1.269363	-0.870929	-0.356702
C29	C	1.204851	-0.836601	-0.410997
C30	C	1.228667	-0.868696	-0.490130
C31	C	1.229165	-0.954363	-0.489839
C32	C	1.116679	-0.949512	-0.387060
C33	C	1.117115	-0.863882	-0.385337
C34	C	1.204820	-0.752740	-0.410982
C35	C	1.204937	-1.068847	-0.411055
C36	C	1.422277	-0.420991	-0.420793
C37	C	1.514943	-0.425178	-0.424971
C38	C	1.204871	-0.411150	-0.604153
C39	C	1.204891	-0.411143	-0.686468
C40	C	1.204917	-0.218009	-0.411046
C41	C	1.204957	-0.135697	-0.411070
C42	C	1.204940	-0.411007	-0.985562
C43	C	1.140259	-0.465135	-0.951305
C44	C	1.140434	-0.465408	-0.865695
C45	C	1.204915	-0.411074	-0.837178
C46	C	1.292758	-0.436221	-0.872227
C47	C	1.292397	-0.436579	-0.957856
C48	C	1.182542	-0.331639	-0.952984
C49	C	1.180588	-0.332003	-0.867245
C50	C	1.204907	-0.411112	-0.753318
C51	C	1.204955	-0.410971	-1.069422
C52	C	1.204823	-0.411132	-0.218579
C53	C	1.204964	-0.410938	-0.136271
H54	H	0.690334	-0.349400	-0.349424
H55	H	1.254463	-0.849286	-0.298151
Cl56	Cl	1.246421	-0.987373	-0.265888
H57	H	1.334135	-0.980940	-0.372552
H58	H	1.183311	-0.846298	-0.531991
Cl59	Cl	1.327118	-0.839940	-0.521166
H60	H	1.155223	-0.524156	-0.845874
Cl61	Cl	1.328729	-0.989616	-0.520479
H62	H	1.095012	-0.970185	-0.330151
Cl63	Cl	1.370260	-0.843761	-0.381682
H64	H	1.119600	-0.309499	-0.971744
Cl65	Cl	1.039383	-0.440326	-0.978552
Cl66	Cl	1.321707	-0.526338	-0.990024
H67	H	1.184427	-0.973079	-0.532053
H68	H	1.099156	-0.842803	-0.327083
H69	H	1.066679	-0.840227	-0.421800
H70	H	0.720155	-0.472991	-0.472612
Cl71	Cl	1.042784	-0.977479	-0.448257
H72	H	1.115943	-0.313112	-0.844011
H73	H	1.075296	-0.449213	-0.841738
Cl74	Cl	1.248022	-0.265939	-0.837274
Cl75	Cl	1.162815	-0.555269	-0.985601
H76	H	1.229652	-0.291261	-0.975377
H77	H	1.342224	-0.399080	-0.980835
Cl78	Cl	1.369166	-0.377535	-0.844252
H79	H	1.312072	-0.493764	-0.851650
