data_functionalizedCrystal
_audit_creation_method	'MofGen! by Chris Wilmer'
_symmetry_space_group_name_H-M	'P1'
_symmetry_Int_Tables_number	1
_symmetry_cell_setting	triclinic
loop_
_symmetry_equiv_pos_as_xyz
  x,y,z
_cell_length_a	17.699083
_cell_length_b	10.540539
_cell_length_c	16.176319
_cell_angle_alpha	90.001289
_cell_angle_beta	90.000480
_cell_angle_gamma	96.095747
loop_
_atom_site_label
_atom_site_type_symbol
_atom_site_fract_x
_atom_site_fract_y
_atom_site_fract_z
O1	O	-1.005121	0.160515	0.068618
O2	O	-0.784879	0.181399	0.068647
O3	O	-0.900025	-0.013842	0.068631
O4	O	-0.889975	0.355755	0.068634
O5	O	-0.900011	-0.013842	-0.068862
O6	O	-0.784865	0.181398	-0.068846
O7	O	-1.005108	0.160514	-0.068875
Cu8	Cu	-0.894985	0.170956	-0.081415
Cu9	Cu	-0.895001	0.170957	0.081187
O10	O	-0.889962	0.355755	-0.068859
C11	C	-0.756670	0.180650	-0.000096
C12	C	-0.672637	0.178405	-0.000085
C13	C	-0.899264	-0.061131	-0.000114
C14	C	-0.897009	-0.202038	-0.000109
C15	C	-0.624761	0.293007	-0.000084
C16	C	-0.545804	0.290890	-0.000094
C17	C	-0.514725	0.174170	-0.000099
C18	C	-0.562607	0.059559	-0.000103
C19	C	-0.641562	0.061677	-0.000099
C20	C	-0.244188	0.051014	-0.000121
C21	C	-0.165226	0.048904	-0.000123
C22	C	-0.148430	0.280227	-0.000116
C23	C	-0.227386	0.282345	-0.000112
C24	C	-0.275261	0.167735	-0.000120
C25	C	-0.360875	0.170032	-0.000111
C26	C	-0.429112	0.171872	-0.000103
C27	C	-0.033316	0.161263	-0.000128
C28	C	-0.117349	0.163508	-0.000127
C29	C	-0.810610	-0.383885	0.000210
C30	C	-0.812896	-0.237308	-0.000099
C31	C	-0.937481	-0.264436	-0.078630
C32	C	-0.934610	-0.410928	-0.078696
C33	C	-0.936336	-0.411477	0.077660
C34	C	-0.937111	-0.264510	0.078698
C35	C	-0.890722	0.403044	-0.000112
C36	C	-0.892977	0.543951	-0.000111
N37	N	-0.894979	0.170955	-0.195780
C38	C	-0.941294	0.247848	-0.239046
C39	C	-0.941302	0.247843	-0.325593
C40	C	-0.894991	0.170951	-0.368873
C41	C	-0.848674	0.094049	-0.325600
C42	C	-0.848671	0.094048	-0.239055
C43	C	-0.848688	0.094051	-0.674629
C44	C	-0.848694	0.094061	-0.761180
C45	C	-0.941320	0.247845	-0.761167
C46	C	-0.941316	0.247844	-0.674621
C47	C	-0.895003	0.170938	-0.631357
C48	C	-0.894996	0.170943	-0.537513
C49	C	-0.894993	0.170953	-0.462715
N50	N	-0.895013	0.170948	0.195552
H51	H	-0.650060	0.388054	-0.000079
O52	O	-1.014733	-0.475952	-0.083450
H53	H	-1.047602	-0.447985	-0.029197
H54	H	-0.810977	0.031429	-0.639413
H55	H	-0.777513	-0.413487	-0.055775
H56	H	-0.998437	-0.241410	0.083431
O57	O	-0.894974	-0.447563	-0.156433
H58	H	-0.892539	-0.552345	-0.157254
O59	O	-0.260910	0.408234	-0.000118
H60	H	-0.214353	0.487571	-0.000131
O61	O	-0.798713	0.011122	-0.192383
H62	H	-0.766504	-0.042336	-0.237015
O63	O	-0.900235	-0.207336	-0.156027
H64	H	-0.852905	-0.134536	-0.138768
O65	O	-0.766603	-0.420979	0.074794
H66	H	-0.749322	-0.334829	0.112542
O67	O	-0.770698	-0.180097	0.074449
H68	H	-0.798073	-0.221138	0.131596
H69	H	-0.979032	0.310463	-0.796403
H70	H	-0.999251	-0.243212	-0.081557
O71	O	-0.295814	-0.072601	-0.000128
H72	H	-0.332193	-0.077177	0.055908
H73	H	-0.810980	0.031442	-0.796416
O74	O	-0.991246	0.330788	-0.192374
H75	H	-0.955327	0.399094	-0.152952
O76	O	-0.900286	-0.452595	0.156497
H77	H	-0.851056	-0.505265	0.141125
H78	H	-0.810971	0.031436	-0.360845
O79	O	-0.096787	0.403842	-0.000122
H80	H	-0.107903	0.459705	0.055925
O81	O	-0.693207	-0.061926	-0.000103
H82	H	-0.682087	-0.117798	0.055938
O83	O	-0.494164	0.414495	-0.000093
H84	H	-0.529040	0.496013	-0.000079
O85	O	-0.770420	-0.181206	-0.074780
H86	H	-0.748171	-0.258785	-0.110818
H87	H	-0.139925	-0.046149	-0.000128
O88	O	-0.991253	0.330781	-0.372262
H89	H	-1.023447	0.384261	-0.327628
H90	H	-0.537295	-0.035477	-0.000119
H91	H	-0.907499	-0.223109	0.136785
H92	H	-0.997091	-0.459814	0.078180
H93	H	-0.979025	0.310462	-0.639388
