data_functionalizedCrystal
_audit_creation_method	'MofGen! by Chris Wilmer'
_symmetry_space_group_name_H-M	'P1'
_symmetry_Int_Tables_number	1
_symmetry_cell_setting	triclinic
loop_
_symmetry_equiv_pos_as_xyz
  x,y,z
_cell_length_a	16.120490
_cell_length_b	16.625546
_cell_length_c	16.625539
_cell_angle_alpha	89.969603
_cell_angle_beta	87.083784
_cell_angle_gamma	87.114737
loop_
_atom_site_label
_atom_site_type_symbol
_atom_site_fract_x
_atom_site_fract_y
_atom_site_fract_z
Zn1	Zn	1.274567	-0.383658	-0.518296
Zn2	Zn	1.774567	0.116342	-0.018296
Zn3	Zn	1.274467	-0.518496	-0.383454
Zn4	Zn	1.774467	-0.018496	0.116546
Zn5	Zn	1.135147	-0.376832	-0.376651
Zn6	Zn	1.635147	0.123168	0.123349
Zn7	Zn	1.135116	-0.511597	-0.511421
Zn8	Zn	1.635116	-0.011597	-0.011421
O9	O	1.204824	-0.447646	-0.447456
O10	O	1.704824	0.052354	0.052544
O11	O	1.391220	-0.407289	-0.506133
O12	O	1.891220	0.092711	-0.006133
O13	O	1.255957	-0.499735	-0.269718
O14	O	1.755957	0.000265	0.230282
O15	O	1.153696	-0.264908	-0.395471
O16	O	1.653696	0.235092	0.104529
O17	O	1.391147	-0.506354	-0.407065
O18	O	1.891147	-0.006354	0.092935
O19	O	1.256127	-0.269923	-0.499537
O20	O	1.756127	0.230077	0.000463
O21	O	1.153599	-0.395655	-0.264720
O22	O	1.653599	0.104345	0.235280
O23	O	1.018477	-0.388965	-0.388805
O24	O	1.518477	0.111035	0.111195
O25	O	1.153644	-0.494595	-0.625167
O26	O	1.653644	0.005405	-0.125167
O27	O	1.018454	-0.487976	-0.487820
O28	O	1.518454	0.012024	0.012180
O29	O	1.256098	-0.400599	-0.630218
O30	O	1.756098	0.099401	-0.130218
O31	O	1.255927	-0.630411	-0.400399
O32	O	1.755927	-0.130411	0.099601
O33	O	1.153547	-0.625342	-0.494416
O34	O	1.653547	-0.125342	0.005584
C35	C	1.204745	-0.657133	-0.447418
C36	C	1.704745	-0.157133	0.052582
C37	C	1.204788	-0.746756	-0.447433
C38	C	1.704788	-0.246756	0.052567
C39	C	0.988215	-0.436982	-0.436829
C40	C	1.488215	0.063018	0.063171
C41	C	0.895549	-0.432439	-0.432302
C42	C	1.395549	0.067561	0.067698
C43	C	1.204933	-1.074939	-0.447524
C44	C	1.704933	-0.574939	0.052476
C45	C	1.204890	-0.983628	-0.447501
C46	C	1.704890	-0.483628	0.052499
C47	C	1.204860	-0.910850	-0.447478
C48	C	1.704860	-0.410850	0.052522
C49	C	1.204818	-0.819534	-0.447455
C50	C	1.704818	-0.319534	0.052545
C51	C	0.684609	-0.471203	-0.470940
C52	C	1.184609	0.028797	0.029060
C53	C	0.725891	-0.424153	-0.424035
C54	C	1.225891	0.075847	0.075965
C55	C	0.820297	-0.428765	-0.428636
C56	C	1.320297	0.071235	0.071364
C57	C	0.590194	-0.466593	-0.466340
C58	C	1.090194	0.033407	0.033660
C59	C	1.422280	-0.458352	-0.458125
C60	C	1.922280	0.041648	0.041875
C61	C	1.514946	-0.462915	-0.462671
C62	C	2.014946	0.037085	0.037329
C63	C	1.204879	-0.447589	-0.657767
C64	C	1.704879	0.052411	-0.157767
C65	C	1.204902	-0.447564	-0.747390
C66	C	1.704902	0.052436	-0.247390
C67	C	1.204926	-0.237342	-0.447512
C68	C	1.704926	0.262658	0.052488
C69	C	1.204970	-0.147723	-0.447536
C70	C	1.704970	0.352277	0.052464
C71	C	1.204940	-0.447476	-1.075567
C72	C	1.704940	0.052524	-0.575567
C73	C	1.204927	-0.447503	-0.984258
C74	C	1.704927	0.052497	-0.484258
C75	C	1.204921	-0.447521	-0.911481
C76	C	1.704921	0.052479	-0.411481
C77	C	1.204907	-0.447546	-0.820166
C78	C	1.704907	0.052454	-0.320166
C79	C	1.204818	-0.447647	-0.237965
C80	C	1.704818	0.052353	0.262035
C81	C	1.204957	-0.447453	-0.148351
C82	C	1.704957	0.052547	0.351649
H83	H	0.720165	-0.514945	-0.514548
H84	H	1.220165	-0.014945	-0.014548
H85	H	0.690333	-0.380408	-0.380423
H86	H	1.190333	0.119592	0.119577
