data_functionalizedCrystal
_audit_creation_method	'MofGen! by Chris Wilmer'
_symmetry_space_group_name_H-M	'P1'
_symmetry_Int_Tables_number	1
_symmetry_cell_setting	triclinic
loop_
_symmetry_equiv_pos_as_xyz
  x,y,z
_cell_length_a	14.044220
_cell_length_b	14.519709
_cell_length_c	13.101039
_cell_angle_alpha	86.641741
_cell_angle_beta	86.332523
_cell_angle_gamma	91.565489
loop_
_atom_site_label
_atom_site_type_symbol
_atom_site_fract_x
_atom_site_fract_y
_atom_site_fract_z
O1	O	0.119055	-1.238528	0.085082
O2	O	0.369055	-0.988528	0.335082
O3	O	0.619055	-0.738528	0.585082
O4	O	0.869055	-0.488528	0.835082
O5	O	0.133688	-0.971233	0.085114
O6	O	0.383688	-0.721233	0.335114
O7	O	0.633688	-0.471233	0.585114
O8	O	0.883688	-0.221233	0.835114
O9	O	-0.011619	-1.100868	0.085089
O10	O	0.238381	-0.850868	0.335089
O11	O	0.488381	-0.600868	0.585089
O12	O	0.738381	-0.350868	0.835089
O13	O	0.264362	-1.108893	0.085108
O14	O	0.514362	-0.858893	0.335108
O15	O	0.764362	-0.608893	0.585108
O16	O	1.014362	-0.358893	0.835108
O17	O	-0.001176	-1.091568	-0.085340
O18	O	0.248824	-0.841568	0.164660
O19	O	0.498824	-0.591568	0.414660
O20	O	0.748824	-0.341568	0.664660
O21	O	0.144131	-0.961933	-0.085314
O22	O	0.394131	-0.711933	0.164686
O23	O	0.644131	-0.461933	0.414686
O24	O	0.894131	-0.211933	0.664686
O25	O	0.129498	-1.229228	-0.085346
O26	O	0.379498	-0.979228	0.164654
O27	O	0.629498	-0.729228	0.414654
O28	O	0.879498	-0.479228	0.664654
Zn29	Zn	0.138473	-1.094104	-0.112389
Zn30	Zn	0.388473	-0.844104	0.137611
Zn31	Zn	0.638473	-0.594104	0.387611
Zn32	Zn	0.888473	-0.344104	0.637611
Zn33	Zn	0.124714	-1.106357	0.112157
Zn34	Zn	0.374714	-0.856357	0.362157
Zn35	Zn	0.624714	-0.606357	0.612157
Zn36	Zn	0.874714	-0.356357	0.862157
O37	O	0.274805	-1.099593	-0.085320
O38	O	0.524805	-0.849593	0.164680
O39	O	0.774805	-0.599593	0.414680
O40	O	1.024805	-0.349593	0.664680
C41	C	0.138227	-0.932168	-0.000096
C42	C	0.388227	-0.682168	0.249904
C43	C	0.638227	-0.432168	0.499904
C44	C	0.888227	-0.182168	0.749904
C45	C	0.136183	-0.829623	-0.000084
C46	C	0.386183	-0.579623	0.249916
C47	C	0.636183	-0.329623	0.499916
C48	C	0.886183	-0.079623	0.749916
C49	C	-0.041718	-1.092705	-0.000126
C50	C	0.208282	-0.842705	0.249874
C51	C	0.458282	-0.592705	0.499874
C52	C	0.708282	-0.342705	0.749874
C53	C	-0.146962	-1.082228	-0.000126
C54	C	0.103038	-0.832228	0.249874
C55	C	0.353038	-0.582228	0.499874
C56	C	0.603038	-0.332228	0.749874
N57	N	0.147862	-1.085748	-0.265636
N58	N	0.397862	-0.835748	-0.015636
N59	N	0.647862	-0.585748	0.234364
N60	N	0.897862	-0.335748	0.484364
C61	C	-0.339657	-1.063075	-0.000109
C62	C	-0.089657	-0.813075	0.249891
C63	C	0.160343	-0.563075	0.499891
C64	C	0.410343	-0.313075	0.749891
C65	C	-0.397163	-1.137382	-0.000114
C66	C	-0.147163	-0.887382	0.249886
C67	C	0.102837	-0.637382	0.499886
C68	C	0.352837	-0.387382	0.749886
C69	C	-0.504385	-1.126725	-0.000105
C70	C	-0.254385	-0.876725	0.249895
C71	C	-0.004385	-0.626725	0.499895
C72	C	0.245615	-0.376725	0.749895
C73	C	-0.232424	-1.073730	-0.000118
C74	C	0.017576	-0.823730	0.249882
C75	C	0.267576	-0.573730	0.499882
C76	C	0.517576	-0.323730	0.749882
C77	C	0.304904	-1.107756	-0.000104
C78	C	0.554904	-0.857756	0.249896
C79	C	0.804904	-0.607756	0.499896
C80	C	1.054904	-0.357756	0.749896
C81	C	0.410147	-1.118233	-0.000097
C82	C	0.660147	-0.868233	0.249903
C83	C	0.910147	-0.618233	0.499903
C84	C	1.160147	-0.368233	0.749903
C85	C	0.124959	-1.268292	-0.000133
C86	C	0.374959	-1.018292	0.249867
C87	C	0.624959	-0.768292	0.499867
C88	C	0.874959	-0.518292	0.749867
C89	C	0.127003	-1.370838	-0.000138
C90	C	0.377003	-1.120838	0.249862
C91	C	0.627003	-0.870838	0.499862
C92	C	0.877003	-0.620838	0.749862
C93	C	0.128661	-0.454118	-0.000131
C94	C	0.378661	-0.204118	0.249869
C95	C	0.628661	0.045882	0.499869
C96	C	0.878661	0.295882	0.749869
C97	C	0.130750	-0.558595	-0.000118
C98	C	0.380750	-0.308595	0.249882
C99	C	0.630750	-0.058595	0.499882
C100	C	0.880750	0.191405	0.749882
C101	C	0.132422	-0.641867	-0.000107
C102	C	0.382422	-0.391867	0.249893
C103	C	0.632422	-0.141867	0.499893
C104	C	0.882422	0.108133	0.749893
C105	C	0.134511	-0.746351	-0.000095
C106	C	0.384511	-0.496351	0.249905
C107	C	0.634511	-0.246351	0.499905
C108	C	0.884511	0.003649	0.749905
C109	C	0.160646	-1.074381	-0.474676
C110	C	0.410646	-0.824381	-0.224676
C111	C	0.660646	-0.574381	0.025324
C112	C	0.910646	-0.324381	0.275324
C113	C	0.102536	-1.126083	-0.525562
C114	C	0.352536	-0.876083	-0.275562
C115	C	0.602536	-0.626083	-0.025562
C116	C	0.852536	-0.376083	0.224438
C117	C	0.109649	-1.119759	-0.641879
C118	C	0.359649	-0.869759	-0.391879
C119	C	0.609649	-0.619759	-0.141879
C120	C	0.859649	-0.369759	0.108121
C121	C	0.153534	-1.080705	-0.358348
C122	C	0.403534	-0.830705	-0.108348
C123	C	0.653534	-0.580705	0.141652
C124	C	0.903534	-0.330705	0.391652
N125	N	0.115317	-1.114719	0.265404
N126	N	0.365317	-0.864719	0.515404
N127	N	0.615317	-0.614719	0.765404
N128	N	0.865317	-0.364719	1.015404
H129	H	-0.365875	-1.209007	-0.000054
H130	H	-0.115875	-0.959007	0.249946
H131	H	0.134125	-0.709007	0.499946
H132	H	0.384125	-0.459007	0.749946
H133	H	-0.370948	-0.991459	-0.000098
H134	H	-0.120948	-0.741459	0.249902
H135	H	0.129052	-0.491459	0.499902
H136	H	0.379052	-0.241459	0.749902
H137	H	0.215734	-1.025371	-0.518464
H138	H	0.465734	-0.775371	-0.268464
H139	H	0.715734	-0.525371	-0.018464
H140	H	0.965734	-0.275371	0.231536
H141	H	0.047446	-1.175098	-0.481769
H142	H	0.297446	-0.925098	-0.231769
H143	H	0.547446	-0.675098	0.018231
H144	H	0.797446	-0.425098	0.268231
