data_functionalizedCrystal
_audit_creation_method	'MofGen! by Chris Wilmer'
_symmetry_space_group_name_H-M	'P1'
_symmetry_Int_Tables_number	1
_symmetry_cell_setting	triclinic
loop_
_symmetry_equiv_pos_as_xyz
  x,y,z
_cell_length_a	12.759401
_cell_length_b	19.805405
_cell_length_c	19.805398
_cell_angle_alpha	90.024951
_cell_angle_beta	90.011851
_cell_angle_gamma	90.027152
loop_
_atom_site_label
_atom_site_type_symbol
_atom_site_fract_x
_atom_site_fract_y
_atom_site_fract_z
Zn1	Zn	1.606097	-0.269482	0.382652
Zn2	Zn	2.106097	0.230518	0.882652
Zn3	Zn	1.605976	-0.382667	0.269465
Zn4	Zn	2.105976	0.117333	0.769465
Zn5	Zn	1.430420	-0.269499	0.269484
Zn6	Zn	1.930420	0.230501	0.769484
Zn7	Zn	1.430351	-0.382636	0.382620
Zn8	Zn	1.930351	0.117364	0.882620
O9	O	1.518211	-0.326071	0.326055
O10	O	2.018211	0.173929	0.826055
O11	O	1.753102	-0.284503	0.367643
O12	O	2.253102	0.215497	0.867643
O13	O	1.582666	-0.367675	0.174751
O14	O	2.082666	0.132325	0.674751
O15	O	1.453804	-0.174780	0.284517
O16	O	1.953804	0.325220	0.784517
O17	O	1.753013	-0.367660	0.284485
O18	O	2.253013	0.132340	0.784485
O19	O	1.582873	-0.174768	0.367661
O20	O	2.082873	0.325232	0.867661
O21	O	1.453686	-0.284531	0.174765
O22	O	1.953686	0.215469	0.674765
O23	O	1.283390	-0.284500	0.284487
O24	O	1.783390	0.215500	0.784487
O25	O	1.453686	-0.367605	0.477341
O26	O	1.953686	0.132395	0.977341
O27	O	1.283339	-0.367621	0.367607
O28	O	1.783339	0.132379	0.867607
O29	O	1.582806	-0.284472	0.477364
O30	O	2.082806	0.215528	0.977364
O31	O	1.582599	-0.477380	0.284454
O32	O	2.082599	0.022620	0.784454
O33	O	1.453568	-0.477356	0.367589
O34	O	1.953568	0.022644	0.867589
C35	C	1.245244	-0.326059	0.326046
C36	C	1.745244	0.173941	0.826046
C37	C	1.128467	-0.326071	0.326058
C38	C	1.628467	0.173929	0.826058
C39	C	1.073652	-0.282849	0.369425
C40	C	1.573652	0.217151	0.869425
C41	C	0.963928	-0.282856	0.369429
C42	C	1.463928	0.217144	0.869429
C43	C	0.963843	-0.369312	0.282698
C44	C	1.463843	0.130688	0.782698
C45	C	1.073565	-0.369301	0.282691
C46	C	1.573565	0.130699	0.782691
C47	C	1.518091	-0.501927	0.326031
C48	C	2.018091	-0.001927	0.826031
C49	C	1.518136	-0.577159	0.326043
C50	C	2.018136	-0.077159	0.826043
C51	C	1.585303	-0.612439	0.369370
C52	C	2.085303	-0.112439	0.869370
C53	C	1.585341	-0.683127	0.369382
C54	C	2.085341	-0.183127	0.869382
C55	C	1.518217	-0.718535	0.326064
C56	C	2.018217	-0.218535	0.826064
C57	C	1.451043	-0.683250	0.282735
C58	C	1.951043	-0.183250	0.782735
C59	C	1.451000	-0.612563	0.282727
C60	C	1.951000	-0.112563	0.782727
C61	C	1.451211	-0.968323	0.282770
C62	C	1.951211	-0.468323	0.782770
C63	C	1.451261	-1.039015	0.282781
C64	C	1.951261	-0.539015	0.782781
C65	C	1.585552	-1.038887	0.369426
C66	C	2.085552	-0.538887	0.869426
C67	C	1.585510	-0.968200	0.369417
C68	C	2.085510	-0.468200	0.869417
C69	C	1.518332	-0.932922	0.326091
C70	C	2.018332	-0.432922	0.826091
C71	C	1.518290	-0.856273	0.326079
C72	C	2.018290	-0.356273	0.826079
C73	C	1.518263	-0.795182	0.326073
C74	C	2.018263	-0.295182	0.826073
C75	C	1.792244	-0.326083	0.326065
C76	C	2.292244	0.173917	0.826065
C77	C	1.909021	-0.326088	0.326070
C78	C	2.409021	0.173912	0.826070
C79	C	1.518252	-0.326033	0.502598
C80	C	2.018252	0.173967	1.002598
C81	C	1.518270	-0.326017	0.577830
C82	C	2.018270	0.173983	1.077830
C83	C	1.518360	-0.149528	0.326095
C84	C	2.018360	0.350472	0.826095
C85	C	1.518423	-0.074296	0.326112
C86	C	2.018423	0.425704	0.826112
C87	C	1.518231	-0.326059	0.150199
C88	C	2.018231	0.173941	0.650199
C89	C	1.518417	-0.325885	0.074968
C90	C	2.018417	0.174115	0.574968
C91	C	1.585629	-0.282610	1.039635
C92	C	2.085629	0.217390	1.539635
C93	C	1.585613	-0.282631	0.968946
C94	C	2.085613	0.217369	1.468946
C95	C	1.518378	-0.325923	0.933592
C96	C	2.018378	0.174077	1.433592
C97	C	1.451162	-0.369203	0.968930
C98	C	1.951162	0.130797	1.468930
C99	C	1.451184	-0.369185	1.039617
C100	C	1.951184	0.130815	1.539617
C101	C	1.451071	-0.369276	0.683857
C102	C	1.951071	0.130724	1.183857
C103	C	1.451051	-0.369289	0.613165
C104	C	1.951051	0.130711	1.113165
C105	C	1.585499	-0.282722	0.613185
C106	C	2.085499	0.217278	1.113185
C107	C	1.585521	-0.282704	0.683873
C108	C	2.085521	0.217296	1.183873
C109	C	1.518310	-0.325986	0.719205
C110	C	2.018310	0.174014	1.219205
C111	C	1.518330	-0.325964	0.795853
C112	C	2.018330	0.174036	1.295853
C113	C	1.518351	-0.325942	0.856945
C114	C	2.018351	0.174058	1.356945
H115	H	1.639968	-0.583615	0.404641
H116	H	2.139968	-0.083615	0.904641
H117	H	1.640248	-1.067620	0.404706
H118	H	2.140248	-0.567620	0.904706
Br119	Br	1.360159	-1.087068	0.223987
Br120	Br	1.860159	-0.587068	0.723987
Br121	Br	1.676711	-0.223978	0.565231
Br122	Br	2.176711	0.276022	1.065231
H123	H	1.640043	-0.711849	0.404658
H124	H	2.140043	-0.211849	0.904658
H125	H	0.919303	-0.247660	0.404742
H126	H	1.419303	0.252340	0.904742
Br127	Br	1.676868	-0.223844	1.087608
Br128	Br	2.176868	0.276156	1.587608
Br129	Br	1.676837	-0.223901	0.920996
Br130	Br	2.176837	0.276099	1.420996
H131	H	1.396515	-0.939605	0.247491
H132	H	1.896515	-0.439605	0.747491
Br133	Br	0.889328	-0.427979	0.223846
Br134	Br	1.389328	0.072021	0.723846
H135	H	1.396385	-0.712084	0.247468
H136	H	1.896385	-0.212084	0.747468
Br137	Br	1.147964	-0.427953	0.223822
Br138	Br	1.647964	0.072047	0.723822
Br139	Br	1.676615	-0.920151	0.428205
Br140	Br	2.176615	-0.420151	0.928205
H141	H	1.396305	-0.583839	0.247447
H142	H	1.896305	-0.083839	0.747447
Br143	Br	1.676782	-0.223954	0.731850
Br144	Br	2.176782	0.276046	1.231850
H145	H	1.396293	-0.404543	0.584381
H146	H	1.896293	0.095457	1.084381
Br147	Br	1.148159	-0.224178	0.428278
Br148	Br	1.648159	0.275822	0.928278
H149	H	1.396342	-0.404518	0.712615
H150	H	1.896342	0.095482	1.212615
Br151	Br	1.359917	-0.427960	0.920951
Br152	Br	1.859917	0.072040	1.420951
Br153	Br	1.359969	-0.427920	1.087571
Br154	Br	1.859969	0.072080	1.587571
