data_functionalizedCrystal
_audit_creation_method	'MofGen! by Chris Wilmer'
_symmetry_space_group_name_H-M	'P1'
_symmetry_Int_Tables_number	1
_symmetry_cell_setting	triclinic
loop_
_symmetry_equiv_pos_as_xyz
  x,y,z
_cell_length_a	6.817900
_cell_length_b	12.200863
_cell_length_c	14.125286
_cell_angle_alpha	95.007101
_cell_angle_beta	100.396688
_cell_angle_gamma	107.143441
loop_
_atom_site_label
_atom_site_type_symbol
_atom_site_fract_x
_atom_site_fract_y
_atom_site_fract_z
V1	V	-4.009747	-0.157826	-0.300088
V2	V	-3.509747	0.342174	0.199912
O3	O	-3.978538	0.008496	-0.294275
O4	O	-3.478538	0.508496	0.205725
O5	O	-3.979698	-0.313820	-0.298132
O6	O	-3.479698	0.186180	0.201868
O7	O	-3.945568	-0.154999	-0.430922
O8	O	-3.445568	0.345001	0.069078
O9	O	-4.012904	-0.151425	-0.160565
O10	O	-3.512904	0.348575	0.339435
V11	V	-4.493041	-0.137980	-0.283388
V12	V	-3.993041	0.362020	0.216612
O13	O	-4.271506	-0.201362	-0.336720
O14	O	-3.771506	0.298638	0.163280
O15	O	-4.681479	-0.094444	-0.246756
O16	O	-4.181479	0.405556	0.253244
O17	O	-4.299884	0.018014	-0.285344
O18	O	-3.799884	0.518014	0.214656
O19	O	-4.641647	-0.304302	-0.289201
O20	O	-4.141647	0.195698	0.210799
O21	O	-4.607281	-0.144381	-0.422910
O22	O	-4.107281	0.355619	0.077090
O23	O	-4.334013	-0.140807	-0.152554
O24	O	-3.834013	0.359193	0.347446
C25	C	-3.829673	-0.351860	-0.293423
C26	C	-3.329673	0.148140	0.206577
C27	C	-3.886286	-0.479384	-0.292696
C28	C	-3.386286	0.020616	0.207304
C29	C	-3.989898	-0.712865	-0.291373
C30	C	-3.489898	-0.212865	0.208627
C31	C	-3.932233	-0.582940	-0.292109
C32	C	-3.432233	-0.082940	0.207891
C33	C	-3.786137	-0.149267	-0.462809
C34	C	-3.286137	0.350733	0.037191
C35	C	-3.815069	-0.147987	-0.569767
C36	C	-3.315069	0.352013	-0.069767
C37	C	-4.054112	-0.150312	-0.817891
C38	C	-3.554112	0.349688	-0.317891
C39	C	-3.868057	-0.145492	-0.765573
C40	C	-3.368057	0.354508	-0.265573
C41	C	-3.838575	-0.146880	-0.656617
C42	C	-3.338575	0.353120	-0.156617
C43	C	-4.083601	-0.148924	-0.926857
C44	C	-3.583601	0.351076	-0.426857
C45	C	-4.113251	0.056048	-0.290050
C46	C	-3.613251	0.556048	0.209950
C47	C	-4.035876	0.183571	-0.290783
C48	C	-3.535876	0.683571	0.209217
C49	C	-4.156788	-0.146543	-0.120662
C50	C	-3.656788	0.353457	0.379338
C51	C	-4.107094	-0.147817	-0.013702
C52	C	-3.607094	0.352183	0.486298
H53	H	-4.191245	-0.155481	-0.780854
H54	H	-3.691245	0.344519	-0.280854
H55	H	-3.730911	-0.140321	-0.802611
H56	H	-3.230911	0.359679	-0.302611
