data_functionalizedCrystal
_audit_creation_method	'MofGen! by Chris Wilmer'
_symmetry_space_group_name_H-M	'P1'
_symmetry_Int_Tables_number	1
_symmetry_cell_setting	triclinic
loop_
_symmetry_equiv_pos_as_xyz
  x,y,z
_cell_length_a	15.995350
_cell_length_b	15.995350
_cell_length_c	14.472310
_cell_angle_alpha	90.001162
_cell_angle_beta	89.990621
_cell_angle_gamma	83.492375
loop_
_atom_site_label
_atom_site_type_symbol
_atom_site_fract_x
_atom_site_fract_y
_atom_site_fract_z
O1	O	1.110997	0.107921	-0.076758
O2	O	1.610997	0.607921	0.423242
O3	O	0.867221	0.121248	-0.076776
O4	O	1.367221	0.621248	0.423224
O5	O	0.995773	-0.007303	-0.076766
O6	O	1.495773	0.492697	0.423234
O7	O	0.982445	0.236472	-0.076769
O8	O	1.482445	0.736472	0.423231
O9	O	0.995740	-0.007296	0.076916
O10	O	1.495740	0.492704	0.576916
O11	O	0.867188	0.121256	0.076906
O12	O	1.367188	0.621256	0.576906
O13	O	1.110963	0.107928	0.076924
O14	O	1.610963	0.607928	0.576924
Cu15	Cu	0.989073	0.114593	0.090947
Cu16	Cu	1.489073	0.614593	0.590947
Cu17	Cu	0.989112	0.114584	-0.090800
Cu18	Cu	1.489112	0.614584	0.409200
O19	O	0.982412	0.236480	0.076913
O20	O	1.482412	0.736480	0.576913
C21	C	0.836010	0.120701	0.000062
C22	C	1.336010	0.620701	0.500062
C23	C	0.743060	0.119049	0.000055
C24	C	1.243060	0.619049	0.500055
C25	C	0.405312	0.113117	0.000074
C26	C	0.905312	0.613117	0.500074
C27	C	0.452746	0.021565	0.000418
C28	C	0.952746	0.521565	0.500418
C29	C	0.549436	0.023217	0.000065
C30	C	1.049436	0.523217	0.500065
C31	C	0.572873	0.116060	0.000065
C32	C	1.072873	0.616060	0.500065
C33	C	0.531804	0.161212	-0.087692
C34	C	1.031804	0.661212	0.412308
C35	C	0.435169	0.158912	-0.087759
C36	C	0.935169	0.658912	0.412241
C37	C	0.434792	0.160812	0.087007
C38	C	0.934792	0.660812	0.587007
C39	C	0.531737	0.160790	0.088160
C40	C	1.031737	0.660790	0.588160
C41	C	0.667570	0.117727	0.000057
C42	C	1.167570	0.617727	0.500057
C43	C	0.310614	0.111452	0.000076
C44	C	0.810614	0.611452	0.500076
C45	C	0.995205	-0.038494	0.000073
C46	C	1.495205	0.461506	0.500073
C47	C	0.993553	-0.131444	0.000068
C48	C	1.493553	0.368556	0.500068
C49	C	0.987621	-0.469192	0.000071
C50	C	1.487621	0.030808	0.500071
C51	C	0.896069	-0.421758	-0.000281
C52	C	1.396069	0.078242	0.499719
C53	C	0.897721	-0.325068	0.000066
C54	C	1.397721	0.174932	0.500066
C55	C	0.990564	-0.301631	0.000069
C56	C	1.490564	0.198369	0.500069
C57	C	1.035701	-0.342705	0.087831
C58	C	1.535701	0.157295	0.587831
C59	C	1.033401	-0.439340	0.087904
C60	C	1.533401	0.060660	0.587904
C61	C	1.035330	-0.439707	-0.086861
C62	C	1.535330	0.060293	0.413139
C63	C	1.035309	-0.342762	-0.088021
C64	C	1.535309	0.157238	0.411979
C65	C	0.992231	-0.206934	0.000071
C66	C	1.492231	0.293066	0.500071
C67	C	0.985956	-0.563890	0.000075
C68	C	1.485956	-0.063890	0.500075
C69	C	1.142175	0.108476	0.000083
C70	C	1.642175	0.608476	0.500083
C71	C	1.235125	0.110127	0.000084
C72	C	1.735125	0.610127	0.500084
C73	C	0.982980	0.267671	0.000072
C74	C	1.482980	0.767671	0.500072
C75	C	0.984631	0.360621	0.000071
C76	C	1.484631	0.860621	0.500071
N77	N	0.989051	0.114598	0.218778
N78	N	1.489051	0.614598	0.718778
N79	N	0.989140	0.114572	-0.218631
N80	N	1.489140	0.614572	0.281369
C81	C	0.989111	0.114581	0.592869
C82	C	1.489111	0.614581	1.092869
C83	C	0.920095	0.183135	0.553698
C84	C	1.420095	0.683135	1.053698
C85	C	0.920254	0.183385	0.446610
C86	C	1.420254	0.683385	0.946610
C87	C	0.989081	0.114590	0.407278
C88	C	1.489081	0.614590	0.907278
C89	C	1.076445	0.133671	0.446122
C90	C	1.576445	0.633671	0.946122
C91	C	1.076057	0.134159	0.553243
C92	C	1.576057	0.634159	1.053243
C93	C	0.971542	0.026741	0.553398
C94	C	1.471542	0.526741	1.053398
C95	C	0.969538	0.027327	0.446270
C96	C	1.469538	0.527327	0.946270
C97	C	0.989069	0.114593	0.302390
C98	C	1.489069	0.614593	0.802390
C99	C	0.989128	0.114579	0.697757
C100	C	1.489128	0.614579	1.197757
H101	H	0.545930	0.229421	-0.090955
H102	H	1.045930	0.729421	0.409045
H103	H	1.002307	-0.315516	-0.152945
H104	H	1.502307	0.184484	0.347055
C105	C	0.887327	0.001971	0.589925
C106	C	1.387327	0.501971	1.089925
N107	N	0.823892	-0.016677	0.617436
N108	N	1.323892	0.483323	1.117436
H109	H	0.905272	0.012845	0.420883
H110	H	1.405272	0.512845	0.920883
H111	H	1.000459	-0.457639	0.153505
H112	H	1.500459	0.042361	0.653505
C113	C	1.126519	-0.482619	-0.087659
C114	C	1.626519	0.017381	0.412341
N115	N	1.195199	-0.514946	-0.088254
N116	N	1.695199	-0.014946	0.411746
C117	C	1.126780	-0.322016	-0.095174
C118	C	1.626780	0.177984	0.404826
N119	N	1.195681	-0.306394	-0.100553
N120	N	1.695681	0.193606	0.399447
C121	C	1.147487	0.068013	0.411700
C122	C	1.647487	0.568013	0.911700
N123	N	1.200995	0.018558	0.385771
N124	N	1.700995	0.518558	0.885771
H125	H	0.855314	0.172016	0.420349
H126	H	1.355314	0.672016	0.920349
H127	H	0.854945	0.171953	0.579481
H128	H	1.354945	0.671953	1.079481
H129	H	0.931159	0.247952	0.580608
H130	H	1.431159	0.747952	1.080608
C131	C	0.993308	-0.304366	0.176059
C132	C	1.493308	0.195634	0.676059
N133	N	0.961371	-0.275490	0.242511
N134	N	1.461371	0.224510	0.742511
H135	H	1.092297	0.197002	0.419285
H136	H	1.592297	0.697002	0.919285
H137	H	0.402921	0.226128	-0.091741
H138	H	0.902921	0.726128	0.408259
H139	H	0.434210	-0.015027	0.063352
H140	H	0.934210	0.484973	0.563352
C141	C	0.568590	0.116237	0.175868
C142	C	1.068590	0.616237	0.675868
N143	N	0.596346	0.082671	0.241928
N144	N	1.096346	0.582671	0.741928
H145	H	0.577852	-0.012275	0.062973
H146	H	1.077852	0.487725	0.562973
H147	H	0.862239	-0.296649	-0.062846
H148	H	1.362239	0.203351	0.437154
C149	C	0.849430	-0.287416	0.085196
C150	C	1.349430	0.212584	0.585196
N151	N	0.813056	-0.259058	0.149322
N152	N	1.313056	0.240942	0.649322
H153	H	1.016541	-0.026079	0.419500
H154	H	1.516541	0.473921	0.919500
H155	H	0.560193	0.129845	-0.153002
H156	H	1.060193	0.629845	0.346998
C157	C	1.039530	-0.042181	0.587625
C158	C	1.539530	0.457819	1.087625
N159	N	1.090741	-0.094086	0.613411
N160	N	1.590741	0.405914	1.113411
C161	C	0.935416	0.271445	0.411975
C162	C	1.435416	0.771445	0.911975
N163	N	0.946841	0.337775	0.385890
N164	N	1.446841	0.837775	0.885890
H165	H	0.433166	-0.014865	-0.062168
H166	H	0.933166	0.485135	0.437832
C167	C	0.846844	-0.448198	0.084281
C168	C	1.346844	0.051802	0.584281
N169	N	0.809773	-0.468105	0.147981
N170	N	1.309773	0.031895	0.647981
H171	H	0.577308	-0.012521	-0.062951
H172	H	1.077308	0.487479	0.437049
C173	C	1.096957	0.220708	0.586987
C174	C	1.596957	0.720708	1.086987
N175	N	1.112692	0.285901	0.612399
N176	N	1.612692	0.785901	1.112399
H177	H	1.129018	0.086196	0.579154
H178	H	1.629018	0.586196	1.079154
C179	C	0.410453	0.114412	-0.176376
C180	C	0.910453	0.614412	0.323624
N181	N	0.391842	0.080889	-0.243123
N182	N	0.891842	0.580889	0.256877
C183	C	0.552507	0.252252	0.095333
C184	C	1.052507	0.752252	0.595333
N185	N	0.568155	0.321141	0.100733
N186	N	1.068155	0.821141	0.600733
C187	C	0.407039	0.120375	0.176870
C188	C	0.907039	0.620375	0.676870
N189	N	0.386137	0.089909	0.244550
N190	N	0.886137	0.589909	0.744550
C191	C	0.846645	-0.446806	-0.085298
C192	C	1.346645	0.053194	0.414702
N193	N	0.809417	-0.465681	-0.149334
N194	N	1.309417	0.034319	0.350666
C195	C	0.391881	0.252001	0.087811
C196	C	0.891881	0.752001	0.587811
N197	N	0.359555	0.320681	0.088411
N198	N	0.859555	0.820681	0.588411
H199	H	1.005412	-0.460250	-0.153379
H200	H	1.505412	0.039750	0.346621
C201	C	1.127842	-0.323605	0.092258
C202	C	1.627842	0.176395	0.592258
N203	N	1.197241	-0.309212	0.095595
N204	N	1.697241	0.190788	0.595595
C205	C	1.124204	-0.482908	0.093301
C206	C	1.624204	0.017092	0.593301
N207	N	1.192595	-0.515719	0.097372
N208	N	1.692595	-0.015719	0.597372
