data_functionalizedCrystal
_audit_creation_method	'MofGen! by Chris Wilmer'
_symmetry_space_group_name_H-M	'P1'
_symmetry_Int_Tables_number	1
_symmetry_cell_setting	triclinic
loop_
_symmetry_equiv_pos_as_xyz
  x,y,z
_cell_length_a	10.685194
_cell_length_b	14.908993
_cell_length_c	10.685910
_cell_angle_alpha	90.836557
_cell_angle_beta	98.389653
_cell_angle_gamma	97.914783
loop_
_atom_site_label
_atom_site_type_symbol
_atom_site_fract_x
_atom_site_fract_y
_atom_site_fract_z
Zn1	Zn	-0.346071	1.391703	0.574779
Zn2	Zn	0.153929	1.891703	1.074779
Zn3	Zn	-0.576455	1.366619	0.348128
Zn4	Zn	-0.076455	1.866619	0.848128
Zn5	Zn	-0.374588	1.228347	0.374770
Zn6	Zn	0.125412	1.728347	0.874770
Zn7	Zn	-0.570556	1.228321	0.570674
Zn8	Zn	-0.070556	1.728321	1.070674
O9	O	-0.466918	1.303747	0.467088
O10	O	0.033082	1.803747	0.967088
O11	O	-0.367166	1.514619	0.535282
O12	O	0.132834	2.014619	1.035282
O13	O	-0.564080	1.337790	0.174821
O14	O	-0.064080	1.837790	0.674821
O15	O	-0.192376	1.260524	0.414170
O16	O	0.307624	1.760524	0.914170
O17	O	-0.536428	1.496190	0.368762
O18	O	-0.036428	1.996190	0.868762
O19	O	-0.171425	1.380541	0.561116
O20	O	0.328575	1.880541	1.061116
O21	O	-0.415769	1.236202	0.194395
O22	O	0.084231	1.736202	0.694395
O23	O	-0.410050	1.102100	0.410189
O24	O	0.089950	1.602100	0.910189
O25	O	-0.526374	1.260481	0.748059
O26	O	-0.026374	1.760481	1.248059
O27	O	-0.554026	1.102081	0.554118
O28	O	-0.054026	1.602081	1.054118
O29	O	-0.361447	1.380517	0.751076
O30	O	0.138553	1.880517	1.251076
O31	O	-0.754101	1.337765	0.364781
O32	O	-0.254101	1.837765	0.864781
O33	O	-0.749768	1.236158	0.528285
O34	O	-0.249768	1.736158	1.028285
C35	C	-0.484493	1.069357	0.484600
C36	C	0.015507	1.569357	0.984600
C37	C	-0.492040	0.969084	0.492119
C38	C	0.007960	1.469084	0.992119
C39	C	-0.798195	1.284263	0.443222
C40	C	-0.298195	1.784263	0.943222
C41	C	-0.939907	1.276013	0.433048
C42	C	-0.439907	1.776013	0.933048
C43	C	-0.356036	0.780655	0.356618
C44	C	0.143964	1.280655	0.856618
C45	C	-0.363123	0.686440	0.363679
C46	C	0.136877	1.186440	0.863679
C47	C	-0.513309	0.686434	0.513295
C48	C	-0.013309	1.186434	1.013295
C49	C	-0.506221	0.780650	0.506234
C50	C	-0.006221	1.280650	1.006234
C51	C	-0.427581	0.827757	0.427894
C52	C	0.072419	1.327757	0.927894
C53	C	-0.420487	0.921975	0.420841
C54	C	0.079513	1.421975	0.920841
C55	C	-0.570679	0.921968	0.570449
C56	C	-0.070679	1.421968	1.070449
C57	C	-0.577766	0.827752	0.577510
C58	C	-0.077766	1.327752	1.077510
C59	C	-0.134342	1.323334	0.491072
C60	C	0.365658	1.823334	0.991072
C61	C	0.007382	1.331680	0.501293
C62	C	0.507382	1.831680	1.001293
C63	C	-0.440072	1.323294	0.796702
C64	C	0.059928	1.823294	1.296702
C65	C	-0.428631	1.331624	0.937165
C66	C	0.071369	1.831624	1.437165
C67	C	-0.449274	1.539053	0.449508
C68	C	0.050726	2.039053	0.949508
C69	C	-0.441756	1.639326	0.442017
C70	C	0.058244	2.139326	0.942017
C71	C	-0.493690	1.284270	1.138753
C72	C	0.006310	1.784270	1.638753
C73	C	-0.505137	1.275945	0.998290
C74	C	-0.005137	1.775945	1.498290
H75	H	-0.356446	0.960330	0.357060
H76	H	0.143554	1.460330	0.857060
F77	F	-0.286978	0.636313	0.287815
F78	F	0.213022	1.136313	0.787815
F79	F	-0.597037	0.636280	0.596622
F80	F	-0.097037	1.136280	1.096622
H81	H	-0.641797	0.789384	0.641288
H82	H	-0.141797	1.289384	1.141288
F83	F	-0.909894	1.402232	0.587850
F84	F	-0.409894	1.902232	1.087850
F85	F	-0.331578	1.402271	1.009220
F86	F	0.168422	1.902271	1.509220
F87	F	-0.602197	1.205309	0.926239
F88	F	-0.102197	1.705309	1.426239
H89	H	-0.291987	0.819012	0.292847
H90	H	0.208013	1.319012	0.792847
H91	H	-1.003194	1.222033	0.366843
H92	H	-0.503194	1.722033	0.866843
H93	H	-0.628929	0.960329	0.628495
H94	H	-0.128929	1.460329	1.128495
