data_functionalizedCrystal
_audit_creation_method	'MofGen! by Chris Wilmer'
_symmetry_space_group_name_H-M	'P1'
_symmetry_Int_Tables_number	1
_symmetry_cell_setting	triclinic
loop_
_symmetry_equiv_pos_as_xyz
  x,y,z
_cell_length_a	10.686285
_cell_length_b	29.839135
_cell_length_c	10.686551
_cell_angle_alpha	94.400424
_cell_angle_beta	80.915481
_cell_angle_gamma	94.366867
loop_
_atom_site_label
_atom_site_type_symbol
_atom_site_fract_x
_atom_site_fract_y
_atom_site_fract_z
Zn1	Zn	-0.450089	-0.717721	-0.679182
Zn2	Zn	-0.678669	-0.717685	-0.450680
Zn3	Zn	-0.466451	-0.637238	-0.466924
Zn4	Zn	-0.662293	-0.647947	-0.662866
O5	O	-0.564375	-0.680148	-0.564913
O6	O	-0.480416	-0.780585	-0.648900
O7	O	-0.664218	-0.702517	-0.275203
O8	O	-0.286658	-0.643448	-0.508707
O9	O	-0.648353	-0.780558	-0.481021
O10	O	-0.274637	-0.702579	-0.664652
O11	O	-0.508303	-0.643413	-0.287138
O12	O	-0.492424	-0.575791	-0.492887
O13	O	-0.620443	-0.661699	-0.842662
O14	O	-0.636309	-0.583658	-0.636844
O15	O	-0.464537	-0.712962	-0.854649
O16	O	-0.854119	-0.712900	-0.465200
O17	O	-0.842088	-0.661664	-0.621093
C18	C	-0.564366	-0.563423	-0.564858
C19	C	-0.564390	-0.513490	-0.564863
C20	C	-0.477029	-0.203864	-0.652433
C21	C	-0.477028	-0.016192	-0.652467
O22	O	-0.402734	0.008060	-0.726867
N23	N	-0.564350	0.007294	-0.564952
C24	C	-0.651673	-0.016141	-0.477418
O25	O	-0.725937	0.008142	-0.402974
C26	C	-0.651666	-0.203812	-0.477380
C27	C	-0.564347	-0.227296	-0.564908
C28	C	-0.389716	-0.227348	-0.739954
C29	C	-0.389721	-0.274263	-0.739949
C30	C	-0.477040	-0.297695	-0.652424
C31	C	-0.564353	-0.274211	-0.564903
C32	C	-0.738982	-0.227246	-0.389840
C33	C	-0.738970	-0.274166	-0.389836
C34	C	-0.651651	-0.297650	-0.477365
C35	C	-0.651676	-0.344558	-0.477373
N36	N	-0.564355	-0.368044	-0.564888
C37	C	-0.477036	-0.344612	-0.652413
C38	C	-0.651672	0.082389	-0.477446
C39	C	-0.651675	0.129306	-0.477457
C40	C	-0.477029	0.129252	-0.652504
C41	C	-0.477032	0.082334	-0.652498
C42	C	-0.564350	0.058903	-0.564960
C43	C	-0.477055	-0.443138	-0.652397
C44	C	-0.477072	-0.490058	-0.652388
C45	C	-0.651713	-0.490000	-0.477337
C46	C	-0.651701	-0.443084	-0.477349
C47	C	-0.564362	-0.419655	-0.564885
O48	O	-0.725922	-0.368839	-0.403003
O49	O	-0.402765	-0.368902	-0.726828
C50	C	-0.477023	-0.156948	-0.652438
C51	C	-0.564336	-0.133465	-0.564918
C52	C	-0.651655	-0.156897	-0.477392
C53	C	-0.564339	-0.086547	-0.564928
C54	C	-0.477021	-0.063116	-0.652454
C55	C	-0.389699	-0.086601	-0.739968
C56	C	-0.389705	-0.133517	-0.739963
C57	C	-0.738976	-0.133411	-0.389878
C58	C	-0.738965	-0.086495	-0.389891
C59	C	-0.651646	-0.063064	-0.477416
C60	C	-0.894156	-0.688453	-0.539641
C61	C	-1.035235	-0.692048	-0.528872
C62	C	-0.233305	-0.671823	-0.590312
C63	C	-0.092222	-0.668276	-0.601135
C64	C	-0.538838	-0.688529	-0.896001
C65	C	-0.527956	-0.692101	-1.037091
C66	C	-0.564377	0.202672	-0.564966
C67	C	-0.564357	0.152738	-0.564982
C68	C	-0.589722	-0.671823	-0.235120
C69	C	-0.600246	-0.668329	-0.094058
H70	H	-0.405931	-0.424067	-0.723673
O71	O	-0.693256	-0.637746	-1.015700
H72	H	-0.687486	-0.639642	-0.913463
O73	O	-1.013905	-0.637671	-0.694012
H74	H	-0.948460	-0.657872	-0.763226
H75	H	-0.318603	-0.208274	-0.811228
H76	H	-1.094383	-0.715150	-0.458750
H77	H	-0.722792	0.148422	-0.406195
O78	O	-0.434936	-0.722685	-1.115450
H79	H	-0.337256	-0.711839	-1.097699
H80	H	-0.405964	-0.509176	-0.723669
O81	O	-0.295508	-0.158838	-0.834364
H82	H	-0.347428	-0.183281	-0.894509
O83	O	-0.745856	0.057119	-0.383025
H84	H	-0.806574	0.081336	-0.322188
O85	O	-0.745877	-0.417751	-0.382946
H86	H	-0.843868	-0.429810	-0.396903
O87	O	-0.295519	-0.299589	-0.834332
H88	H	-0.234796	-0.275406	-0.895173
H89	H	-0.318605	-0.067515	-0.811238
H90	H	-0.405931	0.148338	-0.723772
O91	O	-0.382840	0.057006	-0.746887
H92	H	-0.322121	0.081187	-0.807739
O93	O	-0.833159	-0.201928	-0.295417
H94	H	-0.893480	-0.183622	-0.347145
H95	H	-0.722808	-0.509087	-0.406078
O96	O	-0.833148	-0.299439	-0.295416
H97	H	-0.931135	-0.293492	-0.309388
O98	O	-0.833145	-0.061170	-0.295467
H99	H	-0.931136	-0.073232	-0.309416
O100	O	-0.833158	-0.158681	-0.295470
H101	H	-0.893873	-0.134464	-0.234628
