data_functionalizedCrystal
_audit_creation_method	'MofGen! by Chris Wilmer'
_symmetry_space_group_name_H-M	'P1'
_symmetry_Int_Tables_number	1
_symmetry_cell_setting	triclinic
loop_
_symmetry_equiv_pos_as_xyz
  x,y,z
_cell_length_a	12.837943
_cell_length_b	23.532407
_cell_length_c	11.892095
_cell_angle_alpha	93.859970
_cell_angle_beta	85.689438
_cell_angle_gamma	88.838809
loop_
_atom_site_label
_atom_site_type_symbol
_atom_site_fract_x
_atom_site_fract_y
_atom_site_fract_z
O1	O	1.380592	0.144688	-0.094007
O2	O	1.078862	0.137379	-0.094012
O3	O	1.238824	0.058625	-0.093989
O4	O	1.220630	0.223442	-0.094030
O5	O	1.225487	0.065180	0.094017
O6	O	1.065525	0.143934	0.093993
O7	O	1.367255	0.151243	0.093999
Zn8	Zn	1.214272	0.148629	0.123846
Zn9	Zn	1.231845	0.139993	-0.123859
O10	O	1.207293	0.229998	0.093975
C11	C	1.033599	0.138187	-0.000010
C12	C	0.918597	0.130823	-0.000011
C13	C	0.676728	0.219356	-0.000017
C14	C	0.568673	0.212439	-0.000017
C15	C	0.594431	0.110073	-0.000004
C16	C	0.702485	0.116990	-0.000003
C17	C	0.743630	0.171633	-0.000012
C18	C	0.851687	0.178549	-0.000020
C19	C	0.877442	0.076184	0.000002
C20	C	0.769387	0.069267	0.000002
C21	C	1.231692	0.040660	0.000017
C22	C	1.230298	-0.022637	0.000026
C23	C	1.316227	-0.416812	-0.000035
C24	C	1.314934	-0.476287	-0.000043
O25	O	1.394590	-0.508463	-0.000084
N26	N	1.219835	-0.504370	-0.000044
C27	C	1.126025	-0.472975	-0.000048
O28	O	1.045018	-0.502322	-0.000051
C29	C	1.127321	-0.413501	-0.000047
C30	C	1.222424	-0.385421	-0.000035
C31	C	1.411324	-0.388732	-0.000024
C32	C	1.412617	-0.329261	-0.000013
C33	C	1.318813	-0.297871	-0.000013
C34	C	1.223717	-0.325951	-0.000024
C35	C	1.033512	-0.382108	-0.000059
C36	C	1.034816	-0.322631	-0.000060
C37	C	1.129920	-0.294551	-0.000047
C38	C	1.131207	-0.235089	-0.000014
N39	N	1.226306	-0.207006	-0.000013
C40	C	1.320109	-0.238397	-0.000013
C41	C	1.123312	-0.597873	-0.000051
C42	C	1.122015	-0.657345	-0.000043
C43	C	1.310925	-0.660653	-0.000041
C44	C	1.312220	-0.601180	-0.000040
C45	C	1.218411	-0.569790	-0.000050
C46	C	1.322817	-0.113504	0.000011
C47	C	1.324101	-0.054028	0.000026
C48	C	1.135193	-0.050725	0.000018
C49	C	1.133908	-0.110196	0.000008
C50	C	1.227729	-0.141584	0.000001
O51	O	1.051594	-0.202877	0.000022
O52	O	1.401104	-0.209042	-0.000025
C53	C	1.412519	0.150435	-0.000006
C54	C	1.527521	0.157799	-0.000012
C55	C	1.214425	0.247962	-0.000033
C56	C	1.215820	0.311259	-0.000049
N57	N	1.202287	0.154524	0.292898
N58	N	1.243838	0.134094	-0.292912
C59	C	1.327236	0.093046	0.529565
C60	C	1.318866	0.097171	0.647905
C61	C	1.177173	0.166894	0.647922
C62	C	1.185543	0.162770	0.529582
C63	C	1.260578	0.125845	0.470407
C64	C	1.268952	0.121724	0.352064
C65	C	1.127255	0.191444	0.352084
C66	C	1.118885	0.195569	0.470424
H67	H	1.399215	-0.139054	0.000000
C68	C	0.615184	0.013210	0.000003
C69	C	0.724155	0.009205	0.000005
H70	H	0.587265	-0.023871	-0.000004
H71	H	0.587542	0.035384	0.065561
H72	H	0.596843	0.030826	-0.065563
H73	H	0.742496	-0.008407	0.065576
H74	H	0.751807	-0.012978	-0.065560
H75	H	1.387304	-0.686223	-0.000045
C76	C	1.599209	-0.338524	-0.000023
C77	C	1.517160	-0.298401	-0.000014
H78	H	1.663752	-0.319474	-0.000033
H79	H	1.590122	-0.359368	0.065535
H80	H	1.599406	-0.363934	-0.065589
H81	H	1.516957	-0.272994	0.065557
H82	H	1.526250	-0.277548	-0.065579
C83	C	1.037930	0.235386	0.636067
C84	C	1.094682	0.207470	0.712979
H85	H	0.986996	0.260430	0.676233
H86	H	1.084100	0.256614	0.589911
H87	H	1.004190	0.208045	0.589908
H88	H	1.128429	0.234811	0.759133
H89	H	1.048505	0.186241	0.759155
H90	H	1.057790	0.225631	0.518618
C91	C	1.067987	0.285394	0.315655
C92	C	1.053979	0.227503	0.287058
H93	H	1.022756	0.307655	0.275505
H94	H	1.052261	0.293127	0.394594
H95	H	1.138443	0.294663	0.296239
H96	H	0.983524	0.218234	0.306482
H97	H	1.069697	0.219767	0.208101
C98	C	0.815368	0.279038	-0.000019
C99	C	0.896916	0.238611	-0.000023
H100	H	0.843290	0.316119	-0.000011
H101	H	0.778412	0.271929	-0.065577
H102	H	0.769108	0.276488	0.065547
H103	H	0.943173	0.241159	-0.065593
H104	H	0.933890	0.245722	0.065542
H105	H	0.560905	0.065588	0.000097
H106	H	0.931927	0.037324	-0.000001
H107	H	1.388340	0.062984	0.481384
H108	H	1.401549	-0.031168	0.000039
C109	C	0.554072	0.314316	-0.000043
C110	C	0.495134	0.264897	-0.000033
H111	H	0.508670	0.346702	-0.000059
H112	H	0.592098	0.317170	0.065516
H113	H	0.601409	0.312596	-0.065608
H114	H	0.447802	0.266616	0.065536
H115	H	0.457090	0.262043	-0.065599
H116	H	1.330052	0.091659	0.303885
H117	H	1.373145	0.070462	0.696068
C118	C	0.933526	-0.257193	-0.096713
C119	C	0.931695	-0.288128	-0.000069
H120	H	0.869861	-0.235897	-0.096718
H121	H	0.990336	-0.231957	-0.096695
H122	H	0.941606	-0.282749	-0.162269
H123	H	0.923622	-0.262572	0.065488
H124	H	0.874868	-0.313367	-0.000077
C125	C	1.493251	-0.481366	-0.000029
C126	C	1.514444	-0.423231	-0.000025
H127	H	1.556920	-0.502660	-0.000031
H128	H	1.449589	-0.488152	0.065527
H129	H	1.458887	-0.492713	-0.065597
H130	H	1.548801	-0.411882	0.065549
H131	H	1.558123	-0.416442	-0.065586
C132	C	0.967459	-0.676186	-0.096696
C133	C	1.017475	-0.688207	-0.000048
H134	H	0.902922	-0.695241	-0.096704
H135	H	0.954815	-0.636277	-0.096680
H136	H	1.010716	-0.688898	-0.162249
H137	H	0.974221	-0.675492	0.065506
H138	H	1.030115	-0.728125	-0.000053
H139	H	0.710228	0.263848	-0.000026
H140	H	1.056465	-0.133059	0.000030
H141	H	1.389662	-0.578321	-0.000031
H142	H	1.046916	-0.572319	-0.000049
H143	H	1.058821	-0.025156	0.000021
C144	C	0.846925	-0.372840	-0.000096
C145	C	0.928970	-0.412963	-0.000083
H146	H	0.782382	-0.391889	-0.000119
H147	H	0.846707	-0.347435	0.065467
H148	H	0.856036	-0.351990	-0.065657
H149	H	0.919863	-0.433810	0.065483
H150	H	0.929186	-0.438378	-0.065653
