data_functionalizedCrystal
_audit_creation_method	'MofGen! by Chris Wilmer'
_symmetry_space_group_name_H-M	'P1'
_symmetry_Int_Tables_number	1
_symmetry_cell_setting	triclinic
loop_
_symmetry_equiv_pos_as_xyz
  x,y,z
_cell_length_a	11.792241
_cell_length_b	14.519709
_cell_length_c	10.868271
_cell_angle_alpha	89.993918
_cell_angle_beta	89.999893
_cell_angle_gamma	83.936780
loop_
_atom_site_label
_atom_site_type_symbol
_atom_site_fract_x
_atom_site_fract_y
_atom_site_fract_z
O1	O	1.506208	0.126404	-0.102206
O2	O	1.175794	0.139432	-0.102235
O3	O	1.349761	-0.001288	-0.102208
O4	O	1.332241	0.267124	-0.102232
O5	O	1.349747	-0.001294	0.102436
O6	O	1.175780	0.139426	0.102410
O7	O	1.506193	0.126399	0.102439
Zn8	Zn	1.340984	0.132912	0.134916
Zn9	Zn	1.341003	0.132919	-0.134712
O10	O	1.332226	0.267119	0.102413
C11	C	1.133501	0.138611	0.000084
C12	C	1.007501	0.136161	0.000073
C13	C	1.348938	-0.035654	0.000114
C14	C	1.346491	-0.138044	0.000115
C15	C	0.776813	0.131657	0.000109
C16	C	0.905185	0.134160	0.000090
C17	C	1.337483	-0.512973	0.000082
C18	C	1.339984	-0.408656	0.000091
C19	C	1.341987	-0.325512	0.000099
C20	C	1.344489	-0.221188	0.000107
C21	C	1.548487	0.127220	0.000118
C22	C	1.674487	0.129669	0.000120
C23	C	1.333050	0.301484	0.000087
C24	C	1.335497	0.403875	0.000079
N25	N	1.340980	0.132906	0.318930
N26	N	1.341017	0.132917	-0.318726
C27	C	1.340997	0.132917	0.569936
C28	C	1.340984	0.132914	0.430259
