data_functionalizedCrystal
_audit_creation_method	'MofGen! by Chris Wilmer'
_symmetry_space_group_name_H-M	'P1'
_symmetry_Int_Tables_number	1
_symmetry_cell_setting	triclinic
loop_
_symmetry_equiv_pos_as_xyz
  x,y,z
_cell_length_a	12.837943
_cell_length_b	10.489741
_cell_length_c	11.295483
_cell_angle_alpha	94.137284
_cell_angle_beta	85.461227
_cell_angle_gamma	89.684057
loop_
_atom_site_label
_atom_site_type_symbol
_atom_site_fract_x
_atom_site_fract_y
_atom_site_fract_z
O1	O	1.384854	0.324137	-0.099003
O2	O	1.082927	0.307742	-0.099010
O3	O	1.240760	0.131100	-0.098999
O4	O	1.227021	0.500780	-0.099013
O5	O	1.226897	0.146588	0.099051
O6	O	1.069064	0.323231	0.099040
O7	O	1.370991	0.339626	0.099047
Cu8	Cu	1.218762	0.332842	0.117127
Cu9	Cu	1.235156	0.314526	-0.117090
O10	O	1.213158	0.516268	0.099036
C11	C	1.037334	0.309948	0.000014
C12	C	0.922133	0.293430	0.000012
C13	C	0.682657	0.492006	0.000021
C14	C	0.574415	0.476492	0.000020
C15	C	0.597406	0.246889	0.000016
C16	C	0.705648	0.262403	0.000017
C17	C	0.748269	0.384966	0.000018
C18	C	0.856513	0.400478	0.000011
C19	C	0.879501	0.170877	0.000016
C20	C	0.771260	0.155363	0.000014
C21	C	1.232791	0.091198	0.000025
C22	C	1.229686	-0.050774	0.000023
C23	C	1.129262	-0.129987	0.000012
C24	C	1.169867	-0.209242	0.097662
C25	C	1.183558	-0.224485	-0.097600
C26	C	1.270327	-0.128153	0.097754
C27	C	1.284011	-0.143394	-0.097596
C28	C	1.324687	-0.222613	0.000078
C29	C	1.416585	0.337420	0.000020
C30	C	1.531786	0.353937	0.000015
C31	C	1.221127	0.556170	0.000010
C32	C	1.224233	0.698141	0.000004
N33	N	1.207238	0.345726	0.281863
N34	N	1.246688	0.301633	-0.281825
C35	C	1.329641	0.208822	0.531161
C36	C	1.320940	0.218568	0.655824
C37	C	1.181131	0.374956	0.655854
C38	C	1.189832	0.365210	0.531191
C39	C	1.264090	0.282142	0.468849
C40	C	1.272796	0.272403	0.344183
C41	C	1.132982	0.428784	0.344216
C42	C	1.124281	0.438530	0.468879
H43	H	0.520997	0.563656	0.000025
H44	H	1.333263	0.204769	0.293425
C45	C	1.149175	-0.198005	0.311307
C46	C	1.104709	-0.248728	0.209105
H47	H	1.108941	-0.222375	0.380102
H48	H	1.218581	-0.229808	0.311406
H49	H	1.150144	-0.107429	0.311731
H50	H	1.103747	-0.339305	0.208677
H51	H	1.035284	-0.216931	0.209006
C52	C	0.630991	0.021491	0.000015
C53	C	0.550545	0.112177	0.000018
H54	H	0.602057	-0.061674	0.000022
H55	H	0.677558	0.026916	-0.069047
H56	H	0.667902	0.037719	0.069082
H57	H	0.513637	0.095954	-0.069054
H58	H	0.503959	0.106747	0.069087
C59	C	1.055635	0.092700	0.000009
C60	C	0.951626	0.053207	0.000011
H61	H	1.100160	0.020056	0.000008
H62	H	1.073475	0.137009	-0.069049
H63	H	1.063812	0.147805	0.069080
H64	H	0.943448	-0.001890	-0.069065
H65	H	0.933781	0.008878	0.069076
H66	H	0.736541	0.055577	0.000027
C67	C	0.703516	0.684521	-0.101797
C68	C	0.729514	0.626721	0.000015
H69	H	0.732438	0.767692	-0.101795
H70	H	0.730816	0.634494	-0.170845
H71	H	0.629659	0.690595	-0.101786
H72	H	0.803371	0.620639	-0.000000
H73	H	0.702219	0.676760	0.069081
C74	C	1.322241	0.061861	0.208357
C75	C	1.319825	-0.071498	0.209332
H76	H	1.352790	0.096837	0.277245
H77	H	1.362526	0.084878	0.139111
H78	H	1.253040	0.094311	0.208073
H79	H	1.389027	-0.103949	0.209607
H80	H	1.279540	-0.094526	0.278597
H81	H	1.046686	-0.089431	0.000108
C82	C	1.481397	-0.227956	0.102479
C83	C	1.436241	-0.277045	0.000151
H84	H	1.550261	-0.261570	0.102529
H85	H	1.483922	-0.137432	0.103128
H86	H	1.440637	-0.251594	0.171179
H87	H	1.476996	-0.253399	-0.068550
H88	H	1.433722	-0.367589	-0.000509
C89	C	1.377537	0.008003	0.694188
C90	C	1.392995	0.137973	0.724318
H91	H	1.422027	-0.041753	0.736470
H92	H	1.306770	-0.012711	0.714641
H93	H	1.393348	-0.009672	0.611019
H94	H	1.377177	0.155650	0.807487
H95	H	1.463778	0.158695	0.703873
H96	H	1.332246	-0.114126	-0.180154
H97	H	0.891213	0.500275	0.000014
H98	H	1.146833	-0.266591	-0.180163
C99	C	1.048869	0.522916	0.659994
C100	C	1.042664	0.529841	0.537413
H101	H	0.998486	0.579298	0.702299
H102	H	1.035529	0.437943	0.680421
H103	H	1.116797	0.546831	0.680395
H104	H	0.974738	0.505916	0.517010
H105	H	1.055996	0.614832	0.516978
C106	C	1.480445	0.187471	0.390972
C107	C	1.411293	0.117545	0.462643
H108	H	1.530865	0.131125	0.348686
H109	H	1.442648	0.229708	0.336010
H110	H	1.514733	0.248990	0.439620
H111	H	1.377000	0.056032	0.413994
H112	H	1.449095	0.075287	0.517611
H113	H	1.120664	0.442579	0.706630
C114	C	1.076390	0.639358	0.305858
C115	C	1.060924	0.509390	0.275724
H116	H	1.031911	0.689121	0.263568
H117	H	1.060578	0.657032	0.389016
H118	H	1.147169	0.660065	0.285407
H119	H	0.990146	0.488681	0.296183
H120	H	1.076729	0.491709	0.192547
