data_functionalizedCrystal
_audit_creation_method	'MofGen! by Chris Wilmer'
_symmetry_space_group_name_H-M	'P1'
_symmetry_Int_Tables_number	1
_symmetry_cell_setting	triclinic
loop_
_symmetry_equiv_pos_as_xyz
  x,y,z
_cell_length_a	17.077404
_cell_length_b	17.077402
_cell_length_c	12.759393
_cell_angle_alpha	90.032432
_cell_angle_beta	90.024591
_cell_angle_gamma	90.021740
loop_
_atom_site_label
_atom_site_type_symbol
_atom_site_fract_x
_atom_site_fract_y
_atom_site_fract_z
Zn1	Zn	1.200076	-0.312507	0.594108
Zn2	Zn	1.199974	-0.443793	0.418423
Zn3	Zn	1.068800	-0.312541	0.418432
Zn4	Zn	1.068774	-0.443731	0.594049
O5	O	1.134406	-0.378143	0.506253
O6	O	1.309909	-0.329934	0.570824
O7	O	1.182542	-0.426423	0.271403
O8	O	1.086268	-0.202690	0.441765
O9	O	1.309835	-0.426389	0.441749
O10	O	1.182715	-0.202664	0.570834
O11	O	1.086169	-0.329992	0.271410
O12	O	0.958950	-0.329932	0.441707
O13	O	1.086223	-0.426283	0.741078
O14	O	0.958931	-0.426316	0.570732
O15	O	1.182690	-0.329874	0.741122
O16	O	1.182517	-0.553632	0.441691
O17	O	1.086125	-0.553586	0.570722
C18	C	0.930458	-0.378122	0.506215
C19	C	0.843208	-0.378131	0.506223
C20	C	1.134328	-0.582091	0.506222
C21	C	1.134367	-0.669341	0.506244
C22	C	0.467430	-0.328030	0.573608
C23	C	0.549410	-0.328025	0.573597
C24	C	0.590360	-0.378159	0.506279
C25	C	0.549324	-0.428309	0.438977
C26	C	0.467345	-0.428318	0.438994
C27	C	0.720194	-0.428285	0.438943
C28	C	0.802179	-0.428275	0.438924
C29	C	0.802259	-0.327992	0.573545
C30	C	0.720280	-0.328001	0.573563
C31	C	0.679251	-0.378149	0.506259
C32	C	1.184559	-0.710250	0.573504
C33	C	1.184592	-0.792230	0.573526
C34	C	1.134436	-0.833300	0.506282
C35	C	1.084238	-0.792385	0.439019
C36	C	1.084201	-0.710406	0.439003
C37	C	1.084318	-0.963255	0.439056
C38	C	1.084355	-1.045239	0.439070
C39	C	1.184709	-1.045079	0.573579
C40	C	1.184673	-0.963100	0.573563
C41	C	1.134476	-0.922191	0.506298
C42	C	1.339150	-0.378165	0.506292
C43	C	1.426400	-0.378174	0.506309
C44	C	1.134465	-0.378067	0.780286
C45	C	1.134490	-0.378035	0.897063
C46	C	1.134506	-0.173399	0.506307
C47	C	1.134548	-0.086149	0.506330
C48	C	1.134393	-0.378161	0.233286
C49	C	1.134520	-0.377972	0.116509
C50	C	1.184724	-0.327827	0.951950
C51	C	1.184737	-0.327793	1.061674
C52	C	1.084280	-0.428183	1.061615
C53	C	1.084264	-0.428212	0.951893
H54	H	0.434095	-0.287200	0.628420
C55	C	1.029102	-0.918256	0.365055
N56	N	0.987519	-0.884363	0.309313
C57	C	1.239857	-0.917926	0.647521
N58	N	1.281424	-0.883900	0.703227
H59	H	0.686790	-0.469124	0.384141
C60	C	1.240000	-0.272562	1.122044
N61	N	1.281627	-0.230959	1.167514
C62	C	1.029033	-0.483373	1.121938
N63	N	0.987419	-0.524943	1.167373
C64	C	0.847221	-0.483433	0.364881
N65	N	0.881147	-0.524982	0.309115
H66	H	1.225581	-1.078392	0.628349
C67	C	1.028986	-0.665406	0.365011
N68	N	0.987394	-0.631513	0.309280
H69	H	1.043510	-1.078676	0.384319
H70	H	1.043396	-0.825830	0.384272
C71	C	0.422213	-0.483477	0.364957
N72	N	0.388220	-0.525027	0.309191
H73	H	0.582813	-0.287195	0.628402
C74	C	0.675238	-0.272849	0.647614
N75	N	0.641312	-0.231310	0.703393
C76	C	1.028997	-0.483446	0.891514
N77	N	0.987370	-0.525044	0.846037
H78	H	1.225619	-0.286968	0.907310
C79	C	0.847394	-0.272833	0.647588
N80	N	0.881393	-0.231289	0.703353
C81	C	0.594371	-0.483454	0.364922
N82	N	0.628300	-0.524987	0.309138
H83	H	1.225406	-0.676817	0.628256
H84	H	1.225470	-0.825535	0.628288
