data_functionalizedCrystal
_audit_creation_method	'MofGen! by Chris Wilmer'
_symmetry_space_group_name_H-M	'P1'
_symmetry_Int_Tables_number	1
_symmetry_cell_setting	triclinic
loop_
_symmetry_equiv_pos_as_xyz
  x,y,z
_cell_length_a	16.959455
_cell_length_b	25.639240
_cell_length_c	16.959447
_cell_angle_alpha	89.959660
_cell_angle_beta	89.983056
_cell_angle_gamma	90.029705
loop_
_atom_site_label
_atom_site_type_symbol
_atom_site_fract_x
_atom_site_fract_y
_atom_site_fract_z
Zn1	Zn	1.208335	-0.208183	-0.446854
Zn2	Zn	1.708335	0.291817	0.053146
Zn3	Zn	1.208222	-0.295623	-0.314653
Zn4	Zn	1.708222	0.204377	0.185347
Zn5	Zn	1.076157	-0.208199	-0.314692
Zn6	Zn	1.576157	0.291801	0.185308
Zn7	Zn	1.076098	-0.295584	-0.446791
Zn8	Zn	1.576098	0.204416	0.053209
O9	O	1.142203	-0.251897	-0.380747
O10	O	1.642203	0.248103	0.119253
O11	O	1.318930	-0.219791	-0.429327
O12	O	1.818930	0.280209	0.070673
O13	O	1.190680	-0.284050	-0.204047
O14	O	1.690680	0.215950	0.295953
O15	O	1.093762	-0.135032	-0.332266
O16	O	1.593762	0.364968	0.167734
O17	O	1.318848	-0.284034	-0.332199
O18	O	1.818848	0.215966	0.167801
O19	O	1.190873	-0.135020	-0.429365
O20	O	1.690873	0.364980	0.070635
O21	O	1.093653	-0.219820	-0.204075
O22	O	1.593653	0.280180	0.295925
O23	O	0.965538	-0.219781	-0.332205
O24	O	1.465538	0.280219	0.167795
O25	O	1.093663	-0.283967	-0.557410
O26	O	1.593663	0.216033	-0.057410
O27	O	0.965495	-0.283983	-0.429258
O28	O	1.465495	0.216017	0.070742
O29	O	1.190816	-0.219753	-0.557457
O30	O	1.690816	0.280247	-0.057457
O31	O	1.190624	-0.368783	-0.332138
O32	O	1.690624	0.131217	0.167862
O33	O	1.093553	-0.368755	-0.429220
O34	O	1.593553	0.131245	0.070780
C35	C	0.936837	-0.251880	-0.380729
C36	C	1.436837	0.248120	0.119271
C37	C	0.848980	-0.251885	-0.380740
C38	C	1.348980	0.248115	0.119260
C39	C	1.142091	-0.387740	-0.380685
C40	C	1.642091	0.112260	0.119315
C41	C	1.142116	-0.445854	-0.380685
C42	C	1.642116	0.054146	0.119315
C43	C	0.477502	-0.218440	-0.330317
C44	C	0.977502	0.281560	0.169683
C45	C	0.477506	-0.285397	-0.431222
C46	C	0.977506	0.214603	0.068778
C47	C	0.560052	-0.285390	-0.431218
C48	C	1.060052	0.214610	0.068782
C49	C	0.601327	-0.251908	-0.380761
C50	C	1.101327	0.248092	0.119239
C51	C	0.560056	-0.218433	-0.330309
C52	C	1.060056	0.281567	0.169691
C53	C	0.601330	-0.318868	-0.481663
C54	C	1.101330	0.181132	0.018337
C55	C	0.683881	-0.318862	-0.481659
C56	C	1.183881	0.181138	0.018341
C57	C	0.725157	-0.285377	-0.431206
C58	C	1.225157	0.214623	0.068794
C59	C	0.683881	-0.251900	-0.380753
C60	C	1.183881	0.248100	0.119247
C61	C	0.725155	-0.218418	-0.330297
C62	C	1.225155	0.281582	0.169703
C63	C	0.683881	-0.184938	-0.279847
C64	C	1.183881	0.315062	0.220153
C65	C	0.601332	-0.184948	-0.279856
C66	C	1.101332	0.315052	0.220144
C67	C	0.807705	-0.285368	-0.431197
C68	C	1.307705	0.214632	0.068803
C69	C	0.807709	-0.218411	-0.330288
C70	C	1.307709	0.281589	0.169712
C71	C	1.192793	-0.806172	-0.431398
C72	C	1.692793	-0.306172	0.068602
C73	C	1.192817	-0.860777	-0.431414
C74	C	1.692817	-0.360777	0.068586
O75	O	1.235772	-0.888975	-0.474468
O76	O	1.735772	-0.388975	0.025532
N77	N	1.142313	-0.888136	-0.380824
N78	N	1.642313	-0.388136	0.119176
C79	C	1.091776	-0.860889	-0.330220
C80	C	1.591776	-0.360889	0.169780
O81	O	1.048820	-0.889175	-0.287190
O82	O	1.548820	-0.389175	0.212810
C83	C	1.091749	-0.806286	-0.330208
C84	C	1.591749	-0.306286	0.169792
C85	C	1.142263	-0.778929	-0.380796
C86	C	1.642263	-0.278929	0.119204
C87	C	1.243302	-0.778815	-0.481983
C88	C	1.743302	-0.278815	0.018017
C89	C	1.243279	-0.724215	-0.481965
C90	C	1.743279	-0.224215	0.018035
C91	C	1.192748	-0.696971	-0.431364
C92	C	1.692748	-0.196971	0.068636
C93	C	1.142240	-0.724328	-0.380779
C94	C	1.642240	-0.224328	0.119221
C95	C	1.041210	-0.779040	-0.279609
C96	C	1.541210	-0.279040	0.220391
C97	C	1.041187	-0.724433	-0.279602
C98	C	1.541187	-0.224433	0.220398
C99	C	1.091700	-0.697076	-0.330190
C100	C	1.591700	-0.197076	0.169810
C101	C	1.091687	-0.642484	-0.330160
C102	C	1.591687	-0.142484	0.169840
N103	N	1.142191	-0.615124	-0.380750
N104	N	1.642191	-0.115124	0.119250
C105	C	1.192722	-0.642368	-0.431352
C106	C	1.692722	-0.142368	0.068648
C107	C	1.091835	-0.975560	-0.330249
C108	C	1.591835	-0.475560	0.169751
C109	C	1.091865	-1.030162	-0.330255
C110	C	1.591865	-0.530162	0.169745
C111	C	1.192905	-1.030046	-0.431451
C112	C	1.692905	-0.530046	0.068549
C113	C	1.192878	-0.975442	-0.431440
C114	C	1.692878	-0.475442	0.068560
C115	C	1.142339	-0.948200	-0.380839
C116	C	1.642339	-0.448200	0.119161
C117	C	1.192671	-0.527703	-0.431311
C118	C	1.692671	-0.027703	0.068689
C119	C	1.192647	-0.473097	-0.431287
C120	C	1.692647	0.026903	0.068713
C121	C	1.091604	-0.473219	-0.330095
C122	C	1.591604	0.026781	0.169905
C123	C	1.091632	-0.527819	-0.330116
C124	C	1.591632	-0.027819	0.169884
C125	C	1.142168	-0.555060	-0.380730
C126	C	1.642168	-0.055060	0.119270
O127	O	1.048751	-0.614251	-0.287130
O128	O	1.548751	-0.114251	0.212870
O129	O	1.235663	-0.614076	-0.474381
O130	O	1.735663	-0.114076	0.025619
C131	C	1.348371	-0.251915	-0.380766
C132	C	1.848371	0.248085	0.119234
C133	C	1.436228	-0.251923	-0.380774
C134	C	1.936228	0.248077	0.119226
C135	C	1.142245	-0.251854	-0.586916
C136	C	1.642245	0.248146	-0.086916
C137	C	1.142263	-0.251835	-0.674772
C138	C	1.642263	0.248165	-0.174772
C139	C	1.142337	-0.115524	-0.380827
C140	C	1.642337	0.384476	0.119173
C141	C	1.142394	-0.057410	-0.380861
C142	C	1.642394	0.442590	0.119139
C143	C	1.091815	-0.218339	-1.046269
C144	C	1.591815	0.281661	-0.546269
C145	C	1.192851	-0.285222	-1.046227
C146	C	1.692851	0.214778	-0.546227
C147	C	1.192837	-0.285234	-0.963681
C148	C	1.692837	0.214766	-0.463681
C149	C	1.142311	-0.251799	-0.922425
C150	C	1.642311	0.248201	-0.422425
C151	C	1.091798	-0.218351	-0.963716
C152	C	1.591798	0.281649	-0.463716
C153	C	1.243343	-0.318685	-0.922385
C154	C	1.743343	0.181315	-0.422385
C155	C	1.243330	-0.318699	-0.839834
C156	C	1.743330	0.181301	-0.339834
C157	C	1.192808	-0.285260	-0.798576
C158	C	1.692808	0.214740	-0.298576
C159	C	1.142294	-0.251811	-0.839872
C160	C	1.642294	0.248189	-0.339872
C161	C	1.091768	-0.218375	-0.798616
C162	C	1.591768	0.281625	-0.298616
C163	C	1.041257	-0.184923	-0.839910
C164	C	1.541257	0.315077	-0.339910
C165	C	1.041276	-0.184912	-0.922459
C166	C	1.541276	0.315088	-0.422459
C167	C	1.192789	-0.285271	-0.716028
C168	C	1.692789	0.214729	-0.216028
C169	C	1.091751	-0.218388	-0.716063
C170	C	1.591751	0.281612	-0.216063
C171	C	1.142206	-0.251903	-0.175381
C172	C	1.642206	0.248097	0.324619
C173	C	1.142341	-0.251774	-0.087525
C174	C	1.642341	0.248226	0.412475
H175	H	0.841309	-0.191142	-0.289205
H176	H	1.341309	0.308858	0.210795
H177	H	0.717479	-0.346123	-0.522739
H178	H	1.217479	0.153877	-0.022739
Cl179	Cl	0.977743	-0.142890	-0.788036
Cl180	Cl	1.477743	0.357110	-0.288036
Cl181	Cl	0.977780	-0.142864	-0.974375
Cl182	Cl	1.477780	0.357136	-0.474375
Cl183	Cl	1.028323	-0.176284	-1.098179
Cl184	Cl	1.528323	0.323716	-0.598179
Cl185	Cl	0.549438	-0.360973	-0.545064
Cl186	Cl	1.049438	0.139027	-0.045064
Cl187	Cl	1.028300	-0.941318	-0.266624
Cl188	Cl	1.528300	-0.441318	0.233376
H189	H	1.233920	-0.312504	-0.682410
H190	H	1.733920	0.187496	-0.182410
H191	H	1.050741	-1.052432	-0.289053
H192	H	1.550741	-0.552432	0.210947
H193	H	1.233817	-0.549876	-0.472532
H194	H	1.733817	-0.049876	0.027468
H195	H	1.284450	-0.800991	-0.523194
H196	H	1.784450	-0.300991	-0.023194
H197	H	1.050609	-0.191157	-0.682478
H198	H	1.550609	0.308843	-0.182478
H199	H	0.567719	-0.157691	-0.238782
H200	H	1.067719	0.342309	0.261218
Cl201	Cl	0.735779	-0.142851	-0.216413
Cl202	Cl	1.235779	0.357149	0.283587
Cl203	Cl	1.256381	-0.941056	-0.495040
Cl204	Cl	1.756381	-0.441056	0.004960
H205	H	1.233981	-0.312448	-1.079822
H206	H	1.733981	0.187552	-0.579822
Cl207	Cl	1.306849	-0.360721	-0.974252
Cl208	Cl	1.806849	0.139279	-0.474252
Cl209	Cl	1.306832	-0.360750	-0.787929
Cl210	Cl	1.806832	0.139250	-0.287929
Cl211	Cl	0.977700	-0.813418	-0.216011
Cl212	Cl	1.477700	-0.313418	0.283989
Cl213	Cl	0.977648	-0.690188	-0.215985
Cl214	Cl	1.477648	-0.190188	0.284015
Cl215	Cl	0.425617	-0.327498	-0.494633
Cl216	Cl	0.925617	0.172502	0.005367
Cl217	Cl	0.425617	-0.176351	-0.266902
Cl218	Cl	0.925617	0.323649	0.233098
Cl219	Cl	0.859590	-0.327456	-0.494609
Cl220	Cl	1.359590	0.172544	0.005391
H221	H	1.233783	-0.450825	-0.472482
H222	H	1.733783	0.049175	0.027518
H223	H	1.050465	-0.451028	-0.288893
H224	H	1.550465	0.048972	0.211107
Cl225	Cl	1.306778	-0.689831	-0.545572
Cl226	Cl	1.806778	-0.189831	-0.045572
Cl227	Cl	1.028139	-0.562212	-0.266508
Cl228	Cl	1.528139	-0.062212	0.233492
H229	H	1.234049	-1.052237	-0.472656
H230	H	1.734049	-0.552237	0.027344
