data_functionalizedCrystal
_audit_creation_method	'MofGen! by Chris Wilmer'
_symmetry_space_group_name_H-M	'P1'
_symmetry_Int_Tables_number	1
_symmetry_cell_setting	triclinic
loop_
_symmetry_equiv_pos_as_xyz
  x,y,z
_cell_length_a	14.044220
_cell_length_b	14.044220
_cell_length_c	14.048226
_cell_angle_alpha	89.998644
_cell_angle_beta	90.005040
_cell_angle_gamma	86.811122
loop_
_atom_site_label
_atom_site_type_symbol
_atom_site_fract_x
_atom_site_fract_y
_atom_site_fract_z
O1	O	-0.230170	1.277171	-0.079055
O2	O	-0.221864	1.000499	-0.079079
O3	O	-0.087681	1.134682	-0.079063
O4	O	-0.364353	1.142988	-0.079070
O5	O	-0.087671	1.134664	0.079259
O6	O	-0.221854	1.000481	0.079243
O7	O	-0.230160	1.277152	0.079267
Zn8	Zn	-0.226005	1.138814	0.104392
Zn9	Zn	-0.226019	1.138838	-0.104204
O10	O	-0.364343	1.142969	0.079251
C11	C	-0.218223	0.964868	0.000079
C12	C	-0.207379	0.858725	0.000069
C13	C	-0.187553	0.664388	0.000089
C14	C	-0.264467	0.613258	0.000091
C15	C	-0.253435	0.505122	0.000102
C16	C	-0.198583	0.772534	0.000078
C17	C	-0.399969	1.146614	0.000089
C18	C	-0.506112	1.157459	0.000087
C19	C	-0.700450	1.177285	0.000093
C20	C	-0.751580	1.100371	0.000087
C21	C	-0.859716	1.111402	0.000090
C22	C	-0.592304	1.166255	0.000089
C23	C	-0.052054	1.131037	0.000097
C24	C	0.054088	1.120193	0.000093
C25	C	-0.233800	1.312783	0.000107
C26	C	-0.244645	1.418926	0.000110
N27	N	-0.225996	1.138804	0.246752
N28	N	-0.226021	1.138854	-0.246564
C29	C	-0.166608	1.198243	0.296577
C30	C	-0.166608	1.198249	0.396235
C31	C	-0.226002	1.138821	0.446066
C32	C	-0.285392	1.079376	0.396234
C33	C	-0.285386	1.079365	0.296578
C34	C	-0.285401	1.079404	0.603948
C35	C	-0.285408	1.079415	0.703611
C36	C	-0.166623	1.198288	0.703605
C37	C	-0.166618	1.198277	0.603949
C38	C	-0.226009	1.138833	0.554124
H39	H	-0.714141	1.026237	0.000081
O40	O	-0.349460	1.015318	0.757367
H41	H	-0.305311	0.965545	0.802791
H42	H	-0.338600	0.650697	0.000084
H43	H	-0.333761	1.030994	0.563384
H44	H	-0.333748	1.030983	0.436812
H45	H	-0.118248	1.246640	0.256012
H46	H	-0.118250	1.246648	0.436802
H47	H	-0.113425	0.626951	0.000096
O48	O	-0.102553	1.262368	0.550199
H49	H	-0.121045	1.337824	0.569314
O50	O	-0.349444	1.015262	0.242830
H51	H	-0.390753	0.973946	0.294221
O52	O	-0.750030	1.275481	0.000112
H53	H	-0.828415	1.268844	0.000122
H54	H	-0.118265	1.246689	0.744179
