data_functionalizedCrystal
_audit_creation_method	'MofGen! by Chris Wilmer'
_symmetry_space_group_name_H-M	'P1'
_symmetry_Int_Tables_number	1
_symmetry_cell_setting	triclinic
loop_
_symmetry_equiv_pos_as_xyz
  x,y,z
_cell_length_a	18.215407
_cell_length_b	16.120297
_cell_length_c	18.215405
_cell_angle_alpha	87.131114
_cell_angle_beta	89.977671
_cell_angle_gamma	92.880709
loop_
_atom_site_label
_atom_site_type_symbol
_atom_site_fract_x
_atom_site_fract_y
_atom_site_fract_z
Zn1	Zn	1.103975	-0.471315	0.314148
Zn2	Zn	1.603975	0.028685	0.814148
Zn3	Zn	1.110124	-0.331896	0.430976
Zn4	Zn	1.610124	0.168104	0.930976
Zn5	Zn	0.987147	-0.331924	0.307924
Zn6	Zn	1.487147	0.168076	0.807924
Zn7	Zn	0.980876	-0.471268	0.437170
Zn8	Zn	1.480876	0.028732	0.937170
O9	O	1.045531	-0.401601	0.372555
O10	O	1.545531	0.098399	0.872555
O11	O	1.207775	-0.452829	0.329659
O12	O	1.707775	0.047171	0.829659
O13	O	1.099009	-0.215237	0.409456
O14	O	1.599009	0.284763	0.909456
O15	O	1.002696	-0.350446	0.205767
O16	O	1.502696	0.149554	0.705767
O17	O	1.212292	-0.350399	0.415492
O18	O	1.712292	0.149601	0.915492
O19	O	1.088529	-0.452856	0.210340
O20	O	1.588529	0.047144	0.710340
O21	O	1.008658	-0.215258	0.319050
O22	O	1.508658	0.284742	0.819050
O23	O	0.883331	-0.350400	0.325056
O24	O	1.383331	0.149600	0.825056
O25	O	0.992007	-0.587937	0.426048
O26	O	1.492007	-0.087937	0.926048
O27	O	0.878724	-0.452775	0.420013
O28	O	1.378724	0.047225	0.920013
O29	O	1.082448	-0.587971	0.335665
O30	O	1.582448	-0.087971	0.835665
O31	O	1.092928	-0.350353	0.534781
O32	O	1.592928	0.149647	1.034781
O33	O	0.997970	-0.452748	0.539331
O34	O	1.497970	0.047252	1.039331
C35	C	0.854325	-0.401586	0.372531
C36	C	1.354325	0.098414	0.872531
C37	C	0.772526	-0.401600	0.372540
C38	C	1.272526	0.098400	0.872540
C39	C	0.581974	-0.455019	0.327948
C40	C	1.081974	0.044981	0.827948
C41	C	0.505116	-0.455022	0.327954
C42	C	1.005116	0.044978	0.827954
C43	C	0.509838	-0.348197	0.417183
C44	C	1.009838	0.151803	0.917183
C45	C	0.586696	-0.348190	0.417172
C46	C	1.086696	0.151810	0.917172
C47	C	0.622762	-0.401606	0.372556
C48	C	1.122762	0.098394	0.872556
C49	C	0.469045	-0.401616	0.372573
C50	C	0.969045	0.098384	0.872573
C51	C	0.385711	-0.401618	0.372580
C52	C	0.885711	0.098382	0.872580
C53	C	0.706101	-0.401603	0.372547
C54	C	1.206101	0.098397	0.872547
C55	C	1.035842	-0.619049	0.382242
C56	C	1.535842	-0.119049	0.882242
C57	C	1.031714	-0.711713	0.386370
C58	C	1.531714	-0.211713	0.886370
C59	C	1.024149	-0.881370	0.393890
C60	C	1.524149	-0.381370	0.893890
C61	C	1.067058	-0.922683	0.350999
C62	C	1.567058	-0.422683	0.850999
C63	C	1.062848	-1.017086	0.355183
C64	C	1.562848	-0.517086	0.855183
C65	C	1.028357	-0.786958	0.389707
C66	C	1.528357	-0.286958	0.889707
C67	C	1.237483	-0.401616	0.372579
C68	C	1.737483	0.098384	0.872579
C69	C	1.319281	-0.401622	0.372589
C70	C	1.819281	0.098378	0.872589
C71	C	1.045455	-0.401561	0.563759
C72	C	1.545455	0.098439	1.063759
C73	C	1.045488	-0.401571	0.645559
C74	C	1.545488	0.098429	1.145559
C75	C	1.055224	-0.184998	0.362852
C76	C	1.555224	0.315002	0.862852
C77	C	1.059495	-0.092335	0.358517
C78	C	1.559495	0.407665	0.858517
C79	C	1.045626	-0.401659	0.180604
C80	C	1.545626	0.098341	0.680604
C81	C	1.045667	-0.401684	0.098807
C82	C	1.545667	0.098316	0.598807
C83	C	1.095039	-0.348352	0.831363
C84	C	1.595039	0.151648	1.331363
C85	C	1.095071	-0.348372	0.908223
C86	C	1.595071	0.151628	1.408223
C87	C	0.996114	-0.454909	0.912997
C88	C	1.496114	0.045091	1.412997
C89	C	0.996086	-0.454893	0.836139
C90	C	1.496086	0.045107	1.336139
C91	C	1.045548	-0.401609	0.795324
C92	C	1.545548	0.098391	1.295324
C93	C	1.045607	-0.401646	0.949041
C94	C	1.545607	0.098354	1.449041
C95	C	1.045642	-0.401668	1.032376
C96	C	1.545642	0.098332	1.532376
C97	C	1.045514	-0.401588	0.711984
C98	C	1.545514	0.098412	1.211984
H99	H	0.619906	-0.304691	0.453498
H100	H	1.119906	0.195309	0.953498
N101	N	1.148389	-0.290894	0.787336
N102	N	1.648389	0.209106	1.287336
H103	H	1.139668	-0.231318	0.798091
H104	H	1.639668	0.268682	1.298091
H105	H	1.200362	-0.303976	0.801265
H106	H	1.700362	0.196024	1.301265
N107	N	1.148453	-0.290933	0.947094
N108	N	1.648453	0.209067	1.447094
H109	H	1.179780	-0.257178	0.909573
H110	H	1.679780	0.242822	1.409573
H111	H	1.120257	-0.252329	0.977304
H112	H	1.620257	0.247671	1.477304
H113	H	0.955842	-0.498289	0.946238
H114	H	1.455842	0.001711	1.446238
H115	H	0.984256	-0.916897	0.433751
H116	H	1.484256	-0.416897	0.933751
H117	H	0.480464	-0.304708	0.453509
H118	H	0.980464	0.195292	0.953509
H119	H	1.106953	-0.887154	0.311135
H120	H	1.606953	-0.387154	0.811135
N121	N	0.942705	-0.512339	0.797262
N122	N	1.442705	-0.012339	1.297262
H123	H	0.911371	-0.546092	0.834779
H124	H	1.411371	-0.046092	1.334779
H125	H	0.910177	-0.478360	0.763898
H126	H	1.410177	0.021640	1.263898
N127	N	0.461123	-0.512622	0.279832
N128	N	0.961123	-0.012622	0.779832
H129	H	0.495636	-0.546454	0.251566
H130	H	0.995636	-0.046454	0.751566
H131	H	0.427509	-0.551146	0.311554
H132	H	0.927509	-0.051146	0.811554
N133	N	0.620876	-0.512628	0.279827
N134	N	1.120876	-0.012628	0.779827
H135	H	0.583372	-0.546464	0.251569
H136	H	1.083372	-0.046464	0.751569
H137	H	0.654279	-0.478759	0.244212
H138	H	1.154279	0.021241	0.744212
