data_functionalizedCrystal
_audit_creation_method	'MofGen! by Chris Wilmer'
_symmetry_space_group_name_H-M	'P1'
_symmetry_Int_Tables_number	1
_symmetry_cell_setting	triclinic
loop_
_symmetry_equiv_pos_as_xyz
  x,y,z
_cell_length_a	17.038275
_cell_length_b	17.019305
_cell_length_c	16.098547
_cell_angle_alpha	83.399209
_cell_angle_beta	92.939977
_cell_angle_gamma	87.243911
loop_
_atom_site_label
_atom_site_type_symbol
_atom_site_fract_x
_atom_site_fract_y
_atom_site_fract_z
O1	O	-1.033075	-0.175168	0.081699
O2	O	-0.805456	-0.172439	0.081532
O3	O	-0.926035	-0.059006	0.073376
O4	O	-0.912497	-0.288601	0.089854
O5	O	-0.933072	-0.052403	-0.065611
O6	O	-0.812493	-0.165836	-0.057456
O7	O	-1.040113	-0.168565	-0.057288
Zn8	Zn	-0.927420	-0.166152	-0.079439
Zn9	Zn	-0.918148	-0.174852	0.103683
O10	O	-0.919534	-0.281998	-0.049133
C11	C	-0.779857	-0.166656	0.011863
C12	C	-0.693097	-0.159251	0.011343
C13	C	-0.642677	-0.227243	0.016223
C14	C	-0.561158	-0.220279	0.015713
C15	C	-0.530061	-0.145323	0.010329
C16	C	-0.580488	-0.077326	0.005446
C17	C	-0.662005	-0.084290	0.005950
C18	C	-0.284415	-0.120720	0.008545
C19	C	-0.202891	-0.113761	0.008043
C20	C	-0.183567	-0.256714	0.018308
C21	C	-0.265086	-0.263672	0.018817
C22	C	-0.315506	-0.195675	0.013930
C23	C	-0.446736	-0.138203	0.009810
C24	C	-0.398830	-0.202795	0.014443
C25	C	-0.929179	-0.026182	0.001766
C26	C	-0.928055	0.061785	-0.004542
N27	N	-0.933754	-0.160215	-0.204415
C28	C	-0.065711	-0.174348	0.012386
C29	C	-0.152471	-0.181753	0.012923
C30	C	-0.923693	0.099508	0.068257
C31	C	-0.922632	0.182162	0.062328
C32	C	-0.925939	0.227092	-0.016400
C33	C	-0.930299	0.189363	-0.089204
C34	C	-0.931355	0.106710	-0.083274
C35	C	-0.922940	0.476830	-0.038095
C36	C	-0.921887	0.559489	-0.044019
C37	C	-0.914218	0.552282	0.107514
C38	C	-0.915278	0.469628	0.113436
C39	C	-0.919634	0.431906	0.040633
C40	C	-0.924857	0.311578	-0.022463
C41	C	-0.920710	0.347421	0.046696
C42	C	-0.916392	0.685178	0.022476
C43	C	-0.917524	0.597212	0.028779
N44	N	-0.911821	-0.180784	0.228658
C45	C	-0.882478	-0.208255	0.755452
C46	C	-0.886911	-0.204110	0.667965
C47	C	-0.942617	-0.151921	0.620612
C48	C	-0.993898	-0.103879	0.660751
C49	C	-0.989468	-0.108028	0.748236
C50	C	-0.958672	-0.136891	0.356282
C51	C	-0.963096	-0.132743	0.268791
C52	C	-0.856110	-0.232976	0.276011
C53	C	-0.851682	-0.237117	0.363498
C54	C	-0.902966	-0.189078	0.403629
C55	C	-0.947148	-0.147682	0.531187
C56	C	-0.898438	-0.193322	0.493054
H57	H	-0.703057	-0.028923	0.001977
N58	N	-1.020005	-0.079453	0.220394
N59	N	-0.998025	-0.026278	0.167909
H60	H	-1.038216	0.011350	0.133723
N61	N	-0.841528	-0.246629	0.541406
N62	N	-0.795742	-0.289517	0.505569
H63	H	-0.755546	-0.327163	0.539723
N64	N	-0.171124	-0.037191	0.002524
N65	N	-0.130763	-0.014583	-0.057488
H66	H	-0.108325	0.039491	-0.061385
H67	H	-1.031223	-0.068910	0.780911
H68	H	-0.921004	0.062932	0.132366
N69	N	-0.132053	-0.326158	0.023283
N70	N	-0.087386	-0.335434	-0.034443
H71	H	-0.051003	-0.384481	-0.030933
N72	N	-0.918192	0.220674	0.136704
N73	N	-0.970845	0.212607	0.187821
H74	H	-0.967711	0.239802	0.240356
N75	N	-0.928254	0.357473	-0.102881
N76	N	-0.986037	0.354247	-0.153212
H77	H	-0.988434	0.386661	-0.210009
H78	H	-0.845159	-0.243229	0.635290
N79	N	-0.925243	0.605388	-0.124441
N80	N	-0.870412	0.648727	-0.144375
H81	H	-0.872781	0.681145	-0.201169
H82	H	-0.992503	-0.105187	0.492624
H83	H	-0.667989	-0.288280	0.020607
H84	H	-1.000428	-0.097774	0.388950
H85	H	-0.918012	0.310836	0.110796
N86	N	-0.927382	0.438308	-0.112461
N87	N	-0.874738	0.446370	-0.163589
H88	H	-0.877875	0.419162	-0.216114
N89	N	-0.509667	-0.289739	0.020693
N90	N	-0.537441	-0.356659	0.025504
H91	H	-0.501076	-0.405720	0.029021
H92	H	-0.325458	-0.065351	0.004564
H93	H	-0.912586	0.433052	0.177545
H94	H	-0.290399	-0.324710	0.023211
H95	H	-0.910670	0.583004	0.166786
N96	N	-0.935822	0.068162	-0.157628
N97	N	-0.936764	-0.005635	-0.152324
H98	H	-0.939916	-0.032860	-0.204838
N99	N	-1.050807	-0.050585	0.612372
N100	N	-1.054759	-0.046890	0.534261
H101	H	-1.094953	-0.009251	0.500094
N102	N	-0.430592	-0.279358	0.019925
N103	N	-0.476898	-0.296406	-0.037239
H104	H	-0.499336	-0.350480	-0.033366
N105	N	-0.794780	-0.290441	0.411848
N106	N	-0.795860	-0.363216	0.407336
H107	H	-0.755669	-0.400876	0.441481
N108	N	-0.548713	-0.000765	-0.000062
N109	N	-0.475929	0.005445	-0.000510
H110	H	-0.453489	0.059517	-0.004399
H111	H	-0.814358	-0.272088	0.243329
N112	N	-0.414968	-0.061639	0.004302
N113	N	-0.374613	-0.039025	-0.055713
H114	H	-0.352174	0.015048	-0.059605
N115	N	-0.933668	0.235266	-0.169617
N116	N	-0.932726	0.309062	-0.174903
H117	H	-0.935107	0.341482	-0.231696
H118	H	-0.837114	-0.250749	0.794002
