data_functionalizedCrystal
_audit_creation_method	'MofGen! by Chris Wilmer'
_symmetry_space_group_name_H-M	'P1'
_symmetry_Int_Tables_number	1
_symmetry_cell_setting	triclinic
loop_
_symmetry_equiv_pos_as_xyz
  x,y,z
_cell_length_a	12.759401
_cell_length_b	19.077068
_cell_length_c	19.076919
_cell_angle_alpha	85.529249
_cell_angle_beta	87.717292
_cell_angle_gamma	92.328499
loop_
_atom_site_label
_atom_site_type_symbol
_atom_site_fract_x
_atom_site_fract_y
_atom_site_fract_z
Zn1	Zn	-1.563742	0.296654	-0.409816
Zn2	Zn	-1.563612	0.409807	-0.296661
Zn3	Zn	-1.395411	0.291941	-0.291950
Zn4	Zn	-1.380644	0.414507	-0.414508
O5	O	-1.475852	0.353227	-0.353234
O6	O	-1.710745	0.311669	-0.394814
O7	O	-1.547425	0.390233	-0.197389
O8	O	-1.423974	0.193917	-0.303650
O9	O	-1.710650	0.394802	-0.311679
O10	O	-1.547647	0.197379	-0.390246
O11	O	-1.423848	0.303637	-0.193928
O12	O	-1.246431	0.308194	-0.308200
O13	O	-1.398807	0.402813	-0.512533
O14	O	-1.235583	0.398243	-0.398243
O15	O	-1.533328	0.316226	-0.509086
O16	O	-1.533107	0.509080	-0.316229
O17	O	-1.398681	0.512533	-0.402811
C18	C	-1.202886	0.353218	-0.353220
C19	C	-1.086108	0.353232	-0.353231
C20	C	-1.464305	0.536386	-0.360556
C21	C	-1.459460	0.614743	-0.363712
C22	C	-1.749884	0.353237	-0.353249
C23	C	-1.866660	0.353241	-0.353255
C24	C	-1.025625	0.400186	-0.400048
C25	C	-0.915900	0.400189	-0.400062
C26	C	-0.927151	0.306282	-0.306436
C27	C	-1.036874	0.306276	-0.306425
C28	C	-0.759220	0.428834	-0.484184
C29	C	-0.698732	0.475799	-0.530995
C30	C	-0.729347	0.545027	-0.544452
C31	C	-0.820446	0.567305	-0.511087
C32	C	-0.880928	0.520344	-0.464270
C33	C	-0.850315	0.451106	-0.450827
C34	C	-1.193556	0.277638	-0.222303
C35	C	-1.254040	0.230680	-0.175483
C36	C	-1.223428	0.161450	-0.162019
C37	C	-1.132326	0.139174	-0.195371
C38	C	-1.071842	0.186133	-0.242192
C39	C	-1.102461	0.255362	-0.255657
C40	C	-1.464435	0.360570	-0.537103
C41	C	-1.459570	0.363699	-0.615457
C42	C	-1.487472	0.169354	-0.345899
C43	C	-1.492424	0.090998	-0.342773
C44	C	-1.527222	0.649735	-0.320153
C45	C	-1.522670	0.723360	-0.323125
C46	C	-1.450351	0.761991	-0.369653
C47	C	-1.382587	0.726994	-0.413217
C48	C	-1.387144	0.653370	-0.410247
C49	C	-1.429216	0.982377	-0.383367
C50	C	-1.424662	1.056006	-0.386332
C51	C	-1.564748	1.052367	-0.296241
C52	C	-1.569294	0.978742	-0.293273
C53	C	-1.501533	0.943751	-0.336839
N54	N	-1.445695	0.837248	-0.372691
N55	N	-1.506195	0.868496	-0.333804
C56	C	-1.527319	0.320090	-0.650474
C57	C	-1.522734	0.323027	-0.724096
C58	C	-1.450406	0.369577	-0.762699
C59	C	-1.382650	0.413188	-0.727677
C60	C	-1.387230	0.410246	-0.654056
C61	C	-1.429194	0.383204	-0.983074
C62	C	-1.424621	0.386144	-1.056699
C63	C	-1.564705	0.295982	-1.053113
C64	C	-1.569283	0.293048	-0.979492
C65	C	-1.501523	0.336656	-0.944475
N66	N	-1.445721	0.372582	-0.837953
N67	N	-1.506204	0.333646	-0.869223
C68	C	-1.487289	0.345862	-0.170078
C69	C	-1.492370	0.342535	-0.091717
H70	H	-1.065707	0.438419	-0.438162
Br71	Br	-1.614643	0.770848	-0.264012
Br72	Br	-1.284482	0.476360	-0.780066
H73	H	-0.845358	0.623681	-0.522041
H74	H	-1.628183	0.255143	-0.948066
Br75	Br	-1.284446	0.779421	-0.476369
Br76	Br	-1.667458	0.926320	-0.230134
Br77	Br	-1.656658	0.236801	-1.100639
H78	H	-1.365719	0.424052	-1.088128
Br79	Br	-0.647258	0.608763	-0.607985
Br80	Br	-1.625364	0.597314	-0.256998
H81	H	-1.365783	1.087458	-0.424233
Br82	Br	-1.337232	0.442386	-0.935561
H83	H	-0.955099	0.538482	-0.437105
Br84	Br	-1.295275	0.469428	-0.606532
H85	H	-0.624560	0.457654	-0.558161
Br86	Br	-1.656709	1.099859	-0.237123
H87	H	-0.734292	0.372460	-0.473238
Br88	Br	-0.860328	0.242559	-0.242917
H89	H	-0.997667	0.167989	-0.269354
Br90	Br	-1.090766	0.045219	-0.177093
H91	H	-1.577905	0.287518	-0.752604
H92	H	-1.272680	0.123218	-0.123888
Br93	Br	-1.377668	0.260916	-0.130204
H94	H	-1.218495	0.334010	-0.233268
Br95	Br	-1.295184	0.605879	-0.469369
Br96	Br	-1.337255	0.934899	-0.442493
H97	H	-1.586219	0.282186	-0.619048
