data_functionalizedCrystal
_audit_creation_method	'MofGen! by Chris Wilmer'
_symmetry_space_group_name_H-M	'P1'
_symmetry_Int_Tables_number	1
_symmetry_cell_setting	triclinic
loop_
_symmetry_equiv_pos_as_xyz
  x,y,z
_cell_length_a	12.759401
_cell_length_b	13.897448
_cell_length_c	12.759393
_cell_angle_alpha	89.967728
_cell_angle_beta	89.979062
_cell_angle_gamma	90.019217
loop_
_atom_site_label
_atom_site_type_symbol
_atom_site_fract_x
_atom_site_fract_y
_atom_site_fract_z
Zn1	Zn	1.606245	-0.383929	-0.594007
Zn2	Zn	1.606126	-0.545255	-0.418322
Zn3	Zn	1.430543	-0.383980	-0.418342
Zn4	Zn	1.430526	-0.545188	-0.593959
O5	O	1.518360	-0.464588	-0.506158
O6	O	1.753250	-0.405336	-0.570714
O7	O	1.582793	-0.523912	-0.271303
O8	O	1.453907	-0.248992	-0.441673
O9	O	1.753163	-0.523862	-0.441638
O10	O	1.582994	-0.248954	-0.570734
O11	O	1.453793	-0.405423	-0.271318
O12	O	1.283520	-0.405358	-0.441627
O13	O	1.453878	-0.523747	-0.740987
O14	O	1.283507	-0.523797	-0.570652
O15	O	1.582977	-0.405271	-0.741022
O16	O	1.582776	-0.680228	-0.441592
O17	O	1.453763	-0.680179	-0.570632
C18	C	1.245393	-0.464576	-0.506137
C19	C	1.128616	-0.464595	-0.506153
C20	C	1.073775	-0.526359	-0.573230
C21	C	0.964051	-0.526363	-0.573251
C22	C	0.964019	-0.402834	-0.439108
C23	C	1.073741	-0.402827	-0.439093
C24	C	1.518283	-0.715203	-0.506127
C25	C	1.518347	-0.822416	-0.506149
C26	C	1.518457	-1.018711	-0.506215
C27	C	1.518393	-0.909479	-0.506182
C28	C	1.792393	-0.464601	-0.506179
C29	C	1.909170	-0.464606	-0.506188
C30	C	1.518439	-0.464496	-0.780191
C31	C	1.518472	-0.464456	-0.896968
C32	C	1.518466	-0.212995	-0.506211
C33	C	1.518511	-0.105781	-0.506234
C34	C	1.585699	-0.402756	-0.951850
C35	C	1.585717	-0.402714	-1.061574
C36	C	1.451278	-0.526082	-1.061524
C37	C	1.451255	-0.526118	-0.951802
C38	C	1.518342	-0.464611	-0.233190
C39	C	1.518512	-0.464379	-0.116414
H40	H	0.919404	-0.576657	-0.627874
O41	O	0.910823	-0.342890	-0.373819
C42	C	0.937556	-0.363867	-0.269061
H43	H	1.017212	-0.400936	-0.266800
H44	H	0.875773	-0.413427	-0.233588
C45	C	0.844780	-0.224232	-0.208379
C46	C	0.942619	-0.269753	-0.205601
H47	H	0.847898	-0.166180	-0.169232
H48	H	0.826766	-0.210101	-0.278956
H49	H	0.793304	-0.265542	-0.178820
H50	H	0.994089	-0.228449	-0.235171
H51	H	0.960642	-0.283876	-0.135027
H52	H	1.396503	-0.576361	-0.907116
H53	H	1.118451	-0.576652	-0.627837
H54	H	1.118394	-0.352524	-0.384470
O55	O	1.651018	-0.342763	-0.898745
C56	C	1.710374	-0.288312	-0.970720
H57	H	1.667357	-0.284946	-1.048927
H58	H	1.790155	-0.323634	-0.982395
C59	C	1.778385	-0.189799	-0.831871
C60	C	1.725546	-0.185658	-0.927923
H61	H	1.787748	-0.126478	-0.805471
H62	H	1.738399	-0.226485	-0.783379
H63	H	1.844863	-0.219238	-0.841613
H64	H	1.659064	-0.156231	-0.918177
H65	H	1.765521	-0.148964	-0.976413
O66	O	1.385896	-0.586015	-1.114630
C67	C	1.326572	-0.640498	-1.042657
H68	H	1.322932	-0.601012	-0.964453
H69	H	1.365014	-0.713761	-1.030974
C70	C	1.219230	-0.702883	-1.181512
C71	C	1.214752	-0.654381	-1.085463
H72	H	1.150255	-0.711451	-1.207918
H73	H	1.259200	-0.666179	-1.230003
H74	H	1.251270	-0.763930	-1.171763
H75	H	1.182725	-0.593331	-1.095216
H76	H	1.174774	-0.691075	-1.036975
H77	H	1.640459	-0.352470	-1.106254
