data_functionalizedCrystal
_audit_creation_method	'MofGen! by Chris Wilmer'
_symmetry_space_group_name_H-M	'P1'
_symmetry_Int_Tables_number	1
_symmetry_cell_setting	triclinic
loop_
_symmetry_equiv_pos_as_xyz
  x,y,z
_cell_length_a	15.297475
_cell_length_b	16.959454
_cell_length_c	15.296720
_cell_angle_alpha	80.351722
_cell_angle_beta	88.382886
_cell_angle_gamma	80.323279
loop_
_atom_site_label
_atom_site_type_symbol
_atom_site_fract_x
_atom_site_fract_y
_atom_site_fract_z
Zn1	Zn	1.253421	-0.615181	0.726635
Zn2	Zn	1.753421	-0.115181	1.226635
Zn3	Zn	1.278688	-0.729000	0.580157
Zn4	Zn	1.778688	-0.229000	1.080157
Zn5	Zn	1.132298	-0.570776	0.554873
Zn6	Zn	1.632298	-0.070776	1.054873
Zn7	Zn	1.106914	-0.721230	0.701285
Zn8	Zn	1.606914	-0.221230	1.201285
O9	O	1.192830	-0.659047	0.640738
O10	O	1.692830	-0.159047	1.140738
O11	O	1.379352	-0.652115	0.728395
O12	O	1.879352	-0.152115	1.228395
O13	O	1.280466	-0.692679	0.454228
O14	O	1.780466	-0.192679	0.954228
O15	O	1.148414	-0.466067	0.577685
O16	O	1.648414	0.033933	1.077685
O17	O	1.397915	-0.735737	0.620778
O18	O	1.897915	-0.235737	1.120778
O19	O	1.237403	-0.498691	0.703878
O20	O	1.737403	0.001309	1.203878
O21	O	1.172914	-0.576432	0.435651
O22	O	1.672914	-0.076432	0.935651
O23	O	1.006352	-0.568898	0.553104
O24	O	1.506352	-0.068898	1.053104
O25	O	1.105151	-0.722495	0.827223
O26	O	1.605151	-0.222495	1.327223
O27	O	0.987702	-0.679437	0.660673
O28	O	1.487702	-0.179437	1.160673
O29	O	1.212790	-0.644581	0.845848
O30	O	1.712790	-0.144581	1.345848
O31	O	1.255853	-0.838569	0.596198
O32	O	1.755853	-0.338569	1.096198
O33	O	1.129651	-0.832860	0.685190
O34	O	1.629651	-0.332860	1.185190
C35	C	0.965244	-0.618506	0.601395
C36	C	1.465244	-0.118506	1.101395
C37	C	0.867878	-0.601185	0.584584
C38	C	1.367878	-0.101185	1.084584
C39	C	1.192759	-0.864398	0.640710
C40	C	1.692759	-0.364398	1.140710
C41	C	1.192804	-0.952266	0.640741
C42	C	1.692804	-0.452266	1.140741
C43	C	0.554738	-0.782854	0.760885
C44	C	1.054738	-0.282854	1.260885
C45	C	0.646218	-0.799134	0.776677
C46	C	1.146218	-0.299134	1.276677
C47	C	0.701637	-0.749648	0.728655
C48	C	1.201637	-0.249648	1.228655
C49	C	0.665567	-0.683879	0.664839
C50	C	1.165567	-0.183879	1.164839
C51	C	0.574078	-0.667601	0.649041
C52	C	1.074078	-0.167601	1.149041
C53	C	0.720978	-0.634395	0.616811
C54	C	1.220978	-0.134395	1.116811
C55	C	0.684908	-0.568627	0.552995
C56	C	1.184908	-0.068627	1.052995
C57	C	0.593428	-0.552351	0.537200
C58	C	1.093428	-0.052351	1.037200
C59	C	0.538009	-0.601837	0.585221
C60	C	1.038009	-0.101837	1.085221
C61	C	0.812467	-0.650673	0.632609
C62	C	1.312467	-0.150673	1.132609
C63	C	0.831808	-0.535421	0.520765
C64	C	1.331808	-0.035421	1.020765
C65	C	0.740327	-0.519141	0.504973
C66	C	1.240327	-0.019141	1.004973
C67	C	1.127199	-1.320817	0.687084
C68	C	1.627199	-0.820817	1.187084
C69	C	1.258690	-1.326729	0.594523
C70	C	1.758690	-0.826729	1.094523
C71	C	1.258660	-1.244176	0.594509
C72	C	1.758660	-0.744176	1.094509
C73	C	1.192899	-1.199940	0.640783
C74	C	1.692899	-0.699940	1.140783
C75	C	1.127167	-1.238256	0.687070
C76	C	1.627167	-0.738256	1.187070
C77	C	1.324386	-1.205852	0.548216
C78	C	1.824386	-0.705852	1.048216
C79	C	1.324359	-1.123295	0.548200
C80	C	1.824359	-0.623295	1.048200
C81	C	1.258601	-1.079058	0.594479
C82	C	1.758601	-0.579058	1.094479
C83	C	1.192866	-1.117379	0.640769
C84	C	1.692866	-0.617379	1.140769
C85	C	1.127105	-1.073143	0.687042
C86	C	1.627105	-0.573143	1.187042
C87	C	1.061373	-1.111464	0.733338
C88	C	1.561373	-0.611464	1.233338
C89	C	1.061408	-1.194019	0.733349
C90	C	1.561408	-0.694019	1.233349
C91	C	1.258566	-0.996503	0.594468
C92	C	1.758566	-0.496503	1.094468
C93	C	1.127072	-0.990582	0.687028
C94	C	1.627072	-0.490582	1.187028
C95	C	1.421305	-0.699746	0.680234
C96	C	1.921305	-0.199746	1.180234
C97	C	1.518668	-0.717090	0.697066
C98	C	2.018668	-0.217090	1.197066
C99	C	1.153320	-0.687624	0.869207
C100	C	1.653320	-0.187624	1.369207
C101	C	1.136484	-0.699803	0.966567
C102	C	1.636484	-0.199803	1.466567
C103	C	1.192922	-0.452900	0.640788
C104	C	1.692922	0.047100	1.140788
C105	C	1.192961	-0.365053	0.640810
C106	C	1.692961	0.134947	1.140810
C107	C	1.232237	-0.630532	0.413166
C108	C	1.732237	-0.130532	0.913166
C109	C	1.249243	-0.618162	0.315836
C110	C	1.749243	-0.118162	0.815836
C111	C	1.313198	-0.571876	1.279796
C112	C	1.813198	-0.071876	1.779796
C113	C	1.329022	-0.560436	1.188322
C114	C	1.829022	-0.060436	1.688322
C115	C	1.280889	-0.595276	1.132879
C116	C	1.780889	-0.095276	1.632879
C117	C	1.216928	-0.641559	1.168918
C118	C	1.716928	-0.141559	1.668918
C119	C	1.201107	-0.653005	1.260401
C120	C	1.701107	-0.153005	1.760401
C121	C	1.168798	-0.676406	1.113484
C122	C	1.668798	-0.176406	1.613484
C123	C	1.104838	-0.722688	1.149523
C124	C	1.604838	-0.222688	1.649523
C125	C	1.089019	-0.734131	1.240998
C126	C	1.589019	-0.234131	1.740998
C127	C	1.137153	-0.699291	1.296441
C128	C	1.637153	-0.199291	1.796441
C129	C	1.184620	-0.664960	1.022001
C130	C	1.684620	-0.164960	1.522001
C131	C	1.072529	-0.746089	1.002606
C132	C	1.572529	-0.246089	1.502606
C133	C	1.056705	-0.757528	1.094080
C134	C	1.556705	-0.257528	1.594080
H135	H	0.776125	-0.762907	0.741517
H136	H	1.276125	-0.262907	1.241517
H137	H	1.377920	-1.241873	0.510535
H138	H	1.877920	-0.741873	1.010535
O139	O	0.554518	-0.481419	0.468369
O140	O	1.054518	0.018581	0.968369
H141	H	0.608419	-0.449737	0.437635
H142	H	1.108419	0.050263	0.937635
O143	O	0.987723	-0.807446	1.132960
O144	O	1.487723	-0.307446	1.632960
H145	H	0.956901	-0.829747	1.079045
H146	H	1.456901	-0.329747	1.579045
H147	H	1.073523	-0.954571	0.724714
H148	H	1.573523	-0.454571	1.224714
H149	H	0.841826	-0.704223	0.684570
H150	H	1.341826	-0.204223	1.184570
H151	H	1.007826	-1.075436	0.771009
H152	H	1.507826	-0.575436	1.271009
H153	H	1.377882	-1.092099	0.510505
H154	H	1.877882	-0.592099	1.010505
H155	H	0.710946	-0.465591	0.453013
H156	H	1.210946	0.034409	0.953013
O157	O	1.120085	-0.711626	1.395106
O158	O	1.620085	-0.211626	1.895106
H159	H	1.067523	-0.749660	1.410854
H160	H	1.567523	-0.249660	1.910854
H161	H	1.073684	-1.352022	0.724779
H162	H	1.573684	-0.852022	1.224779
O163	O	0.494969	-0.836223	0.812676
O164	O	0.994969	-0.336223	1.312676
H165	H	0.425296	-0.813851	0.790972
H166	H	0.925296	-0.313851	1.290972
O167	O	1.020035	-0.784048	1.279874
O168	O	1.520035	-0.284048	1.779874
H169	H	0.989215	-0.806345	1.225955
H170	H	1.489215	-0.306345	1.725955
O171	O	1.253602	-0.615043	0.983141
O172	O	1.753602	-0.115043	1.483141
H173	H	1.256527	-0.612942	0.910217
H174	H	1.756527	-0.112942	1.410217
H175	H	1.312080	-0.965304	0.556770
H176	H	1.812080	-0.465304	1.056770
O177	O	0.685116	-0.870059	0.845511
O178	O	1.185116	-0.370059	1.345511
H179	H	0.670149	-0.927052	0.827339
H180	H	1.170149	-0.427052	1.327339
H181	H	1.033337	-0.774460	0.957464
H182	H	1.533337	-0.274460	1.457464
H183	H	0.463516	-0.588584	0.572369
H184	H	0.963516	-0.088584	1.072369
H185	H	0.876931	-0.495126	0.481661
H186	H	1.376931	0.004874	0.981661
O187	O	1.329636	-1.374441	0.544642
O188	O	1.829636	-0.874441	1.044642
H189	H	1.318625	-1.438289	0.552442
H190	H	1.818625	-0.938289	1.052442
H191	H	1.007892	-1.225228	0.771039
H192	H	1.507892	-0.725228	1.271039
O193	O	1.297944	-0.582933	1.034216
O194	O	1.797944	-0.082933	1.534216
H195	H	1.350498	-0.544890	1.018468
H196	H	1.850498	-0.044890	1.518468
O197	O	1.398003	-0.510523	1.149450
O198	O	1.898003	-0.010523	1.649450
H199	H	1.428812	-0.488214	1.203368
H200	H	1.928812	0.011786	1.703368
O201	O	1.365087	-0.534277	1.339587
O202	O	1.865087	-0.034277	1.839587
H203	H	1.343327	-0.550000	1.409248
H204	H	1.843327	-0.050000	1.909248
