data_functionalizedCrystal
_audit_creation_method	'MofGen! by Chris Wilmer'
_symmetry_space_group_name_H-M	'P1'
_symmetry_Int_Tables_number	1
_symmetry_cell_setting	triclinic
loop_
_symmetry_equiv_pos_as_xyz
  x,y,z
_cell_length_a	10.686220
_cell_length_b	10.686285
_cell_length_c	19.805399
_cell_angle_alpha	85.610534
_cell_angle_beta	94.351891
_cell_angle_gamma	90.345594
loop_
_atom_site_label
_atom_site_type_symbol
_atom_site_fract_x
_atom_site_fract_y
_atom_site_fract_z
Zn1	Zn	1.956148	-0.352101	-0.287865
Zn2	Zn	1.972154	-0.561882	-0.165413
Zn3	Zn	1.746385	-0.368250	-0.182650
Zn4	Zn	1.762473	-0.577923	-0.286521
O5	O	1.859290	-0.465039	-0.230612
O6	O	2.133809	-0.366457	-0.264971
O7	O	1.942170	-0.536242	-0.072983
O8	O	1.760779	-0.190565	-0.204383
O9	O	2.145569	-0.520583	-0.175006
O10	O	1.914891	-0.178700	-0.281684
O11	O	1.776299	-0.393981	-0.085646
O12	O	1.572981	-0.409535	-0.203080
O13	O	1.788199	-0.547922	-0.381416
O14	O	1.584801	-0.563581	-0.279393
O15	O	1.930491	-0.382012	-0.382404
O16	O	1.957770	-0.739553	-0.173702
O17	O	1.803719	-0.751338	-0.262679
C18	C	1.533376	-0.490052	-0.242961
C19	C	1.393951	-0.500783	-0.248259
C20	C	1.884261	-0.790959	-0.216188
C21	C	1.895059	-0.930381	-0.210035
C22	C	2.186477	-0.439929	-0.218215
C23	C	2.325904	-0.429229	-0.212932
C24	C	1.859354	-0.464955	-0.407156
C25	C	1.859382	-0.464919	-0.482388
C26	C	1.834255	-0.137844	-0.245107
C27	C	1.823587	0.001588	-0.251283
C28	C	1.933474	-0.378525	-0.518248
C29	C	1.933485	-0.378488	-0.588938
C30	C	1.859408	-0.464851	-0.623766
C31	C	1.785306	-0.551249	-0.587901
C32	C	1.785290	-0.551279	-0.517213
C33	C	1.785368	-0.551126	-0.872977
C34	C	1.785393	-0.551092	-0.943670
C35	C	1.933562	-0.378335	-0.944701
C36	C	1.933546	-0.378365	-0.874013
C37	C	1.859440	-0.464758	-0.838156
C38	C	1.859429	-0.464796	-0.761506
C39	C	1.859425	-0.464820	-0.700413
C40	C	1.859291	-0.465027	-0.054757
C41	C	1.859480	-0.464691	0.020469
H42	H	1.754137	-0.949997	-0.291305
C43	C	1.705093	-0.644804	-0.981604
C44	C	1.721004	-0.626308	-1.051181
C45	C	1.647075	-0.712621	-1.086146
H46	H	1.619356	-0.633000	-0.974109
H47	H	1.729908	-0.727712	-0.965626
H48	H	1.696182	-0.543419	-1.067154
H49	H	1.806726	-0.638122	-1.058697
H50	H	1.671890	-0.795529	-1.070169
H51	H	1.561342	-0.700810	-1.078646
H52	H	1.657869	-0.700091	-1.133357
C53	C	1.987680	-0.995161	-0.156751
C54	C	1.980392	-1.125202	-0.161059
C55	C	2.065725	-1.184915	-0.112002
H56	H	1.967878	-0.975381	-0.112843
H57	H	2.070323	-0.967245	-0.164468
H58	H	1.897767	-1.153107	-0.153337
H59	H	2.000206	-1.145018	-0.204956
H60	H	2.148367	-1.157000	-0.119719
H61	H	2.045915	-1.165126	-0.068097
H62	H	2.060799	-1.273153	-0.114923
C63	C	2.014145	-0.284464	-0.983510
C64	C	2.079041	-0.208865	-0.937875
C65	C	2.153298	-0.122394	-0.973598
H66	H	1.962118	-0.233349	-1.015324
H67	H	2.072543	-0.328210	-1.006876
H68	H	2.020650	-0.165122	-0.914521
H69	H	2.131091	-0.259944	-0.906061
H70	H	2.211697	-0.166141	-0.996964
H71	H	2.101262	-0.071289	-1.005410
H72	H	2.197348	-0.071098	-0.942640
C73	C	1.705009	-0.644956	-0.625832
C74	C	1.720906	-0.626464	-0.695411
C75	C	1.646969	-0.712778	-0.730370
H76	H	1.619273	-0.633152	-0.618331
H77	H	1.729826	-0.727864	-0.609854
H78	H	1.696081	-0.543576	-0.711383
H79	H	1.806625	-0.638279	-0.702931
H80	H	1.671786	-0.795686	-0.714393
H81	H	1.561238	-0.700966	-0.722864
H82	H	1.657754	-0.700250	-0.777582
H83	H	1.345544	-0.570254	-0.282556
C84	C	1.390268	-0.336404	-0.167246
C85	C	1.348956	-0.214744	-0.188768
C86	C	1.408207	-0.129206	-0.146693
H87	H	1.478549	-0.341087	-0.169604
H88	H	1.370180	-0.356214	-0.121745
H89	H	1.369053	-0.194940	-0.234257
H90	H	1.260683	-0.210020	-0.186407
H91	H	1.388119	-0.149016	-0.101191
H92	H	1.496486	-0.133901	-0.149054
H93	H	1.380177	-0.046652	-0.161285
H94	H	1.993801	-0.308202	-0.489896
C95	C	2.014069	-0.284635	-0.627745
C96	C	2.078971	-0.209037	-0.582112
C97	C	2.153233	-0.122573	-0.617836
H98	H	1.962045	-0.233519	-0.659560
H99	H	2.072464	-0.328386	-0.651110
H100	H	2.020583	-0.165288	-0.558758
H101	H	2.131018	-0.260118	-0.550297
H102	H	2.211628	-0.166325	-0.641201
H103	H	2.101200	-0.071466	-0.649649
H104	H	2.197287	-0.071278	-0.586879
C105	C	1.704828	-0.645237	-0.478394
C106	C	1.639992	-0.720895	-0.524020
C107	C	1.565873	-0.807478	-0.488283
H108	H	1.646390	-0.601620	-0.455004
H109	H	1.756981	-0.696288	-0.446596
H110	H	1.587843	-0.669851	-0.555805
H111	H	1.698399	-0.764540	-0.547411
H112	H	1.618025	-0.858529	-0.456486
H113	H	1.507442	-0.763850	-0.464895
H114	H	1.521881	-0.858829	-0.519234
C115	C	2.013750	-0.284521	-0.836132
C116	C	1.936546	-0.209613	-0.801796
C117	C	2.010378	-0.123148	-0.766890
H118	H	2.057888	-0.232939	-0.867546
H119	H	2.072058	-0.328271	-0.804321
H120	H	1.878261	-0.165867	-0.833604
H121	H	1.892408	-0.261161	-0.770371
H122	H	2.068686	-0.166898	-0.735079
H123	H	2.054513	-0.071575	-0.798308
H124	H	1.958008	-0.072321	-0.743584
C125	C	1.704856	-0.645046	-0.834171
C126	C	1.640007	-0.720683	-0.879803
C127	C	1.565826	-0.807221	-0.844077
H128	H	1.646425	-0.601392	-0.810796
H129	H	1.756968	-0.696115	-0.802363
H130	H	1.587900	-0.669621	-0.911599
H131	H	1.698408	-0.764365	-0.903180
H132	H	1.617937	-0.858290	-0.812268
H133	H	1.507401	-0.763556	-0.820702
H134	H	1.521826	-0.858558	-0.875032
