data_functionalizedCrystal
_audit_creation_method	'MofGen! by Chris Wilmer'
_symmetry_space_group_name_H-M	'P1'
_symmetry_Int_Tables_number	1
_symmetry_cell_setting	triclinic
loop_
_symmetry_equiv_pos_as_xyz
  x,y,z
_cell_length_a	27.732048
_cell_length_b	27.732048
_cell_length_c	9.130313
_cell_angle_alpha	89.994799
_cell_angle_beta	90.010875
_cell_angle_gamma	82.642655
loop_
_atom_site_label
_atom_site_type_symbol
_atom_site_fract_x
_atom_site_fract_y
_atom_site_fract_z
O1	O	0.057518	0.640924	0.121626
O2	O	0.557518	1.140924	0.621626
O3	O	0.066264	0.500131	0.121673
O4	O	0.566264	1.000131	0.621673
O5	O	-0.008506	0.574900	0.121620
O6	O	0.491494	1.074900	0.621620
O7	O	0.132288	0.566155	0.121679
O8	O	0.632288	1.066155	0.621679
O9	O	-0.008510	0.574900	-0.121979
O10	O	0.491490	1.074900	0.378021
O11	O	0.066259	0.500130	-0.121926
O12	O	0.566259	1.000130	0.378074
O13	O	0.057514	0.640924	-0.121973
O14	O	0.557514	1.140924	0.378027
Cu15	Cu	0.061886	0.570527	-0.144192
Cu16	Cu	0.561886	1.070527	0.355808
Cu17	Cu	0.061891	0.570527	0.143892
Cu18	Cu	0.561891	1.070527	0.643892
O19	O	0.132283	0.566154	-0.121920
O20	O	0.632283	1.066154	0.378080
C21	C	0.066078	0.482124	-0.000121
C22	C	0.566078	0.982124	0.499879
C23	C	0.065525	0.428469	-0.000105
C24	C	0.565525	0.928469	0.499895
C25	C	0.106229	0.089654	-0.000151
C26	C	0.606229	0.589654	0.499849
C27	C	0.104178	-0.112006	-0.000165
C28	C	0.604178	0.387994	0.499835
O29	O	0.141398	-0.143262	-0.000213
O30	O	0.641398	0.356738	0.499787
N31	N	0.059843	-0.131130	-0.000181
N32	N	0.559843	0.368870	0.499819
C33	C	0.016017	-0.099835	-0.000203
C34	C	0.516017	0.400165	0.499797
O35	O	-0.021740	-0.120728	-0.000232
O36	O	0.478260	0.379272	0.499768
C37	C	0.018068	0.101824	-0.000199
C38	C	0.518068	0.601824	0.499801
C39	C	0.062407	0.120944	-0.000169
C40	C	0.562407	0.620944	0.499831
C41	C	0.150563	0.108775	-0.000122
C42	C	0.650563	0.608775	0.499878
C43	C	0.151075	0.159187	-0.000111
C44	C	0.651075	0.659187	0.499889
C45	C	0.107253	0.190477	-0.000128
C46	C	0.607253	0.690477	0.499872
C47	C	0.062919	0.171356	-0.000157
C48	C	0.562919	0.671356	0.499843
C49	C	-0.025757	0.133117	-0.000232
C50	C	0.474243	0.633117	0.499768
C51	C	-0.025240	0.183535	-0.000235
C52	C	0.474760	0.683535	0.499765
C53	C	0.019098	0.202655	-0.000204
C54	C	0.519098	0.702655	0.499796
C55	C	0.019609	0.253059	-0.000163
C56	C	0.519609	0.753059	0.499837
N57	N	0.063944	0.272183	-0.000148
N58	N	0.563944	0.772183	0.499852
C59	C	0.107766	0.240892	-0.000130
C60	C	0.607766	0.740892	0.499870
C61	C	0.014943	-0.205709	-0.000202
C62	C	0.514943	0.294291	0.499798
C63	C	0.014430	-0.256124	-0.000200
C64	C	0.514430	0.243876	0.499800
C65	C	0.102591	-0.268291	-0.000165
C66	C	0.602591	0.231709	0.499835
C67	C	0.103104	-0.217876	-0.000156
C68	C	0.603104	0.282124	0.499844
C69	C	0.059278	-0.186585	-0.000186
C70	C	0.559278	0.313415	0.499814
C71	C	0.108839	0.346761	-0.000105
C72	C	0.608839	0.846761	0.499895
C73	C	0.109347	0.397178	-0.000087
C74	C	0.609347	0.897178	0.499913
C75	C	0.021186	0.409341	-0.000130
C76	C	0.521186	0.909341	0.499870
C77	C	0.020678	0.358929	-0.000140
C78	C	0.520678	0.858929	0.499860
C79	C	0.064508	0.327639	-0.000132
C80	C	0.564508	0.827639	0.499868
O81	O	-0.017592	0.284343	-0.000132
O82	O	0.482408	0.784343	0.499868
O83	O	0.145518	0.261794	-0.000133
O84	O	0.645518	0.761794	0.499867
C85	C	0.105716	0.039242	-0.000163
C86	C	0.605716	0.539242	0.499837
C87	C	0.061382	0.020120	-0.000192
C88	C	0.561382	0.520120	0.499808
C89	C	0.017560	0.051411	-0.000209
C90	C	0.517560	0.551411	0.499791
C91	C	0.060869	-0.030294	-0.000190
C92	C	0.560869	0.469706	0.499810
C93	C	0.104691	-0.061585	-0.000172
C94	C	0.604691	0.438415	0.499828
C95	C	0.149026	-0.042461	-0.000156
C96	C	0.649026	0.457539	0.499844
C97	C	0.149539	0.007951	-0.000145
C98	C	0.649539	0.507951	0.499855
C99	C	-0.026775	0.032287	-0.000225
C100	C	0.473225	0.532287	0.499775
C101	C	-0.027284	-0.018125	-0.000235
C102	C	0.472716	0.481875	0.499765
C103	C	0.016538	-0.049416	-0.000217
C104	C	0.516538	0.450584	0.499783
C105	C	-0.026515	0.574716	-0.000183
C106	C	0.473485	1.074716	0.499817
C107	C	-0.080170	0.574164	-0.000195
C108	C	0.419830	1.074164	0.499805
C109	C	-0.418985	0.614867	-0.000133
C110	C	0.081015	1.114867	0.499867
C111	C	-0.620645	0.612816	-0.000112
C112	C	-0.120645	1.112816	0.499888
O113	O	-0.651900	0.650037	-0.000060
O114	O	-0.151900	1.150037	0.499940
N115	N	-0.639768	0.568481	-0.000099
N116	N	-0.139768	1.068481	0.499901
C117	C	-0.608474	0.524656	-0.000081
C118	C	-0.108474	1.024656	0.499919
O119	O	-0.629367	0.486899	-0.000055
O120	O	-0.129367	0.986899	0.499945
C121	C	-0.406815	0.526707	-0.000092
C122	C	0.093185	1.026707	0.499908
C123	C	-0.387694	0.571045	-0.000120
C124	C	0.112306	1.071045	0.499880
C125	C	-0.399864	0.659202	-0.000160
C126	C	0.100136	1.159202	0.499840
C127	C	-0.349452	0.659714	-0.000173
C128	C	0.150548	1.159714	0.499827
C129	C	-0.318161	0.615892	-0.000160
C130	C	0.181839	1.115892	0.499840
C131	C	-0.337282	0.571557	-0.000133
C132	C	0.162718	1.071557	0.499867
C133	C	-0.375521	0.482882	-0.000064
C134	C	0.124479	0.982882	0.499936
C135	C	-0.325104	0.483399	-0.000063
C136	C	0.174896	0.983399	0.499937
C137	C	-0.305983	0.527737	-0.000091
C138	C	0.194017	1.027737	0.499909
C139	C	-0.255580	0.528248	-0.000133
C140	C	0.244420	1.028248	0.499867
N141	N	-0.236456	0.572583	-0.000147
N142	N	0.263544	1.072583	0.499853
C143	C	-0.267747	0.616405	-0.000160
C144	C	0.232253	1.116405	0.499840
C145	C	-0.714348	0.523582	-0.000079
C146	C	-0.214348	1.023582	0.499921
C147	C	-0.764762	0.523069	-0.000079
C148	C	-0.264762	1.023069	0.499921
C149	C	-0.776930	0.611230	-0.000107
C150	C	-0.276930	1.111230	0.499893
C151	C	-0.726514	0.611742	-0.000117
C152	C	-0.226514	1.111742	0.499883
C153	C	-0.695224	0.567917	-0.000092
C154	C	-0.195224	1.067917	0.499908
C155	C	-0.161878	0.617477	-0.000189
C156	C	0.338122	1.117477	0.499811
C157	C	-0.111461	0.617986	-0.000208
C158	C	0.388539	1.117986	0.499792
C159	C	-0.099298	0.529825	-0.000172
C160	C	0.400702	1.029825	0.499828
C161	C	-0.149710	0.529316	-0.000161
C162	C	0.350290	1.029316	0.499839
C163	C	-0.180999	0.573147	-0.000164
C164	C	0.319001	1.073147	0.499836
O165	O	-0.224296	0.491047	-0.000169
O166	O	0.275704	0.991047	0.499831
O167	O	-0.246844	0.654156	-0.000154
O168	O	0.253156	1.154156	0.499846
C169	C	-0.469397	0.614355	-0.000120
C170	C	0.030603	1.114355	0.499880
C171	C	-0.488518	0.570021	-0.000094
C172	C	0.011482	1.070021	0.499906
C173	C	-0.457228	0.526198	-0.000080
C174	C	0.042772	1.026198	0.499920
C175	C	-0.538933	0.569508	-0.000094
C176	C	-0.038933	1.069508	0.499906
C177	C	-0.570223	0.613330	-0.000107
C178	C	-0.070223	1.113330	0.499893
C179	C	-0.551100	0.657665	-0.000120
C180	C	-0.051100	1.157665	0.499880
C181	C	-0.500688	0.658177	-0.000133
C182	C	-0.000688	1.158177	0.499867
C183	C	-0.476351	0.481863	-0.000067
C184	C	0.023649	0.981863	0.499933
C185	C	-0.526764	0.481355	-0.000056
C186	C	-0.026764	0.981355	0.499944
C187	C	-0.558054	0.525177	-0.000069
C188	C	-0.058054	1.025177	0.499931
C189	C	0.150292	0.566338	-0.000113
C190	C	0.650292	1.066338	0.499887
C191	C	0.203947	0.566891	-0.000092
C192	C	0.703947	1.066891	0.499908
C193	C	0.057699	0.658931	-0.000176
C194	C	0.557699	1.158931	0.499824
C195	C	0.058252	0.712586	-0.000182
C196	C	0.558252	1.212586	0.499818
N197	N	0.061892	0.570528	0.346515
N198	N	0.561892	1.070528	0.846515
C199	C	0.028847	0.603696	0.423143
C200	C	0.528847	1.103696	0.923143
C201	C	0.028845	0.603697	0.576480
C202	C	0.528845	1.103697	1.076480
C203	C	0.094933	0.537358	0.576546
C204	C	0.594933	1.037358	1.076546
C205	C	0.094937	0.537359	0.423212
C206	C	0.594937	1.037359	0.923212
C207	C	-0.004198	0.636864	0.346446
C208	C	0.495802	1.136864	0.846446
C209	C	-0.037246	0.670034	0.423075
C210	C	0.462754	1.170034	0.923075
C211	C	-0.037248	0.670035	0.576412
C212	C	0.462752	1.170035	1.076412
C213	C	-0.004203	0.636866	0.653120
C214	C	0.495797	1.136866	1.153120
N215	N	0.061885	0.570527	0.653185
N216	N	0.561885	1.070527	1.153185
H217	H	-0.014492	0.434827	-0.000139
H218	H	0.485508	0.934827	0.499861
H219	H	0.121846	0.510352	0.360820
H220	H	0.621846	1.010352	0.860820
H221	H	-0.073812	0.494146	-0.000167
H222	H	0.426188	0.994146	0.499833
H223	H	-0.020747	-0.180236	-0.000226
H224	H	0.479253	0.319764	0.499774
H225	H	-0.485125	0.694282	-0.000156
H226	H	0.014875	1.194282	0.499844
H227	H	-0.064148	0.697042	0.360611
H228	H	0.435852	1.197042	0.860611
H229	H	-0.450879	0.446177	-0.000053
H230	H	0.049121	0.946177	0.499947
H231	H	-0.710950	0.647846	-0.000139
H232	H	-0.210950	1.147846	0.499861
H233	H	0.145454	0.412743	-0.000061
H234	H	0.645454	0.912743	0.499939
H235	H	-0.004205	0.636873	0.777977
H236	H	0.495795	1.136873	1.277977
H237	H	-0.576585	0.693347	-0.000137
H238	H	-0.076585	1.193347	0.499863
H239	H	-0.004200	0.636865	0.221591
H240	H	0.495800	1.136865	0.721591
H241	H	0.121837	0.510352	0.639012
H242	H	0.621837	1.010352	1.139012
H243	H	-0.064154	0.697047	0.638801
H244	H	0.435846	1.197047	1.138801
H245	H	-0.780325	0.486964	-0.000081
H246	H	-0.280325	0.986964	0.499919
H247	H	0.144530	0.321291	-0.000103
H248	H	0.644530	0.821291	0.499897
H249	H	-0.060929	0.209009	-0.000260
H250	H	0.439071	0.709009	0.499740
H251	H	0.187180	0.174750	-0.000085
H252	H	0.687180	0.674750	0.499915
H253	H	-0.542327	0.445246	-0.000045
H254	H	-0.042327	0.945246	0.499955
H255	H	0.186251	0.083302	-0.000113
H256	H	0.686251	0.583302	0.499887
H257	H	0.138273	-0.293777	-0.000151
H258	H	0.638273	0.206223	0.499849
H259	H	0.139207	-0.202311	-0.000139
H260	H	0.639207	0.297689	0.499861
H261	H	-0.021674	-0.271687	-0.000202
H262	H	0.478326	0.228313	0.499798
H263	H	-0.061861	0.117558	-0.000258
H264	H	0.438139	0.617558	0.499742
H265	H	0.185643	0.023514	-0.000122
H266	H	0.685643	0.523514	0.499878
H267	H	-0.015426	0.343360	-0.000143
H268	H	0.484574	0.843360	0.499857
H269	H	0.184708	-0.067947	-0.000136
H270	H	0.684708	0.432053	0.499864
H271	H	-0.425336	0.694889	-0.000165
H272	H	0.074664	1.194889	0.499835
H273	H	-0.802415	0.646911	-0.000118
H274	H	-0.302415	1.146911	0.499882
H275	H	-0.063392	-0.033688	-0.000248
H276	H	0.436608	0.466312	0.499752
H277	H	-0.062462	0.057760	-0.000243
H278	H	0.437538	0.557760	0.499757
H279	H	-0.095896	0.654093	-0.000235
H280	H	0.404104	1.154093	0.499765
H281	H	-0.187348	0.653168	-0.000186
H282	H	0.312652	1.153168	0.499814
H283	H	-0.688875	0.487892	-0.000058
H284	H	-0.188875	0.987892	0.499942
H285	H	-0.333889	0.695819	-0.000190
H286	H	0.166111	1.195819	0.499810
H287	H	-0.391080	0.446777	-0.000032
H288	H	0.108920	0.946777	0.499968
H289	H	-0.165279	0.493213	-0.000179
H290	H	0.334721	0.993213	0.499821
H291	H	-0.299629	0.447710	-0.000040
H292	H	0.200371	0.947710	0.499960
