data_functionalizedCrystal
_audit_creation_method	'MofGen! by Chris Wilmer'
_symmetry_space_group_name_H-M	'P1'
_symmetry_Int_Tables_number	1
_symmetry_cell_setting	triclinic
loop_
_symmetry_equiv_pos_as_xyz
  x,y,z
_cell_length_a	19.805407
_cell_length_b	19.805405
_cell_length_c	19.805407
_cell_angle_alpha	90.012351
_cell_angle_beta	90.010057
_cell_angle_gamma	90.028666
loop_
_atom_site_label
_atom_site_type_symbol
_atom_site_fract_x
_atom_site_fract_y
_atom_site_fract_z
Zn1	Zn	1.034665	-0.269539	0.382739
Zn2	Zn	1.034600	-0.382699	0.269553
Zn3	Zn	0.921500	-0.269533	0.269562
Zn4	Zn	0.921443	-0.382695	0.382698
O5	O	0.978052	-0.326117	0.326138
O6	O	1.129373	-0.284554	0.367738
O7	O	1.019594	-0.367687	0.174837
O8	O	0.936563	-0.174818	0.284596
O9	O	1.129325	-0.367692	0.284581
O10	O	1.019705	-0.174822	0.367747
O11	O	0.936500	-0.284544	0.174844
O12	O	0.826776	-0.284541	0.284556
O13	O	0.936465	-0.367686	0.477420
O14	O	0.826734	-0.367680	0.367677
O15	O	1.019649	-0.284550	0.477450
O16	O	1.019538	-0.477415	0.284541
O17	O	0.936402	-0.477412	0.367668
C18	C	0.802196	-0.326110	0.326114
C19	C	0.726964	-0.326123	0.326119
C20	C	0.977975	-0.501973	0.326113
C21	C	0.978004	-0.577205	0.326126
C22	C	0.265201	-0.282908	0.369531
C23	C	0.335890	-0.282909	0.369526
C24	C	0.371202	-0.326127	0.326160
C25	C	0.335822	-0.369352	0.282801
C26	C	0.265135	-0.369353	0.282810
C27	C	0.620896	-0.369346	0.282765
C28	C	0.691588	-0.369340	0.282758
C29	C	0.691650	-0.282902	0.369481
C30	C	0.620963	-0.282904	0.369490
C31	C	0.585589	-0.326131	0.326134
C32	C	0.508941	-0.326130	0.326140
C33	C	0.447849	-0.326125	0.326149
C34	C	1.021270	-0.612493	0.369456
C35	C	1.021294	-0.683181	0.369469
C36	C	0.978055	-0.718580	0.326147
C37	C	0.934784	-0.683287	0.282814
C38	C	0.934757	-0.612600	0.282806
C39	C	0.934893	-0.968361	0.282849
C40	C	0.934925	-1.039053	0.282860
C41	C	1.021430	-1.038942	0.369512
C42	C	1.021403	-0.968255	0.369503
C43	C	0.978130	-0.932968	0.326174
C44	C	0.978103	-0.856319	0.326162
C45	C	0.978085	-0.795228	0.326155
C46	C	1.154595	-0.326124	0.326163
C47	C	1.229827	-0.326128	0.326174
C48	C	0.978058	-0.326118	0.502681
C49	C	0.978060	-0.326119	0.577913
C50	C	0.978148	-0.149574	0.326177
C51	C	0.978189	-0.074342	0.326194
C52	C	1.021369	-0.282837	0.613274
C53	C	1.021363	-0.282835	0.683962
C54	C	0.978052	-0.326119	0.719288
C55	C	0.934738	-0.369402	0.683922
C56	C	0.934741	-0.369401	0.613235
C57	C	0.934725	-0.369410	0.968996
C58	C	0.934727	-0.369410	1.039688
C59	C	1.021347	-0.282845	1.039723
C60	C	1.021350	-0.282843	0.969035
C61	C	0.978034	-0.326124	0.933676
C62	C	0.978040	-0.326124	0.857027
C63	C	0.978049	-0.326122	0.795935
C64	C	0.978039	-0.326129	1.150282
C65	C	0.978033	-0.326124	1.075050
H66	H	0.236455	-0.247710	0.404840
H67	H	0.720337	-0.404536	0.247443
H68	H	0.899455	-0.404659	1.068448
C69	C	0.581994	-0.416886	0.235067
H70	H	0.613150	-0.442617	0.209234
H71	H	0.554411	-0.446421	0.260905
H72	H	0.554424	-0.390943	0.205623
C73	C	0.887104	-0.417010	0.574335
H74	H	0.893303	-0.410805	0.527177
H75	H	0.896981	-0.462488	0.585909
H76	H	0.841630	-0.407095	0.585913
H77	H	0.592215	-0.247709	0.404800
H78	H	0.364579	-0.404543	0.247494
C79	C	0.226223	-0.416894	0.235116
H80	H	0.257377	-0.442629	0.209283
H81	H	0.198642	-0.446425	0.260959
H82	H	0.198652	-0.390953	0.205671
H83	H	0.899465	-0.404662	0.940214
C84	C	0.887356	-1.077994	0.235210
H85	H	0.893577	-1.125146	0.241418
H86	H	0.841867	-1.066449	0.245075
H87	H	0.897291	-1.066417	0.189737
C88	C	1.069009	-0.235221	0.574421
H89	H	1.094795	-0.209438	0.605608
H90	H	1.098489	-0.261108	0.546844
H91	H	1.043127	-0.205726	0.546851
C92	C	0.887165	-0.573780	0.235144
H93	H	0.893336	-0.526612	0.241348
H94	H	0.897107	-0.585369	0.189676
H95	H	0.841684	-0.585403	0.245015
C96	C	0.887219	-0.722221	0.235162
H97	H	0.861442	-0.691079	0.209360
H98	H	0.913142	-0.749784	0.205698
H99	H	0.857717	-0.749812	0.261035
C100	C	1.069006	-0.235228	0.722856
H101	H	1.094807	-0.209456	0.691694
H102	H	1.043133	-0.205733	0.750433
H103	H	1.098482	-0.261128	0.750431
H104	H	1.056483	-0.583676	0.404731
C105	C	0.887304	-0.929554	0.235180
H106	H	0.861564	-0.960762	0.209375
H107	H	0.857778	-0.901994	0.261033
H108	H	0.913215	-0.901968	0.205708
C109	C	1.068990	-0.235228	0.930180
H110	H	1.094778	-0.209445	0.961365
H111	H	1.098468	-0.261117	0.902603
H112	H	1.043107	-0.205734	0.902609
H113	H	0.899471	-0.404642	0.712690
H114	H	1.056531	-0.711910	0.404747
C115	C	1.068989	-0.235231	1.078620
H116	H	1.062782	-0.241424	1.125778
H117	H	1.114460	-0.245141	1.067042
H118	H	1.059107	-0.189750	1.067042
H119	H	1.056663	-1.067681	0.404795
C120	C	0.374799	-0.235362	0.417213
H121	H	0.343644	-0.209616	0.443034
H122	H	0.402372	-0.261292	0.446659
H123	H	0.402379	-0.205830	0.391362
C124	C	0.730563	-0.235360	0.417180
H125	H	0.777719	-0.241552	0.410972
H126	H	0.718998	-0.189868	0.407357
H127	H	0.718983	-0.245341	0.462643
H128	H	1.056615	-0.939435	0.404778
