data_functionalizedCrystal
_audit_creation_method	'MofGen! by Chris Wilmer'
_symmetry_space_group_name_H-M	'P1'
_symmetry_Int_Tables_number	1
_symmetry_cell_setting	triclinic
loop_
_symmetry_equiv_pos_as_xyz
  x,y,z
_cell_length_a	27.731994
_cell_length_b	27.732048
_cell_length_c	14.185569
_cell_angle_alpha	76.951782
_cell_angle_beta	103.046021
_cell_angle_gamma	82.631595
loop_
_atom_site_label
_atom_site_type_symbol
_atom_site_fract_x
_atom_site_fract_y
_atom_site_fract_z
O1	O	0.629914	0.068419	-0.083290
O2	O	0.489112	0.077197	-0.083325
O3	O	0.563889	0.002408	-0.083288
O4	O	0.555137	0.143208	-0.083328
O5	O	0.585978	-0.019683	0.083558
O6	O	0.511202	0.055106	0.083520
O7	O	0.652004	0.046328	0.083555
Cu8	Cu	0.583620	0.048700	0.098772
Cu9	Cu	0.557496	0.074825	-0.098542
O10	O	0.577227	0.121117	0.083518
C11	C	0.482149	0.065972	0.000093
C12	C	0.428491	0.065431	0.000081
C13	C	0.107819	0.049968	0.091068
C14	C	-0.093838	0.047905	0.091080
O15	O	-0.109670	0.037376	0.168427
N16	N	-0.131094	0.059691	0.000133
C17	C	-0.117933	0.071990	-0.090824
O18	O	-0.154247	0.081962	-0.168180
C19	C	0.083724	0.074049	-0.090835
C20	C	0.120977	0.062268	0.000118
C21	C	0.145071	0.038187	0.182014
C22	C	0.195482	0.038705	0.182010
C23	C	0.208640	0.051005	0.091060
C24	C	0.171388	0.062786	0.000114
C25	C	0.096884	0.086345	-0.181791
C26	C	0.147303	0.086858	-0.181786
C27	C	0.184556	0.075076	-0.090832
C28	C	0.234956	0.075605	-0.090839
N29	N	0.272212	0.063819	0.000108
C30	C	0.259054	0.051519	0.091058
C31	C	-0.223804	0.070909	-0.090812
C32	C	-0.274218	0.070395	-0.090810
C33	C	-0.250120	0.046309	0.091095
C34	C	-0.199706	0.046826	0.091092
C35	C	-0.186549	0.059123	0.000135
C36	C	0.364919	0.052609	0.091043
C37	C	0.415333	0.053131	0.091031
C38	C	0.391230	0.077214	-0.090873
C39	C	0.340820	0.076695	-0.090862
C40	C	0.327667	0.064390	0.000104
O41	O	0.250826	0.086123	-0.168146
O42	O	0.295377	0.041538	0.168402
C43	C	0.057408	0.049450	0.091072
C44	C	0.020156	0.061231	0.000126
C45	C	0.033314	0.073530	-0.090824
C46	C	-0.030258	0.060717	0.000129
C47	C	-0.043416	0.048417	0.091078
C48	C	-0.006161	0.036631	0.182026
C49	C	0.044250	0.037150	0.182022
C50	C	-0.003942	0.085316	-0.181771
C51	C	-0.054352	0.084797	-0.181760
C52	C	-0.067510	0.072497	-0.090810
C53	C	0.574750	-0.026645	0.000138
C54	C	0.574198	-0.080301	0.000146
C55	C	0.614898	-0.419119	0.000105
C56	C	0.612845	-0.620776	0.000090
O57	O	0.650062	-0.652034	0.000055
N58	N	0.568507	-0.639890	0.000080
C59	C	0.524679	-0.608585	0.000067
O60	O	0.486918	-0.629468	0.000048
C61	C	0.526731	-0.406927	0.000074
C62	C	0.571073	-0.387818	0.000095
C63	C	0.659236	-0.400008	0.000124
C64	C	0.659749	-0.349598	0.000133
C65	C	0.615925	-0.318297	0.000123
C66	C	0.571587	-0.337407	0.000104
C67	C	0.482902	-0.375623	0.000054
C68	C	0.483419	-0.325205	0.000053
C69	C	0.527761	-0.306096	0.000074
C70	C	0.528275	-0.255696	0.000103
N71	N	0.572613	-0.236582	0.000113
C72	C	0.616438	-0.267883	0.000123
C73	C	0.523604	-0.714458	0.000065
C74	C	0.523091	-0.764873	0.000065
C75	C	0.611257	-0.777060	0.000086
C76	C	0.611771	-0.726646	0.000094
C77	C	0.567942	-0.695345	0.000075
C78	C	0.617513	-0.162017	0.000143
C79	C	0.618023	-0.111602	0.000156
C80	C	0.529856	-0.099418	0.000130
C81	C	0.529347	-0.149829	0.000122
C82	C	0.573178	-0.181127	0.000125
O83	O	0.491077	-0.224408	0.000126
O84	O	0.654190	-0.246987	0.000120
C85	C	0.614384	-0.469529	0.000095
C86	C	0.570046	-0.488639	0.000076
C87	C	0.526221	-0.457339	0.000066
C88	C	0.569533	-0.539054	0.000076
C89	C	0.613358	-0.570354	0.000086
C90	C	0.657695	-0.551240	0.000096
C91	C	0.658209	-0.500830	0.000106
C92	C	0.481884	-0.476453	0.000056
C93	C	0.481374	-0.526864	0.000048
C94	C	0.525199	-0.558164	0.000058
C95	C	0.658966	0.057553	0.000134
C96	C	0.712623	0.058095	0.000140
C97	C	0.566365	0.150170	0.000090
C98	C	0.566916	0.203827	0.000075
N99	N	0.601997	0.030324	0.237552
N100	N	0.539123	0.093196	-0.237322
C101	C	0.485130	0.147162	0.605144
C102	C	0.499054	0.133246	0.710172
C103	C	0.565281	0.067045	0.710166
C104	C	0.551361	0.080954	0.605136
C105	C	0.511286	0.121013	0.552633
C106	C	0.577517	0.054804	0.552625
C107	C	0.563600	0.068714	0.447603
C108	C	0.523527	0.108773	0.395093
C109	C	0.497368	0.134922	0.447611
C110	C	0.617595	0.014748	0.605130
C111	C	0.643751	-0.011402	0.552619
C112	C	0.629832	0.002505	0.447595
C113	C	0.589758	0.042564	0.395085
C114	C	0.655990	-0.023644	0.395077
C115	C	0.642073	-0.009735	0.290056
C116	C	0.575841	0.056474	0.290063
H117	H	-0.260841	0.036295	0.165150
H118	H	0.628927	0.003426	0.690645
H119	H	0.512197	0.120099	0.309577
H120	H	0.477751	0.154544	0.752921
H121	H	0.134365	0.028169	0.256081
H122	H	0.663372	-0.031028	0.247301
H123	H	0.676383	-0.044017	0.595379
H124	H	0.694925	-0.425488	0.000128
H125	H	0.464731	0.167539	0.404861
H126	H	0.445264	-0.542419	0.000041
H127	H	0.446195	-0.450972	0.000046
H128	H	0.494176	-0.073924	0.000125
H129	H	-0.213099	0.080922	-0.164884
H130	H	0.653204	-0.187494	0.000142
H131	H	0.694317	-0.485276	0.000122
H132	H	-0.016883	0.026619	0.256081
H133	H	-0.084682	0.094396	-0.255831
H134	H	0.597913	0.034429	0.752927
H135	H	0.688623	-0.056258	0.437839
H136	H	0.006765	0.095331	-0.255835
H137	H	0.693380	-0.576735	0.000109
H138	H	0.654133	-0.096046	0.000175
H139	H	-0.304548	0.079996	-0.164873
H140	H	0.452493	0.179779	0.562393
H141	H	0.445664	0.043538	0.165099
H142	H	0.225811	0.029109	0.256074
H143	H	0.354216	0.042594	0.165116
H144	H	0.647878	-0.711091	0.000109
H145	H	0.074578	0.027556	0.256086
H146	H	-0.169376	0.037233	0.165154
H147	H	0.066560	0.095938	-0.255855
H148	H	0.158011	0.096871	-0.255855
H149	H	0.310486	0.086297	-0.164924
H150	H	0.401953	0.087230	-0.164922
H151	H	0.695857	-0.334043	0.000145
H152	H	0.486986	-0.780429	0.000066
H153	H	0.646941	-0.802554	0.000095
H154	H	0.487911	-0.688977	0.000051
H155	H	0.446793	-0.391171	0.000032
H156	H	0.493244	-0.165392	0.000133
H157	H	0.543204	0.089091	0.247313
H158	H	0.447727	-0.299721	0.000037
