data_functionalizedCrystal
_audit_creation_method	'MofGen! by Chris Wilmer'
_symmetry_space_group_name_H-M	'P1'
_symmetry_Int_Tables_number	1
_symmetry_cell_setting	triclinic
loop_
_symmetry_equiv_pos_as_xyz
  x,y,z
_cell_length_a	10.489711
_cell_length_b	9.565339
_cell_length_c	10.723024
_cell_angle_alpha	90.000315
_cell_angle_beta	95.502561
_cell_angle_gamma	89.998814
loop_
_atom_site_label
_atom_site_type_symbol
_atom_site_fract_x
_atom_site_fract_y
_atom_site_fract_z
O1	O	1.693951	0.116307	-0.175881
O2	O	1.322739	0.116298	-0.192446
O3	O	1.516908	0.116297	-0.002591
O4	O	1.499782	0.116307	-0.365735
O5	O	1.516916	-0.116223	-0.002597
O6	O	1.322748	-0.116222	-0.192451
O7	O	1.693959	-0.116213	-0.175886
Zn8	Zn	1.508355	-0.153135	-0.184170
Zn9	Zn	1.508344	0.153220	-0.184162
O10	O	1.499791	-0.116213	-0.365741
C11	C	1.275212	0.000037	-0.191205
C12	C	1.133583	0.000034	-0.187486
C13	C	0.951124	0.000053	-0.301658
C14	C	1.043302	0.114694	-0.244625
C15	C	1.043283	-0.114553	-0.244600
C16	C	0.973428	0.114799	-0.123762
C17	C	0.973400	-0.114551	-0.123754
C18	C	1.065550	0.000118	-0.066633
N19	N	1.508372	-0.362215	-0.184174
C20	C	1.598197	-0.453381	-0.096379
C21	C	1.482716	-0.546554	-0.071116
C22	C	1.623807	-0.546596	-0.209355
C23	C	1.392832	-0.453337	-0.158855
C24	C	1.534000	-0.453370	-0.297144
C25	C	1.418436	-0.546502	-0.271928
C26	C	1.741486	0.000051	-0.177127
C27	C	1.883115	0.000063	-0.180846
C28	C	1.515666	0.000039	0.043906
C29	C	1.511937	0.000044	0.182462
N30	N	1.508337	0.362299	-0.184148
C31	C	1.501033	0.000049	-0.412238
C32	C	1.504762	0.000053	-0.550794
C33	C	1.620583	0.000048	0.257390
C34	C	1.616732	0.000053	0.400595
H35	H	1.115071	0.000173	0.032758
H36	H	1.716450	0.000042	0.215519
H37	H	1.411747	0.000040	0.384828
C38	C	1.755700	-0.601933	-0.238151
H39	H	1.819428	-0.570031	-0.175702
H40	H	1.754518	-0.701233	-0.238694
H41	H	1.774535	-0.568644	-0.317813
H42	H	0.942413	-0.211479	-0.072680
C43	C	1.085053	-0.245493	-0.313675
H44	H	1.045476	-0.245340	-0.397165
H45	H	1.175479	-0.245023	-0.314926
H46	H	1.059941	-0.326900	-0.271561
H47	H	1.709742	0.000051	0.464981
C48	C	1.700710	-0.398126	0.003966
H49	H	1.682272	-0.430033	0.084194
H50	H	1.782556	-0.431425	-0.013141
H51	H	1.700523	-0.298818	0.002763
C52	C	1.315697	-0.601402	-0.372221
H53	H	1.355374	-0.656087	-0.431566
H54	H	1.255909	-0.657307	-0.333428
H55	H	1.272438	-0.524670	-0.413557
C56	C	1.382421	0.000050	0.239007
H57	H	1.314756	0.000058	0.173428
H58	H	1.376295	-0.081028	0.289238
H59	H	1.376298	0.081152	0.289223
H60	H	1.295172	-0.412544	-0.137438
C61	C	0.883888	0.000214	-0.435789
H62	H	0.907655	0.081777	-0.478507
H63	H	0.908799	-0.080400	-0.479151
H64	H	0.793717	-0.000601	-0.432451
H65	H	1.461016	-0.587487	0.024430
H66	H	1.074260	0.211613	-0.295744
H67	H	0.942648	0.211833	-0.072690
C68	C	1.563365	-0.398015	-0.426172
H69	H	1.645472	-0.429889	-0.443948
H70	H	1.500384	-0.431283	-0.488703
H71	H	1.562387	-0.298708	-0.425456
