data_functionalizedCrystal
_audit_creation_method	'MofGen! by Chris Wilmer'
_symmetry_space_group_name_H-M	'P1'
_symmetry_Int_Tables_number	1
_symmetry_cell_setting	triclinic
loop_
_symmetry_equiv_pos_as_xyz
  x,y,z
_cell_length_a	13.897441
_cell_length_b	13.897449
_cell_length_c	13.897448
_cell_angle_alpha	90.018972
_cell_angle_beta	90.030599
_cell_angle_gamma	90.020733
loop_
_atom_site_label
_atom_site_type_symbol
_atom_site_fract_x
_atom_site_fract_y
_atom_site_fract_z
Zn1	Zn	-0.545381	-1.474703	0.383951
Zn2	Zn	-0.295381	-1.224703	0.633951
Zn3	Zn	-0.045381	-0.974703	0.883951
Zn4	Zn	0.204619	-0.724703	1.133951
Zn5	Zn	-0.384083	-1.474597	0.545273
Zn6	Zn	-0.134083	-1.224597	0.795273
Zn7	Zn	0.115917	-0.974597	1.045273
Zn8	Zn	0.365917	-0.724597	1.295273
Zn9	Zn	-0.384100	-1.313392	0.383997
Zn10	Zn	-0.134100	-1.063392	0.633997
Zn11	Zn	0.115900	-0.813392	0.883997
Zn12	Zn	0.365900	-0.563392	1.133997
Zn13	Zn	-0.545335	-1.313373	0.545210
Zn14	Zn	-0.295335	-1.063373	0.795210
Zn15	Zn	-0.045335	-0.813373	1.045210
Zn16	Zn	0.204665	-0.563373	1.295210
O17	O	-0.464725	-1.394016	0.464608
O18	O	-0.214725	-1.144016	0.714608
O19	O	0.035275	-0.894016	0.964608
O20	O	0.285275	-0.644016	1.214608
O21	O	-0.523997	-1.609670	0.405358
O22	O	-0.273997	-1.359670	0.655358
O23	O	-0.023997	-1.109670	0.905358
O24	O	0.226003	-0.859670	1.155358
O25	O	-0.249103	-1.453176	0.523925
O26	O	0.000897	-1.203176	0.773925
O27	O	0.250897	-0.953176	1.023925
O28	O	0.500897	-0.703176	1.273925
O29	O	-0.405520	-1.334842	0.249009
O30	O	-0.155520	-1.084842	0.499009
O31	O	0.094480	-0.834842	0.749009
O32	O	0.344480	-0.584842	0.999009
O33	O	-0.405491	-1.609592	0.523881
O34	O	-0.155491	-1.359592	0.773881
O35	O	0.094509	-1.109592	1.023881
O36	O	0.344509	-0.859592	1.273881
O37	O	-0.524013	-1.453356	0.248976
O38	O	-0.274013	-1.203356	0.498976
O39	O	-0.024013	-0.953356	0.748976
O40	O	0.225987	-0.703356	0.998976
O41	O	-0.249116	-1.334739	0.405436
O42	O	0.000884	-1.084739	0.655436
O43	O	0.250884	-0.834739	0.905436
O44	O	0.500884	-0.584739	1.155436
O45	O	-0.405476	-1.178408	0.405375
O46	O	-0.155476	-0.928408	0.655375
O47	O	0.094524	-0.678408	0.905375
O48	O	0.344524	-0.428408	1.155375
O49	O	-0.680323	-1.334811	0.523773
O50	O	-0.430323	-1.084811	0.773773
O51	O	-0.180323	-0.834811	1.023773
O52	O	0.069677	-0.584811	1.273773
O53	O	-0.523935	-1.178394	0.523817
O54	O	-0.273935	-0.928394	0.773817
O55	O	-0.023935	-0.678394	1.023817
O56	O	0.226065	-0.428394	1.273817
O57	O	-0.680357	-1.453339	0.405297
O58	O	-0.430357	-1.203339	0.655297
O59	O	-0.180357	-0.953339	0.905297
O60	O	0.069643	-0.703339	1.155297
O61	O	-0.405447	-1.453158	0.680246
O62	O	-0.155447	-1.203158	0.930246
O63	O	0.094553	-0.953158	1.180246
O64	O	0.344553	-0.703158	1.430246
O65	O	-0.523918	-1.334708	0.680200
O66	O	-0.273918	-1.084708	0.930200
O67	O	-0.023918	-0.834708	1.180200
O68	O	0.226082	-0.584708	1.430200
C69	C	-0.464703	-1.143402	0.464595
C70	C	-0.214703	-0.893402	0.714595
C71	C	0.035297	-0.643402	0.964595
C72	C	0.285297	-0.393402	1.214595
C73	C	-0.464716	-1.036188	0.464613
C74	C	-0.214716	-0.786188	0.714613
C75	C	0.035284	-0.536188	0.964613
C76	C	0.285284	-0.286188	1.214613
C77	C	-0.464697	-1.393946	0.715222
C78	C	-0.214697	-1.143946	0.965222
C79	C	0.035303	-0.893946	1.215222
C80	C	0.285303	-0.643946	1.465222
C81	C	-0.464717	-1.394004	0.822436
C82	C	-0.214717	-1.144004	1.072436
C83	C	0.035283	-0.894004	1.322436
C84	C	0.285283	-0.644004	1.572436
C85	C	-0.716318	-1.394085	0.464522
C86	C	-0.466318	-1.144085	0.714522
C87	C	-0.216318	-0.894085	0.964522
C88	C	0.033682	-0.644085	1.214522
C89	C	-0.823532	-1.394114	0.464486
C90	C	-0.573532	-1.144114	0.714486
C91	C	-0.323532	-0.894114	0.964486
C92	C	-0.073532	-0.644114	1.214486
C93	C	-1.019827	-1.394140	0.464421
C94	C	-0.769827	-1.144140	0.714421
C95	C	-0.519827	-0.894140	0.964421
C96	C	-0.269827	-0.644140	1.214421
C97	C	-0.910594	-1.394122	0.464460
C98	C	-0.660594	-1.144122	0.714460
C99	C	-0.410594	-0.894122	0.964460
C100	C	-0.160594	-0.644122	1.214460
C101	C	-0.214110	-1.394003	0.464623
C102	C	0.035890	-1.144003	0.714623
C103	C	0.285890	-0.894003	0.964623
C104	C	0.535890	-0.644003	1.214623
C105	C	-0.106897	-1.394161	0.464388
C106	C	0.143103	-1.144161	0.714388
C107	C	0.393103	-0.894161	0.964388
C108	C	0.643103	-0.644161	1.214388
C109	C	-0.464747	-1.645609	0.464621
C110	C	-0.214747	-1.395609	0.714621
C111	C	0.035253	-1.145609	0.964621
C112	C	0.285253	-0.895609	1.214621
C113	C	-0.464757	-1.752823	0.464627
C114	C	-0.214757	-1.502823	0.714627
C115	C	0.035243	-1.252823	0.964627
C116	C	0.285243	-1.002823	1.214627
C117	C	-0.464741	-0.839893	0.464616
C118	C	-0.214741	-0.589893	0.714616
C119	C	0.035259	-0.339893	0.964616
C120	C	0.285259	-0.089893	1.214616
C121	C	-0.464725	-0.949125	0.464611
C122	C	-0.214725	-0.699125	0.714611
C123	C	0.035275	-0.449125	0.964611
C124	C	0.285275	-0.199125	1.214611
C125	C	-0.464774	-1.394113	0.213015
C126	C	-0.214774	-1.144113	0.463015
C127	C	0.035226	-0.894113	0.713015
C128	C	0.285226	-0.644113	0.963015
C129	C	-0.464795	-1.394154	0.105801
C130	C	-0.214795	-1.144154	0.355801
C131	C	0.035205	-0.894154	0.605801
C132	C	0.285205	-0.644154	0.855801
C133	C	-0.464778	-1.394105	1.018731
C134	C	-0.214778	-1.144105	1.268731
C135	C	0.035222	-0.894105	1.518731
C136	C	0.285222	-0.644105	1.768731
C137	C	-0.464747	-1.394046	0.909499
C138	C	-0.214747	-1.144046	1.159499
C139	C	0.035253	-0.894046	1.409499
C140	C	0.285253	-0.644046	1.659499
