data_functionalizedCrystal
_audit_creation_method	'MofGen! by Chris Wilmer'
_symmetry_space_group_name_H-M	'P1'
_symmetry_Int_Tables_number	1
_symmetry_cell_setting	triclinic
loop_
_symmetry_equiv_pos_as_xyz
  x,y,z
_cell_length_a	18.627263
_cell_length_b	18.627226
_cell_length_c	18.627215
_cell_angle_alpha	120.006091
_cell_angle_beta	90.000766
_cell_angle_gamma	60.000314
loop_
_atom_site_label
_atom_site_type_symbol
_atom_site_fract_x
_atom_site_fract_y
_atom_site_fract_z
O1	O	-0.492469	-0.633258	-0.021364
O2	O	-0.388075	-0.486245	0.021251
O3	O	-0.388071	-0.633259	-0.125766
O4	O	-0.492473	-0.486244	0.125653
O5	O	-0.507477	-0.513850	-0.125753
O6	O	-0.507482	-0.366835	0.021264
O7	O	-0.611875	-0.513849	-0.021351
Cu8	Cu	-0.570581	-0.429439	-0.000042
Cu9	Cu	-0.429369	-0.570655	-0.000058
O10	O	-0.611880	-0.366834	0.125666
C11	C	-0.386970	-0.226053	0.030934
C12	C	-0.431268	-0.137458	0.024830
C13	C	-0.430377	-0.269044	0.031547
C14	C	-0.256972	-0.356049	0.030941
C15	C	-0.162275	-0.406447	0.024844
C16	C	-0.300576	-0.398842	0.031553
C17	C	-0.386975	-0.356046	0.030945
C18	C	-0.431277	-0.406440	0.024854
C19	C	-0.300572	-0.269047	0.031542
C20	C	-0.386965	-0.644050	-0.257064
C21	C	-0.431270	-0.593655	-0.162363
C22	C	-0.430371	-0.601250	-0.300661
C23	C	-0.256956	-0.774051	-0.387076
C24	C	-0.162254	-0.862653	-0.431383
C25	C	-0.300559	-0.731053	-0.430475
C26	C	-0.386963	-0.644045	-0.387063
C27	C	-0.431266	-0.593644	-0.431357
C28	C	-0.300561	-0.731059	-0.300674
C29	C	-0.742971	-0.644058	-0.031060
C30	C	-0.837670	-0.593658	-0.024957
C31	C	-0.699371	-0.601257	-0.031663
C32	C	-0.612966	-0.774067	-0.031074
C33	C	-0.568662	-0.862674	-0.024987
C34	C	-0.569563	-0.731069	-0.031677
C35	C	-0.612971	-0.644057	-0.031060
C36	C	-0.568673	-0.593655	-0.024958
C37	C	-0.699366	-0.731070	-0.031676
O38	O	0.125730	-0.513859	-0.021362
O39	O	-0.125671	-0.366850	0.021240
O40	O	0.021339	-0.513883	-0.125772
O41	O	-0.021279	-0.366826	0.125650
O42	O	0.021334	-0.633278	-0.125761
O43	O	-0.125676	-0.486245	0.021251
O44	O	0.125726	-0.633253	-0.021351
Cu45	Cu	0.000024	-0.570651	-0.000049
Cu46	Cu	0.000030	-0.429453	-0.000062
O47	O	-0.021284	-0.486220	0.125661
O48	O	-0.611861	0.104322	-0.021389
O49	O	-0.507469	-0.104457	0.021231
O50	O	-0.507457	-0.104495	-0.125788
O51	O	-0.611874	0.104361	0.125630
O52	O	-0.388053	-0.104497	-0.125793
O53	O	-0.388066	-0.104459	0.021226
O54	O	-0.492458	0.104320	-0.021394
Cu55	Cu	-0.429359	-0.000069	-0.000084
Cu56	Cu	-0.570567	-0.000067	-0.000079
O57	O	-0.492470	0.104358	0.125626
O58	O	0.125757	-1.104456	-0.492596
O59	O	-0.125653	-0.895657	-0.388187
O60	O	0.021338	-0.895639	-0.388168
O61	O	-0.021233	-1.104474	-0.492615
O62	O	0.021343	-0.895637	-0.507569
O63	O	-0.125647	-0.895655	-0.507588
O64	O	0.125762	-1.104454	-0.611998
Cu65	Cu	0.000058	-1.000054	-0.570695
Cu66	Cu	0.000052	-1.000057	-0.429489
O67	O	-0.021228	-1.104472	-0.612016
O68	O	-0.492477	-0.486222	-0.611936
O69	O	-0.388064	-0.633242	-0.507562
O70	O	-0.388083	-0.486215	-0.507529
O71	O	-0.492458	-0.633248	-0.611970
O72	O	-0.507492	-0.366815	-0.388115
O73	O	-0.507473	-0.513841	-0.388149
O74	O	-0.611886	-0.366822	-0.492523
Cu75	Cu	-0.570582	-0.429429	-0.429433
Cu76	Cu	-0.429367	-0.570634	-0.570653
O77	O	-0.611867	-0.513848	-0.492556
C78	C	-0.742988	-0.226017	0.386983
C79	C	-0.837688	-0.137410	0.431292
C80	C	-0.699386	-0.269012	0.430385
C81	C	-0.612982	-0.356031	0.256968
C82	C	-0.568679	-0.406436	0.162264
C83	C	-0.569578	-0.398828	0.300568
C84	C	-0.612984	-0.356024	0.386973
C85	C	-0.568683	-0.406421	0.431270
C86	C	-0.699384	-0.269018	0.300578
C87	C	0.031019	-0.774116	-0.387075
C88	C	0.024918	-0.862719	-0.431370
C89	C	0.031627	-0.731132	-0.430487
C90	C	0.031027	-0.644099	-0.257073
C91	C	0.024934	-0.593687	-0.162370
C92	C	0.031635	-0.601312	-0.300683
C93	C	0.031024	-0.644123	-0.387086
C94	C	0.024928	-0.593737	-0.431394
C95	C	0.031630	-0.731108	-0.300671
C96	C	-0.030970	-0.355981	0.386975
C97	C	-0.024874	-0.406366	0.431283
C98	C	-0.031573	-0.268972	0.430376
C99	C	-0.030972	-0.356005	0.256962
C100	C	-0.024879	-0.406417	0.162259
C101	C	-0.031575	-0.268996	0.300560
C102	C	-0.030964	-0.225988	0.386963
C103	C	-0.024863	-0.137386	0.431259
C104	C	-0.031581	-0.398791	0.300572
C105	C	-0.256932	-0.356157	-0.387109
C106	C	-0.162232	-0.406563	-0.431413
C107	C	-0.300531	-0.398963	-0.430515
C108	C	-0.386943	-0.226128	-0.257098
C109	C	-0.431251	-0.137507	-0.162395
C110	C	-0.430344	-0.269132	-0.300702
C111	C	-0.386933	-0.356157	-0.387106
C112	C	-0.431230	-0.406562	-0.431407
C113	C	-0.300541	-0.269132	-0.300704
O114	O	-0.021313	-0.366932	-0.492599
O115	O	0.021313	-0.513920	-0.388190
O116	O	-0.125700	-0.366944	-0.388199
O117	O	0.125700	-0.513908	-0.492590
O118	O	-0.125668	-0.486385	-0.507617
O119	O	0.021345	-0.633361	-0.507607
O120	O	-0.021281	-0.486373	-0.612017
Cu121	Cu	0.000035	-0.570773	-0.570716
Cu122	Cu	-0.000003	-0.429520	-0.429491
O123	O	0.125732	-0.633349	-0.612007
C124	C	-0.612996	0.356021	0.386944
C125	C	-0.568700	0.406427	0.431246
C126	C	-0.699398	0.398827	0.430352
C127	C	-0.612985	0.225992	0.256936
C128	C	-0.568677	0.137371	0.162232
C129	C	-0.699387	0.268995	0.300541
C130	C	-0.742996	0.356020	0.386945
C131	C	-0.837697	0.406425	0.431249
C132	C	-0.569584	0.268996	0.300540
H133	H	-0.265570	-0.233058	0.032522
C134	C	0.033058	-0.779042	-0.253913
C135	C	0.108677	-0.807870	-0.229750
C136	C	0.110012	-0.852007	-0.186660
H137	H	0.033363	-0.837164	-0.292182
H138	H	-0.017635	-0.731291	-0.202789
H139	H	0.159358	-0.855618	-0.280867
H140	H	0.108389	-0.749766	-0.191471
H141	H	0.059319	-0.804256	-0.135536
H142	H	0.110314	-0.910126	-0.224935
H143	H	0.161314	-0.871564	-0.170253
C144	C	-0.746155	0.221157	0.253842
C145	C	-0.821378	0.291673	0.249523
C146	C	-0.864470	0.247633	0.206499
H147	H	-0.762688	0.201519	0.285412
H148	H	-0.707825	0.163092	0.196004
H149	H	-0.859701	0.349719	0.307350
H150	H	-0.804870	0.311317	0.217947
H151	H	-0.826140	0.189568	0.148662
H152	H	-0.880997	0.227997	0.238074
H153	H	-0.915509	0.295468	0.203556
H154	H	-0.032549	-0.233027	0.265543
H155	H	-0.498615	0.233055	0.265511
C156	C	-0.524977	-0.507782	-0.253897
C157	C	-0.529705	-0.428213	-0.178667
C158	C	-0.616837	-0.342098	-0.135585
H159	H	-0.561153	-0.522816	-0.237365
H160	H	-0.544696	-0.488295	-0.292236
H161	H	-0.509997	-0.447697	-0.140336
H162	H	-0.493548	-0.413148	-0.195174
H163	H	-0.636555	-0.322612	-0.173924
H164	H	-0.653005	-0.357143	-0.119060
H165	H	-0.620055	-0.288098	-0.084542
C166	C	-0.033026	-0.492052	0.253841
C167	C	-0.108650	-0.469423	0.229687
C168	C	-0.110004	-0.555311	0.186629
H169	H	-0.033336	-0.511571	0.292128
H170	H	0.017664	-0.546144	0.202716
H171	H	-0.159326	-0.415349	0.280805
H172	H	-0.108355	-0.449917	0.191391
H173	H	-0.059315	-0.609403	0.135504
H174	H	-0.110313	-0.574823	0.224921
H175	H	-0.161310	-0.539972	0.170228
C176	C	-0.745880	-0.779253	-0.033109
C177	C	-0.699088	-0.879047	-0.108736
C178	C	-0.741899	-0.923467	-0.110074
H179	H	-0.803693	-0.741287	-0.033412
H180	H	-0.748833	-0.779673	0.017586
H181	H	-0.696145	-0.878621	-0.159417
H182	H	-0.641277	-0.917039	-0.108450
H183	H	-0.744852	-0.923887	-0.059379
H184	H	-0.799711	-0.885494	-0.110374
H185	H	-0.710153	-0.991185	-0.161381
C186	C	-0.254022	-0.220946	-0.253968
C187	C	-0.300810	-0.121163	-0.229812
C188	C	-0.257992	-0.076740	-0.186748
H189	H	-0.196210	-0.258924	-0.292252
H190	H	-0.251064	-0.220504	-0.202843
H191	H	-0.303758	-0.121611	-0.280929
H192	H	-0.358620	-0.083159	-0.191518
H193	H	-0.255034	-0.076298	-0.135624
H194	H	-0.200182	-0.114726	-0.225037
H195	H	-0.289736	-0.009030	-0.170346
C196	C	-0.253951	-0.492213	-0.525233
C197	C	-0.300707	-0.469591	-0.578244
C198	C	-0.257819	-0.555460	-0.665501
H199	H	-0.250944	-0.546343	-0.528704
H200	H	-0.196146	-0.511668	-0.544998
H201	H	-0.358496	-0.450150	-0.558485
H202	H	-0.303716	-0.415475	-0.574800
H203	H	-0.200015	-0.574915	-0.685266
H204	H	-0.254814	-0.609584	-0.668963
H205	H	-0.289532	-0.540120	-0.701481
H206	H	-0.734393	-0.233030	0.265579
H207	H	-0.032554	-0.232976	0.501371
C208	C	-0.746147	0.492357	0.524938
C209	C	-0.750475	0.571873	0.529579
C210	C	-0.793563	0.658064	0.616683
H211	H	-0.714621	0.477405	0.561167
H212	H	-0.803979	0.511849	0.544642
H213	H	-0.692653	0.552383	0.509885
H214	H	-0.782007	0.586856	0.493368
H215	H	-0.851395	0.677557	0.636387
H216	H	-0.762032	0.643102	0.652905
H217	H	-0.796512	0.712028	0.619842
C218	C	-0.525042	-0.221179	-0.254181
C219	C	-0.578035	-0.192366	-0.300977
C220	C	-0.665267	-0.148213	-0.258160
H221	H	-0.544895	-0.163048	-0.196366
H222	H	-0.528417	-0.268917	-0.251224
H223	H	-0.574664	-0.144631	-0.303924
H224	H	-0.558210	-0.250479	-0.358790
H225	H	-0.668642	-0.195951	-0.255203
H226	H	-0.685111	-0.090085	-0.200346
H227	H	-0.701232	-0.128666	-0.289909
C228	C	-0.474864	-0.492069	0.253915
C229	C	-0.421847	-0.469457	0.229772
C230	C	-0.334596	-0.555319	0.186814
H231	H	-0.471385	-0.546216	0.202795
H232	H	-0.455113	-0.511494	0.292284
H233	H	-0.441592	-0.450045	0.191405
H234	H	-0.425299	-0.415324	0.280876
H235	H	-0.314845	-0.574745	0.225182
H236	H	-0.331127	-0.609461	0.135697
H237	H	-0.298612	-0.539986	0.170434
H238	H	-0.265570	-0.468848	0.032540
H239	H	-0.501370	-0.233049	0.032536
H240	H	-0.734389	-0.531229	-0.032615
H241	H	-0.498575	-0.767054	-0.032652
H242	H	-0.265543	-0.767032	-0.501463
H243	H	-0.265553	-0.767033	-0.265665
H244	H	-0.734392	-0.233008	0.501385
H245	H	0.032608	-0.531293	-0.265674
H246	H	0.032611	-0.767136	-0.501483
