data_functionalizedCrystal
_audit_creation_method	'MofGen! by Chris Wilmer'
_symmetry_space_group_name_H-M	'P1'
_symmetry_Int_Tables_number	1
_symmetry_cell_setting	triclinic
loop_
_symmetry_equiv_pos_as_xyz
  x,y,z
_cell_length_a	11.792241
_cell_length_b	11.792241
_cell_length_c	7.540329
_cell_angle_alpha	89.996256
_cell_angle_beta	90.001242
_cell_angle_gamma	84.193416
loop_
_atom_site_label
_atom_site_type_symbol
_atom_site_fract_x
_atom_site_fract_y
_atom_site_fract_z
O1	O	1.506906	0.155566	-0.147311
O2	O	1.756906	0.405566	0.102689
O3	O	2.006906	0.655566	0.352689
O4	O	2.256906	0.905566	0.602689
O5	O	1.176565	0.171599	-0.147352
O6	O	1.426565	0.421599	0.102648
O7	O	1.676565	0.671599	0.352648
O8	O	1.926565	0.921599	0.602648
O9	O	1.349752	-0.001588	-0.147318
O10	O	1.599752	0.248412	0.102682
O11	O	1.849752	0.498412	0.352682
O12	O	2.099752	0.748412	0.602682
O13	O	1.333719	0.328753	-0.147345
O14	O	1.583719	0.578753	0.102655
O15	O	1.833719	0.828753	0.352655
O16	O	2.083719	1.078753	0.602655
O17	O	1.349742	-0.001590	0.147647
O18	O	1.599742	0.248410	0.397647
O19	O	1.849742	0.498410	0.647647
O20	O	2.099742	0.748410	0.897647
O21	O	1.176555	0.171597	0.147613
O22	O	1.426555	0.421597	0.397613
O23	O	1.676555	0.671597	0.647613
O24	O	1.926555	0.921597	0.897613
O25	O	1.506896	0.155564	0.147654
O26	O	1.756896	0.405564	0.397654
O27	O	2.006896	0.655564	0.647654
O28	O	2.256896	0.905564	0.897654
Cu29	Cu	1.341725	0.163580	0.174566
Cu30	Cu	1.591725	0.413580	0.424566
Cu31	Cu	1.841725	0.663580	0.674566
Cu32	Cu	2.091725	0.913580	0.924566
Cu33	Cu	1.341737	0.163583	-0.174264
Cu34	Cu	1.591737	0.413583	0.075736
Cu35	Cu	1.841737	0.663583	0.325736
Cu36	Cu	2.091737	0.913583	0.575736
O37	O	1.333709	0.328751	0.147620
O38	O	1.583709	0.578751	0.397620
O39	O	1.833709	0.828751	0.647620
O40	O	2.083709	1.078751	0.897620
C41	C	1.134269	0.170591	0.000125
C42	C	1.384269	0.420591	0.250125
C43	C	1.634269	0.670591	0.500125
C44	C	1.884269	0.920591	0.750125
C45	C	1.008255	0.167576	0.000110
C46	C	1.258255	0.417576	0.250110
C47	C	1.508255	0.667576	0.500110
C48	C	1.758255	0.917576	0.750110
C49	C	0.777543	0.162034	0.000161
C50	C	1.027543	0.412034	0.250161
C51	C	1.277543	0.662034	0.500161
C52	C	1.527543	0.912034	0.750161
C53	C	0.905928	0.165113	0.000133
C54	C	1.155928	0.415113	0.250133
C55	C	1.405928	0.665113	0.500133
C56	C	1.655928	0.915113	0.750133
C57	C	1.348740	-0.043880	0.000164
C58	C	1.598740	0.206120	0.250164
C59	C	1.848740	0.456120	0.500164
C60	C	2.098740	0.706120	0.750164
C61	C	1.345726	-0.169894	0.000162
C62	C	1.595726	0.080106	0.250162
C63	C	1.845726	0.330106	0.500162
C64	C	2.095726	0.580106	0.750162
C65	C	1.340183	-0.400606	0.000131
C66	C	1.590183	-0.150606	0.250131
C67	C	1.840183	0.099394	0.500131
C68	C	2.090183	0.349394	0.750131
C69	C	1.343262	-0.272221	0.000148
C70	C	1.593262	-0.022221	0.250148
C71	C	1.843262	0.227779	0.500148
C72	C	2.093262	0.477779	0.750148
C73	C	1.549192	0.156572	0.000173
C74	C	1.799192	0.406572	0.250173
C75	C	2.049192	0.656572	0.500173
C76	C	2.299192	0.906572	0.750173
C77	C	1.675206	0.159587	0.000177
C78	C	1.925206	0.409587	0.250177
C79	C	2.175206	0.659587	0.500177
C80	C	2.425206	0.909587	0.750177
C81	C	1.334721	0.371043	0.000134
C82	C	1.584721	0.621043	0.250134
C83	C	1.834721	0.871043	0.500134
C84	C	2.084721	1.121043	0.750134
C85	C	1.337736	0.497057	0.000125
C86	C	1.587736	0.747057	0.250125
C87	C	1.837736	0.997057	0.500125
C88	C	2.087736	1.247057	0.750125
N89	N	1.341724	0.163578	0.419915
N90	N	1.591724	0.413578	0.669915
N91	N	1.841724	0.663578	0.919915
N92	N	2.091724	0.913578	1.169915
N93	N	1.341746	0.163576	-0.419613
N94	N	1.591746	0.413576	-0.169613
N95	N	1.841746	0.663576	0.080387
N96	N	2.091746	0.913576	0.330387
