data_functionalizedCrystal
_audit_creation_method	'MofGen! by Chris Wilmer'
_symmetry_space_group_name_H-M	'P1'
_symmetry_Int_Tables_number	1
_symmetry_cell_setting	triclinic
loop_
_symmetry_equiv_pos_as_xyz
  x,y,z
_cell_length_a	19.188930
_cell_length_b	19.188924
_cell_length_c	12.996460
_cell_angle_alpha	89.991787
_cell_angle_beta	89.980533
_cell_angle_gamma	83.143372
loop_
_atom_site_label
_atom_site_type_symbol
_atom_site_fract_x
_atom_site_fract_y
_atom_site_fract_z
O1	O	0.926144	0.087169	-0.085902
O2	O	1.426144	0.587169	0.414098
O3	O	0.722832	0.098904	-0.085832
O4	O	1.222832	0.598904	0.414168
O5	O	0.830357	-0.008620	-0.085857
O6	O	1.330357	0.491380	0.414143
O7	O	0.818618	0.194692	-0.085877
O8	O	1.318618	0.694692	0.414123
O9	O	0.830346	-0.008626	0.085277
O10	O	1.330346	0.491374	0.585277
O11	O	0.722821	0.098898	0.085301
O12	O	1.222821	0.598898	0.585301
O13	O	0.926132	0.087163	0.085232
O14	O	1.426132	0.587163	0.585232
Cu15	Cu	0.824476	0.093030	0.100892
Cu16	Cu	1.324476	0.593030	0.600892
Cu17	Cu	0.824489	0.093037	-0.101493
Cu18	Cu	1.324489	0.593037	0.398507
O19	O	0.818607	0.194686	0.085256
O20	O	1.318607	0.694686	0.585256
C21	C	0.696815	0.098521	-0.000256
C22	C	1.196815	0.598521	0.499744
C23	C	0.619311	0.097380	-0.000229
C24	C	1.119311	0.597380	0.499771
C25	C	0.574385	0.160471	-0.000252
C26	C	1.074385	0.660471	0.499748
C27	C	0.501562	0.159399	-0.000263
C28	C	1.001562	0.659399	0.499737
C29	C	0.473667	0.095233	-0.000272
C30	C	0.973667	0.595233	0.499728
C31	C	0.518602	0.032134	-0.000244
C32	C	1.018602	0.532134	0.499756
C33	C	0.591424	0.033207	-0.000223
C34	C	1.091424	0.533207	0.499777
N35	N	0.365692	0.046188	-0.058553
N36	N	0.865692	0.546188	0.441447
N37	N	0.296513	0.045172	-0.058576
N38	N	0.796513	0.545172	0.441424
C39	C	0.254258	0.091995	-0.000335
C40	C	0.754258	0.591995	0.499665
N41	N	0.283794	0.139882	0.057917
N42	N	0.783794	0.639882	0.557917
N43	N	0.352979	0.140899	0.057935
N44	N	0.852979	0.640899	0.557935
C45	C	0.394704	0.094062	-0.000295
C46	C	0.894704	0.594062	0.499705
C47	C	0.130368	0.153928	-0.000368
C48	C	0.630368	0.653928	0.499632
C49	C	0.057543	0.152854	-0.000373
C50	C	0.557543	0.652854	0.499627
C51	C	0.074585	0.025586	-0.000364
C52	C	0.574585	0.525586	0.499636
C53	C	0.147409	0.026663	-0.000349
C54	C	0.647409	0.526663	0.499651
C55	C	0.175295	0.090835	-0.000356
C56	C	0.675295	0.590835	0.499644
C57	C	0.829973	-0.034634	-0.000289
C58	C	1.329973	0.465366	0.499711
C59	C	0.828834	-0.112138	-0.000286
C60	C	1.328834	0.387862	0.499714
C61	C	0.828308	-0.148534	-0.093571
C62	C	1.328308	0.351466	0.406429
C63	C	0.827228	-0.221357	-0.093579
C64	C	1.327228	0.278643	0.406421
C65	C	0.826688	-0.257783	-0.000296
C66	C	1.326688	0.242217	0.499704
C67	C	0.827210	-0.221378	0.093002
C68	C	1.327210	0.278622	0.593002
C69	C	0.828282	-0.148556	0.093007
C70	C	1.328282	0.351444	0.593007
N71	N	0.864731	-0.377449	0.069119
N72	N	1.364731	0.122551	0.569119
N73	N	0.863714	-0.446627	0.069109
N74	N	1.363714	0.053373	0.569109
C75	C	0.823454	-0.477192	-0.000304
C76	C	1.323454	0.022808	0.499696
N77	N	0.784259	-0.435967	-0.069722
N78	N	1.284259	0.064033	0.430278
N79	N	0.785280	-0.366783	-0.069714
N80	N	1.285280	0.133217	0.430286
C81	C	0.825524	-0.336746	-0.000290
C82	C	1.325524	0.163254	0.499710
C83	C	0.821757	-0.592550	-0.093604
C84	C	1.321757	-0.092550	0.406396
C85	C	0.820672	-0.665374	-0.093608
C86	C	1.320672	-0.165374	0.406392
C87	C	0.820660	-0.665394	0.092975
C88	C	1.320660	-0.165394	0.592975
C89	C	0.821738	-0.592571	0.092976
C90	C	1.321738	-0.092571	0.592976
C91	C	0.822289	-0.556154	-0.000316
C92	C	1.322289	-0.056154	0.499684
C93	C	0.952149	0.087546	-0.000347
C94	C	1.452149	0.587546	0.499653
C95	C	1.029654	0.088687	-0.000381
C96	C	1.529654	0.588687	0.499619
C97	C	0.818992	0.220700	-0.000314
C98	C	1.318992	0.720700	0.499686
C99	C	0.820131	0.298205	-0.000324
C100	C	1.320131	0.798205	0.499676
N101	N	0.824472	0.093025	0.243240
N102	N	1.324472	0.593025	0.743240
N103	N	0.824499	0.093037	-0.243840
N104	N	1.324499	0.593037	0.256160
C105	C	0.824488	0.093038	0.663054
C106	C	1.324488	0.593038	1.163054
C107	C	0.824481	0.093036	0.546249
C108	C	1.324481	0.593036	1.046249
C109	C	0.824480	0.093032	0.453150
C110	C	1.324480	0.593032	0.953150
C111	C	0.824473	0.093029	0.336338
C112	C	1.324473	0.593029	0.836338
H113	H	0.495885	-0.020111	-0.000266
H114	H	0.995885	0.479889	0.499734
N115	N	0.828862	-0.109299	0.193627
N116	N	1.328862	0.390701	0.693627
H117	H	0.829628	-0.057641	0.179475
H118	H	1.329628	0.442359	0.679475
H119	H	0.785399	-0.116235	0.234381
H120	H	1.285399	0.383765	0.734381
N121	N	0.822317	-0.553317	0.193596
N122	N	1.322317	-0.053317	0.693596
H123	H	0.866034	-0.528898	0.197738
H124	H	1.366034	-0.028898	0.697738
H125	H	0.779462	-0.517346	0.197715
H126	H	1.279462	-0.017346	0.697715
N127	N	0.604464	0.229683	-0.000266
N128	N	1.104464	0.729683	0.499734
H129	H	0.564949	0.269488	-0.000285
H130	H	1.064949	0.769488	0.499715
H131	H	0.634285	0.232905	0.063181
H132	H	1.134285	0.732905	0.563181
H133	H	0.820215	-0.695051	0.168928
H134	H	1.320215	-0.195051	0.668928
H135	H	0.828755	-0.118887	-0.169537
H136	H	1.328755	0.381113	0.330463
H137	H	0.826796	-0.250995	-0.169545
H138	H	1.326796	0.249005	0.330455
H139	H	0.822201	-0.562897	-0.169568
H140	H	1.322201	-0.062897	0.330432
H141	H	0.826767	-0.251040	0.168953
H142	H	1.326767	0.248960	0.668953
H143	H	0.464976	0.210777	-0.000278
H144	H	0.964976	0.710777	0.499722
N145	N	0.820164	-0.704641	-0.194227
N146	N	1.320164	-0.204641	0.305773
H147	H	0.820699	-0.670521	-0.253322
H148	H	1.320699	-0.170521	0.246678
H149	H	0.863012	-0.740628	-0.198235
H150	H	1.363012	-0.240628	0.301765
H151	H	0.628003	-0.018171	-0.000205
H152	H	1.128003	0.481829	0.499795
H153	H	0.153075	0.206181	-0.000358
H154	H	0.653075	0.706181	0.499642
H155	H	0.020965	0.204232	-0.000385
H156	H	0.520965	0.704232	0.499615
N157	N	0.044510	-0.043623	-0.000363
N158	N	0.544510	0.456377	0.499637
H159	H	-0.008440	-0.034731	-0.000376
H160	H	0.491560	0.465269	0.499624
H161	H	0.060980	-0.071222	-0.063797
H162	H	0.560980	0.428778	0.436203
H163	H	0.183988	-0.024713	-0.000337
H164	H	0.683988	0.475287	0.499663
