data_functionalizedCrystal
_audit_creation_method	'MofGen! by Chris Wilmer'
_symmetry_space_group_name_H-M	'P1'
_symmetry_Int_Tables_number	1
_symmetry_cell_setting	triclinic
loop_
_symmetry_equiv_pos_as_xyz
  x,y,z
_cell_length_a	12.759401
_cell_length_b	14.908520
_cell_length_c	14.908308
_cell_angle_alpha	96.360765
_cell_angle_beta	93.281184
_cell_angle_gamma	93.320696
loop_
_atom_site_label
_atom_site_type_symbol
_atom_site_fract_x
_atom_site_fract_y
_atom_site_fract_z
Zn1	Zn	1.544174	-0.389868	-0.532499
Zn2	Zn	1.544055	-0.532513	-0.389870
Zn3	Zn	1.379242	-0.381171	-0.381165
Zn4	Zn	1.357688	-0.541187	-0.541187
O5	O	1.456290	-0.461185	-0.461180
O6	O	1.691178	-0.408800	-0.513587
O7	O	1.531163	-0.505168	-0.262054
O8	O	1.410191	-0.255660	-0.393961
O9	O	1.691090	-0.513601	-0.408797
O10	O	1.531366	-0.262050	-0.505146
O11	O	1.410075	-0.393977	-0.255658
O12	O	1.229363	-0.402388	-0.402384
O13	O	1.373455	-0.528384	-0.666696
O14	O	1.213527	-0.519951	-0.519952
O15	O	1.510466	-0.417211	-0.660313
O16	O	1.510262	-0.660329	-0.417221
O17	O	1.373339	-0.666701	-0.528393
C18	C	1.183324	-0.461168	-0.461167
C19	C	1.066546	-0.461183	-0.461184
C20	C	1.003466	-0.522485	-0.522311
C21	C	0.893740	-0.522497	-0.522322
C22	C	0.910185	-0.399902	-0.400070
C23	C	1.019908	-0.399887	-0.400064
C24	C	0.993970	-0.593267	-0.592890
C25	C	0.884245	-0.593280	-0.592900
C26	C	1.439476	-0.696359	-0.474714
C27	C	1.432377	-0.796969	-0.480535
C28	C	1.561747	-0.979335	-0.375801
C29	C	1.555081	-1.073867	-0.381267
C30	C	1.412384	-1.080567	-0.496936
C31	C	1.419050	-0.986035	-0.491470
C32	C	1.493733	-0.935422	-0.430900
C33	C	1.500394	-0.840888	-0.425430
C34	C	1.357703	-0.847590	-0.541103
C35	C	1.351037	-0.942122	-0.546569
C36	C	1.730321	-0.461203	-0.461194
C37	C	1.847097	-0.461211	-0.461200
C38	C	1.439569	-0.474735	-0.697264
C39	C	1.432444	-0.480509	-0.797869
C40	C	1.473196	-0.225094	-0.447613
C41	C	1.480401	-0.124486	-0.441831
C42	C	1.561723	-0.375574	-0.980271
C43	C	1.555032	-0.380996	-1.074798
C44	C	1.412366	-0.496771	-1.081452
C45	C	1.419057	-0.491348	-0.986925
C46	C	1.493739	-0.430749	-0.936337
C47	C	1.500435	-0.425332	-0.841809
C48	C	1.357765	-0.541101	-0.848464
C49	C	1.351074	-0.546524	-0.942992
C50	C	1.473010	-0.447622	-0.226011
C51	C	1.480357	-0.441593	-0.125392
H52	H	1.071265	-0.349963	-0.350294
H53	H	1.622550	-0.938124	-0.326477
H54	H	0.847287	-0.572107	-0.658100
Cl55	Cl	1.655616	-0.299404	-0.916673
Cl56	Cl	1.318518	-1.144210	-0.573086
H57	H	0.850801	-0.662274	-0.578044
Cl58	Cl	1.640499	-0.311628	-1.130025
Cl59	Cl	1.640590	-1.129069	-0.311999
H60	H	1.561246	-0.375990	-0.800622
H61	H	0.872199	-0.349996	-0.350309
Cl62	Cl	1.318482	-0.572940	-1.145062
Cl63	Cl	1.041938	-0.693810	-0.559948
Cl64	Cl	1.257193	-0.622701	-1.006595
Cl65	Cl	1.034351	-0.570662	-0.699505
H66	H	1.302410	-0.586032	-0.812684
Cl67	Cl	1.272182	-0.792380	-0.610362
H68	H	1.561202	-0.799679	-0.376109
H69	H	1.290235	-0.983344	-0.595885
