data_functionalizedCrystal
_audit_creation_method	'MofGen! by Chris Wilmer'
_symmetry_space_group_name_H-M	'P1'
_symmetry_Int_Tables_number	1
_symmetry_cell_setting	triclinic
loop_
_symmetry_equiv_pos_as_xyz
  x,y,z
_cell_length_a	14.853566
_cell_length_b	14.519731
_cell_length_c	13.930277
_cell_angle_alpha	89.994465
_cell_angle_beta	89.995631
_cell_angle_gamma	83.661634
loop_
_atom_site_label
_atom_site_type_symbol
_atom_site_fract_x
_atom_site_fract_y
_atom_site_fract_z
O1	O	1.196425	0.120398	-0.079770
O2	O	1.696425	0.620398	0.420230
O3	O	0.933972	0.134742	-0.079786
O4	O	1.433972	0.634742	0.420214
O5	O	1.072147	-0.006670	-0.079768
O6	O	1.572147	0.493330	0.420232
O7	O	1.058250	0.261810	-0.079787
O8	O	1.558250	0.761810	0.420213
O9	O	1.072128	-0.006673	0.079893
O10	O	1.572128	0.493327	0.579893
O11	O	0.933953	0.134739	0.079876
O12	O	1.433953	0.634739	0.579876
O13	O	1.196406	0.120395	0.079892
O14	O	1.696406	0.620395	0.579892
Zn15	Zn	1.065176	0.127566	0.105234
Zn16	Zn	1.565176	0.627566	0.605234
Zn17	Zn	1.065201	0.127570	-0.105127
Zn18	Zn	1.565201	0.627570	0.394873
O19	O	1.058231	0.261807	0.079875
O20	O	1.558231	0.761807	0.579875
C21	C	0.900373	0.134091	0.000043
C22	C	1.400373	0.634091	0.500043
C23	C	0.800289	0.132144	0.000037
C24	C	1.300289	0.632144	0.500037
C25	C	0.377110	0.123910	-0.086977
C26	C	0.877110	0.623910	0.413023
C27	C	0.377111	0.123907	0.087093
C28	C	0.877111	0.623907	0.587093
C29	C	0.471146	0.125736	0.087090
C30	C	0.971146	0.625736	0.587090
C31	C	0.518167	0.126653	0.000052
C32	C	1.018167	0.626653	0.500052
C33	C	0.471154	0.125741	-0.086983
C34	C	0.971154	0.625741	0.413017
C35	C	0.518165	0.126657	0.174123
C36	C	1.018165	0.626657	0.674123
C37	C	0.612206	0.128486	0.174123
C38	C	1.112206	0.628486	0.674123
C39	C	0.659229	0.129397	0.087084
C40	C	1.159229	0.629397	0.587084
C41	C	0.612210	0.128484	0.000046
C42	C	1.112210	0.628484	0.500046
C43	C	0.659232	0.129401	-0.086991
C44	C	1.159232	0.629401	0.413009
C45	C	0.612215	0.128482	-0.174031
C46	C	1.112215	0.628482	0.325969
C47	C	0.518178	0.126652	-0.174021
C48	C	1.018178	0.626652	0.325979
C49	C	0.753267	0.131227	0.087075
C50	C	1.253267	0.631227	0.587075
C51	C	0.753275	0.131232	-0.086997
C52	C	1.253275	0.631232	0.413003
C53	C	1.071486	-0.041031	0.000063
C54	C	1.571486	0.458969	0.500063
C55	C	1.069535	-0.143410	0.000063
C56	C	1.569535	0.356590	0.500063
C57	C	1.067949	-0.226554	0.000061
C58	C	1.567949	0.273446	0.500061
C59	C	1.065968	-0.330862	0.000053
C60	C	1.565968	0.169138	0.500053
C61	C	1.064396	-0.414000	0.000047
C62	C	1.564396	0.086000	0.500047
C63	C	1.062415	-0.518315	0.000041
C64	C	1.562415	-0.018315	0.500041
C65	C	1.230004	0.121046	0.000061
C66	C	1.730004	0.621046	0.500061
C67	C	1.330089	0.122993	0.000061
C68	C	1.830089	0.622993	0.500061
C69	C	1.058891	0.296168	0.000042
C70	C	1.558891	0.796168	0.500042
C71	C	1.060843	0.398547	0.000035
C72	C	1.560843	0.898547	0.500035
N73	N	1.065165	0.127563	0.248800
N74	N	1.565165	0.627563	0.748800
N75	N	1.065219	0.127566	-0.248693
N76	N	1.565219	0.627566	0.251307
C77	C	1.004015	0.190163	0.701062
C78	C	1.504015	0.690163	1.201062
C79	C	1.126412	0.064971	0.701046
C80	C	1.626412	0.564971	1.201046
C81	C	1.126402	0.064968	0.600551
C82	C	1.626402	0.564968	1.100551
C83	C	1.065198	0.127564	0.550306
C84	C	1.565198	0.627564	1.050306
C85	C	1.004004	0.190164	0.600557
C86	C	1.504004	0.690164	1.100557
C87	C	1.187600	0.002376	0.550292
C88	C	1.687600	0.502376	1.050292
C89	C	1.187593	0.002371	0.449790
C90	C	1.687593	0.502371	0.949790
C91	C	1.126383	0.064964	0.399544
C92	C	1.626383	0.564964	0.899544
C93	C	1.065187	0.127565	0.449801
C94	C	1.565187	0.627565	0.949801
C95	C	1.003983	0.190162	0.399556
C96	C	1.503983	0.690162	0.899556
C97	C	0.942781	0.252760	0.449811
C98	C	1.442781	0.752760	0.949811
C99	C	0.942795	0.252757	0.550310
C100	C	1.442795	0.752757	1.050310
C101	C	1.126369	0.064967	0.299045
C102	C	1.626369	0.564967	0.799045
C103	C	1.003972	0.190163	0.299051
C104	C	1.503972	0.690163	0.799051
H105	H	0.791543	0.131984	0.157941
H106	H	1.291543	0.631984	0.657941
Br107	Br	1.270669	-0.082566	0.618478
Br108	Br	1.770669	0.417434	1.118478
Br109	Br	0.313311	0.122630	-0.205096
Br110	Br	0.813311	0.622630	0.294904
Br111	Br	1.209481	-0.019971	0.769232
Br112	Br	1.709481	0.480029	1.269232
H113	H	0.479888	0.125903	-0.244884
H114	H	0.979888	0.625903	0.255116
H115	H	0.338819	0.123167	0.157955
H116	H	0.838819	0.623167	0.657955
Br117	Br	0.920953	0.275108	0.769258
Br118	Br	1.420953	0.775108	1.269258
H119	H	0.892968	0.303723	0.591234
H120	H	1.392968	0.803723	1.091234
Br121	Br	1.209430	-0.019973	0.230847
Br122	Br	1.709430	0.480027	0.730847
H123	H	1.237425	-0.048600	0.408879
H124	H	1.737425	0.451400	0.908879
H125	H	0.650511	0.129235	-0.244897
H126	H	1.150511	0.629235	0.255103
Br127	Br	0.454345	0.125428	0.292238
Br128	Br	0.954345	0.625428	0.792238
Br129	Br	0.817084	0.132466	-0.205126
Br130	Br	1.317084	0.632466	0.294874
Br131	Br	0.920897	0.275113	0.230869
Br132	Br	1.420897	0.775113	0.730869
H133	H	0.892952	0.303730	0.408890
H134	H	1.392952	0.803730	0.908890
Br135	Br	0.676006	0.129733	0.292244
Br136	Br	1.176006	0.629733	0.792244
