data_functionalizedCrystal
_audit_creation_method	'MofGen! by Chris Wilmer'
_symmetry_space_group_name_H-M	'P1'
_symmetry_Int_Tables_number	1
_symmetry_cell_setting	triclinic
loop_
_symmetry_equiv_pos_as_xyz
  x,y,z
_cell_length_a	15.944545
_cell_length_b	15.944493
_cell_length_c	13.596369
_cell_angle_alpha	89.999885
_cell_angle_beta	89.997458
_cell_angle_gamma	83.485608
loop_
_atom_site_label
_atom_site_type_symbol
_atom_site_fract_x
_atom_site_fract_y
_atom_site_fract_z
O1	O	1.114506	0.108311	-0.081715
O2	O	1.447839	0.441645	0.251619
O3	O	1.781172	0.774978	0.584952
O4	O	0.869953	0.121673	-0.081729
O5	O	1.203286	0.455007	0.251604
O6	O	1.536619	0.788340	0.584938
O7	O	0.998933	-0.007286	-0.081730
O8	O	1.332266	0.326047	0.251604
O9	O	1.665599	0.659381	0.584937
O10	O	0.985526	0.237271	-0.081714
O11	O	1.318859	0.570604	0.251619
O12	O	1.652192	0.903937	0.584953
O13	O	0.998920	-0.007293	0.081853
O14	O	1.332253	0.326041	0.415187
O15	O	1.665587	0.659374	0.748520
O16	O	0.869940	0.121667	0.081854
O17	O	1.203273	0.455000	0.415187
O18	O	1.536606	0.788333	0.748521
O19	O	1.114493	0.108304	0.081868
O20	O	1.447826	0.441638	0.415202
O21	O	1.781160	0.774971	0.748535
Zn22	Zn	0.992214	0.114984	0.107833
Zn23	Zn	1.325548	0.448318	0.441167
Zn24	Zn	1.658881	0.781651	0.774500
Zn25	Zn	0.992231	0.114993	-0.107694
Zn26	Zn	1.325565	0.448327	0.225639
Zn27	Zn	1.658898	0.781660	0.558972
O28	O	0.985513	0.237264	0.081869
O29	O	1.318846	0.570597	0.415202
O30	O	1.652179	0.903931	0.748535
C31	C	0.838652	0.121116	0.000060
C32	C	1.171986	0.454450	0.333394
C33	C	1.505319	0.787783	0.666727
C34	C	0.745406	0.119456	0.000054
C35	C	1.078740	0.452789	0.333388
C36	C	1.412073	0.786123	0.666721
C37	C	0.474791	0.034560	0.000059
C38	C	0.808125	0.367893	0.333392
C39	C	1.141458	0.701227	0.666726
C40	C	0.525358	0.075487	0.080719
C41	C	0.858691	0.408820	0.414052
C42	C	1.192025	0.742153	0.747386
C43	C	0.409764	0.113535	0.000071
C44	C	0.743097	0.446868	0.333404
C45	C	1.076430	0.780202	0.666737
C46	C	0.525351	0.075515	-0.080561
C47	C	0.858685	0.408848	0.252773
C48	C	1.192018	0.742181	0.586106
C49	C	0.574677	0.116440	0.000061
C50	C	0.908010	0.449773	0.333394
C51	C	1.241343	0.783107	0.666728
C52	C	0.459102	0.154441	0.080797
C53	C	0.792436	0.487774	0.414131
C54	C	1.125769	0.821107	0.747464
C55	C	0.459092	0.154457	-0.080555
C56	C	0.792425	0.487790	0.252778
C57	C	1.125759	0.821124	0.586111
C58	C	0.509626	0.195442	0.000124
C59	C	0.842959	0.528775	0.333458
C60	C	1.176293	0.862108	0.666791
C61	C	0.314762	0.111859	0.000077
C62	C	0.648095	0.445193	0.333410
C63	C	0.981429	0.778526	0.666744
C64	C	0.669676	0.118122	0.000062
C65	C	1.003009	0.451455	0.333395
C66	C	1.336342	0.784788	0.666728
C67	C	0.998378	-0.038584	0.000058
C68	C	1.331712	0.294749	0.333391
C69	C	1.665045	0.628083	0.666724
C70	C	0.996735	-0.131833	0.000045
C71	C	1.330069	0.201501	0.333378
C72	C	1.663402	0.534834	0.666712
C73	C	1.072656	-0.367594	0.000068
C74	C	1.405990	-0.034261	0.333401
C75	C	1.739323	0.299072	0.666735
C76	C	1.031721	-0.418158	-0.080589
C77	C	1.365055	-0.084825	0.252745
C78	C	1.698388	0.248509	0.586078
C79	C	0.993691	-0.302554	0.000057
C80	C	1.327025	0.030780	0.333390
C81	C	1.660358	0.364113	0.666723
C82	C	1.031690	-0.418141	0.080691
C83	C	1.365024	-0.084808	0.414024
C84	C	1.698357	0.248526	0.747358
C85	C	0.990757	-0.467463	0.000073
C86	C	1.324090	-0.134130	0.333406
C87	C	1.657424	0.199203	0.666739
C88	C	0.952778	-0.351889	-0.080667
C89	C	1.286111	-0.018556	0.252667
C90	C	1.619445	0.314777	0.586000
C91	C	0.952758	-0.351869	0.080686
C92	C	1.286092	-0.018535	0.414019
C93	C	1.619425	0.314798	0.747352
C94	C	0.911766	-0.402400	0.000009
C95	C	1.245099	-0.069066	0.333343
C96	C	1.578432	0.264267	0.666676
C97	C	0.995384	-0.207554	0.000047
C98	C	1.328718	0.125780	0.333380
C99	C	1.662051	0.459113	0.666714
C100	C	0.989058	-0.562460	0.000075
C101	C	1.322391	-0.229127	0.333409
C102	C	1.655725	0.104206	0.666742
C103	C	1.145793	0.108862	0.000077
C104	C	1.479127	0.442195	0.333410
C105	C	1.812460	0.775528	0.666743
C106	C	1.239039	0.110522	0.000076
C107	C	1.572373	0.443855	0.333410
C108	C	1.905706	0.777189	0.666743
C109	C	0.986067	0.268562	0.000079
C110	C	1.319400	0.601895	0.333413
C111	C	1.652734	0.935229	0.666746
C112	C	0.987710	0.361811	0.000086
C113	C	1.321043	0.695144	0.333419
C114	C	1.654377	1.028477	0.666752
N115	N	0.992209	0.114978	0.254925
N116	N	1.325542	0.448311	0.588258
N117	N	1.658876	0.781644	0.921592
N118	N	0.992243	0.114993	-0.254786
N119	N	1.325577	0.448327	0.078547
N120	N	1.658910	0.781660	0.411881
C121	C	0.992230	0.114994	0.656216
C122	C	1.325563	0.448328	0.989549
C123	C	1.658897	0.781661	1.322883
C124	C	0.992222	0.114993	0.544565
C125	C	1.325555	0.448326	0.877898
C126	C	1.658888	0.781659	1.211231
C127	C	0.992220	0.114987	0.455574
C128	C	1.325553	0.448320	0.788908
C129	C	1.658887	0.781653	1.122241
C130	C	0.992211	0.114984	0.343916
C131	C	1.325544	0.448317	0.677249
C132	C	1.658877	0.781650	1.010582
H133	H	0.430144	0.187784	-0.148745
H134	H	0.763477	0.521117	0.184588
H135	H	1.096811	0.854451	0.517922
H136	H	0.843695	-0.417864	-0.000039
H137	H	1.177028	-0.084531	0.333294
H138	H	1.510361	0.248803	0.666628
N139	N	0.420933	0.198572	0.171231
N140	N	0.754267	0.531905	0.504564
N141	N	1.087600	0.865239	0.837898
H142	H	0.467051	0.219696	0.212162
H143	H	0.800385	0.553029	0.545495
H144	H	1.133718	0.886363	0.878829
H145	H	0.379159	0.247845	0.150706
H146	H	0.712493	0.581178	0.484040
H147	H	1.045826	0.914512	0.817373
N148	N	0.530121	0.285605	0.000174
N149	N	0.863454	0.618938	0.333507
N150	N	1.196788	0.952271	0.666841
H151	H	0.505775	0.315322	0.061120
H152	H	0.839109	0.648655	0.394454
H153	H	1.172442	0.981989	0.727787
H154	H	0.593394	0.286174	-0.000444
H155	H	0.926727	0.619507	0.332890
H156	H	1.260060	0.952841	0.666223
H157	H	1.065075	-0.447102	-0.148775
H158	H	1.398408	-0.113768	0.184558
H159	H	1.731741	0.219565	0.517892
H160	H	0.554281	0.042151	-0.148748
H161	H	0.887614	0.375484	0.184585
H162	H	1.220948	0.708817	0.517919
H163	H	1.065049	-0.447076	0.148876
H164	H	1.398383	-0.113742	0.482209
H165	H	1.731716	0.219591	0.815542
H166	H	0.554290	0.042130	0.148906
H167	H	0.887624	0.375464	0.482240
H168	H	1.220957	0.708797	0.815573
N169	N	1.162752	-0.346893	-0.000021
N170	N	1.496085	-0.013560	0.333312
N171	N	1.829418	0.319773	0.666646
H172	H	1.192487	-0.371142	-0.061003
H173	H	1.525820	-0.037808	0.272331
H174	H	1.859153	0.295525	0.605664
H175	H	1.163178	-0.283603	0.000640
H176	H	1.496511	0.049730	0.333973
H177	H	1.829845	0.383063	0.667306
H178	H	0.919454	-0.323066	-0.148928
H179	H	1.252788	0.010267	0.184405
H180	H	1.586121	0.343601	0.517738
H181	H	0.919434	-0.322910	0.148874
H182	H	1.252767	0.010423	0.482208
H183	H	1.586101	0.343757	0.815541
H184	H	0.459152	-0.033454	0.000133
H185	H	0.792485	0.299879	0.333467
H186	H	1.125819	0.633213	0.666800
