data_functionalizedCrystal
_audit_creation_method	'MofGen! by Chris Wilmer'
_symmetry_space_group_name_H-M	'P1'
_symmetry_Int_Tables_number	1
_symmetry_cell_setting	triclinic
loop_
_symmetry_equiv_pos_as_xyz
  x,y,z
_cell_length_a	25.639242
_cell_length_b	25.639239
_cell_length_c	25.639233
_cell_angle_alpha	89.981253
_cell_angle_beta	89.977834
_cell_angle_gamma	90.034213
loop_
_atom_site_label
_atom_site_type_symbol
_atom_site_fract_x
_atom_site_fract_y
_atom_site_fract_z
Zn1	Zn	0.799225	-0.208277	-0.295742
Zn2	Zn	1.299225	0.291723	0.204258
Zn3	Zn	0.799149	-0.295696	-0.208307
Zn4	Zn	1.299149	0.204304	0.291693
Zn5	Zn	0.711801	-0.208269	-0.208306
Zn6	Zn	1.211801	0.291731	0.291694
Zn7	Zn	0.711746	-0.295676	-0.295696
Zn8	Zn	1.211746	0.204324	0.204304
O9	O	0.755480	-0.251979	-0.252013
O10	O	1.255480	0.248021	0.247987
O11	O	0.872380	-0.219884	-0.284163
O12	O	1.372380	0.280116	0.215837
O13	O	0.787553	-0.284103	-0.135141
O14	O	1.287553	0.215897	0.364859
O15	O	0.723453	-0.135105	-0.219924
O16	O	1.223453	0.364895	0.280076
O17	O	0.872324	-0.284111	-0.219924
O18	O	1.372324	0.215889	0.280076
O19	O	0.787683	-0.135111	-0.284163
O20	O	1.287683	0.364889	0.215837
O21	O	0.723379	-0.219871	-0.135141
O22	O	1.223379	0.280129	0.364859
O23	O	0.638629	-0.219853	-0.219880
O24	O	1.138629	0.280147	0.280120
O25	O	0.723360	-0.284078	-0.368868
O26	O	1.223360	0.215922	0.131132
O27	O	0.638589	-0.284070	-0.284085
O28	O	1.138589	0.215930	0.215915
O29	O	0.787630	-0.219866	-0.368901
O30	O	1.287630	0.280134	0.131099
O31	O	0.787499	-0.368858	-0.219880
O32	O	1.287499	0.131142	0.280120
O33	O	0.723286	-0.368844	-0.284085
O34	O	1.223286	0.131156	0.215915
C35	C	0.619638	-0.251959	-0.251977
C36	C	1.119638	0.248041	0.248023
C37	C	0.561524	-0.251963	-0.251975
C38	C	1.061524	0.248037	0.248025
C39	C	0.201149	-0.285473	-0.285413
C40	C	0.701149	0.214527	0.214587
C41	C	0.146544	-0.285477	-0.285421
C42	C	0.646544	0.214523	0.214579
O43	O	0.118297	-0.313943	-0.313821
O44	O	0.618297	0.186057	0.186179
N45	N	0.119241	-0.251994	-0.252047
N46	N	0.619241	0.248006	0.247953
C47	C	0.146545	-0.218502	-0.218666
C48	C	0.646545	0.281498	0.281334
O49	O	0.118308	-0.190022	-0.190280
O50	O	0.618308	0.309978	0.309720
C51	C	0.201149	-0.218496	-0.218661
C52	C	0.701149	0.281504	0.281339
C53	C	0.228449	-0.251985	-0.252034
C54	C	0.728449	0.248015	0.247966
C55	C	0.228449	-0.318959	-0.318783
C56	C	0.728449	0.181041	0.181217
C57	C	0.283049	-0.318956	-0.318774
C58	C	0.783049	0.181044	0.181226
C59	C	0.310350	-0.285468	-0.285395
C60	C	0.810350	0.214532	0.214605
C61	C	0.283049	-0.251983	-0.252024
C62	C	0.783049	0.248017	0.247976
C63	C	0.228452	-0.185002	-0.185283
C64	C	0.728452	0.314998	0.314717
C65	C	0.283059	-0.185000	-0.185281
C66	C	0.783059	0.315000	0.314719
C67	C	0.310359	-0.218488	-0.218654
C68	C	0.810359	0.281512	0.281346
C69	C	0.364950	-0.218492	-0.218636
C70	C	0.864950	0.281508	0.281364
N71	N	0.392253	-0.251974	-0.252010
N72	N	0.892253	0.248026	0.247990
C73	C	0.364953	-0.285463	-0.285389
C74	C	0.864953	0.214537	0.214611
C75	C	0.031875	-0.218515	-0.218680
C76	C	0.531875	0.281485	0.281320
C77	C	-0.022728	-0.218523	-0.218683
C78	C	0.477272	0.281477	0.281317
C79	C	-0.022725	-0.285497	-0.285438
C80	C	0.477275	0.214503	0.214562
C81	C	0.031878	-0.285492	-0.285433
C82	C	0.531878	0.214508	0.214567
C83	C	0.059178	-0.251998	-0.252054
C84	C	0.559178	0.248002	0.247946
C85	C	0.479618	-0.285455	-0.285368
C86	C	0.979618	0.214545	0.214632
C87	C	0.534223	-0.285451	-0.285354
C88	C	1.034223	0.214549	0.214646
C89	C	0.534216	-0.218475	-0.218601
C90	C	1.034216	0.281525	0.281399
C91	C	0.479615	-0.218481	-0.218612
C92	C	0.979615	0.281519	0.281388
C93	C	0.452318	-0.251972	-0.252000
C94	C	0.952318	0.248028	0.248000
O95	O	0.393232	-0.190038	-0.190252
O96	O	0.893232	0.309962	0.309748
O97	O	0.393197	-0.313933	-0.313776
O98	O	0.893197	0.186067	0.186224
C99	C	0.755392	-0.387822	-0.251989
C100	C	1.255392	0.112178	0.248011
C101	C	0.755403	-0.445936	-0.251996
C102	C	1.255403	0.054064	0.248004
C103	C	0.789004	-0.806294	-0.218638
C104	C	1.289004	-0.306294	0.281362
C105	C	0.789024	-0.860898	-0.218645
C106	C	1.289024	-0.360898	0.281355
O107	O	0.817502	-0.889131	-0.190257
O108	O	1.317502	-0.389131	0.309743
N109	N	0.755572	-0.888218	-0.252048
N110	N	1.255572	-0.388218	0.247952
C111	C	0.722102	-0.860932	-0.285449
C112	C	1.222102	-0.360932	0.214551
O113	O	0.693651	-0.889184	-0.313861
O114	O	1.193651	-0.389184	0.186139
C115	C	0.722085	-0.806328	-0.285444
C116	C	1.222085	-0.306328	0.214556
C117	C	0.755535	-0.779011	-0.252036
C118	C	1.255535	-0.279011	0.247964
C119	C	0.822452	-0.778976	-0.185233
C120	C	1.322452	-0.278976	0.314767
C121	C	0.822431	-0.724376	-0.185226
C122	C	1.322431	-0.224376	0.314774
C123	C	0.788962	-0.697093	-0.218623
C124	C	1.288962	-0.197093	0.281377
C125	C	0.755514	-0.724410	-0.252028
C126	C	1.255514	-0.224410	0.247972
C127	C	0.688617	-0.779042	-0.318847
C128	C	1.188617	-0.279042	0.181153
C129	C	0.688603	-0.724435	-0.318840
C130	C	1.188603	-0.224435	0.181160
C131	C	0.722053	-0.697118	-0.285432
C132	C	1.222053	-0.197118	0.214568
C133	C	0.722024	-0.642527	-0.285418
C134	C	1.222024	-0.142527	0.214582
N135	N	0.755475	-0.615206	-0.252016
N136	N	1.255475	-0.115206	0.247984
C137	C	0.788944	-0.642490	-0.218618
C138	C	1.288944	-0.142490	0.281382
C139	C	0.722141	-0.975602	-0.285457
C140	C	1.222141	-0.475602	0.214543
C141	C	0.722155	-1.030204	-0.285459
C142	C	1.222155	-0.530204	0.214541
C143	C	0.789078	-1.030167	-0.218656
C144	C	1.289078	-0.530167	0.281344
C145	C	0.789061	-0.975564	-0.218652
C146	C	1.289061	-0.475564	0.281348
C147	C	0.755593	-0.948282	-0.252055
C148	C	1.255593	-0.448282	0.247945
C149	C	0.788897	-0.527824	-0.218605
C150	C	1.288897	-0.027824	0.281395
C151	C	0.788872	-0.473219	-0.218599
C152	C	1.288872	0.026781	0.281401
C153	C	0.721951	-0.473261	-0.285403
C154	C	1.221951	0.026739	0.214597
C155	C	0.721974	-0.527862	-0.285408
C156	C	1.221974	-0.027862	0.214592
C157	C	0.755452	-0.555142	-0.252007
C158	C	1.255452	-0.055142	0.247993
O159	O	0.693562	-0.614260	-0.313793
O160	O	1.193562	-0.114260	0.186207
O161	O	0.817396	-0.614231	-0.190216
O162	O	1.317396	-0.114231	0.309784
C163	C	0.891853	-0.252000	-0.252049
C164	C	1.391853	0.248000	0.247951
C165	C	0.949967	-0.252009	-0.252064
C166	C	1.449967	0.247991	0.247936
C167	C	0.755497	-0.251970	-0.388386
C168	C	1.255497	0.248030	0.111614
C169	C	0.755504	-0.251966	-0.446500
C170	C	1.255504	0.248034	0.053500
C171	C	0.755583	-0.115606	-0.252048
C172	C	1.255583	0.384394	0.247952
C173	C	0.755627	-0.057492	-0.252064
C174	C	1.255627	0.442508	0.247936
C175	C	0.789012	-0.218432	-0.806886
C176	C	1.289012	0.281568	-0.306886
C177	C	0.789019	-0.218417	-0.861491
C178	C	1.289019	0.281583	-0.361491
O179	O	0.817466	-0.189967	-0.889747
O180	O	1.317466	0.310033	-0.389747
N181	N	0.755562	-0.251844	-0.888783
N182	N	1.255562	0.248156	-0.388783
C183	C	0.722093	-0.285283	-0.861468
C184	C	1.222093	0.214717	-0.361468
O185	O	0.693636	-0.313713	-0.889695
O186	O	1.193636	0.186287	-0.389695
C187	C	0.722084	-0.285294	-0.806864
C188	C	1.222084	0.214706	-0.306864
C189	C	0.755547	-0.251870	-0.779575
C190	C	1.255547	0.248130	-0.279575
C191	C	0.822472	-0.185009	-0.779597
C192	C	1.322472	0.314991	-0.279597
C193	C	0.822466	-0.185025	-0.724997
C194	C	1.322466	0.314975	-0.224997
C195	C	0.789000	-0.218462	-0.697685
C196	C	1.289000	0.281538	-0.197685
C197	C	0.755541	-0.251885	-0.724974
C198	C	1.255541	0.248115	-0.224974
C199	C	0.688613	-0.318731	-0.779550
C200	C	1.188613	0.181269	-0.279550
C201	C	0.688607	-0.318739	-0.724943
C202	C	1.188607	0.181261	-0.224943
C203	C	0.722069	-0.285314	-0.697654
C204	C	1.222069	0.214686	-0.197654
C205	C	0.722070	-0.285338	-0.643063
C206	C	1.222070	0.214662	-0.143063
N207	N	0.755526	-0.251912	-0.615771
N208	N	1.255526	0.248088	-0.115771
C209	C	0.788992	-0.218474	-0.643082
C210	C	1.288992	0.281526	-0.143082
C211	C	0.722113	-0.285256	-0.976138
C212	C	1.222113	0.214744	-0.476138
C213	C	0.722124	-0.285247	-1.030741
C214	C	1.222124	0.214753	-0.530741
C215	C	0.789049	-0.218381	-1.030760
C216	C	1.289049	0.281619	-0.530760
C217	C	0.789041	-0.218392	-0.976157
C218	C	1.289041	0.281608	-0.476157
C219	C	0.755570	-0.251829	-0.948846
C220	C	1.255570	0.248171	-0.448846
C221	C	0.788977	-0.218509	-0.528417
C222	C	1.288977	0.281491	-0.028417
C223	C	0.788970	-0.218529	-0.473811
C224	C	1.288970	0.281471	0.026189
C225	C	0.722043	-0.285393	-0.473797
C226	C	1.222043	0.214607	0.026203
C227	C	0.722052	-0.285375	-0.528397
C228	C	1.222052	0.214625	-0.028397
C229	C	0.755521	-0.251929	-0.555706
C230	C	1.255521	0.248071	-0.055706
O231	O	0.693635	-0.313773	-0.614771
O232	O	1.193635	0.186227	-0.114771
O233	O	0.817439	-0.190044	-0.614847
O234	O	1.317439	0.309956	-0.114847
C235	C	0.755494	-0.251951	-0.116170
C236	C	1.255494	0.248049	0.383830
C237	C	0.755588	-0.251807	-0.058057
C238	C	1.255588	0.248193	0.441943
H239	H	0.206233	-0.157734	-0.158106
H240	H	0.706233	0.342266	0.341894
O241	O	0.855052	-0.805399	-0.152814
O242	O	1.355052	-0.305399	0.347186
C243	C	0.944029	-0.821989	-0.127560
C244	C	1.444029	-0.321989	0.372440
C245	C	0.907159	-0.792040	-0.164306
C246	C	1.407159	-0.292040	0.335694
H247	H	0.986165	-0.811207	-0.136846
H248	H	1.486165	-0.311207	0.363154
H249	H	0.934917	-0.811254	-0.085385
H250	H	1.434917	-0.311254	0.414615
H251	H	0.938296	-0.865712	-0.133269
H252	H	1.438296	-0.365712	0.366731
H253	H	0.912870	-0.748310	-0.158643
H254	H	1.412870	-0.248310	0.341357
H255	H	0.916280	-0.802819	-0.206467
H256	H	1.416280	-0.302819	0.293533
O257	O	0.854879	-0.697763	-0.152793
O258	O	1.354879	-0.197763	0.347207
C259	C	0.884546	-0.613636	-0.123193
C260	C	1.384546	-0.113636	0.376807
C261	C	0.847760	-0.643705	-0.159941
C262	C	1.347760	-0.143705	0.340059
H263	H	0.878811	-0.569925	-0.128966
H264	H	1.378811	-0.069925	0.371034
H265	H	0.875398	-0.624363	-0.081014
H266	H	1.375398	-0.124363	0.418986
H267	H	0.926695	-0.624365	-0.132419
H268	H	1.426695	-0.124365	0.367581
H269	H	0.805599	-0.632992	-0.150762
H270	H	1.305599	-0.132992	0.349238
H271	H	0.856953	-0.632976	-0.202109
H272	H	1.356953	-0.132976	0.297891
H273	H	0.816221	-0.191310	-0.451595
H274	H	1.316221	0.308690	0.048405
H275	H	0.694881	-0.312471	-1.052955
H276	H	1.194881	0.187529	-0.552955
O277	O	0.689467	-0.317855	-0.447323
O278	O	1.189467	0.182145	0.052677
C279	C	0.600513	-0.343218	-0.430565
C280	C	1.100513	0.156782	0.069435
C281	C	0.637346	-0.306428	-0.460585
C282	C	1.137346	0.193572	0.039415
H283	H	0.558364	-0.333986	-0.441268
H284	H	1.058364	0.166014	0.058732
H285	H	0.609626	-0.385382	-0.441315
H286	H	1.109626	0.114618	0.058685
H287	H	0.606282	-0.337499	-0.386853
H288	H	1.106282	0.162501	0.113147
H289	H	0.631596	-0.312101	-0.504304
H290	H	1.131596	0.187899	-0.004304
H291	H	0.628224	-0.264278	-0.449792
H292	H	1.128224	0.235722	0.050208
H293	H	0.694857	-0.312487	-0.953905
H294	H	1.194857	0.187513	-0.453905
H295	H	0.457387	-0.191213	-0.191436
H296	H	0.957387	0.308787	0.308564
H297	H	0.206227	-0.346229	-0.345967
H298	H	0.706227	0.153771	0.154033
O299	O	0.656054	-0.351214	-0.805969
O300	O	1.156054	0.148786	-0.305969
C301	C	0.589685	-0.417547	-0.800163
C302	C	1.089685	0.082453	-0.300163
C303	C	0.626526	-0.380777	-0.770180
C304	C	1.126526	0.119223	-0.270180
H305	H	0.565809	-0.441466	-0.771241
H306	H	1.065809	0.058534	-0.271241
H307	H	0.562331	-0.393556	-0.825705
H308	H	1.062331	0.106444	-0.325705
H309	H	0.613671	-0.444868	-0.825747
H310	H	1.113671	0.055132	-0.325747
H311	H	0.602581	-0.353449	-0.744568
H312	H	1.102581	0.146551	-0.244568
H313	H	0.653880	-0.404801	-0.744671
H314	H	1.153880	0.095199	-0.244671
O315	O	0.689471	-0.446808	-0.317920
O316	O	1.189471	0.053192	0.182080
C317	C	0.664069	-0.430048	-0.406833
C318	C	1.164069	0.069952	0.093167
C319	C	0.700870	-0.460051	-0.370062
C320	C	1.200870	0.039949	0.129938
H321	H	0.673279	-0.440736	-0.448998
H322	H	1.173279	0.059264	0.051002
H323	H	0.621907	-0.440830	-0.397661
H324	H	1.121907	0.059170	0.102339
H325	H	0.669800	-0.386334	-0.401059
H326	H	1.169800	0.113666	0.098941
H327	H	0.695185	-0.503772	-0.375815
H328	H	1.195185	-0.003772	0.124185
H329	H	0.743018	-0.449226	-0.379243
H330	H	1.243018	0.050774	0.120757
O331	O	0.058415	-0.185928	-0.186323
O332	O	0.558415	0.314072	0.313677
C333	C	0.120112	-0.115338	-0.179394
C334	C	0.620112	0.384662	0.320606
C335	C	0.090084	-0.152202	-0.216097
C336	C	0.590084	0.347798	0.283903
H337	H	0.145732	-0.088068	-0.203451
H338	H	0.645732	0.411932	0.296549
H339	H	0.091238	-0.091373	-0.155552
H340	H	0.591238	0.408627	0.344448
H341	H	0.145626	-0.139311	-0.151997
H342	H	0.645626	0.360689	0.348003
H343	H	0.064570	-0.128269	-0.243525
H344	H	0.564570	0.371731	0.256475
H345	H	0.118986	-0.176168	-0.239902
H346	H	0.618986	0.323832	0.260098
H347	H	0.816300	-0.953325	-0.191448
H348	H	1.316300	-0.453325	0.308552
H349	H	0.816298	-0.191153	-1.053007
H350	H	1.316298	0.308847	-0.553007
H351	H	0.054103	-0.312760	-0.312609
H352	H	0.554103	0.187240	0.187391
H353	H	0.661345	-0.345963	-0.702710
H354	H	1.161345	0.154037	-0.202710
H355	H	0.849714	-0.157806	-0.702783
H356	H	1.349714	0.342194	-0.202783
H357	H	0.816333	-1.052391	-0.191464
H358	H	1.316333	-0.552391	0.308536
H359	H	0.661350	-0.702225	-0.346042
H360	H	1.161350	-0.202225	0.153958
O361	O	0.821539	-0.186005	-0.554859
O362	O	1.321539	0.313995	-0.054859
C363	C	0.887902	-0.119668	-0.549100
C364	C	1.387902	0.380332	-0.049100
C365	C	0.851058	-0.156457	-0.519091
C366	C	1.351058	0.343543	-0.019091
H367	H	0.911770	-0.095761	-0.520195
H368	H	1.411770	0.404239	-0.020195
H369	H	0.915262	-0.143644	-0.574655
H370	H	1.415262	0.356356	-0.074655
H371	H	0.863918	-0.092337	-0.574674
H372	H	1.363918	0.407663	-0.074674
H373	H	0.875000	-0.183795	-0.493489
H374	H	1.375000	0.316205	0.006511
H375	H	0.823696	-0.132449	-0.493569
H376	H	1.323696	0.367551	0.006431
H377	H	0.457399	-0.312726	-0.312556
H378	H	0.957399	0.187274	0.187444
O379	O	0.855034	-0.152510	-0.806042
O380	O	1.355034	0.347490	-0.306042
C381	C	0.921397	-0.086175	-0.800279
C382	C	1.421397	0.413825	-0.300279
C383	C	0.884550	-0.122961	-0.770272
C384	C	1.384550	0.377039	-0.270272
H385	H	0.945263	-0.062267	-0.771373
H386	H	1.445263	0.437733	-0.271373
H387	H	0.948760	-0.110152	-0.825830
H388	H	1.448760	0.389848	-0.325830
H389	H	0.897417	-0.058844	-0.825857
H390	H	1.397417	0.441156	-0.325857
H391	H	0.908488	-0.150299	-0.744666
H392	H	1.408488	0.349701	-0.244666
H393	H	0.857186	-0.098951	-0.744754
H394	H	1.357186	0.401049	-0.244754
O395	O	0.689641	-1.056657	-0.317957
O396	O	1.189641	-0.556657	0.182043
C397	C	0.623239	-1.050915	-0.384193
C398	C	1.123239	-0.550915	0.115807
C399	C	0.660042	-1.020896	-0.347421
C400	C	1.160042	-0.520896	0.152579
H401	H	0.599291	-1.022016	-0.408016
H402	H	1.099291	-0.522016	0.091984
H403	H	0.647207	-1.076428	-0.411599
H404	H	1.147207	-0.576428	0.088401
H405	H	0.595947	-1.076531	-0.360156
H406	H	1.095947	-0.576531	0.139844
H407	H	0.687341	-0.995252	-0.371415
H408	H	1.187341	-0.495252	0.128585
H409	H	0.636042	-0.995416	-0.320014
H410	H	1.136042	-0.495416	0.179986
O411	O	0.309484	-0.351500	-0.351245
O412	O	0.809484	0.148500	0.148755
C413	C	0.303703	-0.417948	-0.417439
C414	C	0.803703	0.082052	0.082561
C415	C	0.273706	-0.381109	-0.380697
C416	C	0.773706	0.118891	0.119303
H417	H	0.274790	-0.441904	-0.441252
H418	H	0.774790	0.058096	0.058748
H419	H	0.329277	-0.394008	-0.444855
H420	H	0.829277	0.105992	0.055145
H421	H	0.329256	-0.445230	-0.393379
H422	H	0.829256	0.054770	0.106621
H423	H	0.248125	-0.353819	-0.404714
H424	H	0.748125	0.146181	0.095286
H425	H	0.248165	-0.405082	-0.353279
H426	H	0.748165	0.094918	0.146721
O427	O	0.689697	-0.949079	-0.317957
O428	O	1.189697	-0.449079	0.182043
C429	C	0.682581	-0.887390	-0.388517
C430	C	1.182581	-0.387390	0.111483
C431	C	0.719382	-0.917400	-0.351752
C432	C	1.219382	-0.417400	0.148248
H433	H	0.706567	-0.861762	-0.415843
H434	H	1.206567	-0.361762	0.084157
H435	H	0.658687	-0.916276	-0.412427
H436	H	1.158687	-0.416276	0.087573
H437	H	0.655239	-0.861885	-0.364470
H438	H	1.155239	-0.361885	0.135530
H439	H	0.746756	-0.942905	-0.375759
H440	H	1.246756	-0.442905	0.124241
H441	H	0.743240	-0.888486	-0.327841
H442	H	1.243240	-0.388486	0.172159
O443	O	0.656108	-0.805489	-0.351352
O444	O	1.156108	-0.305489	0.148648
C445	C	0.589716	-0.799739	-0.417596
C446	C	1.089716	-0.299739	0.082404
C447	C	0.626516	-0.769725	-0.380817
C448	C	1.126516	-0.269725	0.119183
H449	H	0.565773	-0.770837	-0.441421
H450	H	1.065773	-0.270837	0.058579
H451	H	0.613685	-0.825252	-0.445000
H452	H	1.113685	-0.325252	0.055000
H453	H	0.562419	-0.825354	-0.393565
H454	H	1.062419	-0.325354	0.106435
H455	H	0.653820	-0.744081	-0.404807
H456	H	1.153820	-0.244081	0.095193
H457	H	0.602514	-0.744245	-0.353412
H458	H	1.102514	-0.244245	0.146588
O459	O	-0.049331	-0.317976	-0.317851
O460	O	0.450669	0.182024	0.182149
C461	C	-0.133456	-0.347675	-0.347421
C462	C	0.366544	0.152325	0.152579
C463	C	-0.103389	-0.310861	-0.310699
C464	C	0.396611	0.189139	0.189301
H465	H	-0.177167	-0.341943	-0.341643
H466	H	0.322833	0.158057	0.158357
H467	H	-0.122735	-0.338552	-0.389607
H468	H	0.377265	0.161448	0.110393
H469	H	-0.122720	-0.389816	-0.338171
H470	H	0.377280	0.110184	0.161829
H471	H	-0.114109	-0.268707	-0.319901
H472	H	0.385891	0.231293	0.180099
H473	H	-0.114113	-0.320028	-0.268524
H474	H	0.385887	0.179972	0.231476
H475	H	0.694738	-0.550105	-0.312613
H476	H	1.194738	-0.050105	0.187387
O477	O	0.560660	-0.185931	-0.186126
O478	O	1.060660	0.314069	0.313874
C479	C	0.554910	-0.119479	-0.119937
C480	C	1.054910	0.380521	0.380063
C481	C	0.524896	-0.156318	-0.156678
C482	C	1.024896	0.343682	0.343322
H483	H	0.526008	-0.095519	-0.096127
H484	H	1.026008	0.404481	0.403873
H485	H	0.580432	-0.143419	-0.092518
H486	H	1.080432	0.356581	0.407482
H487	H	0.580517	-0.092200	-0.143998
H488	H	1.080517	0.407800	0.356002
H489	H	0.499261	-0.183604	-0.132659
H490	H	0.999261	0.316396	0.367341
H491	H	0.499407	-0.132345	-0.184098
H492	H	0.999407	0.367655	0.315902
O493	O	0.309496	-0.152449	-0.152804
O494	O	0.809496	0.347551	0.347196
C495	C	0.303726	-0.085999	-0.086614
C496	C	0.803726	0.414001	0.413386
C497	C	0.273723	-0.122841	-0.123361
C498	C	0.773723	0.377159	0.376639
H499	H	0.274816	-0.062043	-0.062808
H500	H	0.774816	0.437957	0.437192
H501	H	0.329245	-0.109937	-0.059192
H502	H	0.829245	0.390063	0.440808
H503	H	0.329333	-0.058716	-0.110670
H504	H	0.829333	0.441284	0.389330
H505	H	0.248087	-0.150131	-0.099348
H506	H	0.748087	0.349869	0.400652
H507	H	0.248236	-0.098871	-0.150785
H508	H	0.748236	0.401129	0.349215
O509	O	0.821560	-0.185872	-0.949731
O510	O	1.321560	0.314128	-0.449731
C511	C	0.887964	-0.119572	-0.955528
C512	C	1.387964	0.380428	-0.455528
C513	C	0.851154	-0.156369	-0.985516
C514	C	1.351154	0.343631	-0.485516
H515	H	0.911908	-0.095718	-0.984448
H516	H	1.411908	0.404282	-0.484448
H517	H	0.864003	-0.092197	-0.929979
H518	H	1.364003	0.407803	-0.429979
H519	H	0.915259	-0.143592	-0.929952
H520	H	1.415259	0.356408	-0.429952
H521	H	0.823851	-0.132392	-1.011121
H522	H	1.323851	0.367608	-0.511121
H523	H	0.875148	-0.183746	-1.011033
H524	H	1.375148	0.316254	-0.511033
H525	H	0.816111	-0.450979	-0.191392
H526	H	1.316111	0.049021	0.308608
H527	H	0.694809	-0.312597	-0.550617
H528	H	1.194809	0.187403	-0.050617
O529	O	-0.049163	-0.185947	-0.186244
O530	O	0.450837	0.314053	0.313756
C531	C	-0.043387	-0.119540	-0.120009
C532	C	0.456613	0.380460	0.379991
C533	C	-0.013387	-0.156401	-0.156726
C534	C	0.486613	0.343599	0.343274
H535	H	-0.014476	-0.095651	-0.096127
H536	H	0.485524	0.404349	0.403873
H537	H	-0.068908	-0.092201	-0.144039
H538	H	0.431092	0.407799	0.355961
H539	H	-0.068993	-0.143512	-0.092651
H540	H	0.431007	0.356488	0.407349
H541	H	0.012247	-0.132471	-0.184091
H542	H	0.512247	0.367529	0.315909
H543	H	0.012101	-0.183742	-0.132664
H544	H	0.512101	0.316258	0.367336
H545	H	0.556449	-0.312723	-0.312530
H546	H	1.056449	0.187277	0.187470
H547	H	0.816159	-0.550030	-0.191408
H548	H	1.316159	-0.050030	0.308592
