data_functionalizedCrystal
_audit_creation_method	'MofGen! by Chris Wilmer'
_symmetry_space_group_name_H-M	'P1'
_symmetry_Int_Tables_number	1
_symmetry_cell_setting	triclinic
loop_
_symmetry_equiv_pos_as_xyz
  x,y,z
_cell_length_a	18.050591
_cell_length_b	29.839126
_cell_length_c	29.839131
_cell_angle_alpha	90.031806
_cell_angle_beta	89.968767
_cell_angle_gamma	89.974078
loop_
_atom_site_label
_atom_site_type_symbol
_atom_site_fract_x
_atom_site_fract_y
_atom_site_fract_z
Zn1	Zn	1.135293	-0.254057	0.178936
Zn2	Zn	1.468626	0.079277	0.512269
Zn3	Zn	1.801960	0.412610	0.845602
Zn4	Zn	1.135178	-0.178916	0.254056
Zn5	Zn	1.468511	0.154417	0.587389
Zn6	Zn	1.801844	0.487750	0.920723
Zn7	Zn	1.011101	-0.178931	0.178936
Zn8	Zn	1.344435	0.154402	0.512269
Zn9	Zn	1.677768	0.487736	0.845602
Zn10	Zn	1.011045	-0.254010	0.254034
Zn11	Zn	1.344378	0.079324	0.587367
Zn12	Zn	1.677712	0.412657	0.920701
O13	O	1.073154	-0.216478	0.216490
O14	O	1.406488	0.116855	0.549824
O15	O	1.739821	0.450188	0.883157
O16	O	1.239202	-0.244103	0.188910
O17	O	1.572536	0.089231	0.522243
O18	O	1.905869	0.422564	0.855576
O19	O	1.118694	-0.116051	0.244100
O20	O	1.452027	0.217282	0.577434
O21	O	1.785361	0.550615	0.910767
O22	O	1.027647	-0.188922	0.116069
O23	O	1.360981	0.144411	0.449402
O24	O	1.694314	0.477744	0.782735
O25	O	1.239118	-0.188898	0.244100
O26	O	1.572451	0.144436	0.577434
O27	O	1.905784	0.477769	0.910767
O28	O	1.118891	-0.244117	0.116068
O29	O	1.452224	0.089217	0.449402
O30	O	1.785557	0.422550	0.782735
O31	O	1.027536	-0.116062	0.188910
O32	O	1.360869	0.217271	0.522243
O33	O	1.694202	0.550605	0.855576
O34	O	0.907169	-0.188877	0.188888
O35	O	1.240503	0.144456	0.522222
O36	O	1.573836	0.477790	0.855555
O37	O	1.027551	-0.316883	0.244063
O38	O	1.360885	0.016450	0.577396
O39	O	1.694218	0.349784	0.910730
O40	O	0.907128	-0.244037	0.244063
O41	O	1.240461	0.089296	0.577396
O42	O	1.573795	0.422630	0.910730
O43	O	1.118836	-0.316918	0.188888
O44	O	1.452169	0.016416	0.522222
O45	O	1.785503	0.349749	0.855555
O46	O	1.118639	-0.188852	0.316920
O47	O	1.451973	0.144481	0.650254
O48	O	1.785306	0.477815	0.983587
O49	O	1.027440	-0.244023	0.316904
O50	O	1.360773	0.089311	0.650237
O51	O	1.694106	0.422644	0.983571
C52	C	0.880202	-0.216454	0.216474
C53	C	1.213535	0.116880	0.549807
C54	C	1.546869	0.450213	0.883140
C55	C	0.797656	-0.216454	0.216477
C56	C	1.130990	0.116880	0.549811
C57	C	1.464323	0.450213	0.883144
C58	C	0.598207	-0.186527	0.186439
C59	C	0.931540	0.146807	0.519772
C60	C	1.264873	0.480140	0.853105
C61	C	0.548777	-0.175463	0.227414
C62	C	0.882110	0.157870	0.560747
C63	C	1.215444	0.491203	0.894081
C64	C	0.646526	-0.216474	0.216491
C65	C	0.979859	0.116859	0.549824
C66	C	1.313193	0.450193	0.883158
C67	C	0.548874	-0.227536	0.175530
C68	C	0.882207	0.105797	0.508863
C69	C	1.215541	0.439131	0.842197
C70	C	0.500541	-0.216493	0.216500
C71	C	0.833874	0.116841	0.549834
C72	C	1.167208	0.450174	0.883167
C73	C	0.598184	-0.205389	0.257488
C74	C	0.931517	0.127944	0.590821
C75	C	1.264850	0.461277	0.924154
C76	C	0.598285	-0.257481	0.205576
C77	C	0.931618	0.075852	0.538909
C78	C	1.264951	0.409186	0.872243
C79	C	0.548877	-0.246433	0.246580
C80	C	0.882211	0.086900	0.579913
C81	C	1.215544	0.420233	0.913246
C82	C	0.730624	-0.216462	0.216485
C83	C	1.063958	0.116871	0.549818
C84	C	1.397291	0.450205	0.883151
C85	C	0.416444	-0.216505	0.216511
C86	C	0.749778	0.116829	0.549845
C87	C	1.083111	0.450162	0.883178
C88	C	1.073200	-0.333657	0.216473
C89	C	1.406534	-0.000324	0.549806
C90	C	1.739867	0.333010	0.883140
C91	C	1.073220	-0.383591	0.216466
C92	C	1.406553	-0.050258	0.549799
C93	C	1.739886	0.283075	0.883132
C94	C	1.025769	-0.693243	0.187683
C95	C	1.359102	-0.359910	0.521016
C96	C	1.692435	-0.026577	0.854350
C97	C	1.025790	-0.880916	0.187652
C98	C	1.359123	-0.547583	0.520985
C99	C	1.692456	-0.214250	0.854319
O100	O	0.985408	-0.905188	0.163225
O101	O	1.318741	-0.571855	0.496558
O102	O	1.652074	-0.238522	0.829891
N103	N	1.073255	-0.904377	0.216382
N104	N	1.406588	-0.571043	0.549715
N105	N	1.739922	-0.237710	0.883048
C106	C	1.120715	-0.880916	0.245123
C107	C	1.454049	-0.547582	0.578456
C108	C	1.787382	-0.214249	0.911790
O109	O	1.161083	-0.905176	0.269562
O110	O	1.494416	-0.571843	0.602895
O111	O	1.827749	-0.238510	0.936229
C112	C	1.120690	-0.693243	0.245156
C113	C	1.454023	-0.359910	0.578490
C114	C	1.787357	-0.026577	0.911823
C115	C	1.073227	-0.669786	0.216421
C116	C	1.406560	-0.336452	0.549755
C117	C	1.739893	-0.003119	0.883088
C118	C	0.978309	-0.669785	0.158951
C119	C	1.311642	-0.336452	0.492284
C120	C	1.644975	-0.003119	0.825618
C121	C	0.978307	-0.622870	0.158957
C122	C	1.311640	-0.289537	0.492291
C123	C	1.644973	0.043797	0.825624
C124	C	1.025765	-0.599412	0.187696
C125	C	1.359098	-0.266079	0.521029
C126	C	1.692431	0.067254	0.854362
C127	C	1.073225	-0.622870	0.216428
C128	C	1.406558	-0.289537	0.549761
C129	C	1.739891	0.043797	0.883094
C130	C	1.168146	-0.669783	0.273900
C131	C	1.501479	-0.336450	0.607233
C132	C	1.834812	-0.003117	0.940566
C133	C	1.168134	-0.622862	0.273906
C134	C	1.501467	-0.289529	0.607240
C135	C	1.834801	0.043804	0.940573
C136	C	1.120671	-0.599404	0.245171
C137	C	1.454004	-0.266071	0.578505
C138	C	1.787337	0.067262	0.911838
C139	C	1.120681	-0.552497	0.245173
C140	C	1.454014	-0.219164	0.578506
C141	C	1.787347	0.114170	0.911839
N142	N	1.073215	-0.529037	0.216443
N143	N	1.406549	-0.195703	0.549776
N144	N	1.739882	0.137630	0.883110
C145	C	1.025757	-0.552494	0.187705
C146	C	1.359091	-0.219161	0.521038
C147	C	1.692424	0.114172	0.854371
C148	C	1.120726	-0.979446	0.245103
C149	C	1.454060	-0.646113	0.578436
C150	C	1.787393	-0.312780	0.911770
C151	C	1.120734	-1.026364	0.245094
C152	C	1.454067	-0.693031	0.578428
C153	C	1.787400	-0.359698	0.911761
C154	C	1.025807	-1.026362	0.187624
C155	C	1.359140	-0.693028	0.520957
C156	C	1.692473	-0.359695	0.854290
C157	C	1.025804	-0.979443	0.187630
C158	C	1.359137	-0.646110	0.520964
C159	C	1.692470	-0.312776	0.854297
C160	C	1.073261	-0.955986	0.216373
C161	C	1.406594	-0.622653	0.549707
C162	C	1.739927	-0.289319	0.883040
C163	C	1.025757	-0.453969	0.187720
C164	C	1.359091	-0.120635	0.521053
C165	C	1.692424	0.212698	0.854386
C166	C	1.025762	-0.407049	0.187727
C167	C	1.359095	-0.073716	0.521061
C168	C	1.692428	0.259618	0.854394
C169	C	1.120685	-0.407056	0.245200
C170	C	1.454019	-0.073722	0.578533
C171	C	1.787352	0.259611	0.911866
C172	C	1.120684	-0.453971	0.245190
C173	C	1.454017	-0.120638	0.578524
C174	C	1.787351	0.212696	0.911857
C175	C	1.073214	-0.477426	0.216449
C176	C	1.406547	-0.144093	0.549782
C177	C	1.739881	0.189240	0.883116
O178	O	1.161036	-0.528196	0.269591
O179	O	1.494369	-0.194863	0.602924
O180	O	1.827702	0.138471	0.936257
O181	O	0.985384	-0.528226	0.163276
O182	O	1.318718	-0.194892	0.496610
O183	O	1.652051	0.138441	0.829943
C184	C	1.025770	-0.740159	0.187677
C185	C	1.359104	-0.406825	0.521010
C186	C	1.692437	-0.073492	0.854343
C187	C	1.073230	-0.763617	0.216409
C188	C	1.406564	-0.430283	0.549742
C189	C	1.739897	-0.096950	0.883075
C190	C	1.120689	-0.740159	0.245147
C191	C	1.454022	-0.406826	0.578480
C192	C	1.787355	-0.073492	0.911814
C193	C	1.073238	-0.810534	0.216400
C194	C	1.406571	-0.477201	0.549733
C195	C	1.739904	-0.143868	0.883067
C196	C	1.025780	-0.833992	0.187662
C197	C	1.359113	-0.500659	0.520995
C198	C	1.692446	-0.167325	0.854328
C199	C	0.978314	-0.810532	0.158932
C200	C	1.311648	-0.477199	0.492265
C201	C	1.644981	-0.143865	0.825599
C202	C	0.978312	-0.763616	0.158938
C203	C	1.311646	-0.430283	0.492272
C204	C	1.644979	-0.096950	0.825605
C205	C	1.168154	-0.763619	0.273877
C206	C	1.501487	-0.430286	0.607210
C207	C	1.834821	-0.096952	0.940543
C208	C	1.168153	-0.810535	0.273868
C209	C	1.501486	-0.477201	0.607201
C210	C	1.834819	-0.143868	0.940534
C211	C	1.120695	-0.833992	0.245129
C212	C	1.454028	-0.500659	0.578463
C213	C	1.787361	-0.167326	0.911796
C214	C	1.266860	-0.216504	0.216507
C215	C	1.600193	0.116830	0.549841
C216	C	1.933526	0.450163	0.883174
C217	C	1.349406	-0.216514	0.216515
C218	C	1.682739	0.116819	0.549848
C219	C	2.016072	0.450152	0.883181
C220	C	1.073041	-0.216441	0.333213
C221	C	1.406374	0.116893	0.666546
C222	C	1.739708	0.450226	0.999880
C223	C	1.073060	-0.216439	0.383147
C224	C	1.406394	0.116894	0.716481
C225	C	1.739727	0.450227	1.049814
C226	C	1.073151	-0.099756	0.216475
C227	C	1.406484	0.233577	0.549808
C228	C	1.739818	0.566911	0.883142
C229	C	1.073276	-0.049822	0.216356
C230	C	1.406609	0.283511	0.549689
C231	C	1.739942	0.616845	0.883023
C232	C	1.073288	-0.216526	0.099312
C233	C	1.406622	0.116807	0.432645
C234	C	1.739955	0.450140	0.765979
C235	C	1.073345	-0.216547	0.049378
C236	C	1.406679	0.116787	0.382711
C237	C	1.740012	0.450120	0.716044
C238	C	1.120654	-0.245259	0.692756
C239	C	1.453987	0.088074	1.026089
C240	C	1.787321	0.421407	1.359422
C241	C	1.120735	-0.245286	0.880429
C242	C	1.454068	0.088047	1.213762
C243	C	1.787401	0.421380	1.547096
O244	O	1.161090	-0.269762	0.904664
O245	O	1.494423	0.063572	1.237997
O246	O	1.827756	0.396905	1.571331
N247	N	1.073280	-0.216528	0.903932
N248	N	1.406614	0.116805	1.237266
N249	N	1.739947	0.450138	1.570599
C250	C	1.025799	-0.187764	0.880515
C251	C	1.359132	0.145570	1.213848
C252	C	1.692466	0.478903	1.547181
O253	O	0.985433	-0.163307	0.904812
O254	O	1.318766	0.170026	1.238146
O255	O	1.652099	0.503359	1.571479
C256	C	1.025715	-0.187739	0.692843
C257	C	1.359049	0.145594	1.026176
C258	C	1.692382	0.478927	1.359509
C259	C	1.073178	-0.216496	0.669342
C260	C	1.406511	0.116837	1.002675
C261	C	1.739845	0.450171	1.336008
C262	C	1.168112	-0.274014	0.669255
C263	C	1.501446	0.059320	1.002588
C264	C	1.834779	0.392653	1.335921
C265	C	1.168095	-0.274005	0.622339
C266	C	1.501428	0.059328	0.955673
C267	C	1.834761	0.392662	1.289006
C268	C	1.120619	-0.245242	0.598925
C269	C	1.453952	0.088092	0.932258
C270	C	1.787285	0.421425	1.265592
C271	C	1.073160	-0.216487	0.622426
C272	C	1.406494	0.116846	0.955759
C273	C	1.739827	0.450180	1.289093
C274	C	0.978231	-0.158977	0.669426
C275	C	1.311564	0.174356	1.002759
C276	C	1.644897	0.507689	1.336093
C277	C	0.978213	-0.158975	0.622505
C278	C	1.311546	0.174359	0.955838
C279	C	1.644879	0.507692	1.289172
C280	C	1.025675	-0.187731	0.599004
C281	C	1.359009	0.145602	0.932337
C282	C	1.692342	0.478935	1.265670
C283	C	1.025666	-0.187715	0.552096
C284	C	1.359000	0.145618	0.885430
C285	C	1.692333	0.478952	1.218763
N286	N	1.073121	-0.216473	0.528593
N287	N	1.406454	0.116860	0.861926
N288	N	1.739787	0.450194	1.195259
C289	C	1.120597	-0.245236	0.552007
C290	C	1.453930	0.088097	0.885340
C291	C	1.787264	0.421430	1.218674
C292	C	1.025847	-0.187778	0.979045
C293	C	1.359181	0.145555	1.312379
C294	C	1.692514	0.478889	1.645712
C295	C	1.025869	-0.187783	1.025963
C296	C	1.359202	0.145550	1.359297
C297	C	1.692536	0.478883	1.692630
C298	C	1.120804	-0.245307	1.025874
C299	C	1.454137	0.088027	1.359207
C300	C	1.787471	0.421360	1.692541
C301	C	1.120786	-0.245299	0.978955
C302	C	1.454119	0.088035	1.312289
C303	C	1.787452	0.421368	1.645622
C304	C	1.073302	-0.216536	0.955542
C305	C	1.406635	0.116797	1.288875
C306	C	1.739968	0.450131	1.622209
C307	C	1.120556	-0.245215	0.453481
C308	C	1.453890	0.088118	0.786815
C309	C	1.787223	0.421451	1.120148
C310	C	1.120537	-0.245203	0.406562
C311	C	1.453870	0.088131	0.739895
C312	C	1.787203	0.421464	1.073228
C313	C	1.025599	-0.187681	0.406655
C314	C	1.358933	0.145652	0.739988
C315	C	1.692266	0.478985	1.073322
C316	C	1.025621	-0.187692	0.453570
C317	C	1.358955	0.145641	0.786904
C318	C	1.692288	0.478974	1.120237
C319	C	1.073103	-0.216463	0.476982
C320	C	1.406436	0.116871	0.810316
C321	C	1.739769	0.450204	1.143649
O322	O	0.985327	-0.163256	0.527832
O323	O	1.318660	0.170077	0.861166
O324	O	1.651993	0.503411	1.194499
O325	O	1.160946	-0.269696	0.527702
O326	O	1.494279	0.063637	0.861035
O327	O	1.827612	0.396971	1.194368
C328	C	1.120672	-0.245268	0.739671
C329	C	1.454005	0.088065	1.073005
C330	C	1.787339	0.421399	1.406338
C331	C	1.073214	-0.216513	0.763172
C332	C	1.406547	0.116820	1.096506
C333	C	1.739880	0.450153	1.429839
C334	C	1.025737	-0.187750	0.739758
C335	C	1.359071	0.145583	1.073091
C336	C	1.692404	0.478917	1.406425
C337	C	1.073235	-0.216519	0.810090
C338	C	1.406569	0.116814	1.143424
C339	C	1.739902	0.450148	1.476757
C340	C	1.120711	-0.245282	0.833505
C341	C	1.454045	0.088051	1.166838
C342	C	1.787378	0.421385	1.500171
C343	C	1.168166	-0.274040	0.810001
C344	C	1.501499	0.059293	1.143334
C345	C	1.834832	0.392627	1.476668
C346	C	1.168148	-0.274031	0.763086
C347	C	1.501481	0.059302	1.096419
C348	C	1.834815	0.392635	1.429752
C349	C	0.978283	-0.158992	0.763262
C350	C	1.311616	0.174341	1.096595
C351	C	1.644950	0.507674	1.429928
C352	C	0.978305	-0.159003	0.810177
C353	C	1.311639	0.174330	1.143510
C354	C	1.644972	0.507664	1.476844
C355	C	1.025781	-0.187766	0.833591
C356	C	1.359115	0.145567	1.166925
C357	C	1.692448	0.478900	1.500258
H358	H	0.527032	-0.140793	0.236653
H359	H	0.860366	0.192541	0.569986
H360	H	1.193699	0.525874	0.903320
Cl361	Cl	1.180487	-0.281466	1.055318
Cl362	Cl	1.513821	0.051867	1.388651
Cl363	Cl	1.847154	0.385200	1.721984
H364	H	0.987111	-0.387952	0.164326
H365	H	1.320445	-0.054618	0.497659
H366	H	1.653778	0.278715	0.830993
Cl367	Cl	1.180397	-0.949964	0.281239
Cl368	Cl	1.513730	-0.616631	0.614572
Cl369	Cl	1.847063	-0.283298	0.947905
H370	H	0.527174	-0.236869	0.140890
H371	H	0.860508	0.096464	0.474224
H372	H	1.193841	0.429797	0.807557
H373	H	1.159215	-0.268646	0.472538
H374	H	1.492548	0.064687	0.805871
H375	H	1.825882	0.398021	1.139204
Cl376	Cl	0.966085	-0.483448	0.151584
Cl377	Cl	1.299419	-0.150115	0.484917
Cl378	Cl	1.632752	0.183219	0.818251
H379	H	1.206825	-0.297459	0.829073
H380	H	1.540159	0.035875	1.162406
H381	H	1.873492	0.369208	1.495740
Cl382	Cl	0.631481	-0.190893	0.310991
Cl383	Cl	0.964815	0.142440	0.644325
Cl384	Cl	1.298148	0.475774	0.977658
H385	H	0.987228	-0.164362	1.045094
H386	H	1.320561	0.168971	1.378427
H387	H	1.653895	0.502304	1.711761
Cl388	Cl	0.918630	-0.593387	0.122835
Cl389	Cl	1.251963	-0.260054	0.456168
Cl390	Cl	1.585297	0.073279	0.789501
H391	H	0.939656	-0.135582	0.829308
H392	H	1.272990	0.197752	1.162641
H393	H	1.606323	0.531085	1.495974
Cl394	Cl	0.631651	-0.147386	0.147243
Cl395	Cl	0.964984	0.185947	0.480576
Cl396	Cl	1.298317	0.519280	0.813910
Cl397	Cl	0.918630	-0.699267	0.122823
Cl398	Cl	1.251963	-0.365933	0.456157
Cl399	Cl	1.585296	-0.032600	0.789490
Cl400	Cl	0.515643	-0.285547	0.285867
Cl401	Cl	0.848977	0.047787	0.619200
Cl402	Cl	1.182310	0.381120	0.952533
H403	H	0.987179	-0.164355	0.959985
H404	H	1.320513	0.168978	1.293319
H405	H	1.653846	0.502312	1.626652
H406	H	0.987155	-0.960347	0.164232
H407	H	1.320489	-0.627013	0.497565
H408	H	1.653822	-0.293680	0.830898
H409	H	0.986979	-0.164273	0.472706
H410	H	1.320313	0.169061	0.806039
H411	H	1.653646	0.502394	1.139373
H412	H	1.206796	-0.297448	0.743954
H413	H	1.540130	0.035886	1.077288
H414	H	1.873463	0.369219	1.410621
H415	H	0.939675	-0.829639	0.135530
H416	H	1.273008	-0.496306	0.468864
H417	H	1.606342	-0.162973	0.802197
Cl418	Cl	0.918589	-0.122831	0.733834
Cl419	Cl	1.251922	0.210502	1.067167
Cl420	Cl	1.585256	0.543836	1.400500
Cl421	Cl	0.631884	-0.310996	0.191294
Cl422	Cl	0.965217	0.022338	0.524627
Cl423	Cl	1.298551	0.355671	0.857960
H424	H	1.159391	-1.045460	0.268488
H425	H	1.492725	-0.712126	0.601821
H426	H	1.826058	-0.378793	0.935155
H427	H	1.206741	-0.297422	0.603207
H428	H	1.540074	0.035911	0.936541
H429	H	1.873407	0.369244	1.269874
Cl430	Cl	0.966144	-1.055860	0.151496
Cl431	Cl	1.299478	-0.722527	0.484829
Cl432	Cl	1.632811	-0.389193	0.818163
Cl433	Cl	0.918515	-0.122813	0.593074
Cl434	Cl	1.251848	0.210520	0.926407
Cl435	Cl	1.585182	0.543853	1.259740
Cl436	Cl	1.180454	-0.281452	0.949416
Cl437	Cl	1.513787	0.051882	1.282749
Cl438	Cl	1.847120	0.385215	1.616083
H439	H	1.206795	-0.688875	0.297299
H440	H	1.540128	-0.355541	0.630632
H441	H	1.873462	-0.022208	0.963966
H442	H	1.206785	-0.603766	0.297310
H443	H	1.540118	-0.270433	0.630643
H444	H	1.873451	0.062901	0.963977
Cl445	Cl	1.227803	-0.310180	0.698681
Cl446	Cl	1.561136	0.023154	1.032015
Cl447	Cl	1.894470	0.356487	1.365348
H448	H	1.159341	-0.473071	0.268584
H449	H	1.492674	-0.139738	0.601917
H450	H	1.826007	0.193595	0.935250
Cl451	Cl	1.180347	-0.377557	0.281324
Cl452	Cl	1.513681	-0.044224	0.614657
Cl453	Cl	1.847014	0.289109	0.947990
Cl454	Cl	0.918640	-0.734134	0.122813
Cl455	Cl	1.251973	-0.400800	0.456147
Cl456	Cl	1.585306	-0.067467	0.789480
Cl457	Cl	1.227829	-0.840019	0.309994
Cl458	Cl	1.561162	-0.506685	0.643328
Cl459	Cl	1.894495	-0.173352	0.976661
Cl460	Cl	0.918556	-0.122826	0.698959
Cl461	Cl	1.251889	0.210508	1.032292
Cl462	Cl	1.585223	0.543841	1.365625
H463	H	0.986947	-0.164261	0.387584
H464	H	1.320280	0.169072	0.720917
H465	H	1.653613	0.502405	1.054250
H466	H	1.206798	-0.744525	0.297281
H467	H	1.540131	-0.411191	0.630614
H468	H	1.873465	-0.077858	0.963948
H469	H	1.159189	-0.268620	0.387428
H470	H	1.492522	0.064714	0.720762
H471	H	1.825856	0.398047	1.054095
