data_functionalizedCrystal
_audit_creation_method	'MofGen! by Chris Wilmer'
_symmetry_space_group_name_H-M	'P1'
_symmetry_Int_Tables_number	1
_symmetry_cell_setting	triclinic
loop_
_symmetry_equiv_pos_as_xyz
  x,y,z
_cell_length_a	21.295417
_cell_length_b	12.759401
_cell_length_c	12.759393
_cell_angle_alpha	90.021921
_cell_angle_beta	89.960780
_cell_angle_gamma	89.973601
loop_
_atom_site_label
_atom_site_type_symbol
_atom_site_fract_x
_atom_site_fract_y
_atom_site_fract_z
Zn1	Zn	-0.250641	-1.606140	-0.594023
Zn2	Zn	-0.355925	-1.605986	-0.418320
Zn3	Zn	-0.250666	-1.430442	-0.418352
Zn4	Zn	-0.355868	-1.430382	-0.593951
O5	O	-0.303275	-1.518237	-0.506161
O6	O	-0.264620	-1.753140	-0.570732
O7	O	-0.341996	-1.582660	-0.271303
O8	O	-0.162573	-1.453838	-0.441699
O9	O	-0.341972	-1.753027	-0.441644
O10	O	-0.162555	-1.582922	-0.570763
O11	O	-0.264663	-1.453689	-0.271326
O12	O	-0.264608	-1.283413	-0.441628
O13	O	-0.341876	-1.453736	-0.740981
O14	O	-0.341900	-1.283369	-0.570640
O15	O	-0.264565	-1.582864	-0.741034
O16	O	-0.444007	-1.582602	-0.441574
O17	O	-0.443965	-1.453586	-0.570609
C18	C	-0.303251	-1.245270	-0.506130
C19	C	-0.303256	-1.128493	-0.506142
C20	C	-0.466827	-1.518099	-0.506103
C21	C	-0.536795	-1.518137	-0.506113
C22	C	-0.262956	-1.073623	-0.439087
C23	C	-0.262967	-0.963899	-0.439096
C24	C	-0.343580	-0.963924	-0.573225
C25	C	-0.343572	-1.073647	-0.573210
C26	C	-0.240399	-0.813897	-0.315282
C27	C	-0.200089	-0.759023	-0.248235
C28	C	-0.138652	-0.794660	-0.232291
C29	C	-0.117513	-0.885169	-0.283409
C30	C	-0.157820	-0.940037	-0.350463
C31	C	-0.219265	-0.904401	-0.366387
C32	C	-0.366133	-1.223651	-0.697026
C33	C	-0.406438	-1.278521	-0.764086
C34	C	-0.467875	-1.242886	-0.780041
C35	C	-0.489012	-1.152374	-0.728942
C36	C	-0.448708	-1.097504	-0.661881
C37	C	-0.387271	-1.133146	-0.645925
C38	C	-0.569662	-1.585375	-0.438993
C39	C	-0.635405	-1.585424	-0.439017
C40	C	-0.668277	-1.518216	-0.506150
C41	C	-0.635402	-1.450974	-0.573282
C42	C	-0.569661	-1.450934	-0.573264
N43	N	-0.771538	-1.426309	-0.514149
N44	N	-0.833990	-1.426350	-0.514160
C45	C	-0.866352	-1.518334	-0.506210
N46	N	-0.833903	-1.610278	-0.498228
N47	N	-0.771446	-1.610236	-0.498211
C48	C	-0.739563	-1.518253	-0.506177
C49	C	-0.970505	-1.585631	-0.439112
C50	C	-1.036248	-1.585682	-0.439143
C51	C	-1.036245	-1.451222	-0.573403
C52	C	-0.970502	-1.451181	-0.573377
C53	C	-0.937636	-1.518384	-0.506226
C54	C	-0.139085	-1.518404	-0.506243
C55	C	-0.069117	-1.518475	-0.506277
C56	C	-0.303211	-1.518310	-0.780195
C57	C	-0.303184	-1.518342	-0.896971
C58	C	-0.303291	-0.792270	-0.506183
C59	C	-0.303276	-0.909047	-0.506167
C60	C	-0.262909	-1.451211	-0.951845
C61	C	-0.262890	-1.451235	-1.061569
C62	C	-0.343422	-1.585531	-1.061536
C63	C	-0.343444	-1.585500	-0.951814
C64	C	-0.240356	-1.327395	-1.211520
C65	C	-0.200072	-1.260273	-1.266397
C66	C	-0.138654	-1.244197	-1.230821
C67	C	-0.117509	-1.295258	-1.140368
C68	C	-0.157791	-1.362388	-1.085496
C69	C	-0.219217	-1.378444	-1.121071
C70	C	-0.365972	-1.709342	-0.801862
C71	C	-0.406250	-1.776478	-0.746988
C72	C	-0.467668	-1.792564	-0.782562
C73	C	-0.488811	-1.741522	-0.873018
C74	C	-0.448532	-1.674386	-0.927892
C75	C	-0.387115	-1.658297	-0.892310
C76	C	-0.303293	-1.518224	-0.233194
C77	C	-0.303143	-1.518397	-0.116418
H78	H	-0.140607	-1.013721	-0.392091
O79	O	-0.537640	-1.650560	-0.373805
C80	C	-0.436365	-1.710138	-0.314316
C81	C	-0.472553	-1.636245	-0.388175
H82	H	-0.383736	-1.698606	-0.325924
H83	H	-0.449296	-1.691737	-0.229564
H84	H	-0.449279	-1.794840	-0.332834
H85	H	-0.459658	-1.551518	-0.369752
H86	H	-0.459619	-1.654736	-0.472906
H87	H	-0.943744	-1.640355	-0.384437
O88	O	-0.667303	-1.385799	-0.638644
C89	C	-0.687327	-1.334678	-0.817313
C90	C	-0.651171	-1.408566	-0.743403
H91	H	-0.674287	-1.353043	-0.902025
H92	H	-0.739967	-1.346258	-0.805886
H93	H	-0.674458	-1.249970	-0.798730
H94	H	-0.663987	-1.493302	-0.761940
H95	H	-0.598540	-1.396895	-0.754844
O96	O	-0.386006	-1.366536	-0.813681
C97	C	-0.400537	-1.551930	-0.840246
C98	C	-0.423746	-1.452331	-0.784033
H99	H	-0.431030	-1.621325	-0.816280
H100	H	-0.403669	-1.540271	-0.928669
H101	H	-0.349694	-1.567938	-0.817348
H102	H	-0.474594	-1.436266	-0.806846
H103	H	-0.420567	-1.464039	-0.695622
O104	O	-0.137253	-1.412150	-0.997732
C105	C	-0.117850	-1.577709	-0.912889
C106	C	-0.141112	-1.521496	-1.012361
H107	H	-0.120975	-1.666123	-0.924674
H108	H	-0.067017	-1.554783	-0.896873
H109	H	-0.148382	-1.553823	-0.843441
H110	H	-0.110626	-1.545352	-1.081871
H111	H	-0.191954	-1.544424	-1.028286
H112	H	-0.105831	-0.749974	-0.177700
H113	H	-0.662170	-1.640181	-0.384360
O114	O	-1.068080	-1.651189	-0.373994
C115	C	-1.088068	-1.829985	-0.323249
C116	C	-1.051986	-1.755890	-0.397078
H117	H	-1.075079	-1.914652	-0.341901
H118	H	-1.075172	-1.811669	-0.238498
H119	H	-1.140706	-1.818482	-0.334741
H120	H	-0.999340	-1.767352	-0.385680
H121	H	-1.064934	-1.774225	-0.481803
H122	H	-0.067495	-1.282173	-1.111416
O123	O	-0.507017	-1.296041	-0.845321
C124	C	-0.570585	-1.289902	-1.001366
C125	C	-0.526252	-1.229597	-0.927542
H126	H	-0.586159	-1.236201	-1.067846
H127	H	-0.544947	-1.360690	-1.035247
H128	H	-0.613507	-1.317446	-0.955604
H129	H	-0.483321	-1.201982	-0.973230
H130	H	-0.551937	-1.158859	-0.893657
O131	O	-1.068266	-1.385974	-0.638521
C132	C	-1.169543	-1.326501	-0.698110
C133	C	-1.133353	-1.400427	-0.624285
H134	H	-1.222172	-1.338176	-0.686641
H135	H	-1.156718	-1.241762	-0.679581
H136	H	-1.156524	-1.344890	-0.782825
H137	H	-1.146353	-1.382133	-0.539544
H138	H	-1.146181	-1.485144	-0.642904
H139	H	-0.538822	-1.754625	-0.901988
H140	H	-0.217306	-0.685331	-0.206616
O141	O	-0.537633	-1.385710	-0.638429
C142	C	-0.436353	-1.326010	-0.697848
C143	C	-0.472547	-1.399948	-0.624015
H144	H	-0.383725	-1.337480	-0.686204
H145	H	-0.449176	-1.344424	-0.782609
H146	H	-0.449370	-1.241323	-0.679337
H147	H	-0.459550	-1.484659	-0.642432
H148	H	-0.459721	-1.381444	-0.539276
H149	H	-0.290369	-1.340466	-1.240487
O150	O	-0.938669	-1.385755	-0.638601
C151	C	-0.945605	-1.252436	-0.771808
C152	C	-0.981734	-1.326461	-0.697973
H153	H	-0.980407	-1.204493	-0.819844
H154	H	-0.914897	-1.197439	-0.723559
H155	H	-0.914756	-1.300637	-0.826735
H156	H	-1.012617	-1.278345	-0.643031
H157	H	-1.012402	-1.381461	-0.746286
O158	O	-0.223875	-1.385817	-0.898616
C159	C	-0.193289	-1.207126	-0.865094
C160	C	-0.237542	-1.281070	-0.925419
H161	H	-0.204314	-1.122424	-0.886759
H162	H	-0.200224	-1.218543	-0.777234
H163	H	-0.142531	-1.225684	-0.886687
H164	H	-0.288317	-1.262557	-0.903915
H165	H	-0.230553	-1.269639	-1.013265
H166	H	-0.290428	-0.784880	-0.328246
O167	O	-0.099611	-1.178927	-1.284225
C168	C	-0.087094	-1.063461	-1.432166
C169	C	-0.131376	-1.137333	-1.371768
H170	H	-0.112755	-1.029829	-1.502968
H171	H	-0.071611	-0.996805	-1.378577
H172	H	-0.044113	-1.109126	-1.459702
H173	H	-0.174387	-1.091759	-1.344223
H174	H	-0.146809	-1.203989	-1.425395
H175	H	-0.376200	-1.640210	-1.106203
O176	O	-0.469178	-1.624846	-1.015717
C177	C	-0.555304	-1.597307	-1.134979
C178	C	-0.532010	-1.653454	-1.035490
H179	H	-0.606101	-1.620432	-1.151009
H180	H	-0.552302	-1.508874	-1.123225
H181	H	-0.524729	-1.621104	-1.204405
H182	H	-0.562565	-1.629742	-0.966016
H183	H	-0.534997	-1.741875	-1.047334
H184	H	-0.315966	-1.696220	-0.772867
O185	O	-0.506722	-1.857784	-0.729110
C186	C	-0.519213	-1.973370	-0.581257
C187	C	-0.474923	-1.899525	-0.641672
H188	H	-0.493517	-2.007155	-0.510564
H189	H	-0.562186	-1.927763	-0.553581
H190	H	-0.534716	-2.039923	-0.634956
H191	H	-0.459372	-1.832958	-0.588037
H192	H	-0.431983	-1.945206	-0.669363
H193	H	-0.316107	-1.252679	-0.684033
O194	O	-0.548653	-1.117603	-0.744542
C195	C	-0.614596	-0.976317	-0.804460
C196	C	-0.547022	-1.015576	-0.786863
H197	H	-0.613301	-0.893816	-0.838658
H198	H	-0.639793	-1.031007	-0.861212
H199	H	-0.640724	-0.975046	-0.726457
H200	H	-0.520841	-1.016845	-0.864812
H201	H	-0.521873	-0.960875	-0.730064
H202	H	-0.389027	-1.818051	-0.673342
H203	H	-0.217294	-1.218699	-1.340044
H204	H	-0.230127	-1.118276	-0.384478
H205	H	-0.376403	-0.919255	-0.627831
O206	O	-0.057869	-0.919958	-0.267904
C207	C	0.008091	-1.061182	-0.207889
C208	C	-0.059488	-1.021919	-0.225421
H209	H	0.006804	-1.143613	-0.173520
H210	H	0.034237	-1.062580	-0.285875
H211	H	0.033264	-1.006377	-0.151222
H212	H	-0.084714	-1.076689	-0.282051
H213	H	-0.085587	-1.020495	-0.147393
H214	H	-0.465922	-1.023802	-0.620277
