data_functionalizedCrystal
_audit_creation_method	'MofGen! by Chris Wilmer'
_symmetry_space_group_name_H-M	'P1'
_symmetry_Int_Tables_number	1
_symmetry_cell_setting	triclinic
loop_
_symmetry_equiv_pos_as_xyz
  x,y,z
_cell_length_a	12.759395
_cell_length_b	13.897447
_cell_length_c	13.897441
_cell_angle_alpha	90.028354
_cell_angle_beta	90.017364
_cell_angle_gamma	90.021067
loop_
_atom_site_label
_atom_site_type_symbol
_atom_site_fract_x
_atom_site_fract_y
_atom_site_fract_z
Zn1	Zn	1.606201	-0.383954	0.545358
Zn2	Zn	1.606086	-0.545273	0.384063
Zn3	Zn	1.430509	-0.383998	0.384080
Zn4	Zn	1.430477	-0.545213	0.545319
O5	O	1.518318	-0.464609	0.464705
O6	O	1.753207	-0.405360	0.523971
O7	O	1.582761	-0.523923	0.249084
O8	O	1.453876	-0.249010	0.405497
O9	O	1.753123	-0.523880	0.405468
O10	O	1.582956	-0.248978	0.523987
O11	O	1.453765	-0.405435	0.249096
O12	O	1.283483	-0.405377	0.405459
O13	O	1.453821	-0.523778	0.680306
O14	O	1.283460	-0.523821	0.523921
O15	O	1.582925	-0.405302	0.680335
O16	O	1.582730	-0.680247	0.405431
O17	O	1.453710	-0.680202	0.523905
C18	C	1.245351	-0.464598	0.464688
C19	C	1.128574	-0.464616	0.464704
C20	C	1.128588	-0.588151	0.587859
C21	C	1.073734	-0.649926	0.649439
C22	C	0.964013	-0.649938	0.649451
C23	C	0.909142	-0.588166	0.587878
C24	C	0.963996	-0.526391	0.526298
C25	C	1.073720	-0.526388	0.526291
C26	C	0.963982	-0.402852	0.403149
C27	C	1.073704	-0.402844	0.403131
C28	C	0.909112	-0.341080	0.341577
C29	C	0.963965	-0.279308	0.279990
C30	C	1.073694	-0.279299	0.279980
C31	C	1.128557	-0.341068	0.341551
C32	C	1.518233	-0.715224	0.464683
C33	C	1.518292	-0.822438	0.464705
C34	C	1.518343	-0.909507	0.464727
C35	C	1.518417	-1.018740	0.464752
C36	C	1.792351	-0.464622	0.464722
C37	C	1.909128	-0.464627	0.464730
C38	C	1.518382	-0.464528	0.716298
C39	C	1.518410	-0.464494	0.823512
C40	C	1.518432	-0.213016	0.464749
C41	C	1.518481	-0.105802	0.464767
C42	C	1.518314	-0.464620	0.214091
C43	C	1.518491	-0.464383	0.106877
C44	C	1.518431	-0.464467	0.910582
C45	C	1.518461	-0.464423	1.019815
H46	H	0.819801	-0.588173	0.587901
H47	H	0.919351	-0.700236	0.699599
Cl48	Cl	1.266525	-0.588155	0.587835
Cl49	Cl	1.266494	-0.341067	0.341540
H50	H	0.819770	-0.341090	0.341595
Cl51	Cl	1.142643	-0.201629	0.202565
Cl52	Cl	1.142718	-0.727585	0.726834
Cl53	Cl	0.894981	-0.201654	0.202600
