data_functionalizedCrystal
_audit_creation_method	'MofGen! by Chris Wilmer'
_symmetry_space_group_name_H-M	'P1'
_symmetry_Int_Tables_number	1
_symmetry_cell_setting	triclinic
loop_
_symmetry_equiv_pos_as_xyz
  x,y,z
_cell_length_a	22.010155
_cell_length_b	14.853567
_cell_length_c	14.853567
_cell_angle_alpha	96.365070
_cell_angle_beta	90.008054
_cell_angle_gamma	90.005502
loop_
_atom_site_label
_atom_site_type_symbol
_atom_site_fract_x
_atom_site_fract_y
_atom_site_fract_z
O1	O	-0.050478	-1.196371	0.117692
O2	O	0.449522	-0.696371	0.617692
O3	O	-0.050488	-0.933912	0.131713
O4	O	0.449512	-0.433912	0.631713
O5	O	-0.050484	-1.072152	-0.006527
O6	O	0.449516	-0.572152	0.493473
O7	O	-0.050481	-1.058131	0.255932
O8	O	0.449519	-0.558131	0.755932
O9	O	0.050566	-1.072127	-0.006507
O10	O	0.550566	-0.572127	0.493493
O11	O	0.050563	-0.933887	0.131734
O12	O	0.550563	-0.433887	0.631734
O13	O	0.050572	-1.196346	0.117712
O14	O	0.550572	-0.696346	0.617712
Cu15	Cu	0.059794	-1.065114	0.124725
Cu16	Cu	0.559794	-0.565114	0.624725
Cu17	Cu	-0.059710	-1.065144	0.124700
Cu18	Cu	0.440290	-0.565144	0.624700
O19	O	0.050569	-1.058106	0.255953
O20	O	0.550569	-0.558106	0.755953
C21	C	0.000036	-0.900311	0.131088
C22	C	0.500036	-0.400311	0.631088
C23	C	0.000032	-0.800227	0.129184
C24	C	0.500032	-0.300227	0.629184
N25	N	0.143847	-1.065100	0.124742
N26	N	0.643847	-0.565100	0.624742
N27	N	-0.143762	-1.065165	0.124677
N28	N	0.356238	-0.565165	0.624677
C29	C	0.563627	-1.126360	0.063496
C30	C	1.063627	-0.626360	0.563496
C31	C	0.627235	-1.126365	0.063490
C32	C	1.127235	-0.626365	0.563490
O33	O	0.660128	-1.178414	0.011429
O34	O	1.160128	-0.678414	0.511429
N35	N	0.659054	-1.065143	0.124682
N36	N	1.159054	-0.565143	0.624682
C37	C	0.627261	-1.003908	0.185877
C38	C	1.127261	-0.503908	0.685877
O39	O	0.660166	-0.951834	0.237924
O40	O	1.160166	-0.451834	0.737924
C41	C	0.563655	-1.003900	0.185878
C42	C	1.063655	-0.503900	0.685878
C43	C	0.531840	-1.065131	0.124689
C44	C	1.031840	-0.565131	0.624689
C45	C	0.531812	-1.187586	0.002311
C46	C	1.031812	-0.687586	0.502311
C47	C	0.468209	-1.187583	0.002319
C48	C	0.968209	-0.687583	0.502319
C49	C	0.436421	-1.126354	0.063511
C50	C	0.936421	-0.626354	0.563511
C51	C	0.468236	-1.065128	0.124696
C52	C	0.968236	-0.565128	0.624696
C53	C	0.531864	-0.942661	0.247069
C54	C	1.031864	-0.442661	0.747069
C55	C	0.468253	-0.942658	0.247064
C56	C	0.968253	-0.442658	0.747064
C57	C	0.436438	-1.003889	0.185875
C58	C	0.936438	-0.503889	0.685875
C59	C	0.372845	-1.003896	0.185897
C60	C	0.872845	-0.503896	0.685897
N61	N	0.341027	-1.065117	0.124705
N62	N	0.841027	-0.565117	0.624705
C63	C	0.372815	-1.126346	0.063513
C64	C	0.872815	-0.626346	0.563513
C65	C	0.760839	-1.003928	0.185869
C66	C	1.260839	-0.503928	0.685869
C67	C	0.824445	-1.003939	0.185873
C68	C	1.324445	-0.503939	0.685873
C69	C	0.824414	-1.126395	0.063485
C70	C	1.324414	-0.626395	0.563485
C71	C	0.760807	-1.126387	0.063486
C72	C	1.260807	-0.626387	0.563486
C73	C	0.729021	-1.065149	0.124678
C74	C	1.229021	-0.565149	0.624678
C75	C	0.239243	-1.126335	0.063534
C76	C	0.739243	-0.626335	0.563534
C77	C	0.175634	-1.126329	0.063549
C78	C	0.675634	-0.626329	0.563549
C79	C	0.175671	-1.003870	0.185934
C80	C	0.675671	-0.503870	0.685934
C81	C	0.239274	-1.003879	0.185922
C82	C	0.739274	-0.503879	0.685922
C83	C	0.271059	-1.065115	0.124714
C84	C	0.771059	-0.565115	0.624714
O85	O	0.339912	-0.951870	0.237929
O86	O	0.839912	-0.451870	0.737929
O87	O	0.339902	-1.178403	0.011466
O88	O	0.839902	-0.678403	0.511466
C89	C	0.000039	-1.071504	-0.040106
C90	C	0.500039	-0.571504	0.459894
C91	C	0.000034	-1.069601	-0.140189
C92	C	0.500034	-0.569601	0.359811
C93	C	0.000047	-1.229947	0.118337
C94	C	0.500047	-0.729947	0.618337
C95	C	0.000047	-1.330031	0.120241
C96	C	0.500047	-0.830031	0.620241
C97	C	0.000045	-0.387693	0.039019
C98	C	0.500045	0.112307	0.539019
C99	C	0.000046	-0.366412	0.203251
C100	C	0.500046	0.133588	0.703251
C101	C	0.000044	-0.460446	0.205042
C102	C	0.500044	0.039554	0.705042
C103	C	0.000041	-0.518108	0.123819
C104	C	0.500041	-0.018108	0.623819
C105	C	0.000041	-0.481736	0.040806
C106	C	0.500041	0.018264	0.540806
C107	C	0.000039	-0.496825	0.288053
C108	C	0.500039	0.003175	0.788053
C109	C	0.000036	-0.590864	0.289846
C110	C	0.500036	-0.090864	0.789846
C111	C	0.000038	-0.648528	0.208623
C112	C	0.500038	-0.148528	0.708623
C113	C	0.000038	-0.612150	0.125607
C114	C	0.500038	-0.112150	0.625607
C115	C	0.000035	-0.669812	0.044384
C116	C	0.500035	-0.169812	0.544384
C117	C	0.000040	-0.633437	-0.038633
C118	C	0.500040	-0.133437	0.461367
C119	C	0.000043	-0.539399	-0.040417
C120	C	0.500043	-0.039399	0.459583
C121	C	0.000035	-0.742565	0.210407
C122	C	0.500035	-0.242565	0.710407
C123	C	0.000031	-0.763855	0.046172
C124	C	0.500031	-0.263855	0.546172
C125	C	0.000042	-0.979435	-0.552723
C126	C	0.500042	-0.479435	-0.052723
C127	C	0.000048	-1.143668	-0.574004
C128	C	0.500048	-0.643668	-0.074004
C129	C	0.000044	-1.145458	-0.479970
C130	C	0.500044	-0.645458	0.020030
C131	C	0.000040	-1.064235	-0.422309
C132	C	0.500040	-0.564235	0.077691
C133	C	0.000040	-0.981223	-0.458680
C134	C	0.500040	-0.481223	0.041320
C135	C	0.000051	-1.228469	-0.443591
C136	C	0.500051	-0.728469	0.056409
C137	C	0.000048	-1.230262	-0.349552
C138	C	0.500048	-0.730262	0.150448
C139	C	0.000040	-1.149039	-0.291889
C140	C	0.500040	-0.649039	0.208111
C141	C	0.000039	-1.066023	-0.328266
C142	C	0.500039	-0.566023	0.171734
C143	C	0.000035	-0.984800	-0.270604
C144	C	0.500035	-0.484800	0.229396
C145	C	0.000030	-0.901783	-0.306979
C146	C	0.500030	-0.401783	0.193021
C147	C	0.000032	-0.899999	-0.401017
C148	C	0.500032	-0.399999	0.098983
C149	C	0.000037	-1.150823	-0.197851
C150	C	0.500037	-0.650823	0.302149
C151	C	0.000033	-0.986588	-0.176561
C152	C	0.500033	-0.486588	0.323439
C153	C	0.000044	-1.058754	0.289531
C154	C	0.500044	-0.558754	0.789531
C155	C	0.000046	-1.060657	0.389615
C156	C	0.500046	-0.560657	0.889615
H157	H	0.149732	-1.176194	0.013721
H158	H	0.649732	-0.676194	0.513721
Br159	Br	0.000026	-0.866774	-0.602086
Br160	Br	0.500026	-0.366774	-0.102086
H161	H	0.000031	-0.835652	-0.260019
H162	H	0.500031	-0.335652	0.239981
H163	H	0.000052	-1.297860	-0.319944
H164	H	0.500052	-0.797860	0.180056
Br165	Br	0.575029	-0.859557	0.330115
Br166	Br	1.075029	-0.359557	0.830115
H167	H	0.000061	-0.509774	-0.108005
H168	H	0.500061	-0.009774	0.391995
Br169	Br	0.425119	-0.859540	0.330112
Br170	Br	0.925119	-0.359540	0.830112
H171	H	0.000028	-0.832411	-0.430643
H172	H	0.500028	-0.332411	0.069357
Br173	Br	0.000059	-1.263479	-0.148487
Br174	Br	0.500059	-0.763479	0.351513
Br175	Br	0.000073	-1.338693	-0.521849
Br176	Br	0.500073	-0.838693	-0.021849
Br177	Br	0.000056	-0.338331	-0.073642
Br178	Br	0.500056	0.161669	0.426358
H179	H	0.000032	-0.810798	-0.019971
H180	H	0.500032	-0.310798	0.480029
Br181	Br	0.282369	-1.209441	-0.019535
Br182	Br	0.782369	-0.709441	0.480465
Br183	Br	0.000066	-1.253893	-0.652259
Br184	Br	0.500066	-0.753893	-0.152259
Br185	Br	0.425038	-1.270681	-0.080731
Br186	Br	0.925038	-0.770681	0.419269
Br187	Br	0.000030	-0.640223	0.402509
Br188	Br	0.500030	-0.140223	0.902509
Br189	Br	0.000029	-0.418568	0.398276
Br190	Br	0.500029	0.081432	0.898276
Br191	Br	0.000022	-0.791930	0.323063
Br192	Br	0.500022	-0.291930	0.823063
Br193	Br	0.574942	-1.270692	-0.080748
Br194	Br	1.074942	-0.770692	0.419252
Br195	Br	0.000021	-0.876351	-0.098312
Br196	Br	0.500021	-0.376351	0.401688
H197	H	0.149779	-0.954021	0.235759
H198	H	0.649779	-0.454021	0.735759
Br199	Br	0.867568	-1.209492	-0.019563
Br200	Br	1.367568	-0.709492	0.480437
Br201	Br	0.717636	-1.209490	-0.019560
Br202	Br	1.217636	-0.709490	0.480440
H203	H	0.734962	-0.954062	0.235706
H204	H	1.234962	-0.454062	0.735706
Br205	Br	0.282450	-0.920789	0.268979
Br206	Br	0.782450	-0.420789	0.768979
Br207	Br	0.000029	-0.711703	-0.148859
Br208	Br	0.500029	-0.211703	0.351141
Br209	Br	0.867615	-0.920851	0.268933
Br210	Br	1.367615	-0.420851	0.768933
H211	H	0.000043	-0.319459	0.269379
H212	H	0.500043	0.180541	0.769379
