data_functionalizedCrystal
_audit_creation_method	'MofGen! by Chris Wilmer'
_symmetry_space_group_name_H-M	'P1'
_symmetry_Int_Tables_number	1
_symmetry_cell_setting	triclinic
loop_
_symmetry_equiv_pos_as_xyz
  x,y,z
_cell_length_a	21.395364
_cell_length_b	18.215405
_cell_length_c	21.395355
_cell_angle_alpha	90.015775
_cell_angle_beta	90.024727
_cell_angle_gamma	90.020354
loop_
_atom_site_label
_atom_site_type_symbol
_atom_site_fract_x
_atom_site_fract_y
_atom_site_fract_z
Zn1	Zn	0.957897	-0.293102	0.354276
Zn2	Zn	1.207897	-0.043102	0.604276
Zn3	Zn	1.457897	0.206898	0.854276
Zn4	Zn	1.707897	0.456898	1.104276
Zn5	Zn	0.957815	-0.416151	0.249504
Zn6	Zn	1.207815	-0.166151	0.499504
Zn7	Zn	1.457815	0.083849	0.749504
Zn8	Zn	1.707815	0.333849	0.999504
Zn9	Zn	0.853112	-0.293099	0.249513
Zn10	Zn	1.103112	-0.043099	0.499513
Zn11	Zn	1.353112	0.206901	0.749513
Zn12	Zn	1.603112	0.456901	0.999513
Zn13	Zn	0.853097	-0.416128	0.354244
Zn14	Zn	1.103097	-0.166128	0.604244
Zn15	Zn	1.353097	0.083872	0.854244
Zn16	Zn	1.603097	0.333872	1.104244
O17	O	0.905480	-0.354620	0.301884
O18	O	1.155480	-0.104620	0.551884
O19	O	1.405480	0.145380	0.801884
O20	O	1.655480	0.395380	1.051884
O21	O	1.045564	-0.309436	0.340388
O22	O	1.295564	-0.059436	0.590388
O23	O	1.545564	0.190564	0.840388
O24	O	1.795564	0.440564	1.090388
O25	O	0.943898	-0.399835	0.161827
O26	O	1.193898	-0.149835	0.411827
O27	O	1.443898	0.100165	0.661827
O28	O	1.693898	0.350165	0.911827
O29	O	0.867052	-0.190115	0.263427
O30	O	1.117052	0.059885	0.513427
O31	O	1.367052	0.309885	0.763427
O32	O	1.617052	0.559885	1.013427
O33	O	1.045504	-0.399839	0.263412
O34	O	1.295504	-0.149839	0.513412
O35	O	1.545504	0.100161	0.763412
O36	O	1.795504	0.350161	1.013412
O37	O	0.944037	-0.190118	0.340397
O38	O	1.194037	0.059882	0.590397
O39	O	1.444037	0.309882	0.840397
O40	O	1.694037	0.559882	1.090397
O41	O	0.866973	-0.309430	0.161834
O42	O	1.116973	-0.059430	0.411834
O43	O	1.366973	0.190570	0.661834
O44	O	1.616973	0.440570	0.911834
O45	O	0.765432	-0.309408	0.263396
O46	O	1.015432	-0.059408	0.513396
O47	O	1.265432	0.190592	0.763396
O48	O	1.515432	0.440592	1.013396
O49	O	0.867027	-0.399800	0.441926
O50	O	1.117027	-0.149800	0.691926
O51	O	1.367027	0.100200	0.941926
O52	O	1.617027	0.350200	1.191926
O53	O	0.765421	-0.399797	0.340341
O54	O	1.015421	-0.149797	0.590341
O55	O	1.265421	0.100203	0.840341
O56	O	1.515421	0.350203	1.090341
O57	O	0.944023	-0.309414	0.441950
O58	O	1.194023	-0.059414	0.691950
O59	O	1.444023	0.190586	0.941950
O60	O	1.694023	0.440586	1.191950
O61	O	0.943884	-0.519132	0.263380
O62	O	1.193884	-0.269132	0.513380
O63	O	1.443884	-0.019132	0.763380
O64	O	1.693884	0.230868	1.013380
O65	O	0.866948	-0.519115	0.340332
O66	O	1.116948	-0.269115	0.590332
O67	O	1.366948	-0.019115	0.840332
O68	O	1.616948	0.230885	1.090332
C69	C	0.742693	-0.354600	0.301866
C70	C	0.992693	-0.104600	0.551866
C71	C	1.242693	0.145400	0.801866
C72	C	1.492693	0.395400	1.051866
C73	C	0.673051	-0.354610	0.301873
C74	C	0.923051	-0.104610	0.551873
C75	C	1.173051	0.145390	0.801873
C76	C	1.423051	0.395390	1.051873
C77	C	0.171266	-0.401772	0.341911
C78	C	0.421266	-0.151772	0.591911
C79	C	0.671266	0.098228	0.841911
C80	C	0.921266	0.348228	1.091911
C81	C	0.236701	-0.401772	0.341904
C82	C	0.486701	-0.151772	0.591904
C83	C	0.736701	0.098228	0.841904
C84	C	0.986701	0.348228	1.091904
C85	C	0.269413	-0.354636	0.301904
C86	C	0.519413	-0.104636	0.551904
C87	C	0.769413	0.145364	0.801904
C88	C	1.019413	0.395364	1.051904
C89	C	0.236684	-0.307510	0.261896
C90	C	0.486684	-0.057510	0.511896
C91	C	0.736684	0.192490	0.761896
C92	C	0.986684	0.442490	1.011896
C93	C	0.171250	-0.307516	0.261899
C94	C	0.421250	-0.057516	0.511899
C95	C	0.671250	0.192484	0.761899
C96	C	0.921250	0.442484	1.011899
C97	C	0.373093	-0.288313	0.297050
C98	C	0.623093	-0.038313	0.547050
C99	C	0.873093	0.211687	0.797050
C100	C	1.123093	0.461687	1.047050
C101	C	0.438526	-0.288306	0.297051
C102	C	0.688526	-0.038306	0.547051
C103	C	0.938526	0.211694	0.797051
C104	C	1.188526	0.461694	1.047051
C105	C	0.471234	-0.354617	0.301890
C106	C	0.721234	-0.104617	0.551890
C107	C	0.971234	0.145383	0.801890
C108	C	1.221234	0.395383	1.051890
C109	C	0.438500	-0.420937	0.306741
C110	C	0.688500	-0.170937	0.556741
C111	C	0.938500	0.079063	0.806741
C112	C	1.188500	0.329063	1.056741
C113	C	0.373066	-0.420944	0.306745
C114	C	0.623066	-0.170944	0.556745
C115	C	0.873066	0.079056	0.806745
C116	C	1.123066	0.329056	1.056745
C117	C	0.340365	-0.354624	0.301896
C118	C	0.590365	-0.104624	0.551896
C119	C	0.840365	0.145376	0.801896
C120	C	1.090365	0.395376	1.051896
C121	C	0.574908	-0.401744	0.341886
C122	C	0.824908	-0.151744	0.591886
C123	C	1.074908	0.098256	0.841886
C124	C	1.324908	0.348256	1.091886
C125	C	0.640344	-0.401745	0.341875
C126	C	0.890344	-0.151745	0.591875
C127	C	1.140344	0.098255	0.841875
C128	C	1.390344	0.348255	1.091875
C129	C	0.640326	-0.307476	0.261869
C130	C	0.890326	-0.057476	0.511869
C131	C	1.140326	0.192524	0.761869
C132	C	1.390326	0.442524	1.011869
C133	C	0.574890	-0.307482	0.261877
C134	C	0.824890	-0.057482	0.511877
C135	C	1.074890	0.192518	0.761877
C136	C	1.324890	0.442518	1.011877
C137	C	0.542185	-0.354614	0.301889
C138	C	0.792185	-0.104614	0.551889
C139	C	1.042185	0.145386	0.801889
C140	C	1.292185	0.395386	1.051889
C141	C	0.905422	-0.545826	0.301866
C142	C	1.155422	-0.295826	0.551866
C143	C	1.405422	-0.045826	0.801866
C144	C	1.655422	0.204174	1.051866
C145	C	0.905455	-0.627625	0.301879
C146	C	1.155455	-0.377625	0.551879
C147	C	1.405455	-0.127625	0.801879
C148	C	1.655455	0.122375	1.051879
C149	C	0.945578	-0.892626	0.342018
C150	C	1.195578	-0.642626	0.592018
C151	C	1.445578	-0.392626	0.842018
C152	C	1.695578	-0.142626	1.092018
C153	C	0.945557	-0.815768	0.342008
C154	C	1.195557	-0.565768	0.592008
C155	C	1.445557	-0.315768	0.842008
C156	C	1.695557	-0.065768	1.092008
C157	C	0.865462	-0.815872	0.261787
C158	C	1.115462	-0.565872	0.511787
C159	C	1.365462	-0.315872	0.761787
C160	C	1.615462	-0.065872	1.011787
C161	C	0.865487	-0.892730	0.261793
C162	C	1.115487	-0.642730	0.511793
C163	C	1.365487	-0.392730	0.761793
C164	C	1.615487	-0.142730	1.011793
C165	C	0.905544	-0.931105	0.301913
C166	C	1.155544	-0.681105	0.551913
C167	C	1.405544	-0.431105	0.801913
C168	C	1.655544	-0.181105	1.051913
C169	C	0.905498	-0.777389	0.301896
C170	C	1.155498	-0.527389	0.551896
C171	C	1.405498	-0.277389	0.801896
C172	C	1.655498	-0.027389	1.051896
C173	C	0.905475	-0.694055	0.301886
C174	C	1.155475	-0.444055	0.551886
C175	C	1.405475	-0.194055	0.801886
C176	C	1.655475	0.055945	1.051886
C177	C	0.905568	-1.014444	0.301923
C178	C	1.155568	-0.764444	0.551923
C179	C	1.405568	-0.514444	0.801923
C180	C	1.655568	-0.264444	1.051923
C181	C	1.068903	-0.354640	0.301903
C182	C	1.318903	-0.104640	0.551903
C183	C	1.568903	0.145360	0.801903
C184	C	1.818903	0.395360	1.051903
C185	C	1.138545	-0.354649	0.301911
C186	C	1.388545	-0.104649	0.551911
C187	C	1.638545	0.145351	0.801911
C188	C	1.888545	0.395351	1.051911
C189	C	0.905532	-0.354605	0.465307
C190	C	1.155532	-0.104605	0.715307
C191	C	1.405532	0.145395	0.965307
C192	C	1.655532	0.395395	1.215307
C193	C	0.905554	-0.354599	0.534949
C194	C	1.155554	-0.104599	0.784949
C195	C	1.405554	0.145401	1.034949
C196	C	1.655554	0.395401	1.284949
C197	C	0.905556	-0.162667	0.301916
C198	C	1.155556	0.087333	0.551916
C199	C	1.405556	0.337333	0.801916
C200	C	1.655556	0.587333	1.051916
C201	C	0.905588	-0.080868	0.301930
C202	C	1.155588	0.169132	0.551930
C203	C	1.405588	0.419132	0.801930
C204	C	1.655588	0.669132	1.051930
C205	C	0.905464	-0.354582	0.139097
C206	C	1.155464	-0.104582	0.389097
C207	C	1.405464	0.145418	0.639097
C208	C	1.655464	0.395418	0.889097
C209	C	0.905564	-0.354381	0.069456
C210	C	1.155564	-0.104381	0.319456
C211	C	1.405564	0.145619	0.569456
C212	C	1.655564	0.395619	0.819456
C213	C	0.945645	-0.307532	0.567675
C214	C	1.195645	-0.057532	0.817675
C215	C	1.445645	0.192468	1.067675
C216	C	1.695645	0.442468	1.317675
C217	C	0.945644	-0.307501	0.633111
C218	C	1.195644	-0.057501	0.883111
C219	C	1.445644	0.192499	1.133111
C220	C	1.695644	0.442499	1.383111
C221	C	0.905559	-0.354548	0.665817
C222	C	1.155559	-0.104548	0.915817
C223	C	1.405559	0.145452	1.165817
C224	C	1.655559	0.395452	1.415817
C225	C	0.865461	-0.401618	0.633083
C226	C	1.115461	-0.151618	0.883083
C227	C	1.365461	0.098382	1.133083
C228	C	1.615461	0.348382	1.383083
C229	C	0.865459	-0.401643	0.567648
C230	C	1.115459	-0.151643	0.817648
C231	C	1.365459	0.098357	1.067648
C232	C	1.615459	0.348357	1.317648
C233	C	0.900592	-0.420812	0.769485
C234	C	1.150592	-0.170812	1.019485
C235	C	1.400592	0.079188	1.269485
C236	C	1.650592	0.329188	1.519485
C237	C	0.900599	-0.420789	0.834918
C238	C	1.150599	-0.170789	1.084918
C239	C	1.400599	0.079211	1.334918
C240	C	1.650599	0.329211	1.584918
C241	C	0.905563	-0.354471	0.867638
C242	C	1.155563	-0.104471	1.117638
C243	C	1.405563	0.145529	1.367638
C244	C	1.655563	0.395529	1.617638
C245	C	0.910534	-0.288175	0.834917
C246	C	1.160534	-0.038175	1.084917
C247	C	1.410534	0.211825	1.334917
C248	C	1.660534	0.461825	1.584917
C249	C	0.910531	-0.288200	0.769482
C250	C	1.160531	-0.038200	1.019482
C251	C	1.410531	0.211800	1.269482
C252	C	1.660531	0.461800	1.519482
C253	C	0.905557	-0.354526	0.736770
C254	C	1.155557	-0.104526	0.986770
C255	C	1.405557	0.145474	1.236770
C256	C	1.655557	0.395474	1.486770
C257	C	0.945654	-0.307366	0.971317
C258	C	1.195654	-0.057366	1.221317
C259	C	1.445654	0.192634	1.471317
C260	C	1.695654	0.442634	1.721317
C261	C	0.945649	-0.307333	1.036754
C262	C	1.195649	-0.057333	1.286754
C263	C	1.445649	0.192667	1.536754
C264	C	1.695649	0.442667	1.786754
C265	C	0.865470	-0.401457	1.036724
C266	C	1.115470	-0.151457	1.286724
C267	C	1.365470	0.098543	1.536724
C268	C	1.615470	0.348543	1.786724
C269	C	0.865472	-0.401483	0.971289
C270	C	1.115472	-0.151483	1.221289
C271	C	1.365472	0.098517	1.471289
C272	C	1.615472	0.348517	1.721289
C273	C	0.905568	-0.354439	0.938589
C274	C	1.155568	-0.104439	1.188589
C275	C	1.405568	0.145561	1.438589
C276	C	1.655568	0.395561	1.688589
H277	H	0.346417	-0.474944	0.310693
H278	H	0.596417	-0.224944	0.560693
H279	H	0.846417	0.025056	0.810693
H280	H	1.096417	0.275056	1.060693
O281	O	0.988747	-0.774269	0.385258
O282	O	1.238747	-0.524269	0.635258
O283	O	1.488747	-0.274269	0.885258
O284	O	1.738747	-0.024269	1.135258
H285	H	0.977981	-0.788999	0.434425
H286	H	1.227981	-0.538999	0.684425
H287	H	1.477981	-0.288999	0.934425
H288	H	1.727981	-0.038999	1.184425
O289	O	0.271965	-0.256677	0.218748
O290	O	0.521965	-0.006677	0.468748
O291	O	0.771965	0.243323	0.718748
O292	O	1.021965	0.493323	0.968748
H293	H	0.238216	-0.223915	0.190927
H294	H	0.488216	0.026085	0.440927
H295	H	0.738216	0.276085	0.690927
H296	H	0.988216	0.526085	0.940927
O297	O	0.822254	-0.774483	0.218521
O298	O	1.072254	-0.524483	0.468521
O299	O	1.322254	-0.274483	0.718521
O300	O	1.572254	-0.024483	0.968521
H301	H	0.828957	-0.714575	0.225257
H302	H	1.078957	-0.464575	0.475257
H303	H	1.328957	-0.214575	0.725257
H304	H	1.578957	0.035425	0.975257
H305	H	0.914577	-0.234172	0.861555
H306	H	1.164577	0.015828	1.111555
H307	H	1.414577	0.265828	1.361555
H308	H	1.664577	0.515828	1.611555
O309	O	0.822304	-0.934232	0.218532
O310	O	1.072304	-0.684232	0.468532
O311	O	1.322304	-0.434232	0.718532
O312	O	1.572304	-0.184232	0.968532
H313	H	0.850380	-0.969230	0.186683
H314	H	1.100380	-0.719230	0.436683
H315	H	1.350380	-0.469230	0.686683
H316	H	1.600380	-0.219230	0.936683
H317	H	0.978293	-0.269224	0.541055
H318	H	1.228293	-0.019224	0.791055
H319	H	1.478293	0.230776	1.041055
H320	H	1.728293	0.480776	1.291055
O321	O	0.988885	-0.256560	1.072057
O322	O	1.238885	-0.006560	1.322057
O323	O	1.488885	0.243440	1.572057
O324	O	1.738885	0.493440	1.822057
H325	H	1.020743	-0.289490	1.101892
H326	H	1.270743	-0.039490	1.351892
H327	H	1.520743	0.210510	1.601892
H328	H	1.770743	0.460510	1.851892
O329	O	0.337822	-0.216786	0.291818
O330	O	0.587822	0.033214	0.541818
O331	O	0.837822	0.283214	0.791818
O332	O	1.087822	0.533214	1.041818
H333	H	0.286823	-0.227932	0.292625
H334	H	0.536823	0.022068	0.542625
H335	H	0.786823	0.272068	0.792625
H336	H	1.036823	0.522068	1.042625
O337	O	0.539618	-0.452580	0.385027
O338	O	0.789618	-0.202580	0.635027
O339	O	1.039618	0.047420	0.885027
O340	O	1.289618	0.297420	1.135027
H341	H	0.509779	-0.489964	0.356923
H342	H	0.759779	-0.239964	0.606923
H343	H	1.009779	0.010036	0.856923
H344	H	1.259779	0.260036	1.106923
H345	H	0.896555	-0.474771	0.861555
H346	H	1.146555	-0.224771	1.111555
H347	H	1.396555	0.025229	1.361555
H348	H	1.646555	0.275229	1.611555
H349	H	0.978289	-0.269170	0.659762
H350	H	1.228289	-0.019170	0.909762
H351	H	1.478289	0.230830	1.159762
H352	H	1.728289	0.480830	1.409762
H353	H	0.832826	-0.439757	1.063353
H354	H	1.082826	-0.189757	1.313353
H355	H	1.332826	0.060243	1.563353
H356	H	1.582826	0.310243	1.813353
O357	O	0.473771	-0.492464	0.311960
O358	O	0.723771	-0.242464	0.561960
O359	O	0.973771	0.007536	0.811960
O360	O	1.223771	0.257536	1.061960
H361	H	0.440017	-0.538577	0.315338
H362	H	0.690017	-0.288577	0.565338
H363	H	0.940017	-0.038577	0.815338
H364	H	1.190017	0.211423	1.065338
O365	O	0.675642	-0.452570	0.385022
O366	O	0.925642	-0.202570	0.635022
O367	O	1.175642	0.047430	0.885022
O368	O	1.425642	0.297430	1.135022
H369	H	0.641904	-0.485336	0.412848
H370	H	0.891904	-0.235336	0.662848
H371	H	1.141904	0.014664	0.912848
H372	H	1.391904	0.264664	1.162848
H373	H	0.896382	-0.474802	0.742851
H374	H	1.146382	-0.224802	0.992851
H375	H	1.396382	0.025198	1.242851
H376	H	1.646382	0.275198	1.492851
O377	O	0.822204	-0.452393	0.532344
O378	O	1.072204	-0.202393	0.782344
O379	O	1.322204	0.047607	1.032344
O380	O	1.572204	0.297607	1.282344
H381	H	0.794324	-0.485099	0.566077
H382	H	1.044324	-0.235099	0.816077
H383	H	1.294324	0.014901	1.066077
H384	H	1.544324	0.264901	1.316077
O385	O	0.675597	-0.256633	0.218725
O386	O	0.925597	-0.006633	0.468725
O387	O	1.175597	0.243367	0.718725
O388	O	1.425597	0.493367	0.968725
H389	H	0.726595	-0.264542	0.225445
H390	H	0.976595	-0.014542	0.475445
H391	H	1.226595	0.235458	0.725445
H392	H	1.476595	0.485458	0.975445
O393	O	0.473821	-0.216773	0.291816
O394	O	0.723821	0.033227	0.541816
O395	O	0.973821	0.283227	0.791816
O396	O	1.223821	0.533227	1.041816
H397	H	0.503650	-0.209315	0.333800
H398	H	0.753650	0.040685	0.583800
H399	H	1.003650	0.290685	0.833800
H400	H	1.253650	0.540685	1.083800
O401	O	0.822223	-0.452360	0.668354
O402	O	1.072223	-0.202360	0.918354
O403	O	1.322223	0.047640	1.168354
O404	O	1.572223	0.297640	1.418354
H405	H	0.850249	-0.489801	0.698175
H406	H	1.100249	-0.239801	0.948175
H407	H	1.350249	0.010199	1.198175
H408	H	1.600249	0.260199	1.448175
H409	H	0.548248	-0.269107	0.229307
H410	H	0.798248	-0.019107	0.479307
H411	H	1.048248	0.230893	0.729307
H412	H	1.298248	0.480893	0.979307
H413	H	0.914577	-0.234219	0.742843
H414	H	1.164577	0.015781	0.992843
H415	H	1.414577	0.265781	1.242843
H416	H	1.664577	0.515781	1.492843
H417	H	0.978299	-0.269056	0.944692
H418	H	1.228299	-0.019056	1.194692
H419	H	1.478299	0.230944	1.444692
H420	H	1.728299	0.480944	1.694692
H421	H	0.978193	-0.923869	0.374688
H422	H	1.228193	-0.673869	0.624688
H423	H	1.478193	-0.423869	0.874688
H424	H	1.728193	-0.173869	1.124688
H425	H	0.144641	-0.440153	0.374489
H426	H	0.394641	-0.190153	0.624489
H427	H	0.644641	0.059847	0.874489
H428	H	0.894641	0.309847	1.124489
H429	H	0.263348	-0.440145	0.374479
H430	H	0.513348	-0.190145	0.624479
H431	H	0.763348	0.059855	0.874479
H432	H	1.013348	0.309855	1.124479
H433	H	0.144609	-0.269141	0.229326
H434	H	0.394609	-0.019141	0.479326
H435	H	0.644609	0.230859	0.729326
H436	H	0.894609	0.480859	0.979326
H437	H	0.832830	-0.439814	0.944643
H438	H	1.082830	-0.189814	1.194643
H439	H	1.332830	0.060186	1.444643
H440	H	1.582830	0.310186	1.694643
