data_functionalizedCrystal
_audit_creation_method	'MofGen! by Chris Wilmer'
_symmetry_space_group_name_H-M	'P1'
_symmetry_Int_Tables_number	1
_symmetry_cell_setting	triclinic
loop_
_symmetry_equiv_pos_as_xyz
  x,y,z
_cell_length_a	18.101398
_cell_length_b	18.101395
_cell_length_c	18.101389
_cell_angle_alpha	90.016841
_cell_angle_beta	89.975673
_cell_angle_gamma	89.973629
loop_
_atom_site_label
_atom_site_type_symbol
_atom_site_fract_x
_atom_site_fract_y
_atom_site_fract_z
Zn1	Zn	1.132121	0.295001	-0.418847
Zn2	Zn	1.632121	0.795001	0.081153
Zn3	Zn	1.132017	0.418826	-0.295009
Zn4	Zn	1.632017	0.918826	0.204991
Zn5	Zn	1.008280	0.294993	-0.295008
Zn6	Zn	1.508280	0.794993	0.204992
Zn7	Zn	1.008231	0.418795	-0.418797
Zn8	Zn	1.508231	0.918795	0.081203
O9	O	1.070162	0.356904	-0.356915
O10	O	1.570162	0.856904	0.143085
O11	O	1.235740	0.311443	-0.402440
O12	O	1.735740	0.811443	0.097560
O13	O	1.115580	0.402410	-0.191376
O14	O	1.615580	0.902410	0.308624
O15	O	1.024772	0.191361	-0.311456
O16	O	1.524772	0.691361	0.188544
O17	O	1.235664	0.402417	-0.311457
O18	O	1.735664	0.902417	0.188543
O19	O	1.115757	0.191367	-0.402440
O20	O	1.615757	0.691367	0.097560
O21	O	1.024671	0.311430	-0.191375
O22	O	1.524671	0.811430	0.308625
O23	O	0.904641	0.311399	-0.311408
O24	O	1.404641	0.811399	0.188592
O25	O	1.024688	0.402363	-0.522437
O26	O	1.524688	0.902363	-0.022437
O27	O	0.904604	0.402356	-0.402355
O28	O	1.404604	0.902356	0.097645
O29	O	1.115710	0.311412	-0.522473
O30	O	1.615710	0.811412	-0.022473
O31	O	1.115532	0.522455	-0.311409
O32	O	1.615532	1.022455	0.188591
O33	O	1.024587	0.522432	-0.402356
O34	O	1.524587	1.022432	0.097644
C35	C	1.070063	0.549314	-0.356893
C36	C	1.570063	1.049314	0.143107
C37	C	1.070088	0.631628	-0.356909
C38	C	1.570088	1.131628	0.143091
C39	C	0.877752	0.356874	-0.356877
C40	C	1.377752	0.856874	0.143123
C41	C	0.795437	0.356879	-0.356878
C42	C	1.295437	0.856879	0.143122
C43	C	1.070205	0.356885	-0.550077
C44	C	1.570205	0.856885	-0.050077
C45	C	1.070223	0.356877	-0.632391
C46	C	1.570223	0.856877	-0.132391
C47	C	0.496347	0.356925	-0.356940
C48	C	0.996347	0.856925	0.143060
C49	C	0.527670	0.299412	-0.299997
C50	C	1.027670	0.799412	0.200003
C51	C	0.613288	0.299566	-0.299754
C52	C	1.113288	0.799566	0.200246
C53	C	0.644729	0.356901	-0.356909
C54	C	1.144729	0.856901	0.143091
C55	C	0.613611	0.434909	-0.335587
C56	C	1.113611	0.934909	0.164413
C57	C	0.527966	0.434590	-0.335191
C58	C	1.027966	0.934590	0.164809
C59	C	0.527961	0.337109	-0.435339
C60	C	1.027961	0.837109	0.064661
C61	C	0.613612	0.335371	-0.434911
C62	C	1.113612	0.835371	0.065089
C63	C	0.728589	0.356893	-0.356893
C64	C	1.228589	0.856893	0.143107
C65	C	0.412487	0.356939	-0.356954
C66	C	0.912487	0.856939	0.143046
C67	C	1.263324	0.356934	-0.356954
C68	C	1.763324	0.856934	0.143046
C69	C	1.345638	0.356948	-0.356971
C70	C	1.845638	0.856948	0.143029
C71	C	1.070282	0.163742	-0.356953
C72	C	1.570282	0.663742	0.143047
C73	C	1.070333	0.081428	-0.356970
C74	C	1.570333	0.581428	0.143030
C75	C	1.070251	0.930719	-0.356949
C76	C	1.570251	1.430719	0.143051
C77	C	1.013163	0.899410	-0.414312
C78	C	1.513163	1.399410	0.085688
C79	C	1.012892	0.813792	-0.414133
C80	C	1.512892	1.313792	0.085867
C81	C	1.070170	0.782337	-0.356930
C82	C	1.570170	1.282337	0.143070
C83	C	1.049041	0.813472	-0.278878
C84	C	1.549041	1.313472	0.221122
C85	C	1.048673	0.899117	-0.279221
C86	C	1.548673	1.399117	0.220779
C87	C	1.148593	0.899073	-0.376950
C88	C	1.648593	1.399073	0.123050
C89	C	1.148132	0.813422	-0.378661
C90	C	1.648132	1.313422	0.121339
C91	C	1.070126	0.698477	-0.356914
C92	C	1.570126	1.198477	0.143086
C93	C	1.070293	1.014579	-0.356959
C94	C	1.570293	1.514579	0.143041
C95	C	1.070266	0.356738	-0.931482
C96	C	1.570266	0.856738	-0.431482
C97	C	1.012801	0.413780	-0.900134
C98	C	1.512801	0.913780	-0.400134
C99	C	1.012956	0.414045	-0.814516
C100	C	1.512956	0.914045	-0.314516
C101	C	1.070244	0.356807	-0.783100
C102	C	1.570244	0.856807	-0.283100
C103	C	1.148270	0.377998	-0.814206
C104	C	1.648270	0.877998	-0.314206
C105	C	1.147949	0.378372	-0.899851
C106	C	1.647949	0.878372	-0.399851
C107	C	1.050385	0.278379	-0.899905
C108	C	1.550385	0.778379	-0.399905
C109	C	1.048649	0.278832	-0.814254
C110	C	1.548649	0.778832	-0.314254
C111	C	1.070237	0.356845	-0.699240
C112	C	1.570237	0.856845	-0.199240
C113	C	1.070279	0.356702	-1.015342
C114	C	1.570279	0.856702	-0.515342
C115	C	1.070162	0.356869	-0.164505
C116	C	1.570162	0.856869	0.335495
C117	C	1.070287	0.356668	-0.082191
C118	C	1.570287	0.856668	0.417809
H119	H	0.634329	0.241719	-0.313119
H120	H	1.134329	0.741719	0.186881
H121	H	1.087450	0.234076	-0.792868
H122	H	1.587450	0.734076	-0.292868
H123	H	0.506389	0.281216	-0.454725
H124	H	1.006389	0.781216	0.045275
H125	H	1.026252	0.919970	-0.472374
H126	H	1.526252	1.419970	0.027626
O127	O	1.207467	0.785071	-0.327359
O128	O	1.707467	1.285071	0.172641
H129	H	1.234545	0.832435	-0.299391
H130	H	1.734545	1.332435	0.200609
O131	O	0.935974	0.786731	-0.396573
O132	O	1.435974	1.286731	0.103427
H133	H	0.915229	0.752694	-0.443162
H134	H	1.415229	1.252694	0.056838
H135	H	1.026111	0.792740	-0.472007
H136	H	1.526111	1.292740	0.027993
H137	H	1.088449	0.919830	-0.235023
H138	H	1.588449	1.419830	0.264977
O139	O	1.102379	0.786489	-0.220711
O140	O	1.602379	1.286489	0.279289
H141	H	1.100975	0.725225	-0.218592
H142	H	1.600975	1.225225	0.281408
O143	O	1.204975	0.926055	-0.321733
O144	O	1.704975	1.426055	0.178267
H145	H	1.177378	0.961810	-0.280228
H146	H	1.677378	1.461810	0.219772
O147	O	0.501448	0.456841	-0.259273
O148	O	1.001448	0.956841	0.240727
H149	H	0.549796	0.467725	-0.223186
H150	H	1.049796	0.967725	0.276814
O151	O	0.973985	0.785146	-0.256028
O152	O	1.473985	1.285146	0.243972
H153	H	0.951611	0.748903	-0.300131
H154	H	1.451611	1.248903	0.199869
O155	O	0.501126	0.392587	-0.491547
O156	O	1.001126	0.892587	0.008453
H157	H	0.465446	0.434076	-0.463827
H158	H	0.965446	0.934076	0.036173
O159	O	1.105819	0.222077	-0.926761
O160	O	1.605819	0.722077	-0.426761
H161	H	1.147331	0.249721	-0.962426
H162	H	1.647331	0.749721	-0.462426
H163	H	1.192236	0.337757	-0.793859
H164	H	1.692236	0.837757	-0.293859
H165	H	0.635026	0.452008	-0.278892
H166	H	1.135026	0.952008	0.221108
H167	H	0.955448	0.920990	-0.401230
H168	H	1.455448	1.420990	0.098770
O169	O	0.936323	0.396456	-0.786646
O170	O	1.436323	0.896456	-0.286646
H171	H	0.898817	0.387690	-0.834340
H172	H	1.398817	0.887690	-0.334340
O173	O	1.170986	0.453066	-0.785805
O174	O	1.670986	0.953066	-0.285805
H175	H	1.226241	0.467433	-0.808176
H176	H	1.726241	0.967433	-0.308176
O177	O	1.029992	0.490254	-0.928644
O178	O	1.529992	0.990254	-0.428644
H179	H	0.982042	0.511412	-0.960462
H180	H	1.482042	1.011412	-0.460462
O181	O	0.500514	0.493277	-0.387725
O182	O	1.000514	0.993277	0.112275
H183	H	0.439196	0.493485	-0.387839
H184	H	0.939196	0.993485	0.112161
H185	H	0.633956	0.277966	-0.450989
H186	H	1.133956	0.777966	0.049011
O187	O	0.972591	0.257653	-0.787325
O188	O	1.472591	0.757653	-0.287325
H189	H	0.976185	0.205752	-0.754884
H190	H	1.476185	0.705752	-0.254884
H191	H	1.026082	0.472127	-0.794035
H192	H	1.526082	0.972127	-0.294035
H193	H	0.633975	0.478909	-0.375763
H194	H	1.133975	0.978909	0.124237
O195	O	0.976322	0.252808	-0.928478
O196	O	1.476322	0.752808	-0.428478
H197	H	0.952855	0.295669	-0.965510
H198	H	1.452855	0.795669	-0.465510
H199	H	0.507099	0.241388	-0.313215
H200	H	1.007099	0.741388	0.186785
H201	H	1.164065	0.793071	-0.436103
H202	H	1.664065	1.293071	0.063897
H203	H	0.954768	0.400655	-0.920720
H204	H	1.454768	0.900655	-0.420720
O205	O	1.170262	0.454249	-0.926333
O206	O	1.670262	0.954249	-0.426333
H207	H	1.181176	0.490330	-0.877968
H208	H	1.681176	0.990330	-0.377968
O209	O	0.972817	0.925666	-0.256787
O210	O	1.472817	1.425666	0.243213
H211	H	0.936741	0.877333	-0.245799
H212	H	1.436741	1.377333	0.254201
H213	H	1.167856	0.920633	-0.432895
H214	H	1.667856	1.420633	0.067105
H215	H	1.192217	0.338629	-0.920590
H216	H	1.692217	0.838629	-0.420590
H217	H	0.633741	0.312665	-0.241661
H218	H	1.133741	0.812665	0.258339
O219	O	0.499150	0.316573	-0.223486
O220	O	0.999150	0.816573	0.276514
H221	H	0.462762	0.365886	-0.225839
H222	H	0.962762	0.865886	0.274161
O223	O	0.641936	0.386831	-0.494124
O224	O	1.141936	0.886831	0.005876
H225	H	0.678797	0.428744	-0.468769
H226	H	1.178797	0.928744	0.031231
