data_functionalizedCrystal
_audit_creation_method	'MofGen! by Chris Wilmer'
_symmetry_space_group_name_H-M	'P1'
_symmetry_Int_Tables_number	1
_symmetry_cell_setting	triclinic
loop_
_symmetry_equiv_pos_as_xyz
  x,y,z
_cell_length_a	17.699083
_cell_length_b	15.021413
_cell_length_c	17.699083
_cell_angle_alpha	89.996989
_cell_angle_beta	96.716984
_cell_angle_gamma	90.001270
loop_
_atom_site_label
_atom_site_type_symbol
_atom_site_fract_x
_atom_site_fract_y
_atom_site_fract_z
O1	O	1.004080	0.073921	-0.095701
O2	O	1.504080	0.573921	0.404299
O3	O	0.783702	0.073952	-0.108154
O4	O	1.283702	0.573952	0.391846
O5	O	0.900117	0.073914	0.008262
O6	O	1.400117	0.573914	0.508262
O7	O	0.887665	0.073959	-0.212117
O8	O	1.387665	0.573959	0.287883
O9	O	0.900099	-0.074150	0.008245
O10	O	1.400099	0.425850	0.508245
O11	O	0.783683	-0.074112	-0.108170
O12	O	1.283683	0.425888	0.391830
O13	O	1.004062	-0.074143	-0.095718
O14	O	1.504062	0.425857	0.404282
Zn15	Zn	0.893869	-0.097636	-0.101947
Zn16	Zn	1.393869	0.402364	0.398053
Zn17	Zn	0.893894	0.097445	-0.101925
Zn18	Zn	1.393894	0.597445	0.398075
O19	O	0.887646	-0.074105	-0.212133
O20	O	1.387646	0.425895	0.287867
C21	C	0.755495	-0.000076	-0.107716
C22	C	1.255495	0.499924	0.392284
C23	C	0.671477	-0.000066	-0.106377
C24	C	1.171477	0.499934	0.393623
N25	N	0.893858	-0.230774	-0.101961
N26	N	1.393858	0.269226	0.398039
C27	C	0.622856	-0.000052	-0.174711
C28	C	1.122856	0.499948	0.325289
C29	C	0.543913	-0.000064	-0.173448
C30	C	1.043913	0.499936	0.326552
C31	C	0.513592	-0.000083	-0.103852
C32	C	1.013592	0.499917	0.396148
C33	C	0.562219	-0.000099	-0.035513
C34	C	1.062219	0.499901	0.464487
C35	C	0.641161	-0.000094	-0.036776
C36	C	1.141161	0.499906	0.463224
C37	C	0.243856	-0.000122	-0.030418
C38	C	0.743856	0.499878	0.469582
C39	C	0.164908	-0.000125	-0.029160
C40	C	0.664908	0.499875	0.470840
C41	C	0.146608	-0.000092	-0.167090
C42	C	0.646608	0.499908	0.332910
C43	C	0.225550	-0.000087	-0.168353
C44	C	0.725550	0.499913	0.331647
C45	C	0.274170	-0.000108	-0.100015
C46	C	0.774170	0.499892	0.399985
C47	C	0.359769	-0.000097	-0.101384
C48	C	0.859769	0.499903	0.398616
C49	C	0.427995	-0.000088	-0.102481
C50	C	0.927995	0.499912	0.397519
C51	C	0.840020	-0.470439	-0.155766
C52	C	1.340020	0.029561	0.344234
C53	C	0.908383	-0.529780	-0.170330
C54	C	1.408383	-0.029780	0.329670
C55	C	0.893878	-0.412381	-0.101942
C56	C	1.393878	0.087619	0.398058
C57	C	0.825533	-0.529782	-0.087395
C58	C	1.325533	-0.029782	0.412605
C59	C	0.893890	-0.587805	-0.101926
C60	C	1.393890	-0.087805	0.398074
C61	C	0.962276	-0.470415	-0.116540
C62	C	1.462276	0.029585	0.383460
C63	C	0.879380	-0.470411	-0.033575
C64	C	1.379380	0.029589	0.466425
C65	C	0.947793	-0.529725	-0.048110
C66	C	1.447793	-0.029725	0.451890
C67	C	0.893869	-0.311323	-0.101954
C68	C	1.393869	0.188677	0.398046
C69	C	0.893906	-0.688860	-0.101913
C70	C	1.393906	-0.188860	0.398087
C71	C	1.032268	-0.000113	-0.096156
C72	C	1.532268	0.499887	0.403844
C73	C	1.116286	-0.000118	-0.097494
C74	C	1.616286	0.499882	0.402506
C75	C	0.899662	-0.000122	0.036451
C76	C	1.399662	0.499878	0.536451
C77	C	0.898323	-0.000133	0.120469
C78	C	1.398323	0.499867	0.620469
N79	N	0.893911	0.230583	-0.101904
N80	N	1.393911	0.730583	0.398096
C81	C	0.966656	-0.000149	0.169090
C82	C	1.466656	0.499851	0.669090
C83	C	0.965394	-0.000151	0.248033
C84	C	1.465394	0.499849	0.748033
C85	C	0.895798	-0.000143	0.278354
C86	C	1.395798	0.499857	0.778354
C87	C	0.827459	-0.000124	0.229727
C88	C	1.327459	0.499876	0.729727
C89	C	0.828722	-0.000115	0.150785
C90	C	1.328722	0.499885	0.650785
C91	C	0.822364	-0.000156	0.548090
C92	C	1.322364	0.499844	1.048090
C93	C	0.821106	-0.000167	0.627038
C94	C	1.321106	0.499833	1.127038
C95	C	0.959036	-0.000191	0.645338
C96	C	1.459036	0.499809	1.145338
C97	C	0.960299	-0.000183	0.566396
C98	C	1.460299	0.499817	1.066396
C99	C	0.891961	-0.000159	0.517776
C100	C	1.391961	0.499841	1.017776
C101	C	0.893330	-0.000156	0.432177
C102	C	1.393330	0.499844	0.932177
C103	C	0.894427	-0.000153	0.363951
C104	C	1.394427	0.499847	0.863951
C105	C	0.888102	-0.000099	0.759678
C106	C	1.388102	0.499901	1.259678
C107	C	0.889440	-0.000177	0.675660
C108	C	1.389440	0.499823	1.175660
H109	H	0.647537	-0.000036	-0.231384
H110	H	1.147537	0.499964	0.268616
Br111	Br	0.735980	-0.000086	0.084797
Br112	Br	1.235980	0.499914	0.584797
H113	H	0.920656	-0.555857	-0.228140
H114	H	1.420656	-0.055857	0.271860
H115	H	0.867085	-0.444313	0.024216
H116	H	1.367085	0.055687	0.524216
Br117	Br	1.058642	-0.427140	-0.137147
Br118	Br	1.558642	0.072860	0.362853
H119	H	0.767729	-0.555862	-0.075098
H120	H	1.267729	-0.055862	0.424902
Br121	Br	0.080619	-0.000065	-0.259837
Br122	Br	0.580619	0.499935	0.240163
Br123	Br	1.054754	-0.000194	0.525250
Br124	Br	1.554754	0.499806	1.025250
Br125	Br	0.726647	-0.000157	0.668186
Br126	Br	1.226647	0.499843	1.168186
Br127	Br	1.023794	-0.572846	0.027772
Br128	Br	1.523794	-0.072846	0.527772
H129	H	0.140225	-0.000142	0.027517
H130	H	0.640225	0.499858	0.527517
H131	H	0.283434	-0.000140	0.025228
H132	H	0.783434	0.499860	0.525228
Br133	Br	1.058137	-0.000173	0.314016
Br134	Br	1.558137	0.499827	0.814016
H135	H	1.023330	-0.000161	0.144409
H136	H	1.523330	0.499839	0.644409
H137	H	1.014680	-0.000206	0.684934
H138	H	1.514680	0.499794	1.184934
H139	H	0.504328	-0.000051	-0.229092
H140	H	1.004328	0.499949	0.270908
Br141	Br	0.729619	-0.000118	0.482115
Br142	Br	1.229619	0.499882	0.982115
H143	H	0.770792	-0.000111	0.254420
H144	H	1.270792	0.499889	0.754420
H145	H	0.537526	-0.000128	0.021154
H146	H	1.037526	0.499872	0.521154
Br147	Br	0.764182	-0.427048	-0.231688
Br148	Br	1.264182	0.072952	0.268312
H149	H	0.250232	-0.000067	-0.225025
H150	H	0.750232	0.499933	0.274975
H151	H	0.680748	-0.000104	0.018868
H152	H	1.180748	0.499896	0.518868
