data_functionalizedCrystal
_audit_creation_method	'MofGen! by Chris Wilmer'
_symmetry_space_group_name_H-M	'P1'
_symmetry_Int_Tables_number	1
_symmetry_cell_setting	triclinic
loop_
_symmetry_equiv_pos_as_xyz
  x,y,z
_cell_length_a	14.853569
_cell_length_b	14.519709
_cell_length_c	13.330367
_cell_angle_alpha	90.003343
_cell_angle_beta	90.005718
_cell_angle_gamma	83.657855
loop_
_atom_site_label
_atom_site_type_symbol
_atom_site_fract_x
_atom_site_fract_y
_atom_site_fract_z
O1	O	1.196415	0.120408	0.083380
O2	O	0.933961	0.134750	0.083392
O3	O	1.072147	-0.006662	0.083377
O4	O	1.058230	0.261821	0.083395
O5	O	1.072126	-0.006659	-0.083471
O6	O	0.933940	0.134753	-0.083455
O7	O	1.196394	0.120411	-0.083467
Cu8	Cu	1.065165	0.127583	-0.098696
Cu9	Cu	1.065190	0.127579	0.098620
O10	O	1.058209	0.261823	-0.083452
C11	C	0.900362	0.134102	-0.000030
C12	C	0.800278	0.132153	-0.000026
C13	C	0.763868	0.047238	-0.000028
C14	C	0.742644	0.215239	-0.000027
C15	C	0.648609	0.213412	-0.000029
C16	C	0.612199	0.128496	-0.000031
C17	C	0.669825	0.045407	-0.000032
C18	C	0.590977	0.296498	-0.000038
C19	C	0.496936	0.294674	-0.000040
C20	C	0.460525	0.209757	-0.000035
C21	C	0.518156	0.126666	-0.000035
C22	C	0.481747	0.041750	-0.000038
C23	C	0.539377	-0.041343	-0.000031
C24	C	0.633414	-0.039509	-0.000027
C25	C	0.366487	0.207924	-0.000039
C26	C	0.387703	0.039920	-0.000042
C27	C	1.071488	-0.041020	-0.000047
C28	C	1.069544	-0.143400	-0.000048
C29	C	1.062389	-0.518293	-0.000021
C30	C	1.064376	-0.413986	-0.000029
C31	C	1.065966	-0.330850	-0.000035
C32	C	1.067954	-0.226536	-0.000041
C33	C	1.229994	0.121060	-0.000043
C34	C	1.330078	0.123008	-0.000041
C35	C	1.058868	0.296182	-0.000026
C36	C	1.060811	0.398562	-0.000019
N37	N	1.065154	0.127584	-0.237477
C38	C	1.010392	0.071547	-0.290004
C39	C	1.119927	0.183617	-0.289979
C40	C	1.119938	0.183616	-0.394997
C41	C	1.065176	0.127579	-0.447524
C42	C	1.010403	0.071543	-0.395032
C43	C	1.174717	0.239645	-0.447497
C44	C	1.174730	0.239645	-0.552522
C45	C	1.119962	0.183613	-0.605050
C46	C	1.065187	0.127575	-0.552552
C47	C	1.010425	0.071538	-0.605078
C48	C	0.955643	0.015504	-0.552582
C49	C	0.955635	0.015510	-0.447560
C50	C	1.119970	0.183607	-0.710072
C51	C	1.010436	0.071534	-0.710106
N52	N	1.065208	0.127570	0.237402
H53	H	0.358067	-0.029230	-0.000039
H54	H	0.911037	-0.030111	-0.404808
H55	H	0.772295	0.284374	-0.000032
H56	H	0.620629	0.365632	-0.000042
H57	H	1.219307	0.285260	-0.404722
H58	H	1.164518	0.229234	-0.247205
H59	H	0.319569	0.275577	-0.000053
H60	H	0.509720	-0.110482	-0.000026
H61	H	0.450021	0.362334	-0.000044
H62	H	0.965788	0.025929	-0.247256
H63	H	1.219336	0.285272	-0.595255
H64	H	0.680344	-0.107159	-0.000024
H65	H	0.911060	-0.030125	-0.595363
H66	H	0.965837	0.025905	-0.752866
H67	H	1.164576	0.229225	-0.752809
H68	H	0.810794	-0.020414	-0.000018
