data_functionalizedCrystal
_audit_creation_method	'MofGen! by Chris Wilmer'
_symmetry_space_group_name_H-M	'P1'
_symmetry_Int_Tables_number	1
_symmetry_cell_setting	triclinic
loop_
_symmetry_equiv_pos_as_xyz
  x,y,z
_cell_length_a	30.711293
_cell_length_b	30.700791
_cell_length_c	30.700862
_cell_angle_alpha	89.998029
_cell_angle_beta	59.999649
_cell_angle_gamma	60.000191
loop_
_atom_site_label
_atom_site_type_symbol
_atom_site_fract_x
_atom_site_fract_y
_atom_site_fract_z
O1	O	-0.311648	-0.371257	0.012946
O2	O	-0.222486	-0.307915	-0.012905
O3	O	-0.311647	-0.307914	0.076286
O4	O	-0.222487	-0.371258	-0.076244
O5	O	-0.384064	-0.235471	0.076281
O6	O	-0.294903	-0.235472	-0.012909
O7	O	-0.384065	-0.298814	0.012941
Zn8	Zn	-0.350982	-0.255641	0.000015
Zn9	Zn	-0.255569	-0.351088	0.000022
O10	O	-0.294905	-0.298815	-0.076249
C11	C	-0.215946	-0.155921	-0.018773
C12	C	-0.246517	-0.098464	-0.015067
C13	C	-0.241901	-0.182377	-0.019145
C14	C	-0.137093	-0.234800	-0.018780
C15	C	-0.083353	-0.261680	-0.015083
C16	C	-0.163168	-0.261136	-0.019153
C17	C	-0.215940	-0.234800	-0.018783
C18	C	-0.246504	-0.261681	-0.015089
C19	C	-0.163173	-0.182377	-0.019143
C20	C	-0.535506	-0.574966	0.039266
C21	C	-0.588276	-0.548513	0.039633
C22	C	-0.535503	-0.496092	0.039261
C23	C	-0.588273	-0.469758	0.039628
C24	C	-0.614351	-0.496093	0.039261
C25	C	-0.509547	-0.548512	0.039633
C26	C	-0.393517	-0.765171	0.024998
C27	C	-0.364490	-0.819035	0.020964
C28	C	-0.389408	-0.846056	0.018939
C29	C	-0.357931	-0.904462	0.014555
C30	C	-0.443357	-0.819209	0.020953
C31	C	-0.472384	-0.765347	0.024994
C32	C	-0.447462	-0.738328	0.027016
C33	C	-0.790217	-0.447931	0.024977
C34	C	-0.840027	-0.423106	0.020938
C35	C	-0.865011	-0.371162	0.018906
C36	C	-0.919010	-0.344244	0.014518
C37	C	-0.840185	-0.344042	0.020919
C38	C	-0.790385	-0.368863	0.024968
C39	C	-0.765401	-0.420813	0.026993
C40	C	-0.393506	-0.447926	0.024978
C41	C	-0.364472	-0.423102	0.020932
C42	C	-0.389387	-0.371157	0.018902
C43	C	-0.357907	-0.344239	0.014513
C44	C	-0.443332	-0.344040	0.020913
C45	C	-0.472361	-0.368866	0.024957
C46	C	-0.447446	-0.420809	0.026994
C47	C	-0.478939	-0.679924	0.031393
C48	C	-0.504029	-0.633370	0.034884
C49	C	-0.504023	-0.469176	0.034874
C50	C	-0.478931	-0.447722	0.031379
C51	C	-0.668351	-0.469178	0.034874
C52	C	-0.711396	-0.447725	0.031378
C53	C	-0.071062	-0.496430	-0.503877
C54	C	-0.018292	-0.548850	-0.530210
C55	C	-0.071062	-0.496430	-0.425001
C56	C	-0.018292	-0.548851	-0.451454
C57	C	0.007785	-0.575305	-0.503874
C58	C	-0.097019	-0.470095	-0.451457
C59	C	-0.213054	-0.368667	-0.552046
C60	C	-0.242083	-0.343666	-0.576874
C61	C	-0.217167	-0.370617	-0.628819
C62	C	-0.248645	-0.343515	-0.655738
C63	C	-0.163218	-0.422570	-0.655937
C64	C	-0.134190	-0.447564	-0.631112
C65	C	-0.159110	-0.420611	-0.579165
C66	C	0.183647	-0.765510	-0.631630
C67	C	0.233456	-0.819374	-0.656629
C68	C	0.258441	-0.846398	-0.629678
C69	C	0.312440	-0.904802	-0.656775
C70	C	0.233618	-0.819550	-0.577726
C71	C	0.183818	-0.765686	-0.552731
C72	C	0.158832	-0.738669	-0.579689
C73	C	-0.213052	-0.368669	-0.234798
C74	C	-0.242085	-0.343671	-0.180932
C75	C	-0.217169	-0.370623	-0.153909
C76	C	-0.248646	-0.343521	-0.095503
C77	C	-0.163224	-0.422573	-0.180754
C78	C	-0.134196	-0.447569	-0.234618
C79	C	-0.159113	-0.420610	-0.261638
C80	C	-0.127632	-0.447719	-0.552248
C81	C	-0.102540	-0.469326	-0.530793
C82	C	-0.102539	-0.469327	-0.366598
C83	C	-0.127630	-0.447721	-0.320044
C84	C	0.061784	-0.633709	-0.530976
C85	C	0.104829	-0.680263	-0.552580
O86	O	0.063309	-0.298819	0.012947
O87	O	-0.063337	-0.235469	-0.012895
O88	O	-0.063332	-0.235483	0.076292
O89	O	0.063304	-0.298804	-0.076240
O90	O	-0.063327	-0.307931	0.076282
O91	O	-0.063332	-0.307917	-0.012905
O92	O	0.063314	-0.371267	0.012938
Zn93	Zn	-0.000008	-0.351094	0.000015
Zn94	Zn	-0.000015	-0.255641	0.000028
O95	O	0.063309	-0.371252	-0.076249
O96	O	-0.384087	0.076278	0.012980
O97	O	-0.294919	-0.076256	-0.012883
O98	O	-0.384078	0.012923	0.076312
O99	O	-0.294928	-0.012900	-0.076216
O100	O	-0.311659	0.012923	0.076315
O101	O	-0.222500	-0.076255	-0.012880
O102	O	-0.311668	0.076279	0.012982
Zn103	Zn	-0.255586	0.000012	0.000051
Zn104	Zn	-0.351001	0.000011	0.000048
O105	O	-0.222509	-0.012900	-0.076213
O106	O	0.456756	-1.076592	-0.692373
O107	O	0.330119	-0.924062	-0.629035
O108	O	0.330115	-1.013250	-0.629031
O109	O	0.456760	-0.987404	-0.692377
O110	O	0.330114	-1.013248	-0.701476
O111	O	0.330117	-0.924060	-0.701479
O112	O	0.456755	-1.076591	-0.764818
Zn113	Zn	0.393436	-1.000325	-0.744651
Zn114	Zn	0.393438	-1.000327	-0.649202
O115	O	0.456758	-0.987402	-0.764821
O116	O	-0.311647	-0.307914	-0.764507
O117	O	-0.222491	-0.371255	-0.701160
O118	O	-0.311650	-0.371255	-0.701160
O119	O	-0.222488	-0.307914	-0.764507
O120	O	-0.384068	-0.298811	-0.628718
O121	O	-0.294909	-0.298811	-0.628719
O122	O	-0.384066	-0.235470	-0.692065
Zn123	Zn	-0.350985	-0.255638	-0.648890
Zn124	Zn	-0.255571	-0.351087	-0.744335
O125	O	-0.294906	-0.235469	-0.692065
C126	C	-0.469459	-0.155927	0.234817
C127	C	-0.523196	-0.098472	0.261693
C128	C	-0.443383	-0.182382	0.261154
C129	C	-0.390613	-0.234802	0.155945
C130	C	-0.360047	-0.261680	0.098491
C131	C	-0.364656	-0.261137	0.182401
C132	C	-0.390613	-0.234802	0.234821
C133	C	-0.360047	-0.261680	0.261701
C134	C	-0.443383	-0.182382	0.182398
C135	C	-0.215937	-0.234835	0.234815
C136	C	-0.246501	-0.261718	0.261687
C137	C	-0.241898	-0.182415	0.261154
C138	C	-0.137088	-0.234825	0.155948
C139	C	-0.083347	-0.261698	0.098494
C140	C	-0.163169	-0.182405	0.182407
C141	C	-0.215942	-0.155956	0.234826
C142	C	-0.246513	-0.098501	0.261708
C143	C	-0.163163	-0.261164	0.182396
C144	C	-0.390614	0.018780	0.234847
C145	C	-0.360045	0.015077	0.261724
C146	C	-0.443383	0.019144	0.261180
C147	C	-0.390620	0.018793	0.155974
C148	C	-0.360058	0.015103	0.098520
C149	C	-0.443389	0.019157	0.182427
C150	C	-0.469462	0.018780	0.234845
C151	C	-0.523197	0.015076	0.261721
C152	C	-0.364661	0.019157	0.182428
C153	C	0.464517	-0.574918	-0.503872
C154	C	0.490473	-0.548459	-0.530201
C155	C	0.385663	-0.496049	-0.424994
C156	C	0.411739	-0.469710	-0.451443
C157	C	0.464512	-0.496040	-0.503862
C158	C	0.411744	-0.548469	-0.451453
C159	C	0.526952	-0.765127	-0.552055
C160	C	0.555809	-0.818991	-0.576885
C161	C	0.609766	-0.846007	-0.628829
C162	C	0.641064	-0.904413	-0.655751
C163	C	0.634860	-0.819155	-0.655943
C164	C	0.605999	-0.765293	-0.631116
C165	C	0.552042	-0.738279	-0.579169
C166	C	0.606502	-0.447857	-0.631603
C167	C	0.635529	-0.423027	-0.656598
C168	C	0.610613	-0.371084	-0.629644
C169	C	0.642085	-0.344159	-0.656737
C170	C	0.556661	-0.343969	-0.577693
C171	C	0.527630	-0.368794	-0.552703
C172	C	0.552560	-0.420744	-0.579664
C173	C	0.209790	-0.447905	-0.234797
C174	C	0.159982	-0.423087	-0.180932
C175	C	0.134993	-0.371141	-0.153906
C176	C	0.080990	-0.344230	-0.095501
C177	C	0.159816	-0.344019	-0.180746
C178	C	0.209624	-0.368840	-0.234610
C179	C	0.234604	-0.420783	-0.261633
C180	C	0.520753	-0.679876	-0.552249
C181	C	0.495810	-0.633322	-0.530792
C182	C	0.331660	-0.469140	-0.366591
C183	C	0.288612	-0.447690	-0.320038
C184	C	0.495988	-0.469120	-0.530959
C185	C	0.521078	-0.447662	-0.552560
O186	O	-0.311682	0.076246	0.298846
O187	O	-0.222503	-0.076287	0.235498
O188	O	-0.311678	0.012896	0.235508
O189	O	-0.222507	-0.012937	0.298837
O190	O	-0.384084	0.012882	0.307954
O191	O	-0.294908	-0.076301	0.307945
O192	O	-0.384088	0.076231	0.371293
Zn193	Zn	-0.350994	-0.000037	0.351121
Zn194	Zn	-0.255597	-0.000018	0.255670
O195	O	-0.294913	-0.012952	0.371283
C196	C	0.007393	-0.039139	-0.503833
C197	C	-0.018687	-0.039504	-0.530167
C198	C	-0.071449	-0.039152	-0.424962
C199	C	-0.097408	-0.039517	-0.451416
C200	C	-0.071456	-0.039140	-0.503834
C201	C	-0.018680	-0.039516	-0.451415
C202	C	0.183255	-0.024850	-0.551992
C203	C	0.233063	-0.020808	-0.576817
C204	C	0.258044	-0.018773	-0.628760
C205	C	0.312042	-0.014380	-0.655676
C206	C	0.233217	-0.020784	-0.655880
C207	C	0.183418	-0.024833	-0.631058
C208	C	0.158437	-0.026866	-0.579112
C209	C	-0.133891	-0.024840	-0.631591
C210	C	-0.162748	-0.020798	-0.656591
C211	C	-0.216700	-0.018774	-0.629643
C212	C	-0.247997	-0.014384	-0.656741
C213	C	-0.241792	-0.020797	-0.577692
C214	C	-0.212931	-0.024848	-0.552697
C215	C	-0.158978	-0.026866	-0.579652
C216	C	-0.133856	-0.024902	-0.234761
C217	C	-0.162710	-0.020866	-0.180895
C218	C	-0.216662	-0.018844	-0.153875
C219	C	-0.247951	-0.014466	-0.095471
C220	C	-0.241761	-0.020853	-0.180721
C221	C	-0.212907	-0.024887	-0.234584
C222	C	-0.158950	-0.026916	-0.261601
C223	C	0.104434	-0.031251	-0.552199
C224	C	0.061391	-0.034749	-0.530746
C225	C	-0.102733	-0.034776	-0.366559
C226	C	-0.127669	-0.031290	-0.320006
C227	C	-0.102748	-0.034750	-0.530937
C228	C	-0.127690	-0.031253	-0.552542
H229	H	-0.610092	-0.426688	0.040215
H230	H	-0.286009	-0.301372	-0.159078
C231	C	0.528207	-0.848526	-0.547055
N232	N	0.507418	-0.870771	-0.524585
H233	H	0.003536	-0.570083	-0.573284
H234	H	-0.233339	-0.346711	-0.256798
H235	H	-0.284361	-0.161138	-0.019745
H236	H	-0.141350	-0.161136	-0.019736
C237	C	-0.366099	-0.735455	0.027224
N238	N	-0.345448	-0.713072	0.028899
H239	H	0.003530	-0.570088	-0.430211
H240	H	-0.320564	-0.840891	0.019322
C241	C	-0.299260	-0.153731	0.319342
N242	N	-0.342462	-0.132127	0.363168
H243	H	-0.465218	0.019761	0.161188
C244	C	0.382266	-0.577169	-0.422765
N245	N	0.360065	-0.598785	-0.401157
H246	H	-0.465211	-0.161141	0.304225
H247	H	0.626432	-0.743433	-0.653196
C248	C	-0.472860	0.019933	0.319363
N249	N	-0.495060	0.020525	0.363185
H250	H	0.626803	-0.490155	-0.653559
C251	C	0.260751	-0.848903	-0.713770
N252	N	0.281308	-0.871145	-0.756809
H253	H	-0.610099	-0.569754	0.040226
C254	C	-0.074542	-0.027066	-0.661245
N255	N	-0.029840	-0.028742	-0.683579
H256	H	-0.141347	-0.161163	0.161169
C257	C	-0.470772	-0.848930	0.018740
N258	N	-0.491426	-0.871315	0.017078
H259	H	0.230128	-0.490201	-0.256797
C260	C	-0.135815	-0.452212	-0.713075
N261	N	-0.115174	-0.474542	-0.756113
H262	H	-0.467082	-0.569754	0.040224
C263	C	-0.305134	-0.452934	0.018721
N264	N	-0.260441	-0.475403	0.017059
C265	C	-0.133675	-0.319328	-0.019967
N266	N	-0.111461	-0.363157	-0.020584
C267	C	-0.074852	-0.504710	-0.660942
N268	N	-0.030159	-0.547753	-0.683410
H269	H	-0.089923	-0.026552	-0.256755
C270	C	-0.366092	-0.505068	0.027209
N271	N	-0.345443	-0.548108	0.028887
H272	H	-0.516310	-0.743491	0.026635
H273	H	0.163310	-0.743516	-0.653584
C274	C	-0.762745	-0.505070	0.027215
N275	N	-0.742052	-0.548107	0.028901
H276	H	-0.322198	0.019752	0.161192
H277	H	0.139467	-0.301722	-0.158739
C278	C	-0.867327	-0.452941	0.018720
N279	N	-0.887889	-0.475414	0.017049
H280	H	0.532935	-0.569695	-0.573272
C281	C	-0.763080	-0.339030	0.027181
N282	N	-0.742512	-0.316561	0.028845
H283	H	-0.141339	-0.304234	0.161155
C284	C	-0.307290	-0.319322	0.153710
N285	N	-0.264083	-0.363146	0.132101
H286	H	0.389910	-0.426640	-0.430197
H287	H	-0.860531	-0.301746	0.019268
H288	H	-0.142316	-0.019148	-0.698888
H289	H	0.253271	-0.019169	-0.554732
C290	C	-0.531704	-0.339032	0.027175
N291	N	-0.576402	-0.316559	0.028847
C292	C	-0.472868	-0.153690	0.153704
N293	N	-0.495076	-0.132081	0.132093
H294	H	0.139780	-0.445177	-0.159080
C295	C	-0.301138	-0.018574	-0.548048
N296	N	-0.345840	-0.016896	-0.525719
H297	H	-0.139870	-0.040113	-0.430176
H298	H	0.253967	-0.841552	-0.555784
C299	C	0.694877	-0.452857	-0.713739
N300	N	0.739579	-0.475327	-0.756777
H301	H	0.483018	-0.743137	-0.509759
H302	H	-0.463617	-0.301742	0.019258
H303	H	-0.139480	-0.427024	-0.430222
H304	H	-0.233350	-0.346714	-0.509750
H305	H	-0.286007	-0.301367	-0.554790
C306	C	0.694210	-0.848874	-0.713080
N307	N	0.738914	-0.871258	-0.756117
H308	H	0.536369	-0.301671	-0.555749
C309	C	0.156519	-0.736157	-0.495589
N310	N	0.135957	-0.713916	-0.452548
H311	H	0.483702	-0.346714	-0.510406
C312	C	-0.074854	-0.504712	-0.264144
N313	N	-0.030157	-0.547753	-0.286383
H314	H	0.229830	-0.346752	-0.256460
C315	C	-0.240533	-0.027072	-0.495554
N316	N	-0.261327	-0.028744	-0.452512
H317	H	0.003137	-0.040091	-0.573237
C318	C	-0.135813	-0.452222	-0.151029
N319	N	-0.115167	-0.474552	-0.128642
C320	C	0.156111	-0.027043	-0.660890
N321	N	0.135542	-0.028705	-0.683359
C322	C	0.010810	-0.040325	-0.422724
N323	N	0.033021	-0.040937	-0.401115
H324	H	-0.142278	-0.019217	-0.159037
H325	H	0.162921	-0.026506	-0.509696
C326	C	0.260697	-0.018545	-0.713016
N327	N	0.281394	-0.016856	-0.756052
C328	C	-0.240515	-0.027102	-0.264112
N329	N	-0.261310	-0.028772	-0.286352
C330	C	-0.301109	-0.018631	-0.151000
N331	N	-0.345808	-0.016959	-0.128615
