data_functionalizedCrystal
_audit_creation_method	'MofGen! by Chris Wilmer'
_symmetry_space_group_name_H-M	'P1'
_symmetry_Int_Tables_number	1
_symmetry_cell_setting	triclinic
loop_
_symmetry_equiv_pos_as_xyz
  x,y,z
_cell_length_a	19.288864
_cell_length_b	15.944551
_cell_length_c	17.766277
_cell_angle_alpha	89.992686
_cell_angle_beta	89.976791
_cell_angle_gamma	83.317492
loop_
_atom_site_label
_atom_site_type_symbol
_atom_site_fract_x
_atom_site_fract_y
_atom_site_fract_z
O1	O	0.921629	0.104784	-0.062837
O2	O	0.719406	0.118919	-0.062786
O3	O	0.826040	-0.010445	-0.062806
O4	O	0.814995	0.234147	-0.062817
O5	O	0.826021	-0.010451	0.062382
O6	O	0.719387	0.118912	0.062403
O7	O	0.921610	0.104777	0.062351
Cu8	Cu	0.820497	0.111844	0.073808
Cu9	Cu	0.820519	0.111852	-0.074242
O10	O	0.814976	0.234141	0.062372
C11	C	0.693519	0.118461	-0.000185
C12	C	0.616411	0.117095	-0.000165
C13	C	0.571915	0.193000	-0.000181
C14	C	0.499465	0.191717	-0.000189
C15	C	0.471514	0.114526	-0.000197
C16	C	0.516020	0.038611	-0.000178
C17	C	0.588469	0.039896	-0.000162
C18	C	0.363099	0.053847	-0.044079
C19	C	0.290651	0.052565	-0.044099
C20	C	0.248058	0.110560	-0.000242
C21	C	0.277920	0.169850	0.043625
C22	C	0.350369	0.171135	0.043641
C23	C	0.392956	0.113124	-0.000214
C24	C	0.125002	0.185079	-0.000265
C25	C	0.052550	0.183793	-0.000269
C26	C	0.069107	0.030684	-0.000265
C27	C	0.141557	0.031972	-0.000254
C28	C	0.169500	0.109172	-0.000258
C29	C	0.825572	-0.041740	-0.000212
C30	C	0.824197	-0.134981	-0.000211
C31	C	0.754815	-0.349571	-0.000204
C32	C	0.787024	-0.410715	0.061514
C33	C	0.821710	-0.305697	-0.000216
C34	C	0.787059	-0.410692	-0.061912
C35	C	0.819303	-0.470601	-0.000224
C36	C	0.853938	-0.365614	0.061552
C37	C	0.853963	-0.365585	-0.061929
C38	C	0.886222	-0.426712	-0.000197
C39	C	0.823095	-0.210700	-0.000211
C40	C	0.817924	-0.565597	-0.000224
C41	C	0.947497	0.105235	-0.000251
C42	C	1.024605	0.106600	-0.000276
C43	C	0.815444	0.265436	-0.000225
C44	C	0.816819	0.358677	-0.000230
N45	N	0.820486	0.111838	0.177938
N46	N	0.820535	0.111851	-0.178373
C47	C	0.867719	0.054584	0.217316
C48	C	0.867723	0.054580	0.296118
C49	C	0.820501	0.111845	0.335539
C50	C	0.773259	0.169103	0.296151
C51	C	0.773252	0.169100	0.217351
C52	C	0.811404	0.188378	0.460375
C53	C	0.811416	0.188382	0.539173
C54	C	0.820520	0.111855	0.578585
C55	C	0.829626	0.035319	0.539188
C56	C	0.829618	0.035316	0.460387
C57	C	0.820503	0.111854	0.420984
C58	C	0.867759	0.054592	0.703409
C59	C	0.867759	0.054587	0.782212
C60	C	0.773298	0.169117	0.782244
C61	C	0.773295	0.169115	0.703442
C62	C	0.820530	0.111853	0.664029
H63	H	0.463229	0.253530	-0.000199
H64	H	0.177787	-0.029838	-0.000246
O65	O	0.409037	-0.008704	-0.091388
H66	H	0.376101	-0.050136	-0.121904
H67	H	0.624699	-0.021917	-0.000150
H68	H	0.594661	0.255862	-0.000185
O69	O	0.485877	-0.044647	-0.000180
H70	H	0.503785	-0.081113	-0.051195
H71	H	0.734809	0.215728	0.328251
O72	O	0.749580	-0.437164	-0.131022
H73	H	0.776859	-0.418208	-0.182215
H74	H	0.699288	-0.316049	-0.000128
H75	H	0.243242	0.217075	0.079338
O76	O	0.749544	-0.437212	0.130652
H77	H	0.695015	-0.406014	0.130541
O78	O	0.891380	-0.339288	0.130740
H79	H	0.908986	-0.395923	0.165095
O80	O	0.839253	-0.047234	0.417898
H81	H	0.837656	-0.034377	0.356484
H82	H	0.941797	-0.460084	-0.000176
O83	O	0.801609	0.270926	0.581665
H84	H	0.795268	0.324139	0.541023
H85	H	0.882241	-0.345560	-0.114123
H86	H	0.803978	0.250700	0.428292
H87	H	0.906179	0.007956	0.185228
H88	H	0.734788	0.215724	0.185289
O89	O	0.918676	-0.007166	0.338605
H90	H	0.951523	-0.046979	0.297960
O91	O	0.839440	-0.047231	0.581681
H92	H	0.837905	-0.034376	0.643094
O93	O	0.382585	0.235047	0.090983
H94	H	0.340803	0.275149	0.121492
H95	H	0.147754	0.247939	-0.000257
O96	O	0.722352	0.230869	0.660962
H97	H	0.751584	0.271598	0.625031
H98	H	0.046351	-0.032167	-0.000319
O99	O	0.004551	0.265665	-0.000283
H100	H	0.036157	0.319558	-0.000289
H101	H	0.906219	0.007963	0.671318
O102	O	0.258441	-0.011376	-0.091412
H103	H	0.229686	-0.051547	-0.054424
H104	H	0.906219	0.007959	0.814274
H105	H	0.734846	0.215740	0.814340
