data_functionalizedCrystal
_audit_creation_method	'MofGen! by Chris Wilmer'
_symmetry_space_group_name_H-M	'P1'
_symmetry_Int_Tables_number	1
_symmetry_cell_setting	triclinic
loop_
_symmetry_equiv_pos_as_xyz
  x,y,z
_cell_length_a	27.440280
_cell_length_b	23.096457
_cell_length_c	23.096457
_cell_angle_alpha	60.000151
_cell_angle_beta	90.003456
_cell_angle_gamma	59.998890
loop_
_atom_site_label
_atom_site_type_symbol
_atom_site_fract_x
_atom_site_fract_y
_atom_site_fract_z
Zr1	Zr	0.469514	0.633667	-0.075886
O2	O	0.391697	0.754467	-0.168344
O3	O	0.493368	0.512877	-0.047546
O4	O	0.493369	0.633667	-0.168334
O5	O	0.391696	0.633673	0.047727
O6	O	0.573572	0.633656	-0.168322
O7	O	0.391695	0.633677	-0.047556
O8	O	0.573569	0.417584	0.047745
O9	O	0.391699	0.849745	-0.168340
O10	O	0.563397	0.562547	-0.035447
O11	O	0.503544	0.562553	0.035653
O12	O	0.503545	0.704768	-0.106558
O13	O	0.443692	0.704774	-0.035459
Zr14	Zr	0.597430	0.633643	0.076098
Zr15	Zr	0.597428	0.633649	-0.075867
Zr16	Zr	0.469516	0.633661	0.076079
Zr17	Zr	0.469517	0.785624	-0.075880
Zr18	Zr	0.597427	0.481686	0.076092
O19	O	0.573577	0.754433	0.047759
O20	O	0.573574	0.754442	-0.168317
O21	O	0.391699	0.754459	0.047732
O22	O	0.675247	0.512843	0.168556
O23	O	0.675245	0.512851	-0.047519
O24	O	0.493370	0.512868	0.168529
O25	O	0.675248	0.633637	-0.047514
O26	O	0.573575	0.633643	0.168546
O27	O	0.493373	0.633654	0.168534
O28	O	0.675249	0.633633	0.047769
O29	O	0.493373	0.849731	-0.168325
O30	O	0.573571	0.417579	0.168537
O31	O	0.675245	0.417565	0.168552
O32	O	0.675244	0.417569	0.047760
O33	O	0.391700	0.849740	-0.047547
O34	O	0.493375	0.849726	-0.047532
O35	O	0.563399	0.562542	0.106771
O36	O	0.623253	0.562536	0.035671
O37	O	0.563400	0.704757	-0.035441
O38	O	0.503547	0.704763	0.035659
C39	C	0.533468	0.443579	0.000098
C40	C	0.533467	0.379070	0.000095
C41	C	0.564706	0.348766	-0.037021
C42	C	0.564711	0.288143	-0.037015
C43	C	0.533467	0.257839	0.000097
C44	C	0.502226	0.288147	0.037222
C45	C	0.502226	0.348762	0.037221
N46	N	0.482621	0.195451	-0.005057
N47	N	0.482622	0.137870	-0.005060
C48	C	0.533466	0.075207	0.000104
N49	N	0.584308	0.072307	0.005257
N50	N	0.584306	0.129896	0.005256
C51	C	0.533464	0.192111	0.000103
C52	C	0.564714	-0.020831	-0.037007
C53	C	0.564722	-0.081458	-0.036997
C54	C	0.502231	-0.081448	0.037235
C55	C	0.502229	-0.020828	0.037229
C56	C	0.533469	0.009479	0.000104
C57	C	0.373471	0.633677	0.000082
C58	C	0.319168	0.633685	0.000074
C59	C	0.013712	0.559404	0.037245
C60	C	-0.037306	0.559399	0.037251
O61	O	-0.037124	0.496263	0.068842
N62	N	-0.094065	0.633636	0.000131
C63	C	-0.099805	0.707882	-0.036992
O64	O	-0.152767	0.771026	-0.068564
C65	C	-0.048787	0.707886	-0.036993
C66	C	0.007971	0.633644	0.000123
C67	C	0.070468	0.485168	0.074360
C68	C	0.121483	0.485173	0.074352
C69	C	0.115742	0.559413	0.037230
C70	C	0.058986	0.633649	0.000116
C71	C	-0.054527	0.782132	-0.074112
C72	C	-0.003503	0.782129	-0.074110
C73	C	0.053255	0.707887	-0.036993
C74	C	0.104260	0.707895	-0.037014
N75	N	0.161019	0.633658	0.000107
C76	C	0.166760	0.559417	0.037228
C77	C	-0.206943	0.707869	-0.036984
C78	C	-0.257961	0.707866	-0.036987
C79	C	-0.195458	0.559383	0.037257
C80	C	-0.144440	0.559386	0.037256
C81	C	-0.150184	0.633632	0.000136
C82	C	0.273892	0.559433	0.037209
C83	C	0.324909	0.559444	0.037196
C84	C	0.262402	0.707927	-0.037045
C85	C	0.211390	0.707916	-0.037035
C86	C	0.217139	0.633662	0.000097
O87	O	0.104124	0.770999	-0.068585
O88	O	0.219724	0.496284	0.068803
C89	C	0.693473	0.633633	0.000130
C90	C	0.747776	0.633625	0.000138
C91	C	0.533470	0.633662	-0.189980
C92	C	0.533469	0.633665	-0.254493
C93	C	0.533476	0.823730	0.000114
C94	C	0.533477	0.888240	0.000117
C95	C	0.502239	0.707882	-0.752114
C96	C	0.502234	0.707887	-0.691500
C97	C	0.533476	0.633650	-0.624068
C98	C	0.564714	0.559403	-0.617251
C99	C	0.564713	0.559400	-0.677865
N100	N	0.584322	0.578390	-0.501263
N101	N	0.584321	0.578398	-0.443685
C102	C	0.533479	0.633653	-0.441440
N103	N	0.482637	0.688914	-0.498955
N104	N	0.482639	0.688909	-0.556539
C105	C	0.533480	0.633645	-0.558338
C106	C	0.502234	0.707901	-0.382538
C107	C	0.502227	0.707903	-0.321921
C108	C	0.564713	0.559416	-0.247673
C109	C	0.564714	0.559417	-0.308289
C110	C	0.533476	0.633661	-0.375719
C111	C	0.533474	0.633647	0.190192
C112	C	0.533475	0.633645	0.254705
C113	C	0.693469	0.443557	0.000122
C114	C	0.747771	0.379040	0.000127
C115	C	0.533470	0.443572	0.190184
C116	C	0.533470	0.379059	0.254694
C117	C	0.693471	0.443550	0.190208
C118	C	0.747774	0.379030	0.254726
C119	C	0.373473	0.823760	-0.189995
C120	C	0.319171	0.888280	-0.254514
C121	C	0.373475	0.823753	0.000090
C122	C	0.319173	0.888270	0.000085
C123	C	0.533474	0.823738	-0.189972
C124	C	0.533475	0.888250	-0.254482
C125	C	0.742027	0.348747	-0.036999
C126	C	0.793045	0.288135	-0.037008
C127	C	0.849804	0.257811	0.000114
C128	C	0.855547	0.288110	0.037241
C129	C	0.804530	0.348725	0.037246
C130	C	0.564713	0.348758	0.322118
C131	C	0.564710	0.288150	0.382739
C132	C	0.533467	0.257841	0.375934
C133	C	0.502220	0.288148	0.308503
C134	C	0.502219	0.348759	0.247884
C135	C	0.804523	0.348727	0.247912
C136	C	0.855550	0.288112	0.308528
C137	C	0.849828	0.257797	0.375958
C138	C	0.793072	0.288105	0.382772
C139	C	0.742046	0.348723	0.322156
C140	C	0.262421	0.918590	-0.247699
C141	C	0.211394	0.979224	-0.308316
C142	C	0.217117	1.009543	-0.375746
C143	C	0.273872	0.979231	-0.382559
C144	C	0.324898	0.918602	-0.321944
C145	C	0.324917	0.918569	0.037205
C146	C	0.273899	0.979198	0.037198
C147	C	0.217140	1.009524	0.000074
C148	C	0.211398	0.979222	-0.037051
C149	C	0.262414	0.918598	-0.037047
C150	C	0.564724	0.918540	-0.247654
C151	C	0.564736	0.979149	-0.308263
C152	C	0.533495	1.009470	-0.375699
C153	C	0.502245	0.979174	-0.382525
C154	C	0.502237	0.918563	-0.321917
H155	H	0.476786	0.373436	0.067445
C156	C	0.599086	0.012501	-0.077837
N157	N	0.624976	0.037603	-0.108589
H158	H	0.476787	0.768358	-0.327480
H159	H	0.476809	1.003871	-0.437440
C160	C	0.917975	0.254777	0.301017
N161	N	0.964993	0.229669	0.295358
H162	H	0.788421	0.263413	0.437682
C163	C	-0.320392	0.789538	-0.077826
N164	N	-0.367414	0.851056	-0.108585
C165	C	0.786715	0.254811	-0.077846
N166	N	0.781946	0.229711	-0.108603
C167	C	0.467854	0.382075	0.173719
N168	N	0.441970	0.407165	0.117858
H169	H	-0.008187	0.842590	-0.104329
C170	C	0.810833	0.382068	0.173744
N171	N	0.815590	0.407181	0.117882
H172	H	0.891381	0.208437	0.425310
H173	H	0.371105	0.893924	-0.327501
C174	C	0.679623	0.382047	0.329664
N175	N	0.632606	0.407145	0.335325
H176	H	0.257750	0.893907	-0.192800
H177	H	0.075153	0.424709	0.104592
C178	C	0.148969	1.012554	-0.300805
N179	N	0.101952	1.037657	-0.295146
C180	C	0.160980	1.076229	-0.442419
N181	N	0.118695	1.126455	-0.492634
H182	H	0.278524	1.003924	-0.437468
C183	C	0.256086	0.885267	-0.077876
N184	N	0.251316	0.860164	-0.108629
H185	H	0.371129	0.893882	0.067441
H186	H	0.278586	1.003859	0.067432
C187	C	0.148954	0.789586	-0.077868
N188	N	0.101929	0.851101	-0.108618
H189	H	0.476787	0.893907	-0.327487
H190	H	0.165177	1.003923	-0.067277
H191	H	0.175604	1.058888	0.000076
C192	C	0.599077	0.382093	-0.077852
N193	N	0.624968	0.407194	-0.108605
H194	H	0.590164	0.893862	-0.192750
C195	C	0.599080	0.477749	-0.300786
N196	N	0.624965	0.416232	-0.295132
C197	C	0.599112	1.012467	-0.300738
N198	N	0.625003	1.037561	-0.295068
C199	C	0.905919	0.191127	0.000107
N200	N	0.948182	0.140897	0.000102
H201	H	0.590151	0.263465	-0.067240
C202	C	0.467870	0.012499	0.078068
N203	N	0.441995	0.037594	0.108837
C204	C	0.467862	-0.114781	0.078060
N205	N	0.441975	-0.139891	0.108812
C206	C	0.533509	1.076146	-0.442363
N207	N	0.533521	1.126368	-0.492572
H208	H	0.590164	-0.106136	-0.067218
C209	C	0.467856	0.254812	0.078044
N210	N	0.441968	0.229703	0.108794
H211	H	0.371124	0.498985	0.067423
C212	C	0.599093	0.254815	0.456906
N213	N	0.624992	0.229707	0.512767
C214	C	0.917988	0.254739	0.078078
N215	N	0.965021	0.229598	0.108841
C216	C	0.280225	0.477749	0.078051
N217	N	0.284996	0.416226	0.108809
C218	C	0.183913	0.403500	0.115191
N219	N	0.230935	0.341979	0.145955
H220	H	0.809215	0.373382	0.067483
H221	H	0.533472	0.208488	0.425299
H222	H	-0.098228	0.498932	0.067486
H223	H	-0.190791	0.498932	0.067482
C224	C	-0.213271	0.789551	-0.077834
N225	N	-0.218040	0.851073	-0.108603
C226	C	0.467857	0.254795	0.301029
N227	N	0.441979	0.229667	0.295402
C228	C	0.467874	0.789557	-0.698999
N229	N	0.441996	0.851071	-0.704648
C230	C	-0.116953	0.863805	-0.114942
N231	N	-0.163974	0.925327	-0.145696
H232	H	0.257738	0.768372	-0.067271
H233	H	0.476801	0.768338	-0.807014
H234	H	0.590150	0.498959	-0.562344
H235	H	0.590150	0.498945	-0.672307
H236	H	0.590147	0.498971	-0.192769
H237	H	0.476795	0.768355	-0.437443
H238	H	0.695815	0.373436	-0.067237
H239	H	0.590155	0.373429	0.327673
