data_functionalizedCrystal
_audit_creation_method	'MofGen! by Chris Wilmer'
_symmetry_space_group_name_H-M	'P1'
_symmetry_Int_Tables_number	1
_symmetry_cell_setting	triclinic
loop_
_symmetry_equiv_pos_as_xyz
  x,y,z
_cell_length_a	16.109301
_cell_length_b	17.699092
_cell_length_c	14.586319
_cell_angle_alpha	90.010680
_cell_angle_beta	90.005889
_cell_angle_gamma	83.373976
loop_
_atom_site_label
_atom_site_type_symbol
_atom_site_fract_x
_atom_site_fract_y
_atom_site_fract_z
O1	O	1.102971	0.097294	0.076186
O2	O	0.860888	0.109401	0.076199
O3	O	0.988765	-0.006832	0.076190
O4	O	0.975094	0.213526	0.076195
O5	O	0.988747	-0.006851	-0.076291
O6	O	0.860870	0.109381	-0.076282
O7	O	1.102953	0.097274	-0.076294
Cu8	Cu	0.981910	0.103326	-0.090211
Cu9	Cu	0.981931	0.103349	0.090115
O10	O	0.975076	0.213507	-0.076286
C11	C	0.829905	0.108900	-0.000040
C12	C	0.737613	0.107430	-0.000035
C13	C	0.428506	0.171593	-0.000050
C14	C	0.515224	0.172982	-0.000044
C15	C	0.535330	0.035076	-0.000035
C16	C	0.448614	0.033688	-0.000034
C17	C	0.395203	0.101949	-0.000046
C18	C	0.568638	0.104726	-0.000042
C19	C	0.662661	0.106231	-0.000036
C20	C	0.301174	0.100444	-0.000050
C21	C	0.988265	-0.035039	-0.000049
C22	C	0.986792	-0.119059	-0.000044
C23	C	0.986112	-0.158517	0.083074
C24	C	0.984722	-0.237462	0.083075
C25	C	0.984019	-0.276948	-0.000043
C26	C	0.984697	-0.237484	-0.083168
C27	C	0.986081	-0.158540	-0.083168
C28	C	0.979116	-0.555857	-0.083169
C29	C	0.977735	-0.634808	-0.083162
C30	C	0.977758	-0.634779	0.083074
C31	C	0.979142	-0.555835	0.083074
C32	C	0.979815	-0.516377	-0.000050
C33	C	0.981320	-0.430776	-0.000050
C34	C	0.982520	-0.362549	-0.000044
C35	C	1.133936	0.097775	-0.000054
C36	C	1.226229	0.099245	-0.000052
C37	C	0.975576	0.241714	-0.000045
C38	C	0.977049	0.325734	-0.000043
N39	N	0.981901	0.103309	-0.217043
C40	C	0.931596	0.057424	-0.548070
C41	C	0.931589	0.057413	-0.452089
C42	C	1.032258	0.149247	-0.452032
C43	C	1.032268	0.149253	-0.548012
C44	C	0.981932	0.103343	-0.596028
C45	C	0.981915	0.103326	-0.404067
C46	C	0.981909	0.103315	-0.300000
C47	C	0.981940	0.103353	-0.700102
N48	N	0.981947	0.103360	0.216947
H49	H	0.578827	-0.020499	-0.000027
Cl50	Cl	0.983803	-0.287124	-0.187660
H51	H	0.890610	0.020040	-0.587162
H52	H	0.977206	-0.666914	0.150758
Cl53	Cl	0.868302	-0.000312	-0.391802
Cl54	Cl	0.976849	-0.684447	-0.187662
Cl55	Cl	1.095529	0.206963	-0.391662
Cl56	Cl	0.986935	-0.108936	-0.187664
Cl57	Cl	1.095557	0.206981	-0.608307
H58	H	0.979681	-0.523743	-0.150854
Cl59	Cl	0.406745	-0.053872	-0.000017
H60	H	0.542334	0.229693	-0.000047
Cl61	Cl	0.983869	-0.287063	0.187572
Cl62	Cl	0.987002	-0.108885	0.187572
Cl63	Cl	0.980030	-0.506199	0.187570
Cl64	Cl	0.361365	0.257407	-0.000060
