data_functionalizedCrystal
_audit_creation_method	'MofGen! by Chris Wilmer'
_symmetry_space_group_name_H-M	'P1'
_symmetry_Int_Tables_number	1
_symmetry_cell_setting	triclinic
loop_
_symmetry_equiv_pos_as_xyz
  x,y,z
_cell_length_a	18.050591
_cell_length_b	21.295417
_cell_length_c	18.050582
_cell_angle_alpha	90.025708
_cell_angle_beta	90.010544
_cell_angle_gamma	90.028543
loop_
_atom_site_label
_atom_site_type_symbol
_atom_site_fract_x
_atom_site_fract_y
_atom_site_fract_z
Zn1	Zn	1.135285	-0.250669	0.419810
Zn2	Zn	1.385285	-0.000669	0.669810
Zn3	Zn	1.635285	0.249331	0.919810
Zn4	Zn	1.885285	0.499331	1.169810
Zn5	Zn	1.135192	-0.355930	0.295613
Zn6	Zn	1.385192	-0.105930	0.545613
Zn7	Zn	1.635192	0.144070	0.795613
Zn8	Zn	1.885192	0.394070	1.045613
Zn9	Zn	1.011104	-0.250676	0.295643
Zn10	Zn	1.261104	-0.000676	0.545643
Zn11	Zn	1.511104	0.249324	0.795643
Zn12	Zn	1.761104	0.499324	1.045643
Zn13	Zn	1.011049	-0.355902	0.419771
Zn14	Zn	1.261049	-0.105902	0.669771
Zn15	Zn	1.511049	0.144098	0.919771
Zn16	Zn	1.761049	0.394098	1.169771
O17	O	1.073157	-0.303294	0.357709
O18	O	1.323157	-0.053294	0.607709
O19	O	1.573157	0.196706	0.857709
O20	O	1.823157	0.446706	1.107709
O21	O	1.239197	-0.264640	0.403338
O22	O	1.489197	-0.014640	0.653338
O23	O	1.739197	0.235360	0.903338
O24	O	1.989197	0.485360	1.153338
O25	O	1.118716	-0.341983	0.191692
O26	O	1.368716	-0.091983	0.441692
O27	O	1.618716	0.158017	0.691692
O28	O	1.868716	0.408017	0.941692
O29	O	1.027639	-0.162586	0.312143
O30	O	1.277639	0.087414	0.562143
O31	O	1.527639	0.337414	0.812143
O32	O	1.777639	0.587414	1.062143
O33	O	1.239129	-0.341975	0.312091
O34	O	1.489129	-0.091975	0.562091
O35	O	1.739129	0.158025	0.812091
O36	O	1.989129	0.408025	1.062091
O37	O	1.118874	-0.162580	0.403368
O38	O	1.368874	0.087420	0.653368
O39	O	1.618874	0.337420	0.903368
O40	O	1.868874	0.587420	1.153368
O41	O	1.027549	-0.264654	0.191715
O42	O	1.277549	-0.014654	0.441715
O43	O	1.527549	0.235346	0.691715
O44	O	1.777549	0.485346	0.941715
O45	O	0.907172	-0.264626	0.312105
O46	O	1.157172	-0.014626	0.562105
O47	O	1.407172	0.235374	0.812105
O48	O	1.657172	0.485374	1.062105
O49	O	1.027545	-0.341927	0.523701
O50	O	1.277545	-0.091927	0.773701
O51	O	1.527545	0.158073	1.023701
O52	O	1.777545	0.408073	1.273701
O53	O	0.907132	-0.341935	0.403301
O54	O	1.157132	-0.091935	0.653301
O55	O	1.407132	0.158065	0.903301
O56	O	1.657132	0.408065	1.153301
O57	O	1.118820	-0.264613	0.523729
O58	O	1.368820	-0.014613	0.773729
O59	O	1.618820	0.235387	1.023729
O60	O	1.868820	0.485387	1.273729
O61	O	1.118663	-0.444016	0.312054
O62	O	1.368663	-0.194016	0.562054
O63	O	1.618663	0.055984	0.812054
O64	O	1.868663	0.305984	1.062054
O65	O	1.027455	-0.443995	0.403272
O66	O	1.277455	-0.193995	0.653272
O67	O	1.527455	0.056005	0.903272
O68	O	1.777455	0.306005	1.153272
C69	C	0.880205	-0.303279	0.357703
C70	C	1.130205	-0.053279	0.607703
C71	C	1.380205	0.196721	0.857703
C72	C	1.630205	0.446721	1.107703
C73	C	0.797660	-0.303287	0.357718
C74	C	1.047660	-0.053287	0.607718
C75	C	1.297660	0.196713	0.857718
C76	C	1.547660	0.446713	1.107718
C77	C	1.073063	-0.466846	0.357672
C78	C	1.323063	-0.216846	0.607672
C79	C	1.573063	0.033154	0.857672
C80	C	1.823063	0.283154	1.107672
C81	C	1.073090	-0.536814	0.357680
C82	C	1.323090	-0.286814	0.607680
C83	C	1.573090	-0.036814	0.857680
C84	C	1.823090	0.213186	1.107680
C85	C	0.548833	-0.345415	0.407243
C86	C	0.798833	-0.095415	0.657243
C87	C	1.048833	0.154585	0.907243
C88	C	1.298833	0.404585	1.157243
C89	C	0.598203	-0.360732	0.339456
C90	C	0.848203	-0.110732	0.589456
C91	C	1.098203	0.139268	0.839456
C92	C	1.348203	0.389268	1.089456
C93	C	0.500539	-0.303307	0.357717
C94	C	0.750539	-0.053307	0.607717
C95	C	1.000539	0.196693	0.857717
C96	C	1.250539	0.446693	1.107717
C97	C	0.598251	-0.288010	0.425500
C98	C	0.848251	-0.038010	0.675500
C99	C	1.098251	0.211990	0.925500
C100	C	1.348251	0.461990	1.175500
C101	C	0.646524	-0.303299	0.357721
C102	C	0.896524	-0.053299	0.607721
C103	C	1.146524	0.196701	0.857721
C104	C	1.396524	0.446701	1.107721
C105	C	0.548821	-0.318654	0.289894
C106	C	0.798821	-0.068654	0.539894
C107	C	1.048821	0.181346	0.789894
C108	C	1.298821	0.431346	1.039894
C109	C	0.548866	-0.245905	0.375984
C110	C	0.798866	0.004095	0.625984
C111	C	1.048866	0.254095	0.875984
C112	C	1.298866	0.504095	1.125984
C113	C	0.598213	-0.261201	0.308150
C114	C	0.848213	-0.011201	0.558150
C115	C	1.098213	0.238799	0.808150
C116	C	1.348213	0.488799	1.058150
C117	C	0.416441	-0.303314	0.357715
C118	C	0.666441	-0.053314	0.607715
C119	C	0.916441	0.196686	0.857715
C120	C	1.166441	0.446686	1.107715
C121	C	0.730621	-0.303293	0.357715
C122	C	0.980621	-0.053293	0.607715
C123	C	1.230621	0.196707	0.857715
C124	C	1.480621	0.446707	1.107715
C125	C	1.120569	-0.569620	0.405215
C126	C	1.370569	-0.319620	0.655215
C127	C	1.620569	-0.069620	0.905215
C128	C	1.870569	0.180380	1.155215
C129	C	1.120595	-0.635363	0.405233
C130	C	1.370595	-0.385363	0.655233
C131	C	1.620595	-0.135363	0.905233
C132	C	1.870595	0.114637	1.155233
C133	C	1.073151	-0.668296	0.357704
C134	C	1.323151	-0.418296	0.607704
C135	C	1.573151	-0.168296	0.857704
C136	C	1.823151	0.081704	1.107704
C137	C	1.025662	-0.635482	0.310166
C138	C	1.275662	-0.385482	0.560166
C139	C	1.525662	-0.135482	0.810166
C140	C	1.775662	0.114518	1.060166
C141	C	1.025632	-0.569741	0.310154
C142	C	1.275632	-0.319741	0.560154
C143	C	1.525632	-0.069741	0.810154
C144	C	1.775632	0.180259	1.060154
N145	N	1.067546	-0.771554	0.292710
N146	N	1.317546	-0.521554	0.542710
N147	N	1.567546	-0.271554	0.792710
N148	N	1.817546	-0.021554	1.042710
N149	N	1.067579	-0.834005	0.292723
N150	N	1.317579	-0.584005	0.542723
N151	N	1.567579	-0.334005	0.792723
N152	N	1.817579	-0.084005	1.042723
C153	C	1.073237	-0.866371	0.357737
C154	C	1.323237	-0.616371	0.607737
C155	C	1.573237	-0.366371	0.857737
C156	C	1.823237	-0.116371	1.107737
N157	N	1.078875	-0.833927	0.422739
N158	N	1.328875	-0.583927	0.672739
N159	N	1.578875	-0.333927	0.922739
N160	N	1.828875	-0.083927	1.172739
N161	N	1.078846	-0.771469	0.422725
N162	N	1.328846	-0.521469	0.672725
N163	N	1.578846	-0.271469	0.922725
N164	N	1.828846	-0.021469	1.172725
C165	C	1.073178	-0.739582	0.357711
C166	C	1.323178	-0.489582	0.607711
C167	C	1.573178	-0.239582	0.857711
C168	C	1.823178	0.010418	1.107711
C169	C	1.120747	-0.970463	0.405296
C170	C	1.370747	-0.720463	0.655296
C171	C	1.620747	-0.470463	0.905296
C172	C	1.870747	-0.220463	1.155296
C173	C	1.120768	-1.036207	0.405315
C174	C	1.370768	-0.786207	0.655315
C175	C	1.620768	-0.536207	0.905315
C176	C	1.870768	-0.286207	1.155315
C177	C	1.025839	-1.036325	0.310241
C178	C	1.275839	-0.786325	0.560241
C179	C	1.525839	-0.536325	0.810241
C180	C	1.775839	-0.286325	1.060241
C181	C	1.025814	-0.970582	0.310228
C182	C	1.275814	-0.720582	0.560228
C183	C	1.525814	-0.470582	0.810228
C184	C	1.775814	-0.220582	1.060228
C185	C	1.073272	-0.937655	0.357754
C186	C	1.323272	-0.687655	0.607754
C187	C	1.573272	-0.437655	0.857754
C188	C	1.823272	-0.187655	1.107754
C189	C	1.266863	-0.303310	0.357716
C190	C	1.516863	-0.053310	0.607716
C191	C	1.766863	0.196690	0.857716
C192	C	2.016863	0.446690	1.107716
C193	C	1.349409	-0.303317	0.357718
C194	C	1.599409	-0.053317	0.607718
C195	C	1.849409	0.196683	0.857718
C196	C	2.099409	0.446683	1.107718
C197	C	1.073187	-0.303266	0.551415
C198	C	1.323187	-0.053266	0.801415
C199	C	1.573187	0.196734	1.051415
C200	C	1.823187	0.446734	1.301415
C201	C	1.073199	-0.303254	0.633961
C202	C	1.323199	-0.053254	0.883961
C203	C	1.573199	0.196746	1.133961
C204	C	1.823199	0.446746	1.383961
C205	C	1.073273	-0.139104	0.357763
C206	C	1.323273	0.110896	0.607763
C207	C	1.573273	0.360896	0.857763
C208	C	1.823273	0.610896	1.107763
C209	C	1.073322	-0.069136	0.357786
C210	C	1.323322	0.180864	0.607786
C211	C	1.573322	0.430864	0.857786
C212	C	1.823322	0.680864	1.107786
C213	C	1.073171	-0.303277	0.164757
C214	C	1.323171	-0.053277	0.414757
C215	C	1.573171	0.196723	0.664757
C216	C	1.823171	0.446723	0.914757
C217	C	1.073303	-0.303111	0.082212
C218	C	1.323303	-0.053111	0.332212
C219	C	1.573303	0.196889	0.582212
C220	C	1.823303	0.446889	0.832212
C221	C	1.023601	-0.345241	0.833396
C222	C	1.273601	-0.095241	1.083396
C223	C	1.523601	0.154759	1.333396
C224	C	1.773601	0.404759	1.583396
C225	C	1.091356	-0.360629	0.882781
C226	C	1.341356	-0.110629	1.132781
C227	C	1.591356	0.139371	1.382781
C228	C	1.841356	0.389371	1.632781
C229	C	1.073236	-0.303206	0.785091
C230	C	1.323236	-0.053206	1.035091
C231	C	1.573236	0.196794	1.285091
C232	C	1.823236	0.446794	1.535091
C233	C	1.005518	-0.287800	0.882788
C234	C	1.255518	-0.037800	1.132788
C235	C	1.505518	0.212200	1.382788
C236	C	1.755518	0.462200	1.632788
C237	C	1.073265	-0.303161	0.931076
C238	C	1.323265	-0.053161	1.181076
C239	C	1.573265	0.196839	1.431076
C240	C	1.823265	0.446839	1.681076
C241	C	1.141026	-0.318625	0.833389
C242	C	1.391026	-0.068625	1.083389
C243	C	1.641026	0.181375	1.333389
C244	C	1.891026	0.431375	1.583389
C245	C	1.055142	-0.245770	0.833391
C246	C	1.305142	0.004230	1.083391
C247	C	1.555142	0.254230	1.333391
C248	C	1.805142	0.504230	1.583391
C249	C	1.122944	-0.261136	0.882754
C250	C	1.372944	-0.011136	1.132754
C251	C	1.622944	0.238864	1.382754
C252	C	1.872944	0.488864	1.632754
C253	C	1.073218	-0.303234	0.700993
C254	C	1.323218	-0.053234	0.950993
C255	C	1.573218	0.196766	1.200993
C256	C	1.823218	0.446766	1.450993
C257	C	1.073291	-0.303133	1.015173
C258	C	1.323291	-0.053133	1.265173
C259	C	1.573291	0.196867	1.515173
C260	C	1.823291	0.446867	1.765173
H261	H	0.527152	-0.381055	0.449071
H262	H	0.777152	-0.131055	0.699071
H263	H	1.027152	0.118945	0.949071
H264	H	1.277152	0.368945	1.199071
O265	O	0.626913	-0.425026	0.318976
O266	O	0.876913	-0.175026	0.568976
O267	O	1.126913	0.074974	0.818976
O268	O	1.376913	0.324974	1.068976
H269	H	0.607139	-0.459901	0.360162
H270	H	0.857139	-0.209901	0.610162
H271	H	1.107139	0.040099	0.860162
H272	H	1.357139	0.290099	1.110162
H273	H	0.527200	-0.331648	0.232556
H274	H	0.777200	-0.081648	0.482556
H275	H	1.027200	0.168352	0.732556
H276	H	1.277200	0.418352	0.982556
H277	H	1.159431	-1.062917	0.444027
H278	H	1.409431	-0.812917	0.694027
H279	H	1.659431	-0.562917	0.944027
H280	H	1.909431	-0.312917	1.194027
H281	H	1.039801	-0.197230	0.811680
H282	H	1.289801	0.052770	1.061680
H283	H	1.539801	0.302770	1.311680
H284	H	1.789801	0.552770	1.561680
O285	O	0.626767	-0.214030	0.252617
O286	O	0.876767	0.035970	0.502617
O287	O	1.126767	0.285970	0.752617
O288	O	1.376767	0.535970	1.002617
H289	H	0.606865	-0.226875	0.196431
H290	H	0.856865	0.023125	0.446431
H291	H	1.106865	0.273125	0.696431
H292	H	1.356865	0.523125	0.946431
O293	O	1.178617	-0.214021	0.911283
O294	O	1.428617	0.035979	1.161283
O295	O	1.678617	0.285979	1.411283
O296	O	1.928617	0.535979	1.661283
H297	H	1.177900	-0.214044	0.972770
H298	H	1.427900	0.035956	1.222770
H299	H	1.677900	0.285956	1.472770
H300	H	1.927900	0.535956	1.722770
O301	O	0.974490	-0.671002	0.258903
O302	O	1.224490	-0.421002	0.508903
O303	O	1.474490	-0.171002	0.758903
O304	O	1.724490	0.078998	1.008903
H305	H	0.941464	-0.637142	0.225850
H306	H	1.191464	-0.387142	0.475850
H307	H	1.441464	-0.137142	0.725850
H308	H	1.691464	0.112858	0.975850
H309	H	0.948238	-0.274789	0.904487
H310	H	1.198238	-0.024789	1.154487
H311	H	1.448238	0.225211	1.404487
H312	H	1.698238	0.475211	1.654487
H313	H	0.527177	-0.197379	0.391458
H314	H	0.777177	0.052621	0.641458
H315	H	1.027177	0.302621	0.891458
H316	H	1.277177	0.552621	1.141458
O317	O	0.974431	-0.534350	0.258873
O318	O	1.224431	-0.284350	0.508873
O319	O	1.474431	-0.034350	0.758873
O320	O	1.724431	0.215650	1.008873
H321	H	0.941446	-0.568293	0.225820
H322	H	1.191446	-0.318293	0.475820
H323	H	1.441446	-0.068293	0.725820
H324	H	1.691446	0.181707	0.975820
H325	H	1.159210	-0.542813	0.443915
H326	H	1.409210	-0.292813	0.693915
H327	H	1.659210	-0.042813	0.943915
H328	H	1.909210	0.207187	1.193915
H329	H	0.619964	-0.275074	0.482822
H330	H	0.869964	-0.025074	0.732822
H331	H	1.119964	0.224926	0.982822
H332	H	1.369964	0.474926	1.232822
O333	O	1.171812	-0.670760	0.456498
O334	O	1.421812	-0.420760	0.706498
O335	O	1.671812	-0.170760	0.956498
O336	O	1.921812	0.079240	1.206498
H337	H	1.204810	-0.636819	0.489540
H338	H	1.454810	-0.386819	0.739540
H339	H	1.704810	-0.136819	0.989540
H340	H	1.954810	0.113181	1.239540
H341	H	0.987204	-1.063138	0.271546
H342	H	1.237204	-0.813138	0.521546
H343	H	1.487204	-0.563138	0.771546
H344	H	1.737204	-0.313138	1.021546
O345	O	1.171924	-0.934942	0.456558
O346	O	1.421924	-0.684942	0.706558
O347	O	1.671924	-0.434942	0.956558
O348	O	1.921924	-0.184942	1.206558
H349	H	1.204937	-0.968802	0.489625
H350	H	1.454937	-0.718802	0.739625
H351	H	1.704937	-0.468802	0.989625
H352	H	1.954937	-0.218802	1.239625
H353	H	0.987155	-0.943869	0.271518
H354	H	1.237155	-0.693869	0.521518
H355	H	1.487155	-0.443869	0.771518
H356	H	1.737155	-0.193869	1.021518
H357	H	0.981667	-0.380834	0.811724
H358	H	1.231667	-0.130834	1.061724
H359	H	1.481667	0.119166	1.311724
H360	H	1.731667	0.369166	1.561724
H361	H	1.106677	-0.409183	0.904476
H362	H	1.356677	-0.159183	1.154476
H363	H	1.606677	0.090817	1.404476
H364	H	1.856677	0.340817	1.654476
O365	O	1.217025	-0.335618	0.804778
O366	O	1.467025	-0.085618	1.054778
O367	O	1.717025	0.164382	1.304778
O368	O	1.967025	0.414382	1.554778
H369	H	1.216445	-0.335408	0.743291
H370	H	1.466445	-0.085408	0.993291
H371	H	1.716445	0.164592	1.243291
H372	H	1.966445	0.414592	1.493291
