data_functionalizedCrystal
_audit_creation_method	'MofGen! by Chris Wilmer'
_symmetry_space_group_name_H-M	'P1'
_symmetry_Int_Tables_number	1
_symmetry_cell_setting	triclinic
loop_
_symmetry_equiv_pos_as_xyz
  x,y,z
_cell_length_a	15.944551
_cell_length_b	8.597340
_cell_length_c	7.088928
_cell_angle_alpha	88.687738
_cell_angle_beta	83.807505
_cell_angle_gamma	84.421977
loop_
_atom_site_label
_atom_site_type_symbol
_atom_site_fract_x
_atom_site_fract_y
_atom_site_fract_z
O1	O	0.135020	2.064035	-0.181014
O2	O	0.140690	1.614627	-0.106980
O3	O	0.015791	1.851602	-0.146035
O4	O	0.259919	1.827061	-0.141958
O5	O	0.032464	1.819829	-0.458774
O6	O	0.157363	1.582854	-0.419718
O7	O	0.151692	2.032262	-0.493753
Cu8	Cu	0.156050	1.804657	-0.485291
Cu9	Cu	0.136333	1.842232	-0.115441
O10	O	0.276592	1.795288	-0.454697
C11	C	0.147489	1.541232	-0.253875
C12	C	0.142896	1.369874	-0.225647
C13	C	-0.007184	1.834696	-0.302237
C14	C	-0.100482	1.831642	-0.301735
C15	C	-0.317977	1.677453	-0.276308
C16	C	-0.369549	1.733389	-0.442303
C17	C	-0.271303	1.826117	-0.300810
C18	C	-0.385970	1.764749	-0.133973
C19	C	-0.436309	1.820770	-0.299907
C20	C	-0.321640	1.882080	-0.466939
C21	C	-0.338062	1.913433	-0.158467
C22	C	-0.389613	1.969473	-0.324517
C23	C	-0.176248	1.829192	-0.301332
C24	C	-0.531362	1.817704	-0.299401
C25	C	0.299567	1.812194	-0.298491
C26	C	0.392864	1.815250	-0.298981
C27	C	0.144894	2.105658	-0.346853
C28	C	0.149486	2.277017	-0.375069
N29	N	0.122459	1.868661	0.144691
N30	N	0.169917	1.778240	-0.745425
H31	H	0.158637	1.328613	-0.524599
C32	C	-0.354853	1.690632	-0.778270
C33	C	-0.388773	1.630634	-0.604303
H34	H	-0.366716	1.627182	-0.878272
H35	H	-0.379573	1.794328	-0.795511
H36	H	-0.295263	1.691050	-0.779017
H37	H	-0.448365	1.630226	-0.603551
H38	H	-0.364057	1.526911	-0.587058
C39	C	-0.309573	1.448495	-0.076278
C40	C	-0.275851	1.510852	-0.249063
H41	H	-0.283569	1.345641	-0.059475
H42	H	-0.299091	1.512210	0.024718
H43	H	-0.368929	1.445322	-0.076914
H44	H	-0.216496	1.514036	-0.248422
H45	H	-0.286327	1.447121	-0.350085
C46	C	0.217538	1.504773	0.237652
C47	C	0.236320	1.651744	0.165210
H48	H	0.258530	1.426679	0.182462
H49	H	0.218487	1.502971	0.371427
H50	H	0.162863	1.484984	0.208166
H51	H	0.290993	1.671538	0.194709
H52	H	0.235379	1.653549	0.031405
C53	C	0.074775	2.142128	0.161816
C54	C	0.056042	1.995102	0.234160
H55	H	0.033767	2.220164	0.217076
H56	H	0.129440	2.161948	0.191280
H57	H	0.073807	2.143989	0.028028
H58	H	0.057016	1.993237	0.367948
H59	H	0.001362	1.975277	0.204710
H60	H	-0.420654	2.092970	-0.344950
H61	H	0.133739	1.318273	-0.076107
C62	C	-0.320880	2.101377	-0.682826
C63	C	-0.283817	1.948993	-0.657094
H64	H	-0.297523	2.142682	-0.800214
H65	H	-0.380326	2.099876	-0.683635
H66	H	-0.309912	2.164924	-0.582091
H67	H	-0.294791	1.885442	-0.757823
H68	H	-0.224357	1.950484	-0.656301
H69	H	-0.414073	1.715096	0.006761
C70	C	-0.231003	2.018992	0.000196
C71	C	-0.318807	2.016127	0.003547
H72	H	-0.219116	2.082391	0.100224
H73	H	-0.205420	1.915731	0.016093
H74	H	-0.208927	2.060824	-0.117994
H75	H	-0.340882	1.974284	0.121732
H76	H	-0.344399	2.119409	-0.012335
