data_functionalizedCrystal
_audit_creation_method	'MofGen! by Chris Wilmer'
_symmetry_space_group_name_H-M	'P1'
_symmetry_Int_Tables_number	1
_symmetry_cell_setting	triclinic
loop_
_symmetry_equiv_pos_as_xyz
  x,y,z
_cell_length_a	15.538191
_cell_length_b	16.109301
_cell_length_c	14.586319
_cell_angle_alpha	89.994467
_cell_angle_beta	89.990131
_cell_angle_gamma	65.366787
loop_
_atom_site_label
_atom_site_type_symbol
_atom_site_fract_x
_atom_site_fract_y
_atom_site_fract_z
O1	O	0.121105	1.066618	-0.076175
O2	O	0.621105	1.566618	0.423825
O3	O	0.136174	0.820012	-0.076189
O4	O	0.636174	1.320012	0.423811
O5	O	-0.008505	0.991319	-0.076184
O6	O	0.491495	1.491319	0.423816
O7	O	0.265784	0.895311	-0.076180
O8	O	0.765784	1.395311	0.423820
O9	O	-0.008529	0.991308	0.076297
O10	O	0.491471	1.491308	0.576297
O11	O	0.136150	0.820001	0.076292
O12	O	0.636150	1.320001	0.576292
O13	O	0.121080	1.066607	0.076306
O14	O	0.621080	1.566607	0.576306
Cu15	Cu	0.128613	0.943303	0.090221
Cu16	Cu	0.628613	1.443303	0.590221
Cu17	Cu	0.128642	0.943316	-0.090105
Cu18	Cu	0.628642	1.443316	0.409895
O19	O	0.265759	0.895300	0.076300
O20	O	0.765759	1.395300	0.576300
C21	C	0.135552	0.789215	0.000050
C22	C	0.635552	1.289215	0.500050
C23	C	0.133722	0.697472	0.000044
C24	C	0.633722	1.197472	0.500044
C25	C	0.215316	0.450596	0.000056
C26	C	0.715316	0.950596	0.500056
C27	C	0.213589	0.364396	0.000062
C28	C	0.713589	0.864396	0.500062
C29	C	0.041932	0.436032	0.000056
C30	C	0.541932	0.936032	0.500056
C31	C	0.043660	0.522229	0.000056
C32	C	0.543660	1.022229	0.500056
C33	C	0.130355	0.529508	0.000052
C34	C	0.630355	1.029508	0.500052
C35	C	0.126900	0.357111	0.000057
C36	C	0.626900	0.857111	0.500057
C37	C	0.125027	0.263649	0.000063
C38	C	0.625027	0.763649	0.500063
C39	C	0.132228	0.622975	0.000047
C40	C	0.632228	1.122975	0.500047
C41	C	-0.043615	1.001358	0.000054
C42	C	0.456385	1.501358	0.500054
C43	C	-0.148198	1.031279	0.000047
C44	C	0.351802	1.531279	0.500047
C45	C	-0.435898	0.734025	0.000050
C46	C	0.064102	1.234025	0.500050
C47	C	-0.534172	0.762161	0.000053
C48	C	-0.034172	1.262161	0.500053
C49	C	-0.556664	0.920419	0.000062
C50	C	-0.056664	1.420419	0.500062
C51	C	-0.458389	0.892297	0.000054
C52	C	0.041611	1.392297	0.500054
C53	C	-0.398013	0.799099	0.000049
C54	C	0.101987	1.299099	0.500049
C55	C	-0.420505	0.957370	0.000053
C56	C	0.079495	1.457370	0.500053
C57	C	-0.322239	0.929249	0.000049
C58	C	0.177761	1.429249	0.500049
C59	C	-0.261857	0.836055	0.000047
C60	C	0.238143	1.336055	0.500047
C61	C	-0.299747	0.770978	0.000046
C62	C	0.200253	1.270978	0.500046
C63	C	-0.480882	1.050568	0.000064
C64	C	0.019118	1.550568	0.500064
C65	C	-0.442998	1.115641	0.000063
C66	C	0.057002	1.615641	0.500063
C67	C	-0.344730	1.087520	0.000053
C68	C	0.155270	1.587520	0.500053
C69	C	-0.284349	0.994326	0.000051
C70	C	0.215651	1.494326	0.500051
C71	C	-0.306840	1.152598	0.000055
C72	C	0.193160	1.652598	0.500055
C73	C	-0.208574	1.124477	0.000052
C74	C	0.291426	1.624477	0.500052
C75	C	-0.186083	0.966206	0.000048
C76	C	0.313917	1.466206	0.500048
C77	C	0.300870	0.885260	0.000060
C78	C	0.800870	1.385260	0.500060
C79	C	0.405453	0.855340	0.000062
C80	C	0.905453	1.355340	0.500062
C81	C	0.121703	1.097403	0.000065
C82	C	0.621703	1.597403	0.500065
C83	C	0.123533	1.189147	0.000065
C84	C	0.623533	1.689147	0.500065
N85	N	0.128592	0.943300	0.217053
N86	N	0.628592	1.443300	0.717053
N87	N	0.128655	0.943327	-0.216937
N88	N	0.628655	1.443327	0.283063
C89	C	0.071477	0.910140	0.548078
C90	C	0.571477	1.410140	1.048078
C91	C	0.071464	0.910138	0.452097
C92	C	0.571464	1.410138	0.952097
C93	C	0.185773	0.976492	0.452045
C94	C	0.685773	1.476492	0.952045
C95	C	0.185780	0.976500	0.548024
C96	C	0.685780	1.476500	1.048024
C97	C	0.128634	0.943319	0.596039
C98	C	0.628634	1.443319	1.096039
C99	C	0.128613	0.943308	0.404078
C100	C	0.628613	1.443308	0.904078
C101	C	0.128600	0.943306	0.300011
C102	C	0.628600	1.443306	0.800011
C103	C	0.128646	0.943323	0.700112
C104	C	0.628646	1.443323	1.200112
H105	H	-0.028652	0.430094	0.000065
H106	H	0.471348	0.930094	0.500065
H107	H	0.024944	0.883123	0.587169
H108	H	0.524944	1.383123	1.087169
H109	H	0.282773	0.300146	0.000067
H110	H	0.782773	0.800146	0.500067
Cl111	Cl	-0.382751	1.269756	0.000079
Cl112	Cl	0.117249	1.769756	0.500079
Cl113	Cl	-0.359989	0.616860	0.000034
Cl114	Cl	0.140011	1.116860	0.500034
Cl115	Cl	-0.581794	0.680344	0.000061
Cl116	Cl	-0.081794	1.180344	0.500061
Cl117	Cl	-0.000389	0.868419	0.391808
Cl118	Cl	0.499611	1.368419	0.891808
H119	H	-0.177729	1.177466	0.000052
H120	H	0.322271	1.677466	0.500052
Cl121	Cl	-0.632572	1.037578	0.000075
Cl122	Cl	-0.132572	1.537578	0.500075
Cl123	Cl	0.257614	1.018198	0.391678
Cl124	Cl	0.757614	1.518198	0.891678
H125	H	0.232325	1.003523	0.587075
H126	H	0.732325	1.503523	1.087075
Cl127	Cl	-0.604418	1.085919	0.000075
Cl128	Cl	-0.104418	1.585919	0.500075
H129	H	0.285908	0.456517	0.000059
H130	H	0.785908	0.956517	0.500059
H131	H	-0.136921	0.890314	0.000037
H132	H	0.363079	1.390314	0.500037
Cl133	Cl	-0.063157	0.621441	0.000059
Cl134	Cl	0.436843	1.121441	0.500059
H135	H	-0.181843	0.813161	0.000050
H136	H	0.318157	1.313161	0.500050
H137	H	-0.492169	1.191523	0.000071
H138	H	0.007831	1.691523	0.500071
H139	H	-0.250585	0.695087	0.000035
H140	H	0.249415	1.195087	0.500035
