data_functionalizedCrystal
_audit_creation_method	'MofGen! by Chris Wilmer'
_symmetry_space_group_name_H-M	'P1'
_symmetry_Int_Tables_number	1
_symmetry_cell_setting	triclinic
loop_
_symmetry_equiv_pos_as_xyz
  x,y,z
_cell_length_a	18.101398
_cell_length_b	21.295417
_cell_length_c	18.101389
_cell_angle_alpha	89.977434
_cell_angle_beta	89.975673
_cell_angle_gamma	90.025773
loop_
_atom_site_label
_atom_site_type_symbol
_atom_site_fract_x
_atom_site_fract_y
_atom_site_fract_z
Zn1	Zn	1.132124	-0.250755	-0.418817
Zn2	Zn	1.632124	0.249245	0.081183
Zn3	Zn	1.132021	-0.356008	-0.294967
Zn4	Zn	1.632021	0.143992	0.205033
Zn5	Zn	1.008283	-0.250748	-0.294979
Zn6	Zn	1.508283	0.249252	0.205021
Zn7	Zn	1.008235	-0.355981	-0.418755
Zn8	Zn	1.508235	0.144019	0.081245
O9	O	1.070166	-0.303373	-0.356880
O10	O	1.570166	0.196627	0.143120
O11	O	1.235743	-0.264731	-0.402409
O12	O	1.735743	0.235269	0.097591
O13	O	1.115584	-0.342054	-0.191335
O14	O	1.615584	0.157946	0.308665
O15	O	1.024774	-0.162660	-0.311437
O16	O	1.524774	0.337340	0.188563
O17	O	1.235668	-0.342060	-0.311417
O18	O	1.735668	0.157940	0.188583
O19	O	1.115759	-0.162664	-0.402421
O20	O	1.615759	0.337336	0.097579
O21	O	1.024674	-0.264720	-0.191344
O22	O	1.524674	0.235280	0.308656
O23	O	0.904644	-0.264694	-0.311377
O24	O	1.404644	0.235306	0.188623
O25	O	1.024692	-0.342014	-0.522397
O26	O	1.524692	0.157986	-0.022397
O27	O	0.904609	-0.342008	-0.402315
O28	O	1.404609	0.157992	0.097685
O29	O	1.115713	-0.264705	-0.522442
O30	O	1.615713	0.235295	-0.022442
O31	O	1.115538	-0.444094	-0.311357
O32	O	1.615538	0.055906	0.188643
O33	O	1.024592	-0.444074	-0.402304
O34	O	1.524592	0.055926	0.097696
C35	C	0.877755	-0.303348	-0.356841
C36	C	1.377755	0.196652	0.143159
C37	C	0.795441	-0.303352	-0.356842
C38	C	1.295441	0.196648	0.143158
C39	C	0.496350	-0.303391	-0.356904
C40	C	0.996350	0.196609	0.143096
C41	C	0.527673	-0.254504	-0.299967
C42	C	1.027673	0.245496	0.200033
C43	C	0.613291	-0.254635	-0.299724
C44	C	1.113291	0.245365	0.200276
C45	C	0.644733	-0.303371	-0.356873
C46	C	1.144733	0.196629	0.143127
C47	C	0.613615	-0.369679	-0.335543
C48	C	1.113615	0.130321	0.164457
C49	C	0.527970	-0.369407	-0.335147
C50	C	1.027970	0.130593	0.164853
C51	C	0.527965	-0.286547	-0.435305
C52	C	1.027965	0.213453	0.064695
C53	C	0.613615	-0.285070	-0.434877
C54	C	1.113615	0.214930	0.065123
C55	C	0.728592	-0.303364	-0.356857
C56	C	1.228592	0.196636	0.143143
C57	C	0.412491	-0.303403	-0.356919
C58	C	0.912491	0.196597	0.143081
C59	C	1.070069	-0.466925	-0.356839
C60	C	1.570069	0.033075	0.143161
C61	C	1.070095	-0.536893	-0.356846
C62	C	1.570095	-0.036893	0.143154
C63	C	1.117492	-0.569749	-0.309538
C64	C	1.617492	-0.069749	0.190462
C65	C	1.117527	-0.635491	-0.309555
C66	C	1.617527	-0.135491	0.190445
C67	C	1.070151	-0.668375	-0.356871
C68	C	1.570151	-0.168375	0.143129
C69	C	1.022751	-0.635511	-0.404188
C70	C	1.522751	-0.135511	0.095812
C71	C	1.022722	-0.569770	-0.404175
C72	C	1.522722	-0.069770	0.095825
N73	N	1.005367	-0.771637	-0.362504
N74	N	1.505367	-0.271637	0.137496
N75	N	1.005396	-0.834089	-0.362512
N76	N	1.505396	-0.334089	0.137488
C77	C	1.070234	-0.866450	-0.356914
C78	C	1.570234	-0.366450	0.143086
N79	N	1.135044	-0.834001	-0.351293
N80	N	1.635044	-0.334001	0.148707
N81	N	1.135014	-0.771543	-0.351282
N82	N	1.635014	-0.271543	0.148718
C83	C	1.070177	-0.739661	-0.356891
C84	C	1.570177	-0.239661	0.143109
C85	C	1.117673	-0.970592	-0.309622
C86	C	1.617673	-0.470592	0.190378
C87	C	1.117709	-1.036335	-0.309644
C88	C	1.617709	-0.536335	0.190356
C89	C	1.022926	-1.036354	-0.404273
C90	C	1.522926	-0.536354	0.095727
C91	C	1.022897	-0.970612	-0.404255
C92	C	1.522897	-0.470612	0.095745
C93	C	1.070269	-0.937734	-0.356925
C94	C	1.570269	-0.437734	0.143075
C95	C	1.263328	-0.303399	-0.356919
C96	C	1.763328	0.196601	0.143081
C97	C	1.345642	-0.303410	-0.356935
C98	C	1.845642	0.196590	0.143065
C99	C	1.070209	-0.303357	-0.550042
C100	C	1.570209	0.196643	-0.050042
C101	C	1.070227	-0.303350	-0.632356
C102	C	1.570227	0.196650	-0.132356
C103	C	1.070283	-0.139183	-0.356937
C104	C	1.570283	0.360817	0.143063
C105	C	1.070334	-0.069215	-0.356961
C106	C	1.570334	0.430785	0.143039
C107	C	1.070270	-0.303232	-0.931447
C108	C	1.570270	0.196768	-0.431447
C109	C	1.012805	-0.351719	-0.900093
C110	C	1.512805	0.148281	-0.400093
C111	C	1.012960	-0.351944	-0.814475
C112	C	1.512960	0.148056	-0.314475
C113	C	1.070248	-0.303291	-0.783064
C114	C	1.570248	0.196709	-0.283064
C115	C	1.148274	-0.321303	-0.814168
C116	C	1.648274	0.178697	-0.314168
C117	C	1.147953	-0.321621	-0.899813
C118	C	1.647953	0.178379	-0.399813
C119	C	1.050388	-0.236626	-0.899877
C120	C	1.550388	0.263374	-0.399877
C121	C	1.048652	-0.237011	-0.814226
C122	C	1.548652	0.262989	-0.314226
C123	C	1.070240	-0.303323	-0.699205
C124	C	1.570240	0.196677	-0.199205
C125	C	1.070283	-0.303202	-1.015306
C126	C	1.570283	0.196798	-0.515306
C127	C	1.070166	-0.303344	-0.164469
C128	C	1.570166	0.196656	0.335531
C129	C	1.070291	-0.303173	-0.082155
C130	C	1.570291	0.196827	0.417845
H131	H	0.507709	-0.322155	-0.477728
H132	H	1.007709	0.177845	0.022272
H133	H	1.192239	-0.287098	-0.793825
H134	H	1.692239	0.212902	-0.293825
H135	H	0.954772	-0.340562	-0.920680
H136	H	1.454772	0.159438	-0.420680
N137	N	1.165885	-0.536177	-0.261190
N138	N	1.665885	-0.036177	0.238810
N139	N	1.208203	-0.565526	-0.218954
N140	N	1.708203	-0.065526	0.281046
H141	H	1.242382	-0.541815	-0.184808
H142	H	1.742382	-0.041815	0.315192
N143	N	0.639137	-0.223861	-0.455068
N144	N	1.139137	0.276139	0.044932
N145	N	0.677056	-0.216647	-0.512174
N146	N	1.177056	0.283353	-0.012174
H147	H	0.695082	-0.173417	-0.526434
H148	H	1.195082	0.326583	-0.026434
H149	H	0.635021	-0.318083	-0.479573
H150	H	1.135021	0.181917	0.020427
N151	N	1.097320	-0.189287	-0.787387
N152	N	1.597320	0.310713	-0.287387
N153	N	1.102578	-0.179489	-0.719511
N154	N	1.602578	0.320511	-0.219511
H155	H	1.136956	-0.145787	-0.700551
H156	H	1.636956	0.354213	-0.200551
N157	N	0.640469	-0.387926	-0.264420
N158	N	1.140469	0.112074	0.235580
N159	N	0.678067	-0.436807	-0.257622
N160	N	1.178067	0.063193	0.242378
H161	H	0.697031	-0.449692	-0.207390
H162	H	1.197031	0.050308	0.292610
H163	H	1.165420	-0.369476	-0.792722
H164	H	1.665420	0.130524	-0.292722
H165	H	0.984298	-0.943858	-0.442774
H166	H	1.484298	-0.443858	0.057226
N167	N	1.166116	-1.069909	-0.261316
N168	N	1.666116	-0.569909	0.238684
N169	N	1.166136	-1.128606	-0.261334
N170	N	1.666136	-0.628606	0.238666
H171	H	1.200324	-1.152319	-0.227201
H172	H	1.700324	-0.652319	0.272799
N173	N	1.166073	-0.936994	-0.261301
N174	N	1.666073	-0.436994	0.238699
N175	N	1.166045	-0.878297	-0.261298
N176	N	1.666045	-0.378297	0.238702
H177	H	1.200231	-0.854569	-0.227175
H178	H	1.700231	-0.354569	0.272825
N179	N	1.029102	-0.413284	-0.927068
N180	N	1.529102	0.086716	-0.427068
N181	N	0.989592	-0.458764	-0.908415
N182	N	1.489592	0.041236	-0.408415
H183	H	1.001105	-0.502246	-0.927464
H184	H	1.501105	-0.002246	-0.427464
H185	H	0.984355	-1.063127	-0.442802
H186	H	1.484355	-0.563127	0.057198
N187	N	1.029453	-0.413876	-0.788780
N188	N	1.529453	0.086124	-0.288780
N189	N	1.040891	-0.457066	-0.834100
N190	N	1.540891	0.042934	-0.334100
H191	H	1.052540	-0.500809	-0.815954
H192	H	1.552540	-0.000809	-0.315954
H193	H	1.156126	-0.662248	-0.271032
H194	H	1.656126	-0.162248	0.228968
N195	N	0.940375	-0.337800	-0.788097
N196	N	1.440375	0.162200	-0.288097
N197	N	0.889247	-0.327694	-0.832941
N198	N	1.389247	0.172306	-0.332941
H199	H	0.837980	-0.317708	-0.814316
H200	H	1.337980	0.182292	-0.314316
N201	N	0.500893	-0.226949	-0.459629
N202	N	1.000893	0.273051	0.040371
N203	N	0.457964	-0.196163	-0.419470
N204	N	0.957964	0.303837	0.080530
H205	H	0.438842	-0.154070	-0.436641
H206	H	0.938842	0.345930	0.063359
N207	N	0.639679	-0.192945	-0.316476
N208	N	1.139679	0.307055	0.183524
N209	N	0.594843	-0.149492	-0.328427
N210	N	1.094843	0.350508	0.171573
H211	H	0.613475	-0.105918	-0.340248
H212	H	1.113475	0.394082	0.159752
N213	N	0.974366	-0.669108	-0.452521
N214	N	1.474366	-0.169108	0.047479
N215	N	0.974397	-0.727805	-0.452525
N216	N	1.474397	-0.227805	0.047475
H217	H	0.940227	-0.751533	-0.486664
H218	H	1.440227	-0.251533	0.013336
N219	N	0.974304	-0.536195	-0.452490
N220	N	1.474304	-0.036195	0.047510
N221	N	0.974283	-0.477498	-0.452469
N222	N	1.474283	0.022502	0.047531
H223	H	0.940087	-0.453784	-0.486592
H224	H	1.440087	0.046216	0.013408
H225	H	1.164808	-0.370312	-0.919793
H226	H	1.664808	0.129688	-0.419793
H227	H	1.192220	-0.287839	-0.920557
H228	H	1.692220	0.212161	-0.420557
H229	H	0.994480	-0.220216	-0.921464
H230	H	1.494480	0.279784	-0.421464
H231	H	0.991232	-0.223428	-0.793895
H232	H	1.491232	0.276572	-0.293895
N233	N	1.102890	-0.191311	-0.925329
N234	N	1.602890	0.308689	-0.425329
N235	N	1.110787	-0.181848	-0.993029
N236	N	1.610787	0.318152	-0.493029
H237	H	1.147869	-0.149848	-1.011009
H238	H	1.647869	0.350152	-0.511009
N239	N	0.501870	-0.192630	-0.316555
N240	N	1.001870	0.307370	0.183445
N241	N	0.516544	-0.168161	-0.377605
N242	N	1.016544	0.331839	0.122395
H243	H	0.498314	-0.124461	-0.389322
H244	H	0.998314	0.375539	0.110678
H245	H	0.633745	-0.265769	-0.241630
H246	H	1.133745	0.234231	0.258370
N247	N	0.500626	-0.268311	-0.227518
N248	N	1.000626	0.231689	0.272482
N249	N	0.458382	-0.313999	-0.217635
N250	N	0.958382	0.186001	0.282365
H251	H	0.439279	-0.323753	-0.166468
H252	H	0.939279	0.176247	0.333532
N253	N	0.502872	-0.387331	-0.263245
N254	N	1.002872	0.112669	0.236755
N255	N	0.548608	-0.399953	-0.213705
N256	N	1.048608	0.100047	0.286295
H257	H	0.530887	-0.412612	-0.162922
H258	H	1.030887	0.087388	0.337078
N259	N	0.501979	-0.416659	-0.384887
N260	N	1.001979	0.083341	0.115113
N261	N	0.518878	-0.472893	-0.374611
N262	N	1.018878	0.027107	0.125389
H263	H	0.500524	-0.506268	-0.409735
H264	H	1.000524	-0.006268	0.090265
H265	H	0.633980	-0.407079	-0.375715
H266	H	1.133980	0.092921	0.124285
