data_functionalizedCrystal
_audit_creation_method	'MofGen! by Chris Wilmer'
_symmetry_space_group_name_H-M	'P1'
_symmetry_Int_Tables_number	1
_symmetry_cell_setting	triclinic
loop_
_symmetry_equiv_pos_as_xyz
  x,y,z
_cell_length_a	27.440280
_cell_length_b	14.809374
_cell_length_c	14.809374
_cell_angle_alpha	60.797835
_cell_angle_beta	52.844887
_cell_angle_gamma	90.003035
loop_
_atom_site_label
_atom_site_type_symbol
_atom_site_fract_x
_atom_site_fract_y
_atom_site_fract_z
Zr1	Zr	0.409415	-0.009218	1.002539
O2	O	0.310353	-0.145779	1.223689
O3	O	0.446466	0.016520	0.806092
O4	O	0.421667	-0.169010	1.038135
O5	O	0.347111	0.204443	0.954953
O6	O	0.501872	-0.168991	1.038113
O7	O	0.335151	0.039751	0.991646
O8	O	0.546233	0.162888	0.623031
O9	O	0.302751	-0.127436	1.370036
O10	O	0.514050	0.046993	0.877728
O11	O	0.463119	0.169887	0.850361
O12	O	0.433922	-0.048550	1.123562
O13	O	0.382991	0.074344	1.096194
Zr14	Zr	0.556408	0.253477	0.943984
Zr15	Zr	0.537333	-0.009188	1.002504
Zr16	Zr	0.428490	0.253447	0.944018
Zr17	Zr	0.397291	0.020037	1.235945
Zr18	Zr	0.568532	0.224222	0.710578
O19	O	0.519357	0.227739	1.140431
O20	O	0.492235	-0.145737	1.223640
O21	O	0.337474	0.227697	1.140480
O22	O	0.655471	0.390038	0.722834
O23	O	0.628349	0.016562	0.806043
O24	O	0.473588	0.389996	0.722883
O25	O	0.618712	0.039816	0.991569
O26	O	0.544156	0.413268	0.908388
O27	O	0.463951	0.413250	0.908410
O28	O	0.630672	0.204508	0.954877
O29	O	0.404428	-0.127413	1.370008
O30	O	0.561395	0.371671	0.576514
O31	O	0.663072	0.371695	0.576487
O32	O	0.647911	0.162911	0.623003
O33	O	0.317912	0.081348	1.323520
O34	O	0.419590	0.081371	1.323492
O35	O	0.531901	0.292809	0.822961
O36	O	0.582832	0.169915	0.850328
O37	O	0.502704	0.074372	1.096162
O38	O	0.451773	0.197266	1.068795
C39	C	0.322906	0.122093	0.973305
C40	C	0.268601	0.122080	0.973319
C41	C	0.498077	0.085536	0.681306
C42	C	0.503224	0.073116	0.582219
C43	C	0.506771	0.450683	0.900061
C44	C	0.514869	0.562191	0.875217
C45	C	-0.026261	0.172033	0.844911
C46	C	-0.077278	0.172043	0.844901
O47	O	-0.068092	0.214495	0.735760
N48	N	-0.144621	0.122169	0.973223
C49	C	-0.160946	0.072292	1.101560
O50	O	-0.222910	0.029872	1.210706
C51	C	-0.109928	0.072290	1.101566
C52	C	-0.042586	0.122157	0.973238
C53	C	0.041078	0.221897	0.716593
C54	C	0.092092	0.221885	0.716603
C55	C	0.075766	0.172009	0.844931
C56	C	0.008427	0.122145	0.973249
C57	C	-0.126253	0.022421	1.229900
C58	C	-0.075228	0.022423	1.229895
C59	C	-0.007886	0.072290	1.101567
C60	C	0.043116	0.072257	1.101587
N61	N	0.110458	0.122131	0.973265
C62	C	0.126784	0.172007	0.844938
C63	C	-0.268082	0.072302	1.101536
C64	C	-0.319100	0.072297	1.101533
C65	C	-0.235428	0.172050	0.844874
C66	C	-0.184411	0.172048	0.844880
C67	C	-0.200739	0.122176	0.973215
C68	C	0.233912	0.171977	0.844969
C69	C	0.284926	0.171956	0.844992
C70	C	0.201251	0.072209	1.101649
C71	C	0.150241	0.072224	1.101629
C72	C	0.166577	0.122116	0.973276
O73	O	0.033980	0.029830	1.210672
O74	O	0.188750	0.214433	0.735807
C75	C	0.642917	0.122166	0.973218
C76	C	0.697222	0.122179	0.973203
C77	C	0.459052	-0.206424	1.046462
C78	C	0.450955	-0.317933	1.071306
C79	C	0.478730	0.564509	0.986091
C80	C	0.487098	0.679758	0.960417
C81	C	0.480254	0.128543	0.524467
C82	C	0.485573	0.115708	0.422055
C83	C	0.467746	0.158723	1.265217
C84	C	0.462599	0.171143	1.364304
C85	C	0.658083	0.085573	0.681263
C86	C	0.717534	0.073166	0.582161
C87	C	0.521936	0.414090	0.608105
C88	C	0.535181	0.513178	0.484175
C89	C	0.681942	0.414127	0.608062
C90	C	0.749491	0.513228	0.484117
C91	C	0.283881	-0.169868	1.338461
C92	C	0.216332	-0.268969	1.462406
C93	C	0.307740	0.158686	1.265260
C94	C	0.248289	0.171093	1.364362
C95	C	0.443887	-0.169831	1.338417
C96	C	0.430642	-0.268919	1.462348
C97	C	0.709549	0.003164	0.549927
C98	C	0.765403	-0.008516	0.456828
C99	C	0.829242	0.049812	0.395958
C100	C	0.837226	0.119816	0.428201
C101	C	0.781372	0.131489	0.521306
C102	C	0.577305	0.623886	0.411671
C103	C	0.589747	0.717002	0.295236
C104	C	0.560069	0.699407	0.251300
C105	C	0.517940	0.588688	0.323816
C106	C	0.505494	0.495575	0.440255
C107	C	0.807804	0.495617	0.440196
C108	C	0.871277	0.588725	0.323751
C109	C	0.876437	0.699441	0.251223
C110	C	0.818117	0.717050	0.295153
C111	C	0.754645	0.623945	0.411602
C112	C	0.158019	-0.251357	1.506338
C113	C	0.094544	-0.344461	1.622812
C114	C	0.089384	-0.455177	1.695345
C115	C	0.147704	-0.472787	1.651409
C116	C	0.211177	-0.379683	1.534943
C117	C	0.256272	0.241085	1.396608
C118	C	0.200415	0.252740	1.489739
C119	C	0.136576	0.194408	1.550613
C120	C	0.128593	0.124408	1.518364
C121	C	0.184449	0.112748	1.425244
C122	C	0.460331	-0.251289	1.506245
C123	C	0.447899	-0.344384	1.622676
C124	C	0.405775	-0.455109	1.695215
C125	C	0.376086	-0.472739	1.651308
C126	C	0.388521	-0.379645	1.534873
H127	H	0.339761	0.212567	0.740487
Br128	Br	0.488194	-0.320432	1.682243
Br129	Br	0.950413	0.564800	0.264155
H130	H	0.308250	0.288595	1.347048
Br131	Br	0.825131	0.867317	0.196707
H132	H	0.803615	0.405474	0.499234
Br133	Br	0.063252	0.289602	0.542408
H134	H	0.364341	-0.394016	1.499146
Br135	Br	0.448325	0.345330	0.538636
Br136	Br	0.416824	0.425615	1.175992
H137	H	0.707169	0.638299	0.447347
Br138	Br	0.548992	0.818652	0.770508
H139	H	0.091100	0.203913	1.626436
H140	H	0.162208	-0.161215	1.447287
Br141	Br	0.388904	-0.581440	1.853236
H142	H	0.928124	0.775244	0.156405
Br143	Br	0.015407	-0.320536	1.682411
H144	H	0.177939	0.055757	1.398992
H145	H	0.493779	0.574378	0.288026
Br146	Br	0.440905	0.223468	0.568427
H147	H	0.146921	0.262487	0.612107
H148	H	0.494631	-0.161138	1.447199
Br149	Br	0.318912	-0.623015	1.749780
Br150	Br	0.140690	-0.623053	1.749860
Br151	Br	0.256091	0.239687	0.670776
Br152	Br	0.211265	0.347746	1.533480
Br153	Br	0.423245	0.266068	0.408261
H154	H	-0.129580	0.212665	0.740382
H155	H	0.258655	-0.394037	1.499178
Br156	Br	-0.213282	0.239738	0.670713
H157	H	0.657572	-0.044349	0.599491
H158	H	0.037696	-0.530978	1.790176
Br159	Br	0.576760	0.701086	0.685316
H160	H	0.526824	0.016156	0.555851
H161	H	0.076607	0.076919	1.567942
H162	H	0.509175	0.058744	0.395692
Br163	Br	-0.410490	0.004595	1.275704
Br164	Br	-0.290254	0.004604	1.275724
Br165	Br	0.923870	0.198972	0.345575
Br166	Br	-0.097394	-0.045257	1.404073
Br167	Br	-0.217636	-0.045250	1.404068
H168	H	0.874716	0.040298	0.320147
Br169	Br	0.792222	0.226505	0.565031
Br170	Br	0.754553	-0.103523	0.413088
Br171	Br	0.389051	0.543175	1.261217
H172	H	0.095406	0.031602	1.206127
Br173	Br	0.617595	0.647796	0.471263
Br174	Br	0.646925	0.867250	0.196843
Br175	Br	0.576967	0.825789	0.093271
Br176	Br	0.179109	0.004543	1.275796
