data_functionalizedCrystal
_audit_creation_method	'MofGen! by Chris Wilmer'
_symmetry_space_group_name_H-M	'P1'
_symmetry_Int_Tables_number	1
_symmetry_cell_setting	triclinic
loop_
_symmetry_equiv_pos_as_xyz
  x,y,z
_cell_length_a	27.732048
_cell_length_b	11.792241
_cell_length_c	10.868271
_cell_angle_alpha	90.005281
_cell_angle_beta	89.993197
_cell_angle_gamma	96.581965
loop_
_atom_site_label
_atom_site_type_symbol
_atom_site_fract_x
_atom_site_fract_y
_atom_site_fract_z
O1	O	0.641710	-0.135041	-0.102393
O2	O	0.501036	-0.155574	-0.102380
O3	O	0.574787	0.019972	-0.102378
O4	O	0.567960	-0.310587	-0.102395
O5	O	0.574781	0.019979	0.102267
O6	O	0.501030	-0.155567	0.102265
O7	O	0.641704	-0.135034	0.102252
Zn8	Zn	0.571366	-0.145300	0.134750
Zn9	Zn	0.571374	-0.145308	-0.134878
O10	O	0.567953	-0.310580	0.102250
C11	C	0.483024	-0.155140	-0.000056
C12	C	0.429361	-0.153842	-0.000051
C13	C	0.574355	0.062253	-0.000056
C14	C	0.573071	0.188226	-0.000057
C15	C	0.659717	-0.135469	-0.000075
C16	C	0.713379	-0.136766	-0.000088
C17	C	1.051640	-0.041201	-0.000041
C18	C	1.253327	-0.046016	-0.000037
O19	O	1.284076	0.041372	0.000020
N20	N	1.273055	-0.150108	-0.000046
C21	C	1.242357	-0.253003	-0.000048
O22	O	1.263765	-0.341650	-0.000042
C23	C	1.040671	-0.248186	-0.000042
C24	C	1.020946	-0.144088	-0.000046
C25	C	1.031915	0.062889	-0.000043
C26	C	0.981496	0.064092	-0.000051
C27	C	0.950802	-0.038795	-0.000056
C28	C	0.970527	-0.142885	-0.000054
C29	C	1.009974	-0.351080	-0.000035
C30	C	0.959550	-0.349867	-0.000031
C31	C	0.939825	-0.245769	-0.000035
C32	C	0.889415	-0.244570	-0.000067
N33	N	0.869687	-0.140478	-0.000058
C34	C	0.900381	-0.037591	-0.000053
C35	C	1.348246	-0.255524	-0.000053
C36	C	1.398668	-0.256729	-0.000056
C37	C	1.409634	-0.049742	-0.000043
C38	C	1.359212	-0.048538	-0.000049
C39	C	1.328518	-0.151433	-0.000044
C40	C	0.794497	-0.035073	-0.000070
C41	C	0.744073	-0.033879	-0.000082
C42	C	0.733111	-0.240866	-0.000089
C43	C	0.783530	-0.242060	-0.000083
C44	C	0.814223	-0.139154	-0.000069
O45	O	0.858637	-0.331911	-0.000110
O46	O	0.878964	0.051043	-0.000030
C47	C	1.102059	-0.042404	-0.000033
C48	C	1.121784	-0.146493	-0.000031
C49	C	1.091090	-0.249381	-0.000036
C50	C	1.172205	-0.147698	-0.000034
C51	C	1.202899	-0.044811	-0.000029
C52	C	1.183171	0.059281	-0.000020
C53	C	1.132752	0.060484	-0.000028
C54	C	1.110818	-0.353472	-0.000045
C55	C	1.161237	-0.354667	-0.000039
C56	C	1.191931	-0.251779	-0.000033
C57	C	0.568385	-0.352861	-0.000075
C58	C	0.569669	-0.478834	-0.000082
N59	N	0.571364	-0.145293	0.318764
C60	C	0.570711	0.418862	-0.000077
C61	C	0.572023	0.290519	-0.000066
N62	N	0.571380	-0.145306	-0.318892
C63	C	0.571372	-0.145306	0.569770
C64	C	0.571366	-0.145302	0.430093
H65	H	0.728016	0.050894	-0.000089
F66	F	0.700436	-0.350360	-0.000101
H67	H	1.116698	0.145251	-0.000030
F68	F	1.419654	-0.367524	-0.000076
F69	F	1.215847	0.168781	-0.000020
H70	H	1.085832	-0.437258	-0.000048
F71	F	0.827155	0.074451	-0.000056
F72	F	0.960510	0.174888	-0.000064
H73	H	1.056901	0.146677	-0.000035
F74	F	1.338224	0.062256	-0.000048
H75	H	1.434634	0.034033	-0.000043
F76	F	1.315586	-0.365047	-0.000055
H77	H	1.026025	-0.435848	-0.000038
H78	H	0.934561	-0.433658	-0.000021
H79	H	0.799591	-0.326825	-0.000081
F80	F	1.182224	-0.465470	-0.000045
