data_functionalizedCrystal
_audit_creation_method	'MofGen! by Chris Wilmer'
_symmetry_space_group_name_H-M	'P1'
_symmetry_Int_Tables_number	1
_symmetry_cell_setting	triclinic
loop_
_symmetry_equiv_pos_as_xyz
  x,y,z
_cell_length_a	16.959455
_cell_length_b	16.959453
_cell_length_c	16.959447
_cell_angle_alpha	90.031096
_cell_angle_beta	90.020374
_cell_angle_gamma	90.021841
loop_
_atom_site_label
_atom_site_type_symbol
_atom_site_fract_x
_atom_site_fract_y
_atom_site_fract_z
Zn1	Zn	1.208358	-0.314729	0.447032
Zn2	Zn	1.541691	0.018605	0.780365
Zn3	Zn	1.875024	0.351938	1.113699
Zn4	Zn	1.208269	-0.446921	0.314852
Zn5	Zn	1.541603	-0.113588	0.648185
Zn6	Zn	1.874936	0.219745	0.981518
Zn7	Zn	1.076186	-0.314754	0.314856
Zn8	Zn	1.409520	0.018580	0.648189
Zn9	Zn	1.742853	0.351913	0.981522
Zn10	Zn	1.076140	-0.446862	0.446976
Zn11	Zn	1.409473	-0.113529	0.780310
Zn12	Zn	1.742807	0.219804	1.113643
O13	O	1.142238	-0.380817	0.380929
O14	O	1.475572	-0.047483	0.714262
O15	O	1.808905	0.285850	1.047596
O16	O	1.318957	-0.332279	0.429520
O17	O	1.652290	0.001055	0.762853
O18	O	1.985624	0.334388	1.096186
O19	O	1.190731	-0.429424	0.204241
O20	O	1.524064	-0.096091	0.537575
O21	O	1.857397	0.237243	0.870908
O22	O	1.093775	-0.204140	0.332414
O23	O	1.427109	0.129194	0.665747
O24	O	1.760442	0.462527	0.999081
O25	O	1.318892	-0.429400	0.332407
O26	O	1.652225	-0.096066	0.665741
O27	O	1.985559	0.237267	0.999074
O28	O	1.190881	-0.204121	0.429524
O29	O	1.524215	0.129212	0.762857
O30	O	1.857548	0.462545	1.096190
O31	O	1.093690	-0.332321	0.204244
O32	O	1.427023	0.001012	0.537577
O33	O	1.760356	0.334346	0.870911
O34	O	0.965569	-0.332264	0.332360
O35	O	1.298903	0.001069	0.665693
O36	O	1.632236	0.334403	0.999027
O37	O	1.093697	-0.429299	0.557595
O38	O	1.427030	-0.095966	0.890928
O39	O	1.760363	0.237367	1.224261
O40	O	0.965535	-0.429324	0.429429
O41	O	1.298869	-0.095990	0.762762
O42	O	1.632202	0.237343	1.096095
O43	O	1.190836	-0.332221	0.557636
O44	O	1.524170	0.001112	0.890969
O45	O	1.857503	0.334445	1.224302
O46	O	1.190686	-0.557524	0.332353
O47	O	1.524019	-0.224191	0.665687
O48	O	1.857352	0.109142	0.999020
O49	O	1.093611	-0.557481	0.429425
O50	O	1.426944	-0.224148	0.762758
O51	O	1.760277	0.109186	1.096091
C52	C	0.936872	-0.380791	0.380889
C53	C	1.270205	-0.047457	0.714222
C54	C	1.603539	0.285876	1.047556
C55	C	0.849015	-0.380799	0.380891
C56	C	1.182349	-0.047465	0.714224
C57	C	1.515682	0.285868	1.047557
C58	C	0.477495	-0.431337	0.330337
C59	C	0.810829	-0.098004	0.663670
C60	C	1.144162	0.235329	0.997003
C61	C	0.477584	-0.330361	0.431617
C62	C	0.810918	0.002972	0.764951
C63	C	1.144251	0.336305	1.098284
C64	C	0.560130	-0.330348	0.431598
C65	C	0.893464	0.002985	0.764931
C66	C	1.226797	0.336318	1.098265
C67	C	0.601362	-0.380831	0.380948
C68	C	0.934696	-0.047498	0.714282
C69	C	1.268029	0.285835	1.047615
C70	C	0.560049	-0.431328	0.330318
C71	C	0.893382	-0.097994	0.663651
C72	C	1.226716	0.235339	0.996984
C73	C	0.601450	-0.279859	0.482233
C74	C	0.934783	0.053475	0.815567
C75	C	1.268117	0.386808	1.148900
C76	C	0.684001	-0.279844	0.482217
C77	C	1.017334	0.053489	0.815550
C78	C	1.350668	0.386823	1.148884
C79	C	0.725235	-0.330324	0.431562
C80	C	1.058568	0.003009	0.764896
C81	C	1.391901	0.336343	1.098229
C82	C	0.683916	-0.380822	0.380929
C83	C	1.017249	-0.047488	0.714262
C84	C	1.350583	0.285845	1.047596
C85	C	0.725148	-0.431305	0.330279
C86	C	1.058482	-0.097971	0.663613
C87	C	1.391815	0.235362	0.996946
C88	C	0.683831	-0.481799	0.279641
C89	C	1.017164	-0.148466	0.612975
C90	C	1.350498	0.184868	0.946308
C91	C	0.601283	-0.481807	0.279663
C92	C	0.934616	-0.148474	0.612997
C93	C	1.267949	0.184859	0.946330
C94	C	0.807783	-0.330316	0.431541
C95	C	1.141116	0.003018	0.764874
C96	C	1.474450	0.336351	1.098207
C97	C	0.807702	-0.431295	0.330260
C98	C	1.141035	-0.097962	0.663594
C99	C	1.474368	0.235372	0.996927
C100	C	1.142155	-0.586183	0.380900
C101	C	1.475488	-0.252849	0.714233
C102	C	1.808822	0.080484	1.047567
C103	C	1.142192	-0.674039	0.380914
C104	C	1.475525	-0.340706	0.714247
C105	C	1.808858	-0.007373	1.047580
C106	C	1.091624	-0.715320	0.431419
C107	C	1.424958	-0.381987	0.764752
C108	C	1.758291	-0.048653	1.098085
C109	C	1.192798	-0.715312	0.330427
C110	C	1.526132	-0.381979	0.663760
C111	C	1.859465	-0.048646	0.997093
C112	C	1.192838	-0.797858	0.330441
C113	C	1.526171	-0.464525	0.663774
C114	C	1.859504	-0.131192	0.997108
C115	C	1.142270	-0.839139	0.380946
C116	C	1.475604	-0.505805	0.714279
C117	C	1.808937	-0.172472	1.047612
C118	C	1.091664	-0.797873	0.431436
C119	C	1.424997	-0.464540	0.764770
C120	C	1.758330	-0.131207	1.098103
C121	C	1.243449	-0.839130	0.279957
C122	C	1.576782	-0.505797	0.613290
C123	C	1.910115	-0.172463	0.946624
C124	C	1.243491	-0.921681	0.279970
C125	C	1.576824	-0.588347	0.613303
C126	C	1.910157	-0.255014	0.946637
C127	C	1.192919	-0.962963	0.330471
C128	C	1.526252	-0.629629	0.663805
C129	C	1.859585	-0.296296	0.997138
C130	C	1.142310	-0.921692	0.380963
C131	C	1.475643	-0.588359	0.714297
C132	C	1.808976	-0.255026	1.047630
C133	C	1.091742	-0.962973	0.431468
C134	C	1.425076	-0.629639	0.764802
C135	C	1.758409	-0.296306	1.098135
C136	C	1.041129	-0.921704	0.481957
C137	C	1.374462	-0.588370	0.815290
C138	C	1.707795	-0.255037	1.148623
C139	C	1.041092	-0.839155	0.481938
C140	C	1.374425	-0.505822	0.815271
C141	C	1.707759	-0.172489	1.148604
C142	C	1.192955	-1.045511	0.330490
C143	C	1.526289	-0.712178	0.663824
C144	C	1.859622	-0.378845	0.997157
C145	C	1.091782	-1.045526	0.431486
C146	C	1.425115	-0.712193	0.764819
C147	C	1.758448	-0.378860	1.098152
C148	C	1.348406	-0.380843	0.380969
C149	C	1.681740	-0.047510	0.714303
C150	C	2.015073	0.285824	1.047636
C151	C	1.436263	-0.380854	0.380987
C152	C	1.769596	-0.047521	0.714320
C153	C	2.102930	0.285812	1.047653
C154	C	1.142271	-0.380751	0.587097
C155	C	1.475605	-0.047418	0.920431
C156	C	1.808938	0.285916	1.253764
C157	C	1.142285	-0.380723	0.674954
C158	C	1.475619	-0.047390	1.008287
C159	C	1.808952	0.285943	1.341621
C160	C	1.142343	-0.174648	0.380975
C161	C	1.475677	0.158685	0.714309
C162	C	1.809010	0.492018	1.047642
C163	C	1.142388	-0.086792	0.380995
C164	C	1.475722	0.246542	0.714329
C165	C	1.809055	0.579875	1.047662
C166	C	1.142251	-0.380825	0.175563
C167	C	1.475584	-0.047491	0.508896
C168	C	1.808918	0.285842	0.842229
C169	C	1.142390	-0.380630	0.087707
C170	C	1.475723	-0.047297	0.421040
C171	C	1.809057	0.286037	0.754373
C172	C	1.091803	-0.431184	1.046411
C173	C	1.425137	-0.097850	1.379744
C174	C	1.758470	0.235483	1.713078
C175	C	1.192956	-0.330096	1.046449
C176	C	1.526289	0.003237	1.379782
C177	C	1.859623	0.336571	1.713115
C178	C	1.192935	-0.330113	0.963903
C179	C	1.526268	0.003221	1.297236
C180	C	1.859602	0.336554	1.630569
C181	C	1.142348	-0.380667	0.922607
C182	C	1.475681	-0.047333	1.255940
C183	C	1.809015	0.286000	1.589274
C184	C	1.091782	-0.431204	0.963857
C185	C	1.425116	-0.097870	1.297191
C186	C	1.758449	0.235463	1.630524
C187	C	1.243505	-0.279582	0.922646
C188	C	1.576839	0.053751	1.255980
C189	C	1.910172	0.387085	1.589313
C190	C	1.243487	-0.279597	0.840095
C191	C	1.576820	0.053736	1.173429
C192	C	1.910154	0.387069	1.506762
C193	C	1.192896	-0.330148	0.798798
C194	C	1.526229	0.003185	1.132131
C195	C	1.859562	0.336519	1.465465
C196	C	1.142327	-0.380687	0.840053
C197	C	1.475661	-0.047353	1.173387
C198	C	1.808994	0.285980	1.506720
C199	C	1.091740	-0.431240	0.798758
C200	C	1.425074	-0.097907	1.132091
C201	C	1.758407	0.235426	1.465424
C202	C	1.041167	-0.481776	0.840012
C203	C	1.374501	-0.148442	1.173345
C204	C	1.707834	0.184891	1.506678
C205	C	1.041191	-0.481754	0.922560
C206	C	1.374524	-0.148421	1.255893
C207	C	1.707858	0.184912	1.589227
C208	C	1.192872	-0.330169	0.716250
C209	C	1.526205	0.003164	1.049583
C210	C	1.859539	0.336497	1.382916
C211	C	1.091719	-0.431260	0.716204
C212	C	1.425053	-0.097927	1.049538
C213	C	1.758386	0.235406	1.382871
H214	H	0.567635	-0.522917	0.238436
H215	H	0.900968	-0.189583	0.571770
H216	H	1.234302	0.143750	0.905103
F217	F	0.433700	-0.276644	0.485527
F218	F	0.767033	0.056689	0.818860
F219	F	1.100367	0.390023	1.152193
H220	H	1.050626	-0.472326	1.080003
H221	H	1.383959	-0.138993	1.413337
H222	H	1.717293	0.194341	1.746670
H223	H	0.567873	-0.238763	0.523475
H224	H	0.901206	0.094570	0.856808
H225	H	1.234539	0.427904	1.190141
H226	H	0.841420	-0.289205	0.472771
H227	H	1.174753	0.044128	0.806104
H228	H	1.508087	0.377461	1.139437
F229	F	0.727723	-0.535530	0.225743
F230	F	1.061056	-0.202197	0.559076
F231	F	1.394390	0.131137	0.892409
H232	H	1.233973	-0.681699	0.289311
H233	H	1.567306	-0.348366	0.622644
H234	H	1.900640	-0.015033	0.955978
H235	H	1.000020	-0.522900	0.956156
H236	H	1.333353	-0.189567	1.289490
H237	H	1.666686	0.143767	1.622823
H238	H	1.234050	-0.289026	0.682664
H239	H	1.567383	0.044307	1.015998
H240	H	1.900717	0.377640	1.349331
H241	H	0.999983	-0.522940	0.806378
H242	H	1.333317	-0.189607	1.139711
H243	H	1.666650	0.143726	1.473045
H244	H	1.050413	-0.681717	0.472524
H245	H	1.383746	-0.348383	0.805857
H246	H	1.717080	-0.015050	1.139190
F247	F	0.727966	-0.226104	0.536109
F248	F	1.061300	0.107229	0.869442
F249	F	1.394633	0.440563	1.202775
H250	H	0.999960	-0.955325	0.523081
H251	H	1.333294	-0.621992	0.856415
H252	H	1.666627	-0.288658	1.189748
H253	H	1.284666	-0.238448	0.806513
H254	H	1.617999	0.094885	1.139847
H255	H	1.951333	0.428219	1.473180
H256	H	1.050603	-1.079131	0.472614
H257	H	1.383936	-0.745798	0.805947
H258	H	1.717270	-0.412464	1.139280
H259	H	0.443851	-0.472446	0.289106
H260	H	0.777185	-0.139113	0.622440
H261	H	1.110518	0.194220	0.955773
H262	H	0.999885	-0.805549	0.523044
H263	H	1.333218	-0.472216	0.856378
H264	H	1.666551	-0.138882	1.189711
F265	F	1.297268	-0.795193	0.226217
F266	F	1.630602	-0.461859	0.559550
F267	F	1.963935	-0.128526	0.892883
F268	F	1.297356	-0.965595	0.226235
F269	F	1.630690	-0.632262	0.559569
F270	F	1.964023	-0.298928	0.892902
F271	F	1.246822	-1.089429	0.276765
F272	F	1.580156	-0.756096	0.610098
F273	F	1.913489	-0.422762	0.943432
H274	H	1.234146	-0.288942	1.080076
H275	H	1.567479	0.044392	1.413410
H276	H	1.900812	0.377725	1.746743
F277	F	0.851578	-0.485023	0.276346
F278	F	1.184911	-0.151690	0.609680
F279	F	1.518245	0.181643	0.943013
H280	H	1.050518	-0.472421	0.682587
H281	H	1.383851	-0.139088	1.015920
H282	H	1.717185	0.194246	1.349254
H283	H	1.284695	-0.238429	0.956275
H284	H	1.618029	0.094905	1.289608
H285	H	1.951362	0.428238	1.622942
