data_functionalizedCrystal
_audit_creation_method	'MofGen! by Chris Wilmer'
_symmetry_space_group_name_H-M	'P1'
_symmetry_Int_Tables_number	1
_symmetry_cell_setting	triclinic
loop_
_symmetry_equiv_pos_as_xyz
  x,y,z
_cell_length_a	6.817900
_cell_length_b	16.417825
_cell_length_c	16.015572
_cell_angle_alpha	77.934294
_cell_angle_beta	104.485554
_cell_angle_gamma	103.385495
loop_
_atom_site_label
_atom_site_type_symbol
_atom_site_fract_x
_atom_site_fract_y
_atom_site_fract_z
V1	V	-3.991458	-0.033756	-0.269481
O2	O	-3.980177	0.086039	-0.264040
O3	O	-3.942703	-0.148123	-0.267938
O4	O	-3.927894	0.003804	-0.386875
O5	O	-3.995088	-0.066939	-0.144280
V6	V	-4.477097	-0.023804	-0.254470
O7	O	-4.248075	-0.055588	-0.302410
O8	O	-4.670677	-0.001973	-0.221541
O9	O	-4.302645	0.090562	-0.256013
O10	O	-4.605774	-0.143600	-0.259911
O11	O	-4.590863	0.009378	-0.379671
O12	O	-4.317454	-0.061364	-0.137076
C13	C	-3.788108	-0.177160	-0.263764
C14	C	-3.829431	-0.270418	-0.263284
C15	C	-3.894573	-0.497117	-0.183106
C16	C	-3.933421	-0.584742	-0.182662
C17	C	-3.993361	-0.560440	-0.340855
C18	C	-3.954526	-0.472818	-0.341298
C19	C	-3.905122	-0.441159	-0.262421
C20	C	-3.982805	-0.616406	-0.261533
C21	C	-4.024927	-0.711412	-0.261053
C22	C	-3.863001	-0.346146	-0.262901
C23	C	-3.769217	0.016638	-0.415479
C24	C	-3.798528	0.046591	-0.511450
C25	C	-4.086337	-0.219270	-0.889778
C26	C	-4.113884	-0.191098	-0.979954
C27	C	-4.037348	-0.045343	-0.954866
C28	C	-4.009784	-0.073503	-0.864686
C29	C	-4.034285	-0.160468	-0.832150
C30	C	-3.957732	-0.014701	-0.807058
C31	C	-3.930182	-0.042859	-0.716886
C32	C	-3.954683	-0.129820	-0.684342
C33	C	-4.006735	-0.188626	-0.741978
C34	C	-3.933247	0.072263	-0.839596
C35	C	-3.881195	0.131066	-0.781968
C36	C	-3.853629	0.102908	-0.691794
C37	C	-3.878131	0.015947	-0.659250
C38	C	-3.801578	0.161714	-0.634158
C39	C	-3.774027	0.133555	-0.543987
C40	C	-3.850580	-0.012212	-0.569079
C41	C	-4.120582	0.119595	-0.260185
C42	C	-4.058497	0.212853	-0.260670
C43	C	-4.139473	-0.074203	-0.108468
C44	C	-4.089401	-0.104151	-0.012495
H45	H	-4.033586	-0.586228	-0.405074
N46	N	-3.841264	-0.462968	-0.098035
H47	H	-3.840472	-0.511717	-0.047722
H48	H	-3.947289	-0.429141	-0.097704
N49	N	-3.965897	-0.412461	-0.426853
H50	H	-3.827664	-0.373560	-0.427621
H51	H	-4.074662	-0.377626	-0.433454
H52	H	-3.870504	-0.083026	-0.542585
N53	N	-3.924883	-0.160305	-0.587102
H54	H	-4.026602	-0.140471	-0.563346
H55	H	-3.779689	-0.136574	-0.557535
N56	N	-3.854763	0.224858	-0.817071
H57	H	-3.709784	0.253746	-0.792902
H58	H	-3.956782	0.249825	-0.798880
H59	H	-4.017413	0.025464	-0.981370
H60	H	-4.026658	-0.259441	-0.715485
H61	H	-3.955651	0.095187	-0.913020
N62	N	-3.775183	0.255507	-0.669256
H63	H	-3.800546	0.264422	-0.735125
H64	H	-3.630203	0.284345	-0.645030
N65	N	-4.112714	-0.313067	-0.854673
H66	H	-4.149854	-0.346050	-0.904862
H67	H	-4.226397	-0.329862	-0.820797
N68	N	-3.922054	-0.645099	-0.097116
H69	H	-3.884866	-0.611744	-0.047218
H70	H	-3.813407	-0.679983	-0.090546
N71	N	-4.170035	-0.254525	-1.042113
H72	H	-4.181375	-0.313887	-1.007815
H73	H	-4.059684	-0.244088	-1.077080
N74	N	-3.717895	0.196973	-0.481823
H75	H	-3.706550	0.256337	-0.516117
H76	H	-3.581350	0.190392	-0.440870
