data_functionalizedCrystal
_audit_creation_method	'MofGen! by Chris Wilmer'
_symmetry_space_group_name_H-M	'P1'
_symmetry_Int_Tables_number	1
_symmetry_cell_setting	triclinic
loop_
_symmetry_equiv_pos_as_xyz
  x,y,z
_cell_length_a	17.639617
_cell_length_b	17.639929
_cell_length_c	11.169409
_cell_angle_alpha	78.758722
_cell_angle_beta	78.757019
_cell_angle_gamma	87.821822
loop_
_atom_site_label
_atom_site_type_symbol
_atom_site_fract_x
_atom_site_fract_y
_atom_site_fract_z
Zn1	Zn	1.222292	-0.067842	-1.033650
Zn2	Zn	1.247893	-0.194882	-0.801851
Zn3	Zn	1.095285	-0.093531	-0.786038
Zn4	Zn	1.120939	-0.220447	-0.955604
O5	O	1.171603	-0.144175	-0.894285
O6	O	1.331972	-0.063244	-1.042182
O7	O	1.227628	-0.181489	-0.631781
O8	O	1.090683	0.016158	-0.844929
O9	O	1.350781	-0.156580	-0.871880
O10	O	1.183994	0.035031	-1.026848
O11	O	1.115507	-0.107027	-0.620163
O12	O	0.992405	-0.131817	-0.769250
O13	O	1.134406	-0.200152	-1.133929
O14	O	1.011253	-0.225061	-0.893830
O15	O	1.208870	-0.088034	-1.191269
O16	O	1.252503	-0.304554	-0.796202
O17	O	1.159231	-0.323337	-0.909163
C18	C	0.974271	-0.184001	-0.821356
C19	C	0.889855	-0.201057	-0.790180
C20	C	0.563312	-0.014587	-1.131425
C21	C	0.483994	-0.030633	-1.102102
C22	C	0.503569	-0.127662	-0.924585
C23	C	0.582891	-0.111627	-0.953897
C24	C	0.612755	-0.055088	-1.057318
C25	C	0.632334	-0.152128	-0.879789
C26	C	0.711648	-0.136091	-0.909096
C27	C	0.741518	-0.079553	-1.012509
C28	C	0.692069	-0.039051	-1.086624
C29	C	0.602467	-0.208662	-0.776364
C30	C	0.651911	-0.249163	-0.702257
C31	C	0.731227	-0.233130	-0.731568
C32	C	0.761097	-0.176593	-0.834981
C33	C	0.780676	-0.273632	-0.657453
C34	C	0.859990	-0.257596	-0.686759
C35	C	0.840411	-0.160556	-0.864288
C36	C	1.211449	-0.341499	-0.845963
C37	C	1.228565	-0.425900	-0.825357
C38	C	1.301282	-0.535049	-0.737590
C39	C	1.285193	-0.455742	-0.756960
C40	C	1.188007	-0.475360	-0.874418
C41	C	1.204090	-0.554670	-0.855063
C42	C	1.260728	-0.584508	-0.786647
C43	C	1.163536	-0.604129	-0.904120
C44	C	1.179616	-0.683432	-0.884762
C45	C	1.236250	-0.713277	-0.816346
C46	C	1.276808	-0.663811	-0.767289
C47	C	1.106895	-0.574290	-0.972528
C48	C	1.066341	-0.623749	-1.021585
C49	C	1.082424	-0.703053	-1.002234
C50	C	1.139058	-0.732898	-0.933819
C51	C	1.041866	-0.752519	-1.051291
C52	C	1.057945	-0.831822	-1.031933
C53	C	1.155137	-0.812201	-0.914460
C54	C	1.369705	-0.104195	-0.967501
C55	C	1.454125	-0.087157	-0.998700
C56	C	1.171644	-0.144079	-1.207370
C57	C	1.171661	-0.144038	-1.340788
C58	C	1.131621	0.053923	-0.942830
C59	C	1.114583	0.138340	-0.963517
C60	C	1.171594	-0.144208	-0.582448
C61	C	1.171680	-0.144005	-0.449138
H62	H	0.900249	-0.290576	-0.626414
C63	C	0.619055	-0.311355	-0.588501
C64	C	0.557836	-0.289416	-0.482271
C65	C	0.524982	-0.351611	-0.368517
C66	C	0.553347	-0.435746	-0.360993
C67	C	0.614569	-0.457690	-0.467227
C68	C	0.647423	-0.395495	-0.580981
H69	H	0.536835	-0.227131	-0.487838
H70	H	0.479661	-0.335367	-0.289876
H71	H	0.529026	-0.481787	-0.276786
H72	H	0.635569	-0.519975	-0.461660
H73	H	0.692744	-0.411739	-0.659622
H74	H	1.322935	-0.688105	-0.711592
C75	C	0.470716	-0.189853	-0.810827
C76	C	0.499083	-0.273988	-0.803300
C77	C	0.466233	-0.336182	-0.689542
C78	C	0.405016	-0.314242	-0.583310
C79	C	0.376646	-0.230104	-0.590833
C80	C	0.409496	-0.167909	-0.704591
H81	H	0.544402	-0.290233	-0.881943
H82	H	0.487234	-0.398467	-0.683974
H83	H	0.380698	-0.360282	-0.499100
H84	H	0.331326	-0.213859	-0.512190
H85	H	0.388494	-0.105624	-0.710159
C86	C	1.004040	-0.590925	-1.096840
C87	C	1.012394	-0.600508	-1.232919
C88	C	0.950093	-0.567688	-1.308177
C89	C	0.879439	-0.525284	-1.247356
C90	C	0.871083	-0.515699	-1.111270
C91	C	0.933383	-0.548519	-1.036012
H92	H	1.064699	-0.631900	-1.277948
H93	H	0.956280	-0.574784	-1.408917
H94	H	0.833321	-0.500988	-1.303067
H95	H	0.818778	-0.484307	-1.066241
H96	H	0.927197	-0.541424	-0.935272
C97	C	0.747818	-0.335819	-0.543691
C98	C	0.686601	-0.313868	-0.437468
C99	C	0.653743	-0.376055	-0.323704
C100	C	0.682101	-0.460193	-0.316164
C101	C	0.743321	-0.482148	-0.422391
C102	C	0.776179	-0.419961	-0.536154
H103	H	0.665606	-0.251581	-0.443047
H104	H	0.608424	-0.359802	-0.245068
H105	H	0.657777	-0.506228	-0.231949
H106	H	0.764316	-0.544436	-0.416812
H107	H	0.821498	-0.436214	-0.614790
H108	H	1.201265	-0.836495	-0.858763
C109	C	0.724922	0.023147	-1.200385
C110	C	0.767365	0.093828	-1.183267
C111	C	0.800216	0.156027	-1.297018
C112	C	0.790622	0.147545	-1.427889
C113	C	0.748176	0.076860	-1.445013
C114	C	0.715326	0.014661	-1.331261
H115	H	0.774469	0.100111	-1.086384
H116	H	0.831637	0.208353	-1.284341
H117	H	0.814940	0.193588	-1.512094
H118	H	0.741073	0.070578	-1.541896
H119	H	0.683905	-0.037665	-1.343939
C120	C	1.125707	-0.442532	-0.949671
C121	C	1.041595	-0.470943	-0.905184
C122	C	0.979296	-0.438116	-0.980441
C123	C	1.001108	-0.376879	-1.100185
C124	C	1.085224	-0.348465	-1.144678
C125	C	1.147524	-0.381291	-1.069421
H126	H	1.025445	-0.516278	-0.816538
H127	H	0.917028	-0.459151	-0.947504
H128	H	0.954991	-0.352579	-1.155894
H129	H	1.101374	-0.303130	-1.233325
H130	H	1.209792	-0.360257	-1.102359
H131	H	1.318221	-0.415475	-0.717004
H132	H	0.995746	-0.728215	-1.106985
H133	H	0.864729	-0.114520	-0.948507
H134	H	0.537881	-0.221700	-0.752484
C135	C	1.013341	-0.886229	-1.085905
C136	C	1.057267	-0.934032	-1.179031
C137	C	1.012659	-0.988439	-1.233003
C138	C	0.924125	-0.995044	-1.193848
C139	C	0.880194	-0.947240	-1.100716
C140	C	0.924802	-0.892833	-1.046745
H141	H	1.122809	-0.929144	-1.208021
H142	H	1.045180	-1.023827	-1.301945
H143	H	0.891104	-1.035320	-1.233801
H144	H	0.814652	-0.952128	-1.071727
H145	H	0.892281	-0.857445	-0.977803
C146	C	1.363584	-0.567883	-0.662333
C147	C	1.355235	-0.558306	-0.526252
C148	C	1.417532	-0.591142	-0.450995
C149	C	1.488177	-0.633556	-0.511819
C150	C	1.496529	-0.643134	-0.647907
C151	C	1.434233	-0.610298	-0.723164
H152	H	1.302936	-0.526907	-0.481220
H153	H	1.411348	-0.584051	-0.350253
H154	H	1.534293	-0.657863	-0.456109
H155	H	1.548828	-0.674533	-0.692939
H156	H	1.440416	-0.617389	-0.823906
C157	C	0.596177	0.047604	-1.245189
C158	C	0.586593	0.039115	-1.376062
C159	C	0.619462	0.101304	-1.489817
C160	C	0.661915	0.171980	-1.472701
C161	C	0.671501	0.180471	-1.341823
C162	C	0.638632	0.118283	-1.228067
H163	H	0.555165	-0.013206	-1.388738
H164	H	0.612365	0.095018	-1.586702
H165	H	0.686246	0.218015	-1.556909
H166	H	0.702929	0.232793	-1.329147
H167	H	0.645729	0.124569	-1.131182
H168	H	1.249341	-0.777851	-0.800586
H169	H	0.806101	-0.066495	-1.036365
C170	C	0.429599	0.013919	-1.183621
C171	C	0.441802	0.009842	-1.322546
C172	C	0.387404	0.054394	-1.404055
C173	C	0.320802	0.103022	-1.346640
C174	C	0.308596	0.107101	-1.207707
C175	C	0.362994	0.062549	-1.126198
H176	H	0.491108	-0.026157	-1.365055
H177	H	0.396441	0.051374	-1.506902
H178	H	0.280533	0.136002	-1.406978
H179	H	0.259290	0.143100	-1.165198
H180	H	0.353957	0.065569	-1.023351
H181	H	1.093798	-0.509717	-0.988274
