data_functionalizedCrystal
_audit_creation_method	'MofGen! by Chris Wilmer'
_symmetry_space_group_name_H-M	'P1'
_symmetry_Int_Tables_number	1
_symmetry_cell_setting	triclinic
loop_
_symmetry_equiv_pos_as_xyz
  x,y,z
_cell_length_a	16.992694
_cell_length_b	15.021413
_cell_length_c	16.974813
_cell_angle_alpha	93.650548
_cell_angle_beta	92.975366
_cell_angle_gamma	89.997805
loop_
_atom_site_label
_atom_site_type_symbol
_atom_site_fract_x
_atom_site_fract_y
_atom_site_fract_z
O1	O	-1.040216	0.085996	0.167637
O2	O	-0.811933	0.085889	0.165798
O3	O	-0.932438	0.077674	0.052018
O4	O	-0.919711	0.094211	0.281418
O5	O	-0.932418	-0.070389	0.052034
O6	O	-0.811913	-0.062174	0.165814
O7	O	-1.040197	-0.062067	0.167654
Zn8	Zn	-0.926052	-0.085629	0.166736
Zn9	Zn	-0.926077	0.109451	0.166715
O10	O	-0.919692	-0.053852	0.281434
C11	C	-0.782713	0.011691	0.163440
C12	C	-0.695676	0.011192	0.156381
C13	C	-0.931944	0.001519	0.022537
C14	C	-0.930491	-0.004809	-0.065331
C15	C	-1.069416	0.012133	0.170012
C16	C	-1.156453	0.012638	0.177071
C17	C	-0.645363	0.016102	0.224496
C18	C	-0.563583	0.015611	0.217858
C19	C	-0.532119	0.010217	0.143104
C20	C	-0.582439	0.005304	0.074984
C21	C	-0.664217	0.005789	0.081623
C22	C	-0.288551	0.008210	0.115590
C23	C	-0.206766	0.007728	0.108956
C24	C	-0.187916	0.018033	0.251831
C25	C	-0.269697	0.018522	0.258463
C26	C	-0.320010	0.013605	0.190342
N27	N	-0.448527	0.009718	0.136317
N28	N	-0.403599	0.014098	0.197130
N29	N	-0.926040	-0.218765	0.166751
C30	C	-0.870310	-0.454652	0.219336
C31	C	-0.941141	-0.512566	0.239158
C32	C	-0.926061	-0.400374	0.166732
C33	C	-0.855250	-0.519200	0.146929
C34	C	-0.926074	-0.575799	0.166716
C35	C	-0.996926	-0.456978	0.186592
C36	C	-0.910989	-0.463610	0.094329
C37	C	-0.981870	-0.521499	0.114124
C38	C	-0.926052	-0.299315	0.166744
C39	C	-0.926090	-0.676855	0.166704
N40	N	-0.926095	0.242587	0.166695
C41	C	-0.929821	0.072927	-0.106616
C42	C	-0.928451	0.066979	-0.189176
C43	C	-0.927757	-0.016706	-0.230451
C44	C	-0.928425	-0.094448	-0.189161
C45	C	-0.929789	-0.088499	-0.106601
C46	C	-0.923670	-0.043154	-0.477367
C47	C	-0.922308	-0.049097	-0.559933
C48	C	-0.922333	0.112330	-0.559943
C49	C	-0.923702	0.118272	-0.477382
C50	C	-0.924366	0.040530	-0.436098
N51	N	-0.926359	-0.022789	-0.314842
N52	N	-0.925758	0.046614	-0.351709
C53	C	-0.920186	0.022305	0.310915
C54	C	-0.921638	0.028639	0.398783
H55	H	-0.670974	0.020495	0.285368
H56	H	-1.029073	-0.550564	0.069632
H57	H	-0.556814	0.000900	0.014118
H58	H	-0.898207	-0.441912	0.033124
H59	H	-0.921791	0.175623	-0.593565
H60	H	-0.181152	0.003336	0.048080
H61	H	-0.146943	0.022035	0.307290
H62	H	-0.930390	0.141072	-0.073016
H63	H	-0.921739	-0.117247	-0.593536
H64	H	-0.924226	-0.106457	-0.443765
H65	H	-0.927909	0.130279	-0.222787
H66	H	-0.924268	0.186417	-0.443781
H67	H	-0.927855	-0.162586	-0.222773
H68	H	-0.930324	-0.151800	-0.072987
H69	H	-0.795361	-0.546485	0.130188
H70	H	-1.056828	-0.429800	0.203407
H71	H	-0.295308	0.022925	0.319335
H72	H	-0.522621	0.019610	0.273324
H73	H	-0.329506	0.004205	0.060121
H74	H	-0.705182	0.001791	0.026156
H75	H	-0.823212	-0.425421	0.263863
H76	H	-0.953900	-0.534241	0.300381
