data_functionalizedCrystal
_audit_creation_method	'MofGen! by Chris Wilmer'
_symmetry_space_group_name_H-M	'P1'
_symmetry_Int_Tables_number	1
_symmetry_cell_setting	triclinic
loop_
_symmetry_equiv_pos_as_xyz
  x,y,z
_cell_length_a	10.654546
_cell_length_b	19.188930
_cell_length_c	9.130313
_cell_angle_alpha	89.993647
_cell_angle_beta	89.998822
_cell_angle_gamma	83.814132
loop_
_atom_site_label
_atom_site_type_symbol
_atom_site_fract_x
_atom_site_fract_y
_atom_site_fract_z
O1	O	1.665762	0.098047	-0.121850
O2	O	1.300085	0.107392	-0.121848
O3	O	1.493476	0.001133	-0.121820
O4	O	1.472371	0.204306	-0.121877
O5	O	1.493474	0.001136	0.121779
O6	O	1.300083	0.107395	0.121751
O7	O	1.665759	0.098050	0.121749
Cu8	Cu	1.482921	0.102723	0.143993
Cu9	Cu	1.482924	0.102720	-0.144091
O10	O	1.472368	0.204309	0.121722
C11	C	1.253300	0.106708	-0.000047
C12	C	1.113900	0.104657	-0.000045
C13	C	1.048427	0.103684	-0.132837
C14	C	0.917448	0.101751	-0.132849
C15	C	0.917426	0.101760	0.132736
C16	C	1.048402	0.103698	0.132746
C17	C	1.048440	0.103676	-0.286171
C18	C	0.917460	0.101743	-0.286182
C19	C	1.492791	-0.024881	-0.000016
C20	C	1.490740	-0.102399	-0.000004
C21	C	1.604215	-0.146581	0.000002
C22	C	1.602288	-0.219418	-0.000021
C23	C	1.486878	-0.248068	-0.000021
C24	C	1.373388	-0.203876	-0.000036
C25	C	1.375319	-0.131041	-0.000027
N26	N	1.398661	-0.356649	0.082881
N27	N	1.396834	-0.425839	0.082875
C28	C	1.481054	-0.467515	-0.000051
N29	N	1.567189	-0.437388	-0.082954
N30	N	1.569019	-0.368191	-0.082942
C31	C	1.484772	-0.327045	-0.000032
C32	C	1.592448	-0.590676	-0.000072
C33	C	1.590515	-0.663513	-0.000105
C34	C	1.361612	-0.647970	-0.000105
C35	C	1.363548	-0.575134	-0.000087
C36	C	1.478969	-0.546492	-0.000064
C37	C	1.712544	0.098734	-0.000054
C38	C	1.851944	0.100786	-0.000066
C39	C	1.473053	0.230323	-0.000085
C40	C	1.475105	0.307841	-0.000107
N41	N	1.482928	0.102725	0.346615
N42	N	1.482927	0.102712	-0.346714
C43	C	1.568583	0.055689	0.423279
C44	C	1.568580	0.055681	0.576616
C45	C	1.397262	0.149750	0.576611
C46	C	1.397261	0.149754	0.423277
C47	C	1.667496	0.001382	0.423283
C48	C	1.667493	0.001373	0.576620
H49	H	0.864696	0.151463	-0.333789
O50	O	0.889312	0.042882	-0.356379
C51	C	0.969607	-0.062375	-0.484439
C52	C	1.001664	0.004246	-0.404952
H53	H	1.060421	-0.093623	-0.523760
H54	H	0.918251	-0.095817	-0.405998
H55	H	0.906395	-0.046976	-0.582503
H56	H	1.064912	-0.011089	-0.306893
H57	H	1.052956	0.037671	-0.483491
O58	O	1.643035	-0.062608	0.373715
C59	C	1.496488	-0.149865	0.369161
C60	C	1.524021	-0.077382	0.425362
H61	H	1.400279	-0.161838	0.410920
H62	H	1.496392	-0.149894	0.244298
H63	H	1.572469	-0.191547	0.410744
H64	H	1.448072	-0.035659	0.383886
H65	H	1.524164	-0.077412	0.550224
H66	H	1.101703	0.104498	0.240878
O67	O	1.700668	-0.706508	0.000089
C68	C	1.831353	-0.797747	0.126319
C69	C	1.706546	-0.749106	0.126267
H70	H	1.836158	-0.832190	0.228338
H71	H	1.836192	-0.832271	0.024432
H72	H	1.914154	-0.764748	0.126266
H73	H	1.623675	-0.782050	0.126371
H74	H	1.701817	-0.714579	0.228145
H75	H	1.279421	-0.227208	-0.000039
H76	H	1.698200	-0.123266	0.000016
O77	O	1.313880	0.195362	0.651020
C78	C	1.095301	0.235164	0.697867
C79	C	1.189595	0.183457	0.613538
H80	H	0.994797	0.225566	0.667570
H81	H	1.109902	0.227080	0.820645
H82	H	1.111411	0.291167	0.667737
H83	H	1.173543	0.127434	0.643544
H84	H	1.174971	0.191602	0.490780
O85	O	1.712639	-0.262247	0.000055
C86	C	1.939879	-0.269983	-0.000005
C87	C	1.815003	-0.221402	-0.000057
H88	H	2.022674	-0.236979	-0.000127
H89	H	1.944771	-0.304463	0.101963
H90	H	1.944634	-0.304479	-0.101929
H91	H	1.810165	-0.186862	0.101797
H92	H	1.810164	-0.186968	-0.102093
H93	H	0.864081	0.100980	0.240850
O94	O	1.775833	0.021584	0.366327
C95	C	1.958495	-0.009969	0.215112
C96	C	1.835843	-0.032947	0.279509
H97	H	2.007062	-0.054050	0.144931
H98	H	1.935240	0.038797	0.144748
H99	H	2.024035	0.002345	0.308085
H100	H	1.770246	-0.045298	0.186630
H101	H	1.859192	-0.081690	0.349911
O102	O	1.704671	-0.562963	-0.000141
C103	C	1.931504	-0.586065	-0.000084
C104	C	1.804501	-0.617540	-0.000034
H105	H	2.012249	-0.630175	0.000033
H106	H	1.938207	-0.552370	-0.102050
H107	H	1.938070	-0.552339	0.101842
H108	H	1.797849	-0.651297	-0.101890
H109	H	1.797852	-0.651194	0.102000
O110	O	1.265000	-0.088190	-0.000220
C111	C	1.069991	-0.052576	-0.126465
C112	C	1.194866	-0.101158	-0.126416
H113	H	1.013265	-0.063033	-0.228499
H114	H	1.013083	-0.063083	-0.024593
H115	H	1.091227	0.004396	-0.126380
H116	H	1.173745	-0.158147	-0.126552
H117	H	1.251738	-0.090591	-0.228278
H118	H	1.267643	-0.671296	-0.000112
H119	H	1.271143	-0.539159	-0.000084
H120	H	1.072216	0.152973	-0.345057
H121	H	1.101215	0.053954	-0.333724
O122	O	1.314171	0.195539	0.348876
C123	C	1.239829	0.316559	0.302034
C124	C	1.334023	0.264784	0.386354
H125	H	1.255829	0.372554	0.332327
H126	H	1.254531	0.308549	0.179254
H127	H	1.139321	0.306896	0.332175
H128	H	1.434569	0.274415	0.356336
H129	H	1.319210	0.272806	0.509113
H130	H	1.638053	-0.049338	0.624182
H131	H	1.763751	0.013335	0.618232
