data_functionalizedCrystal
_audit_creation_method	'MofGen! by Chris Wilmer'
_symmetry_space_group_name_H-M	'P1'
_symmetry_Int_Tables_number	1
_symmetry_cell_setting	triclinic
loop_
_symmetry_equiv_pos_as_xyz
  x,y,z
_cell_length_a	16.109301
_cell_length_b	15.944551
_cell_length_c	14.586319
_cell_angle_alpha	89.995256
_cell_angle_beta	89.999213
_cell_angle_gamma	83.480109
loop_
_atom_site_label
_atom_site_type_symbol
_atom_site_fract_x
_atom_site_fract_y
_atom_site_fract_z
O1	O	1.103166	0.107966	-0.076184
O2	O	0.861108	0.121403	-0.076199
O3	O	0.988747	-0.007593	-0.076183
O4	O	0.975527	0.236961	-0.076200
O5	O	0.988738	-0.007595	0.076298
O6	O	0.861099	0.121401	0.076282
O7	O	1.103157	0.107964	0.076296
Cu8	Cu	0.982127	0.114682	0.090212
Cu9	Cu	0.982138	0.114685	-0.090114
O10	O	0.975518	0.236960	0.076280
C11	C	0.830129	0.120857	0.000039
C12	C	0.737833	0.119226	0.000034
C13	C	0.515584	0.191975	0.000040
C14	C	0.428863	0.190435	0.000046
C15	C	0.448688	0.037387	0.000053
C16	C	0.535407	0.038927	0.000053
C17	C	0.568853	0.116224	0.000042
C18	C	0.395412	0.113143	0.000047
C19	C	0.301386	0.111473	0.000054
C20	C	0.662885	0.117894	0.000037
C21	C	0.988194	-0.038887	0.000057
C22	C	0.986548	-0.132133	0.000058
C23	C	0.903499	-0.346962	0.000040
C24	C	0.942060	-0.407993	0.075225
C25	C	0.983572	-0.302858	0.000051
C26	C	0.942088	-0.407975	-0.075109
C27	C	0.980691	-0.467769	0.000040
C28	C	1.022155	-0.362660	0.075297
C29	C	1.022171	-0.362636	-0.075104
C30	C	1.060790	-0.423649	0.000099
C31	C	0.985229	-0.207856	0.000058
C32	C	0.979039	-0.562770	0.000039
C33	C	1.134136	0.108510	0.000056
C34	C	1.226432	0.110141	0.000055
C35	C	0.976071	0.268254	0.000038
C36	C	0.977717	0.361500	0.000031
N37	N	0.982126	0.114680	0.217044
N38	N	0.982146	0.114680	-0.216946
C39	C	1.038663	0.057580	0.452057
C40	C	1.038666	0.057578	0.548038
C41	C	0.925602	0.171783	0.548034
C42	C	0.925597	0.171780	0.452054
C43	C	0.982132	0.114680	0.404068
C44	C	0.982140	0.114680	0.596029
C45	C	0.982142	0.114679	0.700096
C46	C	0.982129	0.114680	0.299995
H47	H	0.908189	-0.428091	0.138783
N48	N	0.899590	-0.433175	-0.154838
N49	N	0.835915	-0.470615	-0.146487
H50	H	0.805896	-0.488412	-0.202790
N51	N	0.374439	0.267805	0.000039
N52	N	0.297013	0.266423	0.000046
H53	H	0.258574	0.321068	0.000044
H54	H	0.879574	0.218274	0.587113
H55	H	1.084696	0.011085	0.412989
N56	N	1.064583	-0.337604	0.155137
N57	N	1.037608	-0.352567	0.233100
H58	H	1.067569	-0.334869	0.289488
N59	N	1.096413	-0.000758	0.597043
N60	N	1.146879	-0.051735	0.554184
H61	H	1.187665	-0.092940	0.588792
H62	H	0.879558	0.218278	0.412979
H63	H	0.837035	-0.313632	0.000111
N64	N	0.549735	0.270935	0.000029
N65	N	0.502160	0.338563	0.000029
H66	H	0.526276	0.394332	0.000024
N67	N	1.144232	-0.465297	0.000144
N68	N	1.168811	-0.513377	-0.064416
H69	H	1.227741	-0.542795	-0.064381
N70	N	0.414508	-0.041559	0.000064
N71	N	0.337080	-0.042925	0.000062
H72	H	0.312941	-0.098682	0.000069
N73	N	0.589826	-0.038455	0.000074
N74	N	0.586778	-0.089864	0.064355
H75	H	0.625212	-0.144513	0.064375
N76	N	1.064622	-0.337401	-0.154848
N77	N	1.037336	-0.351667	-0.232856
H78	H	1.067311	-0.333844	-0.289183
