data_functionalizedCrystal
_audit_creation_method	'MofGen! by Chris Wilmer'
_symmetry_space_group_name_H-M	'P1'
_symmetry_Int_Tables_number	1
_symmetry_cell_setting	triclinic
loop_
_symmetry_equiv_pos_as_xyz
  x,y,z
_cell_length_a	25.639242
_cell_length_b	25.639240
_cell_length_c	19.077237
_cell_angle_alpha	92.274109
_cell_angle_beta	87.679396
_cell_angle_gamma	90.026961
loop_
_atom_site_label
_atom_site_type_symbol
_atom_site_fract_x
_atom_site_fract_y
_atom_site_fract_z
Zn1	Zn	0.811127	-0.220105	-0.398122
Zn2	Zn	1.311127	0.279895	0.101878
Zn3	Zn	0.807549	-0.304030	-0.280432
Zn4	Zn	1.307549	0.195970	0.219568
Zn5	Zn	0.720192	-0.216602	-0.280423
Zn6	Zn	1.220192	0.283398	0.219577
Zn7	Zn	0.723657	-0.307502	-0.398072
Zn8	Zn	1.223657	0.192498	0.101928
O9	O	0.765631	-0.262060	-0.339262
O10	O	1.265631	0.237940	0.160738
O11	O	0.883818	-0.231251	-0.382535
O12	O	1.383818	0.268749	0.117465
O13	O	0.793014	-0.289513	-0.181941
O14	O	1.293014	0.210487	0.318059
O15	O	0.732301	-0.143902	-0.296053
O16	O	1.232301	0.356098	0.203947
O17	O	0.881190	-0.292910	-0.296069
O18	O	1.381190	0.207090	0.203931
O19	O	0.799111	-0.146476	-0.382526
O20	O	1.299111	0.353524	0.117474
O21	O	0.728832	-0.225281	-0.181934
O22	O	1.228832	0.274719	0.318066
O23	O	0.647485	-0.228647	-0.296004
O24	O	1.147485	0.271353	0.203996
O25	O	0.738207	-0.298828	-0.496569
O26	O	1.238207	0.201172	0.003431
O27	O	0.650031	-0.295431	-0.382441
O28	O	1.150031	0.204569	0.117559
O29	O	0.802471	-0.234618	-0.496606
O30	O	1.302471	0.265382	0.003394
O31	O	0.796374	-0.377655	-0.296021
O32	O	1.296374	0.122345	0.203979
O33	O	0.734738	-0.380206	-0.382450
O34	O	1.234738	0.119794	0.117550
C35	C	0.629787	-0.262036	-0.339217
C36	C	1.129787	0.237964	0.160783
C37	C	0.571673	-0.262039	-0.339214
C38	C	1.071673	0.237961	0.160786
C39	C	0.319149	-0.227232	-0.294333
C40	C	0.819149	0.272768	0.205667
C41	C	0.373753	-0.227227	-0.294324
C42	C	0.873753	0.272773	0.205676
O43	O	0.400857	-0.197600	-0.256125
O44	O	0.900857	0.302400	0.243875
N45	N	0.402400	-0.262047	-0.339249
N46	N	0.902400	0.237953	0.160751
C47	C	0.376441	-0.296871	-0.384191
C48	C	0.876441	0.203129	0.115809
O49	O	0.405821	-0.326487	-0.422403
O50	O	0.905821	0.173513	0.077597
C51	C	0.321838	-0.296873	-0.384203
C52	C	0.821838	0.203127	0.115797
C53	C	0.293193	-0.262054	-0.339270
C54	C	0.793193	0.237946	0.160730
C55	C	0.290504	-0.192416	-0.249404
C56	C	0.790504	0.307584	0.250596
C57	C	0.235904	-0.192422	-0.249412
C58	C	0.735904	0.307578	0.250588
C59	C	0.209948	-0.227244	-0.294349
C60	C	0.709948	0.272756	0.205651
C61	C	0.238593	-0.262060	-0.339278
C62	C	0.738593	0.237940	0.160722
C63	C	0.295880	-0.331694	-0.429148
C64	C	0.795880	0.168306	0.070852
C65	C	0.241273	-0.331693	-0.429157
C66	C	0.741273	0.168307	0.070843
C67	C	0.212628	-0.296874	-0.384224
C68	C	0.712628	0.203126	0.115776
C69	C	0.158037	-0.296888	-0.384224
C70	C	0.658037	0.203112	0.115776
N71	N	0.129390	-0.262068	-0.339298
N72	N	0.629390	0.237932	0.160702
C73	C	0.155345	-0.227246	-0.294361
C74	C	0.655345	0.272754	0.205639
C75	C	0.491111	-0.296863	-0.384164
C76	C	0.991111	0.203137	0.115836
C77	C	0.545712	-0.296864	-0.384149
C78	C	1.045712	0.203136	0.115851
C79	C	0.543021	-0.227219	-0.294282
C80	C	1.043021	0.272781	0.205718
C81	C	0.488418	-0.227221	-0.294294
C82	C	0.988418	0.272779	0.205706
C83	C	0.462463	-0.262043	-0.339238
C84	C	0.962463	0.237957	0.160762
C85	C	0.040681	-0.227261	-0.294381
C86	C	0.540681	0.272739	0.205619
C87	C	-0.013924	-0.227272	-0.294392
C88	C	0.486076	0.272728	0.205608
C89	C	-0.011228	-0.296914	-0.384260
C90	C	0.488772	0.203086	0.115740
C91	C	0.043372	-0.296906	-0.384248
C92	C	0.543372	0.203094	0.115752
C93	C	0.069325	-0.262075	-0.339306
C94	C	0.569325	0.237925	0.160694
O95	O	0.130898	-0.326498	-0.422405
O96	O	0.630898	0.173502	0.077595
O97	O	0.125959	-0.197630	-0.256162
O98	O	0.625959	0.302370	0.243838
C99	C	0.765558	-0.397902	-0.339246
C100	C	1.265558	0.102098	0.160754
C101	C	0.765576	-0.456016	-0.339263
C102	C	1.265576	0.043984	0.160737
C103	C	0.800417	-0.708500	-0.384335
C104	C	1.300417	-0.208500	0.115665
C105	C	0.800401	-0.653896	-0.384330
C106	C	1.300401	-0.153896	0.115670
O107	O	0.829964	-0.626755	-0.422628
O108	O	1.329964	-0.126755	0.077372
N109	N	0.765633	-0.625291	-0.339272
N110	N	1.265633	-0.125291	0.160728
C111	C	0.730882	-0.651293	-0.294211
C112	C	1.230882	-0.151293	0.205789
O113	O	0.701308	-0.621948	-0.255885
O114	O	1.201308	-0.121948	0.244115
C115	C	0.730901	-0.705896	-0.294213
C116	C	1.230901	-0.205896	0.205787
C117	C	0.765668	-0.734498	-0.339279
C118	C	1.265668	-0.234498	0.160721
C119	C	0.835182	-0.737102	-0.429397
C120	C	1.335182	-0.237102	0.070603
C121	C	0.835197	-0.791703	-0.429403
C122	C	1.335197	-0.291703	0.070597
C123	C	0.800447	-0.817702	-0.384347
C124	C	1.300447	-0.317702	0.115653
C125	C	0.765683	-0.789099	-0.339285
C126	C	1.265683	-0.289099	0.160715
C127	C	0.696153	-0.731897	-0.249150
C128	C	1.196153	-0.231897	0.250850
C129	C	0.696175	-0.786504	-0.249155
C130	C	1.196175	-0.286504	0.250845
C131	C	0.730942	-0.815107	-0.294221
C132	C	1.230942	-0.315107	0.205779
C133	C	0.730949	-0.869698	-0.294236
C134	C	1.230949	-0.369698	0.205764
N135	N	0.765717	-0.898303	-0.339294
N136	N	1.265717	-0.398303	0.160706
C137	C	0.800466	-0.872305	-0.384349
C138	C	1.300466	-0.372305	0.115651
C139	C	0.730846	-0.536622	-0.294209
C140	C	1.230846	-0.036622	0.205791
C141	C	0.730824	-0.482020	-0.294209
C142	C	1.230824	0.017980	0.205791
C143	C	0.800344	-0.484626	-0.384327
C144	C	1.300344	0.015374	0.115673
C145	C	0.800363	-0.539230	-0.384330
C146	C	1.300363	-0.039230	0.115670
C147	C	0.765614	-0.565227	-0.339267
C148	C	1.265614	-0.065227	0.160733
C149	C	0.800495	-0.986970	-0.384359
C150	C	1.300495	-0.486970	0.115641
C151	C	0.800505	-1.041576	-0.384363
C152	C	1.300505	-0.541576	0.115637
C153	C	0.730988	-1.038964	-0.294243
C154	C	1.230988	-0.538964	0.205757
C155	C	0.730975	-0.984364	-0.294241
C156	C	1.230975	-0.484364	0.205759
C157	C	0.765733	-0.958368	-0.339302
C158	C	1.265733	-0.458368	0.160698
O159	O	0.701403	-0.896874	-0.255955
O160	O	1.201403	-0.396874	0.244045
O161	O	0.830040	-0.901656	-0.422663
O162	O	1.330040	-0.401656	0.077337
C163	C	0.902005	-0.262084	-0.339309
C164	C	1.402005	0.237916	0.160691
C165	C	0.960120	-0.262094	-0.339329
C166	C	1.460120	0.237906	0.160671
C167	C	0.771125	-0.267501	-0.522839
C168	C	1.271125	0.232499	-0.022839
C169	C	0.773466	-0.269819	-0.601068
C170	C	1.273466	0.230181	-0.101068
C171	C	0.765719	-0.125688	-0.339294
C172	C	1.265719	0.374312	0.160706
C173	C	0.765756	-0.067574	-0.339308
C174	C	1.265756	0.432426	0.160692
C175	C	0.790260	-0.286488	-1.041416
C176	C	1.290260	0.213512	-0.541416
C177	C	0.788053	-0.284306	-0.967911
C178	C	1.288053	0.215694	-0.467911
C179	C	0.753537	-0.249770	-0.931163
C180	C	1.253537	0.250230	-0.431163
C181	C	0.721222	-0.217417	-0.967924
C182	C	1.221222	0.282583	-0.467924
C183	C	0.723427	-0.219602	-1.041427
C184	C	1.223427	0.280398	-0.541427
C185	C	0.743356	-0.239652	-0.711332
C186	C	1.243356	0.260348	-0.211332
C187	C	0.741155	-0.237468	-0.637823
C188	C	1.241155	0.262532	-0.137823
C189	C	0.807985	-0.304358	-0.637816
C190	C	1.307985	0.195642	-0.137816
C191	C	0.810190	-0.306537	-0.711321
C192	C	1.310190	0.193463	-0.211321
C193	C	0.777873	-0.274187	-0.748075
C194	C	1.277873	0.225813	-0.248075
N195	N	0.751281	-0.247538	-0.856030
N196	N	1.251281	0.252462	-0.356030
N197	N	0.780127	-0.276422	-0.823207
N198	N	1.280127	0.223578	-0.323207
C199	C	0.760189	-0.256602	-0.156400
C200	C	1.260189	0.243398	0.343600
C201	C	0.757949	-0.254136	-0.078171
C202	C	1.257949	0.245864	0.421829
H203	H	0.569030	-0.325222	-0.420730
H204	H	1.069030	0.174778	0.079270
F205	F	0.693813	-0.451585	-0.246254
F206	F	1.193813	0.048415	0.253746
H207	H	-0.037244	-0.198917	-0.257799
H208	H	0.462756	0.301083	0.242201
F209	F	0.463492	-0.333931	-0.431998
F210	F	0.963492	0.166069	0.068002
H211	H	0.311632	-0.164056	-0.212811
H212	H	0.811632	0.335944	0.287189
F213	F	0.205425	-0.155358	-0.201593
F214	F	0.705425	0.344642	0.298407
H215	H	0.693116	-0.189300	-0.937997
H216	H	1.193116	0.310700	-0.437997
F217	F	0.837509	-1.072014	-0.432333
F218	F	1.337509	-0.572014	0.067667
H219	H	0.319193	-0.360047	-0.465738
H220	H	0.819193	0.139953	0.034262
H221	H	0.818370	-0.314608	-1.071331
H222	H	1.318370	0.185392	-0.571331
F223	F	0.689039	-0.185168	-1.080544
F224	F	1.189039	0.314832	-0.580544
F225	F	0.842376	-0.338785	-0.598695
F226	F	1.342376	0.161215	-0.098695
F227	F	0.704417	-0.200708	-0.598715
F228	F	1.204417	0.299292	-0.098715
F229	F	0.659191	-0.814169	-0.201190
F230	F	1.159191	-0.314169	0.298810
F231	F	0.822444	-0.318738	-0.928797
F232	F	1.322444	0.181262	-0.428797
H233	H	0.702660	-0.961075	-0.257552
H234	H	1.202660	-0.461075	0.242448
F235	F	0.570655	-0.190158	-0.246456
F236	F	1.070655	0.309842	0.253544
H237	H	0.863481	-0.715939	-0.466086
H238	H	1.363481	-0.215939	0.033914
H239	H	0.717041	-0.213311	-0.741248
H240	H	1.217041	0.286689	-0.241248
H241	H	0.061805	-0.198896	-0.257789
H242	H	0.561805	0.301104	0.242211
H243	H	0.702695	-1.060142	-0.257562
H244	H	1.202695	-0.560142	0.242438
H245	H	0.465099	-0.198867	-0.257708
H246	H	0.965099	0.301133	0.242292
F247	F	0.846923	-0.343299	-0.750426
F248	F	1.346923	0.156701	-0.250426
F249	F	0.872200	-0.822137	-0.477370
F250	F	1.372200	-0.322137	0.022630
H251	H	0.828640	-0.463449	-0.421013
H252	H	1.328640	0.036551	0.078987
H253	H	0.066696	-0.325262	-0.420831
H254	H	0.566696	0.174738	0.079169
F255	F	0.213653	-0.368755	-0.476996
F256	F	0.713653	0.131245	0.023004
F257	F	0.837488	-0.959312	-0.432318
F258	F	1.337488	-0.459312	0.067682
H259	H	0.702545	-0.557786	-0.257515
H260	H	1.202545	-0.057786	0.242485
F261	F	0.659146	-0.701468	-0.201187
F262	F	1.159146	-0.201468	0.298813
F263	F	-0.038862	-0.333978	-0.432075
F264	F	0.461138	0.166022	0.067925
H265	H	0.828671	-0.562514	-0.421030
H266	H	1.328671	-0.062514	0.078970
