data_functionalizedCrystal
_audit_creation_method	'MofGen! by Chris Wilmer'
_symmetry_space_group_name_H-M	'P1'
_symmetry_Int_Tables_number	1
_symmetry_cell_setting	triclinic
loop_
_symmetry_equiv_pos_as_xyz
  x,y,z
_cell_length_a	13.635800
_cell_length_b	15.866870
_cell_length_c	11.102315
_cell_angle_alpha	69.482992
_cell_angle_beta	108.606275
_cell_angle_gamma	77.344085
loop_
_atom_site_label
_atom_site_type_symbol
_atom_site_fract_x
_atom_site_fract_y
_atom_site_fract_z
V1	V	2.060048	-0.132641	0.458397
O2	O	2.035080	0.006369	0.385731
O3	O	2.052642	-0.263000	0.516757
O4	O	2.048375	-0.130603	0.630264
O5	O	2.039377	-0.126945	0.271438
V6	V	2.298063	-0.116014	0.428565
O7	O	2.198896	-0.169115	0.523836
O8	O	2.384314	-0.079540	0.363126
O9	O	2.193866	0.014345	0.370205
O10	O	2.381729	-0.255024	0.501231
O11	O	2.377433	-0.121710	0.615523
O12	O	2.198133	-0.118052	0.256698
V13	V	2.560048	-0.132641	0.458397
O14	O	2.535080	0.006369	0.385731
O15	O	2.552642	-0.263000	0.516757
O16	O	2.548375	-0.130603	0.630264
O17	O	2.539377	-0.126945	0.271438
V18	V	2.798063	-0.116014	0.428565
O19	O	2.698896	-0.169115	0.523836
O20	O	2.884314	-0.079540	0.363126
O21	O	2.693866	0.014345	0.370205
O22	O	2.881729	-0.255024	0.501231
O23	O	2.877433	-0.121710	0.615523
O24	O	2.698133	-0.118052	0.256698
C25	C	1.978822	-0.294779	0.525393
C26	C	2.013493	-0.401349	0.574255
C27	C	1.974909	-0.683427	0.121020
C28	C	2.007496	-0.783571	0.166976
C29	C	2.068541	-0.810926	0.412555
C30	C	2.035954	-0.710783	0.366620
C31	C	1.989140	-0.647041	0.220851
C32	C	2.050185	-0.674397	0.466451
C33	C	2.017606	-0.574262	0.420519
C34	C	1.970796	-0.510514	0.274756
C35	C	1.956561	-0.546906	0.174919
C36	C	2.097006	-0.738141	0.612220
C37	C	2.111238	-0.701754	0.712050
C38	C	2.078651	-0.601618	0.666118
C39	C	2.031841	-0.537870	0.520356
C40	C	2.092886	-0.565226	0.765956
C41	C	2.060307	-0.465091	0.720024
C42	C	1.999262	-0.437735	0.474424
C43	C	1.973379	-0.125892	0.670181
C44	C	2.004588	-0.125088	0.811087
C45	C	2.099357	0.046119	0.361568
C46	C	2.054306	0.152688	0.312715
C47	C	2.104800	-0.122766	0.216776
C48	C	2.063210	-0.123565	0.075866
C49	C	2.478822	-0.294779	0.525393
C50	C	2.513493	-0.401349	0.574255
C51	C	2.473379	-0.125892	0.670181
C52	C	2.504588	-0.125088	0.811087
C53	C	2.188924	-0.134669	0.828545
C54	C	2.295750	-0.139084	0.903472
C55	C	2.325067	-0.138327	1.035864
C56	C	2.247547	-0.133152	1.093329
C57	C	2.140720	-0.128737	1.018401
C58	C	2.111414	-0.129497	0.886009
C59	C	1.956383	-0.119149	1.000939
C60	C	1.927067	-0.119913	0.868552
C61	C	1.878863	-0.113974	1.058404
C62	C	1.772037	-0.109566	0.983481
C63	C	1.742722	-0.110323	0.851082
C64	C	1.820240	-0.115497	0.793624
C65	C	2.599357	0.046119	0.361568
C66	C	2.554306	0.152688	0.312715
C67	C	2.604800	-0.122766	0.216776
C68	C	2.563210	-0.123565	0.075866
C69	C	2.621950	-0.456284	0.605840
C70	C	2.654547	-0.556421	0.651772
C71	C	2.578682	-0.601620	0.666107
C72	C	2.470217	-0.546678	0.634521
C73	C	2.437624	-0.446544	0.588601
C74	C	2.618343	0.207622	0.281133
C75	C	2.576019	0.307758	0.235208
C76	C	2.469661	0.352958	0.220875
C77	C	2.405619	0.298017	0.252457
C78	C	2.447940	0.197883	0.298372
C79	C	2.570417	-0.300674	0.929671
C80	C	2.617989	-0.388085	1.055157
C81	C	2.647311	-0.387324	1.187547
C82	C	2.629062	-0.299143	1.194447
C83	C	2.581490	-0.211732	1.068961
C84	C	2.552168	-0.212502	0.936575
C85	C	2.515669	-0.036149	0.950379
C86	C	2.486338	-0.036907	0.817987
C87	C	2.497420	0.052032	0.957280
C88	C	2.449840	0.139446	0.831791
C89	C	2.420516	0.138682	0.699396
C90	C	2.438766	0.050504	0.692501
H91	H	1.944274	-0.428979	0.237361
O92	O	2.645115	0.367001	0.201197
H93	H	2.726192	0.318738	0.218919
O94	O	2.379355	-0.144667	0.841486
H95	H	2.404562	-0.081172	0.826745
H96	H	2.605235	-0.683156	0.703500
H97	H	2.319018	0.334833	0.240779
O98	O	1.992122	-0.822811	0.059284
H99	H	2.022642	-0.903150	0.115708
O100	O	2.378868	0.138637	0.332451
H101	H	2.424180	0.082549	0.445603
O102	O	2.733050	0.158889	0.296553
H103	H	2.786534	0.103266	0.408873
H104	H	2.408456	-0.583495	0.646201
O105	O	2.771531	-0.615659	0.685812
H106	H	2.781466	-0.692886	0.720168
O107	O	2.424028	0.460957	0.171381
H108	H	2.486441	0.491552	0.151851
O109	O	2.119037	-0.879677	0.569774
H110	H	2.139299	-0.955421	0.584945
O111	O	1.788623	-0.116316	0.650832
H112	H	1.716496	-0.048805	0.567835
O113	O	2.698609	-0.481598	1.322901
H114	H	2.706364	-0.543043	1.295867
H115	H	2.546528	-0.301301	0.821877
O116	O	2.320637	-0.387293	0.554516
H117	H	2.273366	-0.435552	0.572189
H118	H	2.521307	0.052645	1.065083
H119	H	2.683736	-0.419495	0.594167
H120	H	2.123533	-0.819676	0.649613
H121	H	1.918425	-0.495002	0.056218
O122	O	2.637661	-0.483193	1.047718
H123	H	2.609267	-0.469041	0.934579
H124	H	2.652955	-0.298532	1.302252
O125	O	2.430153	0.234548	0.839232
H126	H	2.458534	0.220392	0.952372
H127	H	2.381785	0.209862	0.597226
O128	O	2.407136	0.049683	0.549709
H129	H	2.427824	-0.026317	0.565997
H130	H	2.412053	-0.141921	1.096869
H131	H	1.961125	-0.385831	0.355723
O132	O	2.279168	-0.132337	1.236124
H133	H	2.302084	-0.068567	1.230475
O134	O	1.924403	-0.614661	-0.036204
H135	H	1.984929	-0.630961	-0.079828
O136	O	2.161734	-0.770505	0.869269
H137	H	2.181996	-0.846249	0.884440
H138	H	2.071911	-0.435466	0.801318
O139	O	2.143391	-0.633979	0.923175
H140	H	2.163657	-0.709722	0.938342
H141	H	2.165066	-0.135297	0.720753
H142	H	1.902738	-0.113352	1.166201
H143	H	1.708927	-0.105345	1.030276
H144	H	1.655726	-0.106705	0.790068
