data_functionalizedCrystal
_audit_creation_method	'MofGen! by Chris Wilmer'
_symmetry_space_group_name_H-M	'P1'
_symmetry_Int_Tables_number	1
_symmetry_cell_setting	triclinic
loop_
_symmetry_equiv_pos_as_xyz
  x,y,z
_cell_length_a	12.759395
_cell_length_b	12.759394
_cell_length_c	19.805399
_cell_angle_alpha	89.976033
_cell_angle_beta	89.984838
_cell_angle_gamma	90.014682
loop_
_atom_site_label
_atom_site_type_symbol
_atom_site_fract_x
_atom_site_fract_y
_atom_site_fract_z
Zn1	Zn	1.606223	-0.418295	-0.382657
Zn2	Zn	2.106223	0.081705	0.117343
Zn3	Zn	1.606127	-0.593989	-0.269476
Zn4	Zn	2.106127	-0.093989	0.230524
Zn5	Zn	1.430535	-0.418324	-0.269490
Zn6	Zn	1.930535	0.081676	0.230510
Zn7	Zn	1.430514	-0.593932	-0.382631
Zn8	Zn	1.930514	-0.093932	0.117369
O9	O	1.518350	-0.506135	-0.326064
O10	O	2.018350	-0.006135	0.173936
O11	O	1.753232	-0.441613	-0.367648
O12	O	2.253232	0.058387	0.132352
O13	O	1.582802	-0.570722	-0.174761
O14	O	2.082802	-0.070722	0.325239
O15	O	1.453889	-0.271299	-0.284519
O16	O	1.953889	0.228701	0.215481
O17	O	1.753161	-0.570694	-0.284494
O18	O	2.253161	-0.070694	0.215506
O19	O	1.582967	-0.271278	-0.367662
O20	O	2.082967	0.228722	0.132338
O21	O	1.453796	-0.441662	-0.174772
O22	O	1.953796	0.058338	0.325228
O23	O	1.283511	-0.441607	-0.284494
O24	O	1.783511	0.058393	0.215506
O25	O	1.453853	-0.570598	-0.477351
O26	O	1.953853	-0.070598	0.022649
O27	O	1.283495	-0.570626	-0.367618
O28	O	1.783495	-0.070626	0.132382
O29	O	1.582947	-0.441558	-0.477370
O30	O	2.082947	0.058442	0.022630
O31	O	1.582782	-0.741002	-0.284469
O32	O	2.082782	-0.241002	0.215531
O33	O	1.453760	-0.740961	-0.367604
O34	O	1.953760	-0.240961	0.132396
C35	C	1.245382	-0.506114	-0.326055
C36	C	1.745382	-0.006114	0.173945
C37	C	1.128605	-0.506131	-0.326068
C38	C	1.628605	-0.006131	0.173932
C39	C	1.518286	-0.779102	-0.326047
C40	C	2.018286	-0.279102	0.173953
C41	C	1.518356	-0.895879	-0.326063
C42	C	2.018356	-0.395879	0.173937
C43	C	1.128660	-0.371936	-0.412796
C44	C	1.628660	0.128064	0.087204
C45	C	1.073827	-0.304851	-0.456165
C46	C	1.573827	0.195149	0.043835
C47	C	0.964105	-0.304869	-0.456173
C48	C	1.464105	0.195131	0.043827
C49	C	0.909214	-0.371978	-0.412806
C50	C	1.409214	0.128022	0.087194
C51	C	0.964048	-0.439063	-0.369437
C52	C	1.464048	0.060937	0.130563
C53	C	1.073772	-0.439039	-0.369435
C54	C	1.573772	0.060961	0.130565
C55	C	0.963993	-0.573251	-0.282707
C56	C	1.463993	-0.073251	0.217293
C57	C	1.073715	-0.573239	-0.282701
C58	C	1.573715	-0.073239	0.217299
C59	C	0.909102	-0.640359	-0.239340
C60	C	1.409102	-0.140359	0.260660
C61	C	0.963936	-0.707451	-0.195973
C62	C	1.463936	-0.207451	0.304027
C63	C	1.073664	-0.707430	-0.195967
C64	C	1.573664	-0.207430	0.304033
C65	C	1.128548	-0.640324	-0.239331
C66	C	1.628548	-0.140324	0.260669
C67	C	1.652807	-0.895869	-0.239559
C68	C	2.152807	-0.395869	0.260441
C69	C	1.720061	-0.950725	-0.196316
C70	C	2.220061	-0.450725	0.303684
C71	C	1.720122	-1.060446	-0.196334
C72	C	2.220122	-0.560446	0.303666
C73	C	1.652925	-1.115315	-0.239602
C74	C	2.152925	-0.615315	0.260398
C75	C	1.585672	-1.060459	-0.282846
C76	C	2.085672	-0.560459	0.217154
C77	C	1.585616	-0.950735	-0.282822
C78	C	2.085616	-0.450735	0.217178
C79	C	1.451227	-1.060469	-0.369352
C80	C	1.951227	-0.560469	0.130648
C81	C	1.451159	-0.950748	-0.369331
C82	C	1.951159	-0.450748	0.130669
C83	C	1.384031	-1.115338	-0.412620
C84	C	1.884031	-0.615338	0.087380
C85	C	1.316771	-1.060482	-0.455862
C86	C	1.816771	-0.560482	0.044138
C87	C	1.316711	-0.950754	-0.455841
C88	C	1.816711	-0.450754	0.044159
C89	C	1.383906	-0.895892	-0.412575
C90	C	1.883906	-0.395892	0.087425
C91	C	1.792383	-0.506157	-0.326072
C92	C	2.292383	-0.006157	0.173928
C93	C	1.909160	-0.506166	-0.326076
C94	C	2.409160	-0.006166	0.173924
C95	C	1.518408	-0.506069	-0.502606
C96	C	2.018408	-0.006069	-0.002606
C97	C	1.518434	-0.506041	-0.577838
C98	C	2.018434	-0.006041	-0.077838
C99	C	1.518441	-0.232102	-0.326095
C100	C	2.018441	0.267898	0.173905
C101	C	1.518481	-0.115325	-0.326108
C102	C	2.018481	0.384675	0.173892
C103	C	1.585654	-0.438846	-0.613194
C104	C	2.085654	0.061154	-0.113194
C105	C	1.585665	-0.438816	-0.683882
C106	C	2.085665	0.061184	-0.183882
C107	C	1.518460	-0.505986	-0.719214
C108	C	2.018460	-0.005986	-0.219214
C109	C	1.451232	-0.573183	-0.683854
C110	C	1.951232	-0.073183	-0.183854
C111	C	1.451217	-0.573207	-0.613167
C112	C	1.951217	-0.073207	-0.113167
C113	C	1.451291	-0.573085	-0.968928
C114	C	1.951291	-0.073085	-0.468928
C115	C	1.451314	-0.573058	-1.039620
C116	C	1.951314	-0.073058	-0.539620
C117	C	1.585739	-0.438693	-1.039643
C118	C	2.085739	0.061307	-0.539643
C119	C	1.585724	-0.438718	-0.968955
C120	C	2.085724	0.061282	-0.468955
C121	C	1.518493	-0.505911	-0.933602
C122	C	2.018493	-0.005911	-0.433602
C123	C	1.518481	-0.505942	-0.856953
C124	C	2.018481	-0.005942	-0.356953
C125	C	1.518476	-0.505961	-0.795861
C126	C	2.018476	-0.005961	-0.295861
C127	C	1.518351	-0.506125	-0.150208
C128	C	2.018351	-0.006125	0.349792
C129	C	1.518530	-0.505857	-0.074976
C130	C	2.018530	-0.005857	0.425024
H131	H	1.218001	-0.371909	-0.412790
H132	H	1.718001	0.128091	0.087210
H133	H	1.640384	-0.384152	-0.584431
H134	H	2.140384	0.115848	-0.084431
Br135	Br	1.676982	-0.347499	-1.087626
Br136	Br	2.176982	0.152501	-0.587626
Br137	Br	0.760305	-0.371985	-0.412808
Br138	Br	1.260305	0.128015	0.087192
Br139	Br	1.811402	-1.134898	-0.137652
Br140	Br	2.311402	-0.634898	0.362348
Br141	Br	1.652519	-1.264222	-0.239309
Br142	Br	2.152519	-0.764222	0.260691
Br143	Br	1.676940	-0.347561	-0.921008
Br144	Br	2.176940	0.152439	-0.421008
H145	H	1.217889	-0.640295	-0.239327
H146	H	1.717889	-0.140295	0.260673
H147	H	0.819761	-0.640367	-0.239348
H148	H	1.319761	-0.140367	0.260652
Br149	Br	1.148324	-0.213776	-0.515015
Br150	Br	1.648324	0.286224	-0.015015
Br151	Br	0.889683	-0.213816	-0.515025
Br152	Br	1.389683	0.286184	-0.015025
H153	H	1.384090	-1.204679	-0.412635
H154	H	1.884090	-0.704679	0.087365
H155	H	0.919235	-0.762080	-0.160664
H156	H	1.419235	-0.262080	0.339336
H157	H	1.640405	-0.384102	-0.712665
H158	H	2.140405	0.115898	-0.212665
H159	H	1.118303	-0.762055	-0.160648
H160	H	1.618303	-0.262055	0.339352
H161	H	1.774774	-0.906041	-0.161088
H162	H	2.274774	-0.406041	0.338912
H163	H	1.261950	-0.906096	-0.491058
H164	H	1.761950	-0.406096	0.008942
Br165	Br	1.653054	-0.746960	-0.239741
Br166	Br	2.153054	-0.246960	0.260259
H167	H	1.262070	-1.105164	-0.491090
H168	H	1.762070	-0.605164	0.008910
Br169	Br	1.384167	-0.746983	-0.412761
Br170	Br	1.884167	-0.246983	0.087239
H171	H	1.396583	-0.627758	-1.068385
H172	H	1.896583	-0.127758	-0.568385
H173	H	1.396563	-0.627813	-0.940151
H174	H	1.896563	-0.127813	-0.440151
Br175	Br	1.360017	-0.664337	-0.731804
Br176	Br	1.860017	-0.164337	-0.231804
H177	H	1.396468	-0.627913	-0.584382
H178	H	1.896468	-0.127913	-0.084382
