data_functionalizedCrystal
_audit_creation_method	'MofGen! by Chris Wilmer'
_symmetry_space_group_name_H-M	'P1'
_symmetry_Int_Tables_number	1
_symmetry_cell_setting	triclinic
loop_
_symmetry_equiv_pos_as_xyz
  x,y,z
_cell_length_a	12.827893
_cell_length_b	12.594510
_cell_length_c	12.827892
_cell_angle_alpha	90.034053
_cell_angle_beta	89.984447
_cell_angle_gamma	89.981177
loop_
_atom_site_label
_atom_site_type_symbol
_atom_site_fract_x
_atom_site_fract_y
_atom_site_fract_z
Zn1	Zn	1.597665	-0.601797	0.415934
Zn2	Zn	1.597560	-0.423819	0.590724
Zn3	Zn	1.422908	-0.423833	0.415998
Zn4	Zn	1.422892	-0.601757	0.590634
O5	O	1.510256	-0.512802	0.503323
O6	O	1.743887	-0.578199	0.439131
O7	O	1.574355	-0.274875	0.567611
O8	O	1.446140	-0.447463	0.269754
O9	O	1.743810	-0.447440	0.567549
O10	O	1.574534	-0.578212	0.269706
O11	O	1.446039	-0.274885	0.439241
O12	O	1.276670	-0.447424	0.439153
O13	O	1.446113	-0.750708	0.567395
O14	O	1.276658	-0.578143	0.567458
O15	O	1.574518	-0.750738	0.439044
O16	O	1.574340	-0.447401	0.736948
O17	O	1.446011	-0.578130	0.736882
C18	C	1.238746	-0.512781	0.503303
C19	C	1.122593	-0.512798	0.503320
C20	C	0.950726	-0.448027	0.566784
C21	C	1.070777	-0.448008	0.566768
C22	C	1.510325	-0.790423	0.503202
C23	C	1.510355	-0.908728	0.503151
C24	C	1.580215	-0.977998	0.433335
C25	C	1.484905	-1.048792	0.407757
C26	C	1.605721	-1.048733	0.528656
C27	C	1.414994	-0.977965	0.477523
C28	C	1.535874	-0.977899	0.598467
C29	C	1.440498	-1.048662	0.572924
C30	C	1.782826	-0.512823	0.503343
C31	C	1.898979	-0.512831	0.503351
C32	C	1.510191	-0.512783	0.774833
C33	C	1.510259	-0.512810	0.890986
C34	C	1.510248	-0.236261	0.503367
C35	C	1.510421	-0.117956	0.503125
C36	C	1.510350	-0.512844	0.230753
C37	C	1.510390	-0.512862	0.114599
C38	C	1.573835	-0.448193	0.942769
C39	C	1.573906	-0.448220	1.062819
H40	H	1.639190	-0.946966	0.374260
O41	O	0.958006	-0.586308	0.431388
H42	H	1.007749	-0.640333	0.478254
O43	O	1.646013	-0.374931	1.121788
H44	H	1.728023	-0.393237	1.100800
H45	H	1.334348	-0.947009	0.455846
O46	O	1.564482	-0.936609	0.705218
H47	H	1.507304	-0.966152	0.763311
H48	H	1.628217	-0.392855	0.898228
O49	O	1.129715	-0.374511	0.638708
H50	H	1.108782	-0.290992	0.620717
H51	H	1.686342	-1.079822	0.550238
H52	H	0.906152	-0.392554	0.621098
O53	O	1.438275	-0.586149	1.055638
H54	H	1.485027	-0.640296	1.005831
O55	O	1.063657	-0.586291	0.431374
H56	H	1.084574	-0.669814	0.449368
O57	O	1.456336	-1.090054	0.300977
H58	H	1.514410	-1.061763	0.243171
O59	O	1.362198	-1.089521	0.651116
H60	H	1.283176	-1.061026	0.629686
O61	O	1.438224	-0.586114	0.949985
H62	H	1.456071	-0.669683	0.929024
