data_functionalizedCrystal
_audit_creation_method	'MofGen! by Chris Wilmer'
_symmetry_space_group_name_H-M	'P1'
_symmetry_Int_Tables_number	1
_symmetry_cell_setting	triclinic
loop_
_symmetry_equiv_pos_as_xyz
  x,y,z
_cell_length_a	12.837943
_cell_length_b	14.044220
_cell_length_c	11.295483
_cell_angle_alpha	94.468632
_cell_angle_beta	85.461227
_cell_angle_gamma	94.008909
loop_
_atom_site_label
_atom_site_type_symbol
_atom_site_fract_x
_atom_site_fract_y
_atom_site_fract_z
O1	O	1.404877	0.242691	-0.099010
O2	O	1.101936	0.230415	-0.099017
O3	O	1.248859	0.098158	-0.099002
O4	O	1.257954	0.374947	-0.099025
O5	O	1.235952	0.109755	0.099047
O6	O	1.089030	0.242012	0.099032
O7	O	1.391970	0.254287	0.099039
Cu8	Cu	1.239322	0.249208	0.117119
Cu9	Cu	1.254585	0.235494	-0.117097
O10	O	1.245048	0.386544	0.099024
C11	C	1.056479	0.232067	0.000007
C12	C	0.940259	0.219699	0.000005
C13	C	0.713048	0.368378	0.000009
C14	C	0.603848	0.356763	0.000008
C15	C	0.612656	0.184853	0.000010
C16	C	0.721856	0.196469	0.000011
C17	C	0.772048	0.288234	0.000009
C18	C	0.881251	0.299849	0.000002
C19	C	0.890056	0.127940	0.000012
C20	C	0.780856	0.116324	0.000011
C21	C	1.238424	0.068282	0.000023
C22	C	1.226550	-0.038016	0.000024
C23	C	1.204843	-0.232639	0.000007
C24	C	1.289060	-0.282665	0.000005
C25	C	1.276982	-0.390961	-0.000005
C26	C	1.216919	-0.124334	0.000016
C27	C	1.437428	0.252635	0.000012
C28	C	1.553649	0.265002	0.000007
C29	C	1.255482	0.416420	-0.000004
C30	C	1.267357	0.522717	-0.000013
N31	N	1.228594	0.258854	0.281854
N32	N	1.265320	0.225841	-0.281832
C33	C	1.342540	0.156351	0.531156
C34	C	1.334441	0.163648	0.655818
C35	C	1.204292	0.280740	0.655845
C36	C	1.212391	0.273443	0.531182
C37	C	1.281518	0.211247	0.468842
C38	C	1.289622	0.203956	0.344177
C39	C	1.159469	0.321042	0.344206
C40	C	1.151370	0.328339	0.468869
H41	H	0.922115	0.374569	0.000002
H42	H	1.345912	0.153316	0.293420
O43	O	1.385856	-0.236642	-0.000138
C44	C	1.404556	-0.185036	-0.102715
H45	H	1.326654	-0.169763	-0.136923
H46	H	1.451492	-0.229037	-0.174538
C47	C	1.562490	-0.108616	-0.029521
C48	C	1.466810	-0.089850	-0.071530
H49	H	1.600896	-0.049903	-0.010288
H50	H	1.549895	-0.143387	0.039585
H51	H	1.601591	-0.145286	-0.089380
H52	H	1.427706	-0.053192	-0.011666
H53	H	1.479400	-0.055071	-0.140626
H54	H	0.753915	0.443098	0.000006
H55	H	1.095084	0.378975	0.519641
O56	O	1.137080	0.341018	0.716551
C57	C	1.063161	0.288174	0.788648
H58	H	1.096672	0.218247	0.807297
H59	H	0.988420	0.271857	0.740626
C60	C	0.996952	0.432836	0.884177
C61	C	1.038114	0.346954	0.907091
H62	H	0.981497	0.469094	0.957236
H63	H	1.046749	0.468438	0.835602
H64	H	0.934672	0.419226	0.844156
H65	H	1.100399	0.360564	0.947098
H66	H	0.988326	0.311355	0.955676
H67	H	1.109784	0.365746	0.293456
H68	H	1.123677	-0.271140	0.000002
O69	O	1.409573	0.095813	0.470630
C70	C	1.381891	0.001423	0.501102
H71	H	1.295930	-0.004657	0.535403
H72	H	1.432550	-0.017159	0.573437
C73	C	1.504919	-0.060900	0.348213
C74	C	1.399338	-0.068370	0.390332
H75	H	1.515685	-0.103953	0.279887
H76	H	1.523573	0.002692	0.327686
H77	H	1.547123	-0.076383	0.408502
H78	H	1.357138	-0.052875	0.330049
H79	H	1.380678	-0.131961	0.410847
O80	O	0.546696	0.434713	-0.000049
C81	C	0.614416	0.518195	-0.000019
H82	H	0.695992	0.499083	-0.037511
H83	H	0.618483	0.551419	0.094995
C84	C	0.472507	0.613799	-0.031642
C85	C	0.572699	0.590326	-0.077700
H86	H	0.446773	0.658296	-0.079554
H87	H	0.426881	0.557557	-0.031658
H88	H	0.475910	0.641480	0.047536
H89	H	0.569292	0.562635	-0.156870
H90	H	0.618323	0.646566	-0.077699
O91	O	0.947524	0.050186	0.000060
C92	C	1.054673	0.080110	0.000022
H93	H	1.063364	0.157758	0.037523
H94	H	1.092054	0.073778	-0.094996
C95	C	1.098809	-0.078909	0.031618
C96	C	1.109483	0.016458	0.077687
H97	H	1.132621	-0.118174	0.079520
H98	H	1.026622	-0.099070	0.031639
H99	H	1.129960	-0.084172	-0.047563
H100	H	1.078322	0.021721	0.156860
H101	H	1.181667	0.036619	0.077680
H102	H	0.571765	0.110147	0.000110
H103	H	0.739974	0.041612	0.000026
H104	H	1.384129	0.118944	0.706551
