data_functionalizedCrystal
_audit_creation_method	'MofGen! by Chris Wilmer'
_symmetry_space_group_name_H-M	'P1'
_symmetry_Int_Tables_number	1
_symmetry_cell_setting	triclinic
loop_
_symmetry_equiv_pos_as_xyz
  x,y,z
_cell_length_a	14.971486
_cell_length_b	23.532407
_cell_length_c	14.048226
_cell_angle_alpha	89.986955
_cell_angle_beta	90.003623
_cell_angle_gamma	83.231399
loop_
_atom_site_label
_atom_site_type_symbol
_atom_site_fract_x
_atom_site_fract_y
_atom_site_fract_z
O1	O	-1.186156	-0.074217	0.079064
O2	O	-0.686156	0.425783	0.579064
O3	O	-0.925662	-0.083105	0.079092
O4	O	-0.425662	0.416895	0.579092
O5	O	-1.063764	0.004237	0.079056
O6	O	-0.563764	0.504237	0.579056
O7	O	-1.048054	-0.161559	0.079099
O8	O	-0.548054	0.338441	0.579099
O9	O	-1.063761	0.004244	-0.079265
O10	O	-0.563761	0.504244	0.420735
O11	O	-0.925659	-0.083098	-0.079230
O12	O	-0.425659	0.416902	0.420770
O13	O	-1.186153	-0.074210	-0.079257
O14	O	-0.686153	0.425790	0.420743
Zn15	Zn	-1.055906	-0.078653	-0.104380
Zn16	Zn	-0.555906	0.421347	0.395620
Zn17	Zn	-1.055910	-0.078662	0.104215
Zn18	Zn	-0.555910	0.421338	0.604215
O19	O	-1.048051	-0.161552	-0.079222
O20	O	-0.548051	0.338448	0.420778
C21	C	-0.892340	-0.082704	-0.000066
C22	C	-0.392340	0.417296	0.499934
C23	C	-0.793056	-0.081513	-0.000056
C24	C	-0.293056	0.418487	0.499944
C25	C	-1.063363	0.025458	-0.000108
C26	C	-0.563363	0.525458	0.499892
C27	C	-1.062160	0.088680	-0.000117
C28	C	-0.562160	0.588680	0.499883
C29	C	-1.219475	-0.074611	-0.000098
C30	C	-0.719475	0.425389	0.499902
C31	C	-1.318760	-0.075802	-0.000101
C32	C	-0.818760	0.424198	0.499899
C33	C	-0.735288	-0.132824	-0.000044
C34	C	-0.235288	0.367176	0.499956
C35	C	-0.642001	-0.131701	-0.000059
C36	C	-0.142001	0.368299	0.499941
C37	C	-0.606482	-0.079267	-0.000078
C38	C	-0.106482	0.420733	0.499922
C39	C	-0.664257	-0.027952	-0.000093
C40	C	-0.164257	0.472048	0.499907
C41	C	-0.757543	-0.029075	-0.000086
C42	C	-0.257543	0.470925	0.499914
C43	C	-0.469819	-0.025615	-0.000107
C44	C	0.030181	0.474385	0.499893
C45	C	-0.376527	-0.024491	-0.000113
C46	C	0.123473	0.475509	0.499887
C47	C	-0.354277	-0.128241	-0.000080
C48	C	0.145723	0.371759	0.499920
C49	C	-0.447563	-0.129364	-0.000073
C50	C	0.052437	0.370636	0.499927
C51	C	-0.505331	-0.078049	-0.000086
C52	C	-0.005331	0.421951	0.499914
N53	N	-1.055913	-0.078665	0.246575
N54	N	-0.555913	0.421335	0.746575
C55	C	-1.136342	0.487466	-0.000088
C56	C	-0.636342	0.987466	0.499912
C57	C	-1.135224	0.546871	-0.000083
C58	C	-0.635224	1.046871	0.499917
O59	O	-1.203992	0.583321	-0.000057
O60	O	-0.703992	1.083321	0.499943
N61	N	-1.053123	0.569849	-0.000076
N62	N	-0.553123	1.069849	0.499924
C63	C	-0.972133	0.533418	-0.000065
C64	C	-0.472133	1.033418	0.499935
O65	O	-0.902197	0.558417	-0.000057
O66	O	-0.402197	1.058417	0.499943
C67	C	-0.973251	0.474014	-0.000063
C68	C	-0.473251	0.974014	0.499937
C69	C	-1.055358	0.451040	-0.000080
C70	C	-0.555358	0.951040	0.499920
C71	C	-1.218442	0.464491	-0.000104
C72	C	-0.718442	0.964491	0.499896
C73	C	-1.219559	0.405090	-0.000111
C74	C	-0.719559	0.905090	0.499889
C75	C	-1.138576	0.368664	-0.000102
C76	C	-0.638576	0.868664	0.499898
C77	C	-1.056475	0.391639	-0.000086
C78	C	-0.556475	0.891639	0.499914
C79	C	-0.892263	0.437584	-0.000045
C80	C	-0.392263	0.937584	0.499955
C81	C	-0.893388	0.378177	-0.000042
C82	C	-0.393388	0.878177	0.499958
C83	C	-0.975495	0.355203	-0.000059
C84	C	-0.475495	0.855203	0.499941
C85	C	-0.976609	0.295812	-0.000084
C86	C	-0.476609	0.795812	0.499916
N87	N	-1.058711	0.272834	-0.000091
N88	N	-0.558711	0.772834	0.499909
C89	C	-1.139694	0.309260	-0.000100
C90	C	-0.639694	0.809260	0.499900
C91	C	-0.969791	0.658170	-0.000067
C92	C	-0.469791	1.158170	0.499933
C93	C	-0.968672	0.717573	-0.000076
C94	C	-0.468672	1.217573	0.499924
C95	C	-1.131763	0.731022	-0.000092
C96	C	-0.631763	1.231022	0.499908
C97	C	-1.132882	0.671618	-0.000091
C98	C	-0.632882	1.171618	0.499909
C99	C	-1.051893	0.635193	-0.000074
C100	C	-0.551893	1.135193	0.499926
C101	C	-1.142034	0.184513	-0.000115
C102	C	-0.642034	0.684513	0.499885
C103	C	-1.143143	0.125106	-0.000126
C104	C	-0.643143	0.625106	0.499874
C105	C	-0.980052	0.111663	-0.000104
C106	C	-0.480052	0.611663	0.499896
C107	C	-0.978942	0.171064	-0.000098
C108	C	-0.478942	0.671064	0.499902
C109	C	-1.059940	0.207489	-0.000101
C110	C	-0.559940	0.707489	0.499899
O111	O	-0.907878	0.259327	-0.000107
O112	O	-0.407878	0.759327	0.499893
O113	O	-1.209619	0.284253	-0.000095
O114	O	-0.709619	0.784253	0.499905
C115	C	-1.048453	0.817227	-0.000066
C116	C	-0.548453	1.317227	0.499934
C117	C	-1.049655	0.754004	-0.000079
C118	C	-0.549655	1.254004	0.499921
N119	N	-1.055910	-0.078646	-0.246741
N120	N	-0.555910	0.421354	0.253259
C121	C	-1.117177	-0.040066	0.296378
C122	C	-0.617177	0.459934	0.796378
C123	C	-1.117181	-0.040064	0.396036
C124	C	-0.617181	0.459936	0.896036
C125	C	-1.055915	-0.078659	0.445889
C126	C	-0.555915	0.421341	0.945889
C127	C	-0.994648	-0.117262	0.396080
C128	C	-0.494648	0.382738	0.896080
C129	C	-0.994649	-0.117266	0.296424
C130	C	-0.494649	0.382734	0.796424
C131	C	-0.994648	-0.117249	0.603794
C132	C	-0.494648	0.382751	1.103794
C133	C	-0.994646	-0.117245	0.703457
C134	C	-0.494646	0.382755	1.203457
C135	C	-1.117180	-0.040048	0.703406
C136	C	-0.617180	0.459952	1.203406
C137	C	-1.117181	-0.040052	0.603750
C138	C	-0.617181	0.459948	1.103750
C139	C	-1.055912	-0.078654	0.553947
C140	C	-0.555912	0.421346	1.053947
H141	H	-0.594969	-0.173484	-0.000048
H142	H	-0.094969	0.326516	0.499952
N143	N	-0.928571	-0.158875	0.757226
N144	N	-0.428571	0.341125	1.257226
H145	H	-0.962447	-0.184165	0.798588
H146	H	-0.462447	0.315835	1.298588
H147	H	-0.889252	-0.136975	0.798506
H148	H	-0.389252	0.363025	1.298506
N149	N	-0.806034	0.338890	-0.000019
N150	N	-0.306034	0.838890	0.499981
H151	H	-0.753856	0.362462	-0.000009
H152	H	-0.253856	0.862462	0.499991
H153	H	-0.802937	0.313959	-0.058712
H154	H	-0.302937	0.813959	0.441288
N155	N	-0.928571	-0.158894	0.242699
N156	N	-0.428571	0.341106	0.742699
H157	H	-0.938386	-0.199345	0.260062
H158	H	-0.438386	0.300655	0.760062
H159	H	-0.865214	-0.152140	0.260060
H160	H	-0.365214	0.347860	0.760060
H161	H	-0.764199	-0.175522	-0.000028
H162	H	-0.264199	0.324478	0.499972
H163	H	-0.901812	0.736273	-0.000078
H164	H	-0.401812	1.236273	0.499922
N165	N	-0.819854	0.026267	-0.000106
N166	N	-0.319854	0.526267	0.499894
H167	H	-0.783200	0.059654	-0.000119
H168	H	-0.283200	0.559654	0.499881
H169	H	-0.859039	0.028060	0.058586
H170	H	-0.359039	0.528060	0.558586
N171	N	-0.292005	-0.183601	-0.000137
N172	N	0.207995	0.316399	0.499863
H173	H	-0.303355	-0.206495	0.058543
H174	H	0.196645	0.293505	0.558543
H175	H	-0.227535	-0.174911	-0.000207
H176	H	0.272465	0.325089	0.499793
N177	N	-0.338229	0.032066	-0.000154
N178	N	0.161771	0.532066	0.499846
H179	H	-0.300029	0.034838	-0.058850
H180	H	0.199971	0.534838	0.441150
H181	H	-0.300058	0.034818	0.058568
H182	H	0.199942	0.534818	0.558568
H183	H	-0.516853	0.016172	-0.000119
H184	H	-0.016853	0.516172	0.499881
H185	H	-0.944760	-0.148685	0.563248
H186	H	-0.444760	0.351315	1.063248
H187	H	-1.210008	0.106405	-0.000142
H188	H	-0.710008	0.606405	0.499858
N189	N	-1.305795	0.503775	-0.000127
N190	N	-0.805795	1.003775	0.499873
H191	H	-1.308984	0.528718	0.058559
H192	H	-0.808984	1.028718	0.558559
H193	H	-1.357916	0.480159	-0.000174
H194	H	-0.857916	0.980159	0.499826
H195	H	-1.167063	-0.008635	0.255794
H196	H	-0.667063	0.491365	0.755794
H197	H	-0.944767	-0.148689	0.436676
H198	H	-0.444767	0.351311	0.936676
H199	H	-0.914118	0.081994	-0.000100
H200	H	-0.414118	0.581994	0.499900
N201	N	-0.485876	-0.185916	-0.000033
N202	N	0.014124	0.314084	0.499967
H203	H	-0.435126	-0.218254	-0.000025
H204	H	0.064874	0.281746	0.499975
H205	H	-0.524108	-0.188642	-0.058718
H206	H	-0.024108	0.311358	0.441282
N207	N	-0.625942	0.028599	-0.000113
N208	N	-0.125942	0.528599	0.499887
H209	H	-0.647034	0.051081	0.058570
H210	H	-0.147034	0.551081	0.558570
H211	H	-0.647054	0.051039	-0.058848
H212	H	-0.147054	0.551039	0.441152
H213	H	-1.207990	0.214164	-0.000113
H214	H	-0.707990	0.714164	0.499887
N215	N	-1.308118	0.380315	-0.000125
N216	N	-0.808118	0.880315	0.499875
H217	H	-1.359243	0.412411	-0.000128
H218	H	-0.859243	0.912411	0.499872
H219	H	-1.312139	0.355954	0.058566
H220	H	-0.812139	0.855954	0.558566
N221	N	-1.221438	0.646841	-0.000109
N222	N	-0.721438	1.146841	0.499891
H223	H	-1.272566	0.678936	-0.000118
H224	H	-0.772566	1.178936	0.499882
H225	H	-1.225462	0.622481	0.058584
H226	H	-0.725462	1.122481	0.558584
H227	H	-1.197704	0.760691	-0.000096
H228	H	-0.697704	1.260691	0.499904
H229	H	-0.903835	0.628515	-0.000062
H230	H	-0.403835	1.128515	0.499938
N231	N	-0.803704	0.462354	-0.000039
N232	N	-0.303704	0.962354	0.499961
H233	H	-0.752579	0.430257	-0.000031
H234	H	-0.252579	0.930257	0.499969
H235	H	-0.799680	0.486700	0.058652
H236	H	-0.299680	0.986700	0.558652
H237	H	-1.167067	-0.008634	0.436584
H238	H	-0.667067	0.491366	0.936584
N239	N	-0.890387	0.195848	-0.000094
N240	N	-0.390387	0.695848	0.499906
H241	H	-0.839255	0.163756	-0.000092
H242	H	-0.339255	0.663756	0.499908
H243	H	-0.886373	0.220189	0.058605
H244	H	-0.386373	0.720189	0.558605
H245	H	-1.167063	-0.008623	0.563159
H246	H	-0.667063	0.491377	1.063159
H247	H	-1.167067	-0.008617	0.743961
H248	H	-0.667067	0.491383	1.243961
