data_functionalizedCrystal
_audit_creation_method	'MofGen! by Chris Wilmer'
_symmetry_space_group_name_H-M	'P1'
_symmetry_Int_Tables_number	1
_symmetry_cell_setting	triclinic
loop_
_symmetry_equiv_pos_as_xyz
  x,y,z
_cell_length_a	12.759401
_cell_length_b	12.759394
_cell_length_c	12.759387
_cell_angle_alpha	89.968595
_cell_angle_beta	89.983452
_cell_angle_gamma	90.015263
loop_
_atom_site_label
_atom_site_type_symbol
_atom_site_fract_x
_atom_site_fract_y
_atom_site_fract_z
Zn1	Zn	1.606233	-0.418202	-0.593980
Zn2	Zn	1.606133	-0.593918	-0.418298
Zn3	Zn	1.430541	-0.418255	-0.418319
Zn4	Zn	1.430523	-0.593841	-0.593939
O5	O	1.518358	-0.506054	-0.506134
O6	O	1.753241	-0.441521	-0.570683
O7	O	1.582806	-0.570671	-0.271279
O8	O	1.453896	-0.271227	-0.441646
O9	O	1.753167	-0.570619	-0.441610
O10	O	1.582976	-0.271188	-0.570704
O11	O	1.453800	-0.441612	-0.271295
O12	O	1.283518	-0.441537	-0.441607
O13	O	1.453866	-0.570487	-0.740965
O14	O	1.283505	-0.570539	-0.570634
O15	O	1.582959	-0.441446	-0.740995
O16	O	1.582789	-0.740929	-0.441571
O17	O	1.453769	-0.740872	-0.570614
C18	C	1.245390	-0.506036	-0.506119
C19	C	1.128614	-0.506053	-0.506137
C20	C	1.073790	-0.438953	-0.573449
C21	C	0.964066	-0.438964	-0.573456
C22	C	0.963998	-0.573184	-0.438836
C23	C	1.073720	-0.573167	-0.438825
C24	C	1.518295	-0.779021	-0.506108
C25	C	1.518364	-0.895798	-0.506133
C26	C	1.652813	-0.895804	-0.371861
C27	C	1.720065	-0.950668	-0.304737
C28	C	1.720127	-1.060389	-0.304766
C29	C	1.652931	-1.115249	-0.371927
C30	C	1.585679	-1.060386	-0.439051
C31	C	1.585623	-0.950662	-0.439013
C32	C	1.451237	-1.060380	-0.573326
C33	C	1.451168	-0.950658	-0.573294
C34	C	1.384041	-1.115240	-0.640488
C35	C	1.316782	-1.060377	-0.707607
C36	C	1.316723	-0.950648	-0.707575
C37	C	1.383916	-0.895795	-0.640417
C38	C	1.792391	-0.506073	-0.506149
C39	C	1.909167	-0.506081	-0.506156
C40	C	1.518421	-0.505952	-0.780167
C41	C	1.518448	-0.505909	-0.896944
C42	C	1.518450	-0.232020	-0.506182
C43	C	1.518489	-0.115244	-0.506203
C44	C	1.652857	-0.640225	-1.116353
C45	C	1.720004	-0.707441	-1.061474
C46	C	1.719969	-0.707481	-0.951752
C47	C	1.652778	-0.640300	-0.896907
C48	C	1.585630	-0.573084	-0.951786
C49	C	1.585675	-0.573049	-1.061511
C50	C	1.451301	-0.438693	-0.951823
C51	C	1.451339	-0.438646	-1.061545
C52	C	1.384110	-0.371512	-0.896978
C53	C	1.316966	-0.304290	-0.951858
C54	C	1.317004	-0.304252	-1.061586
C55	C	1.384192	-0.371430	-1.116424
C56	C	1.518355	-0.506079	-0.233166
C57	C	1.518531	-0.505827	-0.116390
H58	H	1.118481	-0.384302	-0.628256
H59	H	1.774777	-0.905991	-0.250057
H60	H	1.652996	-1.204591	-0.371954
O61	O	1.251484	-1.113504	-0.772942
C62	C	1.192086	-1.041556	-0.832157
H63	H	1.235065	-0.963299	-0.835803
H64	H	1.112304	-1.029995	-0.793617
C65	C	1.124130	-1.180412	-0.939499
C66	C	1.176922	-1.084297	-0.943984
H67	H	1.114770	-1.206777	-1.008478
H68	H	1.164144	-1.228885	-0.899603
H69	H	1.057651	-1.170764	-0.907378
H70	H	1.243404	-1.093948	-0.976093
H71	H	1.136918	-1.035826	-0.983889
O72	O	1.384197	-1.221823	-0.640689
C73	C	1.411128	-1.258372	-0.741419
H74	H	1.456875	-1.195067	-0.784867
H75	H	1.336737	-1.277864	-0.786886
C76	C	1.423050	-1.435235	-0.677978
C77	C	1.479245	-1.357485	-0.731339
H78	H	1.465064	-1.496376	-0.671762
H79	H	1.404903	-1.410613	-0.610115
H80	H	1.361060	-1.451466	-0.715874
H81	H	1.541226	-1.341247	-0.693436
H82	H	1.497405	-1.382108	-0.799196
O83	O	1.251661	-0.239108	-1.114938
C84	C	1.183823	-0.298894	-1.178419
H85	H	1.177298	-0.381654	-1.145343
H86	H	1.216331	-0.302479	-1.261574
C87	C	1.082634	-0.145914	-1.220739
C88	C	1.074613	-0.247559	-1.180108
H89	H	1.015269	-0.114247	-1.221786
H90	H	1.128339	-0.105634	-1.177974
H91	H	1.109728	-0.148916	-1.290031
H92	H	1.047531	-0.244555	-1.110813
H93	H	1.028899	-0.287838	-1.222862
O94	O	1.785487	-1.113527	-0.239465
C95	C	1.844805	-1.041585	-0.180203
H96	H	1.801738	-0.963406	-0.176505
H97	H	1.924573	-1.029824	-0.218735
C98	C	1.912919	-1.180516	-0.072953
C99	C	1.860019	-1.084497	-0.068404
H100	H	1.922309	-1.206987	-0.003992
H101	H	1.872959	-1.228986	-0.112882
H102	H	1.979387	-1.170702	-0.105068
H103	H	1.793548	-1.094315	-0.036302
H104	H	1.899968	-1.036030	-0.028468
H105	H	0.919434	-0.384323	-0.628267
H106	H	0.919291	-0.627826	-0.384034
H107	H	1.652902	-0.640189	-1.205694
H108	H	1.118359	-0.627809	-0.384006
O109	O	1.251545	-0.897308	-0.772893
C110	C	1.311293	-0.833713	-0.840758
H111	H	1.394056	-0.866703	-0.847317
H112	H	1.314877	-0.750581	-0.808252
C113	C	1.158265	-0.791460	-0.941883
C114	C	1.259914	-0.831984	-0.949946
H115	H	1.126572	-0.790389	-1.009235
H116	H	1.118011	-0.834302	-0.896160
H117	H	1.161266	-0.722187	-0.914791
H118	H	1.256911	-0.901260	-0.977025
H119	H	1.300167	-0.789153	-0.995677
H120	H	1.652756	-0.806463	-0.371817
H121	H	1.774707	-0.762141	-1.106141
H122	H	1.774652	-0.762208	-0.907069
O123	O	1.652902	-0.640444	-0.790324
C124	C	1.726549	-0.714201	-0.753647
H125	H	1.787952	-0.728898	-0.816868
H126	H	1.684851	-0.790811	-0.734173
C127	C	1.704964	-0.653378	-0.576839
C128	C	1.780385	-0.671422	-0.654485
H129	H	1.738170	-0.626993	-0.515669
H130	H	1.655343	-0.603689	-0.601548
H131	H	1.670221	-0.717224	-0.560623
H132	H	1.815117	-0.607574	-0.670709
H133	H	1.830013	-0.721099	-0.629777
H134	H	1.383867	-0.806454	-0.640378
H135	H	1.384082	-0.371554	-0.807637
H136	H	1.262259	-0.249601	-0.907194
H137	H	1.384234	-0.371401	-1.205766
