data_functionalizedCrystal
_audit_creation_method	'MofGen! by Chris Wilmer'
_symmetry_space_group_name_H-M	'P1'
_symmetry_Int_Tables_number	1
_symmetry_cell_setting	triclinic
loop_
_symmetry_equiv_pos_as_xyz
  x,y,z
_cell_length_a	15.944551
_cell_length_b	14.519709
_cell_length_c	14.421503
_cell_angle_alpha	89.997969
_cell_angle_beta	89.996660
_cell_angle_gamma	96.410558
loop_
_atom_site_label
_atom_site_type_symbol
_atom_site_fract_x
_atom_site_fract_y
_atom_site_fract_z
O1	O	0.110096	-1.223681	0.076993
O2	O	0.123063	-0.955181	0.077022
O3	O	-0.005685	-1.096763	0.076998
O4	O	0.238843	-1.082099	0.077016
O5	O	-0.005666	-1.096739	-0.077225
O6	O	0.123082	-0.955157	-0.077202
O7	O	0.110115	-1.223657	-0.077230
Cu8	Cu	0.116600	-1.089405	-0.091298
Cu9	Cu	0.116578	-1.089433	0.091089
O10	O	0.238863	-1.082075	-0.077207
C11	C	-0.036970	-1.096142	-0.000114
C12	C	-0.130219	-1.094317	-0.000114
C13	C	0.122468	-0.920810	-0.000087
C14	C	0.120657	-0.818432	-0.000076
C15	C	0.110710	-1.258028	-0.000120
C16	C	0.112521	-1.360406	-0.000125
C17	C	-0.345209	-1.002196	-0.000091
C18	C	-0.406155	-1.044962	-0.076137
C19	C	-0.300950	-1.091015	-0.000107
C20	C	-0.406157	-1.045006	0.075915
C21	C	-0.465867	-1.087820	-0.000095
C22	C	-0.360667	-1.133806	-0.076215
C23	C	-0.360663	-1.133838	0.075905
C24	C	-0.421591	-1.176669	-0.000159
C25	C	-0.205945	-1.092854	-0.000114
C26	C	-0.560871	-1.085988	-0.000095
C27	C	0.270148	-1.082696	-0.000093
C28	C	0.363397	-1.084521	-0.000087
N29	N	0.116616	-1.089392	-0.219579
C30	C	0.113990	-0.443548	-0.000119
C31	C	0.115842	-0.547853	-0.000106
C32	C	0.117324	-0.630987	-0.000096
C33	C	0.119175	-0.735298	-0.000086
C34	C	0.176122	-1.023913	-0.469222
C35	C	0.192550	-1.107247	-0.531032
C36	C	0.116596	-1.089415	-0.408741
C37	C	0.100187	-1.006103	-0.531024
C38	C	0.116578	-1.089429	-0.591462
C39	C	0.133062	-1.172790	-0.469190
C40	C	0.040666	-1.071592	-0.469177
C41	C	0.057062	-1.154985	-0.530959
C42	C	0.116608	-1.089405	-0.303480
C43	C	0.116565	-1.089448	-0.696721
N44	N	0.116555	-1.089453	0.219370
H45	H	-0.426310	-1.007385	-0.140420
O46	O	0.083732	-0.921969	-0.563315
C47	C	0.146669	-0.853123	-0.531876
H48	H	0.177482	-0.878583	-0.466794
H49	H	0.116949	-0.787205	-0.515215
H50	H	0.196468	-0.837907	-0.588196
H51	H	-0.454643	-1.250458	-0.000210
O52	O	-0.305633	-0.914230	-0.000331
C53	C	-0.328688	-0.867724	-0.080641
H54	H	-0.350595	-0.920657	-0.136405
H55	H	-0.271969	-0.820283	-0.107172
H56	H	-0.382142	-0.824628	-0.063286
O57	O	-0.430171	-1.000324	0.152710
C58	C	-0.405841	-1.046375	0.232751
H59	H	-0.398100	-1.121440	0.214890
H60	H	-0.456373	-1.044580	0.288446
H61	H	-0.343378	-1.010344	0.259641
H62	H	0.226501	-0.968577	-0.442115
O63	O	0.269080	-1.125273	-0.563613
C64	C	0.267763	-1.125836	-0.661367
H65	H	0.199853	-1.140867	-0.686579
H66	H	0.306422	-1.181758	-0.688099
H67	H	0.295950	-1.055341	-0.688471
O68	O	-0.336662	-1.178662	-0.152905
C69	C	-0.296516	-1.256106	-0.125780
H70	H	-0.270785	-1.245024	-0.052396
H71	H	-0.242339	-1.264992	-0.175394
H72	H	-0.343959	-1.320924	-0.127618
O73	O	-0.336468	-1.178505	0.152620
C74	C	-0.279465	-1.117854	0.204738
H75	H	-0.248283	-1.060968	0.157611
H76	H	-0.229032	-1.158185	0.236126
H77	H	-0.314984	-1.085368	0.262622
H78	H	0.147009	-1.243267	-0.442143
H79	H	-0.023518	-1.056477	-0.441986
H80	H	0.006712	-1.210444	-0.557896
