data_functionalizedCrystal
_audit_creation_method	'MofGen! by Chris Wilmer'
_symmetry_space_group_name_H-M	'P1'
_symmetry_Int_Tables_number	1
_symmetry_cell_setting	triclinic
loop_
_symmetry_equiv_pos_as_xyz
  x,y,z
_cell_length_a	17.639617
_cell_length_b	17.639999
_cell_length_c	12.759393
_cell_angle_alpha	78.768298
_cell_angle_beta	101.241988
_cell_angle_gamma	92.173759
loop_
_atom_site_label
_atom_site_type_symbol
_atom_site_fract_x
_atom_site_fract_y
_atom_site_fract_z
Zn1	Zn	1.222277	0.067883	0.904838
Zn2	Zn	1.722277	0.567883	1.404838
Zn3	Zn	1.247873	0.194909	0.701944
Zn4	Zn	1.747873	0.694909	1.201944
Zn5	Zn	1.095271	0.093561	0.688089
Zn6	Zn	1.595271	0.593561	1.188089
Zn7	Zn	1.120916	0.220480	0.836539
Zn8	Zn	1.620916	0.720480	1.336539
O9	O	1.171584	0.144208	0.782852
O10	O	1.671584	0.644208	1.282852
O11	O	1.331957	0.063285	0.912306
O12	O	1.831957	0.563285	1.412306
O13	O	1.227610	0.181510	0.553068
O14	O	1.727610	0.681510	1.053068
O15	O	1.090674	-0.016123	0.739626
O16	O	1.590674	0.483877	1.239626
O17	O	1.350762	0.156611	0.763241
O18	O	1.850762	0.656611	1.263241
O19	O	1.183985	-0.034988	0.898871
O20	O	1.683985	0.465012	1.398871
O21	O	1.115494	0.107049	0.542888
O22	O	1.615494	0.607049	1.042888
O23	O	0.992388	0.131845	0.673398
O24	O	1.492388	0.631845	1.173398
O25	O	1.134382	0.200193	0.992637
O26	O	1.634382	0.700193	1.492637
O27	O	1.011229	0.225092	0.782464
O28	O	1.511229	0.725092	1.282464
O29	O	1.208851	0.088080	1.042817
O30	O	1.708851	0.588080	1.542817
O31	O	1.252476	0.304579	0.697014
O32	O	1.752476	0.804579	1.197014
O33	O	1.159201	0.323366	0.795900
O34	O	1.659201	0.823366	1.295900
C35	C	0.974250	0.184030	0.719017
C36	C	1.474250	0.684030	1.219017
C37	C	0.889834	0.201084	0.691729
C38	C	1.389834	0.701084	1.191729
C39	C	1.211420	0.341525	0.740578
C40	C	1.711420	0.841525	1.240578
C41	C	1.228531	0.425923	0.722551
C42	C	1.728531	0.925923	1.222551
C43	C	0.563298	0.014633	0.990421
C44	C	1.063298	0.514633	1.490421
C45	C	0.483980	0.030677	0.964754
C46	C	0.983980	0.530677	1.464754
C47	C	0.503551	0.127696	0.809374
C48	C	1.003551	0.627696	1.309374
C49	C	0.582873	0.111663	0.835030
C50	C	1.082873	0.611663	1.335030
C51	C	0.612740	0.055130	0.925555
C52	C	1.112740	0.555130	1.425555
C53	C	0.632315	0.152160	0.770164
C54	C	1.132315	0.652160	1.270164
C55	C	0.711630	0.136125	0.795816
C56	C	1.211630	0.636125	1.295816
C57	C	0.741502	0.079593	0.886334
C58	C	1.241502	0.579593	1.386334
C59	C	0.692054	0.039095	0.951206
C60	C	1.192054	0.539095	1.451206
C61	C	0.602446	0.208689	0.679636
C62	C	1.102446	0.708689	1.179636
C63	C	0.651888	0.249185	0.614769
C64	C	1.151888	0.749185	1.114769
C65	C	0.731205	0.233155	0.640425
C66	C	1.231205	0.733155	1.140425
C67	C	0.761078	0.176623	0.730943
C68	C	1.261078	0.676623	1.230943
C69	C	0.780653	0.273652	0.575553
C70	C	1.280653	0.773652	1.075553
C71	C	0.859967	0.257617	0.601204
C72	C	1.359967	0.757617	1.101204
C73	C	0.840392	0.160587	0.756595
C74	C	1.340392	0.660587	1.256595
C75	C	1.041784	0.752586	0.920226
C76	C	1.541784	1.252586	1.420226
C77	C	1.057865	0.831892	0.903254
C78	C	1.557865	1.331892	1.403254
C79	C	1.155052	0.812251	0.800439
C80	C	1.655052	1.312251	1.300439
C81	C	1.138983	0.732942	0.817408
C82	C	1.638983	1.232942	1.317408
C83	C	1.082348	0.703116	0.877301
C84	C	1.582348	1.203116	1.377301
C85	C	1.179546	0.683472	0.774482
C86	C	1.679546	1.183472	1.274482
C87	C	1.163475	0.604171	0.791445
C88	C	1.663475	1.104171	1.291445
C89	C	1.106841	0.574339	0.851332
C90	C	1.606841	1.074339	1.351332
C91	C	1.066276	0.623815	0.894263
C92	C	1.566276	1.123815	1.394263
C93	C	1.236177	0.713300	0.714583
C94	C	1.736177	1.213300	1.214583
C95	C	1.276740	0.663830	0.671657
C96	C	1.776740	1.163830	1.171657
C97	C	1.260673	0.584526	0.688626
C98	C	1.760673	1.084526	1.188626
C99	C	1.204039	0.554695	0.748514
C100	C	1.704039	1.054695	1.248514
C101	C	1.301237	0.535051	0.645695
C102	C	1.801237	1.035051	1.145695
C103	C	1.285166	0.455749	0.662658
C104	C	1.785166	0.955749	1.162658
C105	C	1.187968	0.475393	0.765476
C106	C	1.687968	0.975393	1.265476
C107	C	1.369688	0.104232	0.846938
C108	C	1.869688	0.604232	1.346938
C109	C	1.454108	0.087196	0.874247
C110	C	1.954108	0.587196	1.374247
C111	C	1.171622	0.144125	1.056918
C112	C	1.671622	0.644125	1.556918
C113	C	1.171638	0.144089	1.173709
C114	C	1.671638	0.644089	1.673709
C115	C	1.131590	0.946122	0.825309
C116	C	1.631590	1.446122	1.325309
C117	C	1.114486	0.861722	0.843370
C118	C	1.614486	1.361722	1.343370
C119	C	1.171579	0.144228	0.509878
C120	C	1.671579	0.644228	1.009878
C121	C	1.171667	0.144020	0.393182
C122	C	1.671667	0.644020	0.893182
C123	C	1.230015	0.182842	1.233874
C124	C	1.730015	0.682842	1.733874
C125	C	1.230032	0.182805	1.343612
C126	C	1.730032	0.682805	1.843612
C127	C	1.113286	0.105262	1.333010
C128	C	1.613286	0.605262	1.833010
C129	C	1.113274	0.105295	1.223276
C130	C	1.613274	0.605295	1.723276
C131	C	1.288380	0.221637	1.184307
C132	C	1.788380	0.721637	1.684307
C133	C	1.346761	0.260393	1.244472
C134	C	1.846761	0.760393	1.744472
C135	C	1.346778	0.260356	1.354211
C136	C	1.846778	0.760356	1.854211
C137	C	1.288412	0.221563	1.403784
C138	C	1.788412	0.721563	1.903784
H139	H	0.864711	0.114555	0.830312
H140	H	1.364711	0.614555	1.330312
H141	H	1.093751	0.509767	0.865133
H142	H	1.593751	1.009767	1.365133
Cl143	Cl	0.502734	0.228842	0.647383
Cl144	Cl	1.002734	0.728842	1.147383
H145	H	0.756322	0.319676	0.501842
H146	H	1.256322	0.819676	1.001842
H147	H	0.806085	0.066535	0.907215
H148	H	1.306085	0.566535	1.407215
H149	H	1.020164	0.599529	0.943044
H150	H	1.520164	1.099529	1.443044
Cl151	Cl	1.226250	0.849754	0.725151
Cl152	Cl	1.726250	1.349754	1.225151
H153	H	1.288435	0.221528	1.493144
H154	H	1.788435	0.721528	1.993144
H155	H	1.065768	0.073679	1.373381
H156	H	1.565768	0.573679	1.873381
H157	H	1.249262	0.777873	0.700777
H158	H	1.749262	1.277873	1.200777
H159	H	1.322850	0.688126	0.622889
H160	H	1.822850	1.188126	1.122889
Cl161	Cl	1.006855	0.894083	0.957209
Cl162	Cl	1.506855	1.394083	1.457209
H163	H	1.347344	0.559348	0.596921
H164	H	1.847344	1.059348	1.096921
H165	H	0.479222	0.173723	0.735666
H166	H	0.979222	0.673723	1.235666
Cl167	Cl	0.970592	0.715084	0.995534
Cl168	Cl	1.470592	1.215084	1.495534
H169	H	1.065740	0.073736	1.174289
H170	H	1.565740	0.573736	1.674289
Cl171	Cl	0.922128	0.308535	0.519666
Cl172	Cl	1.422128	0.808535	1.019666
H173	H	0.716374	-0.006937	1.024923
H174	H	1.216374	0.493063	1.524923
H175	H	0.443725	-0.002309	1.017579
H176	H	0.943725	0.497691	1.517579
Cl177	Cl	1.116775	0.437891	0.840784
Cl178	Cl	1.616775	0.937891	1.340784
H179	H	0.587617	-0.031399	1.064138
H180	H	1.087617	0.468601	1.564138
H181	H	1.394319	0.291907	1.403197
H182	H	1.894319	0.791907	1.903197
H183	H	1.318196	0.415470	0.627702
H184	H	1.818196	0.915470	1.127702
Cl185	Cl	1.288362	0.221687	1.046351
Cl186	Cl	1.788362	0.721687	1.546351
H187	H	0.627559	0.295212	0.541062
H188	H	1.127559	0.795212	1.041062
Cl189	Cl	1.420137	0.309150	1.182157
Cl190	Cl	1.920137	0.809150	1.682157
