data_functionalizedCrystal
_audit_creation_method	'MofGen! by Chris Wilmer'
_symmetry_space_group_name_H-M	'P1'
_symmetry_Int_Tables_number	1
_symmetry_cell_setting	triclinic
loop_
_symmetry_equiv_pos_as_xyz
  x,y,z
_cell_length_a	16.120484
_cell_length_b	12.759401
_cell_length_c	12.759393
_cell_angle_alpha	90.020112
_cell_angle_beta	92.864008
_cell_angle_gamma	87.076037
loop_
_atom_site_label
_atom_site_type_symbol
_atom_site_fract_x
_atom_site_fract_y
_atom_site_fract_z
Zn1	Zn	-0.331898	-1.584980	-0.615164
Zn2	Zn	-0.471333	-1.575929	-0.448377
Zn3	Zn	-0.331935	-1.409277	-0.439504
Zn4	Zn	-0.471267	-1.400332	-0.624012
O5	O	-0.401608	-1.492630	-0.531764
O6	O	-0.350406	-1.730800	-0.593049
O7	O	-0.452884	-1.553777	-0.300181
O8	O	-0.215265	-1.440115	-0.455389
O9	O	-0.452848	-1.724150	-0.470512
O10	O	-0.215238	-1.569204	-0.584446
O11	O	-0.350469	-1.431338	-0.293663
O12	O	-0.350406	-1.261070	-0.463969
O13	O	-0.452737	-1.424871	-0.769857
O14	O	-0.452773	-1.254499	-0.599527
O15	O	-0.350343	-1.560531	-0.763356
O16	O	-0.587989	-1.545104	-0.479091
O17	O	-0.587941	-1.416094	-0.608130
C18	C	-0.401587	-1.219664	-0.531746
C19	C	-0.401598	-1.102886	-0.531764
C20	C	-0.454990	-0.934893	-0.602255
C21	C	-0.454983	-1.044618	-0.602244
C22	C	-0.348221	-1.051424	-0.461283
C23	C	-0.348233	-0.941702	-0.461289
C24	C	-0.618215	-1.478675	-0.545557
C25	C	-0.710881	-1.472802	-0.551492
C26	C	-0.880541	-1.462084	-0.562350
C27	C	-0.921835	-1.523363	-0.501195
C28	C	-1.016240	-1.517400	-0.507237
C29	C	-0.786128	-1.468046	-0.556310
C30	C	-0.184155	-1.506667	-0.517941
C31	C	-0.091490	-1.512649	-0.512050
C32	C	-0.401528	-1.492713	-0.805793
C33	C	-0.401494	-1.492749	-0.922567
C34	C	-0.401624	-0.766662	-0.531781
C35	C	-0.401616	-0.883439	-0.531781
C36	C	-0.348169	-1.563393	-0.974045
C37	C	-0.348133	-1.563413	-1.083767
C38	C	-0.454755	-1.422142	-1.090523
C39	C	-0.454786	-1.422118	-0.980803
C40	C	-0.401628	-1.492610	-0.258798
C41	C	-0.401427	-1.492793	-0.142009
H42	H	-0.498447	-1.086507	-0.659630
C43	C	-0.894729	-1.702974	-0.448453
C44	C	-0.873850	-1.600228	-0.424383
H45	H	-0.865098	-1.750421	-0.401035
H46	H	-0.952788	-1.708996	-0.442483
H47	H	-0.880446	-1.719190	-0.518161
H48	H	-0.888139	-1.584009	-0.354677
H49	H	-0.815778	-1.594202	-0.430343
H50	H	-0.916087	-1.405146	-0.619239
H51	H	-0.304768	-0.899807	-0.403896
C52	C	-0.242768	-1.703024	-0.978391
C53	C	-0.289583	-1.641019	-0.910031
H54	H	-0.206594	-1.750941	-0.938871
H55	H	-0.279082	-1.740876	-1.023497
H56	H	-0.210866	-1.659304	-1.019155
H57	H	-0.321490	-1.684739	-0.869272
H58	H	-0.253265	-1.603165	-0.864906
C59	C	-0.235946	-1.585277	-1.200010
C60	C	-0.289512	-1.641065	-1.140347
H61	H	-0.199749	-1.633219	-1.234932
H62	H	-0.267678	-1.543234	-1.250398
H63	H	-0.204072	-1.541554	-1.155157
H64	H	-0.321390	-1.684783	-1.185201
H65	H	-0.257776	-1.683126	-1.089954
C66	C	-0.502054	-1.359457	-1.261718
C67	C	-0.513337	-1.344515	-1.154541
H68	H	-0.538227	-1.311536	-1.301236
H69	H	-0.446039	-1.347699	-1.276133
H70	H	-0.514259	-1.429266	-1.280473
H71	H	-0.501127	-1.274707	-1.135784
H72	H	-0.569365	-1.356264	-1.140120
C73	C	-0.560186	-1.282484	-0.998495
C74	C	-0.513409	-1.344464	-0.924211
H75	H	-0.596378	-1.234550	-0.963554
H76	H	-0.523849	-1.244651	-1.038972
H77	H	-0.592067	-1.326219	-1.043326
H78	H	-0.481523	-1.300730	-0.879384
H79	H	-0.549751	-1.382300	-0.883715
H80	H	-0.304757	-1.098875	-0.403892
C81	C	-0.560519	-0.939190	-0.741586
C82	C	-0.513671	-0.870850	-0.679734
H83	H	-0.596750	-0.899652	-0.789415
H84	H	-0.524228	-0.984334	-0.779531
H85	H	-0.592360	-0.979921	-0.697758
H86	H	-0.481824	-0.830124	-0.723562
H87	H	-0.549966	-0.825688	-0.641787
