data_functionalizedCrystal
_audit_creation_method	'MofGen! by Chris Wilmer'
_symmetry_space_group_name_H-M	'P1'
_symmetry_Int_Tables_number	1
_symmetry_cell_setting	triclinic
loop_
_symmetry_equiv_pos_as_xyz
  x,y,z
_cell_length_a	16.992694
_cell_length_b	12.837942
_cell_length_c	15.455313
_cell_angle_alpha	92.949088
_cell_angle_beta	87.142206
_cell_angle_gamma	92.748582
loop_
_atom_site_label
_atom_site_type_symbol
_atom_site_fract_x
_atom_site_fract_y
_atom_site_fract_z
O1	O	1.060029	0.216906	-0.072020
O2	O	0.831564	0.214478	-0.072045
O3	O	0.940730	0.064370	-0.072028
O4	O	0.950863	0.367014	-0.072037
O5	O	0.934485	0.072916	0.072233
O6	O	0.825318	0.223024	0.072216
O7	O	1.053784	0.225452	0.072241
Cu8	Cu	0.938981	0.225018	0.085401
Cu9	Cu	0.946367	0.214912	-0.085205
O10	O	0.944617	0.375560	0.072224
C11	C	0.798995	0.215629	0.000082
C12	C	0.711256	0.206315	0.000072
C13	C	0.667730	0.296178	0.000070
C14	C	0.585288	0.287422	0.000082
C15	C	0.546375	0.188801	0.000091
C16	C	0.589907	0.098931	0.000095
C17	C	0.672346	0.107689	0.000089
C18	C	0.300064	0.152503	0.000115
C19	C	0.217618	0.143751	0.000118
C20	C	0.213006	0.332243	0.000107
C21	C	0.295447	0.340992	0.000096
C22	C	0.338972	0.251123	0.000105
N23	N	0.462107	0.179848	0.000100
N24	N	0.423238	0.260077	0.000102
C25	C	0.934185	0.029739	0.000102
C26	C	0.923977	-0.086184	0.000099
C27	C	1.046699	-0.316976	0.000095
C28	C	1.037111	-0.425897	0.000093
C29	C	0.895215	-0.412947	0.000086
C30	C	0.904802	-0.304027	0.000088
C31	C	0.980547	-0.256046	0.000094
C32	C	0.990134	-0.147123	0.000103
C33	C	0.848238	-0.134176	0.000090
C34	C	0.838650	-0.243096	0.000087
C35	C	1.086352	0.224301	0.000112
C36	C	1.174092	0.233614	0.000116
C37	C	0.951163	0.410191	0.000092
C38	C	0.961371	0.526114	0.000089
N39	N	0.933792	0.232127	0.205396
N40	N	0.951562	0.207795	-0.205199
C41	C	0.980189	0.168382	0.250797
C42	C	0.976273	0.173768	0.341604
C43	C	0.925963	0.242905	0.387008
C44	C	0.879560	0.306652	0.341600
C45	C	0.883473	0.301260	0.250795
C46	C	0.909072	0.266151	0.658587
C47	C	0.905164	0.271540	0.749399
C48	C	1.001877	0.138654	0.749397
C49	C	1.005788	0.133273	0.658589
C50	C	0.959383	0.197016	0.613189
N51	N	0.921960	0.248414	0.479828
N52	N	0.963381	0.191501	0.520371
H53	H	0.549853	0.360598	0.000080
H54	H	0.864193	0.327844	0.786363
H55	H	0.699407	0.376486	0.000063
C56	C	0.824221	0.382703	0.391542
H57	H	0.828541	0.376794	0.452126
H58	H	0.771359	0.366092	0.376672
H59	H	0.838637	0.452153	0.376647
H60	H	0.871288	0.318055	0.621630
C61	C	0.174815	0.035264	0.000129
H62	H	0.212542	-0.017005	0.000141
H63	H	0.144924	0.024949	-0.050177
H64	H	0.140578	0.030918	0.050443
H65	H	1.090979	-0.475503	0.000090
H66	H	0.776981	-0.282178	0.000079
H67	H	0.177559	0.405409	0.000101
C68	C	1.061125	0.057216	0.608651
H69	H	1.088192	0.020015	0.648697
H70	H	1.098296	0.095378	0.573216
H71	H	1.031018	0.009316	0.573240
C72	C	0.811905	-0.465740	0.000078
H73	H	0.815673	-0.539335	0.000081
H74	H	0.786497	-0.448206	-0.050227
H75	H	0.782151	-0.442259	0.050393
C76	C	1.052910	0.068533	0.799338
H77	H	1.043371	0.081636	0.859921
H78	H	1.107055	0.083374	0.784448
H79	H	1.039774	-0.002684	0.784464
C80	C	0.832439	0.371384	0.200853
H81	H	0.801921	0.413339	0.240898
H82	H	0.798320	0.329013	0.165439
H83	H	0.865595	0.415078	0.165422
H84	H	0.794372	-0.084554	0.000096
H85	H	1.051808	-0.108058	0.000111
C86	C	0.720225	0.008839	0.000083
H87	H	0.685245	-0.051151	0.000079
H88	H	0.750313	0.011315	0.050386
H89	H	0.754649	0.005360	-0.050234
C90	C	1.035530	0.092329	0.200861
H91	H	1.062595	0.055130	0.240909
H92	H	1.072703	0.130490	0.165426
H93	H	1.005425	0.044428	0.165449
H94	H	1.108372	-0.277909	0.000108
H95	H	0.558216	0.018632	0.000114
H96	H	1.014053	0.121861	0.378570
H97	H	0.327125	0.421299	0.000079
H98	H	0.335492	0.079324	0.000123
