data_functionalizedCrystal
_audit_creation_method	'MofGen! by Chris Wilmer'
_symmetry_space_group_name_H-M	'P1'
_symmetry_Int_Tables_number	1
_symmetry_cell_setting	triclinic
loop_
_symmetry_equiv_pos_as_xyz
  x,y,z
_cell_length_a	10.654551
_cell_length_b	10.654551
_cell_length_c	9.130313
_cell_angle_alpha	90.001552
_cell_angle_beta	90.000320
_cell_angle_gamma	84.485316
loop_
_atom_site_label
_atom_site_type_symbol
_atom_site_fract_x
_atom_site_fract_y
_atom_site_fract_z
O1	O	1.667834	0.176398	-0.121771
O2	O	1.302356	0.193203	-0.121777
O3	O	1.493497	0.002062	-0.121774
O4	O	1.476693	0.367540	-0.121773
O5	O	1.493495	0.002067	0.121825
O6	O	1.302353	0.193208	0.121822
O7	O	1.667832	0.176403	0.121828
Cu8	Cu	1.485092	0.184806	0.144068
Cu9	Cu	1.485095	0.184800	-0.144016
O10	O	1.476690	0.367545	0.121826
C11	C	1.255557	0.191972	0.000022
C12	C	1.116113	0.188279	0.000019
C13	C	0.919580	0.183064	0.132806
C14	C	1.050601	0.186545	0.132807
C15	C	1.050598	0.186546	-0.132778
C16	C	0.919578	0.183075	-0.132777
C17	C	0.854076	0.181317	0.265603
C18	C	0.919583	0.183053	0.398400
C19	C	1.050603	0.186533	0.398401
C20	C	1.116117	0.188278	0.265604
C21	C	1.492262	-0.044734	0.000022
C22	C	1.488569	-0.184177	0.000012
C23	C	1.486839	-0.249692	-0.132771
C24	C	1.483358	-0.380712	-0.132765
C25	C	1.483345	-0.380692	0.132820
C26	C	1.486817	-0.249673	0.132812
C27	C	1.488591	-0.184196	-0.265571
C28	C	1.486862	-0.249711	-0.398365
C29	C	1.483382	-0.380731	-0.398359
C30	C	1.481631	-0.446236	-0.265558
C31	C	1.714631	0.177635	0.000027
C32	C	1.854074	0.181327	0.000020
C33	C	1.477926	0.414340	0.000026
C34	C	1.481618	0.553784	0.000027
N35	N	1.485100	0.184810	0.346690
N36	N	1.485098	0.184787	-0.346639
C37	C	1.569759	0.100201	0.423343
C38	C	1.569756	0.100186	0.576680
C39	C	1.400429	0.269399	0.576697
C40	C	1.400428	0.269407	0.423363
C41	C	1.654431	0.015604	0.346670
C42	C	1.739098	-0.069010	0.423324
C43	C	1.739095	-0.069025	0.576660
C44	C	1.654424	0.015574	0.653344
H45	H	0.866242	0.181664	-0.240904
H46	H	1.331489	0.338302	0.360952
H47	H	1.488275	-0.196366	-0.506486
H48	H	0.866231	0.181642	0.506519
H49	H	1.491429	-0.077513	-0.265592
H50	H	1.808025	-0.137930	0.639070
H51	H	0.747393	0.178481	0.265617
C52	C	1.122661	0.188451	-0.278840
H53	H	1.210075	0.190755	-0.259821
H54	H	1.092253	0.260988	-0.333406
H55	H	1.110129	0.114761	-0.333395
C56	C	1.260236	0.192107	0.265606
H57	H	1.289870	0.192886	0.363710
H58	H	1.280937	0.265998	0.216561
H59	H	1.298815	0.119771	0.216568
H60	H	1.481921	-0.434037	0.240940
H61	H	1.481961	-0.434068	-0.506486
H62	H	1.654420	0.015546	0.778201
C63	C	1.488724	-0.177596	0.278866
H64	H	1.491029	-0.090185	0.259838
H65	H	1.561261	-0.208000	0.333437
H66	H	1.415034	-0.190122	0.333421
C67	C	1.477769	-0.590352	-0.265552
H68	H	1.476984	-0.619991	-0.363654
H69	H	1.403866	-0.611023	-0.216508
H70	H	1.550092	-0.628951	-0.216510
H71	H	1.654444	0.015611	0.221816
H72	H	1.331495	0.338278	0.639143
C73	C	1.832232	-0.162056	0.338979
H74	H	1.820121	-0.149922	0.236679
H75	H	1.817881	-0.246011	0.364088
H76	H	1.916165	-0.147619	0.364121
H77	H	1.103933	0.187959	0.506531
