data_functionalizedCrystal
_audit_creation_method	'MofGen! by Chris Wilmer'
_symmetry_space_group_name_H-M	'P1'
_symmetry_Int_Tables_number	1
_symmetry_cell_setting	triclinic
loop_
_symmetry_equiv_pos_as_xyz
  x,y,z
_cell_length_a	15.711784
_cell_length_b	15.944493
_cell_length_c	14.185569
_cell_angle_alpha	76.852849
_cell_angle_beta	107.179161
_cell_angle_gamma	101.531923
loop_
_atom_site_label
_atom_site_type_symbol
_atom_site_fract_x
_atom_site_fract_y
_atom_site_fract_z
O1	O	1.127257	0.473699	-0.083406
O2	O	0.875604	0.409741	-0.083406
O3	O	1.008327	0.321562	-0.083414
O4	O	0.994534	0.561877	-0.083397
O5	O	1.047534	0.295518	0.083418
O6	O	0.914811	0.383696	0.083426
O7	O	1.166465	0.447654	0.083426
Cu8	Cu	1.044218	0.413297	0.098659
Cu9	Cu	0.997850	0.444098	-0.098639
O10	O	1.033742	0.535833	0.083435
C11	C	0.863005	0.386270	0.000010
C12	C	0.767051	0.355129	0.000010
C13	C	0.642120	0.237892	0.000003
C14	C	0.732282	0.267163	0.000003
C15	C	0.711664	0.413860	0.000010
C16	C	0.621497	0.384602	0.000004
C17	C	0.586733	0.296617	0.000001
C18	C	0.566110	0.443327	0.000003
C19	C	0.475953	0.414071	0.000002
C20	C	0.441182	0.326089	0.000003
C21	C	0.496576	0.267360	0.000001
C22	C	0.600878	0.531311	0.000012
C23	C	0.545491	0.590036	0.000011
C24	C	0.455330	0.560781	0.000003
C25	C	0.420559	0.472799	0.000004
C26	C	0.399936	0.619509	0.000005
C27	C	0.309779	0.590252	0.000004
C28	C	0.330402	0.443542	0.000003
C29	C	1.027365	0.277073	-0.000002
C30	C	1.025672	0.183307	-0.000015
C31	C	1.103801	-0.028454	0.000004
C32	C	1.042340	-0.079124	-0.082253
C33	C	1.022542	0.011621	-0.000003
C34	C	1.080977	-0.104784	0.082231
C35	C	1.019526	-0.154219	0.000013
C36	C	0.961087	-0.037803	-0.082327
C37	C	0.999753	-0.063468	0.082230
C38	C	0.938228	-0.114120	-0.000046
C39	C	1.024282	0.107158	-0.000013
C40	C	1.017779	-0.249753	0.000016
C41	C	1.179063	0.471125	0.000008
C42	C	1.275015	0.502267	0.000002
C43	C	1.014702	0.580323	0.000021
C44	C	1.016394	0.674090	0.000027
N45	N	1.076837	0.391635	0.237428
N46	N	0.965239	0.465755	-0.237408
C47	C	0.869405	0.529362	0.605092
C48	C	0.894119	0.512961	0.710112
C49	C	1.011669	0.434929	0.710065
C50	C	0.986962	0.451320	0.605043
C51	C	0.915830	0.498538	0.552564
C52	C	1.033387	0.420495	0.552516
C53	C	1.008684	0.436889	0.447503
C54	C	0.937557	0.484108	0.395017
C55	C	0.891127	0.514932	0.447552
C56	C	1.104523	0.373283	0.604996
C57	C	1.150948	0.342459	0.552469
C58	C	1.126241	0.358847	0.447454
C59	C	1.055114	0.406065	0.394968
C60	C	1.172671	0.328023	0.394920
C61	C	1.147969	0.344417	0.289907
C62	C	1.030411	0.422459	0.289955
H63	H	0.302093	0.371898	-0.000009
O64	O	0.353586	0.297581	-0.000133
C65	C	0.308816	0.261076	-0.086552
H66	H	0.360026	0.239605	-0.115358
H67	H	0.258138	0.202405	-0.067122
H68	H	0.272080	0.311696	-0.147054
O69	O	0.978220	-0.054549	0.165166
C70	C	0.891588	-0.099971	0.165868
H71	H	0.874754	-0.152903	0.118407
H72	H	0.889925	-0.130954	0.246199
H73	H	0.840031	-0.052787	0.133567
O74	O	0.785950	0.210004	-0.000050
C75	C	0.735934	0.126073	-0.000028
H76	H	0.661221	0.131653	-0.031607
H77	H	0.757808	0.090785	-0.048470
H78	H	0.748329	0.087912	0.080008
H79	H	0.833198	0.553374	0.404822
H80	H	0.739982	0.485497	0.000015
O81	O	0.608256	0.152459	-0.000182
C82	C	0.536399	0.144643	-0.086573
H83	H	0.543530	0.204513	-0.146961
H84	H	0.537669	0.083960	-0.115582
H85	H	0.469894	0.139136	-0.067035
H86	H	0.674291	0.555128	0.000017
H87	H	0.468267	0.195716	-0.000012
H88	H	1.060313	-0.086671	-0.151795
H89	H	0.811476	0.567804	0.562362
H90	H	1.173775	0.008691	-0.000079
H91	H	0.573809	0.661673	0.000017
H92	H	0.868170	-0.151100	-0.000091
H93	H	1.131652	-0.134023	0.151768
H94	H	1.069588	0.396486	0.752805
H95	H	0.972483	0.460901	0.247225
H96	H	0.910430	-0.008653	-0.151943
O97	O	0.913716	0.500079	0.293007
C98	C	0.987488	0.547908	0.257897
H99	H	1.052648	0.536924	0.318393
H100	H	0.988655	0.525361	0.187629
H101	H	0.980816	0.620111	0.239279
O102	O	0.433714	0.704992	-0.000163
C103	C	0.464973	0.739788	-0.086547
H104	H	0.429464	0.698777	-0.146945
H105	H	0.450067	0.809526	-0.115544
H106	H	0.540662	0.739199	-0.067004
O107	O	0.256082	0.647418	-0.000048
C108	C	0.306102	0.731345	-0.000025
H109	H	0.365972	0.735629	-0.031607
H110	H	0.261455	0.781751	-0.048463
H111	H	0.331327	0.744523	0.080012
H112	H	0.856308	0.538067	0.752874
H113	H	1.124635	0.359940	0.690504
O114	O	1.219994	0.296573	0.603606
C115	C	1.231861	0.288733	0.707557
H116	H	1.166520	0.296735	0.721925
H117	H	1.250871	0.221853	0.747458
H118	H	1.287785	0.341268	0.737348
H119	H	1.230593	0.289585	0.437661
O120	O	1.193130	0.314378	0.239031
C121	C	1.261222	0.269204	0.307867
H122	H	1.243400	0.245656	0.382735
H123	H	1.267278	0.210924	0.277508
H124	H	1.328048	0.314500	0.319020
