data_functionalizedCrystal
_audit_creation_method	'MofGen! by Chris Wilmer'
_symmetry_space_group_name_H-M	'P1'
_symmetry_Int_Tables_number	1
_symmetry_cell_setting	triclinic
loop_
_symmetry_equiv_pos_as_xyz
  x,y,z
_cell_length_a	12.645331
_cell_length_b	12.645330
_cell_length_c	12.759387
_cell_angle_alpha	89.970586
_cell_angle_beta	89.983850
_cell_angle_gamma	90.016927
loop_
_atom_site_label
_atom_site_type_symbol
_atom_site_fract_x
_atom_site_fract_y
_atom_site_fract_z
Zn1	Zn	1.620736	-0.422005	-0.593893
Zn2	Zn	1.620616	-0.599307	-0.418218
Zn3	Zn	1.443449	-0.422056	-0.418243
Zn4	Zn	1.443432	-0.599225	-0.593870
O5	O	1.532058	-0.510648	-0.506056
O6	O	1.769067	-0.445538	-0.570588
O7	O	1.597071	-0.575850	-0.271200
O8	O	1.467023	-0.273702	-0.441564
O9	O	1.768979	-0.575801	-0.441520
O10	O	1.597275	-0.273665	-0.570613
O11	O	1.466907	-0.445624	-0.271219
O12	O	1.295099	-0.445544	-0.441542
O13	O	1.466995	-0.575660	-0.740894
O14	O	1.295087	-0.575710	-0.570574
O15	O	1.597259	-0.445458	-0.740911
O16	O	1.597055	-0.747644	-0.441498
O17	O	1.466879	-0.747583	-0.570549
C18	C	1.256628	-0.510624	-0.506059
C19	C	1.138798	-0.510640	-0.506085
C20	C	0.971262	-0.592975	-0.586836
C21	C	1.093822	-0.592710	-0.587173
C22	C	1.094320	-0.398982	-0.536333
C23	C	0.971722	-0.399485	-0.536902
C24	C	0.971552	-0.539062	-0.394829
C25	C	1.094158	-0.541503	-0.395429
C26	C	1.531981	-0.786078	-0.506041
C27	C	1.532045	-0.903908	-0.506070
C28	C	1.450488	-1.071478	-0.587506
C29	C	1.450071	-0.948919	-0.587245
C30	C	1.501798	-0.948511	-0.395351
C31	C	1.501301	-1.071109	-0.395845
C32	C	1.644346	-1.070997	-0.534455
C33	C	1.643658	-0.948389	-0.536877
C34	C	1.808563	-0.510673	-0.506054
C35	C	1.926393	-0.510684	-0.506053
C36	C	1.532138	-0.510544	-0.780090
C37	C	1.532172	-0.510500	-0.896866
C38	C	1.532165	-0.234143	-0.506094
C39	C	1.532210	-0.116313	-0.506110
C40	C	1.667826	-0.374929	-0.896904
C41	C	1.735667	-0.307128	-0.951783
C42	C	1.735693	-0.307089	-1.061505
C43	C	1.667868	-0.374857	-1.116350
C44	C	1.600026	-0.442658	-1.061470
C45	C	1.600010	-0.442692	-0.951746
C46	C	1.464369	-0.578222	-1.061433
C47	C	1.464347	-0.578268	-0.951711
C48	C	1.396544	-0.645990	-1.116278
C49	C	1.328706	-0.713798	-1.061398
C50	C	1.328684	-0.713835	-0.951670
C51	C	1.396506	-0.646069	-0.896832
C52	C	1.532039	-0.510675	-0.233089
C53	C	1.532211	-0.510421	-0.116312
H54	H	0.942041	-0.335973	-0.480762
Br55	Br	1.667814	-0.374996	-0.747994
Br56	Br	1.827742	-0.215053	-1.135989
Br57	Br	1.396488	-0.646121	-0.747923
H58	H	1.667886	-0.374810	-1.205691
H59	H	1.790887	-0.251951	-0.907116
Br60	Br	1.236659	-0.805750	-1.135834
Br61	Br	1.312798	-1.123009	-0.556637
H62	H	1.123453	-0.336002	-0.479333
H63	H	1.366939	-0.919684	-0.568466
Br64	Br	1.596190	-1.120556	-0.291311
H65	H	1.419328	-1.099801	-0.371831
Br66	Br	1.481610	-0.898643	-0.724081
Br67	Br	1.481732	-1.120490	-0.724798
Br68	Br	1.366595	-0.897500	-0.354597
H69	H	1.123240	-0.623667	-0.372615
Br70	Br	0.919916	-0.562107	-0.723394
H71	H	1.273428	-0.769036	-0.906993
H72	H	1.123894	-0.675510	-0.568216
H73	H	1.396566	-0.645949	-1.205619
Br74	Br	0.922101	-0.731444	-0.555599
H75	H	1.671936	-1.101834	-0.613819
H76	H	1.123171	-0.573928	-0.669586
H77	H	0.943148	-0.375416	-0.618212
H78	H	1.125046	-0.374475	-0.616762
H79	H	0.940630	-0.619094	-0.367335
Br80	Br	1.145177	-0.448848	-0.289722
Br81	Br	1.597858	-0.899928	-0.291501
Br82	Br	0.923188	-0.439159	-0.294506
H83	H	1.666467	-0.919233	-0.618360
H84	H	1.707751	-0.917744	-0.481908
H85	H	1.705230	-1.099990	-0.475171
