data_functionalizedCrystal
_audit_creation_method	'MofGen! by Chris Wilmer'
_symmetry_space_group_name_H-M	'P1'
_symmetry_Int_Tables_number	1
_symmetry_cell_setting	triclinic
loop_
_symmetry_equiv_pos_as_xyz
  x,y,z
_cell_length_a	15.995350
_cell_length_b	16.109301
_cell_length_c	14.586319
_cell_angle_alpha	89.998582
_cell_angle_beta	90.002117
_cell_angle_gamma	96.523072
loop_
_atom_site_label
_atom_site_type_symbol
_atom_site_fract_x
_atom_site_fract_y
_atom_site_fract_z
O1	O	0.107625	-1.103160	0.076178
O2	O	0.607625	-0.603160	0.576178
O3	O	0.121018	-0.861102	0.076192
O4	O	0.621018	-0.361102	0.576192
O5	O	-0.007568	-0.988748	0.076184
O6	O	0.492432	-0.488748	0.576184
O7	O	0.236211	-0.975514	0.076186
O8	O	0.736211	-0.475514	0.576186
O9	O	-0.007571	-0.988738	-0.076297
O10	O	0.492429	-0.488738	0.423703
O11	O	0.121015	-0.861092	-0.076289
O12	O	0.621015	-0.361092	0.423711
O13	O	0.107622	-1.103150	-0.076303
O14	O	0.607622	-0.603150	0.423697
Cu15	Cu	0.114318	-0.982120	-0.090219
Cu16	Cu	0.614318	-0.482120	0.409781
Cu17	Cu	0.114322	-0.982132	0.090107
Cu18	Cu	0.614322	-0.482132	0.590107
O19	O	0.236208	-0.975504	-0.076295
O20	O	0.736208	-0.475504	0.423705
C21	C	-0.038764	-0.988196	-0.000055
C22	C	0.461236	-0.488196	0.499945
C23	C	-0.131714	-0.986556	-0.000050
C24	C	0.368286	-0.486556	0.499950
C25	C	0.120474	-0.830122	-0.000047
C26	C	0.620474	-0.330122	0.499953
C27	C	0.118848	-0.737826	-0.000041
C28	C	0.618848	-0.237826	0.499959
C29	C	0.108166	-1.134130	-0.000062
C30	C	0.608166	-0.634130	0.499938
C31	C	0.109792	-1.226426	-0.000062
C32	C	0.609792	-0.726426	0.499938
C33	C	-0.469460	-0.980665	-0.000053
C34	C	0.030540	-0.480665	0.499947
C35	C	-0.422001	-0.889758	0.000295
C36	C	0.077999	-0.389758	0.500295
C37	C	-0.325311	-0.891399	-0.000049
C38	C	0.174689	-0.391399	0.499951
C39	C	-0.301900	-0.983587	-0.000051
C40	C	0.198100	-0.483587	0.499949
C41	C	-0.342992	-1.028420	-0.087126
C42	C	0.157008	-0.528420	0.412874
C43	C	-0.439627	-1.026136	-0.087198
C44	C	0.060373	-0.526136	0.412802
C45	C	-0.439982	-1.028026	0.086201
C46	C	0.060018	-0.528026	0.586201
C47	C	-0.343037	-1.028004	0.087351
C48	C	0.156963	-0.528004	0.587351
C49	C	-0.207203	-0.985243	-0.000053
C50	C	0.292797	-0.485243	0.499947
C51	C	-0.564157	-0.979012	-0.000057
C52	C	-0.064157	-0.479012	0.499943
C53	C	0.267404	-0.976056	-0.000054
C54	C	0.767404	-0.476056	0.499946
C55	C	0.360354	-0.977697	-0.000053
C56	C	0.860354	-0.477697	0.499947
N57	N	0.114315	-0.982118	-0.217050
N58	N	0.614315	-0.482118	0.282950
C59	C	0.191366	-0.515573	-0.000051
C60	C	0.691366	-0.015573	0.499949
C61	C	0.189831	-0.428853	-0.000057
C62	C	0.689831	0.071147	0.499943
C63	C	0.037268	-0.448686	-0.000055
C64	C	0.537268	0.051314	0.499945
C65	C	0.038804	-0.535405	-0.000055
C66	C	0.538804	-0.035405	0.499945
C67	C	0.115855	-0.568846	-0.000049
C68	C	0.615855	-0.068846	0.499951
C69	C	0.112785	-0.395406	-0.000054
C70	C	0.612785	0.104594	0.499946
C71	C	0.111120	-0.301380	-0.000061
C72	C	0.611120	0.198620	0.499939
C73	C	0.117520	-0.662879	-0.000044
C74	C	0.617520	-0.162879	0.499956
C75	C	0.057396	-1.038661	-0.548048
C76	C	0.557396	-0.538661	-0.048048
C77	C	0.057396	-1.038659	-0.452067
C78	C	0.557396	-0.538659	0.047933
C79	C	0.171244	-0.925595	-0.452070
C80	C	0.671244	-0.425595	0.047930
C81	C	0.171247	-0.925602	-0.548050
C82	C	0.671247	-0.425602	-0.048050
C83	C	0.114318	-0.982134	-0.596036
C84	C	0.614318	-0.482134	-0.096036
C85	C	0.114315	-0.982125	-0.404075
C86	C	0.614315	-0.482125	0.095925
C87	C	0.114316	-0.982122	-0.300008
C88	C	0.614316	-0.482122	0.199992
C89	C	0.114318	-0.982138	-0.700110
C90	C	0.614318	-0.482138	-0.200110
N91	N	0.114318	-0.982141	0.216939
N92	N	0.614318	-0.482141	0.716939
H93	H	-0.296878	-0.856157	0.062370
H94	H	0.203122	-0.356157	0.562370
H95	H	-0.327693	-1.095232	0.092608
H96	H	0.172307	-0.595232	0.592608
Br97	Br	-0.019854	-1.115382	-0.386942
Br98	Br	0.480146	-0.615382	0.113058
Br99	Br	-0.452865	-0.829199	0.104374
Br100	Br	0.047135	-0.329199	0.604374
H101	H	0.011042	-1.084694	-0.587116
H102	H	0.511042	-0.584694	-0.087116
Br103	Br	-0.067297	-0.403296	-0.000060
Br104	Br	0.432703	0.096704	0.499940
Br105	Br	-0.278845	-0.832245	-0.104252
Br106	Br	0.221155	-0.332245	0.395748
Br107	Br	0.248500	-0.848874	-0.386942
Br108	Br	0.748500	-0.348874	0.113058
H109	H	-0.314603	-0.997273	-0.151923
H110	H	0.185397	-0.497273	0.348077
Br111	Br	-0.470122	-0.971630	-0.195681
Br112	Br	0.029878	-0.471630	0.304319
Br113	Br	-0.063683	-0.607710	-0.000064
Br114	Br	0.436317	-0.107710	0.499936
H115	H	-0.441586	-0.853581	-0.061797
H116	H	0.058414	-0.353581	0.438203
Br117	Br	-0.493411	-1.137373	-0.093797
Br118	Br	0.006589	-0.637373	0.406203
H119	H	-0.328885	-1.096148	-0.090365
H120	H	0.171115	-0.596148	0.409635
H121	H	-0.460512	-0.998308	0.152198
H122	H	0.039488	-0.498308	0.652198
Br123	Br	0.248510	-0.848887	-0.613184
Br124	Br	0.748510	-0.348887	-0.113184
H125	H	0.254106	-0.542798	-0.000053
H126	H	0.754106	-0.042798	0.499947
Br127	Br	0.292315	-0.356556	-0.000065
Br128	Br	0.792315	0.143444	0.499935
Br129	Br	-0.297064	-0.973830	0.194734
Br130	Br	0.202936	-0.473830	0.694734
H131	H	-0.471761	-1.095051	0.086785
H132	H	0.028239	-0.595051	0.586785
