data_functionalizedCrystal
_audit_creation_method	'MofGen! by Chris Wilmer'
_symmetry_space_group_name_H-M	'P1'
_symmetry_Int_Tables_number	1
_symmetry_cell_setting	triclinic
loop_
_symmetry_equiv_pos_as_xyz
  x,y,z
_cell_length_a	18.215407
_cell_length_b	12.759400
_cell_length_c	18.215399
_cell_angle_alpha	89.976571
_cell_angle_beta	89.982632
_cell_angle_gamma	90.010609
loop_
_atom_site_label
_atom_site_type_symbol
_atom_site_fract_x
_atom_site_fract_y
_atom_site_fract_z
Zn1	Zn	1.125132	-0.418349	-0.416091
Zn2	Zn	1.625132	0.081651	0.083909
Zn3	Zn	1.125065	-0.594046	-0.293034
Zn4	Zn	1.625065	-0.094046	0.206966
Zn5	Zn	1.002064	-0.418374	-0.293043
Zn6	Zn	1.502064	0.081626	0.206957
Zn7	Zn	1.002055	-0.593978	-0.416064
Zn8	Zn	1.502055	-0.093978	0.083936
O9	O	1.063579	-0.506187	-0.354558
O10	O	1.563579	-0.006187	0.145442
O11	O	1.228107	-0.441673	-0.399774
O12	O	1.728107	0.058327	0.100226
O13	O	1.108725	-0.570782	-0.190051
O14	O	1.608725	-0.070782	0.309949
O15	O	1.018421	-0.271350	-0.309381
O16	O	1.518421	0.228650	0.190619
O17	O	1.228059	-0.570757	-0.309365
O18	O	1.728059	-0.070757	0.190635
O19	O	1.108838	-0.271331	-0.399783
O20	O	1.608838	0.228669	0.100217
O21	O	1.018357	-0.441716	-0.190058
O22	O	1.518357	0.058284	0.309942
O23	O	0.899079	-0.441650	-0.309355
O24	O	1.399079	0.058350	0.190645
O25	O	1.018406	-0.570642	-0.519052
O26	O	1.518406	-0.070642	-0.019052
O27	O	0.899072	-0.570666	-0.399738
O28	O	1.399072	-0.070666	0.100262
O29	O	1.108830	-0.441608	-0.519071
O30	O	1.608830	0.058392	-0.019071
O31	O	1.108716	-0.741058	-0.309339
O32	O	1.608716	-0.241058	0.190661
O33	O	1.018341	-0.741008	-0.399729
O34	O	1.518341	-0.241008	0.100271
C35	C	0.872373	-0.506154	-0.354545
C36	C	1.372373	-0.006154	0.145455
C37	C	0.790574	-0.506166	-0.354557
C38	C	1.290574	-0.006166	0.145443
C39	C	0.602405	-0.439090	-0.401707
C40	C	1.102405	0.060910	0.098293
C41	C	0.525546	-0.439099	-0.401710
C42	C	1.025546	0.060901	0.098290
C43	C	0.525506	-0.573313	-0.307421
C44	C	1.025506	-0.073313	0.192579
C45	C	0.602363	-0.573298	-0.307416
C46	C	1.102363	-0.073298	0.192584
C47	C	0.640811	-0.506188	-0.354563
C48	C	1.140811	-0.006188	0.145437
C49	C	0.487095	-0.506212	-0.354571
C50	C	0.987095	-0.006212	0.145429
C51	C	0.403761	-0.506222	-0.354573
C52	C	0.903761	-0.006222	0.145427
C53	C	0.724150	-0.506176	-0.354560
C54	C	1.224150	-0.006176	0.145440
C55	C	1.063541	-0.779154	-0.354546
C56	C	1.563541	-0.279154	0.145454
C57	C	1.063592	-0.895931	-0.354566
C58	C	1.563592	-0.395931	0.145434
C59	C	1.110648	-0.950703	-0.401677
C60	C	1.610648	-0.450703	0.098323
C61	C	1.110682	-1.060427	-0.401695
C62	C	1.610682	-0.560427	0.098305
C63	C	1.016601	-1.060596	-0.307484
C64	C	1.516601	-0.560596	0.192516
C65	C	1.016564	-0.950874	-0.307471
C66	C	1.516564	-0.450874	0.192529
C67	C	1.157676	-0.895760	-0.448772
C68	C	1.657676	-0.395760	0.051228
C69	C	1.204737	-0.950533	-0.495887
C70	C	1.704737	-0.450533	0.004113
C71	C	1.204771	-1.060257	-0.495905
C72	C	1.704771	-0.560257	0.004095
C73	C	1.157744	-1.115208	-0.448808
C74	C	1.657744	-0.615208	0.051192
C75	C	1.255532	-0.506220	-0.354571
C76	C	1.755532	-0.006220	0.145429
C77	C	1.337331	-0.506234	-0.354577
C78	C	1.837331	-0.006234	0.145423
C79	C	1.063624	-0.506114	-0.546511
C80	C	1.563624	-0.006114	-0.046511
C81	C	1.063643	-0.506083	-0.628310
C82	C	1.563643	-0.006083	-0.128310
C83	C	1.063638	-0.232154	-0.354586
C84	C	1.563638	0.267846	0.145414
C85	C	1.063663	-0.115377	-0.354598
C86	C	1.563663	0.384623	0.145402
C87	C	1.110744	-0.438832	-0.816515
C88	C	1.610744	0.061168	-0.316515
C89	C	1.110753	-0.438802	-0.893374
C90	C	1.610753	0.061198	-0.393374
C91	C	1.016595	-0.573172	-0.893343
C92	C	1.516595	-0.073172	-0.393343
C93	C	1.016583	-0.573197	-0.816485
C94	C	1.516583	-0.073197	-0.316485
C95	C	1.063661	-0.506028	-0.778074
C96	C	1.563661	-0.006028	-0.278074
C97	C	1.063682	-0.505973	-0.931790
C98	C	1.563682	-0.005973	-0.431790
C99	C	1.063691	-0.505940	-1.015123
C100	C	1.563691	-0.005940	-0.515123
C101	C	1.063652	-0.506059	-0.694735
C102	C	1.563652	-0.006059	-0.194735
C103	C	1.063577	-0.506183	-0.163352
C104	C	1.563577	-0.006183	0.336648
C105	C	1.063700	-0.505918	-0.081553
C106	C	1.563700	-0.005918	0.418447
H107	H	0.633706	-0.384442	-0.440095
H108	H	1.133706	0.115558	0.059905
H109	H	1.243020	-0.905786	-0.534235
H110	H	1.743020	-0.405786	-0.034235
C111	C	0.964909	-1.121047	-0.255649
C112	C	1.464909	-0.621047	0.244351
N113	N	0.925987	-1.166579	-0.216592
N114	N	1.425987	-0.666579	0.283408
C115	C	1.162549	-0.364883	-0.935656
C116	C	1.662549	0.135117	-0.435656
N117	N	1.201564	-0.309205	-0.967503
N118	N	1.701564	0.190795	-0.467503
C119	C	1.256539	-1.120504	-0.547730
C120	C	1.756539	-0.620504	-0.047730
N121	N	1.295537	-1.165879	-0.586762
N122	N	1.795537	-0.665879	-0.086762
H123	H	0.494279	-0.384460	-0.440099
H124	H	0.994279	0.115540	0.059901
H125	H	1.157655	-0.806417	-0.448761
H126	H	1.657655	-0.306417	0.051239
H127	H	0.494193	-0.627952	-0.269037
H128	H	0.994193	-0.127952	0.230963
C129	C	0.964784	-0.647118	-0.774197
C130	C	1.464784	-0.147118	-0.274197
N131	N	0.925768	-0.702790	-0.742345
N132	N	1.425768	-0.202790	-0.242345
C133	C	0.644612	-0.647114	-0.255550
C134	C	1.144612	-0.147114	0.244450
N135	N	0.676435	-0.702708	-0.216486
N136	N	1.176435	-0.202708	0.283514
H137	H	1.149076	-0.384137	-0.785243
H138	H	1.649076	0.115863	-0.285243
C139	C	1.157781	-1.235908	-0.448835
C140	C	1.657781	-0.735908	0.051165
N141	N	1.157811	-1.326819	-0.448854
N142	N	1.657811	-0.826819	0.051146
H143	H	0.978245	-0.906278	-0.269109
H144	H	1.478245	-0.406278	0.230891
H145	H	0.978267	-0.627860	-0.924627
H146	H	1.478267	-0.127860	-0.424627
