data_functionalizedCrystal
_audit_creation_method	'MofGen! by Chris Wilmer'
_symmetry_space_group_name_H-M	'P1'
_symmetry_Int_Tables_number	1
_symmetry_cell_setting	triclinic
loop_
_symmetry_equiv_pos_as_xyz
  x,y,z
_cell_length_a	14.519709
_cell_length_b	14.971506
_cell_length_c	13.448316
_cell_angle_alpha	89.992937
_cell_angle_beta	89.992453
_cell_angle_gamma	83.651266
loop_
_atom_site_label
_atom_site_type_symbol
_atom_site_fract_x
_atom_site_fract_y
_atom_site_fract_z
O1	O	0.120273	1.187004	-0.082701
O2	O	0.453606	1.520337	0.250632
O3	O	0.786939	1.853670	0.583966
O4	O	0.134645	0.926614	-0.082702
O5	O	0.467979	1.259948	0.250632
O6	O	0.801312	1.593281	0.583965
O7	O	-0.006783	1.063713	-0.082692
O8	O	0.326550	1.397046	0.250641
O9	O	0.659884	1.730380	0.583974
O10	O	0.261701	1.049905	-0.082710
O11	O	0.595034	1.383238	0.250623
O12	O	0.928368	1.716572	0.583956
O13	O	-0.006792	1.063696	0.082691
O14	O	0.326542	1.397029	0.416025
O15	O	0.659875	1.730362	0.749358
O16	O	0.134637	0.926597	0.082682
O17	O	0.467970	1.259930	0.416015
O18	O	0.801303	1.593264	0.749349
O19	O	0.120264	1.186987	0.082683
O20	O	0.453597	1.520320	0.416016
O21	O	0.786931	1.853653	0.749349
Cu22	Cu	0.127450	1.056790	0.097783
Cu23	Cu	0.460783	1.390124	0.431117
Cu24	Cu	0.794116	1.723457	0.764450
Cu25	Cu	0.127460	1.056811	-0.097802
Cu26	Cu	0.460793	1.390144	0.235531
Cu27	Cu	0.794127	1.723477	0.568864
O28	O	0.261692	1.049888	0.082673
O29	O	0.595026	1.383221	0.416007
O30	O	0.928359	1.716555	0.749340
C31	C	0.133995	0.893281	-0.000010
C32	C	0.467328	1.226614	0.333324
C33	C	0.800662	1.559947	0.666657
C34	C	0.132059	0.793984	-0.000010
C35	C	0.465392	1.127317	0.333324
C36	C	0.798725	1.460650	0.666657
C37	C	0.207756	0.355744	-0.000025
C38	C	0.541090	0.689077	0.333308
C39	C	0.874423	1.022410	0.666642
C40	C	0.209568	0.449045	-0.000029
C41	C	0.542902	0.782378	0.333304
C42	C	0.876235	1.115712	0.666637
C43	C	0.126474	0.506218	-0.000020
C44	C	0.459807	0.839551	0.333314
C45	C	0.793140	1.172885	0.666647
C46	C	0.041562	0.470086	-0.000015
C47	C	0.374895	0.803419	0.333318
C48	C	0.708228	1.136752	0.666651
C49	C	0.039750	0.376786	-0.000018
C50	C	0.373084	0.710120	0.333315
C51	C	0.706417	1.043453	0.666649
C52	C	0.045342	0.664551	-0.000007
C53	C	0.378676	0.997884	0.333326
C54	C	0.712009	1.331218	0.666660
C55	C	0.047153	0.757857	-0.000003
C56	C	0.380486	1.091190	0.333331
C57	C	0.713820	1.424524	0.666664
C58	C	0.215160	0.736810	-0.000019
C59	C	0.548493	1.070143	0.333315
C60	C	0.881827	1.403476	0.666648
C61	C	0.213349	0.643510	-0.000021
C62	C	0.546682	0.976843	0.333312
C63	C	0.880016	1.310177	0.666645
C64	C	0.128437	0.607384	-0.000015
C65	C	0.461770	0.940718	0.333318
C66	C	0.795103	1.274051	0.666651
C67	C	-0.041147	1.063061	-0.000000
C68	C	0.292187	1.396394	0.333333
C69	C	0.625520	1.729727	0.666666
C70	C	-0.143527	1.061132	0.000000
C71	C	0.189806	1.394466	0.333334
C72	C	0.523140	1.727799	0.666667
C73	C	-0.518419	1.054033	-0.000026
C74	C	-0.185086	1.387367	0.333308
C75	C	0.148248	1.720700	0.666641
C76	C	-0.414112	1.056005	-0.000018
C77	C	-0.080779	1.389338	0.333315
C78	C	0.252554	1.722671	0.666649
C79	C	-0.330976	1.057583	-0.000012
C80	C	0.002357	1.390916	0.333322
C81	C	0.335690	1.724249	0.666655
C82	C	-0.226663	1.059555	-0.000006
C83	C	0.106670	1.392888	0.333327
C84	C	0.440004	1.726221	0.666661
C85	C	0.296056	1.050540	-0.000021
C86	C	0.629390	1.383873	0.333313
C87	C	0.962723	1.717207	0.666646
C88	C	0.398436	1.052468	-0.000028
C89	C	0.731770	1.385802	0.333305
C90	C	1.065103	1.719135	0.666639
C91	C	0.120914	1.220320	-0.000011
C92	C	0.454248	1.553653	0.333322
C93	C	0.787581	1.886987	0.666655
C94	C	0.122851	1.319617	-0.000018
C95	C	0.456184	1.652951	0.333316
C96	C	0.789517	1.986284	0.666649
N97	N	0.127442	1.056782	0.235348
N98	N	0.460775	1.390116	0.568681
N99	N	0.794108	1.723449	0.902014
N100	N	0.127460	1.056825	-0.235367
N101	N	0.460794	1.390159	0.097967
N102	N	0.794127	1.723492	0.431300
C103	C	0.064843	1.117509	0.287392
C104	C	0.398176	1.450842	0.620725
C105	C	0.731510	1.784175	0.954059
C106	C	0.064842	1.117514	0.391495
C107	C	0.398176	1.450847	0.724829
C108	C	0.731509	1.784181	1.058162
C109	C	0.127445	1.056797	0.443552
C110	C	0.460779	1.390130	0.776886
C111	C	0.794112	1.723464	1.110219
C112	C	0.190047	0.996064	0.391500
C113	C	0.523380	1.329398	0.724834
C114	C	0.856714	1.662731	1.058167
C115	C	0.190043	0.996055	0.287399
C116	C	0.523376	1.329389	0.620732
C117	C	0.856709	1.662722	0.954066
C118	C	0.190053	0.996089	0.608480
C119	C	0.523387	1.329423	0.941814
C120	C	0.856720	1.662756	1.275147
C121	C	0.190059	0.996099	0.712589
C122	C	0.523392	1.329433	1.045922
C123	C	0.856726	1.662766	1.379256
C124	C	0.064853	1.117548	0.712577
C125	C	0.398186	1.450881	1.045910
C126	C	0.731520	1.784215	1.379243
C127	C	0.064848	1.117539	0.608475
C128	C	0.398182	1.450872	0.941809
C129	C	0.731515	1.784206	1.275142
C130	C	0.127452	1.056807	0.556431
C131	C	0.460785	1.390141	0.889764
C132	C	0.794118	1.723474	1.223097
H133	H	-0.026095	0.516644	-0.000013
H134	H	0.307238	0.849977	0.333320
H135	H	0.640571	1.183310	0.666654
F136	F	0.301788	0.582663	-0.000027
F137	F	0.635121	0.915997	0.333307
F138	F	0.968454	1.249330	0.666640
H139	H	0.013869	1.166961	0.433869
H140	H	0.347202	1.500295	0.767203
H141	H	0.680536	1.833628	1.100536
H142	H	0.241029	0.946632	0.566109
H143	H	0.574362	1.279965	0.899443
H144	H	0.907695	1.613299	1.232776
F145	F	-0.041285	0.818704	0.000002
F146	F	0.292048	1.152037	0.333335
F147	F	0.625381	1.485370	0.666669
F148	F	0.256667	0.931419	0.232011
F149	F	0.590000	1.264753	0.565344
F150	F	0.923333	1.598086	0.898678
H151	H	-0.029388	0.347374	-0.000014
H152	H	0.303945	0.680708	0.333319
H153	H	0.637278	1.014041	0.666653
F154	F	-0.001774	1.182165	0.553072
F155	F	0.331559	1.515498	0.886405
F156	F	0.664892	1.848832	1.219739
F157	F	0.256689	0.931474	0.767984
F158	F	0.590022	1.264808	1.101318
F159	F	0.923356	1.598141	1.434651
H160	H	0.278707	0.478454	-0.000045
H161	H	0.612040	0.811787	0.333289
H162	H	0.945374	1.145121	0.666622
H163	H	0.013879	1.166998	0.754958
H164	H	0.347213	1.500331	1.088291
H165	H	0.680546	1.833664	1.421624
H166	H	-0.023802	0.635141	-0.000007
H167	H	0.309531	0.968475	0.333326
H168	H	0.642864	1.301808	0.666660
F169	F	-0.001785	1.182138	0.231999
F170	F	0.331548	1.515471	0.565332
F171	F	0.664882	1.848804	0.898666
H172	H	0.241017	0.946623	0.433891
H173	H	0.574350	1.279956	0.767224
H174	H	0.907683	1.613290	1.100558
H175	H	0.284299	0.766227	-0.000023
H176	H	0.617632	1.099561	0.333310
H177	H	0.950966	1.432894	0.666644
F178	F	0.296199	0.294903	-0.000028
F179	F	0.629532	0.628236	0.333305
F180	F	0.962865	0.961570	0.666639
