data_functionalizedCrystal
_audit_creation_method	'MofGen! by Chris Wilmer'
_symmetry_space_group_name_H-M	'P1'
_symmetry_Int_Tables_number	1
_symmetry_cell_setting	triclinic
loop_
_symmetry_equiv_pos_as_xyz
  x,y,z
_cell_length_a	10.967926
_cell_length_b	11.026607
_cell_length_c	15.186229
_cell_angle_alpha	89.998222
_cell_angle_beta	102.125883
_cell_angle_gamma	96.380754
loop_
_atom_site_label
_atom_site_type_symbol
_atom_site_fract_x
_atom_site_fract_y
_atom_site_fract_z
O1	O	1.693960	0.170510	0.183837
O2	O	2.027294	0.503843	0.517170
O3	O	2.360627	0.837176	0.850504
O4	O	1.334337	0.186834	0.129262
O5	O	1.667671	0.520167	0.462595
O6	O	2.001004	0.853500	0.795928
O7	O	1.484344	0.001771	0.152029
O8	O	1.817677	0.335104	0.485363
O9	O	2.151010	0.668437	0.818696
O10	O	1.543954	0.355573	0.161069
O11	O	1.877287	0.688906	0.494403
O12	O	2.210621	1.022239	0.827736
O13	O	1.484330	0.001768	0.298485
O14	O	1.817664	0.335101	0.631818
O15	O	2.150997	0.668435	0.965151
O16	O	1.334324	0.186831	0.275717
O17	O	1.667657	0.520164	0.609050
O18	O	2.000991	0.853498	0.942384
O19	O	1.693947	0.170507	0.330292
O20	O	2.027280	0.503840	0.663625
O21	O	2.360613	0.837174	0.996959
Zn22	Zn	1.514133	0.178668	0.326257
Zn23	Zn	1.847467	0.512002	0.659591
Zn24	Zn	2.180800	0.845335	0.992924
Zn25	Zn	1.514151	0.178672	0.133296
Zn26	Zn	1.847484	0.512005	0.466630
Zn27	Zn	2.180818	0.845339	0.799963
O28	O	1.543941	0.355570	0.307524
O29	O	1.877274	0.688903	0.640858
O30	O	2.210607	1.022237	0.974191
C31	C	1.287576	0.185645	0.195394
C32	C	1.620909	0.518978	0.528727
C33	C	1.954242	0.852311	0.862061
C34	C	1.148257	0.182092	0.174251
C35	C	1.481590	0.515425	0.507585
C36	C	1.814924	0.848758	0.840918
C37	C	1.086137	0.180506	0.240693
C38	C	1.419470	0.513840	0.574027
C39	C	1.752804	0.847173	0.907360
C40	C	0.942144	0.176834	0.218843
C41	C	1.275477	0.510167	0.552177
C42	C	1.608811	0.843501	0.885510
C43	C	1.473340	-0.043533	0.223587
C44	C	1.806673	0.289800	0.556920
C45	C	2.140007	0.623134	0.890254
C46	C	1.440557	-0.178520	0.218609
C47	C	1.773891	0.154813	0.551942
C48	C	2.107224	0.488147	0.885276
C49	C	1.531076	-0.251572	0.232344
C50	C	1.864409	0.081761	0.565678
C51	C	2.197742	0.415094	0.899011
C52	C	1.497195	-0.391089	0.227200
C53	C	1.830529	-0.057755	0.560533
C54	C	2.163862	0.275578	0.893866
C55	C	1.740709	0.171696	0.264158
C56	C	2.074042	0.505029	0.597491
C57	C	2.407375	0.838362	0.930825
C58	C	1.880027	0.175249	0.285295
C59	C	2.213361	0.508582	0.618628
C60	C	2.546694	0.841915	0.951961
C61	C	1.554944	0.400874	0.235965
C62	C	1.888278	0.734207	0.569298
C63	C	2.221611	1.067540	0.902632
C64	C	1.587727	0.535860	0.240937
C65	C	1.921060	0.869194	0.574271
C66	C	2.254394	1.202527	0.907604
N67	N	1.514130	0.178665	0.457950
N68	N	1.847464	0.511999	0.791283
N69	N	2.180797	0.845332	1.124616
N70	N	1.514162	0.178666	0.001605
N71	N	1.847495	0.511999	0.334939
N72	N	2.180828	0.845332	0.668272
C73	C	1.580588	0.096747	0.693759
C74	C	1.913921	0.430081	1.027093
C75	C	2.247255	0.763414	1.360426
C76	C	1.580591	0.096745	0.785950
C77	C	1.913925	0.430078	1.119283
C78	C	2.247258	0.763411	1.452616
C79	C	1.447696	0.260587	0.765788
C80	C	1.781029	0.593921	1.099121
C81	C	2.114362	0.927254	1.432455
C82	C	1.447686	0.260583	0.673598
C83	C	1.781019	0.593917	1.006932
C84	C	2.114353	0.927250	1.340265
C85	C	1.514139	0.178665	0.637588
C86	C	1.847473	0.511998	0.970921
C87	C	2.180806	0.845332	1.304254
C88	C	1.514153	0.178666	0.821967
C89	C	1.847486	0.511999	1.155301
C90	C	2.180819	0.845333	1.488634
C91	C	1.514156	0.178664	0.921924
C92	C	1.847489	0.511997	1.255257
C93	C	2.180822	0.845330	1.588591
C94	C	1.514135	0.178665	0.537625
C95	C	1.847468	0.511999	0.870958
C96	C	2.180801	0.845332	1.204291
H97	H	1.094837	0.180727	0.101192
H98	H	1.428171	0.514061	0.434525
H99	H	1.761504	0.847394	0.767858
Br100	Br	1.175159	0.182767	0.362469
Br101	Br	1.508492	0.516101	0.695803
Br102	Br	1.841825	0.849434	1.029136
Br103	Br	1.758713	-0.396252	0.266878
Br104	Br	2.092046	-0.062919	0.600211
Br105	Br	2.425379	0.270414	0.933545
H106	H	0.888729	0.175470	0.145778
H107	H	1.222062	0.508803	0.479112
H108	H	1.555396	0.842136	0.812445
H109	H	1.393569	0.327291	0.627859
H110	H	1.726903	0.660624	0.961192
H111	H	2.060236	0.993958	1.294526
Br112	Br	1.269580	-0.246416	0.192649
Br113	Br	1.602913	0.086917	0.525983
Br114	Br	1.936246	0.420250	0.859316
H115	H	1.633654	-0.210828	0.247917
H116	H	1.966987	0.122506	0.581250
H117	H	2.300321	0.455839	0.914584
H118	H	0.933440	0.176606	0.358360
H119	H	1.266773	0.509939	0.691693
H120	H	1.600106	0.843272	1.025027
H121	H	1.634697	0.030043	0.664442
H122	H	1.968030	0.363376	0.997775
H123	H	2.301363	0.696709	1.331109
H124	H	1.394610	-0.431828	0.211626
H125	H	1.727944	-0.098495	0.544959
H126	H	2.061277	0.234839	0.878293
H127	H	1.634698	0.030039	0.831683
H128	H	1.968031	0.363372	1.165016
H129	H	2.301365	0.696705	1.498349
Br130	Br	1.357515	0.371761	0.814664
Br131	Br	1.690848	0.705094	1.147997
Br132	Br	2.024182	1.038427	1.481330
