data_functionalizedCrystal
_audit_creation_method	'MofGen! by Chris Wilmer'
_symmetry_space_group_name_H-M	'P1'
_symmetry_Int_Tables_number	1
_symmetry_cell_setting	triclinic
loop_
_symmetry_equiv_pos_as_xyz
  x,y,z
_cell_length_a	6.817900
_cell_length_b	7.190334
_cell_length_c	12.908942
_cell_angle_alpha	88.324518
_cell_angle_beta	100.860556
_cell_angle_gamma	60.611776
loop_
_atom_site_label
_atom_site_type_symbol
_atom_site_fract_x
_atom_site_fract_y
_atom_site_fract_z
V1	V	-4.209283	0.663828	-0.144174
O2	O	-4.207551	0.652412	0.008658
O3	O	-4.145868	0.658113	-0.287537
O4	O	-4.246730	0.953882	-0.141197
O5	O	-4.105990	0.354596	-0.138694
V6	V	-4.683733	0.626984	-0.125983
O7	O	-4.490444	0.744648	-0.184077
O8	O	-4.852770	0.546164	-0.086080
O9	O	-4.523942	0.632698	0.017380
O10	O	-4.802863	0.638399	-0.278816
O11	O	-4.904423	0.936215	-0.131463
O12	O	-4.423080	0.336930	-0.128960
C13	C	-3.984438	0.647338	-0.322509
C14	C	-4.014447	0.644599	-0.439706
C15	C	-4.113109	1.024617	-0.135833
C16	C	-4.227010	1.266187	-0.134319
C17	C	-4.440390	0.660695	-0.670618
C18	C	-4.468596	0.658122	-0.780734
C19	C	-4.099075	0.636897	-0.770058
C20	C	-4.070869	0.639469	-0.659942
C21	C	-4.241533	0.651366	-0.610225
C22	C	-4.213317	0.653923	-0.500106
C23	C	-3.843806	0.632713	-0.489433
C24	C	-3.872012	0.630140	-0.599549
C25	C	-4.348712	0.643468	0.052347
C26	C	-4.297945	0.646220	0.169542
H27	H	-4.352275	0.663594	-0.459628
O28	O	-4.661516	0.666869	-0.839487
C29	C	-4.816117	0.490674	-0.956106
C30	C	-4.597435	0.480520	-0.889634
H31	H	-4.764389	0.340009	-0.996649
H32	H	-4.912641	0.639758	-1.019172
H33	H	-4.933244	0.499718	-0.901636
H34	H	-4.480135	0.471395	-0.944018
H35	H	-4.501091	0.331459	-0.826557
O36	O	-3.650572	0.623362	-0.430635
C37	C	-3.312486	0.428307	-0.286332
C38	C	-3.531277	0.438681	-0.352819
H39	H	-3.215948	0.278981	-0.223417
H40	H	-3.363985	0.578730	-0.245601
H41	H	-3.195459	0.419463	-0.340817
H42	H	-3.648402	0.447454	-0.298407
H43	H	-3.479611	0.288260	-0.393562
H44	H	-4.579336	0.670349	-0.630136
H45	H	-3.960148	0.627231	-0.810558
H46	H	-3.733073	0.620462	-0.640044
