data_functionalizedCrystal
_audit_creation_method	'MofGen! by Chris Wilmer'
_symmetry_space_group_name_H-M	'P1'
_symmetry_Int_Tables_number	1
_symmetry_cell_setting	triclinic
loop_
_symmetry_equiv_pos_as_xyz
  x,y,z
_cell_length_a	12.811457
_cell_length_b	12.811415
_cell_length_c	11.295483
_cell_angle_alpha	88.701575
_cell_angle_beta	91.289320
_cell_angle_gamma	84.559489
loop_
_atom_site_label
_atom_site_type_symbol
_atom_site_fract_x
_atom_site_fract_y
_atom_site_fract_z
O1	O	1.390744	0.143897	0.035628
O2	O	1.087656	0.156846	0.001497
O3	O	1.245672	-0.001175	0.035632
O4	O	1.232728	0.301917	0.001493
O5	O	1.231793	0.012683	0.230687
O6	O	1.073777	0.170704	0.196552
O7	O	1.376864	0.157754	0.230683
Cu8	Cu	1.224054	0.165494	0.231427
Cu9	Cu	1.240467	0.149106	0.000752
O10	O	1.218849	0.315775	0.196548
C11	C	1.041899	0.162625	0.094956
C12	C	0.926232	0.159185	0.082836
C13	C	1.237582	-0.033065	0.137226
C14	C	1.234141	-0.148733	0.149342
C15	C	0.693751	0.167810	0.272735
C16	C	0.585072	0.164578	0.261353
C17	C	0.600194	0.149481	0.048691
C18	C	0.708873	0.152713	0.060073
C19	C	0.755647	0.161879	0.172099
C20	C	0.864328	0.165119	0.183479
C21	C	0.879448	0.150014	-0.029181
C22	C	0.770769	0.146782	-0.040563
C23	C	1.242789	-0.381185	-0.040567
C24	C	1.239556	-0.489866	-0.029189
C25	C	1.224435	-0.474778	0.183474
C26	C	1.227668	-0.366097	0.172096
C27	C	1.236846	-0.319305	0.060072
C28	C	1.240087	-0.210622	0.048696
C29	C	1.224958	-0.195536	0.261357
C30	C	1.221725	-0.304217	0.272735
C31	C	1.422622	0.151976	0.137221
C32	C	1.538289	0.155415	0.149334
C33	C	1.226939	0.347665	0.094951
C34	C	1.230381	0.463333	0.082828
N35	N	1.212517	0.177020	0.393673
N36	N	1.252012	0.137572	-0.161491
C37	C	1.335061	0.054542	0.669427
C38	C	1.326350	0.063260	0.792208
C39	C	1.186379	0.203168	0.762019
C40	C	1.195090	0.194450	0.639237
C41	C	1.269434	0.120136	0.592947
C42	C	1.278150	0.111424	0.470163
C43	C	1.138175	0.251326	0.439976
C44	C	1.129464	0.260044	0.562757
H45	H	0.902409	0.172589	0.274695
H46	H	1.220124	-0.145141	0.343305
N47	N	1.049282	0.340188	0.612699
H48	H	1.086029	0.390423	0.662956
H49	H	1.009051	0.380345	0.545553
H50	H	0.731834	0.175288	0.363949
N51	N	1.358311	0.031253	0.420234
H52	H	1.353870	0.035677	0.330847
H53	H	1.430838	0.045713	0.448268
H54	H	0.534679	0.169413	0.343301
H55	H	0.732671	0.139314	-0.131771
N56	N	0.946198	0.143618	-0.137742
H57	H	0.983952	0.209060	-0.145545
H58	H	0.999240	0.080150	-0.129915
H59	H	0.562093	0.142000	-0.042513
N60	N	1.214556	-0.525259	0.304293
H61	H	1.213416	-0.603498	0.296225
H62	H	1.276268	-0.510638	0.356499
N63	N	1.067387	0.322069	0.357473
H64	H	0.991795	0.310664	0.372251
H65	H	1.078840	0.397642	0.372264
H66	H	1.395602	-0.005960	0.631737
H67	H	1.247563	-0.172526	-0.042520
N68	N	1.397141	-0.007476	0.874700
H69	H	1.385783	-0.083081	0.859949
H70	H	1.472698	0.004026	0.859869
N71	N	1.252704	-0.330709	-0.161382
H72	H	1.255984	-0.386403	-0.223411
H73	H	1.189941	-0.278272	-0.178525
N74	N	1.106187	0.283303	0.811957
H75	H	1.110626	0.278864	0.901344
H76	H	1.120621	0.355836	0.783902
N77	N	1.246007	-0.556616	-0.137729
H78	H	1.252327	-0.510479	-0.210415
H79	H	1.309444	-0.609689	-0.129821
H80	H	1.214248	-0.342330	0.363941
