data_functionalizedCrystal
_audit_creation_method	'MofGen! by Chris Wilmer'
_symmetry_space_group_name_H-M	'P1'
_symmetry_Int_Tables_number	1
_symmetry_cell_setting	triclinic
loop_
_symmetry_equiv_pos_as_xyz
  x,y,z
_cell_length_a	10.723023
_cell_length_b	23.532407
_cell_length_c	9.198806
_cell_angle_alpha	89.992171
_cell_angle_beta	89.996513
_cell_angle_gamma	83.658113
loop_
_atom_site_label
_atom_site_type_symbol
_atom_site_fract_x
_atom_site_fract_y
_atom_site_fract_z
O1	O	1.654700	0.079869	-0.120894
O2	O	1.291309	0.087514	-0.120902
O3	O	1.483963	0.000831	-0.120871
O4	O	1.462047	0.166552	-0.120925
O5	O	1.483948	0.000831	0.120914
O6	O	1.291294	0.087514	0.120883
O7	O	1.654685	0.079868	0.120891
Cu8	Cu	1.472988	0.083691	0.142964
Cu9	Cu	1.473006	0.083692	-0.142975
O10	O	1.462032	0.166552	0.120860
C11	C	1.244820	0.086958	-0.000010
C12	C	1.106317	0.085293	-0.000012
C13	C	1.044560	0.084551	0.125239
C14	C	0.901411	0.082831	0.125240
C15	C	1.483397	-0.020389	0.000025
C16	C	1.481719	-0.083617	0.000036
C17	C	1.585203	-0.482049	-0.000041
C18	C	1.583644	-0.541459	-0.000052
O19	O	1.679575	-0.577581	-0.000104
N20	N	1.469112	-0.564828	-0.000054
C21	C	1.356131	-0.528783	-0.000059
O22	O	1.258569	-0.554116	-0.000062
C23	C	1.357691	-0.469374	-0.000058
C24	C	1.472231	-0.446009	-0.000042
C25	C	1.699734	-0.458682	-0.000027
C26	C	1.701292	-0.399276	-0.000013
C27	C	1.588320	-0.363236	-0.000014
C28	C	1.473789	-0.386602	-0.000028
C29	C	1.244711	-0.433331	-0.000074
C30	C	1.246281	-0.373918	-0.000074
C31	C	1.360821	-0.350552	-0.000058
C32	C	1.362375	-0.291156	-0.000015
N33	N	1.476907	-0.267787	-0.000014
C34	C	1.589880	-0.303827	-0.000013
C35	C	1.352864	-0.653547	-0.000063
C36	C	1.351302	-0.712955	-0.000053
C37	C	1.578816	-0.725627	-0.000049
C38	C	1.580376	-0.666217	-0.000049
C39	C	1.467396	-0.630178	-0.000061
C40	C	1.593143	-0.179069	0.000017
C41	C	1.594692	-0.119657	0.000037
C42	C	1.367178	-0.106991	0.000025
C43	C	1.365629	-0.166398	0.000013
C44	C	1.478622	-0.202436	0.000004
O45	O	1.266495	-0.254999	0.000030
O46	O	1.687425	-0.278486	-0.000029
C47	C	1.701175	0.080425	-0.000004
C48	C	1.839677	0.082089	-0.000012
C49	C	1.462597	0.187772	-0.000039
C50	C	1.464275	0.251000	-0.000060
N51	N	1.472985	0.083691	0.344078
N52	N	1.473020	0.083688	-0.344089
C53	C	1.553879	0.047134	0.416288
C54	C	1.553899	0.047132	0.583700
H55	H	0.892778	0.082731	-0.107249
H56	H	1.275199	-0.077636	0.000030
H57	H	1.623118	0.015836	0.354173
H58	H	0.848301	0.082196	0.232472
H59	H	1.053212	0.084654	-0.107243
H60	H	1.260856	-0.624206	-0.000061
H61	H	1.623161	0.015837	0.645797
Br62	Br	1.357586	0.135861	0.552429
Br63	Br	1.750149	-0.087950	0.000060
Br64	Br	1.746492	-0.227969	0.000003
H65	H	1.097667	0.085186	0.232470
H66	H	1.794562	-0.380258	-0.000006
H67	H	1.791735	-0.488021	-0.000032
H68	H	1.673645	-0.647198	-0.000037
H69	H	1.670804	-0.754981	-0.000054
H70	H	1.403737	0.114985	0.406195
Br71	Br	1.089255	-0.465026	-0.000101
Br72	Br	1.092942	-0.325010	-0.000098
Br73	Br	1.195849	-0.744658	-0.000040
Br74	Br	1.210182	-0.198110	0.000025
