data_functionalizedCrystal
_audit_creation_method	'MofGen! by Chris Wilmer'
_symmetry_space_group_name_H-M	'P1'
_symmetry_Int_Tables_number	1
_symmetry_cell_setting	triclinic
loop_
_symmetry_equiv_pos_as_xyz
  x,y,z
_cell_length_a	23.096457
_cell_length_b	23.096457
_cell_length_c	14.560438
_cell_angle_alpha	59.999518
_cell_angle_beta	89.997678
_cell_angle_gamma	59.999106
loop_
_atom_site_label
_atom_site_type_symbol
_atom_site_fract_x
_atom_site_fract_y
_atom_site_fract_z
Zr1	Zr	0.557792	0.633726	-0.120529
O2	O	0.465344	0.754517	-0.267172
O3	O	0.586130	0.512937	-0.075578
O4	O	0.586133	0.633727	-0.267179
O5	O	0.465342	0.633726	0.075570
O6	O	0.681415	0.633725	-0.267182
O7	O	0.465341	0.633728	-0.075571
O8	O	0.681410	0.417654	0.075558
O9	O	0.465347	0.849796	-0.267170
O10	O	0.669326	0.562617	-0.056406
O11	O	0.598218	0.562617	0.056391
O12	O	0.598222	0.704831	-0.169195
O13	O	0.527114	0.704832	-0.056398
Zr14	Zr	0.709756	0.633720	0.120518
Zr15	Zr	0.709756	0.633722	-0.120535
Zr16	Zr	0.557792	0.633723	0.120523
Zr17	Zr	0.557796	0.785685	-0.120526
Zr18	Zr	0.709752	0.481760	0.120514
O19	O	0.681418	0.754508	0.075566
O20	O	0.681418	0.754512	-0.267179
O21	O	0.465345	0.754513	0.075573
O22	O	0.802204	0.512928	0.267160
O23	O	0.802203	0.512932	-0.075585
O24	O	0.586130	0.512933	0.267168
O25	O	0.802206	0.633720	-0.075582
O26	O	0.681415	0.633719	0.267167
O27	O	0.586133	0.633721	0.267171
O28	O	0.802207	0.633718	0.075559
O29	O	0.586138	0.849794	-0.267174
O30	O	0.681410	0.417652	0.267162
O31	O	0.802201	0.417649	0.267158
O32	O	0.802201	0.417651	0.075554
O33	O	0.465347	0.849794	-0.075565
O34	O	0.586138	0.849791	-0.075569
O35	O	0.669326	0.562614	0.169183
O36	O	0.740434	0.562614	0.056386
O37	O	0.669330	0.704828	-0.056403
O38	O	0.598222	0.704829	0.056394
C39	C	0.633769	0.443645	-0.000011
C40	C	0.633768	0.379134	-0.000012
C41	C	0.581294	-0.028895	-0.083269
C42	C	0.581288	0.031724	-0.083268
C43	C	0.633779	0.009544	-0.000007
C44	C	0.686270	-0.073264	0.083277
C45	C	0.686270	-0.133880	0.083281
N46	N	0.696028	0.065644	0.025202
N47	N	0.696024	0.123230	0.025191
C48	C	0.633780	0.192174	-0.000011
N49	N	0.571535	0.201364	-0.025224
N50	N	0.571539	0.143774	-0.025219
C51	C	0.633784	0.075266	-0.000001
C52	C	0.581283	0.340701	-0.083284
C53	C	0.581277	0.401319	-0.083276
C54	C	0.686264	0.296328	0.083266
C55	C	0.686265	0.235713	0.083262
C56	C	0.633775	0.257905	-0.000019
C57	C	0.443690	0.633727	0.000001
C58	C	0.379177	0.633729	0.000003
C59	C	0.348874	0.633736	-0.083267
C60	C	0.288262	0.633728	-0.083267
C61	C	0.257947	0.633730	-0.000005
C62	C	0.288259	0.633719	0.083279
C63	C	0.348874	0.633718	0.083283
N64	N	0.139596	0.680086	0.025203
N65	N	0.082013	0.680088	0.025192
C66	C	0.075317	0.633731	-0.000011
N67	N	0.128375	0.587381	-0.025225
N68	N	0.185961	0.587382	-0.025220
C69	C	0.192220	0.633731	-0.000000
C70	C	-0.020708	0.633728	-0.083286
C71	C	-0.081319	0.633716	-0.083278
C72	C	-0.081324	0.633715	0.083264
C73	C	-0.020711	0.633719	0.083261
C74	C	0.009592	0.633730	-0.000020
C75	C	0.823858	0.633718	-0.000012
C76	C	0.888371	0.633717	-0.000014
C77	C	0.633774	0.633726	-0.301525
C78	C	0.633774	0.633727	-0.403858
C79	C	0.633779	0.823801	-0.000001
C80	C	0.633780	0.888312	0.000000
C81	C	0.686265	0.633727	-0.451936
C82	C	0.686267	0.633719	-0.548082
C83	C	0.581280	0.633716	-0.548067
C84	C	0.581281	0.633718	-0.451918
C85	C	0.633774	0.633719	0.301514
C86	C	0.633774	0.633718	0.403847
C87	C	0.823853	0.443640	-0.000017
C88	C	0.888365	0.379128	-0.000021
C89	C	0.633769	0.443641	0.301509
C90	C	0.633768	0.379129	0.403841
C91	C	0.823854	0.443637	0.301503
C92	C	0.888365	0.379123	0.403832
C93	C	0.443694	0.823809	-0.301514
C94	C	0.379183	0.888322	-0.403844
C95	C	0.443695	0.823805	0.000005
C96	C	0.379183	0.888318	0.000009
C97	C	0.633778	0.823804	-0.301521
C98	C	0.633780	0.888316	-0.403852
C99	C	0.881542	0.348834	-0.058909
C100	C	0.942151	0.288226	-0.058935
C101	C	1.009583	0.257909	-0.000065
C102	C	1.016404	0.288209	0.058825
C103	C	0.955795	0.348820	0.058843
C104	C	0.670885	0.348832	0.510783
C105	C	0.670881	0.288225	0.606943
C106	C	0.633763	0.257912	0.596159
C107	C	0.596642	0.288215	0.489205
C108	C	0.596642	0.348825	0.393047
C109	C	0.955784	0.348827	0.393008
C110	C	1.016405	0.288218	0.489148
C111	C	1.009605	0.257903	0.596111
C112	C	0.942179	0.288205	0.606933
C113	C	0.881560	0.348817	0.510794
C114	C	0.311764	0.918626	-0.393020
C115	C	0.251143	0.979253	-0.489160
C116	C	0.257942	1.009572	-0.596123
C117	C	0.325369	0.979266	-0.606944
C118	C	0.385988	0.918643	-0.510806
C119	C	0.386006	0.918618	0.058887
C120	C	0.325397	0.979243	0.058887
C121	C	0.257965	1.009561	0.000014
C122	C	0.251144	0.979258	-0.058872
C123	C	0.311753	0.918639	-0.058877
C124	C	0.670905	0.918610	-0.393032
C125	C	0.670920	0.979218	-0.489174
C126	C	0.633806	1.009535	-0.596135
C127	C	0.596680	0.979234	-0.606954
C128	C	0.596669	0.918624	-0.510813
H129	H	0.729007	-0.091319	0.151071
Br130	Br	0.721279	0.877480	-0.247882
Br131	Br	0.302516	0.877490	-0.247868
H132	H	0.538542	0.358771	-0.151094
H133	H	0.729012	-0.201298	0.151091
H134	H	0.701112	0.263560	0.694020
H135	H	0.208620	1.058921	0.000027
H136	H	1.071314	0.263517	0.106754
Br137	Br	0.510054	0.001224	-0.196284
Br138	Br	0.159625	1.020412	-0.138762
H139	H	0.330897	1.003959	-0.694045
Br140	Br	0.510043	0.633709	-0.386654
Br141	Br	0.790036	0.389966	-0.138817
H142	H	0.263574	0.633718	0.151074
Br143	Br	0.757500	0.123343	0.196275
Br144	Br	0.546308	1.020394	-0.752125
Br145	Br	0.757506	0.633737	-0.386714
H146	H	0.936583	0.263563	-0.106890
Br147	Br	1.091883	0.175643	0.726576
Br148	Br	1.091831	0.175651	-0.000103
H149	H	0.538541	0.633710	-0.587208
H150	H	0.566419	0.373485	0.305973
H151	H	0.196247	1.003919	-0.480326
H152	H	0.373548	0.633712	0.151093
H153	H	0.633769	0.208559	0.674466
Br154	Br	0.390002	0.633746	-0.196284
H155	H	0.330964	1.003905	0.106843
Br156	Br	0.302481	0.877521	-0.138786
H157	H	0.701151	1.003882	-0.480343
Br158	Br	0.633827	1.091794	-0.726602
H159	H	-0.105989	0.633716	-0.151084
Br160	Br	0.546272	0.247066	0.474588
H161	H	0.263585	0.633734	-0.151078
Br162	Br	0.510032	0.513689	-0.196283
H163	H	0.961360	0.373478	0.106804
H164	H	0.003967	0.633734	-0.151095
Br165	Br	0.510053	0.144101	-0.196285
Br166	Br	0.757498	0.266218	0.196274
Br167	Br	0.546274	0.877524	-0.525518
Br168	Br	0.932963	0.247054	0.752106
H169	H	1.071301	0.263552	0.480316
Br170	Br	0.721269	0.389954	0.525450
H171	H	0.961334	0.373501	0.305922
Br172	Br	0.790064	0.389923	0.525504
H173	H	0.208576	1.058934	-0.674396
Br174	Br	0.477484	0.877520	-0.525516
Br175	Br	0.477512	0.877487	0.138792
H176	H	-0.106004	0.633712	0.151061
Br177	Br	0.020418	0.633713	0.196272
Br178	Br	0.757512	0.633713	-0.613324
