data_functionalizedCrystal
_audit_creation_method	'MofGen! by Chris Wilmer'
_symmetry_space_group_name_H-M	'P1'
_symmetry_Int_Tables_number	1
_symmetry_cell_setting	triclinic
loop_
_symmetry_equiv_pos_as_xyz
  x,y,z
_cell_length_a	14.519709
_cell_length_b	10.489741
_cell_length_c	12.996460
_cell_angle_alpha	89.994152
_cell_angle_beta	90.000034
_cell_angle_gamma	84.109659
loop_
_atom_site_label
_atom_site_type_symbol
_atom_site_fract_x
_atom_site_fract_y
_atom_site_fract_z
O1	O	1.224780	0.167204	-0.085432
O2	O	1.724780	0.667204	0.414568
O3	O	0.956410	0.186894	-0.085464
O4	O	1.456410	0.686894	0.414536
O5	O	1.096702	-0.008613	-0.085441
O6	O	1.596702	0.491387	0.414559
O7	O	1.084488	0.362710	-0.085455
O8	O	1.584488	0.862710	0.414545
O9	O	1.096687	-0.008624	0.085693
O10	O	1.596687	0.491376	0.585693
O11	O	0.956395	0.186883	0.085670
O12	O	1.456395	0.686883	0.585670
O13	O	1.224765	0.167193	0.085702
O14	O	1.724765	0.667193	0.585702
Cu15	Cu	1.090579	0.177037	0.101312
Cu16	Cu	1.590579	0.677037	0.601312
Cu17	Cu	1.090596	0.177050	-0.101074
Cu18	Cu	1.590596	0.677050	0.398926
O19	O	1.084474	0.362699	0.085679
O20	O	1.584474	0.862699	0.585679
C21	C	0.922038	0.185971	0.000099
C22	C	1.422038	0.685971	0.500099
C23	C	0.819642	0.183221	0.000088
C24	C	1.319642	0.683221	0.500088
C25	C	0.444691	0.173098	0.000135
C26	C	0.944691	0.673098	0.500135
C27	C	0.549014	0.175909	0.000121
C28	C	1.049014	0.675909	0.500121
C29	C	0.632163	0.178159	0.000110
C30	C	1.132163	0.678159	0.500110
C31	C	0.736493	0.180971	0.000099
C32	C	1.236493	0.680971	0.500099
C33	C	1.095772	-0.056140	0.000125
C34	C	1.595772	0.443860	0.500125
C35	C	1.093012	-0.197741	0.000123
C36	C	1.593012	0.302259	0.500123
C37	C	1.003749	-0.264951	0.000105
C38	C	1.503749	0.235049	0.500105
C39	C	1.045909	-0.357518	0.084488
C40	C	1.545909	0.142482	0.584488
C41	C	1.045944	-0.357482	-0.084237
C42	C	1.545944	0.142518	0.415763
C43	C	1.135209	-0.288443	0.084575
C44	C	1.635209	0.211557	0.584575
C45	C	1.135232	-0.288398	-0.084225
C46	C	1.635232	0.211602	0.415775
C47	C	1.177457	-0.380938	0.000178
C48	C	1.677457	0.119062	0.500178
C49	C	1.259137	0.168116	0.000136
C50	C	1.759137	0.668116	0.500136
C51	C	1.361533	0.170866	0.000142
C52	C	1.861533	0.670866	0.500142
C53	C	1.085403	0.410227	0.000111
C54	C	1.585403	0.910227	0.500111
C55	C	1.088163	0.551828	0.000106
C56	C	1.588163	1.051828	0.500106
N57	N	1.090573	0.177027	0.243659
N58	N	1.590573	0.677027	0.743659
N59	N	1.090609	0.177049	-0.243421
N60	N	1.590609	0.677049	0.256579
C61	C	1.090595	0.177051	0.663473
C62	C	1.590595	0.677051	1.163473
C63	C	1.090586	0.177049	0.546668
C64	C	1.590586	0.677049	1.046668
C65	C	1.090585	0.177040	0.453570
C66	C	1.590585	0.677040	0.953570
C67	C	1.090575	0.177036	0.336757
C68	C	1.590575	0.677036	0.836757
H69	H	0.930357	-0.214534	0.000181
H70	H	1.430357	0.285466	0.500181
H71	H	1.172939	-0.258009	0.155995
H72	H	1.672939	0.241991	0.655995
O73	O	1.001007	-0.394140	-0.169376
O74	O	1.501007	0.105860	0.330624
C75	C	1.061567	-0.478851	-0.228245
C76	C	1.561567	0.021149	0.271755
H77	H	1.118870	-0.525757	-0.176669
H78	H	1.618870	-0.025757	0.323331
H79	H	1.093390	-0.423355	-0.292261
H80	H	1.593390	0.076645	0.207739
C81	C	0.936946	-0.525380	-0.339091
C82	C	1.436946	-0.025380	0.160909
C83	C	1.007322	-0.582999	-0.275743
C84	C	1.507322	-0.082999	0.224257
H85	H	0.903485	-0.589621	-0.368394
H86	H	1.403485	-0.089621	0.131606
H87	H	0.896145	-0.468306	-0.299433
H88	H	1.396145	0.031694	0.200567
H89	H	0.963475	-0.479135	-0.392429
H90	H	1.463475	0.020865	0.107571
H91	H	0.980791	-0.629230	-0.222399
H92	H	1.480791	-0.129230	0.277601
H93	H	1.048117	-0.640084	-0.315393
H94	H	1.548117	-0.140084	0.184607
O95	O	1.000700	-0.393974	0.169509
O96	O	1.500700	0.106026	0.669509
C97	C	0.909148	-0.334316	0.169215
C98	C	1.409148	0.165684	0.669215
H99	H	0.887935	-0.306649	0.087102
H100	H	1.387935	0.193351	0.587102
H101	H	0.904905	-0.244620	0.219223
H102	H	1.404905	0.255380	0.719223
C103	C	0.869587	-0.461666	0.313116
C104	C	1.369587	0.038334	0.813116
C105	C	0.843529	-0.427696	0.212262
C106	C	1.343529	0.072304	0.712262
H107	H	0.829110	-0.519263	0.339674
H108	H	1.329110	-0.019263	0.839674
H109	H	0.931267	-0.501856	0.313317
H110	H	1.431267	-0.001856	0.813317
H111	H	0.866050	-0.386910	0.354777
H112	H	1.366050	0.113090	0.854777
H113	H	0.847078	-0.502448	0.170601
H114	H	1.347078	-0.002448	0.670601
H115	H	0.781847	-0.387520	0.212055
H116	H	1.281847	0.112480	0.712055
H117	H	1.250914	-0.431128	0.000234
H118	H	1.750914	0.068872	0.500234
H119	H	1.172975	-0.257742	-0.155560
H120	H	1.672975	0.242258	0.344440
