data_functionalizedCrystal
_audit_creation_method	'MofGen! by Chris Wilmer'
_symmetry_space_group_name_H-M	'P1'
_symmetry_Int_Tables_number	1
_symmetry_cell_setting	triclinic
loop_
_symmetry_equiv_pos_as_xyz
  x,y,z
_cell_length_a	6.394989
_cell_length_b	16.109302
_cell_length_c	14.586319
_cell_angle_alpha	89.994552
_cell_angle_beta	89.999285
_cell_angle_gamma	84.979746
loop_
_atom_site_label
_atom_site_type_symbol
_atom_site_fract_x
_atom_site_fract_y
_atom_site_fract_z
O1	O	0.268487	1.105973	-0.076275
O2	O	0.768487	1.605973	0.423725
O3	O	0.301898	0.864264	-0.076268
O4	O	0.801898	1.364264	0.423732
O5	O	-0.018874	0.988549	-0.076272
O6	O	0.481126	1.488549	0.423728
O7	O	0.589259	0.981688	-0.076270
O8	O	1.089259	1.481688	0.423730
O9	O	-0.018879	0.988540	0.076208
O10	O	0.481121	1.488540	0.576208
O11	O	0.301893	0.864255	0.076213
O12	O	0.801893	1.364255	0.576213
O13	O	0.268483	1.105964	0.076205
O14	O	0.768483	1.605964	0.576205
Cu15	Cu	0.285187	0.985109	0.090132
Cu16	Cu	0.785187	1.485109	0.590132
Cu17	Cu	0.285193	0.985119	-0.090194
Cu18	Cu	0.785193	1.485119	0.409806
O19	O	0.589254	0.981679	0.076210
O20	O	1.089254	1.481679	0.576210
C21	C	0.300542	0.833271	-0.000026
C22	C	0.800542	1.333271	0.499974
C23	C	0.296483	0.740932	-0.000023
C24	C	0.796483	1.240932	0.499977
C25	C	0.287097	0.528487	0.083085
C26	C	0.787097	1.028487	0.583085
C27	C	0.283261	0.441727	0.083082
C28	C	0.783261	0.941727	0.583082
C29	C	0.283277	0.441747	-0.083161
C30	C	0.783277	0.941747	0.416839
C31	C	0.287098	0.528507	-0.083157
C32	C	0.787098	1.028507	0.416843
C33	C	0.289018	0.571874	-0.000031
C34	C	0.789018	1.071874	0.499969
C35	C	0.281362	0.398354	-0.000039
C36	C	0.781362	0.898354	0.499961
C37	C	0.277203	0.304284	-0.000043
C38	C	0.777203	0.804284	0.499957
C39	C	0.293173	0.665950	-0.000027
C40	C	0.793173	1.165950	0.499973
C41	C	0.667077	0.983040	-0.000034
C42	C	1.167077	1.483040	0.499966
C43	C	0.903309	0.987186	-0.000037
C44	C	1.403309	1.487186	0.499963
C45	C	0.269839	1.136957	-0.000038
C46	C	0.769839	1.636957	0.499962
C47	C	0.273897	1.229296	-0.000047
C48	C	0.773897	1.729296	0.499953
N49	N	0.285182	0.985107	0.216964
N50	N	0.785182	1.485107	0.716964
N51	N	0.285182	0.985127	-0.217026
N52	N	0.785182	1.485127	0.282974
C53	C	0.143192	1.040160	0.451968
C54	C	0.643192	1.540160	0.951968
C55	C	0.143187	1.040162	0.547949
C56	C	0.643187	1.540162	1.047949
C57	C	0.427179	0.930069	0.547963
C58	C	0.927179	1.430069	1.047963
C59	C	0.427172	0.930063	0.451984
C60	C	0.927172	1.430063	0.951984
C61	C	0.285181	0.985113	0.403989
C62	C	0.785181	1.485113	0.903989
C63	C	0.285183	0.985121	0.595949
C64	C	0.785183	1.485121	1.095949
C65	C	0.285178	0.985123	0.700016
C66	C	0.785178	1.485123	1.200016
C67	C	0.285182	0.985110	0.299915
C68	C	0.785182	1.485110	0.799915
H69	H	0.281697	0.406405	0.150763
H70	H	0.781697	0.906405	0.650763
F71	F	-0.007941	1.098749	0.599009
F72	F	0.492059	1.598749	1.099009
H73	H	0.288661	0.563795	0.150771
H74	H	0.788661	1.063795	0.650771
F75	F	0.281192	0.395587	-0.171625
F76	F	0.781192	0.895587	0.328375
F77	F	-0.007933	1.098747	0.400892
F78	F	0.492067	1.598747	0.900892
H79	H	0.288657	0.563833	-0.150845
H80	H	0.788657	1.063833	0.349155
H81	H	0.542787	0.885249	0.587050
H82	H	1.042787	1.385249	1.087050
H83	H	0.542798	0.885233	0.412916
H84	H	1.042798	1.385233	0.912916
