data_functionalizedCrystal
_audit_creation_method	'MofGen! by Chris Wilmer'
_symmetry_space_group_name_H-M	'P1'
_symmetry_Int_Tables_number	1
_symmetry_cell_setting	triclinic
loop_
_symmetry_equiv_pos_as_xyz
  x,y,z
_cell_length_a	15.538191
_cell_length_b	17.699104
_cell_length_c	16.176319
_cell_angle_alpha	89.991696
_cell_angle_beta	89.995479
_cell_angle_gamma	65.281806
loop_
_atom_site_label
_atom_site_type_symbol
_atom_site_fract_x
_atom_site_fract_y
_atom_site_fract_z
O1	O	0.119291	0.971473	-0.068755
O2	O	0.619291	1.471473	0.431245
O3	O	0.134779	0.746865	-0.068752
O4	O	0.634779	1.246865	0.431248
O5	O	-0.010190	0.902891	-0.068758
O6	O	0.489810	1.402891	0.431242
O7	O	0.264261	0.815448	-0.068749
O8	O	0.764261	1.315448	0.431251
O9	O	-0.010200	0.902878	0.068736
O10	O	0.489800	1.402878	0.568736
O11	O	0.134770	0.746852	0.068742
O12	O	0.634770	1.246852	0.568742
O13	O	0.119282	0.971460	0.068739
O14	O	0.619282	1.471460	0.568739
Cu15	Cu	0.127025	0.859155	0.081294
Cu16	Cu	0.627025	1.359155	0.581294
Cu17	Cu	0.127036	0.859171	-0.081307
Cu18	Cu	0.627036	1.359171	0.418693
O19	O	0.264251	0.815434	0.068745
O20	O	0.764251	1.315434	0.568745
C21	C	0.134216	0.718815	-0.000005
C22	C	0.634216	1.218815	0.499995
C23	C	0.132541	0.635255	-0.000004
C24	C	0.632541	1.135255	0.499996
C25	C	0.208189	0.089714	-0.000010
C26	C	0.708189	0.589714	0.499990
C27	C	0.209757	0.168229	-0.000012
C28	C	0.709757	0.668229	0.499988
C29	C	0.124655	0.240100	-0.000015
C30	C	0.624655	0.740100	0.499985
C31	C	0.037979	0.233454	-0.000024
C32	C	0.537979	0.733454	0.499976
C33	C	0.036412	0.154940	-0.000027
C34	C	0.536412	0.654940	0.499973
C35	C	0.044297	0.550093	-0.000010
C36	C	0.544297	1.050093	0.499990
C37	C	0.045871	0.628611	-0.000004
C38	C	0.545871	1.128611	0.499996
C39	C	0.217642	0.563383	0.000005
C40	C	0.717642	1.063383	0.500005
C41	C	0.216075	0.484869	0.000001
C42	C	0.716075	0.984869	0.500001
C43	C	0.129400	0.478229	-0.000012
C44	C	0.629400	0.978229	0.499988
C45	C	0.127701	0.393094	-0.000011
C46	C	0.627701	0.893094	0.499989
C47	C	0.126353	0.325235	-0.000010
C48	C	0.626353	0.825235	0.499990
C49	C	-0.045311	0.912033	-0.000014
C50	C	0.454689	1.412033	0.499986
C51	C	-0.149944	0.939285	-0.000023
C52	C	0.350056	1.439285	0.499977
C53	C	-0.437140	0.668548	-0.000001
C54	C	0.062860	1.168548	0.499999
C55	C	-0.535462	0.694174	0.000000
C56	C	-0.035462	1.194174	0.500000
C57	C	-0.558222	0.838315	-0.000002
C58	C	-0.058222	1.338315	0.499998
C59	C	-0.459900	0.812701	-0.000007
C60	C	0.040100	1.312701	0.499993
C61	C	-0.399366	0.727816	-0.000006
C62	C	0.100634	1.227816	0.499994
C63	C	-0.422125	0.871969	-0.000013
C64	C	0.077875	1.371969	0.499987
C65	C	-0.323812	0.846357	-0.000014
C66	C	0.176188	1.346357	0.499986
C67	C	-0.263272	0.761476	-0.000010
C68	C	0.236728	1.261476	0.499990
C69	C	-0.301052	0.702204	-0.000007
C70	C	0.198948	1.202204	0.499993
C71	C	-0.482661	0.956853	-0.000008
C72	C	0.017339	1.456853	0.499992
C73	C	-0.444887	1.016122	-0.000013
C74	C	0.055113	1.516122	0.499987
C75	C	-0.346571	0.990510	-0.000020
C76	C	0.153429	1.490510	0.499980
C77	C	-0.286032	0.905629	-0.000016
C78	C	0.213968	1.405629	0.499984
C79	C	-0.308791	1.049782	-0.000023
C80	C	0.191209	1.549782	0.499977
C81	C	-0.210478	1.024170	-0.000024
C82	C	0.289522	1.524170	0.499976
C83	C	-0.187718	0.880017	-0.000017
C84	C	0.312282	1.380017	0.499983
C85	C	0.299372	0.806292	-0.000001
C86	C	0.799372	1.306292	0.499999
C87	C	0.404005	0.779040	0.000002
C88	C	0.904005	1.279040	0.500002
C89	C	0.119845	0.999511	-0.000010
C90	C	0.619845	1.499511	0.499990
C91	C	0.121520	1.083071	-0.000016
C92	C	0.621520	1.583071	0.499984
N93	N	0.127017	0.859149	0.195660
N94	N	0.627017	1.359149	0.695660
N95	N	0.127037	0.859184	-0.195673
N96	N	0.627037	1.359184	0.304327
C97	C	0.062851	0.928246	0.238921
C98	C	0.562851	1.428246	0.738921
C99	C	0.062850	0.928250	0.325468
C100	C	0.562850	1.428250	0.825468
C101	C	0.127020	0.859159	0.368752
C102	C	0.627020	1.359159	0.868752
C103	C	0.191189	0.790056	0.325485
C104	C	0.691189	1.290056	0.825485
C105	C	0.191185	0.790051	0.238939
C106	C	0.691185	1.290051	0.738939
C107	C	0.191207	0.790077	0.674513
C108	C	0.691207	1.290077	1.174513
C109	C	0.191208	0.790089	0.761064
C110	C	0.691208	1.290089	1.261064
C111	C	0.062872	0.928277	0.761042
C112	C	0.562872	1.428277	1.261042
C113	C	0.062867	0.928271	0.674496
C114	C	0.562867	1.428271	1.174496
C115	C	0.127033	0.859167	0.631236
C116	C	0.627033	1.359167	1.131236
C117	C	0.127032	0.859163	0.537392
C118	C	0.627032	1.359163	1.037392
C119	C	0.127026	0.859165	0.462595
C120	C	0.627026	1.359165	0.962595
H121	H	0.285375	0.426352	0.000007
H122	H	0.785375	0.926352	0.500007
F123	F	-0.123288	0.789672	-0.000024
F124	F	0.376712	1.289672	0.499976
H125	H	-0.023434	0.687131	-0.000009
H126	H	0.476566	1.187131	0.499991
F127	F	0.309891	0.570455	0.000013
F128	F	0.809891	1.070455	0.500013
F129	F	-0.052594	0.309946	-0.000029
F130	F	0.447406	0.809946	0.499971
H131	H	-0.026279	0.544699	-0.000019
H132	H	0.473721	1.044699	0.499981
F133	F	-0.005423	1.001823	0.807089
F134	F	0.494577	1.501823	1.307089
H135	H	0.277490	0.031198	-0.000002
H136	H	0.777490	0.531198	0.499998
F137	F	0.302003	0.175294	-0.000010
F138	F	0.802003	0.675294	0.499990
F139	F	0.259510	0.716549	0.807129
F140	F	0.759510	1.216549	1.307129
F141	F	-0.055834	0.147872	-0.000034
F142	F	0.444166	0.647872	0.499966
H143	H	-0.183220	0.740624	-0.000006
H144	H	0.316780	1.240624	0.499994
H145	H	-0.251762	0.633082	-0.000012
H146	H	0.248238	1.133082	0.499988
H147	H	0.243434	0.733785	0.203716
H148	H	0.743434	1.233785	0.703716
H149	H	-0.387850	0.599426	-0.000006
H150	H	0.112150	1.099426	0.499994
F151	F	-0.575659	0.631085	0.000010
F152	F	-0.075659	1.131085	0.500010
F153	F	-0.005428	1.001808	0.628434
F154	F	0.494572	1.501808	1.128434
F155	F	-0.622655	0.928652	0.000003
F156	F	-0.122655	1.428652	0.500003
H157	H	-0.358092	1.118895	-0.000016
H158	H	0.141908	1.618895	0.499984
H159	H	0.243454	0.733811	0.639297
H160	H	0.743454	1.233811	1.139297
F161	F	-0.587296	0.984110	-0.000001
F162	F	-0.087296	1.484110	0.499999
H163	H	-0.494186	1.085235	-0.000011
H164	H	0.005814	1.585235	0.499989
H165	H	0.243435	0.733798	0.360731
H166	H	0.743435	1.233798	0.860731
F167	F	-0.170273	1.087249	-0.000017
F168	F	0.329727	1.587249	0.499983
H169	H	0.010600	0.984510	0.203685
H170	H	0.510600	1.484510	0.703685
H171	H	0.010600	0.984513	0.360691
H172	H	0.510600	1.484513	0.860691
