data_functionalizedCrystal
_audit_creation_method	'MofGen! by Chris Wilmer'
_symmetry_space_group_name_H-M	'P1'
_symmetry_Int_Tables_number	1
_symmetry_cell_setting	triclinic
loop_
_symmetry_equiv_pos_as_xyz
  x,y,z
_cell_length_a	23.532407
_cell_length_b	23.532407
_cell_length_c	12.503572
_cell_angle_alpha	93.496478
_cell_angle_beta	86.509276
_cell_angle_gamma	82.848678
loop_
_atom_site_label
_atom_site_type_symbol
_atom_site_fract_x
_atom_site_fract_y
_atom_site_fract_z
O1	O	0.758558	0.065826	-0.089196
O2	O	0.592696	0.075828	-0.089229
O3	O	0.680627	-0.012104	-0.089192
O4	O	0.670626	0.153758	-0.089233
O5	O	0.674014	-0.005480	0.089447
O6	O	0.586082	0.082452	0.089410
O7	O	0.751945	0.072450	0.089443
Cu8	Cu	0.668410	0.078056	0.105738
Cu9	Cu	0.676230	0.070222	-0.105524
O10	O	0.664013	0.160382	0.089406
C11	C	0.568173	0.078885	0.000086
C12	C	0.504957	0.078119	0.000075
C13	C	0.105852	0.125354	0.000111
C14	C	0.046452	0.124642	0.000118
O15	O	0.009706	0.168429	0.000146
N16	N	0.023825	0.072367	0.000129
C17	C	0.060602	0.020799	0.000145
O18	O	0.035902	-0.023731	0.000156
C19	C	0.120001	0.021511	0.000146
C20	C	0.142625	0.073790	0.000124
C21	C	0.128476	0.177628	0.000090
C22	C	0.187873	0.178339	0.000082
C23	C	0.224645	0.126775	0.000094
C24	C	0.202021	0.074501	0.000115
C25	C	0.156777	-0.030056	0.000169
C26	C	0.216179	-0.029339	0.000171
C27	C	0.238803	0.022940	0.000148
C28	C	0.298190	0.023648	0.000118
N29	N	0.320817	0.075924	0.000107
C30	C	0.284044	0.127488	0.000095
C31	C	-0.064140	0.019307	0.000145
C32	C	-0.123538	0.018595	0.000136
C33	C	-0.137685	0.122438	0.000111
C34	C	-0.078286	0.123151	0.000112
C35	C	-0.041514	0.071583	0.000133
C36	C	0.408782	0.128976	0.000076
C37	C	0.468184	0.129683	0.000062
C38	C	0.482325	0.025839	0.000093
C39	C	0.422928	0.025133	0.000100
C40	C	0.386157	0.076706	0.000095
O41	O	0.334970	-0.020116	0.000095
O42	O	0.308752	0.172011	0.000098
C43	C	0.677066	-0.030008	0.000130
C44	C	0.676300	-0.093225	0.000138
C45	C	0.723535	-0.492329	0.000089
C46	C	0.722824	-0.551730	0.000080
O47	O	0.766611	-0.588476	0.000050
N48	N	0.670548	-0.574357	0.000071
C49	C	0.618980	-0.537579	0.000059
O50	O	0.574450	-0.562279	0.000049
C51	C	0.619692	-0.478180	0.000059
C52	C	0.671971	-0.455557	0.000080
C53	C	0.775810	-0.469706	0.000108
C54	C	0.776521	-0.410309	0.000118
C55	C	0.724957	-0.373536	0.000109
C56	C	0.672682	-0.396160	0.000090
C57	C	0.568126	-0.441405	0.000039
C58	C	0.568842	-0.382002	0.000039
C59	C	0.621121	-0.359379	0.000060
C60	C	0.621829	-0.299991	0.000091
N61	N	0.674105	-0.277365	0.000101
C62	C	0.725669	-0.314137	0.000110
C63	C	0.617489	-0.662322	0.000055
C64	C	0.616776	-0.721720	0.000062
C65	C	0.720620	-0.735866	0.000082
C66	C	0.721332	-0.676467	0.000083
C67	C	0.669765	-0.639696	0.000065
C68	C	0.727158	-0.189400	0.000133
C69	C	0.727864	-0.129997	0.000147
C70	C	0.624020	-0.115856	0.000122
C71	C	0.623314	-0.175253	0.000113
C72	C	0.674887	-0.212024	0.000114
O73	O	0.578065	-0.263211	0.000118
O74	O	0.770192	-0.289430	0.000106
C75	C	0.776467	0.069393	0.000125
C76	C	0.839684	0.070159	0.000130
C77	C	0.667574	0.178286	0.000081
C78	C	0.668341	0.241502	0.000066
N79	N	0.662913	0.083565	0.254327
N80	N	0.681732	0.064708	-0.254114
C81	C	0.654828	0.091674	0.473439
C82	C	0.689815	0.056601	0.526781
C83	C	0.685316	0.061113	0.648702
C84	C	0.659326	0.087163	0.351507
H85	H	0.378849	0.170973	0.000075
N86	N	0.782779	-0.229058	0.000142
H87	H	0.808056	-0.224260	-0.066069
H88	H	0.803099	-0.219340	0.066418
N89	N	0.831429	-0.509363	0.000133
H90	H	0.835910	-0.536777	-0.066085
H91	H	0.864614	-0.485968	0.000188
H92	H	0.819092	-0.391895	0.000131
H93	H	0.763902	-0.658052	0.000099
N94	N	0.776238	-0.775534	0.000092
H95	H	0.767850	-0.816595	0.000085
H96	H	0.801487	-0.770693	-0.066127
N97	N	0.255836	-0.084961	0.000198
H98	H	0.251037	-0.110241	-0.066014
H99	H	0.296882	-0.076535	0.000233
H100	H	0.206287	0.220910	0.000063
H101	H	0.098541	0.219620	0.000084
N102	N	-0.053886	0.179536	0.000085
H103	H	-0.086200	0.212090	0.000073
H104	H	-0.031999	0.184554	0.066308
N105	N	0.492579	0.186074	0.000032
H106	H	0.476702	0.211105	0.066248
H107	H	0.535787	0.178658	-0.000017
H108	H	-0.167636	0.164425	0.000107
H109	H	-0.141952	-0.023977	0.000137
N110	N	0.733970	0.012340	0.465987
H111	H	0.760796	0.032231	0.419325
H112	H	0.756654	-0.010426	0.518640
N113	N	0.566927	-0.199654	0.000098
H114	H	0.566769	-0.226429	-0.066131
H115	H	0.561896	-0.221508	0.066356
H116	H	0.621497	0.125088	0.519333
N117	N	-0.024486	-0.036319	0.000148
H118	H	0.002922	-0.040796	-0.066074
H119	H	-0.002012	-0.035855	0.066413
N120	N	0.132383	-0.086441	0.000203
H121	H	0.148264	-0.111476	-0.066006
H122	H	0.143376	-0.106505	0.066481
N123	N	0.398523	-0.031252	0.000104
H124	H	0.430834	-0.063810	0.000105
H125	H	0.371743	-0.031355	0.066334
H126	H	0.582038	-0.085905	0.000118
N127	N	0.521992	-0.029774	0.000106
H128	H	0.563053	-0.021386	0.000104
H129	H	0.512252	-0.050112	0.066342
H130	H	0.770437	-0.111581	0.000167
N131	N	0.560389	-0.746116	0.000070
H132	H	0.527834	-0.713803	0.000069
H133	H	0.560277	-0.772903	-0.066155
N134	N	0.561869	-0.622657	0.000054
H135	H	0.541495	-0.632353	-0.066169
H136	H	0.536642	-0.627471	0.066318
N137	N	0.511738	-0.465795	0.000031
H138	H	0.479186	-0.433479	0.000023
H139	H	0.511627	-0.492582	-0.066193
N140	N	0.513222	-0.342341	0.000014
H141	H	0.480000	-0.365691	0.000001
H142	H	0.508799	-0.314939	0.066240
