data_functionalizedCrystal
_audit_creation_method	'MofGen! by Chris Wilmer'
_symmetry_space_group_name_H-M	'P1'
_symmetry_Int_Tables_number	1
_symmetry_cell_setting	triclinic
loop_
_symmetry_equiv_pos_as_xyz
  x,y,z
_cell_length_a	19.288864
_cell_length_b	10.268362
_cell_length_c	19.288857
_cell_angle_alpha	90.007434
_cell_angle_beta	83.134677
_cell_angle_gamma	90.018431
loop_
_atom_site_label
_atom_site_type_symbol
_atom_site_fract_x
_atom_site_fract_y
_atom_site_fract_z
O1	O	0.921346	0.108724	0.086649
O2	O	0.719085	0.108636	0.098337
O3	O	0.826063	0.108667	-0.008638
O4	O	0.814368	0.108693	0.193624
O5	O	0.826053	-0.107934	-0.008642
O6	O	0.719076	-0.107965	0.098333
O7	O	0.921337	-0.107877	0.086644
Cu8	Cu	0.820205	-0.127698	0.092488
Cu9	Cu	0.820216	0.128457	0.092493
O10	O	0.814359	-0.107908	0.193619
C11	C	0.693204	0.000324	0.097959
C12	C	0.616100	0.000290	0.096830
N13	N	0.820203	-0.307864	0.092484
C14	C	0.571402	0.000318	0.159598
C15	C	0.498955	0.000333	0.158537
C16	C	0.471209	0.000344	0.094705
C17	C	0.515917	0.000308	0.031929
C18	C	0.588363	0.000281	0.032991
C19	C	0.362952	0.076266	0.044527
C20	C	0.290508	0.076302	0.043467
C21	C	0.247764	0.000423	0.091425
C22	C	0.277472	-0.075475	0.140455
C23	C	0.349918	-0.075502	0.141518
C24	C	0.392656	0.000373	0.093546
C25	C	0.124510	0.000465	0.153048
C26	C	0.052062	0.000471	0.151984
C27	C	0.069026	0.000460	0.025374
C28	C	0.141472	0.000441	0.026439
C29	C	0.169210	0.000449	0.090278
C30	C	0.820213	-0.573535	0.092492
C31	C	0.820205	-0.425697	0.092490
C32	C	0.947218	0.000438	0.087022
C33	C	1.024321	0.000481	0.088151
C34	C	0.825683	0.000365	-0.034516
C35	C	0.824556	0.000361	-0.111620
N36	N	0.820224	0.308623	0.092492
C37	C	0.824035	0.118430	-0.147829
C38	C	0.822966	0.118439	-0.220275
C39	C	0.822432	0.000373	-0.256511
C40	C	0.822949	-0.117712	-0.220294
C41	C	0.824011	-0.117718	-0.147848
C42	C	0.861430	-0.090056	-0.376745
C43	C	0.860373	-0.090046	-0.449190
C44	C	0.819155	0.000386	-0.479957
C45	C	0.779003	0.090828	-0.438273
C46	C	0.780065	0.090822	-0.365827
C47	C	0.821281	0.000366	-0.335066
C48	C	0.817474	0.118473	-0.594720
C49	C	0.816401	0.118477	-0.667166
C50	C	0.816391	-0.117677	-0.667185
C51	C	0.817457	-0.117678	-0.594739
C52	C	0.818002	0.000401	-0.558511
C53	C	0.814739	0.000397	0.219498
C54	C	0.815866	0.000410	0.296602
H55	H	0.593981	0.000328	0.211581
F56	F	0.815819	-0.243334	-0.705746
F57	F	0.258896	0.157090	-0.008708
F58	F	0.189045	0.000417	-0.040368
F59	F	0.039502	0.000460	-0.042562
F60	F	0.451376	0.000359	0.225347
F61	F	0.737332	0.187071	-0.321466
F62	F	0.381533	-0.156279	0.193695
F63	F	0.818049	0.244141	-0.556160
F64	F	0.815842	0.244150	-0.705701
F65	F	0.818012	-0.243345	-0.556202
H66	H	0.242671	-0.137264	0.179507
H67	H	0.894994	-0.163706	-0.351700
H68	H	0.624757	0.000259	-0.018124
H69	H	0.147095	0.000453	0.205029
F70	F	0.004490	0.000495	0.218795
F71	F	0.824611	0.244100	-0.109276
F72	F	0.822411	0.244109	-0.258818
F73	F	0.408437	0.157032	-0.006520
H74	H	0.824432	-0.213867	-0.118368
F75	F	0.486387	0.000315	-0.036006
H76	H	0.745439	0.164466	-0.463322
H77	H	0.893069	-0.163685	-0.483124
H78	H	0.822513	-0.213843	-0.249802
