data_functionalizedCrystal
_audit_creation_method	'MofGen! by Chris Wilmer'
_symmetry_space_group_name_H-M	'P1'
_symmetry_Int_Tables_number	1
_symmetry_cell_setting	triclinic
loop_
_symmetry_equiv_pos_as_xyz
  x,y,z
_cell_length_a	17.699083
_cell_length_b	19.188930
_cell_length_c	16.776229
_cell_angle_alpha	89.988225
_cell_angle_beta	89.998886
_cell_angle_gamma	83.213899
loop_
_atom_site_label
_atom_site_type_symbol
_atom_site_fract_x
_atom_site_fract_y
_atom_site_fract_z
O1	O	1.003962	0.088294	-0.066185
O2	O	1.503962	0.588294	0.433815
O3	O	0.783569	0.099782	-0.066213
O4	O	1.283569	0.599782	0.433787
O5	O	0.900126	-0.007611	-0.066183
O6	O	1.400126	0.492389	0.433817
O7	O	0.887405	0.195686	-0.066215
O8	O	1.387405	0.695686	0.433785
O9	O	0.900110	-0.007617	0.066394
O10	O	1.400110	0.492383	0.566394
O11	O	0.783553	0.099775	0.066364
O12	O	1.283553	0.599775	0.566364
O13	O	1.003947	0.088288	0.066391
O14	O	1.503947	0.588288	0.566391
Zn15	Zn	0.893748	0.094030	0.087427
Zn16	Zn	1.393748	0.594030	0.587427
Zn17	Zn	0.893768	0.094039	-0.087249
Zn18	Zn	1.393768	0.594039	0.412751
O19	O	0.887390	0.195680	0.066361
O20	O	1.387390	0.695680	0.566361
C21	C	0.755365	0.099367	0.000072
C22	C	1.255365	0.599367	0.500072
C23	C	0.671348	0.098132	0.000062
C24	C	1.171348	0.598132	0.500062
C25	C	0.899706	-0.033625	0.000108
C26	C	1.399706	0.466375	0.500108
C27	C	0.898469	-0.111131	0.000114
C28	C	1.398469	0.388869	0.500114
C29	C	0.622644	0.161169	0.000053
C30	C	1.122644	0.661169	0.500053
C31	C	0.543702	0.160004	0.000063
C32	C	1.043702	0.660004	0.500063
C33	C	0.513466	0.095802	0.000078
C34	C	1.013466	0.595802	0.500078
C35	C	0.562176	0.032761	0.000090
C36	C	1.062176	0.532761	0.500090
C37	C	0.641117	0.033926	0.000085
C38	C	1.141117	0.533926	0.500085
C39	C	0.243819	0.028060	0.000111
C40	C	0.743819	0.528060	0.500111
C41	C	0.164873	0.026900	0.000113
C42	C	0.664873	0.526900	0.500113
C43	C	0.146405	0.154139	0.000088
C44	C	0.646405	0.654139	0.500088
C45	C	0.225345	0.155304	0.000084
C46	C	0.725345	0.655304	0.500084
C47	C	0.274049	0.092263	0.000100
C48	C	0.774049	0.592263	0.500100
C49	C	0.359646	0.093526	0.000090
C50	C	0.859646	0.593526	0.500090
C51	C	0.427870	0.094538	0.000082
C52	C	0.927870	0.594538	0.500082
C53	C	0.966861	-0.155978	0.000127
C54	C	1.466861	0.344022	0.500127
C55	C	0.965699	-0.228804	0.000114
C56	C	1.465699	0.271196	0.500114
C57	C	0.896142	-0.256778	0.000105
C58	C	1.396142	0.243222	0.500105
C59	C	0.827741	-0.211921	0.000088
C60	C	1.327741	0.288079	0.500088
C61	C	0.828905	-0.139098	0.000093
C62	C	1.328905	0.360902	0.500093
N63	N	0.842969	-0.364845	0.045216
N64	N	1.342969	0.135155	0.545216
N65	N	0.841868	-0.434025	0.045213
N66	N	1.341868	0.065975	0.545213
C67	C	0.892632	-0.476191	0.000088
C68	C	1.392632	0.023809	0.500088
N69	N	0.944550	-0.446565	-0.045024
N70	N	1.444550	0.053435	0.454976
N71	N	0.945653	-0.377379	-0.045018
N72	N	1.445653	0.122621	0.454982
C73	C	0.894873	-0.335742	0.000099
C74	C	1.394873	0.164258	0.500099
C75	C	0.959769	-0.600004	0.000085
C76	C	1.459769	-0.100004	0.500085
C77	C	0.958604	-0.672830	0.000067
C78	C	1.458604	-0.172830	0.500067
C79	C	0.820644	-0.655946	0.000049
C80	C	1.320644	-0.155946	0.500049
C81	C	0.821811	-0.583121	0.000059
C82	C	1.321811	-0.083121	0.500059
C83	C	0.891375	-0.555155	0.000081
C84	C	1.391375	-0.055155	0.500081
C85	C	1.032151	0.088703	0.000104
C86	C	1.532151	0.588703	0.500104
C87	C	1.116167	0.089938	0.000109
C88	C	1.616167	0.589938	0.500109
C89	C	0.887810	0.221695	0.000069
C90	C	1.387810	0.721695	0.500069
C91	C	0.889046	0.299201	0.000057
C92	C	1.389046	0.799201	0.500057
N93	N	0.893739	0.094024	0.206638
N94	N	1.393739	0.594024	0.706638
N95	N	0.893782	0.094040	-0.206460
N96	N	1.393782	0.594040	0.293540
C97	C	0.945366	0.046490	0.248368
C98	C	1.445366	0.546490	0.748368
C99	C	0.945370	0.046490	0.331821
C100	C	1.445370	0.546490	0.831821
C101	C	0.893751	0.094027	0.373541
C102	C	1.393751	0.594027	0.873541
C103	C	0.842118	0.141563	0.331805
C104	C	1.342118	0.641563	0.831805
C105	C	0.842111	0.141559	0.248354
C106	C	1.342111	0.641559	0.748354
C107	C	0.842146	0.141576	0.668352
C108	C	1.342146	0.641576	1.168352
C109	C	0.842158	0.141578	0.751808
C110	C	1.342158	0.641578	1.251808
C111	C	0.945405	0.046507	0.751818
C112	C	1.445405	0.546507	1.251818
C113	C	0.945398	0.046503	0.668368
C114	C	1.445398	0.546503	1.168368
C115	C	0.893763	0.094037	0.626639
C116	C	1.393763	0.594037	1.126639
C117	C	0.893758	0.094036	0.536150
C118	C	1.393758	0.594036	1.036150
C119	C	0.893759	0.094031	0.464028
C120	C	1.393759	0.594031	0.964028
H121	H	0.647256	0.213450	0.000040
H122	H	1.147256	0.713450	0.500040
N123	N	0.133988	-0.038685	0.000153
N124	N	0.633988	0.461315	0.500153
N125	N	0.092000	-0.053523	0.056047
N126	N	0.592000	0.446477	0.556047
H127	H	0.070187	-0.099840	0.056076
H128	H	0.570187	0.400160	0.556076
H129	H	0.987447	0.007800	0.785803
H130	H	1.487447	0.507800	1.285803
H131	H	0.680771	-0.017406	0.000093
H132	H	1.180771	0.482594	0.500093
H133	H	0.106741	0.205470	0.000079
H134	H	0.606741	0.705470	0.500079
N135	N	0.789389	0.190111	0.374430
N136	N	1.289389	0.690111	0.874430
N137	N	0.789401	0.190109	0.448939
N138	N	1.289401	0.690109	0.948939
H139	H	0.752161	0.224398	0.479044
H140	H	1.252161	0.724398	0.979044
N141	N	0.789407	0.190143	0.625750
N142	N	1.289407	0.690143	1.125750
N143	N	0.790229	0.254678	0.635060
N144	N	1.290229	0.754678	1.135060
H145	H	0.752980	0.288982	0.604972
H146	H	1.252980	0.788982	1.104972
N147	N	0.998084	-0.002070	0.374468
N148	N	1.498084	0.497930	0.874468
N149	N	1.044983	0.020007	0.421049
N150	N	1.544983	0.520007	0.921049
H151	H	1.082202	-0.014296	0.451177
H152	H	1.582202	0.485704	0.951177
N153	N	0.293551	-0.036339	0.000124
N154	N	0.793551	0.463661	0.500124
N155	N	0.266541	-0.093656	0.000133
N156	N	0.766541	0.406344	0.500133
H157	H	0.301666	-0.139141	0.000140
H158	H	0.801666	0.360859	0.500140
H159	H	0.504050	0.211335	0.000054
H160	H	1.004050	0.711335	0.500054
H161	H	0.800120	0.180289	0.785776
H162	H	1.300120	0.680289	1.285776
N163	N	0.751949	-0.537306	0.000073
N164	N	1.251949	-0.037306	0.500073
N165	N	0.737204	-0.494802	0.055962
N166	N	1.237204	0.005198	0.555962
H167	H	0.687861	-0.462444	0.055972
H168	H	1.187861	0.037556	0.555972
N169	N	1.030830	-0.571443	0.000109
N170	N	1.530830	-0.071443	0.500109
N171	N	1.091891	-0.611498	0.000115
N172	N	1.591891	-0.111498	0.500115
H173	H	1.142079	-0.591329	0.000134
H174	H	1.642079	-0.091329	0.500134
H175	H	1.014299	-0.709345	0.000073
H176	H	1.514299	-0.209345	0.500073
H177	H	0.987404	0.007783	0.214405
H178	H	1.487404	0.507783	0.714405
H179	H	1.021394	-0.265325	0.000121
H180	H	1.521394	0.234675	0.500121
H181	H	0.764009	-0.678722	0.000038
H182	H	1.264009	-0.178722	0.500038
N183	N	0.998141	-0.002050	0.625765
N184	N	1.498141	0.497950	1.125765
N185	N	1.044237	-0.044486	0.663035
N186	N	1.544237	0.455514	1.163035
H187	H	1.081490	-0.078777	0.632948
H188	H	1.581490	0.421223	1.132948
N189	N	0.789377	0.190126	0.205737
N190	N	1.289377	0.690126	0.705737
N191	N	0.790197	0.254661	0.215039
N192	N	1.290197	0.754661	0.715039
H193	H	0.752951	0.288962	0.184942
H194	H	1.252951	0.788962	0.684942
N195	N	0.256217	0.220891	0.000061
N196	N	0.756217	0.720891	0.500061
N197	N	0.212722	0.277171	0.000052
N198	N	0.712722	0.777171	0.500052
H199	H	0.234524	0.323494	0.000038
H200	H	0.734524	0.823494	0.500038
N201	N	0.531281	-0.032815	0.000113
N202	N	1.031281	0.467185	0.500113
N203	N	0.460798	-0.033848	0.000117
N204	N	0.960798	0.466152	0.500117
H205	H	0.438978	-0.080162	0.000132
H206	H	0.938978	0.419838	0.500132
H207	H	0.771107	-0.234702	0.000079
H208	H	1.271107	0.265298	0.500079
N209	N	1.037924	-0.127424	0.000147
N210	N	1.537924	0.372576	0.500147
N211	N	1.098984	-0.167481	0.000155
N212	N	1.598984	0.332519	0.500155
H213	H	1.149173	-0.147314	0.000168
H214	H	1.649173	0.352686	0.500168
H215	H	0.773210	-0.102582	0.000083
H216	H	1.273210	0.397418	0.500083
