data_functionalizedCrystal
_audit_creation_method	'MofGen! by Chris Wilmer'
_symmetry_space_group_name_H-M	'P1'
_symmetry_Int_Tables_number	1
_symmetry_cell_setting	triclinic
loop_
_symmetry_equiv_pos_as_xyz
  x,y,z
_cell_length_a	12.759400
_cell_length_b	13.032951
_cell_length_c	13.032268
_cell_angle_alpha	89.114265
_cell_angle_beta	97.150187
_cell_angle_gamma	97.182956
loop_
_atom_site_label
_atom_site_type_symbol
_atom_site_fract_x
_atom_site_fract_y
_atom_site_fract_z
Zn1	Zn	-0.709607	-1.498511	-0.780886
Zn2	Zn	-0.866143	-1.520262	-0.608909
Zn3	Zn	-0.665710	-1.348368	-0.587122
Zn4	Zn	-0.860453	-1.326510	-0.759029
O5	O	-0.775479	-1.423413	-0.683986
O6	O	-0.751125	-1.645318	-0.776338
O7	O	-0.823566	-1.515710	-0.462102
O8	O	-0.524522	-1.368330	-0.612855
O9	O	-0.866131	-1.661298	-0.649987
O10	O	-0.556773	-1.478639	-0.755213
O11	O	-0.676308	-1.389420	-0.446096
O12	O	-0.670791	-1.201547	-0.591661
O13	O	-0.856433	-1.331076	-0.905844
O14	O	-0.813868	-1.185488	-0.717960
O15	O	-0.745607	-1.457445	-0.921903
O16	O	-1.012400	-1.494515	-0.628793
O17	O	-1.008220	-1.352167	-0.739085
C18	C	-0.736949	-1.156201	-0.650075
C19	C	-0.720494	-1.041883	-0.635592
C20	C	-0.784042	-0.983010	-0.691531
C21	C	-0.767036	-0.864857	-0.676564
C22	C	-1.048435	-1.423354	-0.683957
C23	C	-1.165224	-1.423419	-0.683991
C24	C	-1.222247	-1.497604	-0.626644
C25	C	-1.331983	-1.497663	-0.626684
C26	C	-1.327664	-1.349344	-0.741420
C27	C	-1.217931	-1.349290	-0.741385
C28	C	-1.169540	-1.571733	-0.569250
C29	C	-1.226562	-1.645923	-0.511897
C30	C	-1.336299	-1.645982	-0.511937
C31	C	-1.389013	-1.571851	-0.569329
C32	C	-0.501463	-1.423496	-0.684042
C33	C	-0.384694	-1.423532	-0.684065
C34	C	-0.805282	-1.389396	-0.952233
C35	C	-0.817982	-1.374900	-1.066544
C36	C	-0.814147	-0.691669	-0.718024
C37	C	-0.830592	-0.805986	-0.732511
C38	C	-0.768810	-1.430962	-1.125453
C39	C	-0.781935	-1.415981	-1.243599
C40	C	-0.745724	-1.457356	-0.416791
C41	C	-0.732756	-1.472051	-0.302506
H42	H	-0.700033	-0.827791	-0.617591
H43	H	-0.897587	-0.843049	-0.791494
O44	O	-0.664122	-1.550335	-1.253473
H45	H	-0.598639	-1.510488	-1.198690
O46	O	-1.156418	-1.269278	-0.803237
H47	H	-1.093824	-1.222817	-0.750512
O48	O	-0.631757	-0.992779	-0.557471
H49	H	-0.554236	-1.011083	-0.577832
O50	O	-1.051183	-1.571670	-0.569215
H51	H	-1.024111	-1.635683	-0.519679
H52	H	-1.183638	-1.706283	-0.465177
H53	H	-1.382726	-1.706397	-0.465246
H54	H	-1.478370	-1.571912	-0.569366
H55	H	-1.370592	-1.288989	-0.788145
O56	O	-0.850575	-1.337702	-1.292632
H57	H	-0.850117	-1.338222	-1.377734
O58	O	-0.872772	-1.032114	-0.769660
H59	H	-0.950296	-1.013802	-0.749314
O60	O	-0.700179	-1.509242	-1.076415
H61	H	-0.700650	-1.508732	-0.991315
O62	O	-0.886618	-1.296625	-1.115582
H63	H	-0.886160	-1.297145	-1.200684
