data_functionalizedCrystal
_audit_creation_method	'MofGen! by Chris Wilmer'
_symmetry_space_group_name_H-M	'P1'
_symmetry_Int_Tables_number	1
_symmetry_cell_setting	triclinic
loop_
_symmetry_equiv_pos_as_xyz
  x,y,z
_cell_length_a	10.654550
_cell_length_b	16.109301
_cell_length_c	9.730223
_cell_angle_alpha	89.994178
_cell_angle_beta	89.999957
_cell_angle_gamma	83.973206
loop_
_atom_site_label
_atom_site_type_symbol
_atom_site_fract_x
_atom_site_fract_y
_atom_site_fract_z
O1	O	1.666255	0.116774	-0.114192
O2	O	1.300625	0.127899	-0.114218
O3	O	1.493484	0.001365	-0.114190
O4	O	1.473396	0.243308	-0.114220
O5	O	1.493472	0.001362	0.114390
O6	O	1.300613	0.127896	0.114362
O7	O	1.666243	0.116770	0.114388
Zn8	Zn	1.483426	0.122333	0.150667
Zn9	Zn	1.483442	0.122337	-0.150497
O10	O	1.473384	0.243304	0.114360
C11	C	1.253832	0.127081	0.000069
C12	C	1.114422	0.124637	0.000060
C13	C	1.033926	0.199138	0.000054
C14	C	0.902936	0.196836	0.000079
C15	C	0.932952	0.045526	0.000107
C16	C	1.063939	0.047828	0.000093
C17	C	1.492664	-0.029616	0.000100
C18	C	1.490225	-0.121926	0.000102
C19	C	1.598991	-0.343552	0.000088
C20	C	1.596689	-0.430286	0.000076
C21	C	1.367868	-0.411772	0.000066
C22	C	1.370172	-0.325039	0.000067
C23	C	1.485737	-0.290932	0.000085
C24	C	1.481131	-0.464398	0.000072
C25	C	1.478634	-0.558439	0.000060
C26	C	1.488234	-0.196885	0.000095
C27	C	1.713036	0.117589	0.000098
C28	C	1.852446	0.120033	0.000098
C29	C	1.474203	0.274286	0.000067
C30	C	1.476643	0.366596	0.000056
N31	N	1.483424	0.122329	0.356203
N32	N	1.483454	0.122334	-0.356033
C33	C	1.568851	0.066324	0.428141
C34	C	1.568863	0.066324	0.572024
C35	C	1.398018	0.178342	0.572018
C36	C	1.398001	0.178337	0.428138
H37	H	0.837401	0.257503	0.000077
N38	N	1.088385	0.281975	0.000040
H39	H	1.142053	0.286304	-0.084703
H40	H	1.017444	0.328774	0.000096
H41	H	0.891833	-0.017009	0.000143
N42	N	1.248018	-0.268273	0.000080
H43	H	1.243877	-0.231869	-0.084653
H44	H	1.174525	-0.303093	0.000134
N45	N	1.661015	0.005925	0.649611
H46	H	1.648066	0.014422	0.751675
H47	H	1.646544	-0.053148	0.624477
N48	N	1.243231	-0.448563	0.000074
H49	H	1.171834	-0.402065	0.000072
H50	H	1.237288	-0.484143	-0.084660
H51	H	1.688912	-0.473126	0.000075
N52	N	1.305887	0.238749	0.649605
H53	H	1.318861	0.230256	0.751670
H54	H	1.320357	0.297819	0.624435
H55	H	1.638406	0.020717	0.369575
N56	N	1.305847	0.238739	0.350535
H57	H	1.251739	0.274224	0.417935
H58	H	1.353890	0.275790	0.290814
H59	H	1.129483	-0.012843	0.000101
N60	N	1.723629	-0.306762	0.000105
H61	H	1.795025	-0.353261	0.000103
H62	H	1.729571	-0.271172	-0.084630
