data_functionalizedCrystal
_audit_creation_method	'MofGen! by Chris Wilmer'
_symmetry_space_group_name_H-M	'P1'
_symmetry_Int_Tables_number	1
_symmetry_cell_setting	triclinic
loop_
_symmetry_equiv_pos_as_xyz
  x,y,z
_cell_length_a	18.101398
_cell_length_b	18.101395
_cell_length_c	18.101389
_cell_angle_alpha	90.016841
_cell_angle_beta	90.024802
_cell_angle_gamma	90.028835
loop_
_atom_site_label
_atom_site_type_symbol
_atom_site_fract_x
_atom_site_fract_y
_atom_site_fract_z
Zn1	Zn	1.132121	-0.294952	0.418856
Zn2	Zn	1.382121	-0.044952	0.668856
Zn3	Zn	1.632121	0.205048	0.918856
Zn4	Zn	1.882121	0.455048	1.168856
Zn5	Zn	1.132017	-0.418778	0.295018
Zn6	Zn	1.382017	-0.168778	0.545018
Zn7	Zn	1.632017	0.081222	0.795018
Zn8	Zn	1.882017	0.331222	1.045018
Zn9	Zn	1.008280	-0.294950	0.295016
Zn10	Zn	1.258280	-0.044950	0.545016
Zn11	Zn	1.508280	0.205050	0.795016
Zn12	Zn	1.758280	0.455050	1.045016
Zn13	Zn	1.008231	-0.418751	0.418806
Zn14	Zn	1.258231	-0.168751	0.668806
Zn15	Zn	1.508231	0.081249	0.918806
Zn16	Zn	1.758231	0.331249	1.168806
O17	O	1.070162	-0.356858	0.356924
O18	O	1.320162	-0.106858	0.606924
O19	O	1.570162	0.143142	0.856924
O20	O	1.820162	0.393142	1.106924
O21	O	1.235740	-0.311390	0.402451
O22	O	1.485740	-0.061390	0.652451
O23	O	1.735740	0.188610	0.902451
O24	O	1.985740	0.438610	1.152451
O25	O	1.115580	-0.402362	0.191385
O26	O	1.365580	-0.152362	0.441385
O27	O	1.615580	0.097638	0.691385
O28	O	1.865580	0.347638	0.941385
O29	O	1.024772	-0.191317	0.311464
O30	O	1.274772	0.058683	0.561464
O31	O	1.524772	0.308683	0.811464
O32	O	1.774772	0.558683	1.061464
O33	O	1.235664	-0.402364	0.311467
O34	O	1.485664	-0.152364	0.561467
O35	O	1.735664	0.097636	0.811467
O36	O	1.985664	0.347636	1.061467
O37	O	1.115757	-0.191319	0.402449
O38	O	1.365757	0.058681	0.652449
O39	O	1.615757	0.308681	0.902449
O40	O	1.865757	0.558681	1.152449
O41	O	1.024671	-0.311386	0.191384
O42	O	1.274671	-0.061386	0.441384
O43	O	1.524671	0.188614	0.691384
O44	O	1.774671	0.438614	0.941384
O45	O	0.904641	-0.311360	0.311415
O46	O	1.154641	-0.061360	0.561415
O47	O	1.404641	0.188640	0.811415
O48	O	1.654641	0.438640	1.061415
O49	O	1.024688	-0.402319	0.522445
O50	O	1.274688	-0.152319	0.772445
O51	O	1.524688	0.097681	1.022445
O52	O	1.774688	0.347681	1.272445
O53	O	0.904604	-0.402317	0.402363
O54	O	1.154604	-0.152317	0.652363
O55	O	1.404604	0.097683	0.902363
O56	O	1.654604	0.347683	1.152363
O57	O	1.115710	-0.311364	0.522482
O58	O	1.365710	-0.061364	0.772482
O59	O	1.615710	0.188636	1.022482
O60	O	1.865710	0.438636	1.272482
O61	O	1.115532	-0.522407	0.311418
O62	O	1.365532	-0.272407	0.561418
O63	O	1.615532	-0.022407	0.811418
O64	O	1.865532	0.227593	1.061418
O65	O	1.024587	-0.522388	0.402365
O66	O	1.274587	-0.272388	0.652365
O67	O	1.524587	-0.022388	0.902365
O68	O	1.774587	0.227612	1.152365
C69	C	0.877752	-0.356836	0.356884
C70	C	1.127752	-0.106836	0.606884
C71	C	1.377752	0.143164	0.856884
C72	C	1.627752	0.393164	1.106884
C73	C	0.795437	-0.356844	0.356884
C74	C	1.045437	-0.106844	0.606884
C75	C	1.295437	0.143156	0.856884
C76	C	1.545437	0.393156	1.106884
C77	C	0.644729	-0.356860	0.356918
C78	C	0.894729	-0.106860	0.606918
C79	C	1.144729	0.143140	0.856918
C80	C	1.394729	0.393140	1.106918
C81	C	0.613373	-0.299550	0.299791
C82	C	0.863373	-0.049550	0.549791
C83	C	1.113373	0.200450	0.799791
C84	C	1.363373	0.450450	1.049791
C85	C	0.527755	-0.299335	0.299979
C86	C	0.777755	-0.049335	0.549979
C87	C	1.027755	0.200665	0.799979
C88	C	1.277755	0.450665	1.049979
C89	C	0.496347	-0.356875	0.356949
C90	C	0.746347	-0.106875	0.606949
C91	C	0.996347	0.143125	0.856949
C92	C	1.246347	0.393125	1.106949
C93	C	0.527486	-0.336055	0.435084
C94	C	0.777486	-0.086055	0.685084
C95	C	1.027486	0.163945	0.935084
C96	C	1.277486	0.413945	1.185084
C97	C	0.613131	-0.335631	0.434735
C98	C	0.863131	-0.085631	0.684735
C99	C	1.113131	0.164369	0.934735
C100	C	1.363131	0.414369	1.184735
C101	C	0.613125	-0.435137	0.336598
C102	C	0.863125	-0.185137	0.586598
C103	C	1.113125	0.064863	0.836598
C104	C	1.363125	0.314863	1.086598
C105	C	0.527474	-0.434724	0.334895
C106	C	0.777474	-0.184724	0.584895
C107	C	1.027474	0.065276	0.834895
C108	C	1.277474	0.315276	1.084895
C109	C	0.412487	-0.356884	0.356972
C110	C	0.662487	-0.106884	0.606972
C111	C	0.912487	0.143116	0.856972
C112	C	1.162487	0.393116	1.106972
C113	C	0.728589	-0.356848	0.356900
C114	C	0.978589	-0.106848	0.606900
C115	C	1.228589	0.143152	0.856900
C116	C	1.478589	0.393152	1.106900
C117	C	1.070063	-0.549268	0.356902
C118	C	1.320063	-0.299268	0.606902
C119	C	1.570063	-0.049268	0.856902
C120	C	1.820063	0.200732	1.106902
C121	C	1.070088	-0.631582	0.356918
C122	C	1.320088	-0.381582	0.606918
C123	C	1.570088	-0.131582	0.856918
C124	C	1.820088	0.118418	1.106918
C125	C	1.070251	-0.930673	0.356958
C126	C	1.320251	-0.680673	0.606958
C127	C	1.570251	-0.430673	0.856958
C128	C	1.820251	-0.180673	1.106958
C129	C	1.013163	-0.899367	0.414321
C130	C	1.263163	-0.649367	0.664321
C131	C	1.513163	-0.399367	0.914321
C132	C	1.763163	-0.149367	1.164321
C133	C	1.012892	-0.813749	0.414141
C134	C	1.262892	-0.563749	0.664141
C135	C	1.512892	-0.313749	0.914141
C136	C	1.762892	-0.063749	1.164141
C137	C	1.070170	-0.782291	0.356938
C138	C	1.320170	-0.532291	0.606938
C139	C	1.570170	-0.282291	0.856938
C140	C	1.820170	-0.032291	1.106938
C141	C	1.049041	-0.813427	0.278887
C142	C	1.299041	-0.563427	0.528887
C143	C	1.549041	-0.313427	0.778887
C144	C	1.799041	-0.063427	1.028887
C145	C	1.048673	-0.899072	0.279230
C146	C	1.298673	-0.649072	0.529230
C147	C	1.548673	-0.399072	0.779230
C148	C	1.798673	-0.149072	1.029230
C149	C	1.148593	-0.899024	0.376959
C150	C	1.398593	-0.649024	0.626959
C151	C	1.648593	-0.399024	0.876959
C152	C	1.898593	-0.149024	1.126959
C153	C	1.148132	-0.813373	0.378671
C154	C	1.398132	-0.563373	0.628671
C155	C	1.648132	-0.313373	0.878671
C156	C	1.898132	-0.063373	1.128671
C157	C	1.070126	-0.698431	0.356923
C158	C	1.320126	-0.448431	0.606923
C159	C	1.570126	-0.198431	0.856923
C160	C	1.820126	0.051569	1.106923
C161	C	1.070293	-1.014533	0.356968
C162	C	1.320293	-0.764533	0.606968
C163	C	1.570293	-0.514533	0.856968
C164	C	1.820293	-0.264533	1.106968
C165	C	1.263324	-0.356880	0.356965
C166	C	1.513324	-0.106880	0.606965
C167	C	1.763324	0.143120	0.856965
C168	C	2.013324	0.393120	1.106965
C169	C	1.345638	-0.356890	0.356982
C170	C	1.595638	-0.106890	0.606982
C171	C	1.845638	0.143110	0.856982
C172	C	2.095638	0.393110	1.106982
C173	C	1.070205	-0.356839	0.550086
C174	C	1.320205	-0.106839	0.800086
C175	C	1.570205	0.143161	1.050086
C176	C	1.820205	0.393161	1.300086
C177	C	1.070223	-0.356831	0.632400
C178	C	1.320223	-0.106831	0.882400
C179	C	1.570223	0.143169	1.132400
C180	C	1.820223	0.393169	1.382400
C181	C	1.070282	-0.163696	0.356962
C182	C	1.320282	0.086304	0.606962
C183	C	1.570282	0.336304	0.856962
C184	C	1.820282	0.586304	1.106962
C185	C	1.070333	-0.081382	0.356978
C186	C	1.320333	0.168618	0.606978
C187	C	1.570333	0.418618	0.856978
C188	C	1.820333	0.668618	1.106978
C189	C	1.070162	-0.356823	0.164514
C190	C	1.320162	-0.106823	0.414514
C191	C	1.570162	0.143177	0.664514
C192	C	1.820162	0.393177	0.914514
C193	C	1.070287	-0.356622	0.082200
C194	C	1.320287	-0.106622	0.332200
C195	C	1.570287	0.143378	0.582200
C196	C	1.820287	0.393378	0.832200
C197	C	1.070266	-0.356692	0.931491
C198	C	1.320266	-0.106692	1.181491
C199	C	1.570266	0.143308	1.431491
C200	C	1.820266	0.393308	1.681491
C201	C	1.012801	-0.413737	0.900143
C202	C	1.262801	-0.163737	1.150143
C203	C	1.512801	0.086263	1.400143
C204	C	1.762801	0.336263	1.650143
C205	C	1.012956	-0.414001	0.814524
C206	C	1.262956	-0.164001	1.064524
C207	C	1.512956	0.085999	1.314524
C208	C	1.762956	0.335999	1.564524
C209	C	1.070244	-0.356761	0.783109
C210	C	1.320244	-0.106761	1.033109
C211	C	1.570244	0.143239	1.283109
C212	C	1.820244	0.393239	1.533109
C213	C	1.148270	-0.377948	0.814216
C214	C	1.398270	-0.127948	1.064216
C215	C	1.648270	0.122052	1.314216
C216	C	1.898270	0.372052	1.564216
C217	C	1.147949	-0.378323	0.899861
C218	C	1.397949	-0.128323	1.149861
C219	C	1.647949	0.121677	1.399861
C220	C	1.897949	0.371677	1.649861
C221	C	1.050385	-0.278334	0.899913
C222	C	1.300385	-0.028334	1.149913
C223	C	1.550385	0.221666	1.399913
C224	C	1.800385	0.471666	1.649913
C225	C	1.048649	-0.278787	0.814262
C226	C	1.298649	-0.028787	1.064262
C227	C	1.548649	0.221213	1.314262
C228	C	1.798649	0.471213	1.564262
C229	C	1.070237	-0.356799	0.699249
C230	C	1.320237	-0.106799	0.949249
C231	C	1.570237	0.143201	1.199249
C232	C	1.820237	0.393201	1.449249
C233	C	1.070279	-0.356656	1.015351
C234	C	1.320279	-0.106656	1.265351
C235	C	1.570279	0.143344	1.515351
C236	C	1.820279	0.393344	1.765351
H237	H	0.507118	-0.450428	0.277392
H238	H	0.757118	-0.200428	0.527392
H239	H	1.007118	0.049572	0.777392
H240	H	1.257118	0.299572	1.027392
Cl241	Cl	1.217278	-0.780301	0.318873
Cl242	Cl	1.467278	-0.530301	0.568873
Cl243	Cl	1.717278	-0.280301	0.818873
Cl244	Cl	1.967278	-0.030301	1.068873
H245	H	1.026082	-0.472083	0.794044
H246	H	1.276082	-0.222083	1.044044
H247	H	1.526082	0.027917	1.294044
H248	H	1.776082	0.277917	1.544044
H249	H	0.634921	-0.241876	0.313108
H250	H	0.884921	0.008124	0.563108
H251	H	1.134921	0.258124	0.813108
H252	H	1.384921	0.508124	1.063108
H253	H	1.164066	-0.793021	0.436113
H254	H	1.414066	-0.543021	0.686113
H255	H	1.664066	-0.293021	0.936113
H256	H	1.914066	-0.043021	1.186113
H257	H	1.191125	-0.919268	0.335180
H258	H	1.441125	-0.669268	0.585180
H259	H	1.691125	-0.419268	0.835180
H260	H	1.941125	-0.169268	1.085180
H261	H	0.633136	-0.278423	0.451910
H262	H	0.883136	-0.028423	0.701910
H263	H	1.133136	0.221577	0.951910
H264	H	1.383136	0.471577	1.201910
Cl265	Cl	0.924056	-0.932703	0.394138
Cl266	Cl	1.174056	-0.682703	0.644138
Cl267	Cl	1.424056	-0.432703	0.894138
Cl268	Cl	1.674056	-0.182703	1.144138
Cl269	Cl	0.494417	-0.248708	0.462072
Cl270	Cl	0.744417	0.001292	0.712072
Cl271	Cl	0.994417	0.251292	0.962072
Cl272	Cl	1.244417	0.501292	1.212072
Cl273	Cl	0.645165	-0.397300	0.502724
Cl274	Cl	0.895165	-0.147300	0.752724
Cl275	Cl	1.145165	0.102700	1.002724
Cl276	Cl	1.395165	0.352700	1.252724
Cl277	Cl	0.964066	-0.248533	0.933234
Cl278	Cl	1.214066	0.001467	1.183234
Cl279	Cl	1.464066	0.251467	1.433234
Cl280	Cl	1.714066	0.501467	1.683234
Cl281	Cl	0.646409	-0.464492	0.250098
Cl282	Cl	0.896409	-0.214492	0.500098
Cl283	Cl	1.146409	0.035508	0.750098
Cl284	Cl	1.396409	0.285508	1.000098
H285	H	1.192236	-0.337705	0.793869
H286	H	1.442236	-0.087705	1.043869
H287	H	1.692236	0.162295	1.293869
H288	H	1.942236	0.412295	1.543869
H289	H	0.954823	-0.793321	0.400891
H290	H	1.204823	-0.543321	0.650891
H291	H	1.454823	-0.293321	0.900891
H292	H	1.704823	-0.043321	1.150891
Cl293	Cl	0.496085	-0.398537	0.502622
Cl294	Cl	0.746085	-0.148537	0.752622
Cl295	Cl	0.996085	0.101463	1.002622
Cl296	Cl	1.246085	0.351463	1.252622
H297	H	1.192217	-0.338578	0.920600
H298	H	1.442217	-0.088578	1.170600
H299	H	1.692217	0.161422	1.420600
H300	H	1.942217	0.411422	1.670600
Cl301	Cl	0.959992	-0.254120	0.782880
Cl302	Cl	1.209992	-0.004120	1.032880
Cl303	Cl	1.459992	0.245880	1.282880
Cl304	Cl	1.709992	0.495880	1.532880
H305	H	1.088449	-0.919783	0.235032
H306	H	1.338449	-0.669783	0.485032
H307	H	1.588449	-0.419783	0.735032
H308	H	1.838449	-0.169783	0.985032
Cl309	Cl	0.496158	-0.209789	0.320809
Cl310	Cl	0.746158	0.040211	0.570809
Cl311	Cl	0.996158	0.290211	0.820809
Cl312	Cl	1.246158	0.540211	1.070809
Cl313	Cl	1.111215	-0.781969	0.211096
Cl314	Cl	1.361215	-0.531969	0.461096
Cl315	Cl	1.611215	-0.281969	0.711096
Cl316	Cl	1.861215	-0.031969	0.961096
H317	H	0.506086	-0.479685	0.373442
H318	H	0.756086	-0.229685	0.623442
H319	H	1.006086	0.020315	0.873442
H320	H	1.256086	0.270315	1.123442
Cl321	Cl	1.174744	-0.465446	0.781117
Cl322	Cl	1.424744	-0.215446	1.031117
Cl323	Cl	1.674744	0.034554	1.281117
Cl324	Cl	1.924744	0.284554	1.531117
Cl325	Cl	1.108563	-0.209683	0.781258
Cl326	Cl	1.358563	0.040317	1.031258
Cl327	Cl	1.608563	0.290317	1.281258
Cl328	Cl	1.858563	0.540317	1.531258
H329	H	0.954768	-0.400614	0.920728
H330	H	1.204768	-0.150614	1.170728
H331	H	1.454768	0.099386	1.420728
H332	H	1.704768	0.349386	1.670728
Cl333	Cl	1.115005	-0.212715	0.931215
Cl334	Cl	1.365005	0.037285	1.181215
Cl335	Cl	1.615005	0.287285	1.431215
Cl336	Cl	1.865005	0.537285	1.681215
H337	H	0.991406	-0.919110	0.262288
H338	H	1.241406	-0.669110	0.512288
H339	H	1.491406	-0.419110	0.762288
H340	H	1.741406	-0.169110	1.012288
Cl341	Cl	1.033365	-0.931111	0.503966
Cl342	Cl	1.283365	-0.681111	0.753966
Cl343	Cl	1.533365	-0.431111	1.003966
Cl344	Cl	1.783365	-0.181111	1.253966
H345	H	0.633399	-0.477831	0.378206
H346	H	0.883399	-0.227831	0.628206
H347	H	1.133399	0.022169	0.878206
H348	H	1.383399	0.272169	1.128206
Cl349	Cl	1.033298	-0.781241	0.503495
Cl350	Cl	1.283298	-0.531241	0.753495
Cl351	Cl	1.533298	-0.281241	1.003495
Cl352	Cl	1.783298	-0.031241	1.253495
H353	H	0.992380	-0.792037	0.261641
H354	H	1.242380	-0.542037	0.511641
H355	H	1.492380	-0.292037	0.761641
H356	H	1.742380	-0.042037	1.011641
Cl357	Cl	0.495241	-0.319376	0.210543
Cl358	Cl	0.745241	-0.069376	0.460543
Cl359	Cl	0.995241	0.180624	0.710543
Cl360	Cl	1.245241	0.430624	0.960543
H361	H	1.167856	-0.920583	0.432905
H362	H	1.417856	-0.670583	0.682905
H363	H	1.667856	-0.420583	0.932905
H364	H	1.917856	-0.170583	1.182905
H365	H	1.025796	-0.471464	0.921670
H366	H	1.275796	-0.221464	1.171670
H367	H	1.525796	0.028536	1.421670
H368	H	1.775796	0.278536	1.671670
Cl369	Cl	0.645115	-0.319348	0.210062
Cl370	Cl	0.895115	-0.069348	0.460062
Cl371	Cl	1.145115	0.180652	0.710062
Cl372	Cl	1.395115	0.430652	0.960062
H373	H	1.164804	-0.435604	0.919846
H374	H	1.414804	-0.185604	1.169846
H375	H	1.664804	0.064396	1.419846
H376	H	1.914804	0.314396	1.669846
Cl377	Cl	0.923627	-0.393528	0.782047
Cl378	Cl	1.173627	-0.143528	1.032047
Cl379	Cl	1.423627	0.106472	1.282047
Cl380	Cl	1.673627	0.356472	1.532047
