data_functionalizedCrystal
_audit_creation_method	'MofGen! by Chris Wilmer'
_symmetry_space_group_name_H-M	'P1'
_symmetry_Int_Tables_number	1
_symmetry_cell_setting	triclinic
loop_
_symmetry_equiv_pos_as_xyz
  x,y,z
_cell_length_a	25.639239
_cell_length_b	25.639243
_cell_length_c	19.076919
_cell_angle_alpha	92.278295
_cell_angle_beta	92.268407
_cell_angle_gamma	90.041410
loop_
_atom_site_label
_atom_site_type_symbol
_atom_site_fract_x
_atom_site_fract_y
_atom_site_fract_z
Zn1	Zn	-0.220002	0.787362	-0.397986
Zn2	Zn	0.279998	1.287362	0.102014
Zn3	Zn	-0.303924	0.790794	-0.280288
Zn4	Zn	0.196076	1.290794	0.219712
Zn5	Zn	-0.216509	0.703446	-0.280300
Zn6	Zn	0.283491	1.203446	0.219700
Zn7	Zn	-0.307411	0.699885	-0.397937
Zn8	Zn	0.192589	1.199885	0.102063
O9	O	-0.261962	0.745372	-0.339128
O10	O	0.238038	1.245372	0.160872
O11	O	-0.231137	0.860982	-0.382388
O12	O	0.268863	1.360982	0.117612
O13	O	-0.289406	0.782134	-0.181801
O14	O	0.210594	1.282134	0.318199
O15	O	-0.143808	0.714632	-0.295937
O16	O	0.356192	1.214632	0.204063
O17	O	-0.292794	0.863504	-0.295916
O18	O	0.207206	1.363504	0.204084
O19	O	-0.146375	0.776285	-0.382401
O20	O	0.353625	1.276285	0.117599
O21	O	-0.225183	0.717960	-0.181810
O22	O	0.274817	1.217960	0.318190
O23	O	-0.228565	0.629809	-0.295890
O24	O	0.271435	1.129809	0.204110
O25	O	-0.298738	0.708563	-0.496432
O26	O	0.201262	1.208563	0.003568
O27	O	-0.295350	0.627193	-0.382317
O28	O	0.204650	1.127193	0.117683
O29	O	-0.234519	0.772832	-0.496468
O30	O	0.265481	1.272832	0.003532
O31	O	-0.377551	0.778681	-0.295869
O32	O	0.122449	1.278681	0.204131
O33	O	-0.380113	0.711890	-0.382305
O34	O	0.119887	1.211890	0.117695
C35	C	-0.261957	0.609530	-0.339100
C36	C	0.238043	1.109530	0.160900
C37	C	-0.261968	0.551416	-0.339105
C38	C	0.238032	1.051416	0.160895
C39	C	-0.229912	0.189732	-0.384229
C40	C	0.270088	0.689732	0.115771
C41	C	-0.229911	0.135127	-0.384234
C42	C	0.270089	0.635127	0.115766
O43	O	-0.202645	0.105768	-0.422565
O44	O	0.297355	0.605768	0.077435
N45	N	-0.261961	0.109132	-0.339147
N46	N	0.238039	0.609132	0.160853
C47	C	-0.294008	0.137745	-0.294049
C48	C	0.205992	0.637745	0.205951
O49	O	-0.321268	0.110620	-0.255699
O50	O	0.178732	0.610620	0.244301
C51	C	-0.294006	0.192349	-0.294041
C52	C	0.205994	0.692349	0.205959
C53	C	-0.261958	0.218340	-0.339135
C54	C	0.238042	0.718340	0.160865
C55	C	-0.197867	0.215724	-0.429319
C56	C	0.302133	0.715724	0.070681
C57	C	-0.197868	0.270324	-0.429316
C58	C	0.302132	0.770324	0.070684
C59	C	-0.229914	0.298933	-0.384222
C60	C	0.270086	0.798933	0.115778
C61	C	-0.261959	0.272941	-0.339132
C62	C	0.238041	0.772941	0.160868
C63	C	-0.326050	0.220960	-0.248940
C64	C	0.173950	0.720960	0.251060
C65	C	-0.326044	0.275567	-0.248936
C66	C	0.173956	0.775567	0.251064
C67	C	-0.293997	0.301559	-0.294030
C68	C	0.206003	0.801559	0.205970
C69	C	-0.294007	0.356150	-0.294035
C70	C	0.205993	0.856150	0.205965
N71	N	-0.261958	0.382145	-0.339121
N72	N	0.238042	0.882145	0.160879
C73	C	-0.229911	0.353537	-0.384215
C74	C	0.270089	0.853537	0.115785
C75	C	-0.294011	0.023074	-0.294067
C76	C	0.205989	0.523074	0.205933
C77	C	-0.294017	-0.031529	-0.294077
C78	C	0.205983	0.468471	0.205923
C79	C	-0.229919	-0.034143	-0.384261
C80	C	0.270081	0.465857	0.115739
C81	C	-0.229917	0.020461	-0.384254
C82	C	0.270083	0.520461	0.115746
C83	C	-0.261962	0.049069	-0.339153
C84	C	0.238038	0.549069	0.160847
C85	C	-0.229916	0.468202	-0.384204
C86	C	0.270084	0.968202	0.115796
C87	C	-0.229922	0.522807	-0.384198
C88	C	0.270078	1.022807	0.115802
C89	C	-0.294018	0.525417	-0.294012
C90	C	0.205982	1.025417	0.205988
C91	C	-0.294014	0.470816	-0.294020
C92	C	0.205986	0.970816	0.205980
C93	C	-0.261960	0.442210	-0.339118
C94	C	0.238040	0.942210	0.160882
O95	O	-0.321258	0.385544	-0.255720
O96	O	0.178742	0.885544	0.244280
O97	O	-0.202651	0.380668	-0.422551
O98	O	0.297349	0.880668	0.077449
C99	C	-0.397803	0.745285	-0.339096
C100	C	0.102197	1.245285	0.160904
C101	C	-0.455918	0.745295	-0.339105
C102	C	0.044082	1.245295	0.160895
C103	C	-0.814937	0.780235	-0.294197
C104	C	-0.314937	1.280235	0.205803
C105	C	-0.869541	0.780255	-0.294207
C106	C	-0.369541	1.280255	0.205793
O107	O	-0.896635	0.809872	-0.255988
O108	O	-0.396635	1.309872	0.244012
N109	N	-0.898202	0.745463	-0.339175
N110	N	-0.398202	1.245463	0.160825
C111	C	-0.872256	0.710652	-0.384141
C112	C	-0.372256	1.210652	0.115859
O113	O	-0.901648	0.681060	-0.422391
O114	O	-0.401648	1.181060	0.077609
C115	C	-0.817652	0.710635	-0.384135
C116	C	-0.317652	1.210635	0.115865
C117	C	-0.788994	0.745426	-0.339159
C118	C	-0.288994	1.245426	0.160841
C119	C	-0.786279	0.815023	-0.249225
C120	C	-0.286279	1.315023	0.250775
C121	C	-0.731678	0.815002	-0.249215
C122	C	-0.231678	1.315002	0.250785
C123	C	-0.705735	0.780193	-0.294177
C124	C	-0.205735	1.280193	0.205823
C125	C	-0.734393	0.745405	-0.339149
C126	C	-0.234393	1.245405	0.160851
C127	C	-0.791707	0.675827	-0.429104
C128	C	-0.291707	1.175827	0.070896
C129	C	-0.737099	0.675813	-0.429095
C130	C	-0.237099	1.175813	0.070905
C131	C	-0.708441	0.710604	-0.384118
C132	C	-0.208441	1.210604	0.115882
C133	C	-0.653849	0.710575	-0.384100
C134	C	-0.153849	1.210575	0.115900
N135	N	-0.625189	0.745367	-0.339132
N136	N	-0.125189	1.245367	0.160868
C137	C	-0.651132	0.780176	-0.294170
C138	C	-0.151132	1.280176	0.205830
C139	C	-0.986926	0.710691	-0.384152
C140	C	-0.486926	1.210691	0.115848
C141	C	-1.041529	0.710705	-0.384155
C142	C	-0.541529	1.210705	0.115845
C143	C	-1.038811	0.780309	-0.294221
C144	C	-0.538811	1.280309	0.205779
C145	C	-0.984208	0.780292	-0.294215
C146	C	-0.484208	1.280292	0.205785
C147	C	-0.958266	0.745483	-0.339184
C148	C	-0.458266	1.245483	0.160816
C149	C	-0.536466	0.780130	-0.294152
C150	C	-0.036466	1.280130	0.205848
C151	C	-0.481860	0.780104	-0.294144
C152	C	0.018140	1.280104	0.205856
C153	C	-0.484583	0.710503	-0.384080
C154	C	0.015417	1.210503	0.115920
C155	C	-0.539184	0.710526	-0.384086
C156	C	-0.039184	1.210526	0.115914
C157	C	-0.565124	0.745344	-0.339120
C158	C	-0.065124	1.245344	0.160880
O159	O	-0.626721	0.680974	-0.422301
O160	O	-0.126721	1.180974	0.077699
O161	O	-0.621733	0.809767	-0.255933
O162	O	-0.121733	1.309767	0.244067
C163	C	-0.125590	0.745473	-0.339176
C164	C	0.374410	1.245473	0.160824
C165	C	-0.067477	0.745516	-0.339196
C166	C	0.432523	1.245516	0.160804
C167	C	-0.267407	0.739917	-0.522701
C168	C	0.232593	1.239917	-0.022701
C169	C	-0.269728	0.737593	-0.600930
C170	C	0.230272	1.237593	-0.100930
C171	C	-0.261966	0.881744	-0.339156
C172	C	0.238034	1.381744	0.160844
C173	C	-0.261968	0.939858	-0.339168
C174	C	0.238032	1.439858	0.160832
C175	C	-0.237384	0.769960	-0.637701
C176	C	0.262616	1.269960	-0.137701
C177	C	-0.239563	0.767770	-0.711205
C178	C	0.260437	1.267770	-0.211205
C179	C	-0.274088	0.733214	-0.747936
C180	C	0.225912	1.233214	-0.247936
C181	C	-0.306433	0.700843	-0.711159
C182	C	0.193567	1.200843	-0.211159
C183	C	-0.304251	0.703031	-0.637657
C184	C	0.195749	1.203031	-0.137657
C185	C	-0.284195	0.723079	-0.967762
C186	C	0.215805	1.223079	-0.467762
C187	C	-0.286375	0.720894	-1.041269
C188	C	0.213625	1.220894	-0.541269
C189	C	-0.219504	0.787821	-1.041310
C190	C	0.280496	1.287821	-0.541310
C191	C	-0.217328	0.790008	-0.967806
C192	C	0.282672	1.290008	-0.467806
C193	C	-0.249671	0.757635	-0.931036
C194	C	0.250329	1.257635	-0.431036
N195	N	-0.276317	0.730975	-0.823068
N196	N	0.223683	1.230975	-0.323068
N197	N	-0.247439	0.759871	-0.855905
N198	N	0.252561	1.259871	-0.355905
C199	C	-0.256499	0.750836	-0.156268
C200	C	0.243501	1.250836	0.343732
C201	C	-0.254032	0.753262	-0.078041
C202	C	0.245968	1.253262	0.421959
H203	H	-0.320111	0.046363	-0.257342
H204	H	0.179889	0.546363	0.242658
C205	C	-0.536383	0.641727	-0.472985
C206	C	-0.036383	1.141727	0.027015
C207	C	-0.570688	0.672284	-0.433523
C208	C	-0.070688	1.172284	0.066477
H209	H	-0.555831	0.618123	-0.503513
H210	H	-0.055831	1.118123	-0.003513
H211	H	-0.514212	0.622647	-0.442289
H212	H	-0.014212	1.122647	0.057711
H213	H	-0.515847	0.663688	-0.499924
H214	H	-0.015847	1.163688	0.000076
H215	H	-0.591222	0.650323	-0.406580
H216	H	-0.091222	1.150323	0.093420
H217	H	-0.592868	0.691365	-0.464223
H218	H	-0.092868	1.191365	0.035777
H219	H	-0.320116	0.449652	-0.257308
H220	H	0.179884	0.949652	0.242692
C221	C	-0.322464	0.610286	-0.253962
C222	C	0.177536	1.110286	0.246038
C223	C	-0.329239	0.556871	-0.244442
C224	C	0.170761	1.056871	0.255558
H225	H	-0.344204	0.629704	-0.223353
H226	H	0.155796	1.129704	0.276647
H227	H	-0.331578	0.617828	-0.301225
H228	H	0.168422	1.117828	0.198775
H229	H	-0.287016	0.619551	-0.243754
H230	H	0.212984	1.119551	0.256246
H231	H	-0.364687	0.547604	-0.254656
H232	H	0.135313	1.047604	0.245344
H233	H	-0.320129	0.549325	-0.197169
H234	H	0.179871	1.049325	0.302831
H235	H	-0.310539	0.696726	-0.937832
H236	H	0.189461	1.196726	-0.437832
H237	H	-0.203824	-0.057446	-0.420977
H238	H	0.296176	0.442554	0.079023
H239	H	-0.171771	0.291482	-0.466035
H240	H	0.328229	0.791482	0.033965
C241	C	-0.484667	0.848910	-0.205249
C242	C	0.015333	1.348910	0.294751
C243	C	-0.450360	0.818351	-0.244706
C244	C	0.049640	1.318351	0.255294
H245	H	-0.465221	0.872523	-0.174733
H246	H	0.034779	1.372523	0.325267
H247	H	-0.505196	0.826954	-0.178303
H248	H	-0.005196	1.326954	0.321697
H249	H	-0.506845	0.867983	-0.235953
H250	H	-0.006845	1.367983	0.264047
H251	H	-0.428185	0.799274	-0.214001
H252	H	0.071815	1.299274	0.285999
H253	H	-0.429822	0.840309	-0.271653
H254	H	0.070178	1.340309	0.228347
C255	C	-0.207583	0.862782	-0.885137
C256	C	0.292417	1.362782	-0.385137
C257	C	-0.179362	0.827970	-0.927418
C258	C	0.320638	1.327970	-0.427418
H259	H	-0.184140	0.886214	-0.860202
H260	H	0.315860	1.386214	-0.360202
H261	H	-0.226540	0.843817	-0.852734
H262	H	0.273460	1.343817	-0.352734
H263	H	-0.231200	0.881931	-0.913806
H264	H	0.268800	1.381931	-0.413806
H265	H	-0.155747	0.808818	-0.898749
H266	H	0.344253	1.308818	-0.398749
H267	H	-0.160396	0.846937	-0.959825
H268	H	0.339604	1.346937	-0.459825
H269	H	-0.463452	0.682160	-0.420685
H270	H	0.036548	1.182160	0.079315
C271	C	-0.925883	0.640040	-0.393835
C272	C	-0.425883	1.140040	0.106165
C273	C	-0.958412	0.672420	-0.433578
C274	C	-0.458412	1.172420	0.066422
H275	H	-0.908280	0.616417	-0.424350
H276	H	-0.408280	1.116417	0.075650
H277	H	-0.946304	0.620983	-0.363150
H278	H	-0.446304	1.120983	0.136850
H279	H	-0.900998	0.660762	-0.367059
H280	H	-0.400998	1.160762	0.132941
H281	H	-0.983300	0.651699	-0.460350
H282	H	-0.483300	1.151699	0.039650
H283	H	-0.937990	0.691479	-0.464275
H284	H	-0.437990	1.191479	0.035725
C285	C	-0.332567	0.611616	-0.733757
C286	C	0.167433	1.111616	-0.233757
C287	C	-0.344383	0.662857	-0.751531
C288	C	0.155617	1.162857	-0.251531
H289	H	-0.355996	0.588166	-0.758684
H290	H	0.144004	1.088166	-0.258684
H291	H	-0.335897	0.608290	-0.684725
H292	H	0.164103	1.108290	-0.184725
H293	H	-0.297794	0.603638	-0.745819
H294	H	0.202206	1.103638	-0.245819
H295	H	-0.379155	0.670836	-0.739464
H296	H	0.120845	1.170836	-0.239464
H297	H	-0.341057	0.666185	-0.800574
H298	H	0.158943	1.166185	-0.300574
H299	H	-0.320120	-0.052687	-0.257365
H300	H	0.179880	0.447313	0.242635
H301	H	-1.059944	0.808654	-0.257614
H302	H	-0.559944	1.308654	0.242386
C303	C	-0.204346	0.803032	-0.525048
C304	C	0.295654	1.303032	-0.025048
C305	C	-0.199432	0.807944	-0.597329
C306	C	0.300568	1.307944	-0.097329
H307	H	-0.180915	0.826484	-0.500127
H308	H	0.319085	1.326484	-0.000127
H309	H	-0.196337	0.768271	-0.512999
H310	H	0.303663	1.268271	-0.012999
H311	H	-0.239119	0.811020	-0.512997
H312	H	0.260881	1.311020	-0.012997
H313	H	-0.164660	0.799952	-0.609381
H314	H	0.335340	1.299952	-0.109381
H315	H	-0.207437	0.842713	-0.609383
H316	H	0.292563	1.342713	-0.109383
C317	C	-0.159898	0.583972	-0.394152
C318	C	0.340102	1.083972	0.105848
C319	C	-0.194693	0.551379	-0.433767
C320	C	0.305307	1.051379	0.066233
H321	H	-0.138153	0.601611	-0.424754
H322	H	0.361847	1.101611	0.075246
H323	H	-0.138957	0.563590	-0.363544
H324	H	0.361043	1.063590	0.136456
H325	H	-0.178990	0.608825	-0.367301
H326	H	0.321010	1.108825	0.132699
H327	H	-0.175601	0.526523	-0.460615
H328	H	0.324399	1.026523	0.039385
H329	H	-0.215636	0.571762	-0.464388
H330	H	0.284364	1.071762	0.035612
C331	C	-0.389391	0.229053	-0.159781
C332	C	0.110609	0.729053	0.340219
C333	C	-0.361273	0.192400	-0.199362
C334	C	0.138727	0.692400	0.300638
H335	H	-0.411133	0.211420	-0.129168
H336	H	0.088867	0.711420	0.370832
H337	H	-0.410335	0.249427	-0.190394
H338	H	0.089665	0.749427	0.309606
H339	H	-0.365771	0.251163	-0.132927
H340	H	0.134229	0.751163	0.367073
H341	H	-0.384893	0.170292	-0.226221
H342	H	0.115107	0.670292	0.273779
H343	H	-0.340327	0.172017	-0.168745
H344	H	0.159673	0.672017	0.331255
C345	C	-0.159881	0.406564	-0.394179
C346	C	0.340119	0.906564	0.105821
C347	C	-0.194684	0.436764	-0.433780
C348	C	0.305316	0.936764	0.066220
H349	H	-0.138131	0.387159	-0.424789
H350	H	0.361869	0.887159	0.075211
H351	H	-0.178963	0.383265	-0.367336
H352	H	0.321037	0.883265	0.132664
H353	H	-0.138941	0.428790	-0.363562
H354	H	0.361059	0.928790	0.136438
H355	H	-0.215627	0.414539	-0.464394
H356	H	0.284373	0.914539	0.035606
H357	H	-0.175601	0.460066	-0.460635
H358	H	0.324399	0.960066	0.039365
C359	C	-0.597487	0.850797	-0.284475
C360	C	-0.097487	1.350797	0.215525
C361	C	-0.564968	0.818409	-0.244729
C362	C	-0.064968	1.318409	0.255271
H363	H	-0.615078	0.874432	-0.253963
H364	H	-0.115078	1.374432	0.246037
H365	H	-0.622377	0.830085	-0.311243
H366	H	-0.122377	1.330085	0.188757
H367	H	-0.577057	0.869846	-0.315169
H368	H	-0.077057	1.369846	0.184831
H369	H	-0.585399	0.799358	-0.214039
H370	H	-0.085399	1.299358	0.285961
H371	H	-0.540075	0.839124	-0.217950
H372	H	-0.040075	1.339124	0.282050
C373	C	-0.159888	0.081617	-0.394202
C374	C	0.340112	0.581617	0.105798
C375	C	-0.194687	0.049029	-0.433818
C376	C	0.305313	0.549029	0.066182
H377	H	-0.138140	0.099254	-0.424804
H378	H	0.361860	0.599254	0.075196
H379	H	-0.138949	0.061232	-0.363596
H380	H	0.361051	0.561232	0.136404
H381	H	-0.178976	0.106472	-0.367349
H382	H	0.321024	0.606472	0.132651
H383	H	-0.175599	0.024172	-0.460668
H384	H	0.324401	0.524172	0.039332
H385	H	-0.215628	0.069416	-0.464437
H386	H	0.284372	0.569416	0.035563
H387	H	-0.213226	0.794128	-0.741141
H388	H	0.286774	1.294128	-0.241141
H389	H	-0.193172	0.814176	-1.071256
H390	H	0.306828	1.314176	-0.571256
H391	H	-0.330584	0.676668	-0.607718
H392	H	0.169416	1.176668	-0.107718
C393	C	-0.711350	0.844091	-0.130070
C394	C	-0.211350	1.344091	0.369930
C395	C	-0.700184	0.853253	-0.199783
C396	C	-0.200184	1.353253	0.300217
H397	H	-0.691913	0.867711	-0.099554
H398	H	-0.191913	1.367711	0.400446
H399	H	-0.702126	0.809279	-0.119721
H400	H	-0.202126	1.309279	0.380279
H401	H	-0.747586	0.849077	-0.123656
H402	H	-0.247586	1.349077	0.376344
H403	H	-0.663949	0.848263	-0.206198
H404	H	-0.163949	1.348263	0.293802
H405	H	-0.709406	0.888073	-0.210136
H406	H	-0.209406	1.388073	0.289864
C407	C	-0.987018	0.849091	-0.205321
C408	C	-0.487018	1.349091	0.294679
C409	C	-0.952709	0.818538	-0.244781
C410	C	-0.452709	1.318538	0.255219
H411	H	-0.967574	0.872705	-0.174805
H412	H	-0.467574	1.372705	0.325195
H413	H	-1.007544	0.827132	-0.178375
H414	H	-0.507544	1.327132	0.321625
H415	H	-1.009200	0.868163	-0.236023
H416	H	-0.509200	1.368163	0.263977
H417	H	-0.930530	0.799462	-0.214079
H418	H	-0.430530	1.299462	0.285921
H419	H	-0.932175	0.840499	-0.271728
H420	H	-0.432175	1.340499	0.228272
C421	C	-0.396068	0.337216	-0.238972
C422	C	0.103932	0.837216	0.261028
C423	C	-0.361272	0.307015	-0.199362
C424	C	0.138728	0.807015	0.300638
H425	H	-0.417813	0.356631	-0.208367
H426	H	0.082187	0.856631	0.291633
H427	H	-0.417009	0.314994	-0.269581
H428	H	0.082991	0.814994	0.230419
H429	H	-0.376978	0.360510	-0.265822
H430	H	0.123022	0.860510	0.234178
H431	H	-0.380362	0.283717	-0.172515
H432	H	0.119638	0.783717	0.327485
H433	H	-0.340328	0.329238	-0.168740
H434	H	0.159672	0.829238	0.331260
C435	C	-0.352252	0.654950	-1.033850
C436	C	0.147748	1.154950	-0.533850
C437	C	-0.324326	0.682905	-1.081645
C438	C	0.175674	1.182905	-0.581645
H439	H	-0.375678	0.631498	-1.058778
H440	H	0.124322	1.131498	-0.558778
H441	H	-0.371403	0.678565	-1.005180
H442	H	0.128597	1.178565	-0.505180
H443	H	-0.328614	0.635822	-1.005184
H444	H	0.171386	1.135822	-0.505184
H445	H	-0.347964	0.702036	-1.110308
H446	H	0.152036	1.202036	-0.610308
H447	H	-0.305174	0.659287	-1.110327
H448	H	0.194826	1.159287	-0.610327
H449	H	-0.171768	0.192436	-0.466040
H450	H	0.328232	0.692436	0.033960
H451	H	-0.807396	0.843372	-0.212612
H452	H	-0.307396	1.343372	0.287388
H453	H	-0.715980	0.647468	-0.465716
H454	H	-0.215980	1.147468	0.034284
H455	H	-1.064858	0.682370	-0.420773
H456	H	-0.564858	1.182370	0.079227
H457	H	-0.815031	0.647494	-0.465725
H458	H	-0.315031	1.147494	0.034275
