data_functionalizedCrystal
_audit_creation_method	'MofGen! by Chris Wilmer'
_symmetry_space_group_name_H-M	'P1'
_symmetry_Int_Tables_number	1
_symmetry_cell_setting	triclinic
loop_
_symmetry_equiv_pos_as_xyz
  x,y,z
_cell_length_a	15.297327
_cell_length_b	13.033286
_cell_length_c	13.032328
_cell_angle_alpha	105.163687
_cell_angle_beta	105.379702
_cell_angle_gamma	91.357096
loop_
_atom_site_label
_atom_site_type_symbol
_atom_site_fract_x
_atom_site_fract_y
_atom_site_fract_z
Zn1	Zn	-0.571802	1.416069	-0.525160
Zn2	Zn	-0.705675	1.407762	-0.378295
Zn3	Zn	-0.537871	1.268818	-0.362381
Zn4	Zn	-0.705637	1.207684	-0.578439
O5	O	-0.630246	1.325083	-0.461069
O6	O	-0.603778	1.560326	-0.490040
O7	O	-0.669231	1.411439	-0.224300
O8	O	-0.416135	1.317413	-0.355016
O9	O	-0.702134	1.554222	-0.382140
O10	O	-0.441064	1.425598	-0.474609
O11	O	-0.545946	1.309357	-0.212608
O12	O	-0.545908	1.115350	-0.406679
O13	O	-0.702068	1.213219	-0.723256
O14	O	-0.669165	1.070435	-0.565416
O15	O	-0.603740	1.366319	-0.684112
O16	O	-0.831907	1.352160	-0.433803
O17	O	-0.831879	1.205163	-0.580848
C18	C	-0.603851	1.055202	-0.490103
C19	C	-0.592583	0.939737	-0.502555
C20	C	-0.636130	0.885274	-0.454597
C21	C	-0.624485	0.765935	-0.467466
C22	C	-0.864630	1.271151	-0.514855
C23	C	-0.964913	1.248168	-0.537890
C24	C	-1.247568	1.489719	-0.296753
C25	C	-1.153346	1.511313	-0.275105
C26	C	-1.106233	1.445529	-0.340799
C27	C	-1.153351	1.358147	-0.428146
C28	C	-1.247580	1.336546	-0.449791
C29	C	-1.106246	1.292356	-0.493837
C30	C	-1.153364	1.204974	-0.581184
C31	C	-1.247584	1.183377	-0.602826
C32	C	-1.294697	1.249161	-0.537132
C33	C	-1.012017	1.313956	-0.472192
C34	C	-1.012029	1.160783	-0.625230
C35	C	-1.106251	1.139190	-0.646879
C36	C	-0.394952	1.379251	-0.407094
C37	C	-0.294684	1.402334	-0.384093
C38	C	-0.656685	1.283876	-0.744167
C39	C	-0.667951	1.266316	-0.864807
C40	C	-0.656745	1.596018	-0.431922
C41	C	-0.668037	1.711474	-0.419502
C42	C	-0.635974	1.316102	-1.023911
C43	C	-0.624322	1.334248	-0.899223
C44	C	-0.603852	1.366205	-0.179051
C45	C	-0.592351	1.384025	-0.058332
H46	H	-0.973662	1.385103	-0.401073
H47	H	-0.578582	0.724216	-0.518058
N48	N	-0.728860	1.171487	-0.948027
H49	H	-0.705766	1.103337	-0.933133
H50	H	-0.728533	1.172059	-1.025269
H51	H	-0.681945	1.244516	-1.086752
N52	N	-1.004609	1.468814	-0.317453
H53	H	-0.981909	1.534151	-0.252153
H54	H	-0.990764	1.482173	-0.384710
N55	N	-1.102531	1.605562	-0.180913
H56	H	-1.146672	1.643963	-0.142586
H57	H	-1.072219	1.656127	-0.210988
H58	H	-1.285942	1.112215	-0.673939
H59	H	-0.546372	1.455605	-0.995490
H60	H	-0.682036	0.926995	-0.404017
N61	N	-0.728850	0.766711	-0.352489
H62	H	-0.779189	0.795704	-0.401299
H63	H	-0.691728	0.827430	-0.289021
N64	N	-0.531783	0.884483	-0.569571
H65	H	-0.532085	0.807063	-0.569266
H66	H	-0.467598	0.920651	-0.535992
H67	H	-1.285935	1.543265	-0.243268
H68	H	-1.371420	1.231586	-0.554756
H69	H	-1.144627	1.068042	-0.717997
H70	H	-0.973670	1.107214	-0.678723
H71	H	-0.578340	1.405833	-0.836383
