data_functionalizedCrystal
_audit_creation_method	'MofGen! by Chris Wilmer'
_symmetry_space_group_name_H-M	'P1'
_symmetry_Int_Tables_number	1
_symmetry_cell_setting	triclinic
loop_
_symmetry_equiv_pos_as_xyz
  x,y,z
_cell_length_a	25.639242
_cell_length_b	25.639240
_cell_length_c	12.759393
_cell_angle_alpha	90.030960
_cell_angle_beta	90.031512
_cell_angle_gamma	90.027587
loop_
_atom_site_label
_atom_site_type_symbol
_atom_site_fract_x
_atom_site_fract_y
_atom_site_fract_z
Zn1	Zn	0.799297	-0.208188	0.594313
Zn2	Zn	1.132631	0.125146	0.927646
Zn3	Zn	1.465964	0.458479	1.260980
Zn4	Zn	0.799217	-0.295633	0.418632
Zn5	Zn	1.132550	0.037700	0.751965
Zn6	Zn	1.465883	0.371034	1.085298
Zn7	Zn	0.711859	-0.208206	0.418616
Zn8	Zn	1.045193	0.125127	0.751949
Zn9	Zn	1.378526	0.458460	1.085282
Zn10	Zn	0.711829	-0.295587	0.594236
Zn11	Zn	1.045162	0.037746	0.927570
Zn12	Zn	1.378496	0.371079	1.260903
O13	O	0.755551	-0.251904	0.506449
O14	O	1.088884	0.081430	0.839783
O15	O	1.422217	0.414763	1.173116
O16	O	0.872452	-0.219799	0.571047
O17	O	1.205785	0.113534	0.904381
O18	O	1.539119	0.446868	1.237714
O19	O	0.787608	-0.284062	0.271608
O20	O	1.120941	0.049271	0.604942
O21	O	1.454274	0.382604	0.938275
O22	O	0.723505	-0.135039	0.441948
O23	O	1.056838	0.198295	0.775281
O24	O	1.390172	0.531628	1.108614
O25	O	0.872393	-0.284044	0.441975
O26	O	1.205726	0.049289	0.775308
O27	O	1.539059	0.382622	1.108642
O28	O	0.787745	-0.135025	0.571032
O29	O	1.121078	0.198308	0.904365
O30	O	1.454412	0.531642	1.237698
O31	O	0.723427	-0.219831	0.271597
O32	O	1.056760	0.113503	0.604930
O33	O	1.390093	0.446836	0.938263
O34	O	0.638690	-0.219786	0.441874
O35	O	0.972024	0.113547	0.775207
O36	O	1.305357	0.446880	1.108540
O37	O	0.723453	-0.283967	0.741268
O38	O	1.056786	0.049367	1.074601
O39	O	1.390119	0.382700	1.407934
O40	O	0.638668	-0.283985	0.570901
O41	O	0.972001	0.049349	0.904235
O42	O	1.305334	0.382682	1.237568
O43	O	0.787716	-0.219755	0.741324
O44	O	1.121049	0.113579	1.074657
O45	O	1.454382	0.446912	1.407991
O46	O	0.787578	-0.368792	0.441901
O47	O	1.120911	-0.035459	0.775234
O48	O	1.454245	0.297875	1.108567
O49	O	0.723375	-0.368758	0.570917
O50	O	1.056708	-0.035425	0.904250
O51	O	1.390041	0.297908	1.237583
C52	C	0.755478	-0.387746	0.506425
C53	C	1.088812	-0.054413	0.839758
C54	C	1.422145	0.278921	1.173092
C55	C	0.755495	-0.445860	0.506450
C56	C	1.088829	-0.112527	0.839783
C57	C	1.422162	0.220807	1.173116
C58	C	0.619708	-0.251883	0.506378
C59	C	0.953041	0.081450	0.839711
C60	C	1.286375	0.414784	1.173045
C61	C	0.561594	-0.251887	0.506372
C62	C	0.894927	0.081447	0.839706
C63	C	1.228261	0.414780	1.173039
C64	C	0.788998	-0.696995	0.573732
C65	C	1.122331	-0.363662	0.907065
C66	C	1.455664	-0.030329	1.240399
C67	C	0.788982	-0.642391	0.573724
C68	C	1.122315	-0.309058	0.907057
C69	C	1.455649	0.024276	1.240391
O70	O	0.817407	-0.614105	0.630895
O71	O	1.150740	-0.280771	0.964228
O72	O	1.484073	0.052562	1.297561
N73	N	0.755553	-0.615134	0.506463
N74	N	1.088886	-0.281801	0.839796
N75	N	1.422219	0.051533	1.173130
C76	C	0.722141	-0.642484	0.439198
C77	C	1.055474	-0.309151	0.772531
C78	C	1.388807	0.024182	1.105865
O79	O	0.693705	-0.614286	0.381986
O80	O	1.027039	-0.280953	0.715319
O81	O	1.360372	0.052380	1.048652
C82	C	0.722159	-0.697088	0.439201
C83	C	1.055493	-0.363754	0.772535
C84	C	1.388826	-0.030421	1.105868
C85	C	0.755587	-0.724342	0.506474
C86	C	1.088920	-0.391008	0.839808
C87	C	1.422254	-0.057675	1.173141
C88	C	0.822423	-0.724249	0.640999
C89	C	1.155756	-0.390916	0.974332
C90	C	1.489090	-0.057583	1.307665
C91	C	0.822438	-0.778850	0.641008
C92	C	1.155771	-0.445516	0.974341
C93	C	1.489105	-0.112183	1.307674
C94	C	0.789027	-0.806196	0.573750
C95	C	1.122361	-0.472863	0.907083
C96	C	1.455694	-0.139530	1.240417
C97	C	0.755602	-0.778942	0.506483
C98	C	1.088935	-0.445609	0.839817
C99	C	1.422269	-0.112276	1.173150
C100	C	0.688750	-0.724437	0.371932
C101	C	1.022084	-0.391104	0.705265
C102	C	1.355417	-0.057770	1.038599
C103	C	0.688772	-0.779044	0.371941
C104	C	1.022106	-0.445711	0.705274
C105	C	1.355439	-0.112377	1.038607
C106	C	0.722200	-0.806298	0.439214
C107	C	1.055533	-0.472965	0.772547
C108	C	1.388867	-0.139631	1.105880
C109	C	0.722206	-0.860889	0.439235
C110	C	1.055540	-0.527556	0.772568
C111	C	1.388873	-0.194223	1.105902
N112	N	0.755636	-0.888146	0.506496
N113	N	1.088969	-0.554813	0.839829
N114	N	1.422302	-0.221479	1.173163
C115	C	0.789046	-0.860800	0.573754
C116	C	1.122379	-0.527466	0.907087
C117	C	1.455713	-0.194133	1.240420
C118	C	0.722104	-0.527814	0.439195
C119	C	1.055438	-0.194480	0.772528
C120	C	1.388771	0.138853	1.105861
C121	C	0.722083	-0.473211	0.439196
C122	C	1.055416	-0.139878	0.772529
C123	C	1.388749	0.193455	1.105862
C124	C	0.788925	-0.473122	0.573721
C125	C	1.122258	-0.139788	0.907054
C126	C	1.455591	0.193545	1.240387
C127	C	0.788944	-0.527725	0.573724
C128	C	1.122277	-0.194392	0.907057
C129	C	1.455610	0.138942	1.240391
C130	C	0.755534	-0.555071	0.506456
C131	C	1.088867	-0.221737	0.839789
C132	C	1.422200	0.111596	1.173122
C133	C	0.789075	-0.975465	0.573768
C134	C	1.122408	-0.642131	0.907101
C135	C	1.455741	-0.308798	1.240435
C136	C	0.789085	-1.030070	0.573774
C137	C	1.122418	-0.696737	0.907108
C138	C	1.455752	-0.363403	1.240441
C139	C	0.722245	-1.030155	0.439246
C140	C	1.055578	-0.696822	0.772579
C141	C	1.388912	-0.363488	1.105913
C142	C	0.722232	-0.975554	0.439243
C143	C	1.055566	-0.642221	0.772577
C144	C	1.388899	-0.308888	1.105910
C145	C	0.755651	-0.948211	0.506508
C146	C	1.088985	-0.614877	0.839841
C147	C	1.422318	-0.281544	1.173174
O148	O	0.693798	-0.889210	0.382090
O149	O	1.027131	-0.555877	0.715424
O150	O	1.360464	-0.222543	1.048757
O151	O	0.817481	-0.889004	0.630946
O152	O	1.150815	-0.555671	0.964280
O153	O	1.484148	-0.222338	1.297613
C154	C	0.201228	-0.285387	0.573570
C155	C	0.534562	0.047946	0.906904
C156	C	0.867895	0.381279	1.240237
C157	C	0.146624	-0.285391	0.573587
C158	C	0.479957	0.047943	0.906920
C159	C	0.813291	0.381276	1.240254
O160	O	0.118385	-0.313849	0.630661
O161	O	0.451718	0.019485	0.963994
O162	O	0.785051	0.352818	1.297327
N163	N	0.119312	-0.251918	0.506518
N164	N	0.452645	0.081415	0.839851
N165	N	0.785978	0.414749	1.173184
C166	C	0.146606	-0.218436	0.439435
C167	C	0.479940	0.114897	0.772769
C168	C	0.813273	0.448231	1.106102
O169	O	0.118361	-0.189965	0.382390
O170	O	0.451695	0.143368	0.715723
O171	O	0.785028	0.476702	1.049057
C172	C	0.201210	-0.218431	0.439425
C173	C	0.534543	0.114903	0.772758
C174	C	0.867876	0.448236	1.106091
C175	C	0.228519	-0.251909	0.506491
C176	C	0.561853	0.081424	0.839824
C177	C	0.895186	0.414757	1.173157
C178	C	0.228538	-0.318863	0.640632
C179	C	0.561871	0.014470	0.973965
C180	C	0.895204	0.347804	1.307298
C181	C	0.283138	-0.318860	0.640613
C182	C	0.616472	0.014473	0.973947
C183	C	0.949805	0.347806	1.307280
C184	C	0.310429	-0.285382	0.573534
C185	C	0.643763	0.047951	0.906867
C186	C	0.977096	0.381284	1.240201
C187	C	0.283120	-0.251907	0.506472
C188	C	0.616453	0.081427	0.839806
C189	C	0.949786	0.414760	1.173139
C190	C	0.228504	-0.184947	0.372348
C191	C	0.561837	0.148387	0.705682
C192	C	0.895170	0.481720	1.039015
C193	C	0.283111	-0.184944	0.372344
C194	C	0.616444	0.148390	0.705677
C195	C	0.949777	0.481723	1.039011
C196	C	0.310420	-0.218422	0.439410
C197	C	0.643753	0.114911	0.772743
C198	C	0.977087	0.448244	1.106077
C199	C	0.365011	-0.218426	0.439375
C200	C	0.698345	0.114907	0.772708
C201	C	1.031678	0.448241	1.106041
N202	N	0.392324	-0.251899	0.506444
N203	N	0.725657	0.081435	0.839777
N204	N	1.058990	0.414768	1.173110
C205	C	0.365033	-0.285377	0.573523
C206	C	0.698366	0.047957	0.906857
C207	C	1.031699	0.381290	1.240190
C208	C	0.031936	-0.218449	0.439464
C209	C	0.365269	0.114884	0.772797
C210	C	0.698602	0.448217	1.106130
C211	C	-0.022667	-0.218457	0.439468
C212	C	0.310667	0.114876	0.772801
C213	C	0.644000	0.448210	1.106135
C214	C	-0.022645	-0.285411	0.573621
C215	C	0.310688	0.047922	0.906955
C216	C	0.644021	0.381256	1.240288
C217	C	0.031958	-0.285406	0.573611
C218	C	0.365291	0.047928	0.906944
C219	C	0.698625	0.381261	1.240278
C220	C	0.059248	-0.251922	0.506533
C221	C	0.392581	0.081411	0.839866
C222	C	0.725915	0.414744	1.173199
C223	C	0.479698	-0.285369	0.573479
C224	C	0.813031	0.047964	0.906813
C225	C	1.146364	0.381298	1.240146
C226	C	0.534303	-0.285365	0.573452
C227	C	0.867636	0.047968	0.906785
C228	C	1.200970	0.381302	1.240119
C229	C	0.534277	-0.218409	0.439303
C230	C	0.867610	0.114924	0.772636
C231	C	1.200944	0.448257	1.105970
C232	C	0.479676	-0.218415	0.439326
C233	C	0.813010	0.114918	0.772659
C234	C	1.146343	0.448252	1.105993
C235	C	0.452388	-0.251897	0.506423
C236	C	0.785721	0.081437	0.839756
C237	C	1.119055	0.414770	1.173089
O238	O	0.393285	-0.189981	0.382333
O239	O	0.726618	0.143352	0.715666
O240	O	1.059952	0.476686	1.049000
O241	O	0.393284	-0.313838	0.630569
O242	O	0.726618	0.019495	0.963902
O243	O	1.059951	0.352828	1.297236
C244	C	0.891924	-0.251925	0.506521
C245	C	1.225257	0.081409	0.839855
C246	C	1.558590	0.414742	1.173188
C247	C	0.950038	-0.251934	0.506552
C248	C	1.283371	0.081400	0.839885
C249	C	1.616704	0.414733	1.173219
C250	C	0.755590	-0.251853	0.780483
C251	C	1.088923	0.081480	1.113816
C252	C	1.422256	0.414813	1.447149
C253	C	0.755606	-0.251832	0.897259
C254	C	1.088940	0.081501	1.230593
C255	C	1.422273	0.414835	1.563926
C256	C	0.755637	-0.115531	0.506497
C257	C	1.088971	0.217803	0.839830
C258	C	1.422304	0.551136	1.173163
C259	C	0.755674	-0.057416	0.506517
C260	C	1.089008	0.275917	0.839850
C261	C	1.422341	0.609250	1.173183
C262	C	0.755542	-0.251916	0.233482
C263	C	1.088875	0.081417	0.566815
C264	C	1.422208	0.414751	0.900149
C265	C	0.755626	-0.251790	0.116706
C266	C	1.088960	0.081543	0.450039
C267	C	1.422293	0.414877	0.783372
C268	C	0.789071	-0.218391	0.952152
C269	C	1.122404	0.114942	1.285486
C270	C	1.455737	0.448275	1.618819
C271	C	0.789079	-0.218369	1.061877
C272	C	1.122413	0.114964	1.395210
C273	C	1.455746	0.448298	1.728543
C274	C	0.722159	-0.285232	1.061805
C275	C	1.055492	0.048101	1.395138
C276	C	1.388825	0.381435	1.728472
C277	C	0.722148	-0.285251	0.952083
C278	C	1.055481	0.048082	1.285416
C279	C	1.388814	0.381415	1.618750
C280	C	0.807816	-0.156684	1.211863
C281	C	1.141149	0.176650	1.545196
C282	C	1.474482	0.509983	1.878529
C283	C	0.841288	-0.123248	1.266759
C284	C	1.174621	0.210085	1.600093
C285	C	1.507955	0.543419	1.933426
C286	C	0.892306	-0.115236	1.231187
C287	C	1.225639	0.218098	1.564520
C288	C	1.558973	0.551431	1.897854
C289	C	0.909862	-0.140667	1.140720
C290	C	1.243196	0.192666	1.474053
C291	C	1.576529	0.526000	1.807386
C292	C	0.876393	-0.174107	1.085829
C293	C	1.209726	0.159226	1.419162
C294	C	1.543059	0.492560	1.752495
C295	C	0.825367	-0.182109	1.121399
C296	C	1.158701	0.151224	1.454733
C297	C	1.492034	0.484558	1.788066
C298	C	0.703417	-0.346937	0.802095
C299	C	1.036750	-0.013604	1.135428
C300	C	1.370083	0.319729	1.468762
C301	C	0.669949	-0.380380	0.747202
C302	C	1.003283	-0.047047	1.080535
C303	C	1.336616	0.286287	1.413869
C304	C	0.618930	-0.388398	0.782772
C305	C	0.952264	-0.055064	1.116105
C306	C	1.285597	0.278269	1.449439
C307	C	0.601376	-0.362975	0.873243
C308	C	0.934709	-0.029642	1.206576
C309	C	1.268043	0.303691	1.539910
C310	C	0.634843	-0.329533	0.928136
C311	C	0.968177	0.003801	1.261469
C312	C	1.301510	0.337134	1.594803
C313	C	0.685862	-0.321514	0.892558
C314	C	1.019195	0.011819	1.225891
C315	C	1.352528	0.345152	1.559225
H316	H	0.816305	-1.052258	0.628562
H317	H	1.149638	-0.718924	0.961896
H318	H	1.482972	-0.385591	1.295229
F319	F	0.060975	-0.182813	0.368058
F320	F	0.394309	0.150521	0.701392
F321	F	0.727642	0.483854	1.034725
F322	F	0.753514	-0.165202	1.249720
F323	F	1.086847	0.168131	1.583054
F324	F	1.420180	0.501465	1.916387
H325	H	0.206323	-0.346125	0.695262
H326	H	0.539656	-0.012792	1.028595
H327	H	0.872990	0.320542	1.361928
F328	F	0.895074	-0.201173	0.989554
F329	F	1.228408	0.132161	1.322887
F330	F	1.561741	0.465494	1.656221
F331	F	0.199450	-0.149311	0.300971
F332	F	0.532784	0.184023	0.634305
F333	F	0.866117	0.517356	0.967638
F334	F	0.757712	-0.338393	0.764212
F335	F	1.091046	-0.005059	1.097545
F336	F	1.424379	0.328274	1.430878
F337	F	-0.051700	-0.321038	0.645022
F338	F	0.281633	0.012295	0.978356
F339	F	0.614967	0.345629	1.311689
H340	H	0.305369	-0.346121	0.695228
H341	H	0.638702	-0.012788	1.028561
H342	H	0.972035	0.320546	1.361894
H343	H	0.054190	-0.312666	0.628224
H344	H	0.387523	0.020667	0.961557
H345	H	0.720856	0.354000	1.294890
F346	F	0.563332	-0.182781	0.367915
F347	F	0.896665	0.150552	0.701249
F348	F	1.229998	0.483885	1.034582
F349	F	0.653168	-0.695443	0.300336
F350	F	0.986502	-0.362110	0.633669
F351	F	1.319835	-0.028776	0.967002
H352	H	0.694919	-0.312442	1.106456
H353	H	1.028252	0.020891	1.439789
H354	H	1.361585	0.354225	1.773122
F355	F	0.312151	-0.149304	0.300950
F356	F	0.645485	0.184029	0.634283
F357	F	0.978818	0.517363	0.967616
H358	H	0.661566	-0.801306	0.317160
H359	H	0.994899	-0.467973	0.650493
H360	H	1.328233	-0.134639	0.983827
H361	H	0.695007	-0.953364	0.384474
H362	H	1.028341	-0.620030	0.717808
H363	H	1.361674	-0.286697	1.051141
H364	H	0.695042	-1.052430	0.384489
H365	H	1.028375	-0.719097	0.717822
H366	H	1.361708	-0.385764	1.051156
F367	F	-0.051725	-0.182831	0.368075
F368	F	0.281608	0.150502	0.701408
F369	F	0.614941	0.483836	1.034741
F370	F	0.824522	-0.556726	0.645322
F371	F	1.157856	-0.223393	0.978656
F372	F	1.491189	0.109941	1.311989
F373	F	0.450611	-0.182791	0.367932
F374	F	0.783944	0.150542	0.701265
F375	F	1.117277	0.483875	1.034599
F376	F	0.858016	-0.807849	0.712611
F377	F	1.191349	-0.474515	1.045945
F378	F	1.524682	-0.141182	1.379278
F379	F	0.563365	-0.321000	0.644834
F380	F	0.896698	0.012333	0.978167
F381	F	1.230031	0.345667	1.311500
F382	F	0.616159	-0.302475	1.024424
F383	F	0.949492	0.030858	1.357757
F384	F	1.282825	0.364192	1.691090
H385	H	0.816314	-0.191178	0.907518
H386	H	1.149647	0.142156	1.240852
H387	H	1.482980	0.475489	1.574185
H388	H	0.919559	-0.088011	1.275892
H389	H	1.252893	0.245322	1.609225
H390	H	1.586226	0.578656	1.942558
F391	F	0.686539	-0.556912	0.367601
F392	F	1.019872	-0.223579	0.700934
F393	F	1.353206	0.109754	1.034268
F394	F	0.450663	-0.321004	0.644891
F395	F	0.783996	0.012329	0.978224
F396	F	1.117330	0.345663	1.311558
F397	F	0.964166	-0.132144	1.102876
F398	F	1.297500	0.201189	1.436210
F399	F	1.630833	0.534522	1.769543
H400	H	0.826989	-0.102542	1.340418
H401	H	1.160322	0.230792	1.673751
H402	H	1.493656	0.564125	2.007085
F403	F	0.547076	-0.371509	0.911105
F404	F	0.880410	-0.038176	1.244438
F405	F	1.213743	0.295158	1.577772
F406	F	0.583316	-0.424000	0.724358
F407	F	0.916649	-0.090667	1.057691
F408	F	1.249983	0.242666	1.391024
H409	H	0.694857	-0.451025	0.384427
H410	H	1.028190	-0.117692	0.717761
H411	H	1.361524	0.215642	1.051094
F412	F	0.824643	-0.946371	0.645358
F413	F	1.157976	-0.613038	0.978692
F414	F	1.491310	-0.279704	1.312025
F415	F	0.824486	-0.444008	0.645298
F416	F	1.157819	-0.110675	0.978631
F417	F	1.491153	0.222659	1.311964
F418	F	0.857987	-0.695153	0.712589
F419	F	1.191320	-0.361820	1.045922
F420	F	1.524653	-0.028487	1.379256
F421	F	0.688636	-0.407441	0.650920
F422	F	1.021969	-0.074108	0.984253
F423	F	1.355302	0.259225	1.317587
