data_functionalizedCrystal
_audit_creation_method	'MofGen! by Chris Wilmer'
_symmetry_space_group_name_H-M	'P1'
_symmetry_Int_Tables_number	1
_symmetry_cell_setting	triclinic
loop_
_symmetry_equiv_pos_as_xyz
  x,y,z
_cell_length_a	12.759401
_cell_length_b	25.639233
_cell_length_c	12.759400
_cell_angle_alpha	90.013255
_cell_angle_beta	89.985155
_cell_angle_gamma	89.989791
loop_
_atom_site_label
_atom_site_type_symbol
_atom_site_fract_x
_atom_site_fract_y
_atom_site_fract_z
Zn1	Zn	1.606170	-0.295595	0.418390
Zn2	Zn	1.606089	-0.208168	0.594052
Zn3	Zn	1.430497	-0.208178	0.418389
Zn4	Zn	1.430460	-0.295576	0.594028
O5	O	1.518304	-0.251879	0.506215
O6	O	1.753180	-0.284002	0.441703
O7	O	1.582778	-0.135004	0.570760
O8	O	1.453849	-0.219786	0.271368
O9	O	1.753121	-0.219770	0.570761
O10	O	1.582915	-0.284011	0.271368
O11	O	1.453771	-0.135011	0.441701
O12	O	1.283471	-0.219767	0.441677
O13	O	1.453787	-0.368744	0.570719
O14	O	1.283444	-0.283979	0.570718
O15	O	1.582879	-0.368758	0.441679
O16	O	1.582743	-0.219751	0.741070
O17	O	1.453709	-0.283969	0.741052
C18	C	1.245337	-0.251872	0.506195
C19	C	1.128560	-0.251882	0.506212
C20	C	1.518338	-0.388252	0.506196
C21	C	1.518352	-0.446367	0.506188
C22	C	1.073711	-0.285261	0.573512
C23	C	0.963987	-0.285267	0.573525
C24	C	0.963970	-0.218509	0.438937
C25	C	1.073692	-0.218506	0.438919
C26	C	1.128579	-0.318637	0.640805
C27	C	1.073731	-0.352018	0.708111
C28	C	0.964007	-0.352024	0.708124
C29	C	0.909131	-0.318648	0.640832
C30	C	1.585656	-0.806743	0.438797
C31	C	1.585669	-0.861347	0.438768
O32	O	1.642808	-0.889595	0.381594
N33	N	1.518468	-0.888649	0.505942
C34	C	1.451242	-0.861344	0.573142
O35	O	1.394083	-0.889581	0.630275
C36	C	1.451225	-0.806741	0.573165
C37	C	1.518438	-0.779442	0.505994
C38	C	1.652863	-0.779443	0.371631
C39	C	1.652851	-0.724843	0.371662
C40	C	1.585632	-0.697542	0.438859
C41	C	1.518426	-0.724841	0.506025
C42	C	1.383994	-0.779437	0.640358
C43	C	1.383982	-0.724830	0.640375
C44	C	1.451195	-0.697530	0.573204
C45	C	1.451195	-0.642939	0.573252
N46	N	1.518396	-0.615637	0.506078
C47	C	1.585615	-0.642938	0.438882
C48	C	1.451283	-0.976015	0.573087
C49	C	1.451305	-1.030617	0.573070
C50	C	1.585731	-1.030616	0.438695
C51	C	1.585713	-0.976013	0.438718
C52	C	1.518484	-0.948713	0.505913
C53	C	1.585586	-0.528273	0.438952
C54	C	1.585571	-0.473668	0.438992
C55	C	1.451142	-0.473673	0.573362
C56	C	1.451160	-0.528274	0.573327
C57	C	1.518385	-0.555573	0.506113
O58	O	1.394082	-0.614657	0.630394
O59	O	1.642755	-0.614695	0.381748
C60	C	1.792337	-0.251887	0.506235
C61	C	1.909114	-0.251890	0.506243
C62	C	1.518242	-0.251869	0.779182
C63	C	1.518311	-0.251881	0.895959
C64	C	1.518331	-0.116037	0.506157
C65	C	1.518520	-0.057923	0.505869
C66	C	1.518395	-0.251902	0.232181
C67	C	1.518434	-0.251911	0.115405
C68	C	1.585574	-0.218480	0.950795
C69	C	1.585638	-0.218496	1.060519
C70	C	1.451169	-0.285317	1.060560
C71	C	1.451110	-0.285303	0.950838
C72	C	1.652775	-0.185058	0.895915
C73	C	1.720042	-0.151654	0.950752
C74	C	1.720106	-0.151670	1.060476
C75	C	1.652904	-0.185091	1.115363
H76	H	1.118417	-0.379195	0.762891
H77	H	1.118351	-0.191330	0.384110
O78	O	0.910678	-0.384507	0.773347
C79	C	0.786789	-0.455069	0.787723
C80	C	0.847133	-0.418325	0.713732
H81	H	0.735382	-0.482413	0.739556
H82	H	0.844809	-0.478960	0.835794
H83	H	0.735447	-0.431007	0.842612
H84	H	0.898476	-0.442346	0.658780
H85	H	0.789057	-0.394432	0.665735
O86	O	1.385921	-0.317727	1.114037
C87	C	1.326458	-0.347381	1.283090
C88	C	1.400391	-0.310642	1.222661
H89	H	1.338147	-0.341673	1.370923
H90	H	1.241720	-0.338160	1.261671
H91	H	1.344826	-0.389540	1.261401
H92	H	1.382118	-0.268471	1.244318
H93	H	1.485107	-0.319908	1.244085
H94	H	1.707581	-0.702620	0.316963
O95	O	0.910505	-0.186101	0.373683
C96	C	0.741462	-0.156534	0.314038
C97	C	0.801878	-0.193257	0.388002
H98	H	0.653627	-0.162315	0.325573
H99	H	0.762940	-0.114348	0.332366
H100	H	0.763104	-0.165778	0.229354
H101	H	0.780269	-0.184061	0.472711
H102	H	0.780395	-0.235432	0.369584
H103	H	1.640308	-0.451443	0.384292
O104	O	1.650990	-0.554705	0.373632
C105	C	1.784285	-0.548927	0.240321
C106	C	1.710282	-0.518928	0.314252
H107	H	1.832226	-0.520014	0.192278
H108	H	1.839285	-0.574477	0.288495
H109	H	1.736068	-0.574503	0.185405
H110	H	1.758414	-0.493324	0.369183
H111	H	1.655279	-0.493410	0.266013
O112	O	1.386176	-1.057154	0.638446
C113	C	1.372005	-1.118817	0.780237
C114	C	1.445889	-1.088791	0.706280
H115	H	1.420253	-1.144411	0.835085
H116	H	1.323988	-1.089940	0.828342
H117	H	1.317062	-1.144356	0.731974
H118	H	1.500897	-1.063251	0.754462
H119	H	1.493833	-1.117696	0.658171
O120	O	1.318809	-0.806028	0.705583
C121	C	1.259200	-0.890137	0.765092
C122	C	1.333091	-0.860090	0.691178
H123	H	1.270705	-0.933851	0.753456
H124	H	1.277630	-0.879432	0.849832
H125	H	1.174499	-0.879366	0.746656
H126	H	1.417817	-0.870844	0.709520
H127	H	1.314571	-0.870796	0.606460
O128	O	1.718266	-0.805878	0.306320
C129	C	1.851564	-0.800095	0.173013
C130	C	1.777553	-0.770099	0.246939
H131	H	1.899501	-0.771182	0.124969
H132	H	1.906568	-0.825643	0.221190
H133	H	1.803354	-0.825675	0.118097
H134	H	1.825678	-0.744491	0.301869
H135	H	1.722546	-0.744585	0.198697
H136	H	1.652727	-0.185040	0.806573
O137	O	1.385680	-0.317768	0.897726
C138	C	1.252374	-0.384078	0.909336
C139	C	1.326394	-0.347324	0.969616
H140	H	1.204438	-0.407992	0.967433
H141	H	1.197371	-0.360075	0.858054
H142	H	1.300578	-0.411405	0.857880
H143	H	1.278274	-0.319990	1.021128
H144	H	1.381400	-0.371360	1.020831
O145	O	1.651031	-0.949577	0.373365
C146	C	1.784411	-0.955355	0.240129
C147	C	1.710474	-0.985354	0.314076
H148	H	1.832505	-0.984267	0.192191
H149	H	1.736239	-0.929807	0.185124
H150	H	1.839279	-0.929775	0.288391
H151	H	1.655590	-1.010962	0.265899
H152	H	1.758711	-1.010868	0.369084
O153	O	1.318653	-0.698392	0.705763
C154	C	1.185296	-0.704161	0.839013
C155	C	1.259233	-0.734165	0.765025
H156	H	1.137220	-0.733070	0.886930
H157	H	1.233466	-0.678618	0.894036
H158	H	1.130410	-0.678576	0.790786
H159	H	1.314133	-0.759778	0.813167
H160	H	1.210997	-0.759674	0.709999
O161	O	1.385930	-0.554740	0.638724
C162	C	1.334908	-0.571481	0.817421
C163	C	1.408839	-0.541470	0.743488
H164	H	1.353419	-0.560772	0.902139
H165	H	1.250180	-0.560729	0.799057
H166	H	1.346440	-0.615194	0.805796
H167	H	1.397400	-0.497750	0.755072
H168	H	1.493540	-0.552266	0.761870
O169	O	1.785170	-0.119136	0.897392
C170	C	1.799326	-0.048555	0.773528
C171	C	1.725447	-0.085340	0.833908
H172	H	1.751071	-0.021229	0.722169
H173	H	1.847397	-0.024647	0.831523
H174	H	1.854220	-0.072585	0.722133
H175	H	1.670490	-0.061350	0.885304
H176	H	1.677450	-0.109250	0.775855
H177	H	0.819786	-0.318660	0.640839
O178	O	1.385880	-0.447067	0.638533
C179	C	1.326331	-0.362941	0.698145
C180	C	1.400282	-0.393009	0.624277
H181	H	1.337965	-0.319230	0.686660
H182	H	1.241601	-0.373633	0.679674
H183	H	1.344732	-0.373705	0.782850
H184	H	1.381976	-0.382261	0.539546
H185	H	1.484990	-0.382314	0.642837
O186	O	1.785482	-0.119175	1.113584
C187	C	1.918892	-0.052917	1.101956
C188	C	1.844892	-0.089685	1.041685
H189	H	1.966959	-0.029073	1.043853
H190	H	1.870771	-0.025531	1.153364
H191	H	1.973782	-0.076959	1.153284
H192	H	1.789987	-0.065686	0.990301
H193	H	1.893078	-0.117073	0.990343
H194	H	1.640461	-1.052855	0.383977
H195	H	1.217922	-0.318635	0.640804
H196	H	1.396535	-0.953790	0.627811
H197	H	1.652970	-0.185105	1.204708
