data_functionalizedCrystal
_audit_creation_method	'MofGen! by Chris Wilmer'
_symmetry_space_group_name_H-M	'P1'
_symmetry_Int_Tables_number	1
_symmetry_cell_setting	triclinic
loop_
_symmetry_equiv_pos_as_xyz
  x,y,z
_cell_length_a	12.759394
_cell_length_b	13.897449
_cell_length_c	12.759387
_cell_angle_alpha	90.023866
_cell_angle_beta	89.968340
_cell_angle_gamma	89.985330
loop_
_atom_site_label
_atom_site_type_symbol
_atom_site_fract_x
_atom_site_fract_y
_atom_site_fract_z
Zn1	Zn	-0.418216	-1.474731	-0.594093
Zn2	Zn	0.081784	-0.974731	-0.094093
Zn3	Zn	-0.593933	-1.474631	-0.418411
Zn4	Zn	-0.093933	-0.974631	0.081589
Zn5	Zn	-0.418268	-1.313418	-0.418419
Zn6	Zn	0.081732	-0.813418	0.081581
Zn7	Zn	-0.593853	-1.313410	-0.594040
Zn8	Zn	-0.093853	-0.813410	-0.094040
O9	O	-0.506067	-1.394047	-0.506241
O10	O	-0.006067	-0.894047	-0.006241
O11	O	-0.441537	-1.609700	-0.570807
O12	O	0.058463	-1.109700	-0.070807
O13	O	-0.570686	-1.453206	-0.271391
O14	O	-0.070686	-0.953206	0.228609
O15	O	-0.271240	-1.334862	-0.441749
O16	O	0.228760	-0.834862	0.058251
O17	O	-0.570635	-1.609626	-0.441734
O18	O	-0.070635	-1.109626	0.058266
O19	O	-0.271202	-1.453378	-0.570815
O20	O	0.228798	-0.953378	-0.070815
O21	O	-0.441625	-1.334764	-0.271397
O22	O	0.058375	-0.834764	0.228603
O23	O	-0.441548	-1.178435	-0.441697
O24	O	0.058452	-0.678435	0.058303
O25	O	-0.570499	-1.334849	-0.741068
O26	O	-0.070499	-0.834849	-0.241068
O27	O	-0.570549	-1.178430	-0.570724
O28	O	-0.070549	-0.678430	-0.070724
O29	O	-0.441459	-1.453371	-0.741107
O30	O	0.058541	-0.953371	-0.241107
O31	O	-0.740943	-1.453199	-0.441682
O32	O	-0.240943	-0.953199	0.058318
O33	O	-0.740885	-1.334751	-0.570716
O34	O	-0.240885	-0.834751	-0.070716
C35	C	-0.779035	-1.393990	-0.506215
C36	C	-0.279035	-0.893990	-0.006215
C37	C	-0.895811	-1.394053	-0.506240
C38	C	-0.395811	-0.894053	-0.006240
C39	C	-0.506046	-1.143433	-0.506207
C40	C	-0.006046	-0.643433	-0.006207
C41	C	-0.506063	-1.036219	-0.506217
C42	C	-0.006063	-0.536219	-0.006217
C43	C	-0.895819	-1.517485	-0.371977
C44	C	-0.395819	-1.017485	0.128023
C45	C	-0.950684	-1.579227	-0.304859
C46	C	-0.450684	-1.079227	0.195141
C47	C	-1.060405	-1.579283	-0.304887
C48	C	-0.560405	-1.079283	0.195113
C49	C	-1.115265	-1.517594	-0.372044
C50	C	-0.615265	-1.017594	0.127956
C51	C	-1.060400	-1.455853	-0.439163
C52	C	-0.560400	-0.955853	0.060837
C53	C	-0.950676	-1.455801	-0.439125
C54	C	-0.450676	-0.955801	0.060875
C55	C	-1.060392	-1.332427	-0.573428
C56	C	-0.560392	-0.832427	-0.073428
C57	C	-0.950671	-1.332364	-0.573396
C58	C	-0.450671	-0.832364	-0.073396
C59	C	-1.115252	-1.270737	-0.640585
C60	C	-0.615252	-0.770737	-0.140585
C61	C	-1.060387	-1.208990	-0.707700
C62	C	-0.560387	-0.708990	-0.207700
C63	C	-0.950659	-1.208935	-0.707668
C64	C	-0.450659	-0.708935	-0.207668
C65	C	-0.895806	-1.270622	-0.640515
C66	C	-0.395806	-0.770622	-0.140515
C67	C	-0.506061	-0.839924	-0.506237
C68	C	-0.006061	-0.339924	-0.006237
C69	C	-0.506059	-0.949157	-0.506223
C70	C	-0.006059	-0.449157	-0.006223
C71	C	-0.232034	-1.394132	-0.506289
C72	C	0.267966	-0.894132	-0.006289
C73	C	-0.115257	-1.394168	-0.506310
C74	C	0.384743	-0.894168	-0.006310
C75	C	-0.505964	-1.394120	-0.780274
C76	C	-0.005964	-0.894120	-0.280274
C77	C	-0.505920	-1.394151	-0.897051
C78	C	-0.005920	-0.894151	-0.397051
C79	C	-0.506082	-0.645640	-0.506265
C80	C	-0.006082	-0.145640	-0.006265
C81	C	-0.506071	-0.752854	-0.506250
C82	C	-0.006071	-0.252854	-0.006250
C83	C	-0.371560	-1.517577	-0.897112
C84	C	0.128440	-1.017577	-0.397112
C85	C	-0.304364	-1.579303	-0.952003
C86	C	0.195636	-1.079303	-0.452003
C87	C	-0.304326	-1.579326	-1.061724
C88	C	0.195674	-1.079326	-0.561724
C89	C	-0.371489	-1.517615	-1.116558
C90	C	0.128511	-1.017615	-0.616558
C91	C	-0.438684	-1.455889	-1.061666
C92	C	0.061316	-0.955889	-0.561666
C93	C	-0.438718	-1.455874	-0.951942
C94	C	0.061282	-0.955874	-0.451942
C95	C	-0.573038	-1.332460	-1.061606
C96	C	-0.073038	-0.832460	-0.561606
C97	C	-0.573083	-1.332440	-0.951884
C98	C	-0.073083	-0.832440	-0.451884
C99	C	-0.640200	-1.270749	-1.116439
C100	C	-0.140200	-0.770749	-0.616439
C101	C	-0.707403	-1.209026	-1.061548
C102	C	-0.207403	-0.709026	-0.561548
C103	C	-0.707440	-1.209006	-0.951819
C104	C	-0.207440	-0.709006	-0.451819
C105	C	-0.640279	-1.270714	-0.896993
C106	C	-0.140279	-0.770714	-0.396993
C107	C	-0.506094	-1.394030	-0.233273
C108	C	-0.006094	-0.894030	0.266727
C109	C	-0.505842	-1.394186	-0.116497
C110	C	-0.005842	-0.894186	0.383503
H111	H	-0.806478	-1.517433	-0.371934
H112	H	-0.306478	-1.017433	0.128066
H113	H	-0.640306	-1.270708	-0.807652
H114	H	-0.140306	-0.770708	-0.307652
H115	H	-1.105062	-1.158772	-0.762379
H116	H	-0.605062	-0.658772	-0.262379
F117	F	-0.778955	-1.143302	-0.893408
F118	F	-0.278955	-0.643302	-0.393408
F119	F	-0.778869	-1.143351	-1.119910
F120	F	-0.278869	-0.643351	-0.619910
H121	H	-1.204593	-1.270792	-0.640608
H122	H	-0.704593	-0.770792	-0.140608
F123	F	-1.232040	-1.517338	-0.371722
F124	F	-0.732040	-1.017338	0.128278
F125	F	-0.892276	-1.143225	-0.779112
F126	F	-0.392276	-0.643225	-0.279112
F127	F	-0.779031	-1.270789	-0.640714
F128	F	-0.279031	-0.770789	-0.140714
H129	H	-0.249680	-1.629545	-0.907346
H130	H	0.250320	-1.129545	-0.407346
F131	F	-0.892292	-1.644881	-0.233393
F132	F	-0.392292	-1.144881	0.266607
H133	H	-1.105076	-1.629563	-0.250239
H134	H	-0.605076	-1.129563	0.249761
F135	F	-0.371608	-1.517568	-0.780336
F136	F	0.128392	-1.017568	-0.280336
F137	F	-0.371436	-1.517635	-1.233333
F138	F	0.128564	-1.017635	-0.733333
F139	F	-0.232796	-1.645009	-1.120145
F140	F	0.267204	-1.145009	-0.620145
F141	F	-0.640157	-1.270774	-1.233215
F142	F	-0.140157	-0.770774	-0.733215
