data_functionalizedCrystal
_audit_creation_method	'MofGen! by Chris Wilmer'
_symmetry_space_group_name_H-M	'P1'
_symmetry_Int_Tables_number	1
_symmetry_cell_setting	triclinic
loop_
_symmetry_equiv_pos_as_xyz
  x,y,z
_cell_length_a	16.956995
_cell_length_b	18.266242
_cell_length_c	16.992695
_cell_angle_alpha	90.005094
_cell_angle_beta	83.361347
_cell_angle_gamma	90.012131
loop_
_atom_site_label
_atom_site_type_symbol
_atom_site_fract_x
_atom_site_fract_y
_atom_site_fract_z
O1	O	1.060104	0.060932	0.032363
O2	O	0.829694	0.060922	0.059777
O3	O	0.943976	0.060921	-0.068013
O4	O	0.945823	0.060933	0.160153
O5	O	0.943955	-0.060841	-0.068015
O6	O	0.829673	-0.060840	0.059774
O7	O	1.060083	-0.060830	0.032361
Zn8	Zn	0.944875	-0.080167	0.046067
Zn9	Zn	0.944903	0.080259	0.046070
O10	O	0.945802	-0.060829	0.160150
C11	C	0.800065	0.000040	0.061179
C12	C	0.711811	0.000036	0.065352
N13	N	0.944862	-0.189654	0.046065
C14	C	0.214500	0.000065	0.096570
C15	C	0.297425	0.000065	0.092643
C16	C	0.343815	0.000055	0.018931
C17	C	0.307278	0.000054	-0.050860
C18	C	0.224354	0.000060	-0.046932
C19	C	0.592349	0.000041	-0.000510
C20	C	0.675278	0.000033	-0.004433
C21	C	0.665419	0.000045	0.139071
C22	C	0.582495	0.000047	0.142992
C23	C	0.545964	0.000049	0.073202
N24	N	0.428578	0.000052	0.014915
N25	N	0.461203	0.000058	0.077218
C26	C	0.996037	-0.227952	0.090336
C27	C	0.996050	-0.304597	0.090333
C28	C	0.944874	-0.342941	0.046069
C29	C	0.893695	-0.304634	0.001788
C30	C	0.893689	-0.227990	0.001786
N31	N	0.875183	-0.463297	0.048444
N32	N	0.875191	-0.536105	0.048450
C33	C	0.944890	-0.573864	0.046071
N34	N	1.014581	-0.536064	0.043700
N35	N	1.014573	-0.463249	0.043698
C36	C	0.944875	-0.426048	0.046065
C37	C	0.996083	-0.695269	0.090341
C38	C	0.996097	-0.771915	0.090332
C39	C	0.893736	-0.771950	0.001792
C40	C	0.893728	-0.695305	0.001796
C41	C	0.944901	-0.656969	0.046074
C42	C	1.089713	0.000053	0.030958
C43	C	1.177967	0.000062	0.026785
C44	C	0.941589	0.000040	-0.097073
C45	C	0.934498	0.000040	-0.183657
N46	N	0.944922	0.189746	0.046066
C47	C	1.002913	0.000042	-0.238332
C48	C	0.996246	0.000049	-0.319686
C49	C	0.921163	0.000048	-0.346365
C50	C	0.852743	0.000048	-0.291683
C51	C	0.859411	0.000047	-0.210331
C52	C	0.893527	0.000057	-0.588171
C53	C	0.886865	0.000056	-0.669531
C54	C	1.030368	0.000058	-0.697528
C55	C	1.037029	0.000052	-0.616172
C56	C	0.968609	0.000056	-0.561498
N57	N	0.914346	0.000053	-0.429522
N58	N	0.975427	0.000057	-0.478343
C59	C	0.948189	0.000053	0.189210
C60	C	0.955280	0.000058	0.275795
H61	H	0.176733	0.000067	0.156595
N62	N	1.051244	-0.345911	0.138093
H63	H	1.019098	-0.377713	0.178531
H64	H	1.087943	-0.377665	0.101550
N65	N	1.083897	0.000041	-0.209563
H66	H	1.077743	0.000036	-0.149730
H67	H	1.114051	-0.045098	-0.229905
N68	N	0.336816	0.000063	0.167918
H69	H	0.370989	-0.045075	0.169491
H70	H	0.370969	0.045230	0.169450
N71	N	0.725317	0.000028	-0.083941
H72	H	0.759923	-0.045115	-0.088766
H73	H	0.689540	0.000059	-0.127509
H74	H	1.037708	-0.196744	0.126388
H75	H	1.051957	0.000049	-0.364200
H76	H	0.852015	-0.196808	-0.034266
H77	H	0.695172	0.000044	0.195890
N78	N	1.118011	0.000049	-0.587399
H79	H	1.160342	0.000051	-0.634381
H80	H	1.123914	0.045185	-0.554249
H81	H	1.037751	-0.664054	0.126394
H82	H	1.086072	0.000056	-0.742052
H83	H	0.852028	-0.335858	-0.034253
H84	H	1.037775	-0.803096	0.126380
H85	H	0.194611	0.000059	-0.103758
H86	H	0.825720	0.000044	-0.691248
N87	N	0.552954	0.000039	-0.075780
H88	H	0.594927	0.000027	-0.123070
H89	H	0.518749	-0.045098	-0.077273
H90	H	0.837815	0.000060	-0.543665
H91	H	0.852068	-0.803169	-0.034250
N92	N	0.357315	0.000041	-0.130363
H93	H	0.345020	-0.045098	-0.161044
H94	H	0.345034	0.045206	-0.160987
N95	N	0.771761	0.000041	-0.320456
H96	H	0.729432	0.000040	-0.273473
H97	H	0.765875	0.045178	-0.353598
N98	N	0.838518	-0.653995	-0.045941
H99	H	0.846279	-0.599624	-0.039225
H100	H	0.850590	-0.667393	-0.103742
H101	H	0.544728	0.000056	0.203017
H102	H	0.803700	0.000045	-0.165814
