data_functionalizedCrystal
_audit_creation_method	'MofGen! by Chris Wilmer'
_symmetry_space_group_name_H-M	'P1'
_symmetry_Int_Tables_number	1
_symmetry_cell_setting	triclinic
loop_
_symmetry_equiv_pos_as_xyz
  x,y,z
_cell_length_a	11.792241
_cell_length_b	10.540539
_cell_length_c	10.868271
_cell_angle_alpha	89.997005
_cell_angle_beta	89.999893
_cell_angle_gamma	84.359454
loop_
_atom_site_label
_atom_site_type_symbol
_atom_site_fract_x
_atom_site_fract_y
_atom_site_fract_z
O1	O	1.507361	0.173992	-0.102197
O2	O	1.177067	0.191924	-0.102225
O3	O	1.349750	-0.001773	-0.102208
O4	O	1.334679	0.367689	-0.102213
O5	O	1.349735	-0.001781	0.102436
O6	O	1.177053	0.191916	0.102420
O7	O	1.507347	0.173984	0.102448
Zn8	Zn	1.342198	0.182949	0.134926
Zn9	Zn	1.342216	0.182959	-0.134702
O10	O	1.334664	0.367681	0.102432
C11	C	1.134766	0.190793	0.000094
C12	C	1.008743	0.187422	0.000083
C13	C	1.348612	-0.049076	0.000112
C14	C	1.345231	-0.190014	0.000105
C15	C	0.778015	0.181223	0.000119
C16	C	0.906409	0.184667	0.000099
C17	C	1.215660	-0.373018	-0.000366
C18	C	1.219087	-0.226411	0.000095
C19	C	1.405929	-0.251873	0.116972
C20	C	1.401623	-0.398404	0.117070
C21	C	1.404205	-0.398922	-0.115649
C22	C	1.405367	-0.251943	-0.117194
C23	C	1.549648	0.175114	0.000127
C24	C	1.675671	0.178486	0.000130
C25	C	1.335802	0.414984	0.000109
C26	C	1.339183	0.555921	0.000108
N27	N	1.342193	0.182941	0.318940
N28	N	1.342230	0.182957	-0.318716
C29	C	1.342211	0.182956	0.569946
C30	C	1.342197	0.182952	0.430268
H31	H	1.171327	-0.183649	-0.083680
H32	H	1.497336	-0.228021	-0.124243
H33	H	1.165836	-0.401453	-0.084174
H34	H	1.492344	-0.446668	0.122379
H35	H	1.356753	-0.426460	0.204423
O36	O	1.156512	-0.409079	0.099008
C37	C	1.082190	-0.582387	0.207365
C38	C	1.149209	-0.541724	0.094782
H39	H	1.076243	-0.689629	0.203972
H40	H	1.127855	-0.557321	0.295230
H41	H	0.992778	-0.530283	0.206195
H42	H	1.238626	-0.593805	0.095833
H43	H	1.103455	-0.566765	0.006967
H44	H	1.170980	-0.184502	0.084002
O45	O	1.512881	-0.455667	-0.116810
C46	C	1.654229	-0.592786	-0.226175
C47	C	1.531142	-0.528569	-0.225041
H48	H	1.669025	-0.651763	-0.313658
H49	H	1.716429	-0.516601	-0.223173
H50	H	1.668333	-0.657607	-0.142472
H51	H	1.516929	-0.463755	-0.308730
H52	H	1.469006	-0.604820	-0.227981
O53	O	1.352652	-0.202896	-0.220432
C54	C	1.371304	-0.087420	-0.409543
C55	C	1.431152	-0.142945	-0.292699
H56	H	1.434739	-0.038914	-0.467990
H57	H	1.337239	-0.167483	-0.464708
H58	H	1.297591	-0.014677	-0.382380
H59	H	1.504909	-0.215672	-0.319752
H60	H	1.465136	-0.062814	-0.237564
O61	O	1.516504	-0.225787	0.122118
C62	C	1.713702	-0.311043	0.126477
C63	C	1.588528	-0.340766	0.120619
H64	H	1.771968	-0.403984	0.125294
H65	H	1.733451	-0.250452	0.043750
H66	H	1.728350	-0.256676	0.214822
H67	H	1.573790	-0.395174	0.032328
H68	H	1.568839	-0.401299	0.203408
H69	H	1.363753	-0.209140	0.203933
H70	H	1.363385	-0.430338	-0.204226
