data_functionalizedCrystal
_audit_creation_method	'MofGen! by Chris Wilmer'
_symmetry_space_group_name_H-M	'P1'
_symmetry_Int_Tables_number	1
_symmetry_cell_setting	triclinic
loop_
_symmetry_equiv_pos_as_xyz
  x,y,z
_cell_length_a	6.817900
_cell_length_b	11.514825
_cell_length_c	7.190334
_cell_angle_alpha	77.323352
_cell_angle_beta	60.611776
_cell_angle_gamma	70.411990
loop_
_atom_site_label
_atom_site_type_symbol
_atom_site_fract_x
_atom_site_fract_y
_atom_site_fract_z
V1	V	-4.220993	0.167147	0.602968
O2	O	-4.206848	-0.010038	0.656067
O3	O	-4.169221	0.333354	0.536736
O4	O	-4.258198	0.163696	0.894278
O5	O	-4.117255	0.160794	0.296049
V6	V	-4.693966	0.146058	0.573803
O7	O	-4.505395	0.213408	0.666944
O8	O	-4.859761	0.099796	0.509827
O9	O	-4.522531	-0.020149	0.640035
O10	O	-4.825508	0.323243	0.520703
O11	O	-4.915101	0.152410	0.880721
O12	O	-4.433554	0.149509	0.282492
C13	C	-4.010632	0.373899	0.511197
C14	C	-4.050160	0.509769	0.458987
C15	C	-4.201463	0.726820	0.561413
C16	C	-4.160613	0.586392	0.615388
C17	C	-4.351428	0.939312	0.665566
C18	C	-4.311907	0.803444	0.717792
C19	C	-4.124141	0.157477	0.967278
C20	C	-4.237920	0.155721	1.209487
H21	H	-4.376208	0.765081	0.891633
H22	H	-4.137141	0.765182	0.387572
O23	O	-4.237299	0.540442	0.822687
C24	C	-4.266293	0.358573	1.065472
C25	C	-4.179375	0.410448	0.830626
H26	H	-4.219453	0.253466	1.071966
H27	H	-4.463964	0.396601	1.155605
H28	H	-4.179661	0.387258	1.142709
H29	H	-4.265836	0.381783	0.753203
H30	H	-3.981690	0.372425	0.740650
O31	O	-3.973696	0.555724	0.251697
C32	C	-3.944538	0.737583	0.008895
C33	C	-4.031274	0.685706	0.243734
H34	H	-3.991012	0.842678	0.002378
H35	H	-4.031312	0.709055	-0.068381
H36	H	-3.746904	0.699401	-0.081187
H37	H	-4.228887	0.723862	0.333994
H38	H	-3.944326	0.714223	0.320846
