data_functionalizedCrystal
_audit_creation_method	'MofGen! by Chris Wilmer'
_symmetry_space_group_name_H-M	'P1'
_symmetry_Int_Tables_number	1
_symmetry_cell_setting	triclinic
loop_
_symmetry_equiv_pos_as_xyz
  x,y,z
_cell_length_a	15.944551
_cell_length_b	19.188930
_cell_length_c	14.421503
_cell_angle_alpha	89.999163
_cell_angle_beta	89.996859
_cell_angle_gamma	83.321760
loop_
_atom_site_label
_atom_site_type_symbol
_atom_site_fract_x
_atom_site_fract_y
_atom_site_fract_z
O1	O	1.114192	0.090038	-0.077026
O2	O	0.869601	0.101140	-0.077050
O3	O	0.998955	-0.006048	-0.077019
O4	O	0.984838	0.197227	-0.077057
O5	O	0.998934	-0.006032	0.077204
O6	O	0.869580	0.101156	0.077173
O7	O	1.114171	0.090054	0.077198
Cu8	Cu	0.991873	0.095607	0.091267
Cu9	Cu	0.991899	0.095588	-0.091120
O10	O	0.984817	0.197243	0.077167
C11	C	0.838298	0.100687	0.000059
C12	C	0.745057	0.099306	0.000050
C13	C	0.530462	0.029563	0.000081
C14	C	0.469331	0.061941	-0.075965
C15	C	0.574341	0.096806	0.000062
C16	C	0.469332	0.061973	0.076087
C17	C	0.409437	0.094386	0.000077
C18	C	0.514438	0.129203	-0.076047
C19	C	0.514446	0.129225	0.076073
C20	C	0.453332	0.161652	0.000008
C21	C	0.669338	0.098198	0.000052
C22	C	0.314441	0.093000	0.000080
C23	C	0.998487	-0.032052	0.000095
C24	C	0.997115	-0.109560	0.000103
C25	C	1.073016	-0.154288	0.000115
C26	C	1.071726	-0.227115	0.000100
C27	C	0.994532	-0.255211	0.000092
C28	C	0.918622	-0.210474	0.000075
C29	C	0.919913	-0.137648	0.000080
N30	N	0.935519	-0.363364	0.052571
N31	N	0.934298	-0.432545	0.052568
C32	C	0.990637	-0.474630	0.000073
N33	N	1.048256	-0.444921	-0.052407
N34	N	1.049480	-0.375733	-0.052400
C35	C	0.993123	-0.334178	0.000085
C36	C	1.065145	-0.598326	0.000067
C37	C	1.063852	-0.671154	0.000046
C38	C	0.910745	-0.654511	0.000030
C39	C	0.912040	-0.581685	0.000041
C40	C	0.989242	-0.553597	0.000064
C41	C	1.145474	0.090507	0.000087
C42	C	1.238715	0.091889	0.000089
C43	C	0.985285	0.223247	0.000050
C44	C	0.986657	0.300755	0.000036
N45	N	0.991862	0.095619	0.219549
N46	N	0.991917	0.095569	-0.219401
C47	C	0.932038	0.145161	0.469188
C48	C	1.007887	0.158716	0.530995
C49	C	0.991882	0.095603	0.408710
C50	C	0.916052	0.082064	0.530997
C51	C	0.991895	0.095588	0.591431
C52	C	1.067770	0.109189	0.469157
C53	C	0.975885	0.032510	0.469153
C54	C	1.051789	0.046038	0.530932
C55	C	0.991874	0.095613	0.303449
C56	C	0.991913	0.095578	0.696690
H57	H	0.534329	0.157616	-0.140409
H58	H	0.534462	0.157649	0.140358
C59	C	0.481684	-0.045577	0.162732
C60	C	0.442348	0.023576	0.162878
H61	H	0.465030	-0.069283	0.216313
H62	H	0.465475	-0.069007	0.108745
H63	H	0.541228	-0.045339	0.163055
H64	H	0.382804	0.023338	0.162549
H65	H	0.458551	0.047011	0.216880
H66	H	1.021430	0.212066	0.558159
C67	C	0.513741	0.000571	-0.215866
C68	C	0.442336	0.023536	-0.162740
H69	H	0.497078	-0.023146	-0.269431
H70	H	0.541043	0.039809	-0.234152
H71	H	0.551522	-0.030535	-0.180048
H72	H	0.404557	0.054647	-0.198557
H73	H	0.415020	-0.015707	-0.144455
H74	H	0.847892	-0.677386	0.000019
C75	C	0.431027	0.272088	-0.079750
C76	C	0.408277	0.237063	-0.000060
H77	H	0.403206	0.318640	-0.079795
H78	H	0.490397	0.273366	-0.080255
H79	H	0.414893	0.248014	-0.133243
H80	H	0.424417	0.261134	0.053434
H81	H	0.348894	0.235788	0.000454
H82	H	1.135880	-0.131424	0.000131
H83	H	0.962318	-0.020823	0.441967
H84	H	0.851919	0.070620	0.558163
C85	C	1.171233	0.190585	0.464695
C86	C	1.154372	0.124744	0.432683
H87	H	1.224699	0.200191	0.442189
H88	H	1.128707	0.225575	0.443046
H89	H	1.171740	0.190637	0.530562
H90	H	1.153859	0.124694	0.366815
H91	H	1.196909	0.089745	0.454327
H92	H	1.133536	-0.263540	0.000106
H93	H	0.564003	-0.026244	-0.000003
H94	H	0.855769	-0.233354	0.000066
C95	C	0.768445	-0.128514	0.000064
C96	C	0.836477	-0.088479	0.000076
H97	H	0.716936	-0.098156	0.000069
H98	H	0.771132	-0.157258	-0.053718
H99	H	0.771124	-0.157272	0.053844
H100	H	0.833802	-0.059724	-0.053708
H101	H	0.833789	-0.059723	0.053864
H102	H	1.128007	-0.575456	0.000081
H103	H	1.125662	-0.707571	0.000051
C104	C	1.199496	0.003793	0.535925
C105	C	1.120186	-0.010549	0.567313
H106	H	1.241721	-0.031137	0.558393
H107	H	1.200161	0.003746	0.470068
H108	H	1.210399	0.048493	0.558043
H109	H	1.109280	-0.055247	0.545190
H110	H	1.119520	-0.010509	0.633184
H111	H	0.881481	0.187105	0.442078
C112	C	0.760576	-0.572552	0.000038
C113	C	0.828606	-0.532515	0.000045
H114	H	0.709066	-0.542195	0.000045
H115	H	0.763261	-0.601296	-0.053743
H116	H	0.763257	-0.601308	0.053820
H117	H	0.825928	-0.503762	-0.053741
H118	H	0.825920	-0.503758	0.053831
