data_functionalizedCrystal
_audit_creation_method	'MofGen! by Chris Wilmer'
_symmetry_space_group_name_H-M	'P1'
_symmetry_Int_Tables_number	1
_symmetry_cell_setting	triclinic
loop_
_symmetry_equiv_pos_as_xyz
  x,y,z
_cell_length_a	19.805407
_cell_length_b	15.297327
_cell_length_c	19.805399
_cell_angle_alpha	80.350583
_cell_angle_beta	90.019573
_cell_angle_gamma	99.707092
loop_
_atom_site_label
_atom_site_type_symbol
_atom_site_fract_x
_atom_site_fract_y
_atom_site_fract_z
Zn1	Zn	0.988098	-0.359189	0.429336
Zn2	Zn	0.968423	-0.510058	0.335728
Zn3	Zn	0.874909	-0.359214	0.316164
Zn4	Zn	0.855293	-0.510010	0.448869
O5	O	0.921681	-0.434618	0.382524
O6	O	1.080203	-0.379212	0.416932
O7	O	0.955994	-0.490079	0.238420
O8	O	0.906367	-0.232963	0.314814
O9	O	1.065749	-0.490055	0.348159
O10	O	0.989526	-0.232945	0.397962
O11	O	0.887290	-0.379254	0.224047
O12	O	0.777592	-0.379208	0.333754
O13	O	0.872934	-0.489973	0.540990
O14	O	0.763180	-0.489997	0.431252
O15	O	0.970505	-0.379166	0.526640
O16	O	0.936973	-0.636300	0.367099
O17	O	0.853857	-0.636265	0.450222
C18	C	0.745827	-0.434601	0.382500
C19	C	0.670593	-0.434615	0.382509
C20	C	0.627751	-0.492390	0.433217
C21	C	0.557063	-0.492392	0.433227
C22	C	0.529217	-0.434622	0.382525
C23	C	0.572065	-0.376841	0.331814
C24	C	0.642752	-0.376835	0.331808
C25	C	0.286989	-0.376861	0.331839
C26	C	0.216295	-0.376873	0.331848
C27	C	0.201299	-0.492417	0.433258
C28	C	0.271987	-0.492412	0.433252
C29	C	0.314829	-0.434627	0.382543
C30	C	0.391477	-0.434625	0.382534
C31	C	0.452569	-0.434628	0.382531
C32	C	0.891170	-0.669017	0.412918
C33	C	0.878179	-0.769294	0.425943
C34	C	1.014807	-1.051906	0.289663
C35	C	1.027012	-0.957691	0.277422
C36	C	0.989805	-0.910587	0.314551
C37	C	0.940391	-0.957708	0.363923
C38	C	0.928180	-1.051932	0.376162
C39	C	0.903178	-0.910613	0.401050
C40	C	0.853764	-0.957734	0.450423
C41	C	0.841556	-1.051949	0.462659
C42	C	0.878763	-1.099053	0.425530
C43	C	0.915389	-0.816389	0.388812
C44	C	0.828762	-0.816415	0.475311
C45	C	0.816557	-0.910630	0.487552
C46	C	1.098221	-0.434636	0.382549
C47	C	1.173452	-0.434644	0.382559
C48	C	0.921726	-0.434561	0.559060
C49	C	0.921746	-0.434537	0.634289
C50	C	0.952329	-0.199304	0.352027
C51	C	0.965390	-0.099027	0.339031
C52	C	0.921683	-0.434610	0.206667
C53	C	0.921828	-0.434380	0.131406
C54	C	0.972552	-0.376837	0.662161
C55	C	0.972562	-0.376810	0.732846
C56	C	0.921768	-0.434490	0.775658
C57	C	0.870957	-0.492193	0.747781
C58	C	0.870944	-0.492214	0.677096
C59	C	0.871006	-0.492109	1.032843
C60	C	0.871024	-0.492085	1.103533
C61	C	0.972624	-0.376705	1.088593
C62	C	0.972612	-0.376726	1.017909
C63	C	0.921798	-0.434426	0.990037
C64	C	0.921787	-0.434452	0.913392
C65	C	0.921782	-0.434469	0.852303
H66	H	0.321862	-0.329816	0.290545
H67	H	1.013997	-0.329721	1.111294
O68	O	0.654906	-0.548479	0.482403
C69	C	0.757159	-0.599641	0.527368
C70	C	0.726498	-0.536092	0.471612
H71	H	0.815047	-0.589635	0.518671
H72	H	0.733839	-0.672388	0.524827
H73	H	0.745291	-0.583901	0.579916
H74	H	0.738356	-0.551750	0.419037
H75	H	0.749819	-0.463364	0.474213
H76	H	0.166408	-0.539464	0.474549
O77	O	0.299125	-0.548401	0.482522
C78	C	0.377341	-0.560677	0.575506
C79	C	0.346675	-0.497171	0.519722
H80	H	0.415780	-0.519282	0.605606
H81	H	0.404339	-0.607781	0.550518
H82	H	0.334561	-0.601989	0.611723
H83	H	0.389414	-0.455801	0.483487
H84	H	0.319659	-0.450127	0.544756
H85	H	0.829597	-0.539153	0.782644
O86	O	0.545133	-0.320638	0.282529
C87	C	0.567469	-0.206071	0.181914
C88	C	0.598059	-0.269657	0.237701
H89	H	0.610243	-0.164850	0.145647
H90	H	0.540544	-0.158894	0.206898
H91	H	0.528958	-0.247448	0.151868
H92	H	0.636596	-0.228353	0.267765
H93	H	0.624940	-0.316836	0.212675
H94	H	0.193626	-0.329824	0.290560
O95	O	0.821565	-0.548361	0.650136
C96	C	0.720778	-0.662787	0.672407
C97	C	0.776668	-0.599258	0.703030
H98	H	0.684456	-0.703940	0.715155
H99	H	0.745671	-0.710030	0.645464
H100	H	0.690803	-0.621369	0.633916
H101	H	0.806663	-0.640603	0.741548
H102	H	0.751733	-0.552013	0.729930
H103	H	0.829658	-0.539057	1.138389
H104	H	1.013975	-0.329761	0.983054
O105	O	0.768557	-0.956547	0.535462
C106	C	0.711393	-1.101712	0.592676
C107	C	0.765759	-1.049824	0.538388
H108	H	0.709123	-1.177135	0.595069
H109	H	0.659188	-1.083327	0.578352
H110	H	0.725654	-1.083077	0.644837
H111	H	0.751562	-1.068431	0.486207
H112	H	0.817949	-1.068212	0.552770
O113	O	0.684472	-0.320744	0.282616
C114	C	0.800014	-0.269562	0.237638
C115	C	0.752848	-0.333121	0.293396
H116	H	0.855304	-0.279560	0.246326
H117	H	0.795638	-0.196818	0.240184
H118	H	0.784006	-0.285299	0.185090
H119	H	0.768825	-0.317465	0.345971
H120	H	0.757230	-0.405846	0.290790
O121	O	0.515538	-0.548610	0.482511
C122	C	0.508125	-0.663204	0.583107
C123	C	0.555227	-0.599591	0.527324
H124	H	0.540196	-0.704426	0.619361
H125	H	0.468900	-0.710380	0.558117
H126	H	0.480407	-0.621848	0.613167
H127	H	0.582991	-0.640875	0.497245
H128	H	0.594410	-0.552414	0.552356
H129	H	0.868830	-1.175770	0.435496
O130	O	0.963298	-0.770581	0.340780
C131	C	0.986241	-0.664234	0.235617
C132	C	0.931908	-0.716070	0.289957
H133	H	0.960886	-0.620135	0.194521
H134	H	1.010729	-0.714044	0.211129
H135	H	1.027349	-0.620100	0.261005
H136	H	0.890759	-0.760205	0.264621
H137	H	0.907474	-0.666211	0.314441
O138	O	1.001662	-0.819067	0.302788
C139	C	1.036581	-0.683785	0.350111
C140	C	1.023161	-0.787435	0.363531
H141	H	1.053980	-0.658179	0.399208
H142	H	0.987481	-0.658227	0.332747
H143	H	1.078267	-0.658215	0.308422
H144	H	0.981498	-0.813081	0.405230
H145	H	1.072293	-0.812932	0.380857
O146	O	1.075060	-0.912061	0.229466
C147	C	1.159669	-0.921984	0.144939
C148	C	1.105281	-0.973773	0.199241
H149	H	1.184108	-0.971855	0.120476
H150	H	1.200808	-0.877834	0.170282
H151	H	1.134316	-0.877910	0.103823
H152	H	1.130573	-1.017895	0.240373
H153	H	1.064148	-1.017865	0.173849
H154	H	1.045092	-1.090267	0.259433
O155	O	0.793634	-1.097820	0.510663
C156	C	0.770713	-1.204085	0.615871
C157	C	0.825049	-1.152212	0.561547
H158	H	0.796093	-1.248059	0.657031
H159	H	0.729615	-1.248321	0.590549
H160	H	0.746206	-1.154219	0.640273
H161	H	0.849608	-1.202013	0.537126
H162	H	0.866103	-1.107962	0.586906
O163	O	0.821609	-0.548230	1.005889
C164	C	0.720788	-0.662601	1.028164
C165	C	0.776708	-0.599111	1.058786
H166	H	0.684463	-0.703741	1.070914
H167	H	0.745652	-0.709856	1.001208
H168	H	0.690823	-0.621152	0.989684
H169	H	0.806693	-0.640487	1.097293
H170	H	0.751802	-0.551853	1.085698
H171	H	1.013916	-0.329870	0.627308
O172	O	1.021986	-0.320735	0.759814
C173	C	1.122744	-0.206262	0.737532
C174	C	1.066819	-0.269740	0.706905
H175	H	1.158998	-0.165003	0.694769
H176	H	1.152794	-0.247636	0.775977
H177	H	1.097807	-0.159109	0.764526
H178	H	1.091700	-0.316905	0.679876
H179	H	1.036775	-0.228310	0.668495
H180	H	0.798463	-0.778063	0.505543
