data_functionalizedCrystal
_audit_creation_method	'MofGen! by Chris Wilmer'
_symmetry_space_group_name_H-M	'P1'
_symmetry_Int_Tables_number	1
_symmetry_cell_setting	triclinic
loop_
_symmetry_equiv_pos_as_xyz
  x,y,z
_cell_length_a	10.654556
_cell_length_b	10.868271
_cell_length_c	11.792253
_cell_angle_alpha	89.993028
_cell_angle_beta	95.656932
_cell_angle_gamma	90.002712
loop_
_atom_site_label
_atom_site_type_symbol
_atom_site_fract_x
_atom_site_fract_y
_atom_site_fract_z
O1	O	1.667394	0.102293	-0.159448
O2	O	1.301874	0.102307	-0.174629
O3	O	1.493496	0.102274	-0.001890
O4	O	1.475772	0.102326	-0.332187
O5	O	1.493478	-0.102371	-0.001895
O6	O	1.301857	-0.102338	-0.174634
O7	O	1.667376	-0.102352	-0.159454
Zn8	Zn	1.484614	-0.134837	-0.167045
Zn9	Zn	1.484637	0.134792	-0.167038
O10	O	1.475755	-0.102319	-0.332193
C11	C	1.255071	-0.000014	-0.173516
C12	C	1.115637	-0.000010	-0.170176
C13	C	0.919114	0.111532	-0.165471
C14	C	1.050128	0.111540	-0.168602
C15	C	1.050128	-0.111575	-0.168608
C16	C	0.919118	-0.111582	-0.165469
N17	N	1.484607	-0.318851	-0.167049
C18	C	1.484617	-0.430188	-0.167050
C19	C	1.484634	-0.569866	-0.167039
C20	C	1.714180	-0.000028	-0.160567
C21	C	1.853613	-0.000025	-0.163906
C22	C	1.492371	-0.000052	0.040401
C23	C	1.489029	-0.000064	0.166422
N24	N	1.484653	0.318806	-0.167024
C25	C	1.486314	-0.000070	0.268765
C26	C	1.482919	-0.000072	0.397159
C27	C	1.476880	-0.000016	0.625516
C28	C	1.480222	-0.000072	0.499496
H29	H	1.103453	0.202381	-0.169874
H30	H	0.865785	0.202369	-0.164198
Br31	Br	1.139032	-0.262966	-0.170738
H32	H	0.865785	-0.202430	-0.164194
