data_functionalizedCrystal
_audit_creation_method	'MofGen! by Chris Wilmer'
_symmetry_space_group_name_H-M	'P1'
_symmetry_Int_Tables_number	1
_symmetry_cell_setting	triclinic
loop_
_symmetry_equiv_pos_as_xyz
  x,y,z
_cell_length_a	27.732048
_cell_length_b	27.732048
_cell_length_c	7.681481
_cell_angle_alpha	84.300807
_cell_angle_beta	95.681056
_cell_angle_gamma	82.642655
loop_
_atom_site_label
_atom_site_type_symbol
_atom_site_fract_x
_atom_site_fract_y
_atom_site_fract_z
O1	O	0.636329	0.062121	-0.146225
O2	O	0.495534	0.070868	-0.146280
O3	O	0.570305	-0.003903	-0.146217
O4	O	0.561557	0.136893	-0.146288
O5	O	0.579508	-0.013127	0.146648
O6	O	0.504737	0.061645	0.146585
O7	O	0.645532	0.052897	0.146641
Zn8	Zn	0.576596	0.055807	0.193112
Zn9	Zn	0.564470	0.067959	-0.192751
O10	O	0.570761	0.127669	0.146578
C11	C	0.482128	0.066073	0.000146
C12	C	0.428473	0.065521	0.000126
C13	C	0.089659	0.106223	0.000182
C14	C	-0.112000	0.104171	0.000198
O15	O	-0.143254	0.141390	0.000256
N16	N	-0.131123	0.059836	0.000217
C17	C	-0.099827	0.016009	0.000244
O18	O	-0.120719	-0.021749	0.000279
C19	C	0.101831	0.018061	0.000240
C20	C	0.120951	0.062400	0.000203
C21	C	0.108779	0.150559	0.000147
C22	C	0.159191	0.151071	0.000133
C23	C	0.190482	0.107248	0.000154
C24	C	0.171362	0.062913	0.000189
C25	C	0.133126	-0.025765	0.000279
C26	C	0.183543	-0.025249	0.000282
C27	C	0.202663	0.019091	0.000245
C28	C	0.253065	0.019603	0.000196
N29	N	0.272188	0.063939	0.000177
C30	C	0.240897	0.107761	0.000156
C31	C	-0.205702	0.014935	0.000243
C32	C	-0.256116	0.014422	0.000241
C33	C	-0.268285	0.102585	0.000198
C34	C	-0.217870	0.103098	0.000188
C35	C	-0.186578	0.059271	0.000224
C36	C	0.346765	0.108835	0.000126
C37	C	0.397181	0.109344	0.000105
C38	C	0.409346	0.021182	0.000156
C39	C	0.358934	0.020673	0.000168
C40	C	0.327644	0.064503	0.000159
O41	O	0.284348	-0.017597	0.000159
O42	O	0.261800	0.145513	0.000160
C43	C	0.039248	0.105710	0.000195
C44	C	0.020128	0.061375	0.000230
C45	C	0.051419	0.017552	0.000252
C46	C	-0.030287	0.060862	0.000228
C47	C	-0.061578	0.104685	0.000207
C48	C	-0.042455	0.149020	0.000188
C49	C	0.007956	0.149533	0.000174
C50	C	0.032296	-0.026784	0.000271
C51	C	-0.018116	-0.027293	0.000282
C52	C	-0.049408	0.016530	0.000261
C53	C	0.574723	-0.026522	0.000220
C54	C	0.574171	-0.080177	0.000235
C55	C	0.614872	-0.418990	0.000160
C56	C	0.612821	-0.620649	0.000135
O57	O	0.650039	-0.651903	0.000073
N58	N	0.568485	-0.639772	0.000119
C59	C	0.524659	-0.608477	0.000098
O60	O	0.486901	-0.629369	0.000066
C61	C	0.526711	-0.406819	0.000111
C62	C	0.571050	-0.387699	0.000144
C63	C	0.659208	-0.399870	0.000192
C64	C	0.659721	-0.349458	0.000208
C65	C	0.615898	-0.318167	0.000192
C66	C	0.571562	-0.337287	0.000160
C67	C	0.482884	-0.375524	0.000077
C68	C	0.483401	-0.325106	0.000076
C69	C	0.527740	-0.305987	0.000109
C70	C	0.528253	-0.255585	0.000160
N71	N	0.572588	-0.236462	0.000176
C72	C	0.616411	-0.267753	0.000192
C73	C	0.523585	-0.714351	0.000095
C74	C	0.523072	-0.764765	0.000095
C75	C	0.611234	-0.776934	0.000128
C76	C	0.611747	-0.726519	0.000141
C77	C	0.567920	-0.695228	0.000111
C78	C	0.617485	-0.161885	0.000227
C79	C	0.617994	-0.111468	0.000251
C80	C	0.529832	-0.099304	0.000207
C81	C	0.529322	-0.149716	0.000193
C82	C	0.573153	-0.181006	0.000197
O83	O	0.491053	-0.224302	0.000203
O84	O	0.654162	-0.246850	0.000186
C85	C	0.614360	-0.469402	0.000144
C86	C	0.570024	-0.488522	0.000113
C87	C	0.526201	-0.457231	0.000097
C88	C	0.569511	-0.538936	0.000113
C89	C	0.613334	-0.570227	0.000128
C90	C	0.657670	-0.551104	0.000144
C91	C	0.658182	-0.500693	0.000160
C92	C	0.481866	-0.476354	0.000081
C93	C	0.481357	-0.526766	0.000067
C94	C	0.525179	-0.558057	0.000083
C95	C	0.658937	0.057693	0.000211
C96	C	0.712593	0.058245	0.000219
C97	C	0.566342	0.150288	0.000136
C98	C	0.566894	0.203944	0.000111
N99	N	0.584875	0.047512	0.456453
N100	N	0.556195	0.076250	-0.456092
H101	H	0.412745	0.145452	0.000073
N102	N	0.313023	0.156106	0.000158
H103	H	0.332792	0.184267	0.000144
H104	H	0.288419	0.161242	-0.108396
H105	H	0.614157	0.018182	0.531684
H106	H	-0.271679	-0.021682	0.000243
H107	H	0.647851	-0.710955	0.000167
H108	H	0.693352	-0.576591	0.000165
N109	N	-0.171960	-0.032340	0.000260
H110	H	-0.154187	-0.030676	-0.108305
H111	H	-0.147386	-0.037494	0.108898
N112	N	0.476314	-0.680604	0.000089
H113	H	0.471143	-0.655991	-0.108476
H114	H	0.448182	-0.700408	0.000152
N115	N	0.517408	0.115101	0.444291
H116	H	0.523762	0.148359	0.476262
H117	H	0.518363	0.114113	0.313586
N118	N	0.433528	-0.547380	0.000051
H119	H	0.410938	-0.532517	-0.108522
H120	H	0.439887	-0.584064	0.000111
N121	N	0.434597	-0.442608	0.000062
H122	H	0.406437	-0.462376	0.000050
H123	H	0.436301	-0.424852	0.108639
H124	H	0.174753	0.187177	0.000102
H125	H	0.446778	-0.391081	0.000039
H126	H	0.117568	-0.061871	0.000310
H127	H	0.654102	-0.095905	0.000283
N128	N	0.075037	0.197826	0.000224
H129	H	0.094808	0.225984	0.000235
H130	H	0.050429	0.202972	-0.108319
N131	N	0.658501	-0.810688	0.000151
H132	H	0.651444	-0.845525	0.000145
H133	H	0.674425	-0.801112	-0.108417
H134	H	0.653175	-0.187355	0.000224
H135	H	-0.202306	0.139202	0.000168
H136	H	-0.293771	0.138267	0.000181
H137	H	0.343365	-0.015431	0.000172
N138	N	0.217294	-0.072520	0.000332
H139	H	0.197528	-0.100683	0.000357
H140	H	0.235061	-0.070813	-0.108238
H141	H	0.434832	-0.014498	0.000167
H142	H	0.023519	0.185639	0.000147
H143	H	-0.067942	0.184703	0.000164
N144	N	0.475251	-0.785386	0.000106
H145	H	0.447570	-0.757909	0.000097
H146	H	0.469701	-0.802615	-0.108460
H147	H	-0.033679	-0.063402	0.000299
H148	H	0.057769	-0.062471	0.000292
H149	H	0.695826	-0.333896	0.000228
H150	H	0.694895	-0.425343	0.000199
H151	H	0.447712	-0.299631	0.000048
N152	N	0.481502	-0.170343	0.000181
H153	H	0.453819	-0.142868	0.000180
H154	H	0.475957	-0.187566	-0.108402
N155	N	0.706004	-0.480072	0.000177
H156	H	0.711598	-0.462852	0.108747
H157	H	0.733654	-0.507574	0.000115
H158	H	0.494153	-0.073818	0.000201
