data_functionalizedCrystal
_audit_creation_method	'MofGen! by Chris Wilmer'
_symmetry_space_group_name_H-M	'P1'
_symmetry_Int_Tables_number	1
_symmetry_cell_setting	triclinic
loop_
_symmetry_equiv_pos_as_xyz
  x,y,z
_cell_length_a	10.489711
_cell_length_b	10.489746
_cell_length_c	16.776229
_cell_angle_alpha	89.993070
_cell_angle_beta	89.991344
_cell_angle_gamma	84.534155
loop_
_atom_site_label
_atom_site_type_symbol
_atom_site_fract_x
_atom_site_fract_y
_atom_site_fract_z
O1	O	1.694084	0.179790	-0.066318
O2	O	2.194084	0.679790	0.433682
O3	O	1.322883	0.196722	-0.066313
O4	O	1.822883	0.696722	0.433687
O5	O	1.516927	0.002658	-0.066310
O6	O	2.016927	0.502658	0.433690
O7	O	1.500040	0.373854	-0.066321
O8	O	2.000040	0.873854	0.433679
O9	O	1.516900	0.002645	0.066267
O10	O	2.016900	0.502645	0.566267
O11	O	1.322857	0.196710	0.066263
O12	O	1.822857	0.696710	0.566263
O13	O	1.694058	0.179778	0.066259
O14	O	2.194058	0.679778	0.566259
Zn15	Zn	1.508453	0.188242	0.087310
Zn16	Zn	2.008453	0.688242	0.587310
Zn17	Zn	1.508488	0.188258	-0.087365
Zn18	Zn	2.008488	0.688258	0.412635
O19	O	1.500014	0.373842	0.066255
O20	O	2.000014	0.873842	0.566255
C21	C	1.275338	0.195445	-0.000024
C22	C	1.775338	0.695445	0.499976
C23	C	1.133707	0.191643	-0.000022
C24	C	1.633707	0.691643	0.499978
C25	C	0.951322	0.308348	-0.000035
C26	C	1.451322	0.808348	0.499965
C27	C	1.043480	0.250058	-0.065399
C28	C	1.543480	0.750058	0.434601
C29	C	1.043427	0.250015	0.065311
C30	C	1.543427	0.750015	0.565311
C31	C	0.973526	0.126516	-0.065457
C32	C	1.473526	0.626516	0.434543
C33	C	0.973464	0.126490	0.065312
C34	C	1.473464	0.626490	0.565312
C35	C	1.065594	0.068111	-0.000068
C36	C	1.565594	0.568111	0.499932
C37	C	1.515637	-0.044880	-0.000022
C38	C	2.015637	0.455120	0.499978
C39	C	1.511817	-0.186509	-0.000022
C40	C	2.011817	0.313491	0.499978
C41	C	1.386092	-0.339353	-0.000030
C42	C	1.886092	0.160647	0.499970
C43	C	1.448962	-0.261961	-0.065397
C44	C	1.948962	0.238039	0.434603
C45	C	1.448966	-0.262015	0.065313
C46	C	1.948966	0.237985	0.565313
C47	C	1.567945	-0.361466	-0.065460
C48	C	2.067945	0.138534	0.434540
C49	C	1.567931	-0.361524	0.065309
C50	C	2.067931	0.138476	0.565309
C51	C	1.630889	-0.284182	-0.000073
C52	C	2.130889	0.215818	0.499927
C53	C	1.741603	0.181055	-0.000032
C54	C	2.241603	0.681055	0.499968
C55	C	1.883234	0.184857	-0.000039
C56	C	2.383234	0.684857	0.499961
C57	C	1.501304	0.421380	-0.000035
C58	C	2.001304	0.921380	0.499965
C59	C	1.505124	0.563008	-0.000039
C60	C	2.005124	1.063008	0.499961
N61	N	1.508439	0.188230	0.206522
N62	N	2.008439	0.688230	0.706522
N63	N	1.508512	0.188260	-0.206576
N64	N	2.008512	0.688260	0.293424
C65	C	1.594388	0.102334	0.248240
C66	C	2.094388	0.602334	0.748240
C67	C	1.594395	0.102333	0.331693
C68	C	2.094395	0.602333	0.831693
C69	C	1.508458	0.188235	0.373425
C70	C	2.008458	0.688235	0.873425
C71	C	1.422500	0.274135	0.331700
C72	C	1.922500	0.774135	0.831700
C73	C	1.422488	0.274129	0.248249
C74	C	1.922488	0.774129	0.748249
C75	C	1.422547	0.274161	0.668247
C76	C	1.922547	0.774161	1.168247
C77	C	1.422568	0.274163	0.751704
C78	C	1.922568	0.774163	1.251704
C79	C	1.594454	0.102365	0.751690
C80	C	2.094454	0.602365	1.251690
C81	C	1.594442	0.102359	0.668240
C82	C	2.094442	0.602359	1.168240
C83	C	1.508479	0.188254	0.626523
C84	C	2.008479	0.688254	1.126523
C85	C	1.508471	0.188252	0.536034
C86	C	2.008471	0.688252	1.036034
C87	C	1.508472	0.188244	0.463911
C88	C	2.008472	0.688244	0.963911
H89	H	1.074486	0.302319	-0.120661
H90	H	1.574486	0.802319	0.379339
H91	H	0.942727	0.074318	-0.120782
H92	H	1.442727	0.574318	0.379218
H93	H	1.618171	-0.404747	-0.120785
H94	H	2.118171	0.095253	0.379215
H95	H	1.618125	-0.405034	0.120574
H96	H	2.118125	0.094966	0.620574
H97	H	1.352583	0.344117	0.785681
H98	H	1.852583	0.844117	1.285681
H99	H	1.074373	0.302283	0.120572
H100	H	1.574373	0.802283	0.620572
H101	H	0.901634	0.409849	-0.000103
H102	H	1.401634	0.909849	0.499897
H103	H	1.398724	-0.218476	-0.120659
H104	H	1.898724	0.281524	0.379341
H105	H	1.664381	0.032390	0.365659
H106	H	2.164381	0.532390	0.865659
H107	H	1.115050	-0.033484	-0.000098
H108	H	1.615050	0.466516	0.499902
H109	H	1.664423	0.032414	0.634264
H110	H	2.164423	0.532414	1.134264
H111	H	1.398683	-0.218570	0.120576
H112	H	1.898683	0.281430	0.620576
H113	H	0.942429	0.074276	0.120578
H114	H	1.442429	0.574276	0.620578
H115	H	1.664373	0.032388	0.214268
H116	H	2.164373	0.532388	0.714268
H117	H	1.282589	-0.364061	-0.000094
H118	H	1.782589	0.135939	0.499906
H119	H	1.734470	-0.259718	-0.000110
H120	H	2.234470	0.240282	0.499890
H121	H	1.352555	0.344102	0.634288
H122	H	1.852555	0.844102	1.134288
H123	H	1.664445	0.032420	0.785665
H124	H	2.164445	0.532420	1.285665
H125	H	1.352522	0.344074	0.365683
H126	H	1.852522	0.844074	0.865683
H127	H	1.352498	0.344073	0.214283
H128	H	1.852498	0.844073	0.714283
