data_functionalizedCrystal
_audit_creation_method	'MofGen! by Chris Wilmer'
_symmetry_space_group_name_H-M	'P1'
_symmetry_Int_Tables_number	1
_symmetry_cell_setting	triclinic
loop_
_symmetry_equiv_pos_as_xyz
  x,y,z
_cell_length_a	23.532407
_cell_length_b	23.532355
_cell_length_c	16.776229
_cell_angle_alpha	89.995397
_cell_angle_beta	90.000166
_cell_angle_gamma	97.161913
loop_
_atom_site_label
_atom_site_type_symbol
_atom_site_fract_x
_atom_site_fract_y
_atom_site_fract_z
O1	O	-0.068997	0.755276	0.066167
O2	O	0.431003	1.255276	0.566167
O3	O	-0.079031	0.589408	0.066191
O4	O	0.420969	1.089408	0.566191
O5	O	0.008919	0.677344	0.066188
O6	O	0.508919	1.177344	0.566188
O7	O	-0.156946	0.667340	0.066170
O8	O	0.343054	1.167340	0.566170
O9	O	0.008927	0.677342	-0.066388
O10	O	0.508927	1.177342	0.433612
O11	O	-0.079023	0.589407	-0.066386
O12	O	0.420977	1.089407	0.433614
O13	O	-0.068989	0.755274	-0.066409
O14	O	0.431011	1.255274	0.433591
Zn15	Zn	-0.074005	0.672340	-0.087447
Zn16	Zn	0.425995	1.172340	0.412553
Zn17	Zn	-0.074015	0.672342	0.087228
Zn18	Zn	0.425985	1.172342	0.587228
O19	O	-0.156939	0.667339	-0.066407
O20	O	0.343061	1.167339	0.433593
C21	C	-0.078776	0.568191	-0.000094
C22	C	0.421224	1.068191	0.499906
C23	C	-0.078022	0.504972	-0.000085
C24	C	0.421978	1.004972	0.499915
C25	C	-0.073280	0.112957	-0.072385
C26	C	0.426720	0.612957	0.427615
C27	C	-0.072562	0.053558	-0.072388
C28	C	0.427438	0.553558	0.427612
O29	O	-0.072168	0.022839	-0.133848
O30	O	0.427832	0.522839	0.366152
N31	N	-0.072211	0.023850	-0.000121
N32	N	0.427789	0.523850	0.499879
C33	C	-0.072571	0.053546	0.072154
C34	C	0.427429	0.553546	0.572154
O35	O	-0.072205	0.022823	0.133623
O36	O	0.427795	0.522823	0.633623
C37	C	-0.073284	0.112945	0.072156
C38	C	0.426716	0.612945	0.572156
C39	C	-0.073641	0.142649	-0.000115
C40	C	0.426359	0.642649	0.499885
C41	C	-0.073636	0.142661	-0.144651
C42	C	0.426364	0.642661	0.355349
C43	C	-0.074355	0.202057	-0.144648
C44	C	0.425645	0.702057	0.355352
C45	C	-0.074717	0.231748	-0.072378
C46	C	0.425283	0.731748	0.427622
C47	C	-0.074360	0.202044	-0.000112
C48	C	0.425640	0.702044	0.499888
C49	C	-0.073640	0.142640	0.144431
C50	C	0.426360	0.642640	0.644431
C51	C	-0.074353	0.202043	0.144427
C52	C	0.425647	0.702043	0.644427
C53	C	-0.074710	0.231747	0.072155
C54	C	0.425290	0.731747	0.572155
C55	C	-0.075440	0.291130	0.072161
C56	C	0.424560	0.791130	0.572161
N57	N	-0.075792	0.320838	-0.000107
N58	N	0.424208	0.820838	0.499893
C59	C	-0.075430	0.291147	-0.072376
C60	C	0.424570	0.791147	0.427624
C61	C	-0.071072	-0.071195	0.072144
C62	C	0.428928	0.428805	0.572144
C63	C	-0.070363	-0.130594	0.072143
C64	C	0.429637	0.369406	0.572143
C65	C	-0.070353	-0.130578	-0.072400
C66	C	0.429647	0.369422	0.427600
C67	C	-0.071066	-0.071179	-0.072397
C68	C	0.428934	0.428821	0.427603
C69	C	-0.071423	-0.041488	-0.000123
C70	C	0.428577	0.458512	0.499877
C71	C	-0.076939	0.415881	-0.072364
C72	C	0.423061	0.915881	0.427636
C73	C	-0.077660	0.475281	-0.072354
C74	C	0.422340	0.975281	0.427646
C75	C	-0.077667	0.475260	0.072188
C76	C	0.422333	0.975260	0.572188
C77	C	-0.076949	0.415865	0.072179
C78	C	0.423051	0.915865	0.572179
C79	C	-0.076583	0.386177	-0.000104
C80	C	0.423417	0.886177	0.499896
O81	O	-0.075832	0.321888	0.133589
O82	O	0.424168	0.821888	0.633589
O83	O	-0.075788	0.321878	-0.133834
O84	O	0.424212	0.821878	0.366166
C85	C	-0.178158	0.667594	-0.000121
C86	C	0.321842	1.167594	0.499879
C87	C	-0.241375	0.668360	-0.000129
C88	C	0.258625	1.168360	0.499871
C89	C	-0.640487	0.621125	-0.000081
C90	C	-0.140487	1.121125	0.499919
C91	C	-0.699887	0.621837	-0.000076
C92	C	-0.199887	1.121837	0.499924
O93	O	-0.736640	0.578050	-0.000040
O94	O	-0.236640	1.078050	0.499960
N95	N	-0.722504	0.674114	-0.000084
N96	N	-0.222504	1.174114	0.499916
C97	C	-0.685717	0.725684	-0.000090
C98	C	-0.185717	1.225684	0.499910
O99	O	-0.710408	0.770216	-0.000096
O100	O	-0.210408	1.270216	0.499904
C101	C	-0.626318	0.724972	-0.000090
C102	C	-0.126318	1.224972	0.499910
C103	C	-0.603705	0.672691	-0.000090
C104	C	-0.103705	1.172691	0.499910
C105	C	-0.617874	0.568849	-0.000080
C106	C	-0.117874	1.068849	0.499920
C107	C	-0.558478	0.568137	-0.000087
C108	C	-0.058478	1.068137	0.499913
C109	C	-0.521695	0.619703	-0.000095
C110	C	-0.021695	1.119703	0.499905
C111	C	-0.544309	0.671980	-0.000097
C112	C	-0.044309	1.171980	0.499903
C113	C	-0.589532	0.776541	-0.000090
C114	C	-0.089532	1.276541	0.499910
C115	C	-0.530129	0.775824	-0.000089
C116	C	-0.030129	1.275824	0.499911
C117	C	-0.507516	0.723543	-0.000089
C118	C	-0.007516	1.223543	0.499911
C119	C	-0.448130	0.722834	-0.000112
C120	C	0.051870	1.222834	0.499888
N121	N	-0.425514	0.670556	-0.000103
N122	N	0.074486	1.170556	0.499897
C123	C	-0.462296	0.618991	-0.000095
C124	C	0.037704	1.118991	0.499905
C125	C	-0.810459	0.727175	-0.000089
C126	C	-0.310459	1.227175	0.499911
C127	C	-0.869857	0.727888	-0.000095
C128	C	-0.369857	1.227888	0.499905
C129	C	-0.884023	0.624041	-0.000079
C130	C	-0.384023	1.124041	0.499921
C131	C	-0.824624	0.623329	-0.000079
C132	C	-0.324624	1.123329	0.499921
C133	C	-0.787842	0.674898	-0.000081
C134	C	-0.287842	1.174898	0.499919
C135	C	-0.337560	0.617501	-0.000110
C136	C	0.162440	1.117501	0.499890
C137	C	-0.278158	0.616794	-0.000121
C138	C	0.221842	1.116794	0.499879
C139	C	-0.263996	0.720642	-0.000132
C140	C	0.236004	1.220642	0.499868
C141	C	-0.323393	0.721349	-0.000126
C142	C	0.176607	1.221349	0.499874
C143	C	-0.360174	0.669774	-0.000112
C144	C	0.139826	1.169774	0.499888
O145	O	-0.411343	0.766598	-0.000144
O146	O	0.088657	1.266598	0.499856
O147	O	-0.437597	0.574467	-0.000079
O148	O	0.062403	1.074467	0.499921
C149	C	0.030139	0.677088	-0.000096
C150	C	0.530139	1.177088	0.499904
C151	C	0.093356	0.676322	-0.000083
C152	C	0.593356	1.176322	0.499917
C153	C	-0.069244	0.776492	-0.000123
C154	C	0.430756	1.276492	0.499877
C155	C	-0.069998	0.839710	-0.000127
C156	C	0.430002	1.339710	0.499873
N157	N	-0.074018	0.672344	0.206440
N158	N	0.425982	1.172344	0.706440
N159	N	-0.073997	0.672343	-0.206658
N160	N	0.426003	1.172343	0.293342
C161	C	-0.035149	0.711353	0.248156
C162	C	0.464851	1.211353	0.748156
C163	C	-0.035148	0.711355	0.331608
C164	C	0.464852	1.211355	0.831608
C165	C	-0.074013	0.672345	0.373342
C166	C	0.425987	1.172345	0.873342
C167	C	-0.112885	0.633334	0.331621
C168	C	0.387115	1.133334	0.831621
C169	C	-0.112889	0.633335	0.248170
C170	C	0.387111	1.133335	0.748170
C171	C	-0.112871	0.633329	0.668168
C172	C	0.387129	1.133329	1.168168
C173	C	-0.112863	0.633330	0.751624
C174	C	0.387137	1.133330	1.251624
C175	C	-0.035131	0.711350	0.751606
C176	C	0.464869	1.211350	1.251606
C177	C	-0.035134	0.711351	0.668155
C178	C	0.464866	1.211351	1.168155
C179	C	-0.074008	0.672342	0.626440
C180	C	0.425992	1.172342	1.126440
C181	C	-0.074010	0.672341	0.535952
C182	C	0.425990	1.172341	1.035952
C183	C	-0.074008	0.672343	0.463829
C184	C	0.425992	1.172343	0.963829
H185	H	-0.074644	0.226214	0.203283
H186	H	0.425356	0.726214	0.703283
H187	H	-0.003499	0.743118	0.214181
H188	H	0.496501	1.243118	0.714181
H189	H	-0.144523	0.601566	0.634210
H190	H	0.355477	1.101566	1.134210
C191	C	0.007126	0.753606	0.796979
C192	C	0.507126	1.253606	1.296979
C193	C	0.041885	0.723521	0.844881
C194	C	0.541885	1.223521	1.344881
C195	C	0.080824	0.762419	0.886686
C196	C	0.580824	1.262419	1.386686
H197	H	0.030326	0.776840	0.760246
H198	H	0.530326	1.276840	1.260246
H199	H	-0.013241	0.777161	0.829592
H200	H	0.486759	1.277161	1.329592
H201	H	0.062251	0.699976	0.812271
H202	H	0.562251	1.199976	1.312271
H203	H	0.018700	0.700289	0.881629
H204	H	0.518700	1.200289	1.381629
H205	H	0.060457	0.785974	0.919299
H206	H	0.560457	1.285974	1.419299
H207	H	0.104021	0.785651	0.849947
H208	H	0.604021	1.285651	1.349947
H209	H	0.104409	0.742013	0.919198
H210	H	0.604409	1.242013	1.419198
H211	H	-0.144514	0.601562	0.785603
H212	H	0.355486	1.101562	1.285603
H213	H	-0.071368	-0.047026	0.131002
H214	H	0.428632	0.452974	0.631002
C215	C	-0.073217	0.110508	0.222983
C216	C	0.426783	0.610508	0.722983
C217	C	-0.073665	0.149238	0.286263
C218	C	0.426335	0.649238	0.786263
C219	C	-0.073265	0.119662	0.358642
C220	C	0.426735	0.619662	0.858642
H221	H	-0.106142	0.082799	0.226114
H222	H	0.393858	0.582799	0.726114
H223	H	-0.039706	0.091889	0.226030
H224	H	0.460294	0.591889	0.726030
H225	H	-0.107173	0.167848	0.283218
H226	H	0.392827	0.667848	0.783218
H227	H	-0.040743	0.176949	0.283159
H228	H	0.459257	0.676949	0.783159
H229	H	-0.039754	0.101043	0.361689
H230	H	0.460246	0.601043	0.861689
H231	H	-0.106190	0.091954	0.361765
H232	H	0.393810	0.591954	0.861765
H233	H	-0.073564	0.145937	0.401586
H234	H	0.426436	0.645937	0.901586
H235	H	-0.077953	0.499463	-0.131209
H236	H	0.422047	0.999463	0.368791
C237	C	-0.770620	0.783231	-0.000144
C238	C	-0.270620	1.283231	0.499856
C239	C	-0.803147	0.829160	-0.000174
C240	C	-0.303147	1.329160	0.499826
C241	C	-0.766471	0.880805	-0.000234
C242	C	-0.266471	1.380805	0.499766
H243	H	-0.747139	0.785199	0.046074
H244	H	-0.247139	1.285199	0.546074
H245	H	-0.747164	0.785143	-0.046397
H246	H	-0.247164	1.285143	0.453603
H247	H	-0.826593	0.827248	0.046074
H248	H	-0.326593	1.327248	0.546074
H249	H	-0.826627	0.827211	-0.046388
H250	H	-0.326627	1.327211	0.453612
H251	H	-0.743015	0.882718	-0.046487
H252	H	-0.243015	1.382718	0.453513
H253	H	-0.742992	0.882768	0.045985
H254	H	-0.242992	1.382768	0.545985
H255	H	-0.788535	0.911975	-0.000261
H256	H	-0.288535	1.411975	0.499739
H257	H	-0.259750	0.574219	-0.000124
H258	H	0.240250	1.074219	0.499876
H259	H	-0.070081	-0.154775	0.130994
H260	H	0.429919	0.345225	0.630994
H261	H	-0.144540	0.601570	0.214205
H262	H	0.355460	1.101570	0.714205
C263	C	-0.800044	0.566583	-0.000235
C264	C	-0.300044	1.066583	0.499765
C265	C	-0.766368	0.563128	-0.068449
C266	C	-0.266368	1.063128	0.431551
C267	C	-0.743725	0.510857	-0.068622
C268	C	-0.243725	1.010857	0.431378
H269	H	-0.777130	0.564089	0.045946
H270	H	-0.277130	1.064089	0.545946
H271	H	-0.830447	0.535961	-0.000274
H272	H	-0.330447	1.035961	0.499726
H273	H	-0.735969	0.593742	-0.068402
H274	H	-0.235969	1.093742	0.431598
H275	H	-0.789269	0.565612	-0.114640
H276	H	-0.289269	1.065612	0.385360
H277	H	-0.774128	0.480234	-0.068662
H278	H	-0.274128	0.980234	0.431338
H279	H	-0.720814	0.508367	-0.022439
H280	H	-0.220814	1.008367	0.477561
H281	H	-0.720878	0.508503	-0.114908
H282	H	-0.220878	1.008503	0.385092
C283	C	-0.155017	0.591004	0.377074
C284	C	0.344983	1.091004	0.877074
C285	C	-0.146685	0.599340	0.459086
C286	C	0.353315	1.099340	0.959086
C287	C	-0.185480	0.560349	0.500980
C288	C	0.314520	1.060349	1.000980
H289	H	-0.193042	0.596860	0.363499
H290	H	0.306958	1.096860	0.863499
H291	H	-0.148953	0.553040	0.363444
H292	H	0.351047	1.053040	0.863444
H293	H	-0.152753	0.637295	0.472710
H294	H	0.347247	1.137295	0.972710
H295	H	-0.108668	0.593479	0.472684
H296	H	0.391332	1.093479	0.972684
H297	H	-0.179416	0.522384	0.487350
H298	H	0.320584	1.022384	0.987350
H299	H	-0.223503	0.566208	0.487399
H300	H	0.276497	1.066208	0.987399
H301	H	-0.179829	0.565996	0.556629
H302	H	0.320171	1.065996	1.056629
C303	C	-0.490167	0.831798	0.000071
C304	C	0.009833	1.331798	0.500071
C305	C	-0.455659	0.834431	0.068285
C306	C	0.044341	1.334431	0.568285
C307	C	-0.418846	0.885988	0.068463
C308	C	0.081154	1.385988	0.568463
H309	H	-0.466649	0.833737	-0.046110
H310	H	0.033351	1.333737	0.453890
H311	H	-0.512126	0.863050	0.000114
H312	H	-0.012126	1.363050	0.500114
H313	H	-0.433703	0.803188	0.068235
H314	H	0.066297	1.303188	0.568235
H315	H	-0.479162	0.832501	0.114477
H316	H	0.020838	1.332501	0.614477
H317	H	-0.440805	0.917239	0.068506
H318	H	0.059195	1.417239	0.568506
H319	H	-0.395332	0.887922	0.022280
H320	H	0.104668	1.387922	0.522280
H321	H	-0.395432	0.887783	0.114749
H322	H	0.104568	1.387783	0.614749
C323	C	-0.347837	0.778168	-0.000085
C324	C	0.152163	1.278168	0.499915
C325	C	-0.302908	0.823174	-0.000075
C326	C	0.197092	1.323174	0.499925
C327	C	-0.325399	0.875525	-0.000014
C328	C	0.174601	1.375525	0.499986
H329	H	-0.370713	0.780691	-0.046297
H330	H	0.129287	1.280691	0.453703
H331	H	-0.370690	0.780632	0.046174
H332	H	0.129310	1.280632	0.546174
H333	H	-0.280065	0.820712	-0.046329
H334	H	0.219935	1.320712	0.453671
H335	H	-0.280029	0.820671	0.046134
H336	H	0.219971	1.320671	0.546134
H337	H	-0.348252	0.877989	0.046245
H338	H	0.151748	1.377989	0.546245
H339	H	-0.348274	0.878042	-0.046227
H340	H	0.151726	1.378042	0.453773
H341	H	-0.294918	0.906068	0.000000
H342	H	0.205082	1.406068	0.500000
C343	C	-0.071418	-0.039029	-0.150948
C344	C	0.428582	0.460971	0.349052
C345	C	-0.070935	-0.077751	-0.214233
C346	C	0.429065	0.422249	0.285767
C347	C	-0.071249	-0.048158	-0.286608
C348	C	0.428751	0.451842	0.213392
H349	H	-0.104901	-0.020385	-0.154073
H350	H	0.395099	0.479615	0.345927
H351	H	-0.038465	-0.011337	-0.153993
H352	H	0.461535	0.488663	0.346007
H353	H	-0.103885	-0.105433	-0.211188
H354	H	0.396115	0.394567	0.288812
H355	H	-0.037454	-0.096396	-0.211134
H356	H	0.462546	0.403604	0.288866
H357	H	-0.038296	-0.020466	-0.289654
H358	H	0.461704	0.479534	0.210346
H359	H	-0.104733	-0.029515	-0.289725
H360	H	0.395267	0.470485	0.210275
H361	H	-0.070916	-0.074425	-0.329555
H362	H	0.429084	0.425575	0.170445
C363	C	-0.224026	0.776607	0.000026
C364	C	0.275974	1.276607	0.500026
C365	C	-0.189521	0.779228	0.068244
C366	C	0.310479	1.279228	0.568244
C367	C	-0.152697	0.830777	0.068428
C368	C	0.347303	1.330777	0.568428
H369	H	-0.200506	0.778542	-0.046152
H370	H	0.299494	1.278542	0.453848
H371	H	-0.245976	0.807864	0.000070
H372	H	0.254024	1.307864	0.500070
H373	H	-0.167573	0.747979	0.068193
H374	H	0.332427	1.247979	0.568193
H375	H	-0.213026	0.777302	0.114433
H376	H	0.286974	1.277302	0.614433
H377	H	-0.174647	0.862035	0.068472
H378	H	0.325353	1.362035	0.568472
H379	H	-0.129181	0.832708	0.022247
H380	H	0.370819	1.332708	0.522247
H381	H	-0.129285	0.832565	0.114716
H382	H	0.370715	1.332565	0.614716
H383	H	-0.070057	-0.154763	-0.131245
H384	H	0.429943	0.345237	0.368755
H385	H	-0.647817	0.526855	-0.000071
H386	H	-0.147817	1.026855	0.499929
H387	H	-0.913983	0.582053	-0.000073
H388	H	-0.413983	1.082053	0.499927
H389	H	-0.003499	0.743120	0.365573
H390	H	0.496501	1.243120	0.865573
H391	H	-0.076667	0.391677	0.131028
H392	H	0.423333	0.891677	0.631028
H393	H	-0.073340	0.118493	-0.203505
H394	H	0.426660	0.618493	0.296495
H395	H	-0.003485	0.743115	0.634177
H396	H	0.496515	1.243115	1.134177
H397	H	-0.076647	0.391715	-0.131223
H398	H	0.423353	0.891715	0.368777
H399	H	-0.074642	0.226237	-0.203499
H400	H	0.425358	0.726237	0.296501
H401	H	-0.607932	0.819114	-0.000090
H402	H	-0.107932	1.319114	0.499910
C403	C	-0.078178	0.507459	0.150672
C404	C	0.421822	1.007459	0.650672
C405	C	-0.127017	0.486332	0.194266
C406	C	0.372983	0.986332	0.694266
C407	C	-0.127508	0.515988	0.266563
C408	C	0.372492	1.015988	0.766563
H409	H	-0.044885	0.502280	0.180465
H410	H	0.455115	1.002280	0.680465
H411	H	-0.078687	0.547089	0.140347
H412	H	0.421313	1.047089	0.640347
H413	H	-0.126503	0.446712	0.204593
H414	H	0.373497	0.946712	0.704593
H415	H	-0.160318	0.491512	0.164497
H416	H	0.339682	0.991512	0.664497
H417	H	-0.128016	0.555618	0.256239
H418	H	0.371984	1.055618	0.756239
H419	H	-0.094212	0.510807	0.296349
H420	H	0.405788	1.010807	0.796349
H421	H	-0.160646	0.501662	0.296148
H422	H	0.339354	1.001662	0.796148
C423	C	-0.377515	0.561524	0.000063
C424	C	0.122485	1.061524	0.500063
C425	C	-0.412018	0.558883	0.068284
C426	C	0.087982	1.058883	0.568284
C427	C	-0.448826	0.507323	0.068471
C428	C	0.051174	1.007323	0.568471
H429	H	-0.401037	0.559586	-0.046113
H430	H	0.098963	1.059586	0.453887
H431	H	-0.355553	0.530275	0.000105
H432	H	0.144447	1.030275	0.500105
H433	H	-0.433978	0.590123	0.068235
H434	H	0.066022	1.090123	0.568235
H435	H	-0.388512	0.560811	0.114471
H436	H	0.111488	1.060811	0.614471
H437	H	-0.426865	0.476074	0.068512
H438	H	0.073135	0.976074	0.568512
H439	H	-0.472344	0.505389	0.022291
H440	H	0.027656	1.005389	0.522291
H441	H	-0.472237	0.505522	0.114760
H442	H	0.027763	1.005522	0.614760
H443	H	-0.540072	0.525565	-0.000080
H444	H	-0.040072	1.025565	0.499920
C445	C	-0.894514	0.784593	-0.000143
C446	C	-0.394514	1.284593	0.499857
C447	C	-0.954407	0.774188	-0.000156
C448	C	-0.454407	1.274188	0.499844
C449	C	-0.977138	0.826412	-0.000205
C450	C	-0.477138	1.326412	0.499795
H451	H	-0.881926	0.805852	0.046073
H452	H	-0.381926	1.305852	0.546073
H453	H	-0.881901	0.805814	-0.046398
H454	H	-0.381901	1.305814	0.453602
H455	H	-0.967015	0.752975	0.046094
H456	H	-0.467015	1.252975	0.546094
H457	H	-0.967011	0.752937	-0.046368
H458	H	-0.467011	1.252937	0.453632
H459	H	-0.964525	0.847633	-0.046460
H460	H	-0.464525	1.347633	0.453540
H461	H	-0.964546	0.847667	0.046011
H462	H	-0.464546	1.347667	0.546011
H463	H	-1.017777	0.819359	-0.000221
H464	H	-0.517777	1.319359	0.499779
