data_functionalizedCrystal
_audit_creation_method	'MofGen! by Chris Wilmer'
_symmetry_space_group_name_H-M	'P1'
_symmetry_Int_Tables_number	1
_symmetry_cell_setting	triclinic
loop_
_symmetry_equiv_pos_as_xyz
  x,y,z
_cell_length_a	12.759401
_cell_length_b	12.759399
_cell_length_c	11.169409
_cell_angle_alpha	89.965848
_cell_angle_beta	89.979031
_cell_angle_gamma	90.014202
loop_
_atom_site_label
_atom_site_type_symbol
_atom_site_fract_x
_atom_site_fract_y
_atom_site_fract_z
Zn1	Zn	1.606275	-0.418207	-0.678540
Zn2	Zn	1.606162	-0.593933	-0.477850
Zn3	Zn	1.430571	-0.418266	-0.477873
Zn4	Zn	1.430565	-0.593842	-0.678494
O5	O	1.518393	-0.506062	-0.578189
O6	O	1.753281	-0.441531	-0.651928
O7	O	1.582824	-0.570693	-0.309904
O8	O	1.453928	-0.271237	-0.504521
O9	O	1.753198	-0.570636	-0.504482
O10	O	1.583018	-0.271194	-0.651950
O11	O	1.453818	-0.441631	-0.309920
O12	O	1.283549	-0.441543	-0.504476
O13	O	1.453918	-0.570481	-0.846450
O14	O	1.283545	-0.570538	-0.651871
O15	O	1.583012	-0.441443	-0.846484
O16	O	1.582818	-0.740942	-0.504437
O17	O	1.453808	-0.740875	-0.651849
C18	C	1.245426	-0.506038	-0.578172
C19	C	1.128649	-0.506052	-0.578193
C20	C	0.964094	-0.438973	-0.655094
C21	C	1.073818	-0.438953	-0.655086
C22	C	1.073750	-0.573185	-0.501310
C23	C	0.964028	-0.573210	-0.501325
C24	C	1.223829	-0.401522	-0.796684
C25	C	1.278724	-0.334380	-0.873552
C26	C	1.243123	-0.231893	-0.892187
C27	C	1.152629	-0.196525	-0.833936
C28	C	1.097740	-0.263661	-0.757059
C29	C	1.133339	-0.366163	-0.738447
C30	C	0.814015	-0.610630	-0.359726
C31	C	0.759124	-0.677761	-0.282842
C32	C	0.794723	-0.780251	-0.264195
C33	C	0.885220	-0.815614	-0.322425
C34	C	0.940112	-0.748483	-0.399309
C35	C	0.904505	-0.645995	-0.417958
C36	C	1.518329	-0.779029	-0.578162
C37	C	1.518397	-0.895806	-0.578190
C38	C	1.585650	-0.950668	-0.501520
C39	C	1.585717	-1.060392	-0.501561
C40	C	1.451271	-1.060383	-0.654944
C41	C	1.451209	-0.950661	-0.654909
C42	C	1.709725	-1.210275	-0.458848
C43	C	1.776968	-1.265140	-0.382159
C44	C	1.793129	-1.229606	-0.265056
C45	C	1.742031	-1.139208	-0.224618
C46	C	1.674780	-1.084348	-0.301301
C47	C	1.658639	-1.119881	-0.418420
C48	C	1.327200	-0.800776	-0.697609
C49	C	1.259943	-0.745914	-0.774287
C50	C	1.243772	-0.781446	-0.891392
C51	C	1.294851	-0.871847	-0.931826
C52	C	1.362108	-0.926709	-0.855148
C53	C	1.378281	-0.891170	-0.738044
C54	C	1.792426	-0.506087	-0.578208
C55	C	1.909203	-0.506098	-0.578216
C56	C	1.518477	-0.505946	-0.891232
C57	C	1.518513	-0.505896	-1.024632
C58	C	1.518486	-0.232029	-0.578243
C59	C	1.518526	-0.115252	-0.578266
C60	C	1.518370	-0.506102	-0.266365
C61	C	1.518537	-0.505856	-0.132965
H62	H	1.352405	-0.363186	-0.920980
H63	H	1.640360	-0.906008	-0.439053
C64	C	1.134061	-0.646998	-0.416726
C65	C	1.254751	-0.646971	-0.416701
C66	C	1.315058	-0.720783	-0.332112
C67	C	1.254676	-0.794623	-0.247549
C68	C	1.133979	-0.794653	-0.247572
C69	C	1.073672	-0.720840	-0.332160
H70	H	1.299455	-0.592307	-0.479302
H71	H	1.404406	-0.720761	-0.332096
H72	H	1.299319	-0.849264	-0.184932
H73	H	1.089275	-0.849316	-0.184970
H74	H	0.984324	-0.720863	-0.332176
H75	H	0.750024	-0.834906	-0.201581
H76	H	0.919459	-0.384326	-0.717703
H77	H	1.281685	-0.900778	-1.027183
H78	H	1.696583	-1.239208	-0.554207
H79	H	1.287827	-0.177226	-0.954776
H80	H	0.914209	-0.899068	-0.307238
H81	H	1.013801	-0.777284	-0.446722
C82	C	1.759800	-1.100128	-0.095794
C83	C	1.833774	-1.160469	-0.011446
C84	C	1.851547	-1.121384	0.117379
C85	C	1.795345	-1.021957	0.161856
C86	C	1.721366	-0.961609	0.077507
C87	C	1.703594	-1.000695	-0.051318
H88	H	1.875382	-1.234077	-0.044370
H89	H	1.906311	-1.166058	0.179819
H90	H	1.808501	-0.993024	0.257220
H91	H	1.679758	-0.888002	0.110431
H92	H	1.648830	-0.956020	-0.113759
C93	C	1.867096	-1.289966	-0.180706
C94	C	1.844118	-1.405242	-0.149317
C95	C	1.918089	-1.465609	-0.064979
C96	C	2.015037	-1.410700	-0.012030
C97	C	2.038019	-1.295418	-0.043418
C98	C	1.964049	-1.235050	-0.127756
H99	H	1.772347	-1.445895	-0.188514
H100	H	1.901075	-1.550949	-0.041744
H101	H	2.069794	-1.455388	0.050402
H102	H	2.109790	-1.254765	-0.004221
H103	H	1.981062	-1.149710	-0.150991
H104	H	1.633179	-1.010747	-0.268378
C105	C	1.113474	-0.083780	-0.854426
C106	C	1.173849	-0.009933	-0.938989
C107	C	1.134690	0.102814	-0.959483
C108	C	1.035156	0.141714	-0.895413
C109	C	0.974776	0.067866	-0.810845
C110	C	1.013935	-0.044881	-0.790351
H111	H	1.247534	-0.038728	-0.986422
H112	H	1.179387	0.157480	-1.022086
H113	H	1.006169	0.225176	-0.910584
H114	H	0.901091	0.096661	-0.763412
H115	H	0.969237	-0.099547	-0.727748
H116	H	1.218358	-0.672300	-0.741358
H117	H	0.685177	-0.649108	-0.235841
C118	C	1.418304	-1.026149	-0.899625
C119	C	1.400522	-1.065241	-1.028439
C120	C	1.456717	-1.164680	-1.072913
C121	C	1.530695	-1.225025	-0.988573
C122	C	1.548481	-1.185934	-0.859751
C123	C	1.492285	-1.086496	-0.815277
H124	H	1.345756	-1.020569	-1.090879
H125	H	1.443551	-1.193617	-1.168276
H126	H	1.572294	-1.298636	-1.021496
H127	H	1.603246	-1.230606	-0.797311
H128	H	1.505452	-1.057558	-0.719914
H129	H	1.189002	-0.736768	-0.953820
H130	H	1.023965	-0.234920	-0.709784
H131	H	1.252818	-0.484978	-0.781529
H132	H	1.396567	-1.105059	-0.717404
H133	H	0.785019	-0.527175	-0.374907
H134	H	1.818572	-1.338742	-0.415095
H135	H	1.340370	-0.771831	-0.602255
