data_functionalizedCrystal
_audit_creation_method	'MofGen! by Chris Wilmer'
_symmetry_space_group_name_H-M	'P1'
_symmetry_Int_Tables_number	1
_symmetry_cell_setting	triclinic
loop_
_symmetry_equiv_pos_as_xyz
  x,y,z
_cell_length_a	13.897448
_cell_length_b	15.297475
_cell_length_c	15.296720
_cell_angle_alpha	91.617114
_cell_angle_beta	80.353909
_cell_angle_gamma	99.679517
loop_
_atom_site_label
_atom_site_type_symbol
_atom_site_fract_x
_atom_site_fract_y
_atom_site_fract_z
Zn1	Zn	-0.750725	-1.253455	0.726608
Zn2	Zn	-0.889621	-1.278728	0.580126
Zn3	Zn	-0.696535	-1.132329	0.554848
Zn4	Zn	-0.880140	-1.106953	0.701254
O5	O	-0.804255	-1.192866	0.640709
O6	O	-0.795796	-1.379388	0.728367
O7	O	-0.845298	-1.280504	0.454198
O8	O	-0.568756	-1.148440	0.577665
O9	O	-0.897843	-1.397955	0.620747
O10	O	-0.608569	-1.237431	0.703856
O11	O	-0.703438	-1.172946	0.435627
O12	O	-0.694244	-1.006383	0.553080
O13	O	-0.881683	-1.105191	0.827192
O14	O	-0.829138	-0.987740	0.660644
O15	O	-0.786602	-1.212825	0.845820
O16	O	-1.023331	-1.255899	0.596162
O17	O	-1.016365	-1.129697	0.685154
C18	C	-1.054852	-1.192807	0.640673
C19	C	-1.162080	-1.192856	0.640700
C20	C	-0.754783	-0.965278	0.601368
C21	C	-0.733644	-0.867911	0.584559
C22	C	-0.839129	-1.153358	0.869177
C23	C	-0.853991	-1.136522	0.966536
C24	C	-1.358403	-1.192939	0.640771
C25	C	-1.249155	-1.192890	0.640734
C26	C	-0.552688	-1.192947	0.640769
C27	C	-0.445485	-1.192981	0.640795
C28	C	-0.853922	-1.421344	0.680204
C29	C	-0.875087	-1.518707	0.697035
C30	C	-0.955341	-0.554781	0.760852
C31	C	-0.975208	-0.646262	0.776642
C32	C	-0.914818	-0.701679	0.728623
C33	C	-0.834559	-0.665605	0.664810
C34	C	-0.814694	-0.574115	0.649012
C35	C	-0.774172	-0.721013	0.616784
C36	C	-0.693913	-0.684939	0.552970
C37	C	-0.674051	-0.593458	0.537176
C38	C	-0.734441	-0.538042	0.585196
C39	C	-0.794037	-0.812503	0.632581
C40	C	-0.653391	-0.831837	0.520742
C41	C	-0.633523	-0.740356	0.504951
C42	C	-0.769458	-1.232271	0.413139
C43	C	-0.754362	-1.249277	0.315809
C44	C	-0.697877	-1.313229	1.279771
C45	C	-0.683917	-1.329053	1.188298
C46	C	-0.726434	-1.280921	1.132853
C47	C	-0.782914	-1.216964	1.168890
C48	C	-0.796882	-1.201143	1.260373
C49	C	-0.825439	-1.168836	1.113455
C50	C	-0.881919	-1.104878	1.149492
C51	C	-0.895883	-1.089060	1.240966
C52	C	-0.853367	-1.137191	1.296411
C53	C	-0.811471	-1.184656	1.021973
C54	C	-0.910475	-1.072570	1.002574
C55	C	-0.924435	-1.056746	1.094047
H56	H	-0.859385	-0.841865	0.684539
H57	H	-1.040557	-0.675627	0.828598
O58	O	-0.623009	-1.398034	1.149432
H59	H	-0.546723	-1.380002	1.164404
O60	O	-1.020469	-0.495015	0.812641
H61	H	-0.993167	-0.425340	0.790937
O62	O	-0.936240	-0.800349	0.745650
H63	H	-1.002190	-0.816124	0.798094
O64	O	-0.956805	-1.020079	1.279831
H65	H	-1.020768	-1.052060	1.328266
O66	O	-0.588245	-0.891590	0.468936
H67	H	-0.554274	-0.926488	0.515413
O68	O	-0.956306	-1.020641	0.942767
H69	H	-0.927485	-0.948865	0.948455
H70	H	-0.718267	-0.463549	0.572344
H71	H	-0.608707	-0.564092	0.485206
H72	H	-0.970421	-1.004671	1.123402
O73	O	-0.546982	-0.701450	0.436100
H74	H	-0.543330	-0.628528	0.433176
H75	H	-0.715064	-1.293809	1.058373
H76	H	-0.765483	-1.236730	0.992640
H77	H	-0.663273	-1.352416	1.324923
H78	H	-0.864730	-1.124311	1.370897
