data_functionalizedCrystal
_audit_creation_method	'MofGen! by Chris Wilmer'
_symmetry_space_group_name_H-M	'P1'
_symmetry_Int_Tables_number	1
_symmetry_cell_setting	triclinic
loop_
_symmetry_equiv_pos_as_xyz
  x,y,z
_cell_length_a	13.897449
_cell_length_b	29.839131
_cell_length_c	13.897441
_cell_angle_alpha	89.958174
_cell_angle_beta	89.978743
_cell_angle_gamma	90.036054
loop_
_atom_site_label
_atom_site_type_symbol
_atom_site_fract_x
_atom_site_fract_y
_atom_site_fract_z
Zn1	Zn	1.474565	-0.178833	-0.545368
Zn2	Zn	1.474415	-0.253967	-0.384035
Zn3	Zn	1.313260	-0.178853	-0.384079
Zn4	Zn	1.313186	-0.253938	-0.545280
O5	O	1.393857	-0.216398	-0.464690
O6	O	1.609527	-0.188804	-0.523985
O7	O	1.453006	-0.244023	-0.249059
O8	O	1.334751	-0.115983	-0.405529
O9	O	1.609417	-0.244004	-0.405454
O10	O	1.453261	-0.115969	-0.524028
O11	O	1.334606	-0.188837	-0.249091
O12	O	1.178269	-0.188809	-0.405444
O13	O	1.334625	-0.243955	-0.680273
O14	O	1.178214	-0.243974	-0.523878
O15	O	1.453189	-0.188776	-0.680338
O16	O	1.452935	-0.316830	-0.405369
O17	O	1.334480	-0.316809	-0.523835
C18	C	1.143242	-0.216391	-0.464657
C19	C	1.036028	-0.216399	-0.464665
C20	C	0.948959	-0.216400	-0.464681
C21	C	0.839726	-0.216404	-0.464711
C22	C	1.393709	-0.333120	-0.464609
C23	C	1.393735	-0.383055	-0.464607
C24	C	1.455551	-0.692656	-0.526480
C25	C	1.455656	-0.880329	-0.526538
O26	O	1.508070	-0.904558	-0.579085
N27	N	1.394020	-0.903840	-0.464797
C28	C	1.332350	-0.880430	-0.403042
O29	O	1.279920	-0.904734	-0.350536
C30	C	1.332241	-0.692758	-0.402990
C31	C	1.393887	-0.669249	-0.464728
C32	C	1.517192	-0.669147	-0.588214
C33	C	1.517169	-0.622232	-0.588195
C34	C	1.455505	-0.598825	-0.526443
C35	C	1.393864	-0.622334	-0.464709
C36	C	1.270566	-0.669348	-0.341240
C37	C	1.270543	-0.622427	-0.341234
C38	C	1.332189	-0.598919	-0.402972
C39	C	1.332177	-0.552011	-0.402937
N40	N	1.393813	-0.528500	-0.464678
C41	C	1.455477	-0.551907	-0.526431
C42	C	1.332413	-0.978960	-0.403073
C43	C	1.332441	-1.025878	-0.403084
C44	C	1.455746	-1.025774	-0.526582
C45	C	1.455722	-0.978855	-0.526565
C46	C	1.394048	-0.955449	-0.464814
C47	C	1.455424	-0.453381	-0.526386
C48	C	1.455399	-0.406462	-0.526359
C49	C	1.332090	-0.406570	-0.402865
C50	C	1.332119	-0.453485	-0.402888
C51	C	1.393789	-0.476890	-0.464657
O52	O	1.279783	-0.527754	-0.350426
O53	O	1.507883	-0.527595	-0.578944
C54	C	1.455574	-0.739571	-0.526499
C55	C	1.393934	-0.763080	-0.464765
C56	C	1.332270	-0.739673	-0.403013
C57	C	1.393962	-0.809998	-0.464777
C58	C	1.455626	-0.833405	-0.526530
C59	C	1.517261	-0.809894	-0.588271
C60	C	1.517238	-0.762978	-0.588252
C61	C	1.270634	-0.763184	-0.341272
C62	C	1.270663	-0.810100	-0.341295
C63	C	1.332327	-0.833506	-0.403048
C64	C	1.645449	-0.216405	-0.464725
C65	C	1.752663	-0.216408	-0.464739
C66	C	1.393916	-0.216360	-0.716284
C67	C	1.393941	-0.216344	-0.823498
C68	C	1.394031	-0.099220	-0.464793
C69	C	1.394105	-0.049285	-0.464837
C70	C	1.393961	-0.216331	-0.910567
C71	C	1.393988	-0.216311	-1.019800
C72	C	1.393853	-0.216403	-0.214076
C73	C	1.394015	-0.216293	-0.106863
H74	H	1.505602	-0.387323	-0.576634
F75	F	1.521374	-1.050693	-0.592304
F76	F	1.582776	-0.597218	-0.653912
F77	F	1.582850	-0.737964	-0.653964
H78	H	1.567406	-0.688200	-0.638506
H79	H	1.282189	-0.959906	-0.352785
F80	F	1.521333	-0.953840	-0.592275
F81	F	1.521062	-0.478284	-0.592126
H82	H	1.220367	-0.688481	-0.290966
H83	H	1.282252	-1.045015	-0.352801
H84	H	1.220317	-0.603372	-0.290950
F85	F	1.266520	-0.478506	-0.337169
F86	F	1.266468	-0.381650	-0.337146
H87	H	1.567474	-0.828960	-0.638549
H88	H	1.220465	-0.829236	-0.291011
H89	H	1.220419	-0.744130	-0.290986
