data_functionalizedCrystal
_audit_creation_method	'MofGen! by Chris Wilmer'
_symmetry_space_group_name_H-M	'P1'
_symmetry_Int_Tables_number	1
_symmetry_cell_setting	triclinic
loop_
_symmetry_equiv_pos_as_xyz
  x,y,z
_cell_length_a	12.759395
_cell_length_b	29.839131
_cell_length_c	12.759387
_cell_angle_alpha	89.962744
_cell_angle_beta	89.978972
_cell_angle_gamma	90.042181
loop_
_atom_site_label
_atom_site_type_symbol
_atom_site_fract_x
_atom_site_fract_y
_atom_site_fract_z
Zn1	Zn	1.606074	-0.178821	-0.593972
Zn2	Zn	1.605882	-0.253958	-0.418273
Zn3	Zn	1.430372	-0.178844	-0.418308
Zn4	Zn	1.430282	-0.253925	-0.593911
O5	O	1.518153	-0.216387	-0.506116
O6	O	1.753069	-0.188792	-0.570677
O7	O	1.582558	-0.244018	-0.271256
O8	O	1.453797	-0.115974	-0.441650
O9	O	1.752929	-0.243995	-0.441591
O10	O	1.582884	-0.115957	-0.570711
O11	O	1.453611	-0.188832	-0.271282
O12	O	1.283339	-0.188800	-0.441590
O13	O	1.453644	-0.243939	-0.740940
O14	O	1.283273	-0.243962	-0.570605
O15	O	1.582797	-0.188760	-0.740985
O16	O	1.582471	-0.316821	-0.441531
O17	O	1.453458	-0.316797	-0.570571
C18	C	1.245185	-0.216380	-0.506095
C19	C	1.128408	-0.216388	-0.506112
C20	C	1.517963	-0.333110	-0.506064
C21	C	1.517978	-0.383044	-0.506077
C22	C	0.909120	-0.159007	-0.640780
C23	C	0.964059	-0.130307	-0.708085
C24	C	1.073781	-0.130300	-0.708067
C25	C	1.128565	-0.158996	-0.640739
C26	C	1.073626	-0.187696	-0.573434
C27	C	0.963902	-0.187699	-0.573458
C28	C	1.073469	-0.245088	-0.438807
C29	C	0.963747	-0.245094	-0.438818
C30	C	1.128254	-0.273784	-0.371479
C31	C	1.073314	-0.302482	-0.304168
C32	C	0.963586	-0.302488	-0.304188
C33	C	0.908808	-0.273793	-0.371514
C34	C	1.585452	-0.692687	-0.439023
C35	C	1.585581	-0.880360	-0.439064
O36	O	1.642799	-0.904625	-0.382012
N37	N	1.518370	-0.903829	-0.506195
C38	C	1.451127	-0.880377	-0.573326
O39	O	1.393971	-0.904644	-0.630434
C40	C	1.451004	-0.692704	-0.573290
C41	C	1.518211	-0.669238	-0.506146
C42	C	1.652655	-0.669221	-0.371886
C43	C	1.652617	-0.622306	-0.371872
C44	C	1.585377	-0.598856	-0.438996
C45	C	1.518174	-0.622323	-0.506133
C46	C	1.383766	-0.669253	-0.640425
C47	C	1.383743	-0.622332	-0.640412
C48	C	1.450951	-0.598866	-0.573269
C49	C	1.450897	-0.551958	-0.573243
N50	N	1.518108	-0.528489	-0.506111
C51	C	1.585348	-0.551939	-0.438988
C52	C	1.451195	-0.978907	-0.573339
C53	C	1.451225	-1.025825	-0.573347
C54	C	1.585680	-1.025806	-0.439086
C55	C	1.585645	-0.978887	-0.439073
C56	C	1.518406	-0.955438	-0.506207
C57	C	1.585264	-0.453413	-0.438964
C58	C	1.585218	-0.406493	-0.438953
C59	C	1.450767	-0.406517	-0.573218
C60	C	1.450808	-0.453432	-0.573225
C61	C	1.518066	-0.476879	-0.506095
O62	O	1.393717	-0.527664	-0.630273
O63	O	1.642512	-0.527663	-0.381905
C64	C	1.585489	-0.739603	-0.439037
C65	C	1.518286	-0.763069	-0.506174
C66	C	1.451045	-0.739620	-0.573297
C67	C	1.518315	-0.809987	-0.506182
C68	C	1.585555	-0.833436	-0.439058
C69	C	1.652766	-0.809967	-0.371927
C70	C	1.652729	-0.763052	-0.371913
C71	C	1.383834	-0.763089	-0.640429
C72	C	1.383876	-0.810004	-0.640436
C73	C	1.451117	-0.833453	-0.573312
C74	C	1.792186	-0.216394	-0.506137
C75	C	1.908963	-0.216398	-0.506146
C76	C	1.518232	-0.216343	-0.780150
C77	C	1.518266	-0.216324	-0.896926
C78	C	1.518372	-0.099209	-0.506191
C79	C	1.518465	-0.049274	-0.506223
C80	C	1.652762	-0.158870	-0.896993
C81	C	1.720025	-0.130136	-0.951888
C82	C	1.720050	-0.130120	-1.061610
C83	C	1.652804	-0.158839	-1.116439
C84	C	1.585541	-0.187573	-1.061545
C85	C	1.585525	-0.187587	-0.951821
C86	C	1.451041	-0.245024	-1.061478
C87	C	1.451019	-0.245044	-0.951756
C88	C	1.383794	-0.273744	-1.116308
C89	C	1.316535	-0.302481	-1.061413
C90	C	1.316513	-0.302496	-0.951685
C91	C	1.383756	-0.273778	-0.896862
C92	C	1.518134	-0.216398	-0.233148
C93	C	1.518304	-0.216291	-0.116372
H94	H	0.819779	-0.159001	-0.640779
O95	O	1.383647	-0.273690	-1.222891
C96	C	1.282981	-0.262152	-1.259543
H97	H	1.239577	-0.242569	-1.196324
H98	H	1.237400	-0.293952	-1.278974
C99	C	1.346532	-0.257096	-1.436377
C100	C	1.293225	-0.233041	-1.358734
H101	H	1.352849	-0.239141	-1.497565
H102	H	1.414352	-0.264871	-1.411685
H103	H	1.308540	-0.283595	-1.452557
H104	H	1.331223	-0.206546	-1.342546
H105	H	1.225411	-0.225261	-1.383426
O106	O	1.318575	-0.599534	-0.705739
C107	C	1.378336	-0.572337	-0.773623
H108	H	1.461091	-0.586436	-0.780184
H109	H	1.381941	-0.536787	-0.741134
C110	C	1.225315	-0.554289	-0.874740
C111	C	1.326954	-0.571608	-0.882806
H112	H	1.193619	-0.553837	-0.942088
H113	H	1.185052	-0.572611	-0.829003
H114	H	1.228333	-0.524666	-0.847662
H115	H	1.323934	-0.601232	-0.909871
H116	H	1.367216	-0.553291	-0.928550
H117	H	1.396488	-1.044927	-0.628012
O118	O	1.127203	-0.102486	-0.773556
C119	C	1.190694	-0.128097	-0.841266
H120	H	1.157577	-0.163484	-0.847610
H121	H	1.273827	-0.129625	-0.808752
C122	C	1.233159	-0.062742	-0.942789
C123	C	1.192479	-0.106205	-0.950588
H124	H	1.234266	-0.049238	-1.010222
H125	H	1.190388	-0.045488	-0.897169
H126	H	1.302433	-0.064022	-0.915689
H127	H	1.123203	-0.104924	-0.977674
H128	H	1.235240	-0.123459	-0.996214
O129	O	1.785495	-0.102262	-0.898744
C130	C	1.890191	-0.112093	-0.925550
H131	H	1.892343	-0.129353	-1.005202
H132	H	1.925517	-0.135201	-0.863786
C133	C	1.951285	-0.047102	-0.832839
C134	C	1.953928	-0.068298	-0.930673
H135	H	1.990603	-0.020088	-0.835995
H136	H	1.880750	-0.040480	-0.814775
H137	H	1.980722	-0.066364	-0.781379
H138	H	1.924480	-0.049039	-0.982128
H139	H	2.024460	-0.074916	-0.948746
H140	H	0.819467	-0.273790	-0.371524
O141	O	0.910337	-0.330431	-0.238859
C142	C	0.937078	-0.375216	-0.261645
H143	H	1.016762	-0.376162	-0.302019
H144	H	0.875331	-0.390378	-0.315604
C145	C	0.844191	-0.401216	-0.109519
C146	C	0.942064	-0.402378	-0.159099
H147	H	0.847262	-0.417972	-0.046265
H148	H	0.826171	-0.371044	-0.094169
H149	H	0.792745	-0.413851	-0.154495
H150	H	0.993506	-0.389739	-0.114128
H151	H	0.960093	-0.432550	-0.174438
O152	O	1.251206	-0.330367	-0.898201
C153	C	1.265621	-0.324235	-0.789600
H154	H	1.300102	-0.289570	-0.774639
H155	H	1.321505	-0.350892	-0.758456
C156	C	1.116948	-0.370928	-0.751623
C157	C	1.159290	-0.328351	-0.733247
H158	H	1.051359	-0.373469	-0.716860
H159	H	1.107238	-0.375061	-0.824789
H160	H	1.163528	-0.393138	-0.725669
H161	H	1.112716	-0.306142	-0.759212
H162	H	1.168989	-0.324214	-0.660083
O163	O	1.785237	-0.102160	-1.114986
C164	C	1.725493	-0.073141	-1.178488
H165	H	1.642747	-0.070364	-1.145408
H166	H	1.721859	-0.087022	-1.261631
C167	C	1.878549	-0.029852	-1.220859
C168	C	1.776921	-0.026438	-1.180223
H169	H	1.910274	-0.001044	-1.221934
H170	H	1.918801	-0.049404	-1.178079
H171	H	1.875506	-0.041422	-1.290140
H172	H	1.779967	-0.014875	-1.110939
H173	H	1.736671	-0.006883	-1.222991
O174	O	1.652991	-0.158860	-1.223022
C175	C	1.753673	-0.170385	-1.259695
H176	H	1.797058	-0.189984	-1.196463
H177	H	1.799255	-0.138578	-1.279191
C178	C	1.690187	-0.175393	-1.436498
C179	C	1.743470	-0.199468	-1.358838
H180	H	1.683894	-0.193332	-1.497657
H181	H	1.622356	-0.167627	-1.411792
H182	H	1.728179	-0.148888	-1.452732
H183	H	1.705471	-0.225969	-1.342596
H184	H	1.811294	-0.207239	-1.383544
O185	O	1.385768	-0.956202	-0.638583
C186	C	1.326476	-0.986983	-0.697843
H187	H	1.322899	-1.020441	-0.654805
H188	H	1.364904	-0.991932	-0.777675
C189	C	1.219023	-0.927630	-0.765735
C190	C	1.214623	-0.968722	-0.712870
H191	H	1.150028	-0.916366	-0.775009
H192	H	1.258971	-0.906892	-0.725814
H193	H	1.251051	-0.931760	-0.832256
H194	H	1.182608	-0.964591	-0.646346
H195	H	1.174666	-0.989459	-0.752781
H196	H	1.217595	-0.273778	-0.371475
H197	H	1.707513	-0.829068	-0.317269
O198	O	1.251369	-0.330424	-1.114720
C199	C	1.311135	-0.359424	-1.178205
H200	H	1.393871	-0.362210	-1.145153
H201	H	1.314797	-0.345518	-1.261368
C202	C	1.158096	-0.402702	-1.220452
C203	C	1.259711	-0.406126	-1.179852
H204	H	1.126374	-0.431509	-1.221473
H205	H	1.117829	-0.383163	-1.177685
H206	H	1.161162	-0.391112	-1.289751
H207	H	1.256643	-0.417711	-1.110550
H208	H	1.299976	-0.425668	-1.222608
H209	H	0.919441	-0.106945	-0.762904
O210	O	1.318633	-0.692088	-0.705711
C211	C	1.378439	-0.719167	-0.773649
H212	H	1.458073	-0.726181	-0.736654
H213	H	1.389950	-0.701048	-0.851500
C214	C	1.222837	-0.755134	-0.838104
C215	C	1.320642	-0.763752	-0.792664
H216	H	1.187184	-0.782636	-0.849839
H217	H	1.182543	-0.736890	-0.792337
H218	H	1.232443	-0.740034	-0.902976
H219	H	1.311033	-0.778847	-0.727788
H220	H	1.360932	-0.782000	-0.838421
O221	O	1.718119	-0.740330	-0.306661
C222	C	1.777448	-0.771095	-0.247409
H223	H	1.781075	-0.804523	-0.290462
H224	H	1.739019	-0.776129	-0.167583
C225	C	1.884812	-0.711691	-0.179480
C226	C	1.889274	-0.752746	-0.232363
H227	H	1.953790	-0.700372	-0.170194
H228	H	1.844838	-0.690963	-0.219396
H229	H	1.852783	-0.715891	-0.112965
H230	H	1.921290	-0.748544	-0.298882
H231	H	1.929255	-0.773473	-0.192458
H232	H	1.117929	-0.325846	-0.249360
H233	H	1.329138	-0.829106	-0.695111
H234	H	1.639946	-0.387388	-0.384273
H235	H	1.396086	-0.472539	-0.627902
O236	O	1.650746	-0.476131	-0.373802
C237	C	1.755432	-0.464611	-0.396876
H238	H	1.757544	-0.430535	-0.437274
H239	H	1.790826	-0.490985	-0.450915
C240	C	1.816528	-0.504284	-0.244891
C241	C	1.819123	-0.462430	-0.294501
H242	H	1.855818	-0.502940	-0.181744
H243	H	1.746000	-0.512047	-0.229348
H244	H	1.846021	-0.526258	-0.289935
H245	H	1.789618	-0.440458	-0.249463
H246	H	1.889648	-0.454663	-0.310035
O247	O	1.650987	-0.956045	-0.374001
C248	C	1.718821	-0.928868	-0.433868
H249	H	1.681724	-0.921826	-0.513453
H250	H	1.796680	-0.946916	-0.445486
C251	C	1.783422	-0.892962	-0.278317
C252	C	1.737854	-0.884310	-0.376062
H253	H	1.795167	-0.865477	-0.242658
H254	H	1.737723	-0.911272	-0.237983
H255	H	1.848299	-0.908003	-0.288012
H256	H	1.672972	-0.869274	-0.366365
H257	H	1.783542	-0.865996	-0.416394
H258	H	1.329081	-0.744000	-0.695090
H259	H	1.217907	-0.158991	-0.640740
H260	H	1.707347	-0.603202	-0.317202
H261	H	1.707415	-0.688308	-0.317225
H262	H	1.396017	-0.387417	-0.627866
H263	H	1.652758	-0.158885	-0.807652
H264	H	1.640430	-1.044906	-0.384431
H265	H	1.383749	-0.273789	-0.807521
