data_functionalizedCrystal
_audit_creation_method	'MofGen! by Chris Wilmer'
_symmetry_space_group_name_H-M	'P1'
_symmetry_Int_Tables_number	1
_symmetry_cell_setting	triclinic
loop_
_symmetry_equiv_pos_as_xyz
  x,y,z
_cell_length_a	12.759401
_cell_length_b	16.120484
_cell_length_c	12.759393
_cell_angle_alpha	87.135992
_cell_angle_beta	90.019802
_cell_angle_gamma	92.924498
loop_
_atom_site_label
_atom_site_type_symbol
_atom_site_fract_x
_atom_site_fract_y
_atom_site_fract_z
Zn1	Zn	1.584981	-0.331886	0.615155
Zn2	Zn	2.084981	0.168114	1.115155
Zn3	Zn	1.575930	-0.471321	0.448367
Zn4	Zn	2.075930	0.028679	0.948367
Zn5	Zn	1.409277	-0.331924	0.439496
Zn6	Zn	1.909277	0.168076	0.939496
Zn7	Zn	1.400333	-0.471257	0.624004
Zn8	Zn	1.900333	0.028743	1.124004
O9	O	1.492630	-0.401597	0.531755
O10	O	1.992630	0.098403	1.031755
O11	O	1.730801	-0.350393	0.593039
O12	O	2.230801	0.149607	1.093039
O13	O	1.553778	-0.452873	0.300172
O14	O	2.053778	0.047127	0.800172
O15	O	1.440116	-0.215254	0.455381
O16	O	1.940116	0.284746	0.955381
O17	O	1.724151	-0.452835	0.470501
O18	O	2.224151	0.047165	0.970501
O19	O	1.569205	-0.215226	0.584437
O20	O	2.069205	0.284774	1.084437
O21	O	1.431339	-0.350458	0.293654
O22	O	1.931339	0.149542	0.793654
O23	O	1.261071	-0.350396	0.463962
O24	O	1.761071	0.149604	0.963962
O25	O	1.424872	-0.452726	0.769848
O26	O	1.924872	0.047274	1.269848
O27	O	1.254499	-0.452763	0.599519
O28	O	1.754499	0.047237	1.099519
O29	O	1.560532	-0.350331	0.763347
O30	O	2.060532	0.149669	1.263347
O31	O	1.545105	-0.587978	0.479082
O32	O	2.045105	-0.087978	0.979082
O33	O	1.416095	-0.587930	0.608122
O34	O	1.916095	-0.087930	1.108122
C35	C	1.219664	-0.401577	0.531739
C36	C	1.719664	0.098423	1.031739
C37	C	1.102887	-0.401589	0.531758
C38	C	1.602887	0.098411	1.031758
C39	C	1.478676	-0.618204	0.545548
C40	C	1.978676	-0.118204	1.045548
C41	C	1.472802	-0.710869	0.551483
C42	C	1.972802	-0.210869	1.051483
C43	C	0.941744	-0.348363	0.595682
C44	C	1.441744	0.151637	1.095682
C45	C	1.051469	-0.348347	0.595674
C46	C	1.551469	0.151653	1.095674
C47	C	1.044573	-0.454857	0.467854
C48	C	1.544573	0.045143	0.967854
C49	C	0.934850	-0.454877	0.467868
C50	C	1.434850	0.045123	0.967868
C51	C	1.462085	-0.880530	0.562342
C52	C	1.962085	-0.380530	1.062342
C53	C	1.523364	-0.921823	0.501186
C54	C	2.023364	-0.421823	1.001186
C55	C	1.517401	-1.016228	0.507228
C56	C	2.017401	-0.516228	1.007228
C57	C	1.468047	-0.786117	0.556302
C58	C	1.968047	-0.286117	1.056302
C59	C	1.766662	-0.401617	0.531773
C60	C	2.266662	0.098383	1.031773
C61	C	1.883438	-0.401626	0.531780
C62	C	2.383438	0.098374	1.031780
C63	C	1.492714	-0.401517	0.805784
C64	C	1.992714	0.098483	1.305784
C65	C	1.492750	-0.401483	0.922558
C66	C	1.992750	0.098517	1.422558
C67	C	1.506668	-0.184144	0.517932
C68	C	2.006668	0.315856	1.017932
C69	C	1.512650	-0.091478	0.512041
C70	C	2.012650	0.408522	1.012041
C71	C	1.492611	-0.401616	0.258789
C72	C	1.992611	0.098384	0.758789
C73	C	1.492794	-0.401416	0.142000
C74	C	1.992794	0.098584	0.642000
C75	C	1.563393	-0.348157	0.974036
C76	C	2.063393	0.151843	1.474036
C77	C	1.563413	-0.348121	1.083758
C78	C	2.063413	0.151879	1.583758
C79	C	1.422143	-0.454744	1.090515
C80	C	1.922143	0.045256	1.590515
C81	C	1.422119	-0.454775	0.980795
C82	C	1.922119	0.045225	1.480795
H83	H	1.098936	-0.304976	0.647710
H84	H	1.598936	0.195024	1.147710
H85	H	1.580305	-0.886274	0.444291
H86	H	2.080305	-0.386274	0.944291
O87	O	1.353454	-0.506659	0.930950
O88	O	1.853454	-0.006659	1.430950
C89	C	1.291108	-0.553680	1.005876
C90	C	1.791108	-0.053680	1.505876
H91	H	1.333968	-0.556552	1.084280
H92	H	1.833968	-0.056552	1.584280
H93	H	1.275652	-0.619373	0.978342
H94	H	1.775652	-0.119373	1.478342
H95	H	1.213289	-0.523140	1.015592
H96	H	1.713289	-0.023140	1.515592
H97	H	1.086447	-0.498212	0.415817
H98	H	1.586447	0.001788	0.915817
O99	O	0.891965	-0.296617	0.657869
O100	O	1.391965	0.203383	1.157869
C101	C	0.966962	-0.249590	0.714250
C102	C	1.466962	0.250410	1.214250
H103	H	1.042987	-0.283728	0.719977
H104	H	1.542987	0.216272	1.219977
H105	H	0.935866	-0.240785	0.796491
H106	H	1.435866	0.259215	1.296491
H107	H	0.982678	-0.186232	0.671877
H108	H	1.482678	0.313768	1.171877
H109	H	1.364640	-0.498134	1.137945
H110	H	1.864640	0.001866	1.637945
H111	H	1.405147	-0.916076	0.619231
H112	H	1.905147	-0.416076	1.119231
O113	O	0.878366	-0.506646	0.405692
O114	O	1.378366	-0.006646	0.905692
C115	C	0.947268	-0.553653	0.349292
C116	C	1.447268	-0.053653	0.849292
H117	H	1.027673	-0.519489	0.343534
H118	H	1.527673	-0.019489	0.843534
H119	H	0.914956	-0.562475	0.267064
H120	H	1.414956	-0.062475	0.767064
H121	H	0.954892	-0.617004	0.391668
H122	H	1.454892	-0.117004	0.891668
H123	H	1.620903	-0.304761	0.926623
H124	H	2.120903	0.195239	1.426623
H125	H	1.620937	-0.304697	1.125666
H126	H	2.120937	0.195303	1.625666
