data_functionalizedCrystal
_audit_creation_method	'MofGen! by Chris Wilmer'
_symmetry_space_group_name_H-M	'P1'
_symmetry_Int_Tables_number	1
_symmetry_cell_setting	triclinic
loop_
_symmetry_equiv_pos_as_xyz
  x,y,z
_cell_length_a	12.811438
_cell_length_b	10.489741
_cell_length_c	11.892095
_cell_angle_alpha	93.929268
_cell_angle_beta	91.498957
_cell_angle_gamma	84.291460
loop_
_atom_site_label
_atom_site_type_symbol
_atom_site_fract_x
_atom_site_fract_y
_atom_site_fract_z
O1	O	1.390522	0.176022	0.048567
O2	O	1.087282	0.192013	0.017474
O3	O	1.245801	-0.001559	0.033735
O4	O	1.232002	0.369595	0.032306
O5	O	1.232584	0.014556	0.220386
O6	O	1.074065	0.208128	0.204125
O7	O	1.377305	0.192137	0.235219
Zn8	Zn	1.223586	0.202691	0.249307
Zn9	Zn	1.241000	0.181459	0.003386
O10	O	1.218785	0.385709	0.218958
C11	C	1.041843	0.198679	0.106818
C12	C	0.926142	0.194518	0.094955
C13	C	1.238151	-0.041036	0.126953
C14	C	1.235032	-0.182675	0.126631
C15	C	0.770268	0.179870	-0.023497
C16	C	0.878980	0.183778	-0.012360
C17	C	0.864585	0.201347	0.191139
C18	C	0.755872	0.197438	0.180002
C19	C	0.708718	0.186702	0.072680
C20	C	0.600003	0.182803	0.061544
C21	C	0.585610	0.200362	0.265042
C22	C	0.694322	0.204270	0.276179
C23	C	1.134171	-0.251116	0.116281
C24	C	1.175301	-0.335152	0.213195
C25	C	1.188356	-0.351014	0.029174
C26	C	1.276198	-0.264839	0.223626
C27	C	1.289245	-0.280699	0.039520
C28	C	1.330446	-0.364705	0.136465
C29	C	1.422743	0.185471	0.145872
C30	C	1.538445	0.189631	0.157728
C31	C	1.226436	0.425186	0.125737
C32	C	1.229555	0.566825	0.126052
N33	N	1.211709	0.217180	0.417143
N34	N	1.252886	0.166960	-0.164449
C35	C	1.335532	0.066063	0.666492
C36	C	1.327238	0.076201	0.783983
C37	C	1.186821	0.247585	0.769618
C38	C	1.195116	0.237448	0.652127
C39	C	1.269475	0.146685	0.600569
C40	C	1.277773	0.136555	0.483076
C41	C	1.137353	0.307932	0.468712
C42	C	1.129058	0.318070	0.586203
H43	H	0.561611	0.174066	-0.025843
O44	O	1.350068	0.048534	0.432920
C45	C	1.419662	0.111881	0.371527
H46	H	1.419750	0.215553	0.407195
H47	H	1.502171	0.060881	0.378579
H48	H	1.393343	0.110431	0.279166
O49	O	0.724381	0.169676	-0.127720
C50	C	0.650936	0.277117	-0.141355
H51	H	0.671949	0.360325	-0.081044
H52	H	0.652379	0.306317	-0.231848
H53	H	0.569094	0.251589	-0.122201
H54	H	0.902999	0.210073	0.278516
H55	H	1.068514	0.391964	0.628195
O56	O	1.391259	-0.002236	0.848060
C57	C	1.330062	-0.075874	0.910275
H58	H	1.250366	-0.082302	0.866460
H59	H	1.371721	-0.176520	0.915883
H60	H	1.318614	-0.028347	0.998791
O61	O	1.114446	0.335597	0.819653
C62	C	1.013169	0.310858	0.780351
H63	H	1.014187	0.205938	0.747903
H64	H	0.955529	0.331391	0.852283
H65	H	0.987896	0.375241	0.709090
H66	H	1.083567	0.373584	0.415023
O67	O	1.407657	-0.022254	0.616429
C68	C	1.387784	-0.146319	0.643315
H69	H	1.302076	-0.145422	0.667089
H70	H	1.404746	-0.216808	0.567213
H71	H	1.440461	-0.177049	0.717381
H72	H	0.929090	0.178215	-0.090678
O73	O	0.740271	0.214530	0.380367
C74	C	0.813675	0.107060	0.394043
H75	H	0.839866	0.063258	0.307748
H76	H	0.884609	0.138321	0.444681
H77	H	0.775907	0.032700	0.440757
H78	H	1.151176	-0.388823	-0.053014
H79	H	1.127114	-0.359573	0.286623
H80	H	0.535484	0.205931	0.343357
O81	O	1.035203	-0.192199	0.106438
C82	C	0.975524	-0.219477	0.198225
H83	H	1.030316	-0.246201	0.271816
H84	H	0.920291	-0.131225	0.224913
H85	H	0.927706	-0.303060	0.172171
H86	H	1.313322	-0.227155	0.305889
O87	O	1.429463	-0.423306	0.146874
C88	C	1.475362	-0.379047	0.249429
H89	H	1.411004	-0.340798	0.310832
H90	H	1.526216	-0.461607	0.286995
H91	H	1.525982	-0.298951	0.233389
O92	O	1.346544	-0.251560	-0.048214
C93	C	1.299971	-0.295382	-0.150537
H94	H	1.213375	-0.304955	-0.137207
H95	H	1.307823	-0.223772	-0.216998
H96	H	1.341054	-0.392853	-0.180147
