data_functionalizedCrystal
_audit_creation_method	'MofGen! by Chris Wilmer'
_symmetry_space_group_name_H-M	'P1'
_symmetry_Int_Tables_number	1
_symmetry_cell_setting	triclinic
loop_
_symmetry_equiv_pos_as_xyz
  x,y,z
_cell_length_a	29.019771
_cell_length_b	29.019011
_cell_length_c	29.015668
_cell_angle_alpha	60.004890
_cell_angle_beta	60.009825
_cell_angle_gamma	59.993818
loop_
_atom_site_label
_atom_site_type_symbol
_atom_site_fract_x
_atom_site_fract_y
_atom_site_fract_z
O1	O	0.063866	-0.673289	0.563007
O2	O	0.563866	-0.173289	1.063007
O3	O	0.024059	-0.524205	0.453633
O4	O	0.524059	-0.024205	0.953633
O5	O	0.118464	-0.618532	0.453552
O6	O	0.618464	-0.118532	0.953552
O7	O	-0.030540	-0.578962	0.563088
O8	O	0.469460	-0.078962	1.063088
O9	O	0.149785	-0.587215	0.484789
O10	O	0.649785	-0.087215	0.984789
O11	O	0.055379	-0.492888	0.484869
O12	O	0.555379	0.007112	0.984869
O13	O	0.095186	-0.641972	0.594244
O14	O	0.595186	-0.141972	1.094244
Cu15	Cu	0.078143	-0.564571	0.542409
Cu16	Cu	0.578143	-0.064571	1.042409
Cu17	Cu	0.041102	-0.601606	0.505468
Cu18	Cu	0.541102	-0.101606	1.005468
O19	O	0.000781	-0.547645	0.594325
O20	O	0.500781	-0.047645	1.094325
N21	N	0.104196	-0.538525	0.568394
N22	N	0.604196	-0.038525	1.068394
N23	N	0.015054	-0.627656	0.479483
N24	N	0.515054	-0.127656	0.979483
C25	C	0.143783	-0.499167	0.850823
C26	C	0.643783	0.000833	1.350823
C27	C	0.386758	-0.499111	0.607645
C28	C	0.886758	0.000889	1.107645
C29	C	0.143618	-0.499136	0.607763
C30	C	0.643618	0.000864	1.107763
C31	C	0.143598	-0.256029	0.607770
C32	C	0.643598	0.243971	1.107770
C33	C	0.182748	-0.373362	0.646852
C34	C	0.682748	0.126638	1.146852
C35	C	0.182758	-0.460025	0.646847
C36	C	0.682758	0.039975	1.146847
C37	C	0.204440	-0.438361	0.668500
C38	C	0.704440	0.061639	1.168500
C39	C	0.298958	-0.422064	0.618723
C40	C	0.798958	0.077936	1.118723
C41	C	0.358043	-0.441753	0.599006
C42	C	0.858043	0.058247	1.099006
C43	C	0.358069	-0.537354	0.635461
C44	C	0.858069	-0.037354	1.135461
C45	C	0.298985	-0.517664	0.655180
C46	C	0.798985	-0.017664	1.155180
C47	C	0.196983	-0.343808	0.588767
C48	C	0.696983	0.156192	1.088767
C49	C	0.177262	-0.284720	0.569090
C50	C	0.677262	0.215280	1.069090
C51	C	0.129075	-0.284743	0.665586
C52	C	0.629075	0.215257	1.165586
C53	C	0.148797	-0.343831	0.685263
C54	C	0.648797	0.156169	1.185263
C55	C	0.124666	-0.445760	0.661149
C56	C	0.624666	0.054240	1.161149
C57	C	0.104961	-0.465454	0.641458
C58	C	0.604961	0.034546	1.141458
C59	C	0.201435	-0.513678	0.593176
C60	C	0.701435	-0.013678	1.093176
C61	C	0.221143	-0.493984	0.612860
C62	C	0.721143	0.006016	1.112860
C63	C	0.124738	-0.445777	0.763064
C64	C	0.624738	0.054223	1.263064
C65	C	0.105085	-0.465488	0.822151
C66	C	0.605085	0.034512	1.322151
C67	C	0.201594	-0.513722	0.822097
C68	C	0.701594	-0.013722	1.322097
C69	C	0.221247	-0.494012	0.763009
C70	C	0.721247	0.005988	1.263009
C71	C	0.182817	-0.460038	0.733494
C72	C	0.682817	0.039962	1.233494
C73	C	0.269432	-0.460018	0.646809
C74	C	0.769432	0.039982	1.146809
C75	C	0.121399	-0.520450	0.915812
C76	C	0.621399	-0.020450	1.415812
C77	C	0.451745	-0.520012	0.585655
C78	C	0.951745	-0.020012	1.085655
C79	C	0.121177	-0.520429	0.586502
C80	C	0.621177	-0.020429	1.086502
C81	C	0.121544	-0.191035	0.586883
C82	C	0.621544	0.308965	1.086883
C83	C	-0.110592	-0.666601	0.440035
C84	C	0.389408	-0.166601	0.940035
C85	C	-0.023978	-0.666709	0.440231
C86	C	0.476022	-0.166709	0.940231
C87	C	-0.045598	-0.688342	0.418486
C88	C	0.454402	-0.188342	0.918486
C89	C	-0.061967	-0.782825	0.468184
C90	C	0.438033	-0.282825	0.968184
C91	C	-0.042323	-0.841914	0.487907
C92	C	0.457677	-0.341914	0.987907
C93	C	0.053280	-0.842025	0.451623
C94	C	0.553280	-0.342025	0.951623
C95	C	0.033634	-0.782937	0.431899
C96	C	0.533634	-0.282937	0.931899
C97	C	-0.140218	-0.680832	0.498102
C98	C	0.359782	-0.180832	0.998102
C99	C	-0.199302	-0.661065	0.517690
C100	C	0.300698	-0.161065	1.017690
C101	C	-0.199129	-0.612843	0.421140
C102	C	0.300871	-0.112843	0.921140
C103	C	-0.140045	-0.632610	0.401552
C104	C	0.359955	-0.132610	0.901552
C105	C	-0.038209	-0.608622	0.425941
C106	C	0.461791	-0.108622	0.925941
C107	C	-0.018555	-0.588961	0.445716
C108	C	0.481445	-0.088961	0.945716
C109	C	0.029562	-0.685470	0.494059
C110	C	0.529562	-0.185470	0.994059
C111	C	0.009908	-0.705133	0.474291
C112	C	0.509908	-0.205133	0.974291
C113	C	-0.038037	-0.608631	0.323917
C114	C	0.461963	-0.108631	0.823917
C115	C	-0.018247	-0.588973	0.264830
C116	C	0.481753	-0.088973	0.764830
C117	C	0.029955	-0.685489	0.264893
C118	C	0.529955	-0.185489	0.764893
C119	C	0.010165	-0.705145	0.323981
C120	C	0.510165	-0.205145	0.823981
C121	C	-0.023833	-0.666715	0.353492
C122	C	0.476167	-0.166715	0.853492
C123	C	-0.023990	-0.753339	0.440182
C124	C	0.476010	-0.253339	0.940182
N125	N	0.504925	-0.538487	0.568205
N126	N	1.004925	-0.038487	1.068205
O127	O	0.685342	-0.543679	0.433426
O128	O	1.185342	-0.043679	0.933426
O129	O	0.685533	-0.653395	0.582361
O130	O	1.185533	-0.153395	1.082361
O131	O	0.685457	-0.653145	0.487904
O132	O	1.185457	-0.153145	0.987904
O133	O	0.685418	-0.543929	0.527882
O134	O	1.185418	-0.043929	1.027882
O135	O	0.591592	-0.621921	0.519268
O136	O	1.091592	-0.121921	1.019268
O137	O	0.591667	-0.622171	0.613725
O138	O	1.091667	-0.122171	1.113725
O139	O	0.591477	-0.512455	0.464790
O140	O	1.091477	-0.012455	0.964790
Cu141	Cu	0.583001	-0.564462	0.542121
Cu142	Cu	1.083001	-0.064462	1.042121
Cu143	Cu	0.694008	-0.601388	0.505029
Cu144	Cu	1.194008	-0.101388	1.005029
O145	O	0.591553	-0.512705	0.559246
O146	O	1.091553	-0.012705	1.059246
N147	N	0.772084	-0.627363	0.478939
N148	N	1.272084	-0.127363	0.978939
N149	N	0.104168	-0.137853	0.568408
N150	N	0.604168	0.362147	1.068408
O151	O	-0.030538	0.042663	0.563097
O152	O	0.469462	0.542663	1.063097
O153	O	0.118403	0.042683	0.453379
O154	O	0.618403	0.542683	0.953379
O155	O	0.023918	0.042657	0.453664
O156	O	0.523918	0.542657	0.953664
O157	O	0.063947	0.042689	0.562813
O158	O	0.563947	0.542689	1.062813
O159	O	0.055242	-0.051215	0.484950
O160	O	0.555242	0.448785	0.984950
O161	O	0.149727	-0.051189	0.484666
O162	O	0.649727	0.448811	0.984666
O163	O	0.000787	-0.051210	0.594384
O164	O	0.500787	0.448790	1.094384
Cu165	Cu	0.078117	-0.059771	0.542381
Cu166	Cu	0.578117	0.440229	1.042381
Cu167	Cu	0.041072	0.051244	0.505382
Cu168	Cu	0.541072	0.551244	1.005382
O169	O	0.095272	-0.051184	0.594099
O170	O	0.595272	0.448816	1.094099
N171	N	0.015015	0.129326	0.479356
N172	N	0.515015	0.629326	0.979356
N173	N	0.104469	-0.538576	0.968995
N174	N	0.604469	-0.038576	1.468995
O175	O	0.099171	-0.673268	1.149499
O176	O	0.599171	-0.173268	1.649499
O177	O	-0.010519	-0.524279	1.149527
O178	O	0.489481	-0.024279	1.649527
O179	O	-0.010265	-0.618748	1.149494
O180	O	0.489735	-0.118748	1.649494
O181	O	0.098916	-0.578799	1.149533
O182	O	0.598916	-0.078799	1.649533
O183	O	0.021008	-0.587443	1.055625
O184	O	0.521008	-0.087443	1.555625
O185	O	0.020753	-0.492974	1.055659
O186	O	0.520753	0.007026	1.555659
O187	O	0.130444	-0.641963	1.055630
O188	O	0.630444	-0.141963	1.555630
Cu189	Cu	0.078454	-0.564610	1.047074
Cu190	Cu	0.578454	-0.064610	1.547074
Cu191	Cu	0.041470	-0.601632	1.158084
Cu192	Cu	0.541470	-0.101632	1.658084
O193	O	0.130189	-0.547494	1.055664
O194	O	0.630189	-0.047494	1.555664
N195	N	0.015455	-0.627672	1.236163
N196	N	0.515455	-0.127672	1.736163
C197	C	0.035988	-0.489761	0.454182
C198	C	0.535988	0.010239	0.954182
C199	C	0.152897	-0.606574	0.454082
C200	C	0.652897	-0.106574	0.954082
C201	C	0.083257	-0.676417	0.593694
C202	C	0.583257	-0.176417	1.093694
C203	C	-0.033653	-0.559604	0.593794
C204	C	0.466347	-0.059604	1.093794
C205	C	0.638623	-0.652892	0.616806
C206	C	1.138623	-0.152892	1.116806
C207	C	0.638531	-0.652583	0.499833
C208	C	1.138531	-0.152583	0.999833
C209	C	0.638384	-0.512957	0.430345
C210	C	1.138384	-0.012957	0.930345
C211	C	0.638480	-0.513267	0.547317
C212	C	1.138480	-0.013267	1.047317
C213	C	0.152789	-0.004135	0.453875
C214	C	0.652789	0.495865	0.953875
C215	C	0.035820	-0.004282	0.454266
C216	C	0.535820	0.495718	0.954266
C217	C	-0.033639	-0.004275	0.593849
C218	C	0.466361	0.495725	1.093849
C219	C	0.083370	-0.004245	0.593498
C220	C	0.583370	0.495755	1.093498
C221	C	-0.009989	-0.489856	1.102597
C222	C	0.490011	0.010144	1.602597
C223	C	-0.009667	-0.606839	1.102536
C224	C	0.490333	-0.106839	1.602536
C225	C	0.129914	-0.676386	1.102561
C226	C	0.629914	-0.176386	1.602561
C227	C	0.129599	-0.559396	1.102601
C228	C	0.629599	-0.059396	1.602601
H229	H	0.057789	-0.453866	0.846219
H230	H	0.557789	0.046134	1.346219
O231	O	0.203911	-0.616546	0.412973
O232	O	0.703911	-0.116546	0.912973
C233	C	0.203960	-0.567999	0.364348
C234	C	0.703960	-0.067999	0.864348
H235	H	0.158701	-0.541120	0.364965
H236	H	0.658701	-0.041120	0.864965
H237	H	0.229056	-0.581138	0.325105
H238	H	0.729056	-0.081138	0.825105
H239	H	0.224162	-0.542486	0.363653
H240	H	0.724162	-0.042486	0.863653
H241	H	0.638471	-0.478960	0.555871
H242	H	1.138471	0.021040	1.055871
O243	O	-0.071142	-0.571220	0.392886
O244	O	0.428858	-0.071220	0.892886
C245	C	-0.079479	-0.515735	0.384507
C246	C	0.420521	-0.015735	0.884507
H247	H	-0.072943	-0.515847	0.420179
H248	H	0.427057	-0.015847	0.920179
H249	H	-0.124262	-0.487639	0.384111
H250	H	0.375738	0.012361	0.884111
H251	H	-0.047975	-0.498852	0.342458
H252	H	0.452025	0.001148	0.842458
O253	O	-0.051145	-0.438857	1.102680
O254	O	0.448855	0.061143	1.602680
C255	C	-0.098690	-0.446293	1.151298
C256	C	0.401310	0.053707	1.651298
H257	H	-0.098049	-0.491329	1.167495
H258	H	0.401951	0.008671	1.667495
H259	H	-0.138779	-0.415362	1.140363
H260	H	0.361221	0.084638	1.640363
H261	H	-0.097689	-0.438199	1.185349
H262	H	0.402311	0.061801	1.685349
O263	O	-0.084626	-0.004378	0.634992
O264	O	0.415374	0.495622	1.134992
C265	C	-0.077164	-0.052982	0.682555
C266	C	0.422836	0.447018	1.182555
H267	H	-0.035837	-0.086963	0.668954
H268	H	0.464163	0.413037	1.168954
H269	H	-0.113771	-0.069307	0.702769
H270	H	0.386229	0.430693	1.202769
H271	H	-0.075852	-0.041980	0.714404
H272	H	0.424148	0.458020	1.214404
O273	O	0.025949	-0.438695	0.413143
O274	O	0.525949	0.061305	0.913143
C275	C	0.074435	-0.438566	0.364467
C276	C	0.574435	0.061434	0.864467
H277	H	0.113211	-0.471945	0.376847
H278	H	0.613211	0.028055	0.876847
H279	H	0.079422	-0.395254	0.343393
H280	H	0.579422	0.104746	0.843393
H281	H	0.069878	-0.448393	0.333799
H282	H	0.569878	0.051607	0.833799
O283	O	0.203691	-0.003850	0.412626
O284	O	0.703691	0.496150	0.912626
C285	C	0.203612	-0.003741	0.364019
C286	C	0.703612	0.496259	0.864019
H287	H	0.170332	-0.021698	0.376540
H288	H	0.670332	0.478302	0.876540
H289	H	0.246931	-0.030786	0.342724
H290	H	0.746931	0.469214	0.842724
H291	H	0.193510	0.041347	0.333489
H292	H	0.693510	0.541347	0.833489
H293	H	0.638547	-0.686893	0.491276
H294	H	1.138547	-0.186893	0.991276
O295	O	-0.050501	-0.617098	1.102450
O296	O	0.449499	-0.117098	1.602450
C297	C	-0.029942	-0.672580	1.102433
C298	C	0.470058	-0.172580	1.602433
H299	H	0.018133	-0.687446	1.084693
H300	H	0.518133	-0.187446	1.584693
H301	H	-0.047099	-0.673374	1.075138
H302	H	0.452901	-0.173374	1.575138
H303	H	-0.044234	-0.701786	1.147453
H304	H	0.455766	-0.201786	1.647453
H305	H	0.163899	-0.550848	1.102605
H306	H	0.663899	-0.050848	1.602605
O307	O	0.638336	-0.471929	0.379280
O308	O	1.138336	0.028071	0.879280
C309	C	0.638303	-0.492246	0.344164
C310	C	1.138303	0.007754	0.844164
H311	H	0.656122	-0.540323	0.359424
H312	H	1.156122	-0.040323	0.859424
H313	H	0.665504	-0.474912	0.298942
H314	H	1.165504	0.025088	0.798942
H315	H	0.593259	-0.477931	0.345731
H316	H	1.093259	0.022069	0.845731
O317	O	0.025520	-0.004333	0.413431
O318	O	0.525520	0.495667	0.913431
C319	C	-0.029961	-0.004338	0.434001
C320	C	0.470039	0.495662	0.934001
H321	H	-0.044794	-0.022092	0.482077
H322	H	0.455206	0.477908	0.982077
H323	H	-0.030775	-0.031617	0.416842
H324	H	0.469225	0.468383	0.916842
H325	H	-0.059176	0.040689	0.419718
H326	H	0.440824	0.540689	0.919718
H327	H	0.091761	-0.719242	0.628046
H328	H	0.591761	-0.219242	1.128046
H329	H	0.091941	-0.004235	0.627787
H330	H	0.591941	0.495765	1.127787
O331	O	-0.084730	-0.549445	0.634779
O332	O	0.415270	-0.049445	1.134779
C333	C	-0.119809	-0.493990	0.614373
C334	C	0.380191	0.006010	1.114373
H335	H	-0.092633	-0.467187	0.578123
H336	H	0.407367	0.032813	1.078123
H337	H	-0.146845	-0.475092	0.649792
H338	H	0.353155	0.024908	1.149792
H339	H	-0.148317	-0.494850	0.598704
H340	H	0.351683	0.005150	1.098704
H341	H	0.382132	-0.584293	0.642268
H342	H	0.882132	-0.084293	1.142268
H343	H	0.638671	-0.687334	0.659583
H344	H	1.138671	-0.187334	1.159583
O345	O	0.170931	-0.727471	1.102574
O346	O	0.670931	-0.227471	1.602574
C347	C	0.150622	-0.762585	1.102539
C348	C	0.650622	-0.262585	1.602539
H349	H	0.102547	-0.747297	1.120311
H350	H	0.602547	-0.247297	1.620311
H351	H	0.167934	-0.807803	1.129781
H352	H	0.667934	-0.307803	1.629781
H353	H	0.164962	-0.761050	1.057500
H354	H	0.664962	-0.261050	1.557500
H355	H	0.093440	-0.418108	0.739036
H356	H	0.593440	0.081892	1.239036
O357	O	0.239002	-0.546728	0.850676
O358	O	0.739002	-0.046728	1.350676
C359	C	0.294478	-0.555071	0.811904
C360	C	0.794478	-0.055071	1.311904
H361	H	0.294342	-0.548466	0.769794
H362	H	0.794342	-0.048466	1.269794
H363	H	0.322556	-0.599882	0.828953
H364	H	0.822556	-0.099882	1.328953
H365	H	0.311396	-0.523614	0.805611
H366	H	0.811396	-0.023614	1.305611
H367	H	0.268542	-0.505632	0.738936
H368	H	0.768542	-0.005632	1.238936
H369	H	0.057658	-0.453826	0.653091
H370	H	0.557658	0.046174	1.153091
O371	O	0.087356	-0.412691	0.694076
O372	O	0.587356	0.087309	1.194076
C373	C	0.053158	-0.363139	0.664268
C374	C	0.553158	0.136861	1.164268
H375	H	0.075946	-0.354912	0.616993
H376	H	0.575946	0.145088	1.116993
H377	H	0.044225	-0.325923	0.674845
H378	H	0.544225	0.174077	1.174845
H379	H	0.011648	-0.368512	0.676862
H380	H	0.511648	0.131488	1.176862
O381	O	0.238753	-0.546579	0.560082
O382	O	0.738753	-0.046579	1.060082
C383	C	0.272889	-0.516728	0.510535
C384	C	0.772889	-0.016728	1.010535
H385	H	0.250050	-0.469457	0.502340
H386	H	0.750050	0.030543	1.002340
H387	H	0.281813	-0.527288	0.473309
H388	H	0.781813	-0.027288	0.973309
H389	H	0.314406	-0.529298	0.515891
H390	H	0.814406	-0.029298	1.015891
O391	O	0.277566	-0.507734	0.598908
O392	O	0.777566	-0.007734	1.098908
C393	C	0.291806	-0.458075	0.569184
C394	C	0.791806	0.041925	1.069184
H395	H	0.258472	-0.422584	0.549210
H396	H	0.758472	0.077416	1.049210
H397	H	0.334686	-0.465842	0.534738
H398	H	0.834686	0.034158	1.034738
H399	H	0.293774	-0.445642	0.599569
H400	H	0.793774	0.054358	1.099569
H401	H	0.274946	-0.548573	0.678050
H402	H	0.774946	-0.048573	1.178050
H403	H	0.382082	-0.410845	0.576135
H404	H	0.882082	0.089155	1.076135
H405	H	-0.223112	-0.585171	0.389803
H406	H	0.276888	-0.085171	0.889803
O407	O	0.270315	-0.366045	0.610493
O408	O	0.770315	0.133955	1.110493
C409	C	0.284706	-0.335557	0.552155
C410	C	0.784706	0.164443	1.052155
H411	H	0.327599	-0.361372	0.528876
H412	H	0.827599	0.138628	1.028876
H413	H	0.286723	-0.293902	0.544346
H414	H	0.786723	0.206098	1.044346
H415	H	0.251435	-0.326743	0.536068
H416	H	0.751435	0.173257	1.036068
O417	O	0.229877	-0.372472	0.551437
O418	O	0.729877	0.127528	1.051437
C419	C	0.200016	-0.358023	0.517291
C420	C	0.700016	0.141977	1.017291
H421	H	0.152751	-0.341790	0.540127
H422	H	0.652751	0.158210	1.040127
H423	H	0.210584	-0.396879	0.508356
H424	H	0.710584	0.103121	1.008356
H425	H	0.212566	-0.323717	0.475778
H426	H	0.712566	0.176283	0.975778
O427	O	0.190990	-0.255981	0.512669
O428	O	0.690990	0.244019	1.012669
C429	C	0.141324	-0.221795	0.498420
C430	C	0.641324	0.278205	0.998420
H431	H	0.105847	-0.239613	0.531741
H432	H	0.605847	0.260387	1.031741
H433	H	0.149083	-0.221112	0.455528
H434	H	0.649083	0.278888	0.955528
H435	H	0.128882	-0.177016	0.496468
H436	H	0.628882	0.322984	0.996468
H437	H	0.137197	-0.367895	0.732563
H438	H	0.637197	0.132105	1.232563
O439	O	0.096085	-0.256140	0.702972
O440	O	0.596085	0.243860	1.202972
C441	C	0.087772	-0.294896	0.758462
C442	C	0.587772	0.205104	1.258462
H443	H	0.094378	-0.337017	0.758357
H444	H	0.594378	0.162983	1.258357
H445	H	0.042972	-0.277836	0.786536
H446	H	0.542972	0.222164	1.286536
H447	H	0.119242	-0.301174	0.775363
H448	H	0.619242	0.198826	1.275363
H449	H	-0.029822	-0.541673	0.240758
H450	H	0.470178	-0.041673	0.740758
H451	H	0.057627	-0.716785	0.240872
H452	H	0.557627	-0.216785	0.740872
O453	O	0.023996	-0.761590	0.352621
O454	O	0.523996	-0.261590	0.852621
C455	C	0.058254	-0.791290	0.313902
C456	C	0.558254	-0.291290	0.813902
H457	H	0.050793	-0.763111	0.271742
H458	H	0.550793	-0.263111	0.771742
H459	H	0.047150	-0.830692	0.330944
H460	H	0.547150	-0.330692	0.830944
H461	H	0.104519	-0.804085	0.307712
H462	H	0.604519	-0.304085	0.807712
H463	H	-0.065723	-0.577332	0.347941
H464	H	0.434277	-0.077332	0.847941
H465	H	-0.030145	-0.541661	0.434082
H466	H	0.469855	-0.041661	0.934082
H467	H	0.021495	-0.752433	0.485928
H468	H	0.521495	-0.252433	0.985928
O469	O	0.062455	-0.722873	0.527154
O470	O	0.562455	-0.222873	1.027154
C471	C	0.070812	-0.778357	0.535508
C472	C	0.570812	-0.278357	1.035508
H473	H	0.035221	-0.778207	0.528818
H474	H	0.535221	-0.278207	1.028818
H475	H	0.071042	-0.806399	0.580347
H476	H	0.571042	-0.306399	1.080347
H477	H	0.112931	-0.795331	0.504116
H478	H	0.612931	-0.295331	1.004116
H479	H	0.100203	-0.866125	0.444882
H480	H	0.600203	-0.366125	0.944882
O481	O	0.070591	-0.754355	0.404641
O482	O	0.570591	-0.254355	0.904641
C483	C	0.110749	-0.768828	0.355955
C484	C	0.610749	-0.268828	0.855955
H485	H	0.113517	-0.811718	0.361279
H486	H	0.613517	-0.311718	0.861279
H487	H	0.153736	-0.770898	0.349585
H488	H	0.653736	-0.270898	0.849585
H489	H	0.097467	-0.735572	0.317636
H490	H	0.597467	-0.235572	0.817636
O491	O	-0.079289	-0.870468	0.515082
O492	O	0.420711	-0.370468	1.015082
C493	C	-0.106927	-0.856025	0.478884
C494	C	0.393073	-0.356025	0.978884
H495	H	-0.105478	-0.813167	0.445206
H496	H	0.394522	-0.313167	0.945206
H497	H	-0.152750	-0.853903	0.504389
H498	H	0.347250	-0.353903	1.004389
H499	H	-0.084905	-0.889327	0.457787
H500	H	0.415095	-0.389327	0.957787
O501	O	-0.117918	-0.754006	0.476122
O502	O	0.382082	-0.254006	0.976122
C503	C	-0.125847	-0.719846	0.423331
C504	C	0.374153	-0.219846	0.923331
H505	H	-0.085187	-0.711056	0.390474
H506	H	0.414813	-0.211056	0.890474
H507	H	-0.161301	-0.678265	0.426680
H508	H	0.338699	-0.178265	0.926680
H509	H	-0.137466	-0.742595	0.410150
H510	H	0.362534	-0.242595	0.910150
H511	H	-0.116238	-0.708516	0.529438
H512	H	0.383762	-0.208516	1.029438
H513	H	-0.223425	-0.672650	0.564976
H514	H	0.276575	-0.172650	1.064976
H515	H	-0.115923	-0.621016	0.354266
H516	H	0.384077	-0.121016	0.854266
