data_functionalizedCrystal
_audit_creation_method	'MofGen! by Chris Wilmer'
_symmetry_space_group_name_H-M	'P1'
_symmetry_Int_Tables_number	1
_symmetry_cell_setting	triclinic
loop_
_symmetry_equiv_pos_as_xyz
  x,y,z
_cell_length_a	14.044220
_cell_length_b	13.101039
_cell_length_c	14.971486
_cell_angle_alpha	86.633875
_cell_angle_beta	88.401503
_cell_angle_gamma	93.659868
loop_
_atom_site_label
_atom_site_type_symbol
_atom_site_fract_x
_atom_site_fract_y
_atom_site_fract_z
O1	O	1.263154	0.085106	0.211146
O2	O	1.763154	0.585106	0.711146
O3	O	0.987177	0.085132	0.203363
O4	O	1.487177	0.585132	0.703363
O5	O	1.132562	0.085111	0.077637
O6	O	1.632562	0.585111	0.577637
O7	O	1.117769	0.085127	0.336871
O8	O	1.617769	0.585127	0.836871
O9	O	1.122131	-0.085317	0.086674
O10	O	1.622131	0.414683	0.586674
O11	O	0.976746	-0.085296	0.212400
O12	O	1.476746	0.414704	0.712400
O13	O	1.252723	-0.085322	0.220183
O14	O	1.752723	0.414678	0.720183
Zn15	Zn	1.113078	-0.112368	0.217726
Zn16	Zn	1.613078	0.387632	0.717726
Zn17	Zn	1.126822	0.112178	0.205820
Zn18	Zn	1.626822	0.612178	0.705820
O19	O	1.107338	-0.085301	0.345908
O20	O	1.607338	0.414699	0.845908
C21	C	0.946644	-0.000079	0.204474
C22	C	1.446644	0.499921	0.704474
C23	C	0.841407	-0.000069	0.194313
C24	C	1.341407	0.499931	0.694313
N25	N	1.103706	-0.265615	0.225852
N26	N	1.603706	0.234385	0.725852
C27	C	1.090954	-0.474656	0.236916
C28	C	1.590954	0.025344	0.736916
C29	C	1.148951	-0.525540	0.186626
C30	C	1.648951	-0.025540	0.686626
C31	C	1.141855	-0.641858	0.192782
C32	C	1.641855	-0.141858	0.692782
C33	C	1.098048	-0.358328	0.230761
C34	C	1.598048	0.141672	0.730761
C35	C	0.648723	-0.000090	0.175737
C36	C	1.148723	0.499910	0.675737
C37	C	0.591172	-0.000090	0.247804
C38	C	1.091172	0.499910	0.747804
C39	C	0.483956	-0.000102	0.237468
C40	C	0.983956	0.499898	0.737468
C41	C	0.755949	-0.000079	0.186072
C42	C	1.255949	0.499921	0.686072
C43	C	1.293256	-0.000109	0.219071
C44	C	1.793256	0.499891	0.719071
C45	C	1.398494	-0.000112	0.229233
C46	C	1.898494	0.499888	0.729233
C47	C	1.126685	-0.000103	0.048779
C48	C	1.626685	0.499897	0.548779
C49	C	1.124702	-0.000101	-0.050674
C50	C	1.624702	0.499899	0.449326
N51	N	1.136202	0.265426	0.197687
N52	N	1.636202	0.765426	0.697687
C53	C	1.210112	-0.000110	-0.101171
C54	C	1.710112	0.499890	0.398829
C55	C	1.208244	-0.000100	-0.194618
C56	C	1.708244	0.499900	0.305382
C57	C	1.120965	-0.000088	-0.237567
C58	C	1.620965	0.499912	0.262433
C59	C	1.035549	-0.000076	-0.187063
C60	C	1.535549	0.499924	0.312937
C61	C	1.037418	-0.000079	-0.093618
C62	C	1.537418	0.499921	0.406382
C63	C	1.031658	-0.000072	-0.381833
C64	C	1.531658	0.499928	0.118167
C65	C	1.029788	-0.000071	-0.475284
C66	C	1.529788	0.499929	0.024716
C67	C	1.202484	-0.000092	-0.482832
C68	C	1.702484	0.499908	0.017168
C69	C	1.204354	-0.000096	-0.389387
C70	C	1.704354	0.499904	0.110613
C71	C	1.118937	-0.000086	-0.338890
C72	C	1.618937	0.499914	0.161110
C73	C	1.113215	-0.000085	0.374767
C74	C	1.613215	0.499915	0.874767
C75	C	1.115198	-0.000079	0.474220
C76	C	1.615198	0.499921	0.974220
H77	H	1.035976	-0.518445	0.284591
H78	H	1.535976	-0.018445	0.784591
O79	O	1.221785	-0.467543	0.123469
O80	O	1.721785	0.032457	0.623469
H81	H	1.216006	-0.383960	0.128486
H82	H	1.716006	0.116040	0.628486
O83	O	1.294619	-0.000101	-0.537285
O84	O	1.794619	0.499899	-0.037285
H85	H	1.302164	0.069370	-0.583710
H86	H	1.802164	0.569370	-0.083710
O87	O	0.632567	-0.000073	0.339812
O88	O	1.132567	0.499927	0.839812
H89	H	0.604045	-0.069539	0.380344
H90	H	1.104045	0.430461	0.880344
O91	O	0.607341	-0.000096	0.083730
O92	O	1.107341	0.499904	0.583730
H93	H	0.528403	-0.000094	0.089949
H94	H	1.028403	0.499906	0.589949
O95	O	0.945293	-0.000080	-0.039154
O96	O	1.445293	0.499920	0.460846
H97	H	0.946260	0.069387	-0.000085
H98	H	1.446260	0.569387	0.499915
H99	H	1.277793	-0.000109	-0.235728
H100	H	1.777793	0.499891	0.264272
H101	H	1.281184	-0.000126	-0.066209
H102	H	1.781184	0.499874	0.433791
H103	H	1.275424	-0.000113	-0.354421
H104	H	1.775424	0.499887	0.145579
O105	O	0.935656	-0.000040	-0.521614
O106	O	1.435656	0.499960	-0.021614
H107	H	0.876575	-0.000015	-0.470805
H108	H	1.376575	0.499985	0.029195
H109	H	0.962103	-0.000061	-0.340721
H110	H	1.462103	0.499939	0.159279
O111	O	0.941411	-0.000075	-0.233385
O112	O	1.441411	0.499925	0.266615
H113	H	0.940679	0.069382	-0.279467
H114	H	1.440679	0.569382	0.220533
