data_functionalizedCrystal
_audit_creation_method	'MofGen! by Chris Wilmer'
_symmetry_space_group_name_H-M	'P1'
_symmetry_Int_Tables_number	1
_symmetry_cell_setting	triclinic
loop_
_symmetry_equiv_pos_as_xyz
  x,y,z
_cell_length_a	18.215407
_cell_length_b	19.805405
_cell_length_c	19.805398
_cell_angle_alpha	90.027637
_cell_angle_beta	90.015064
_cell_angle_gamma	90.026858
loop_
_atom_site_label
_atom_site_type_symbol
_atom_site_fract_x
_atom_site_fract_y
_atom_site_fract_z
Zn1	Zn	1.125030	-0.269482	0.382697
Zn2	Zn	1.124945	-0.382667	0.269505
Zn3	Zn	1.001972	-0.269498	0.269523
Zn4	Zn	1.001925	-0.382635	0.382654
O5	O	1.063468	-0.326071	0.326095
O6	O	1.228003	-0.284503	0.367693
O7	O	1.108617	-0.367675	0.174791
O8	O	1.018351	-0.174779	0.284562
O9	O	1.227940	-0.367659	0.284531
O10	O	1.108761	-0.174767	0.367710
O11	O	1.018269	-0.284530	0.174804
O12	O	0.898982	-0.284500	0.284520
O13	O	1.018270	-0.367605	0.477376
O14	O	0.898947	-0.367621	0.367636
O15	O	1.108715	-0.284472	0.477408
O16	O	1.108571	-0.477379	0.284489
O17	O	1.018188	-0.477356	0.367619
C18	C	0.872262	-0.326059	0.326075
C19	C	0.790463	-0.326070	0.326083
C20	C	0.602270	-0.369420	0.369308
C21	C	0.525411	-0.369422	0.369316
C22	C	0.525418	-0.282734	0.282897
C23	C	0.602275	-0.282729	0.282892
C24	C	0.640699	-0.326076	0.326097
C25	C	0.486983	-0.326083	0.326110
C26	C	0.403649	-0.326085	0.326119
C27	C	0.724038	-0.326073	0.326089
C28	C	1.063385	-0.501927	0.326062
C29	C	1.063417	-0.577159	0.326071
C30	C	1.110525	-0.612492	0.282831
C31	C	1.110556	-0.683181	0.282845
C32	C	1.063475	-0.718534	0.326098
C33	C	1.016365	-0.683195	0.369343
C34	C	1.016338	-0.612508	0.369331
C35	C	1.016474	-0.968269	0.369393
C36	C	1.016503	-1.038961	0.369400
C37	C	1.110692	-1.038941	0.282908
C38	C	1.110665	-0.968254	0.282896
C39	C	1.063558	-0.932921	0.326143
C40	C	1.063525	-0.856273	0.326127
C41	C	1.063503	-0.795181	0.326111
C42	C	1.255421	-0.326083	0.326115
C43	C	1.337220	-0.326088	0.326123
C44	C	1.063497	-0.326033	0.502638
C45	C	1.063509	-0.326017	0.577870
C46	C	1.063571	-0.149528	0.326143
C47	C	1.063615	-0.074296	0.326163
C48	C	1.063481	-0.326059	0.150239
C49	C	1.063612	-0.325884	0.075007
C50	C	1.110692	-0.282610	1.039679
C51	C	1.110681	-0.282631	0.968990
C52	C	1.063584	-0.325923	0.933632
C53	C	1.016502	-0.369202	0.968965
C54	C	1.016518	-0.369184	1.039652
C55	C	1.016438	-0.369276	0.683892
C56	C	1.016424	-0.369289	0.613200
C57	C	1.110601	-0.282722	0.613229
C58	C	1.110617	-0.282704	0.683917
C59	C	1.063537	-0.325986	0.719244
C60	C	1.063551	-0.325963	0.795893
C61	C	1.063566	-0.325942	0.856984
H62	H	1.148860	-0.583712	0.247607
O63	O	0.488162	-0.411495	0.411384
C64	C	0.464645	-0.444479	0.526461
C65	C	0.506887	-0.396799	0.478893
H66	H	0.479756	-0.432605	0.581053
H67	H	0.479741	-0.499051	0.514530
H68	H	0.403116	-0.437049	0.519013
H69	H	0.568425	-0.404169	0.486316
H70	H	0.491729	-0.342245	0.490836
O71	O	1.156436	-0.240528	0.934777
C72	C	1.249878	-0.154684	0.942266
C73	C	1.198082	-0.202321	0.981096
H74	H	1.283573	-0.123792	0.979698
H75	H	1.216138	-0.119256	0.909195
H76	H	1.288305	-0.185779	0.909150
H77	H	1.159644	-0.171281	1.014248
H78	H	1.231868	-0.237751	1.014124
H79	H	1.149051	-1.067718	0.247696
O80	O	0.970818	-0.411314	1.073898
C81	C	0.935067	-0.526444	1.095528
C82	C	0.986854	-0.478803	1.056692
H83	H	0.948023	-0.581019	1.081641
H84	H	0.875717	-0.514615	1.081617
H85	H	0.943157	-0.518962	1.152119
H86	H	0.978830	-0.486259	1.000091
H87	H	1.046185	-0.490644	1.070658
O88	O	0.639677	-0.411426	0.411313
C89	C	0.726443	-0.420638	0.502704
C90	C	0.684142	-0.372992	0.455162
H91	H	0.762392	-0.389583	0.538177
H92	H	0.762449	-0.455979	0.471603
H93	H	0.685757	-0.451631	0.533559
H94	H	0.724775	-0.341955	0.424296
H95	H	0.648125	-0.337696	0.486301
O96	O	0.970758	-0.411448	0.578880
C97	C	0.934959	-0.526587	0.557240
C98	C	0.986726	-0.478923	0.596139
H99	H	0.947840	-0.581149	0.571190
H100	H	0.943041	-0.519219	0.500642
H101	H	0.875628	-0.514670	0.571126
H102	H	1.046077	-0.490810	0.582310
H103	H	0.978581	-0.486299	0.652727
O104	O	1.156435	-0.933838	0.240975
C105	C	1.255798	-0.853990	0.231947
C106	C	1.203996	-0.892911	0.279496
H107	H	1.294274	-0.820902	0.263073
H108	H	1.222064	-0.820898	0.196532
H109	H	1.289441	-0.891399	0.201029
H110	H	1.170341	-0.855550	0.310458
H111	H	1.237772	-0.926012	0.314866
H112	H	0.978159	-0.404455	0.940171
O113	O	0.487978	-0.240694	0.240951
C114	C	0.369578	-0.202249	0.202690
C115	C	0.411885	-0.249905	0.250218
H116	H	0.308050	-0.209670	0.210176
H117	H	0.384609	-0.214060	0.148075
H118	H	0.384763	-0.147694	0.214669
H119	H	0.396723	-0.304476	0.238300
H120	H	0.396850	-0.238036	0.304819
H121	H	0.633565	-0.247429	0.247705
H122	H	1.148915	-0.711947	0.247634
H123	H	1.148965	-0.247448	0.712702
H124	H	0.978165	-1.067743	0.404627
H125	H	0.977979	-0.583740	0.404542
O126	O	0.970636	-0.934057	0.411413
C127	C	0.877227	-0.941543	0.497218
C128	C	0.929095	-0.980374	0.449656
H129	H	0.843638	-0.978973	0.528159
H130	H	0.838709	-0.908520	0.466131
H131	H	0.910977	-0.908379	0.532609
H132	H	0.895404	-1.013575	0.414255
H133	H	0.967615	-1.013354	0.480785
H134	H	0.978034	-0.711986	0.404563
H135	H	0.978102	-0.404517	0.712647
O136	O	1.156315	-0.240743	0.578807
C137	C	1.197999	-0.202365	0.469924
C138	C	1.146210	-0.249953	0.508820
H139	H	1.189836	-0.209785	0.413333
H140	H	1.257354	-0.214246	0.483773
H141	H	1.185111	-0.147793	0.483876
H142	H	1.159031	-0.304541	0.494888
H143	H	1.086870	-0.238014	0.494967
O144	O	1.156336	-0.240481	1.074053
C145	C	1.166311	-0.149104	1.153910
C146	C	1.114533	-0.196760	1.115014
H147	H	1.132535	-0.113753	1.187047
H148	H	1.199947	-0.118129	1.116544
H149	H	1.204796	-0.180186	1.186969
H150	H	1.076003	-0.165730	1.081954
H151	H	1.080949	-0.227737	1.152417
