data_functionalizedCrystal
_audit_creation_method	'MofGen! by Chris Wilmer'
_symmetry_space_group_name_H-M	'P1'
_symmetry_Int_Tables_number	1
_symmetry_cell_setting	triclinic
loop_
_symmetry_equiv_pos_as_xyz
  x,y,z
_cell_length_a	23.532407
_cell_length_b	23.532361
_cell_length_c	14.750779
_cell_angle_alpha	102.562763
_cell_angle_beta	102.554207
_cell_angle_gamma	97.160828
loop_
_atom_site_label
_atom_site_type_symbol
_atom_site_fract_x
_atom_site_fract_y
_atom_site_fract_z
O1	O	-0.081419	0.742861	-0.079714
O2	O	-0.091454	0.576991	-0.079734
O3	O	-0.003506	0.664926	-0.079735
O4	O	-0.169367	0.654926	-0.079712
O5	O	0.021353	0.689784	0.079915
O6	O	-0.066594	0.601849	0.079916
O7	O	-0.056560	0.767719	0.079936
Zn8	Zn	-0.057630	0.688731	0.105274
Zn9	Zn	-0.090383	0.655979	-0.105072
O10	O	-0.144508	0.679784	0.079938
C11	C	-0.078773	0.568203	0.000088
C12	C	-0.078019	0.504983	0.000079
C13	C	-0.088266	0.218190	-0.086941
C14	C	-0.088981	0.277589	-0.086943
O15	O	-0.100855	0.296792	-0.160953
N16	N	-0.075791	0.320845	0.000082
C17	C	-0.061880	0.304700	0.087116
O18	O	-0.050726	0.346947	0.161138
C19	C	-0.061161	0.245302	0.087117
C20	C	-0.074357	0.202048	0.000086
C21	C	-0.101460	0.174937	-0.173965
C22	C	-0.100746	0.115541	-0.173963
C23	C	-0.086837	0.099399	-0.086936
C24	C	-0.073643	0.142653	0.000088
C25	C	-0.047245	0.229159	0.174150
C26	C	-0.046527	0.169756	0.174144
C27	C	-0.059723	0.126501	0.087112
C28	C	-0.059020	0.067115	0.087118
N29	N	-0.072209	0.023859	0.000092
C30	C	-0.086118	0.040001	-0.086935
C31	C	-0.063390	0.429439	0.087107
C32	C	-0.064113	0.488836	0.087106
C33	C	-0.091214	0.461721	-0.086953
C34	C	-0.090494	0.402323	-0.086952
C35	C	-0.076580	0.386183	0.000081
C36	C	-0.084618	-0.084732	-0.086922
C37	C	-0.083905	-0.144132	-0.086912
C38	C	-0.056802	-0.117012	0.087147
C39	C	-0.057518	-0.057617	0.087137
C40	C	-0.071425	-0.041480	0.000095
O41	O	-0.047149	0.047870	0.161090
O42	O	-0.097262	-0.002250	-0.160944
C43	C	-0.178153	0.667610	0.000116
C44	C	-0.241369	0.668378	0.000125
C45	C	-0.640488	0.621135	0.000070
C46	C	-0.699889	0.621845	0.000063
O47	O	-0.736648	0.578052	0.000022
N48	N	-0.722506	0.674124	0.000071
C49	C	-0.685719	0.725694	0.000076
O50	O	-0.710410	0.770226	0.000081
C51	C	-0.626320	0.724982	0.000075
C52	C	-0.603706	0.672701	0.000077
C53	C	-0.617874	0.568858	0.000071
C54	C	-0.558476	0.568148	0.000079
C55	C	-0.521694	0.619715	0.000087
C56	C	-0.544308	0.671991	0.000086
C57	C	-0.589535	0.776550	0.000073
C58	C	-0.530133	0.775833	0.000072
C59	C	-0.507519	0.723553	0.000074
C60	C	-0.448128	0.722848	0.000102
N61	N	-0.425512	0.670569	0.000094
C62	C	-0.462295	0.619003	0.000086
C63	C	-0.810461	0.727185	0.000074
C64	C	-0.869858	0.727899	0.000082
C65	C	-0.884025	0.624050	0.000067
C66	C	-0.824626	0.623337	0.000067
C67	C	-0.787845	0.674906	0.000067
C68	C	-0.337555	0.617516	0.000105
C69	C	-0.278151	0.616811	0.000117
C70	C	-0.263990	0.720659	0.000126
C71	C	-0.323388	0.721365	0.000119
C72	C	-0.360170	0.669788	0.000105
O73	O	-0.411336	0.766618	0.000139
O74	O	-0.437597	0.574476	0.000069
C75	C	0.030139	0.677100	0.000084
C76	C	0.093354	0.676331	0.000069
C77	C	-0.069241	0.776507	0.000112
C78	C	-0.069996	0.839726	0.000115
N79	N	-0.035277	0.711087	0.248829
N80	N	-0.112732	0.633627	-0.248627
C81	C	-0.175137	0.571189	0.600649
C82	C	-0.159477	0.586860	0.701148
C83	C	-0.081627	0.664742	0.701110
C84	C	-0.097279	0.649076	0.600609
C85	C	-0.144035	0.602300	0.550387
C86	C	-0.066177	0.680187	0.550346
C87	C	-0.081830	0.664525	0.449854
C88	C	-0.128584	0.617752	0.399625
C89	C	-0.159687	0.586638	0.449894
C90	C	-0.019424	0.726966	0.600570
C91	C	0.011678	0.758077	0.550308
C92	C	-0.003972	0.742412	0.449814
C93	C	-0.050727	0.695639	0.399584
C94	C	0.027131	0.773526	0.399544
C95	C	0.011479	0.757863	0.299052
C96	C	-0.066379	0.679976	0.299092
H97	H	-0.102539	0.474873	-0.157815
H98	H	-0.046783	-0.022399	0.158005
C99	C	-0.753279	0.575060	0.082129
C100	C	-0.799774	0.565868	0.000061
H101	H	-0.737943	0.539577	0.082124
H102	H	-0.722871	0.605660	0.082123
H103	H	-0.767495	0.586167	0.137798
H104	H	-0.785556	0.554765	-0.055608
H105	H	-0.830187	0.535258	0.000058
H106	H	-0.367497	0.575517	0.000093
H107	H	-0.052066	0.416303	0.157984
C108	C	-0.298132	0.514228	0.000095
C109	C	-0.253296	0.559339	0.000112
H110	H	-0.282789	0.478748	0.000084
H111	H	-0.312340	0.525333	0.055764
H112	H	-0.329670	0.508004	-0.055584
H113	H	-0.221760	0.565567	0.055795
H114	H	-0.239080	0.548232	-0.055562
C115	C	-0.888833	0.803854	-0.081979
C116	C	-0.894711	0.785368	0.000087
H117	H	-0.904179	0.839331	-0.081981
H118	H	-0.848195	0.810806	-0.081965
H119	H	-0.910147	0.773963	-0.137649
H120	H	-0.873393	0.815257	0.055758
H121	H	-0.935356	0.778419	0.000082
C122	C	-0.037253	0.509656	0.259154
C123	C	-0.049612	0.536377	0.182774
H124	H	-0.028294	0.539007	0.318216
H125	H	-0.070752	0.481394	0.255535
H126	H	-0.004323	0.490454	0.255517
H127	H	-0.082545	0.555575	0.186406
H128	H	-0.016110	0.564649	0.186395
C129	C	-0.235078	0.511215	0.460016
C130	C	-0.211082	0.535220	0.394680
H131	H	-0.266808	0.479477	0.425926
H132	H	-0.205375	0.496973	0.499207
H133	H	-0.249335	0.540917	0.499214
H134	H	-0.196822	0.505518	0.355486
H135	H	-0.240791	0.549461	0.355472
H136	H	0.049746	0.796164	0.591210
H137	H	-0.111489	0.080328	-0.244833
H138	H	-0.112785	0.188071	-0.244837
H139	H	-0.647817	0.526863	0.000061
H140	H	-0.095943	-0.071602	-0.157801
C141	C	-0.578466	0.465571	0.000053
C142	C	-0.533626	0.510677	0.000067
H143	H	-0.563128	0.430088	0.000037
H144	H	-0.592671	0.476678	0.055724
H145	H	-0.610005	0.459351	-0.055624
H146	H	-0.502089	0.516900	0.055747
H147	H	-0.519413	0.499568	-0.055610
H148	H	-0.141330	0.605002	0.317797
H149	H	-0.036497	0.264368	0.245020
H150	H	-0.913984	0.582061	0.000062
H151	H	0.065196	0.811615	0.440448
C152	C	-0.117356	0.381501	-0.258998
C153	C	-0.104995	0.354781	-0.182619
H154	H	-0.126304	0.352152	-0.318060
H155	H	-0.150285	0.400695	-0.255370
H156	H	-0.083854	0.409771	-0.255371
H157	H	-0.138499	0.326513	-0.186241
H158	H	-0.072062	0.335577	-0.186249
C159	C	-0.019806	0.202530	0.346196
C160	C	-0.031234	0.152017	0.269816
H161	H	-0.010370	0.191577	0.405258
H162	H	0.012564	0.229663	0.342567
H163	H	-0.053867	0.220601	0.342570
H164	H	0.002829	0.133949	0.273437
H165	H	-0.063607	0.124874	0.273447
C166	C	-0.043668	-0.196033	0.164416
C167	C	-0.041511	-0.134763	0.182804
H168	H	-0.034221	-0.206991	0.223473
H169	H	-0.082331	-0.215864	0.128673
H170	H	-0.015904	-0.206795	0.128646
H171	H	-0.069278	-0.124001	0.218569
H172	H	-0.002842	-0.114926	0.218563
C173	C	0.090014	0.836418	0.309098
C174	C	0.045668	0.792057	0.243795
H175	H	0.111122	0.857526	0.274983
H176	H	0.072521	0.862878	0.348291
H177	H	0.116480	0.818933	0.348298
H178	H	0.019199	0.809543	0.204600
H179	H	0.063161	0.765593	0.204586
C180	C	-0.748222	0.773870	-0.081983
C181	C	-0.770032	0.783878	0.000086
H182	H	-0.723269	0.808871	-0.081978
H183	H	-0.726247	0.742642	-0.081981
H184	H	-0.780359	0.763318	-0.137651
H185	H	-0.737895	0.794426	0.055754
H186	H	-0.792008	0.815115	0.000092
H187	H	-0.006684	0.739718	0.682398
C188	C	-0.569544	0.879121	0.000061
C189	C	-0.614383	0.834019	0.000064
H190	H	-0.584886	0.914600	0.000048
H191	H	-0.538010	0.885351	0.055734
H192	H	-0.555336	0.868001	-0.055614
H193	H	-0.628588	0.845137	0.055742
H194	H	-0.645928	0.827788	-0.055615
C195	C	-0.467891	0.822506	-0.081995
C196	C	-0.489704	0.832522	0.000073
H197	H	-0.442936	0.857504	-0.081994
H198	H	-0.445919	0.791277	-0.081985
H199	H	-0.500028	0.811953	-0.137664
H200	H	-0.457567	0.843071	0.055742
H201	H	-0.511677	0.863760	0.000072
H202	H	-0.341799	0.763938	0.000131
H203	H	-0.234031	0.762644	0.000137
C204	C	-0.169968	0.641145	0.268165
C205	C	-0.117773	0.628558	0.243873
H206	H	-0.201694	0.609404	0.234068
H207	H	-0.165098	0.646012	0.335198
H208	H	-0.178514	0.676552	0.251687
H209	H	-0.109224	0.593153	0.260357
H210	H	-0.122643	0.623684	0.176825
C211	C	-0.238001	0.508286	0.691090
C212	C	-0.193661	0.552651	0.756398
H213	H	-0.259101	0.487166	0.725201
H214	H	-0.264471	0.525766	0.651900
H215	H	-0.220500	0.481832	0.651887
H216	H	-0.211163	0.579108	0.795596
H217	H	-0.167188	0.535171	0.795604
C218	C	-0.042837	0.768338	0.732015
C219	C	-0.030230	0.716153	0.756316
H220	H	-0.011105	0.800075	0.766099
H221	H	-0.047708	0.763458	0.664979
H222	H	-0.078246	0.776876	0.748502
H223	H	0.005177	0.707613	0.739822
H224	H	-0.025353	0.721033	0.823367
H225	H	-0.094653	-0.179350	-0.157787
H226	H	-0.213206	0.533096	0.559756
