data_functionalizedCrystal
_audit_creation_method	'MofGen! by Chris Wilmer'
_symmetry_space_group_name_H-M	'P1'
_symmetry_Int_Tables_number	1
_symmetry_cell_setting	triclinic
loop_
_symmetry_equiv_pos_as_xyz
  x,y,z
_cell_length_a	19.805407
_cell_length_b	13.897448
_cell_length_c	13.897449
_cell_angle_alpha	90.010270
_cell_angle_beta	90.008082
_cell_angle_gamma	90.017692
loop_
_atom_site_label
_atom_site_type_symbol
_atom_site_fract_x
_atom_site_fract_y
_atom_site_fract_z
Zn1	Zn	1.034700	-0.384178	0.545435
Zn2	Zn	1.034655	-0.545442	0.384136
Zn3	Zn	0.921537	-0.384163	0.384147
Zn4	Zn	0.921495	-0.545432	0.545383
O5	O	0.978097	-0.464804	0.464775
O6	O	1.129410	-0.405580	0.524055
O7	O	1.019648	-0.524046	0.249156
O8	O	0.936585	-0.249183	0.405569
O9	O	1.129377	-0.524060	0.405550
O10	O	1.019725	-0.249194	0.524066
O11	O	0.936541	-0.405555	0.249164
O12	O	0.826815	-0.405545	0.405519
O13	O	0.936513	-0.524044	0.680371
O14	O	0.826784	-0.524029	0.523978
O15	O	1.019684	-0.405571	0.680410
O16	O	1.019607	-0.680422	0.405500
O17	O	0.936470	-0.680415	0.523967
C18	C	0.802241	-0.464785	0.464744
C19	C	0.727009	-0.464801	0.464754
C20	C	0.978047	-0.715418	0.464747
C21	C	0.978088	-0.822632	0.464768
C22	C	0.691666	-0.526588	0.526335
C23	C	0.620978	-0.526590	0.526349
C24	C	0.585633	-0.464808	0.464775
C25	C	0.620981	-0.403014	0.403191
C26	C	0.691668	-0.403008	0.403183
C27	C	0.335907	-0.403035	0.403223
C28	C	0.265215	-0.403048	0.403233
C29	C	0.265217	-0.526617	0.526389
C30	C	0.335905	-0.526611	0.526381
C31	C	0.371246	-0.464814	0.464801
C32	C	0.447894	-0.464811	0.464788
C33	C	0.508986	-0.464815	0.464782
C34	C	0.978159	-1.018927	0.464828
C35	C	0.978118	-0.909695	0.464798
C36	C	1.154639	-0.464823	0.464807
C37	C	1.229871	-0.464831	0.464821
C38	C	0.978099	-0.464808	0.716368
C39	C	0.978100	-0.464809	0.823582
C40	C	0.978165	-0.213211	0.464825
C41	C	0.978194	-0.105997	0.464845
C42	C	0.978083	-0.464814	1.019877
C43	C	0.978091	-0.464814	0.910645
C44	C	0.978088	-0.464819	1.214161
C45	C	0.978082	-0.464812	1.106947
H46	H	0.592205	-0.576904	0.576494
H47	H	0.364679	-0.576923	0.576517
H48	H	0.364674	-0.352723	0.353073
N49	N	0.584890	-0.339904	0.340283
N50	N	0.616456	-0.284741	0.285303
H51	H	0.590969	-0.240169	0.240869
N52	N	0.727761	-0.339878	0.340282
N53	N	0.696198	-0.284716	0.285313
H54	H	0.721687	-0.240123	0.240891
H55	H	0.720439	-0.576901	0.576473
H56	H	0.236440	-0.352732	0.353093
H57	H	0.236434	-0.576932	0.576534
