data_functionalizedCrystal
_audit_creation_method	'MofGen! by Chris Wilmer'
_symmetry_space_group_name_H-M	'P1'
_symmetry_Int_Tables_number	1
_symmetry_cell_setting	triclinic
loop_
_symmetry_equiv_pos_as_xyz
  x,y,z
_cell_length_a	16.120484
_cell_length_b	19.805407
_cell_length_c	19.805399
_cell_angle_alpha	90.019197
_cell_angle_beta	92.871043
_cell_angle_gamma	87.078256
loop_
_atom_site_label
_atom_site_type_symbol
_atom_site_fract_x
_atom_site_fract_y
_atom_site_fract_z
Zn1	Zn	-0.332012	-1.021072	-0.396374
Zn2	Zn	-0.471430	-1.015249	-0.288922
Zn3	Zn	-0.332026	-0.907886	-0.283200
Zn4	Zn	-0.471376	-0.902114	-0.402067
O5	O	-0.401711	-0.961580	-0.342641
O6	O	-0.350523	-1.115015	-0.382132
O7	O	-0.452966	-1.000985	-0.193447
O8	O	-0.215358	-0.927752	-0.293435
O9	O	-0.452953	-1.110737	-0.303188
O10	O	-0.215348	-1.010910	-0.376583
O11	O	-0.350546	-0.922106	-0.189243
O12	O	-0.350494	-0.812404	-0.298956
O13	O	-0.452861	-0.917916	-0.496028
O14	O	-0.452874	-0.808164	-0.386287
O15	O	-0.350471	-1.005313	-0.491844
O16	O	-0.588088	-0.995389	-0.308709
O17	O	-0.588049	-0.912270	-0.391836
C18	C	-0.401680	-0.785725	-0.342619
C19	C	-0.401687	-0.710493	-0.342626
C20	C	-0.348446	-0.677373	-0.383801
C21	C	-0.348448	-0.606685	-0.383802
C22	C	-0.401697	-0.569117	-0.342631
C23	C	-0.454942	-0.602242	-0.301452
C24	C	-0.454934	-0.672929	-0.301447
C25	C	-0.454972	-0.317167	-0.301467
C26	C	-0.454977	-0.246475	-0.301475
C27	C	-0.348486	-0.250923	-0.383822
C28	C	-0.348479	-0.321610	-0.383817
C29	C	-0.401719	-0.354729	-0.342635
C30	C	-0.401715	-0.431378	-0.342634
C31	C	-0.401707	-0.492470	-0.342636
C32	C	-0.618319	-0.952590	-0.351526
C33	C	-0.710985	-0.948805	-0.355349
C34	C	-0.880646	-0.941900	-0.362344
C35	C	-0.921935	-0.981382	-0.322948
C36	C	-1.016341	-0.977540	-0.326840
C37	C	-0.786232	-0.945741	-0.358453
C38	C	-0.184257	-0.970624	-0.333736
C39	C	-0.091591	-0.974478	-0.329941
C40	C	-0.401658	-0.961620	-0.519181
C41	C	-0.401636	-0.961637	-0.594412
C42	C	-0.401736	-0.138122	-0.342657
C43	C	-0.401730	-0.213354	-0.342647
C44	C	-0.348319	-1.007146	-0.627579
C45	C	-0.348295	-1.007154	-0.698267
C46	C	-0.401593	-0.961656	-0.735786
C47	C	-0.454912	-0.916142	-0.702614
C48	C	-0.454932	-0.916132	-0.631928
C49	C	-0.454834	-0.916184	-0.987685
C50	C	-0.454813	-0.916199	-1.058376
C51	C	-0.348197	-1.007206	-1.054024
C52	C	-0.348217	-1.007196	-0.983337
C53	C	-0.401533	-0.961680	-0.950171
C54	C	-0.401557	-0.961671	-0.873524
C55	C	-0.401573	-0.961668	-0.812433
C56	C	-0.401703	-0.961582	-0.166784
C57	C	-0.401491	-0.961705	-0.091544
H58	H	-0.498341	-0.215889	-0.267946
H59	H	-0.305095	-0.579722	-0.417333
N60	N	-0.290675	-1.056292	-1.089791
H61	H	-0.303637	-1.104112	-1.078030
H62	H	-0.298766	-1.049339	-1.140253
H63	H	-0.916196	-0.905216	-0.398992
N64	N	-0.512285	-0.867116	-1.098850
H65	H	-0.550919	-0.893016	-1.129767
H66	H	-0.546007	-0.838286	-1.067074
H67	H	-0.304920	-1.044198	-0.597036
H68	H	-0.305132	-0.223949	-0.417352
N69	N	-0.512430	-0.867041	-0.596151
H70	H	-0.546191	-0.838219	-0.630644
H71	H	-0.551027	-0.892977	-0.568404
N72	N	-0.291017	-0.717888	-0.428214
H73	H	-0.324950	-0.745818	-0.460926
H74	H	-0.257304	-0.686131	-0.454252
N75	N	-0.291051	-0.362130	-0.428227
H76	H	-0.257321	-0.330422	-0.454311
H77	H	-0.252422	-0.393047	-0.399139
N78	N	-0.512391	-0.352883	-0.257049
H79	H	-0.546124	-0.318356	-0.230971
H80	H	-0.551016	-0.380626	-0.286127
H81	H	-0.498294	-0.571649	-0.267926
H82	H	-0.498289	-0.699894	-0.267918
H83	H	-0.886383	-1.018068	-0.286296
H84	H	-0.304880	-1.044214	-0.725268
N85	N	-0.512333	-0.867103	-0.951902
H86	H	-0.478443	-0.837147	-0.921184
H87	H	-0.546092	-0.838323	-0.986428
N88	N	-0.290736	-1.056272	-0.942870
H89	H	-0.256954	-1.085103	-0.974608
H90	H	-0.252159	-1.030320	-0.911957
H91	H	-0.498305	-0.879094	-0.733168
