data_functionalizedCrystal
_audit_creation_method	'MofGen! by Chris Wilmer'
_symmetry_space_group_name_H-M	'P1'
_symmetry_Int_Tables_number	1
_symmetry_cell_setting	triclinic
loop_
_symmetry_equiv_pos_as_xyz
  x,y,z
_cell_length_a	21.395364
_cell_length_b	21.395361
_cell_length_c	21.395355
_cell_angle_alpha	89.978489
_cell_angle_beta	89.975273
_cell_angle_gamma	90.029041
loop_
_atom_site_label
_atom_site_type_symbol
_atom_site_fract_x
_atom_site_fract_y
_atom_site_fract_z
Zn1	Zn	0.957859	-0.249539	-0.354251
Zn2	Zn	1.207859	0.000461	-0.104251
Zn3	Zn	1.457859	0.250461	0.145749
Zn4	Zn	1.707859	0.500461	0.395749
Zn5	Zn	0.957762	-0.354299	-0.249468
Zn6	Zn	1.207762	-0.104299	0.000532
Zn7	Zn	1.457762	0.145701	0.250532
Zn8	Zn	1.707762	0.395701	0.500532
Zn9	Zn	0.853074	-0.249536	-0.249488
Zn10	Zn	1.103074	0.000464	0.000512
Zn11	Zn	1.353074	0.250464	0.250512
Zn12	Zn	1.603074	0.500464	0.500512
Zn13	Zn	0.853043	-0.354280	-0.354208
Zn14	Zn	1.103043	-0.104280	-0.104208
Zn15	Zn	1.353043	0.145720	0.145792
Zn16	Zn	1.603043	0.395720	0.395792
O17	O	0.905434	-0.301913	-0.301854
O18	O	1.155434	-0.051913	-0.051854
O19	O	1.405434	0.198087	0.198146
O20	O	1.655434	0.448087	0.448146
O21	O	1.045524	-0.263445	-0.340362
O22	O	1.295524	-0.013445	-0.090362
O23	O	1.545524	0.236555	0.159638
O24	O	1.795524	0.486555	0.409638
O25	O	0.943847	-0.340409	-0.161793
O26	O	1.193847	-0.090409	0.088207
O27	O	1.443847	0.159591	0.338207
O28	O	1.693847	0.409591	0.588207
O29	O	0.867028	-0.161859	-0.263411
O30	O	1.117028	0.088141	-0.013411
O31	O	1.367028	0.338141	0.236589
O32	O	1.617028	0.588141	0.486589
O33	O	1.045452	-0.340411	-0.263378
O34	O	1.295452	-0.090411	-0.013378
O35	O	1.545452	0.159589	0.236622
O36	O	1.795452	0.409589	0.486622
O37	O	0.944013	-0.161861	-0.340380
O38	O	1.194013	0.088139	-0.090380
O39	O	1.444013	0.338139	0.159620
O40	O	1.694013	0.588139	0.409620
O41	O	0.866933	-0.263440	-0.161807
O42	O	1.116933	-0.013440	0.088193
O43	O	1.366933	0.236560	0.338193
O44	O	1.616933	0.486560	0.588193
O45	O	0.765392	-0.263421	-0.263369
O46	O	1.015392	-0.013421	-0.013369
O47	O	1.265392	0.236579	0.236631
O48	O	1.515392	0.486579	0.486631
O49	O	0.866975	-0.340379	-0.441892
O50	O	1.116975	-0.090379	-0.191892
O51	O	1.366975	0.159621	0.058108
O52	O	1.616975	0.409621	0.308108
O53	O	0.765369	-0.340376	-0.340307
O54	O	1.015369	-0.090376	-0.090307
O55	O	1.265369	0.159624	0.159693
O56	O	1.515369	0.409624	0.409693
O57	O	0.943983	-0.263426	-0.441923
O58	O	1.193983	-0.013426	-0.191923
O59	O	1.443983	0.236574	0.058077
O60	O	1.693983	0.486574	0.308077
O61	O	0.943817	-0.441974	-0.263336
O62	O	1.193817	-0.191974	-0.013336
O63	O	1.443817	0.058026	0.236664
O64	O	1.693817	0.308026	0.486664
O65	O	0.866881	-0.441960	-0.340288
O66	O	1.116881	-0.191960	-0.090288
O67	O	1.366881	0.058040	0.159712
O68	O	1.616881	0.308040	0.409712
C69	C	0.742647	-0.301897	-0.301836
C70	C	0.992647	-0.051897	-0.051836
C71	C	1.242647	0.198103	0.198164
C72	C	1.492647	0.448103	0.448164
C73	C	0.673006	-0.301905	-0.301843
C74	C	0.923006	-0.051905	-0.051843
C75	C	1.173006	0.198095	0.198157
C76	C	1.423006	0.448095	0.448157
C77	C	0.905352	-0.464701	-0.301819
C78	C	1.155352	-0.214701	-0.051819
C79	C	1.405352	0.035299	0.198181
C80	C	1.655352	0.285299	0.448181
C81	C	0.905374	-0.534342	-0.301825
C82	C	1.155374	-0.284342	-0.051825
C83	C	1.405374	-0.034342	0.198175
C84	C	1.655374	0.215658	0.448175
C85	C	0.171214	-0.342057	-0.341877
C86	C	0.421214	-0.092057	-0.091877
C87	C	0.671214	0.157943	0.158123
C88	C	0.921214	0.407943	0.408123
C89	C	0.236649	-0.342057	-0.341870
C90	C	0.486649	-0.092057	-0.091870
C91	C	0.736649	0.157943	0.158130
C92	C	0.986649	0.407943	0.408130
C93	C	0.269367	-0.301927	-0.301874
C94	C	0.519367	-0.051927	-0.051874
C95	C	0.769367	0.198073	0.198126
C96	C	1.019367	0.448073	0.448126
C97	C	0.236644	-0.261805	-0.261870
C98	C	0.486644	-0.011805	-0.011870
C99	C	0.736644	0.238195	0.238130
C100	C	0.986644	0.488195	0.488130
C101	C	0.171210	-0.261811	-0.261873
C102	C	0.421210	-0.011811	-0.011873
C103	C	0.671210	0.238189	0.238127
C104	C	0.921210	0.488189	0.488127
C105	C	0.373056	-0.245462	-0.297025
C106	C	0.623056	0.004538	-0.047025
C107	C	0.873056	0.254538	0.202975
C108	C	1.123056	0.504538	0.452975
C109	C	0.438489	-0.245455	-0.297027
C110	C	0.688489	0.004545	-0.047027
C111	C	0.938489	0.254545	0.202973
C112	C	1.188489	0.504545	0.452973
C113	C	0.471188	-0.301911	-0.301860
C114	C	0.721188	-0.051911	-0.051860
C115	C	0.971188	0.198089	0.198140
C116	C	1.221188	0.448089	0.448140
C117	C	0.438446	-0.358374	-0.306705
C118	C	0.688446	-0.108374	-0.056705
C119	C	0.938446	0.141626	0.193295
C120	C	1.188446	0.391626	0.443295
C121	C	0.373012	-0.358380	-0.306709
C122	C	0.623012	-0.108380	-0.056709
C123	C	0.873012	0.141620	0.193291
C124	C	1.123012	0.391620	0.443291
C125	C	0.340320	-0.301917	-0.301865
C126	C	0.590320	-0.051917	-0.051865
C127	C	0.840320	0.198083	0.198135
C128	C	1.090320	0.448083	0.448135
C129	C	0.574856	-0.342033	-0.341851
C130	C	0.824856	-0.092033	-0.091851
C131	C	1.074856	0.157967	0.158149
C132	C	1.324856	0.407967	0.408149
C133	C	0.640292	-0.342034	-0.341840
C134	C	0.890292	-0.092034	-0.091840
C135	C	1.140292	0.157966	0.158160
C136	C	1.390292	0.407966	0.408160
C137	C	0.640286	-0.261777	-0.261843
C138	C	0.890286	-0.011777	-0.011843
C139	C	1.140286	0.238223	0.238157
C140	C	1.390286	0.488223	0.488157
C141	C	0.574850	-0.261781	-0.261851
C142	C	0.824850	-0.011781	-0.011851
C143	C	1.074850	0.238219	0.238149
C144	C	1.324850	0.488219	0.488149
C145	C	0.542139	-0.301909	-0.301858
C146	C	0.792139	-0.051909	-0.051858
C147	C	1.042139	0.198091	0.198142
C148	C	1.292139	0.448091	0.448142
C149	C	0.945470	-0.567042	-0.261797
C150	C	1.195470	-0.317042	-0.011797
C151	C	1.445470	-0.067042	0.238203
C152	C	1.695470	0.182958	0.488203
C153	C	0.945499	-0.632477	-0.261811
C154	C	1.195499	-0.382477	-0.011811
C155	C	1.445499	-0.132477	0.238189
C156	C	1.695499	0.117523	0.488189
C157	C	0.905421	-0.665211	-0.301847
C158	C	1.155421	-0.415211	-0.051847
C159	C	1.405421	-0.165211	0.198153
C160	C	1.655421	0.084789	0.448153
C161	C	0.865322	-0.632503	-0.341882
C162	C	1.115322	-0.382503	-0.091882
C163	C	1.365322	-0.132503	0.158118
C164	C	1.615322	0.117497	0.408118
C165	C	0.865298	-0.567069	-0.341871
C166	C	1.115298	-0.317069	-0.091871
C167	C	1.365298	-0.067069	0.158129
C168	C	1.615298	0.182931	0.408129
C169	C	0.849006	-0.768924	-0.306756
C170	C	1.099006	-0.518924	-0.056756
C171	C	1.349006	-0.268924	0.193244
C172	C	1.599006	-0.018924	0.443244
C173	C	0.849029	-0.834357	-0.306763
C174	C	1.099029	-0.584357	-0.056763
C175	C	1.349029	-0.334357	0.193237
C176	C	1.599029	-0.084357	0.443237
C177	C	0.905494	-0.867031	-0.301883
C178	C	1.155494	-0.617031	-0.051883
C179	C	1.405494	-0.367031	0.198117
C180	C	1.655494	-0.117031	0.448117
C181	C	0.961938	-0.834265	-0.296984
C182	C	1.211938	-0.584265	-0.046984
C183	C	1.461938	-0.334265	0.203016
C184	C	1.711938	-0.084265	0.453016
C185	C	0.961915	-0.768830	-0.296974
C186	C	1.211915	-0.518830	-0.046974
C187	C	1.461915	-0.268830	0.203026
C188	C	1.711915	-0.018830	0.453026
C189	C	0.905442	-0.736163	-0.301863
C190	C	1.155442	-0.486163	-0.051863
C191	C	1.405442	-0.236163	0.198137
C192	C	1.655442	0.013837	0.448137
C193	C	0.945625	-0.970683	-0.261868
C194	C	1.195625	-0.720683	-0.011868
C195	C	1.445625	-0.470683	0.238132
C196	C	1.695625	-0.220683	0.488132
C197	C	0.945655	-1.036120	-0.261887
C198	C	1.195655	-0.786120	-0.011887
C199	C	1.445655	-0.536120	0.238113
C200	C	1.695655	-0.286120	0.488113
C201	C	0.865472	-1.036144	-0.341955
C202	C	1.115472	-0.786144	-0.091955
C203	C	1.365472	-0.536144	0.158045
C204	C	1.615472	-0.286144	0.408045
C205	C	0.865448	-0.970709	-0.341939
C206	C	1.115448	-0.720709	-0.091939
C207	C	1.365448	-0.470709	0.158061
C208	C	1.615448	-0.220709	0.408061
C209	C	0.905523	-0.937983	-0.301893
C210	C	1.155523	-0.687983	-0.051893
C211	C	1.405523	-0.437983	0.198107
C212	C	1.655523	-0.187983	0.448107
C213	C	1.068858	-0.301931	-0.301872
C214	C	1.318858	-0.051931	-0.051872
C215	C	1.568858	0.198069	0.198128
C216	C	1.818858	0.448069	0.448128
C217	C	1.138499	-0.301938	-0.301880
C218	C	1.388499	-0.051938	-0.051880
C219	C	1.638499	0.198062	0.198120
C220	C	1.888499	0.448062	0.448120
C221	C	0.905486	-0.301901	-0.465277
C222	C	1.155486	-0.051901	-0.215277
C223	C	1.405486	0.198099	0.034723
C224	C	1.655486	0.448099	0.284723
C225	C	0.905509	-0.301895	-0.534918
C226	C	1.155509	-0.051895	-0.284918
C227	C	1.405509	0.198105	-0.034918
C228	C	1.655509	0.448105	0.215082
C229	C	0.905535	-0.138490	-0.301903
C230	C	1.155535	0.111510	-0.051903
C231	C	1.405535	0.361510	0.198097
C232	C	1.655535	0.611510	0.448097
C233	C	0.905577	-0.068849	-0.301923
C234	C	1.155577	0.181151	-0.051923
C235	C	1.405577	0.431151	0.198077
C236	C	1.655577	0.681151	0.448077
C237	C	0.945605	-0.261824	-0.567649
C238	C	1.195605	-0.011824	-0.317649
C239	C	1.445605	0.238176	-0.067649
C240	C	1.695605	0.488176	0.182351
C241	C	0.945604	-0.261797	-0.633085
C242	C	1.195604	-0.011797	-0.383085
C243	C	1.445604	0.238203	-0.133085
C244	C	1.695604	0.488203	0.116915
C245	C	0.905513	-0.301853	-0.665787
C246	C	1.155513	-0.051853	-0.415787
C247	C	1.405513	0.198147	-0.165787
C248	C	1.655513	0.448147	0.084213
C249	C	0.865409	-0.341926	-0.633048
C250	C	1.115409	-0.091926	-0.383048
C251	C	1.365409	0.158074	-0.133048
C252	C	1.615409	0.408074	0.116952
C253	C	0.865407	-0.341948	-0.567614
C254	C	1.115407	-0.091948	-0.317614
C255	C	1.365407	0.158052	-0.067614
C256	C	1.615407	0.408052	0.182386
C257	C	0.900538	-0.358268	-0.769449
C258	C	1.150538	-0.108268	-0.519449
C259	C	1.400538	0.141732	-0.269449
C260	C	1.650538	0.391732	-0.019449
C261	C	0.900544	-0.358247	-0.834882
C262	C	1.150544	-0.108247	-0.584882
C263	C	1.400544	0.141753	-0.334882
C264	C	1.650544	0.391753	-0.084882
C265	C	0.905517	-0.301786	-0.867608
C266	C	1.155517	-0.051786	-0.617608
C267	C	1.405517	0.198214	-0.367608
C268	C	1.655517	0.448214	-0.117608
C269	C	0.910497	-0.245344	-0.834892
C270	C	1.160497	0.004656	-0.584892
C271	C	1.410497	0.254656	-0.334892
C272	C	1.660497	0.504656	-0.084892
C273	C	0.910494	-0.245365	-0.769458
C274	C	1.160494	0.004635	-0.519458
C275	C	1.410494	0.254635	-0.269458
C276	C	1.660494	0.504635	-0.019458
C277	C	0.905511	-0.301834	-0.736739
C278	C	1.155511	-0.051834	-0.486739
C279	C	1.405511	0.198166	-0.236739
C280	C	1.655511	0.448166	0.013261
C281	C	0.945615	-0.261683	-0.971291
C282	C	1.195615	-0.011683	-0.721291
C283	C	1.445615	0.238317	-0.471291
C284	C	1.695615	0.488317	-0.221291
C285	C	0.945610	-0.261655	-1.036728
C286	C	1.195610	-0.011655	-0.786728
C287	C	1.445610	0.238345	-0.536728
C288	C	1.695610	0.488345	-0.286728
C289	C	0.865418	-0.341789	-1.036690
C290	C	1.115418	-0.091789	-0.786690
C291	C	1.365418	0.158211	-0.536690
C292	C	1.615418	0.408211	-0.286690
C293	C	0.865420	-0.341812	-0.971255
C294	C	1.115420	-0.091812	-0.721255
C295	C	1.365420	0.158188	-0.471255
C296	C	1.615420	0.408188	-0.221255
C297	C	0.905522	-0.301759	-0.938559
C298	C	1.155522	-0.051759	-0.688559
C299	C	1.405522	0.198241	-0.438559
C300	C	1.655522	0.448241	-0.188559
C301	C	0.905419	-0.301881	-0.139066
C302	C	1.155419	-0.051881	0.110934
C303	C	1.405419	0.198119	0.360934
C304	C	1.655419	0.448119	0.610934
C305	C	0.905518	-0.301710	-0.069425
C306	C	1.155518	-0.051710	0.180575
C307	C	1.405518	0.198290	0.430575
C308	C	1.655518	0.448290	0.680575
H309	H	0.144585	-0.374734	-0.374452
H310	H	0.394585	-0.124734	-0.124452
H311	H	0.644585	0.125266	0.125548
H312	H	0.894585	0.375266	0.375548
H313	H	0.803022	-0.742327	-0.310732
H314	H	1.053022	-0.492327	-0.060732
H315	H	1.303022	-0.242327	0.189268
H316	H	1.553022	0.007673	0.439268
Cl317	Cl	0.479546	-0.429352	-0.312780
Cl318	Cl	0.729546	-0.179352	-0.062780
Cl319	Cl	0.979546	0.070648	0.187220
Cl320	Cl	1.229546	0.320648	0.437220
Cl321	Cl	0.996024	-0.211329	-0.930185
Cl322	Cl	1.246024	0.038671	-0.680185
Cl323	Cl	1.496024	0.288671	-0.430185
Cl324	Cl	1.746024	0.538671	-0.180185
H325	H	0.896494	-0.404206	-0.861515
H326	H	1.146494	-0.154206	-0.611515
H327	H	1.396494	0.095794	-0.361515
H328	H	1.646494	0.345794	-0.111515
Cl329	Cl	0.996071	-1.077229	-0.211566
Cl330	Cl	1.246071	-0.827229	0.038434
Cl331	Cl	1.496071	-0.577229	0.288434
Cl332	Cl	1.746071	-0.327229	0.538434
H333	H	0.666928	-0.374708	-0.374408
H334	H	0.916928	-0.124708	-0.124408
H335	H	1.166928	0.125292	0.125592
H336	H	1.416928	0.375292	0.375592
H337	H	0.832773	-0.374446	-0.944605
H338	H	1.082773	-0.124446	-0.694605
H339	H	1.332773	0.125554	-0.444605
H340	H	1.582773	0.375554	-0.194605
H341	H	0.978258	-0.229210	-0.541032
H342	H	1.228258	0.020790	-0.291032
H343	H	1.478258	0.270790	-0.041032
H344	H	1.728258	0.520790	0.208968
Cl345	Cl	1.032928	-0.875333	-0.290843
Cl346	Cl	1.282928	-0.625333	-0.040843
Cl347	Cl	1.532928	-0.375333	0.209157
Cl348	Cl	1.782928	-0.125333	0.459157
H349	H	0.548221	-0.374708	-0.374427
H350	H	0.798221	-0.124708	-0.124427
H351	H	1.048221	0.125292	0.125573
H352	H	1.298221	0.375292	0.375573
H353	H	0.548214	-0.229110	-0.229284
H354	H	0.798214	0.020890	0.020716
H355	H	1.048214	0.270890	0.270716
H356	H	1.298214	0.520890	0.520716
Cl357	Cl	0.814887	-0.525958	-0.392196
Cl358	Cl	1.064887	-0.275958	-0.142196
Cl359	Cl	1.314887	-0.025958	0.107804
Cl360	Cl	1.564887	0.224042	0.357804
H361	H	0.832766	-0.374537	-0.659679
H362	H	1.082766	-0.124537	-0.409679
H363	H	1.332766	0.125463	-0.159679
H364	H	1.582766	0.375463	0.090321
Cl365	Cl	0.894304	-0.429256	-0.728316
Cl366	Cl	1.144304	-0.179256	-0.478316
Cl367	Cl	1.394304	0.070744	-0.228316
Cl368	Cl	1.644304	0.320744	0.021684
Cl369	Cl	0.814941	-0.673652	-0.392215
Cl370	Cl	1.064941	-0.423652	-0.142215
Cl371	Cl	1.314941	-0.173652	0.107785
Cl372	Cl	1.564941	0.076348	0.357785
Cl373	Cl	0.996002	-0.211406	-0.674240
Cl374	Cl	1.246002	0.038594	-0.424240
Cl375	Cl	1.496002	0.288594	-0.174240
Cl376	Cl	1.746002	0.538594	0.075760
Cl377	Cl	0.916751	-0.174359	-0.876025
Cl378	Cl	1.166751	0.075641	-0.626025
Cl379	Cl	1.416751	0.325641	-0.376025
Cl380	Cl	1.666751	0.575641	-0.126025
Cl381	Cl	0.681411	-0.211333	-0.211556
Cl382	Cl	0.931411	0.038667	0.038444
Cl383	Cl	1.181411	0.288667	0.288444
Cl384	Cl	1.431411	0.538667	0.538444
Cl385	Cl	0.277786	-0.392496	-0.392156
Cl386	Cl	0.527786	-0.142496	-0.142156
Cl387	Cl	0.777786	0.107504	0.107844
Cl388	Cl	1.027786	0.357504	0.357844
Cl389	Cl	0.479644	-0.174473	-0.290944
Cl390	Cl	0.729644	0.075527	-0.040944
Cl391	Cl	0.979644	0.325527	0.209056
Cl392	Cl	1.229644	0.575527	0.459056
H393	H	0.346356	-0.404354	-0.310653
H394	H	0.596356	-0.154354	-0.060653
H395	H	0.846356	0.095646	0.189347
H396	H	1.096356	0.345646	0.439347
H397	H	0.914547	-0.199408	-0.742823
H398	H	1.164547	0.050592	-0.492823
H399	H	1.414547	0.300592	-0.242823
H400	H	1.664547	0.550592	0.007177
H401	H	0.978260	-0.229021	-1.063376
H402	H	1.228260	0.020979	-0.813376
H403	H	1.478260	0.270979	-0.563376
H404	H	1.728260	0.520979	-0.313376
Cl405	Cl	0.815092	-1.077289	-0.392290
Cl406	Cl	1.065092	-0.827289	-0.142290
Cl407	Cl	1.315092	-0.577289	0.107710
Cl408	Cl	1.565092	-0.327289	0.357710
H409	H	0.832770	-0.374397	-1.063316
H410	H	1.082770	-0.124397	-0.813316
H411	H	1.332770	0.125603	-0.563316
H412	H	1.582770	0.375603	-0.313316
H413	H	0.144574	-0.229139	-0.229303
H414	H	0.394574	0.020861	0.020697
H415	H	0.644574	0.270861	0.270697
H416	H	0.894574	0.520861	0.520697
Cl417	Cl	0.331956	-0.174483	-0.290941
Cl418	Cl	0.581956	0.075517	-0.040941
Cl419	Cl	0.831956	0.325517	0.209059
Cl420	Cl	1.081956	0.575517	0.459059
Cl421	Cl	0.814997	-0.392327	-0.526465
Cl422	Cl	1.064997	-0.142327	-0.276465
Cl423	Cl	1.314997	0.107673	-0.026465
Cl424	Cl	1.564997	0.357673	0.223535
H425	H	0.978103	-0.540398	-0.229191
H426	H	1.228103	-0.290398	0.020809
H427	H	1.478103	-0.040398	0.270809
H428	H	1.728103	0.209602	0.520809
Cl429	Cl	0.277774	-0.211358	-0.211586
Cl430	Cl	0.527774	0.038642	0.038414
Cl431	Cl	0.777774	0.288642	0.288414
Cl432	Cl	1.027774	0.538642	0.538414
Cl433	Cl	0.995908	-0.673594	-0.211485
Cl434	Cl	1.245908	-0.423594	0.038515
Cl435	Cl	1.495908	-0.173594	0.288515
Cl436	Cl	1.745908	0.076406	0.538515
H437	H	0.978259	-0.944036	-0.229262
H438	H	1.228259	-0.694036	0.020738
H439	H	1.478259	-0.444036	0.270738
H440	H	1.728259	-0.194036	0.520738
Cl441	Cl	1.032870	-0.727640	-0.290821
Cl442	Cl	1.282870	-0.477640	-0.040821
Cl443	Cl	1.532870	-0.227640	0.209179
Cl444	Cl	1.782870	0.022360	0.459179
Cl445	Cl	0.815035	-0.929599	-0.392260
Cl446	Cl	1.065035	-0.679599	-0.142260
Cl447	Cl	1.315035	-0.429599	0.107740
Cl448	Cl	1.565035	-0.179599	0.357740
Cl449	Cl	0.778071	-0.875543	-0.312920
Cl450	Cl	1.028071	-0.625543	-0.062920
Cl451	Cl	1.278071	-0.375543	0.187080
Cl452	Cl	1.528071	-0.125543	0.437080
