data_functionalizedCrystal
_audit_creation_method	'MofGen! by Chris Wilmer'
_symmetry_space_group_name_H-M	'P1'
_symmetry_Int_Tables_number	1
_symmetry_cell_setting	triclinic
loop_
_symmetry_equiv_pos_as_xyz
  x,y,z
_cell_length_a	19.288864
_cell_length_b	14.853567
_cell_length_c	18.366186
_cell_angle_alpha	89.997562
_cell_angle_beta	89.977106
_cell_angle_gamma	83.385589
loop_
_atom_site_label
_atom_site_type_symbol
_atom_site_fract_x
_atom_site_fract_y
_atom_site_fract_z
O1	O	0.921732	0.112464	-0.060777
O2	O	0.719523	0.127635	-0.060727
O3	O	0.826029	-0.011211	-0.060755
O4	O	0.815226	0.251310	-0.060748
O5	O	0.826011	-0.011217	0.060344
O6	O	0.719505	0.127629	0.060373
O7	O	0.921714	0.112457	0.060322
Zn8	Zn	0.820607	0.120042	0.079575
Zn9	Zn	0.820631	0.120051	-0.079979
O10	O	0.815208	0.251304	0.060351
C11	C	0.693636	0.127144	-0.000171
C12	C	0.616527	0.125679	-0.000152
C13	C	0.572106	0.207147	-0.000161
C14	C	0.499654	0.205770	-0.000169
C15	C	0.471627	0.122920	-0.000182
C16	C	0.516058	0.041441	-0.000169
C17	C	0.588508	0.042820	-0.000154
C18	C	0.363152	0.057794	-0.042635
C19	C	0.290702	0.056418	-0.042655
C20	C	0.248167	0.118664	-0.000227
C21	C	0.278088	0.182300	0.042212
C22	C	0.350538	0.183679	0.042228
C23	C	0.393068	0.121416	-0.000199
C24	C	0.125185	0.198645	-0.000243
C25	C	0.052732	0.197265	-0.000247
C26	C	0.069138	0.032933	-0.000254
C27	C	0.141589	0.034316	-0.000244
C28	C	0.169608	0.117174	-0.000242
C29	C	0.825530	-0.044800	-0.000208
C30	C	0.824064	-0.144875	-0.000214
C31	C	0.754596	-0.557014	-0.000182
C32	C	0.881128	-0.579015	-0.000214
C33	C	0.882507	-0.484989	-0.000219
C34	C	0.819930	-0.426971	-0.000204
C35	C	0.755974	-0.462979	-0.000185
C36	C	0.946462	-0.448973	-0.000231
C37	C	0.947844	-0.354942	-0.000235
C38	C	0.885266	-0.296923	-0.000225
C39	C	0.821307	-0.332936	-0.000207
C40	C	0.758730	-0.274918	-0.000192
C41	C	0.694770	-0.310930	-0.000179
C42	C	0.693396	-0.404960	-0.000176
C43	C	0.886641	-0.202893	-0.000228
C44	C	0.760107	-0.180883	-0.000194
C45	C	0.947601	0.112949	-0.000236
C46	C	1.024710	0.114414	-0.000259
C47	C	0.815707	0.284893	-0.000198
C48	C	0.817174	0.384968	-0.000197
N49	N	0.820595	0.120035	0.188466
N50	N	0.820647	0.120050	-0.188870
C51	C	0.867772	0.058584	0.226553
C52	C	0.867776	0.058580	0.302781
C53	C	0.820611	0.120043	0.340918
C54	C	0.773426	0.181498	0.302822
C55	C	0.773418	0.181495	0.226595
C56	C	0.811590	0.202186	0.461682
C57	C	0.811602	0.202191	0.537907
C58	C	0.820631	0.120054	0.576026
C59	C	0.829661	0.037908	0.537910
C60	C	0.829653	0.037905	0.461684
C61	C	0.820614	0.120053	0.423573
C62	C	0.867814	0.058594	0.696769
C63	C	0.867814	0.058588	0.772998
C64	C	0.773467	0.181514	0.773037
C65	C	0.773464	0.181512	0.696809
C66	C	0.820641	0.120052	0.658679
H67	H	0.266346	0.004605	-0.077214
H68	H	0.397779	0.007104	-0.077190
C69	C	0.919699	-0.009016	0.654823
H70	H	0.947790	-0.045626	0.688427
H71	H	0.948640	0.023316	0.625070
H72	H	0.894671	-0.046465	0.625103
C73	C	0.919681	-0.008994	0.184611
H74	H	0.912931	-0.000184	0.133758
H75	H	0.912109	-0.069150	0.197101
H76	H	0.966037	0.000683	0.197091
C77	C	0.919706	-0.009013	0.814898
H78	H	0.912949	-0.000218	0.865757
H79	H	0.966068	0.000626	0.802384
H80	H	0.912105	-0.069161	0.802410
H81	H	0.046319	-0.034525	-0.000311
C82	C	0.691271	-0.117071	-0.000178
H83	H	0.652986	-0.151987	-0.000164
H84	H	0.689184	-0.079928	-0.042406
H85	H	0.689171	-0.079937	0.042060
H86	H	0.906194	0.008538	0.333798
H87	H	0.594914	0.274617	-0.000161
H88	H	0.493234	-0.026016	-0.000190
H89	H	0.837004	-0.028981	0.430653
H90	H	0.932075	-0.626258	-0.000220
C91	C	0.721583	0.249123	0.654907
H92	H	0.728332	0.240317	0.604048
H93	H	0.729189	0.309265	0.667395
H94	H	0.675216	0.239489	0.667420
C95	C	0.625938	-0.247109	-0.000162
H96	H	0.587648	-0.282018	-0.000149
H97	H	0.623856	-0.209966	-0.042389
H98	H	0.623842	-0.209977	0.042077
C99	C	0.721585	0.249122	0.814979
H100	H	0.728348	0.240327	0.865832
H101	H	0.675221	0.239485	0.802511
H102	H	0.729188	0.309269	0.802478
H103	H	0.837012	-0.028975	0.568945
C104	C	0.801675	0.292546	0.579828
H105	H	0.796285	0.341462	0.546210
H106	H	0.841369	0.297422	0.609540
H107	H	0.761234	0.294502	0.609587
C108	C	0.003868	0.286885	-0.000257
H109	H	0.030935	0.336426	-0.000261
H110	H	-0.024759	0.289767	0.041967
H111	H	-0.024712	0.289758	-0.042498
H112	H	0.804226	0.269076	0.430652
C113	C	0.623049	-0.444575	-0.000151
H114	H	0.631192	-0.508884	-0.000141
H115	H	0.597280	-0.424651	-0.042373
H116	H	0.597278	-0.424642	0.042093
C117	C	0.637377	-0.046797	-0.000149
H118	H	0.684539	-0.034109	-0.000136
H119	H	0.628896	-0.080782	-0.042381
H120	H	0.628852	-0.080782	0.042084
C121	C	0.684246	-0.596622	-0.000165
H122	H	0.692385	-0.660932	-0.000162
H123	H	0.658482	-0.576687	-0.042387
H124	H	0.658474	-0.576692	0.042078
H125	H	0.997409	-0.496218	-0.000236
H126	H	0.999924	-0.325630	-0.000246
C127	C	0.956987	-0.163282	-0.000241
H128	H	0.994058	-0.211303	-0.000250
H129	H	0.960145	-0.127055	0.041986
H130	H	0.960163	-0.127063	-0.042479
C131	C	0.721547	0.249108	0.344769
H132	H	0.728313	0.240316	0.395623
H133	H	0.675182	0.239470	0.332305
H134	H	0.729149	0.309254	0.332266
C135	C	0.721527	0.249100	0.184697
H136	H	0.693438	0.285709	0.218325
H137	H	0.692584	0.216766	0.154975
H138	H	0.746550	0.286549	0.154950
H139	H	0.463479	0.272114	-0.000174
H140	H	0.374897	0.235492	0.076785
H141	H	0.147999	0.266113	-0.000231
C142	C	0.231309	0.250779	0.088882
H143	H	0.183875	0.240842	0.082801
H144	H	0.237237	0.310650	0.073965
H145	H	0.243946	0.243080	0.138673
H146	H	0.177758	-0.032025	-0.000240
