data_functionalizedCrystal
_audit_creation_method	'MofGen! by Chris Wilmer'
_symmetry_space_group_name_H-M	'P1'
_symmetry_Int_Tables_number	1
_symmetry_cell_setting	triclinic
loop_
_symmetry_equiv_pos_as_xyz
  x,y,z
_cell_length_a	11.026607
_cell_length_b	15.538191
_cell_length_c	9.482900
_cell_angle_alpha	95.622696
_cell_angle_beta	78.636152
_cell_angle_gamma	77.929055
loop_
_atom_site_label
_atom_site_type_symbol
_atom_site_fract_x
_atom_site_fract_y
_atom_site_fract_z
O1	O	1.472126	0.356312	-0.120861
O2	O	1.137231	0.314516	-0.120867
O3	O	1.369870	0.209339	-0.120870
O4	O	1.239487	0.461490	-0.120859
O5	O	1.322567	0.230813	0.120923
O6	O	1.089928	0.335990	0.120926
O7	O	1.424823	0.377786	0.120932
Cu8	Cu	1.253057	0.358849	0.143006
Cu9	Cu	1.308998	0.333454	-0.142942
O10	O	1.192184	0.482963	0.120934
C11	C	1.071765	0.317542	0.000028
C12	C	0.947176	0.294556	0.000025
C13	C	0.845415	0.358024	0.000027
C14	C	0.716645	0.334268	0.000024
C15	C	1.359861	0.187293	0.000022
C16	C	1.400496	0.089608	0.000008
C17	C	0.996815	-0.266633	0.000032
C18	C	1.035024	-0.358419	0.000036
C19	C	1.249941	-0.344417	0.000039
C20	C	1.211752	-0.252629	0.000028
C21	C	1.085187	-0.213744	0.000026
C22	C	1.300124	-0.199740	0.000022
C23	C	1.261936	-0.107958	0.000019
C24	C	1.135376	-0.069066	0.000021
C25	C	1.046999	-0.121963	0.000023
C26	C	1.426686	-0.238625	0.000035
C27	C	1.515058	-0.185736	0.000029
C28	C	1.476872	-0.093954	0.000015
C29	C	1.350312	-0.055062	0.000017
C30	C	1.565249	-0.041058	0.000013
C31	C	1.527061	0.050724	0.000010
C32	C	1.312124	0.036719	0.000014
C33	C	1.490290	0.374760	0.000033
C34	C	1.614881	0.397745	0.000026
C35	C	1.202194	0.505009	0.000039
C36	C	1.161561	0.602693	0.000043
N37	N	1.213720	0.376711	0.344127
N38	N	1.348347	0.315586	-0.344063
C39	C	1.297389	0.338716	0.416325
C40	C	1.264665	0.353586	0.583743
H41	H	0.938973	0.222630	-0.000015
H42	H	0.853624	0.429947	0.000039
H43	H	0.708449	0.262337	-0.000016
C44	C	0.625950	0.494913	0.000023
H45	H	0.711047	0.498133	0.000012
H46	H	0.570328	0.530767	0.084337
H47	H	0.603326	0.515778	-0.084311
H48	H	1.599022	0.093788	0.000007
C49	C	1.093359	0.031891	0.000019
H50	H	1.005325	0.047473	0.000030
H51	H	1.140903	0.047752	-0.084299
H52	H	1.107908	0.062731	0.084349
C53	C	1.477853	0.256764	0.572031
H54	H	1.526098	0.234851	0.639040
H55	H	1.522684	0.290945	0.512638
H56	H	1.464668	0.208194	0.512666
H57	H	1.393246	0.295175	0.354196
H58	H	1.168797	0.397122	0.645869
C59	C	0.907782	-0.079185	0.000007
H60	H	0.860614	-0.123827	0.000013
H61	H	0.904923	-0.051161	-0.084312
H62	H	0.871919	-0.036182	0.084336
C63	C	0.857598	-0.223855	0.000016
H64	H	0.810430	-0.268498	0.000022
H65	H	0.854739	-0.195832	-0.084303
H66	H	0.821735	-0.180852	0.084345
H67	H	1.117858	0.420244	0.406258
C68	C	0.937810	-0.416597	0.000021
H69	H	0.856970	-0.380292	0.000006
H70	H	0.931739	-0.445207	0.084335
H71	H	0.964743	-0.460179	-0.084313
H72	H	1.209065	0.068380	0.000002
C73	C	1.389154	-0.387197	0.000034
H74	H	1.399244	-0.449434	0.000027
H75	H	1.410565	-0.361787	0.084345
H76	H	1.443540	-0.376771	-0.084303
H77	H	1.457777	-0.313361	0.000024
H78	H	1.668295	-0.072730	0.000029
C79	C	1.654270	-0.228515	0.000023
H80	H	1.664361	-0.290753	0.000017
H81	H	1.675682	-0.203105	0.084335
H82	H	1.708657	-0.218090	-0.084313
