data_functionalizedCrystal
_audit_creation_method	'MofGen! by Chris Wilmer'
_symmetry_space_group_name_H-M	'P1'
_symmetry_Int_Tables_number	1
_symmetry_cell_setting	triclinic
loop_
_symmetry_equiv_pos_as_xyz
  x,y,z
_cell_length_a	8.634740
_cell_length_b	23.532407
_cell_length_c	7.681481
_cell_angle_alpha	84.289450
_cell_angle_beta	96.618947
_cell_angle_gamma	91.709492
loop_
_atom_site_label
_atom_site_type_symbol
_atom_site_fract_x
_atom_site_fract_y
_atom_site_fract_z
O1	O	2.028564	0.190112	-0.146476
O2	O	1.579850	0.174555	-0.146476
O3	O	1.817741	0.100172	-0.146443
O4	O	1.790673	0.264496	-0.146508
O5	O	1.847022	0.090992	0.146418
O6	O	1.609131	0.165376	0.146386
O7	O	2.057845	0.180932	0.146386
Zn8	Zn	1.838137	0.171696	0.192884
Zn9	Zn	1.799558	0.183791	-0.192974
O10	O	1.819954	0.255316	0.146354
C11	C	1.537095	0.166441	-0.000044
C12	C	1.366072	0.155933	-0.000043
C13	C	1.831693	0.074326	-0.000008
C14	C	1.829623	0.010991	0.000005
C15	C	1.957395	-0.380830	-0.000091
C16	C	1.955468	-0.440340	-0.000104
O17	O	2.073917	-0.470335	-0.000169
N18	N	1.814044	-0.471022	-0.000103
C19	C	1.674535	-0.442191	-0.000106
O20	O	1.554066	-0.473753	-0.000108
C21	C	1.676462	-0.382682	-0.000106
C22	C	1.817897	-0.352004	-0.000089
C23	C	2.098818	-0.350152	-0.000077
C24	C	2.100744	-0.290646	-0.000060
C25	C	1.961246	-0.261820	-0.000058
C26	C	1.819823	-0.292498	-0.000072
C27	C	1.536953	-0.353852	-0.000122
C28	C	1.538892	-0.294339	-0.000122
C29	C	1.680327	-0.263661	-0.000105
C30	C	1.682251	-0.204167	-0.000054
N31	N	1.823675	-0.173484	-0.000055
C32	C	1.963172	-0.202311	-0.000057
C33	C	1.670500	-0.567163	-0.000111
C34	C	1.668573	-0.626671	-0.000099
C35	C	1.949507	-0.624816	-0.000101
C36	C	1.951433	-0.565307	-0.000100
C37	C	1.811924	-0.536481	-0.000112
C38	C	1.967206	-0.077346	-0.000021
C39	C	1.969120	-0.017836	0.000003
C40	C	1.688187	-0.019696	-0.000005
C41	C	1.686273	-0.079201	-0.000019
C42	C	1.825794	-0.108025	-0.000033
O43	O	1.563864	-0.174133	0.000004
O44	O	2.083619	-0.170741	-0.000078
C45	C	2.100600	0.189047	-0.000049
C46	C	2.271621	0.199555	-0.000062
C47	C	1.806002	0.281161	-0.000086
C48	C	1.808071	0.344497	-0.000111
N49	N	1.864477	0.163442	0.456222
N50	N	1.773230	0.192041	-0.456312
H51	H	1.316095	0.110550	-0.000071
H52	H	1.957639	0.134255	0.531440
H53	H	1.321602	0.244943	-0.000068
O54	O	1.649821	0.230696	0.444063
H55	H	1.706006	0.264502	0.360019
O56	O	2.249297	-0.381235	-0.000069
H57	H	2.224228	-0.427771	-0.000080
H58	H	2.080817	-0.100806	-0.000039
O59	O	2.121670	0.015256	-0.000006
H60	H	2.218341	-0.014790	-0.000037
H61	H	2.215914	-0.265673	-0.000054
O62	O	1.516023	-0.659755	-0.000094
H63	H	1.520349	-0.690656	0.119276
H64	H	2.066602	-0.540332	-0.000088
H65	H	1.556890	-0.543697	-0.000106
O66	O	2.099973	-0.655911	-0.000121
H67	H	2.074857	-0.702444	-0.000146
H68	H	1.421781	-0.378820	-0.000146
H69	H	1.425284	-0.270872	-0.000135
H70	H	1.574612	0.003785	0.000003
O71	O	1.533732	-0.112296	-0.000031
H72	H	1.437055	-0.082251	-0.000035
