data_functionalizedCrystal
_audit_creation_method	'MofGen! by Chris Wilmer'
_symmetry_space_group_name_H-M	'P1'
_symmetry_Int_Tables_number	1
_symmetry_cell_setting	triclinic
loop_
_symmetry_equiv_pos_as_xyz
  x,y,z
_cell_length_a	18.215407
_cell_length_b	14.908520
_cell_length_c	18.215399
_cell_angle_alpha	86.730636
_cell_angle_beta	90.019833
_cell_angle_gamma	93.321174
loop_
_atom_site_label
_atom_site_type_symbol
_atom_site_fract_x
_atom_site_fract_y
_atom_site_fract_z
Zn1	Zn	1.108178	-0.359158	0.433017
Zn2	Zn	1.608178	0.140842	0.933017
Zn3	Zn	1.100989	-0.510027	0.317051
Zn4	Zn	1.600989	-0.010027	0.817051
Zn5	Zn	0.985109	-0.359188	0.309966
Zn6	Zn	1.485109	0.140812	0.809966
Zn7	Zn	0.977982	-0.509977	0.440073
Zn8	Zn	1.477982	-0.009977	0.940073
O9	O	1.043064	-0.434588	0.375027
O10	O	1.543064	0.065412	0.875027
O11	O	1.210208	-0.379180	0.417646
O12	O	1.710208	0.120820	0.917646
O13	O	1.085592	-0.490052	0.213128
O14	O	1.585592	0.009948	0.713128
O15	O	1.007425	-0.232939	0.320371
O16	O	1.507425	0.267061	0.820371
O17	O	1.204927	-0.490023	0.332446
O18	O	1.704927	0.009977	0.832446
O19	O	1.097843	-0.232917	0.410776
O20	O	1.597843	0.267083	0.910776
O21	O	1.000455	-0.379230	0.207923
O22	O	1.500455	0.120770	0.707923
O23	O	0.881180	-0.379182	0.327213
O24	O	1.381180	0.120818	0.827213
O25	O	0.995278	-0.489937	0.542120
O26	O	1.495278	0.010063	1.042120
O27	O	0.875943	-0.489966	0.422802
O28	O	1.375943	0.010034	0.922802
O29	O	1.090932	-0.379131	0.536936
O30	O	1.590932	0.120869	1.036936
O31	O	1.078681	-0.636266	0.339288
O32	O	1.578681	-0.136266	0.839288
O33	O	0.988308	-0.636229	0.429672
O34	O	1.488308	-0.136229	0.929672
C35	C	0.851859	-0.434572	0.375005
C36	C	1.351859	0.065428	0.875005
C37	C	0.770059	-0.434587	0.375014
C38	C	1.270059	0.065413	0.875014
C39	C	1.031961	-0.668981	0.386030
C40	C	1.531961	-0.168981	0.886030
C41	C	1.027278	-0.769256	0.390762
C42	C	1.527278	-0.269256	0.890762
C43	C	0.579154	-0.492363	0.424733
C44	C	1.079154	0.007637	0.924733
C45	C	0.502295	-0.492366	0.424742
C46	C	1.002295	0.007634	0.924742
C47	C	0.507726	-0.376828	0.325338
C48	C	1.007726	0.123172	0.825338
C49	C	0.584584	-0.376822	0.325333
C50	C	1.084584	0.123178	0.825333
C51	C	0.620295	-0.434594	0.375029
C52	C	1.120295	0.065406	0.875029
C53	C	0.466579	-0.434604	0.375044
C54	C	0.966579	0.065396	0.875044
C55	C	0.383245	-0.434606	0.375053
C56	C	0.883245	0.065394	0.875053
C57	C	0.703635	-0.434591	0.375021
C58	C	1.203635	0.065409	0.875021
C59	C	1.112681	-0.957660	0.305613
C60	C	1.612681	-0.457660	0.805613
C61	C	1.108284	-1.051877	0.310057
C62	C	1.608284	-0.551877	0.810057
C63	C	1.014091	-1.051908	0.404097
C64	C	1.514091	-0.551908	0.904097
C65	C	1.018488	-0.957691	0.399653
C66	C	1.518488	-0.457691	0.899653
C67	C	1.067784	-0.910570	0.350409
C68	C	1.567784	-0.410570	0.850409
C69	C	1.072177	-0.816352	0.345962
C70	C	1.572177	-0.316352	0.845962
C71	C	0.977988	-0.816385	0.440005
C72	C	1.477988	-0.316385	0.940005
C73	C	0.973591	-0.910602	0.444449
C74	C	1.473591	-0.410602	0.944449
C75	C	1.235017	-0.434604	0.375049
C76	C	1.735017	0.065396	0.875049
C77	C	1.316815	-0.434611	0.375059
C78	C	1.816815	0.065389	0.875059
C79	C	1.043112	-0.434526	0.566977
C80	C	1.543112	0.065474	1.066977
C81	C	1.043133	-0.434499	0.648775
C82	C	1.543133	0.065501	1.148775
C83	C	1.054231	-0.199279	0.363996
C84	C	1.554231	0.300721	0.863996
C85	C	1.058990	-0.099004	0.359296
C86	C	1.558990	0.400996	0.859296
C87	C	1.043062	-0.434585	0.183820
C88	C	1.543062	0.065415	0.683820
C89	C	1.043196	-0.434357	0.102011
C90	C	1.543196	0.065643	0.602011
C91	C	1.092959	-0.376748	0.834268
C92	C	1.592959	0.123252	1.334268
C93	C	1.092969	-0.376722	0.911126
C94	C	1.592969	0.123278	1.411126
C95	C	0.993364	-0.492110	0.916513
C96	C	1.493364	0.007890	1.416513
C97	C	0.993351	-0.492131	0.839656
C98	C	1.493351	0.007869	1.339656
C99	C	1.043153	-0.434452	0.798536
C100	C	1.543153	0.065548	1.298536
C101	C	1.043176	-0.434404	0.952250
C102	C	1.543176	0.065596	1.452250
C103	C	1.043186	-0.434376	1.035582
C104	C	1.543186	0.065624	1.535582
C105	C	1.043142	-0.434478	0.715198
C106	C	1.543142	0.065522	1.215198
H107	H	0.608228	-0.539403	0.465200
H108	H	1.108228	-0.039403	0.965200
Br109	Br	1.169222	-1.115782	0.249264
Br110	Br	1.669222	-0.615782	0.749264
H111	H	0.941427	-0.778034	0.476478
H112	H	1.441427	-0.278034	0.976478
H113	H	0.468801	-0.539406	0.465216
H114	H	0.968801	-0.039406	0.965216
H115	H	0.618083	-0.329773	0.284858
H116	H	1.118083	0.170227	0.784858
H117	H	1.112315	-0.777987	0.305863
H118	H	1.612315	-0.277987	0.805863
H119	H	1.133509	-0.329780	0.800790
H120	H	1.633509	0.170220	1.300790
H121	H	1.133525	-0.329733	0.940215
H122	H	1.633525	0.170267	1.440215
Br123	Br	0.459256	-0.298427	0.257896
Br124	Br	0.959256	0.201573	0.757896
H125	H	0.952819	-0.539073	0.950002
H126	H	1.452819	-0.039073	1.450002
Br127	Br	1.179567	-0.893705	0.238770
Br128	Br	1.679567	-0.393705	0.738770
Br129	Br	0.925746	-0.570441	0.791158
Br130	Br	1.425746	-0.070441	1.291158
Br131	Br	0.947207	-1.115873	0.470935
Br132	Br	1.447207	-0.615873	0.970935
Br133	Br	0.906696	-0.974560	0.511281
Br134	Br	1.406696	-0.474560	1.011281
