data_functionalizedCrystal
_audit_creation_method	'MofGen! by Chris Wilmer'
_symmetry_space_group_name_H-M	'P1'
_symmetry_Int_Tables_number	1
_symmetry_cell_setting	triclinic
loop_
_symmetry_equiv_pos_as_xyz
  x,y,z
_cell_length_a	12.837943
_cell_length_b	12.837942
_cell_length_c	11.295483
_cell_angle_alpha	85.469583
_cell_angle_beta	85.461227
_cell_angle_gamma	85.171060
loop_
_atom_site_label
_atom_site_type_symbol
_atom_site_fract_x
_atom_site_fract_y
_atom_site_fract_z
O1	O	1.408689	-0.265788	-0.099003
O2	O	1.105556	-0.252345	-0.099010
O3	O	1.250401	-0.107500	-0.098999
O4	O	1.263845	-0.410633	-0.099013
O5	O	1.237676	-0.120201	0.099051
O6	O	1.092832	-0.265045	0.099040
O7	O	1.395965	-0.278489	0.099047
Cu8	Cu	1.243237	-0.272927	0.117127
Cu9	Cu	1.258285	-0.257907	-0.117090
O10	O	1.251121	-0.423333	0.099037
C11	C	1.060125	-0.254153	0.000014
C12	C	0.943710	-0.240609	0.000012
C13	C	0.718835	-0.403439	0.000021
C14	C	0.609453	-0.390717	0.000020
C15	C	0.615561	-0.202446	0.000016
C16	C	0.724943	-0.215167	0.000017
C17	C	0.776576	-0.315667	0.000018
C18	C	0.885961	-0.328387	0.000011
C19	C	0.892066	-0.140117	0.000016
C20	C	0.782684	-0.127396	0.000015
C21	C	1.239497	-0.074781	0.000025
C22	C	1.225953	0.041634	0.000023
C23	C	1.441396	-0.276680	0.000021
C24	C	1.557812	-0.290224	0.000015
N25	N	1.232661	-0.283491	0.281863
C26	C	1.262024	-0.456052	0.000010
C27	C	1.275569	-0.572467	0.000004
C28	C	1.388784	0.266509	0.000002
C29	C	1.376062	0.375892	-0.000000
C30	C	1.187791	0.369784	0.000008
C31	C	1.200512	0.260402	0.000010
C32	C	1.301011	0.208768	0.000009
C33	C	1.313731	0.099383	0.000020
C34	C	1.125461	0.093278	0.000019
C35	C	1.112740	0.202660	0.000017
N36	N	1.268868	-0.247335	-0.281825
C37	C	1.344996	-0.171231	0.531161
C38	C	1.337012	-0.179223	0.655824
C39	C	1.208702	-0.307459	0.655854
C40	C	1.216687	-0.299467	0.531191
C41	C	1.284837	-0.231353	0.468849
C42	C	1.292826	-0.223367	0.344183
C43	C	1.164512	-0.351597	0.344216
C44	C	1.156528	-0.359589	0.468879
H45	H	0.573495	-0.120630	0.000114
H46	H	1.105969	0.411844	-0.000004
H47	H	1.470613	0.224468	0.000013
H48	H	1.447536	0.422901	-0.000010
O49	O	1.015184	0.252950	-0.000138
C50	C	1.008765	0.322590	-0.102727
H51	H	1.090784	0.343817	-0.136934
H52	H	0.958500	0.396739	-0.079657
H53	H	0.971819	0.283529	-0.174544
O54	O	1.142437	-0.373474	0.716562
C55	C	1.067688	-0.315601	0.788658
H56	H	1.100101	-0.239019	0.807304
H57	H	1.049830	-0.363255	0.876335
H58	H	0.992691	-0.297731	0.740635
O59	O	1.411215	-0.104988	0.470779
C60	C	1.462628	-0.053661	0.552511
H61	H	1.413901	-0.053908	0.641386
H62	H	1.472655	0.030662	0.516487
H63	H	1.542901	-0.096230	0.565749
H64	H	1.053990	0.046252	0.000034
H65	H	0.562444	-0.462191	0.000025
H66	H	0.939091	-0.068646	0.000006
O67	O	1.358897	-0.157032	0.283701
C68	C	1.329672	-0.053687	0.314232
H69	H	1.243607	-0.047081	0.348502
H70	H	1.341775	0.002939	0.232272
H71	H	1.380003	-0.033350	0.386607
H72	H	1.395563	0.057344	0.000023
H73	H	1.115530	-0.400555	0.293468
O74	O	1.395502	-0.120978	0.716483
C75	C	1.461027	-0.188074	0.788555
H76	H	1.426230	-0.267049	0.807242
H77	H	1.467658	-0.151641	0.876213
H78	H	1.542176	-0.199787	0.740490
H79	H	1.101038	-0.415044	0.519653
H80	H	0.760876	-0.485269	0.000020
O81	O	0.936290	-0.425930	-0.000041
C82	C	1.045214	-0.418344	-0.000014
H83	H	1.065188	-0.336779	-0.037512
H84	H	1.088526	-0.479614	-0.057512
H85	H	1.070009	-0.432504	0.095000
O86	O	0.732488	-0.029784	-0.000200
C87	C	0.675965	-0.010237	-0.102757
H88	H	0.711800	-0.062898	-0.174444
H89	H	0.679634	0.075369	-0.137194
H90	H	0.590757	-0.027372	-0.079563
