data_functionalizedCrystal
_audit_creation_method	'MofGen! by Chris Wilmer'
_symmetry_space_group_name_H-M	'P1'
_symmetry_Int_Tables_number	1
_symmetry_cell_setting	triclinic
loop_
_symmetry_equiv_pos_as_xyz
  x,y,z
_cell_length_a	19.288867
_cell_length_b	19.288865
_cell_length_c	9.730223
_cell_angle_alpha	89.990377
_cell_angle_beta	89.998200
_cell_angle_gamma	83.136658
loop_
_atom_site_label
_atom_site_type_symbol
_atom_site_fract_x
_atom_site_fract_y
_atom_site_fract_z
O1	O	0.921346	0.086654	-0.114257
O2	O	0.719086	0.098341	-0.114273
O3	O	0.826060	-0.008633	-0.114237
O4	O	0.814372	0.193628	-0.114293
O5	O	0.826053	-0.008635	0.114342
O6	O	0.719079	0.098339	0.114307
O7	O	0.921339	0.086651	0.114323
Zn8	Zn	0.820208	0.092494	0.150607
Zn9	Zn	0.820217	0.092498	-0.150557
O10	O	0.814365	0.193625	0.114287
C11	C	0.693206	0.097964	0.000016
C12	C	0.616102	0.096834	0.000011
C13	C	0.825681	-0.034510	0.000057
C14	C	0.824552	-0.111614	0.000069
C15	C	0.060541	0.088699	-0.124570
C16	C	0.132988	0.089757	-0.124575
C17	C	0.169213	0.090287	0.000023
C18	C	0.132987	0.089742	0.124636
C19	C	0.060542	0.088678	0.124638
C20	C	0.278538	0.132653	0.095470
C21	C	0.350981	0.133722	0.095463
C22	C	0.392659	0.093566	0.000023
C23	C	0.361883	0.052351	-0.095434
C24	C	0.289438	0.051286	-0.095432
C25	C	0.247768	0.091440	0.000035
C26	C	0.507433	0.095252	-0.124589
C27	C	0.579882	0.096305	-0.124589
C28	C	0.579879	0.096297	0.124626
C29	C	0.507431	0.095238	0.124623
C30	C	0.471213	0.094718	0.000012
C31	C	0.887320	-0.156310	0.000080
C32	C	0.886259	-0.228757	0.000058
C33	C	0.822427	-0.256505	0.000053
C34	C	0.759651	-0.211799	0.000033
C35	C	0.760713	-0.139354	0.000041
C36	C	0.772245	-0.364794	0.080115
C37	C	0.771185	-0.437238	0.080116
C38	C	0.819147	-0.479951	0.000021
C39	C	0.868181	-0.450211	-0.080055
C40	C	0.869243	-0.377766	-0.080047
C41	C	0.821268	-0.335059	0.000043
C42	C	0.880769	-0.603202	0.000007
C43	C	0.879706	-0.675650	-0.000023
C44	C	0.753096	-0.658691	-0.000034
C45	C	0.754161	-0.586245	-0.000018
C46	C	0.818000	-0.558505	0.000010
C47	C	0.947219	0.087029	0.000031
C48	C	1.024323	0.088159	0.000027
C49	C	0.814744	0.219503	-0.000010
C50	C	0.815873	0.296607	-0.000031
N51	N	0.820207	0.092491	0.356143
N52	N	0.820224	0.092496	-0.356094
C53	C	0.867591	0.045143	0.428085
C54	C	0.867598	0.045143	0.571968
C55	C	0.772834	0.139846	0.571955
C56	C	0.772825	0.139842	0.428074
H57	H	0.031056	0.088274	-0.226038
H58	H	0.937374	-0.265155	0.000062
H59	H	0.909167	-0.353555	-0.145251
C60	C	0.919705	-0.006947	0.348960
C61	C	0.971823	-0.059031	0.428102
C62	C	1.023937	-0.111125	0.348982
C63	C	1.023933	-0.111133	0.190719
C64	C	0.971812	-0.059046	0.111568
C65	C	0.919699	-0.006953	0.190688
H66	H	0.971829	-0.059027	0.545266
H67	H	1.062520	-0.149683	0.407576
H68	H	1.062510	-0.149695	0.132150
H69	H	0.971807	-0.059050	-0.005596
H70	H	0.881116	0.031605	0.132094
C71	C	0.619728	0.096895	-0.261653
C72	C	0.661464	0.157925	-0.295925
C73	C	0.701312	0.158514	-0.432989
C74	C	0.699425	0.098073	-0.535781
C75	C	0.657688	0.037039	-0.501511
C76	C	0.617840	0.036450	-0.364447
H77	H	0.662862	0.202670	-0.219830
H78	H	0.732208	0.203695	-0.458357
H79	H	0.728923	0.098509	-0.637244
H80	H	0.656290	-0.007706	-0.577606
H81	H	0.586943	-0.008731	-0.339079
C82	C	0.720720	0.191936	0.651080
C83	C	0.720767	0.191986	0.809343
C84	C	0.668653	0.244079	0.888463
C85	C	0.616493	0.296122	0.809320
C86	C	0.616444	0.296074	0.651049
C87	C	0.668558	0.243981	0.571929
H88	H	0.759381	0.153459	0.867937
H89	H	0.668689	0.244115	1.005626
H90	H	0.577915	0.334685	0.867890
H91	H	0.577830	0.334601	0.592455
H92	H	0.668522	0.243945	0.454765
C93	C	0.948756	-0.724818	-0.000009
C94	C	0.965426	-0.776970	0.118680
C95	C	1.034478	-0.826139	0.118695
C96	C	1.086860	-0.823155	0.000021
C97	C	1.070192	-0.771001	-0.118677
C98	C	1.001140	-0.721833	-0.118692
H99	H	0.926649	-0.779181	0.206537
H100	H	1.046817	-0.864747	0.206564
H101	H	1.137977	-0.859552	0.000033
H102	H	1.108969	-0.768791	-0.206534
H103	H	0.988801	-0.683225	-0.206561
C104	C	0.467585	0.094653	0.261684
C105	C	0.387898	0.093483	0.261691
C106	C	0.348053	0.092897	0.398759
C107	C	0.387894	0.093481	0.535819
C108	C	0.467585	0.094651	0.535816
C109	C	0.507431	0.095237	0.398748
H110	H	0.358401	0.093051	0.160227
H111	H	0.289059	0.092031	0.398760
H112	H	0.358398	0.093047	0.637284
H113	H	0.497082	0.095083	0.637280
H114	H	0.566424	0.096103	0.398747
H115	H	0.906182	0.006587	0.630539
H116	H	0.609373	0.096727	0.226077
H117	H	0.907236	-0.484986	-0.145277
H118	H	0.376030	0.167299	0.173161
H119	H	0.731256	-0.461446	0.145311
C120	C	0.232697	0.176820	0.200477
C121	C	0.153010	0.175644	0.200496
C122	C	0.107171	0.219804	0.305508
C123	C	0.141018	0.265139	0.410500
C124	C	0.220709	0.266317	0.410484
C125	C	0.266548	0.222157	0.305473
H126	H	0.127951	0.142083	0.122772
H127	H	0.048179	0.218932	0.305518
H128	H	0.107085	0.297829	0.488235
H129	H	0.245768	0.299879	0.488209
H130	H	0.325540	0.223029	0.305462
C131	C	0.950988	-0.572682	0.000026
C132	C	1.020035	-0.621851	0.000021
C133	C	1.090255	-0.591334	0.000042
C134	C	1.091427	-0.511647	0.000069
C135	C	1.022377	-0.462473	0.000074
C136	C	0.952158	-0.492991	0.000053
H137	H	1.019170	-0.680845	0.000001
H138	H	1.141370	-0.627736	0.000038
H139	H	1.143407	-0.489056	0.000084
H140	H	1.023243	-0.403480	0.000093
H141	H	0.901043	-0.456589	0.000057
C142	C	0.685114	-0.537074	-0.000005
C143	C	0.614898	-0.567591	-0.000008
C144	C	0.545848	-0.518420	0.000003
C145	C	0.547014	-0.438732	0.000015
C146	C	0.617233	-0.408211	0.000018
C147	C	0.686283	-0.457382	0.000007
H148	H	0.614033	-0.626584	-0.000017
H149	H	0.493868	-0.541014	0.000001
H150	H	0.495899	-0.402333	0.000023
H151	H	0.618098	-0.349218	0.000027
H152	H	0.738263	-0.434788	0.000009
H153	H	0.162482	0.090201	-0.226040
H154	H	0.264384	0.017726	-0.173154
C155	C	0.719481	-0.317813	0.168223
C156	C	0.665553	-0.350522	0.256314
C157	C	0.612789	-0.303542	0.344414
C158	C	0.613953	-0.223854	0.344422
C159	C	0.667883	-0.191142	0.256327
C160	C	0.720647	-0.238121	0.168227
H161	H	0.664690	-0.409515	0.256312
H162	H	0.572867	-0.327759	0.409628
H163	H	0.574895	-0.189077	0.409638
H164	H	0.668747	-0.132148	0.256330
H165	H	0.760569	-0.213905	0.103014
C166	C	0.691664	-0.090184	0.000041
C167	C	0.639296	-0.093133	-0.118660
C168	C	0.570246	-0.043961	-0.118656
C169	C	0.553564	0.008159	0.000049
C170	C	0.605934	0.011110	0.118759
C171	C	0.674983	-0.038061	0.118755
H172	H	0.651644	-0.131717	-0.206540
H173	H	0.531479	-0.046146	-0.206533
H174	H	0.502450	0.044559	0.000052
H175	H	0.593586	0.049695	0.206639
H176	H	0.713750	-0.035876	0.206632
H177	H	0.395816	0.019654	-0.173155
H178	H	0.734235	0.178399	0.369496
H179	H	0.162486	0.090173	0.226085
H180	H	0.477942	0.094827	-0.226055
H181	H	0.031053	0.088240	0.226103
H182	H	0.939302	-0.133729	0.000098
H183	H	0.701123	-0.681283	-0.000046
H184	H	0.707678	-0.234396	0.000026
