data_functionalizedCrystal
_audit_creation_method	'MofGen! by Chris Wilmer'
_symmetry_space_group_name_H-M	'P1'
_symmetry_Int_Tables_number	1
_symmetry_cell_setting	triclinic
loop_
_symmetry_equiv_pos_as_xyz
  x,y,z
_cell_length_a	12.784902
_cell_length_b	12.837942
_cell_length_c	11.892095
_cell_angle_alpha	94.302569
_cell_angle_beta	93.488571
_cell_angle_gamma	96.031718
loop_
_atom_site_label
_atom_site_type_symbol
_atom_site_fract_x
_atom_site_fract_y
_atom_site_fract_z
O1	O	-1.417037	-0.000736	-0.094018
O2	O	-1.112038	0.043256	-0.094017
O3	O	-1.257774	-0.129033	-0.094010
O4	O	-1.271301	0.171553	-0.094024
O5	O	-1.245621	-0.114688	0.093997
O6	O	-1.099884	0.057601	0.093990
O7	O	-1.404884	0.013609	0.093989
Zn8	Zn	-1.250454	0.037883	0.123840
Zn9	Zn	-1.266467	0.018983	-0.123867
O10	O	-1.259148	0.185898	0.093983
C11	C	-1.066651	0.053289	-0.000013
C12	C	-0.949520	0.061802	-0.000012
C13	C	-0.735570	-0.111642	-0.000023
C14	C	-0.625514	-0.103648	-0.000023
C15	C	-0.619352	0.085781	-0.000019
C16	C	-0.729408	0.077788	-0.000020
C17	C	-0.787513	-0.020927	-0.000020
C18	C	-0.897569	-0.028919	-0.000012
C19	C	-0.891406	0.160509	-0.000017
C20	C	-0.781351	0.168503	-0.000016
C21	C	-1.247128	-0.160069	-0.000007
C22	C	-1.233500	-0.273918	-0.000009
N23	N	-1.239534	0.050780	0.292894
C24	C	-0.450270	0.003575	-0.000015
C25	C	-0.567402	-0.004940	-0.000019
C26	C	-1.397333	-0.529645	-0.000033
C27	C	-1.384534	-0.636617	-0.000035
C28	C	-1.195103	-0.594837	-0.000023
C29	C	-1.207903	-0.487865	-0.000021
C30	C	-1.309021	-0.455273	-0.000024
C31	C	-1.321819	-0.348298	-0.000014
C32	C	-1.132390	-0.306521	-0.000010
C33	C	-1.119590	-0.413493	-0.000012
C34	C	-1.269794	0.216934	-0.000023
C35	C	-1.283422	0.330782	-0.000028
N36	N	-1.277395	0.006076	-0.292921
C37	C	-1.353378	-0.083728	0.529547
C38	C	-1.345753	-0.074707	0.647888
C39	C	-1.216654	0.077841	0.647920
C40	C	-1.224279	0.068819	0.529579
C41	C	-1.292645	-0.011968	0.470396
C42	C	-1.300274	-0.020984	0.352052
C43	C	-1.171171	0.131558	0.352087
C44	C	-1.163546	0.140580	0.470428
H45	H	-0.782879	-0.192019	-0.000016
O46	O	-1.142924	0.164963	0.711774
H47	H	-1.083889	0.130405	0.765705
H48	H	-1.456448	-0.697169	-0.000046
H49	H	-1.107881	0.206352	0.518629
H50	H	-1.479667	-0.503108	-0.000025
O51	O	-0.960237	-0.135389	-0.000014
H52	H	-1.005562	-0.137725	0.076621
O53	O	-1.086050	-0.630009	-0.000012
H54	H	-1.080645	-0.683594	-0.076638
H55	H	-1.395207	-0.133142	0.696045
H56	H	-1.355944	-0.086762	0.303867
O57	O	-1.010529	-0.448646	0.000007
H58	H	-1.016462	-0.535524	0.000015
H59	H	-1.060479	-0.245954	0.000006
O60	O	-1.105650	0.208961	0.288292
H61	H	-1.122430	0.189114	0.196058
O62	O	-1.427110	-0.170855	0.465701
H63	H	-1.468060	-0.219243	0.526715
H64	H	-0.583227	-0.177518	-0.000028
O65	O	-0.556675	0.192247	-0.000009
H66	H	-0.471421	0.182560	-0.000002
H67	H	-0.933709	0.234376	-0.000008
O68	O	-0.718679	0.274972	0.000000
H69	H	-0.633423	0.265293	0.000011
O70	O	-1.430877	-0.313138	-0.000033
H71	H	-1.490135	-0.382831	-0.000055
