data_functionalizedCrystal
_audit_creation_method	'MofGen! by Chris Wilmer'
_symmetry_space_group_name_H-M	'P1'
_symmetry_Int_Tables_number	1
_symmetry_cell_setting	triclinic
loop_
_symmetry_equiv_pos_as_xyz
  x,y,z
_cell_length_a	13.897449
_cell_length_b	18.101397
_cell_length_c	13.897441
_cell_angle_alpha	90.034904
_cell_angle_beta	90.020733
_cell_angle_gamma	90.021745
loop_
_atom_site_label
_atom_site_type_symbol
_atom_site_fract_x
_atom_site_fract_y
_atom_site_fract_z
Zn1	Zn	1.474684	-0.294781	0.545352
Zn2	Zn	1.474570	-0.418636	0.384042
Zn3	Zn	1.313373	-0.294816	0.384071
Zn4	Zn	1.313347	-0.418588	0.545294
O5	O	1.393994	-0.356705	0.464690
O6	O	1.609651	-0.311216	0.523966
O7	O	1.453150	-0.402246	0.249064
O8	O	1.334830	-0.191178	0.405502
O9	O	1.609567	-0.402212	0.405452
O10	O	1.453344	-0.191152	0.523994
O11	O	1.334720	-0.311276	0.249085
O12	O	1.178388	-0.311229	0.405445
O13	O	1.334785	-0.402129	0.680284
O14	O	1.178369	-0.402163	0.523895
O15	O	1.453319	-0.311169	0.680326
O16	O	1.453125	-0.522263	0.405396
O17	O	1.334675	-0.522227	0.523867
C18	C	1.143379	-0.356695	0.464668
C19	C	1.036165	-0.356709	0.464681
C20	C	0.839870	-0.356711	0.464706
C21	C	0.949103	-0.356708	0.464690
C22	C	1.393911	-0.549116	0.464643
C23	C	1.393964	-0.631430	0.464655
C24	C	1.394087	-0.930521	0.464743
C25	C	1.468405	-0.899187	0.390004
C26	C	1.468662	-0.813569	0.390198
C27	C	1.394026	-0.782138	0.464699
C28	C	1.421587	-0.813139	0.566372
C29	C	1.422162	-0.898784	0.565965
C30	C	1.292011	-0.899033	0.438689
C31	C	1.292515	-0.813384	0.436419
C32	C	1.393990	-0.698279	0.464680
C33	C	1.394126	-1.014380	0.464769
C34	C	1.645587	-0.356716	0.464712
C35	C	1.752800	-0.356720	0.464722
C36	C	1.394062	-0.356640	0.716283
C37	C	1.394091	-0.356612	0.823497
C38	C	1.394103	-0.163543	0.464758
C39	C	1.394149	-0.081229	0.464787
C40	C	1.393981	-0.356717	0.214075
C41	C	1.394139	-0.356536	0.106862
C42	C	1.394117	-0.356562	1.019792
C43	C	1.394100	-0.356592	0.910560
H44	H	1.451419	-0.792612	0.314809
C45	C	1.213681	-0.784500	0.504570
H46	H	1.153173	-0.804254	0.485794
H47	H	1.227798	-0.799317	0.568596
H48	H	1.211428	-0.732106	0.501356
H49	H	1.496775	-0.918700	0.588035
H50	H	1.495365	-0.791629	0.588815
H51	H	1.544275	-0.793023	0.407437
C52	C	1.569995	-0.928183	0.413012
H53	H	1.614450	-0.908993	0.367514
H54	H	1.588068	-0.912842	0.475852
H55	H	1.570140	-0.980610	0.409846
H56	H	1.451370	-0.919835	0.314389
C57	C	1.350688	-0.785657	0.643625
H58	H	1.368674	-0.805065	0.704528
H59	H	1.352125	-0.733221	0.646018
H60	H	1.287513	-0.801753	0.627990
C61	C	1.258142	-0.928291	0.340265
H62	H	1.305946	-0.959987	0.314140
H63	H	1.199817	-0.954997	0.348086
H64	H	1.247795	-0.887935	0.297839
C65	C	1.217201	-0.926408	0.512215
H66	H	1.155669	-0.907195	0.496099
H67	H	1.214978	-0.978853	0.511153
H68	H	1.234804	-0.910052	0.574759
H69	H	1.271733	-0.793130	0.361596
H70	H	1.370404	-0.919508	0.623570
