data_functionalizedCrystal
_audit_creation_method	'MofGen! by Chris Wilmer'
_symmetry_space_group_name_H-M	'P1'
_symmetry_Int_Tables_number	1
_symmetry_cell_setting	triclinic
loop_
_symmetry_equiv_pos_as_xyz
  x,y,z
_cell_length_a	19.121063
_cell_length_b	19.121215
_cell_length_c	19.805399
_cell_angle_alpha	87.535432
_cell_angle_beta	92.411105
_cell_angle_gamma	95.002544
loop_
_atom_site_label
_atom_site_type_symbol
_atom_site_fract_x
_atom_site_fract_y
_atom_site_fract_z
Zn1	Zn	-0.234359	1.063742	-0.436177
Zn2	Zn	0.098975	1.397075	-0.102844
Zn3	Zn	0.432308	1.730408	0.230490
Zn4	Zn	-0.352029	1.058631	-0.327610
Zn5	Zn	-0.018695	1.391964	0.005723
Zn6	Zn	0.314638	1.725297	0.339056
Zn7	Zn	-0.239386	0.946075	-0.318359
Zn8	Zn	0.093948	1.279408	0.014974
Zn9	Zn	0.427281	1.612741	0.348307
Zn10	Zn	-0.356997	0.941017	-0.436115
Zn11	Zn	-0.023663	1.274350	-0.102781
Zn12	Zn	0.309670	1.607683	0.230552
O13	O	-0.295692	1.002366	-0.379565
O14	O	0.037641	1.335699	-0.046232
O15	O	0.370974	1.669033	0.287101
O16	O	-0.245785	1.161529	-0.425673
O17	O	0.087549	1.494863	-0.092340
O18	O	0.420882	1.828196	0.240994
O19	O	-0.337111	1.043678	-0.231667
O20	O	-0.003778	1.377011	0.101667
O21	O	0.329556	1.710344	0.435000
O22	O	-0.140253	0.965939	-0.330143
O23	O	0.193080	1.299272	0.003191
O24	O	0.526414	1.632606	0.336524
O25	O	-0.332236	1.157775	-0.345909
O26	O	0.001097	1.491108	-0.012576
O27	O	0.334430	1.824441	0.320757
O28	O	-0.136560	1.052388	-0.416703
O29	O	0.196774	1.385722	-0.083369
O30	O	0.530107	1.719055	0.249964
O31	O	-0.254353	0.960983	-0.224870
O32	O	0.078981	1.294317	0.108463
O33	O	0.412314	1.627650	0.441797
O34	O	-0.259170	0.846938	-0.330082
O35	O	0.074163	1.180271	0.003251
O36	O	0.407496	1.513604	0.336585
O37	O	-0.340704	0.957319	-0.530839
O38	O	-0.007371	1.290652	-0.197506
O39	O	0.325963	1.623985	0.135827
O40	O	-0.345579	0.843222	-0.416596
O41	O	-0.012245	1.176555	-0.083263
O42	O	0.321088	1.509888	0.250070
O43	O	-0.250602	1.047484	-0.530885
O44	O	0.082731	1.380817	-0.197552
O45	O	0.416065	1.714151	0.135782
O46	O	-0.451153	1.038773	-0.345849
O47	O	-0.117820	1.372107	-0.012516
O48	O	0.215513	1.705440	0.320818
O49	O	-0.454804	0.952363	-0.425567
O50	O	-0.121470	1.285696	-0.092233
O51	O	0.211863	1.619029	0.241100
C52	C	-0.303460	0.819549	-0.372329
C53	C	0.029874	1.152882	-0.038996
C54	C	0.363207	1.486215	0.294338
C55	C	-0.306799	0.741338	-0.369250
C56	C	0.026534	1.074671	-0.035917
C57	C	0.359867	1.408005	0.297417
C58	C	-0.478509	0.994484	-0.386720
C59	C	-0.145175	1.327817	-0.053387
C60	C	0.188158	1.661150	0.279946
C61	C	-0.556716	0.991176	-0.389807
C62	C	-0.223382	1.324509	-0.056473
C63	C	0.109951	1.657843	0.276860
C64	C	-0.327942	0.298895	-0.349772
C65	C	0.005391	0.632229	-0.016438
C66	C	0.338724	0.965562	0.316895
C67	C	-0.324800	0.372383	-0.352659
C68	C	0.008533	0.705716	-0.019326
C69	C	0.341866	1.039049	0.314007
C70	C	-0.278292	0.411080	-0.395705
C71	C	0.055041	0.744414	-0.062372
C72	C	0.388374	1.077747	0.270961
C73	C	-0.234918	0.376287	-0.435861
C74	C	0.098415	0.709621	-0.102528
C75	C	0.431748	1.042954	0.230806
C76	C	-0.238057	0.302801	-0.432969
C77	C	0.095276	0.636135	-0.099636
C78	C	0.428610	0.969468	0.233697
C79	C	-0.266564	0.633059	-0.406514
C80	C	0.066769	0.966392	-0.073181
C81	C	0.400103	1.299725	0.260153
C82	C	-0.263430	0.706550	-0.409404
C83	C	0.069903	1.039883	-0.076071
C84	C	0.403237	1.373216	0.257262
C85	C	-0.353312	0.702640	-0.326201
C86	C	-0.019978	1.035973	0.007132
C87	C	0.313355	1.369307	0.340465
C88	C	-0.356449	0.629153	-0.323317
C89	C	-0.023116	0.962486	0.010017
C90	C	0.310218	1.295819	0.343350
C91	C	-0.313073	0.594366	-0.363470
C92	C	0.020261	0.927699	-0.030136
C93	C	0.353594	1.261033	0.303197
C94	C	-0.275081	0.486196	-0.398660
C95	C	0.058252	0.819530	-0.065326
C96	C	0.391585	1.152863	0.268007
C97	C	-0.316280	0.519252	-0.360511
C98	C	0.017053	0.852585	-0.027178
C99	C	0.350386	1.185918	0.306155
C100	C	-0.591532	1.034646	-0.349789
C101	C	-0.258199	1.367980	-0.016456
C102	C	0.075134	1.701313	0.316878
C103	C	-0.665016	1.031540	-0.352696
C104	C	-0.331682	1.364873	-0.019362
C105	C	0.001651	1.698206	0.313971
C106	C	-0.703682	0.984959	-0.395617
C107	C	-0.370348	1.318292	-0.062284
C108	C	-0.037015	1.651625	0.271050
C109	C	-0.668860	0.941486	-0.435639
C110	C	-0.335527	1.274820	-0.102306
C111	C	-0.002193	1.608153	0.231028
C112	C	-0.595378	0.944597	-0.432735
C113	C	-0.262044	1.277931	-0.099402
C114	C	0.071289	1.611264	0.233931
C115	C	-0.925647	0.973317	-0.406462
C116	C	-0.592314	1.306650	-0.073128
C117	C	-0.258981	1.639984	0.260205
C118	C	-0.999135	0.970208	-0.409361
C119	C	-0.665802	1.303541	-0.076027
C120	C	-0.332468	1.636875	0.257306
C121	C	-0.995285	1.060262	-0.326418
C122	C	-0.661952	1.393596	0.006915
C123	C	-0.328619	1.726929	0.340248
C124	C	-0.921802	1.063366	-0.323515
C125	C	-0.588469	1.396699	0.009818
C126	C	-0.255135	1.730033	0.343151
C127	C	-0.886987	1.019897	-0.363540
C128	C	-0.553653	1.353230	-0.030207
C129	C	-0.220320	1.686563	0.303127
C130	C	-0.778794	0.981780	-0.398587
C131	C	-0.445461	1.315114	-0.065254
C132	C	-0.112127	1.648447	0.268079
C133	C	-0.811876	1.023079	-0.360573
C134	C	-0.478542	1.356412	-0.027239
C135	C	-0.145209	1.689746	0.306094
C136	C	-0.112161	1.010298	-0.372398
C137	C	0.221172	1.343631	-0.039064
C138	C	0.554505	1.676965	0.294269
C139	C	-0.033951	1.013678	-0.369343
C140	C	0.299382	1.347012	-0.036010
C141	C	0.632715	1.680345	0.297323
C142	C	-0.295646	1.002407	-0.556108
C143	C	0.037687	1.335741	-0.222774
C144	C	0.371020	1.669074	0.110559
C145	C	-0.295627	1.002425	-0.631340
C146	C	0.037706	1.335758	-0.298006
C147	C	0.371040	1.669092	0.035327
C148	C	-0.287895	1.185897	-0.386830
C149	C	0.045438	1.519230	-0.053497
C150	C	0.378771	1.852564	0.279837
C151	C	-0.284573	1.264107	-0.389926
C152	C	0.048760	1.597440	-0.056593
C153	C	0.382094	1.930774	0.276741
C154	C	-0.248709	1.049375	-0.666709
C155	C	0.084625	1.382708	-0.333376
C156	C	0.417958	1.716042	-0.000042
C157	C	-0.248688	1.049383	-0.737397
C158	C	0.084645	1.382717	-0.404063
C159	C	0.417979	1.716050	-0.070730
C160	C	-0.295589	1.002444	-0.772715
C161	C	0.037744	1.335777	-0.439381
C162	C	0.371077	1.669111	-0.106048
C163	C	-0.342510	0.955489	-0.737341
C164	C	-0.009176	1.288822	-0.404007
C165	C	0.324157	1.622155	-0.070674
C166	C	-0.342527	0.955478	-0.666654
C167	C	-0.009193	1.288811	-0.333320
C168	C	0.324140	1.622144	0.000013
C169	C	-0.342443	0.955531	-1.022413
C170	C	-0.009109	1.288864	-0.689080
C171	C	0.324224	1.622198	-0.355746
C172	C	-0.342424	0.955547	-1.093105
C173	C	-0.009090	1.288880	-0.759772
C174	C	0.324243	1.622214	-0.426438
C175	C	-0.248604	1.049437	-1.093156
C176	C	0.084730	1.382770	-0.759823
C177	C	0.418063	1.716103	-0.426490
C178	C	-0.248621	1.049426	-1.022469
C179	C	0.084713	1.382759	-0.689136
C180	C	0.418046	1.716092	-0.355803
C181	C	-0.295538	1.002468	-0.987101
C182	C	0.037795	1.335802	-0.653768
C183	C	0.371128	1.669135	-0.320434
C184	C	-0.295559	1.002459	-0.910453
C185	C	0.037774	1.335792	-0.577120
C186	C	0.371107	1.669126	-0.243786
C187	C	-0.295572	1.002456	-0.849362
C188	C	0.037761	1.335789	-0.516028
C189	C	0.371094	1.669123	-0.182695
C190	C	-0.295686	1.002367	-0.203709
C191	C	0.037648	1.335701	0.129624
C192	C	0.370981	1.669034	0.462958
C193	C	-0.295501	1.002495	-0.128475
C194	C	0.037832	1.335828	0.204858
C195	C	0.371165	1.669161	0.538192
H196	H	-0.365818	0.267393	-0.314723
H197	H	-0.032484	0.600726	0.018611
H198	H	0.300849	0.934059	0.351944
H199	H	-0.700348	0.903562	-0.470589
H200	H	-0.367014	1.236896	-0.137256
H201	H	-0.033681	1.570229	0.196077
Br202	Br	-0.406200	0.891753	-0.618651
Br203	Br	-0.072866	1.225086	-0.285318
Br204	Br	0.260467	1.558420	0.048015
Br205	Br	-0.184927	1.113165	-1.141159
Br206	Br	0.148406	1.446499	-0.807826
Br207	Br	0.481739	1.779832	-0.474493
H208	H	-0.202739	0.274478	-0.465665
H209	H	0.130595	0.607811	-0.132332
H210	H	0.463928	0.941144	0.201002
H211	H	-0.225553	0.738056	-0.444456
H212	H	0.107781	1.071389	-0.111123
H213	H	0.441114	1.404722	0.222210
H214	H	-0.237216	0.517712	-0.433709
H215	H	0.096117	0.851046	-0.100376
H216	H	0.429451	1.184379	0.232957
Br217	Br	-0.548125	0.885604	-0.487052
Br218	Br	-0.214792	1.218937	-0.153718
Br219	Br	0.118541	1.552271	0.179615
H220	H	-0.360115	0.400704	-0.319960
H221	H	-0.026782	0.734037	0.013373
H222	H	0.306551	1.067371	0.346706
Br223	Br	-0.412175	0.749854	-0.271709
Br224	Br	-0.078842	1.083188	0.061624
Br225	Br	0.254492	1.416521	0.394957
H226	H	-0.780392	1.061008	-0.325629
H227	H	-0.447058	1.394341	0.007705
H228	H	-0.113725	1.727675	0.341038
Br229	Br	-0.207700	0.585857	-0.461013
Br230	Br	0.125633	0.919190	-0.127680
Br231	Br	0.458967	1.252524	0.205654
Br232	Br	-0.419549	0.576640	-0.264875
Br233	Br	-0.086216	0.909973	0.068459
Br234	Br	0.247117	1.243307	0.401792
Br235	Br	-0.539064	1.097860	-0.291529
Br236	Br	-0.205731	1.431193	0.041804
Br237	Br	0.127602	1.764527	0.375137
H238	H	-0.693360	1.066937	-0.320109
H239	H	-0.360027	1.400271	0.013225
H240	H	-0.026693	1.733604	0.346558
Br241	Br	-0.185058	1.113087	-0.618785
Br242	Br	0.148275	1.446421	-0.285451
Br243	Br	0.481609	1.779754	0.047882
H244	H	-0.354145	0.487741	-0.325462
H245	H	-0.020812	0.821074	0.007872
H246	H	0.312522	1.154408	0.341205
Br247	Br	-0.406081	0.891840	-1.141037
Br248	Br	-0.072748	1.225174	-0.807703
Br249	Br	0.260586	1.558507	-0.474370
H250	H	-0.380656	0.917305	-0.993626
H251	H	-0.047322	1.250639	-0.660292
H252	H	0.286011	1.583972	-0.326959
H253	H	-0.890321	1.101296	-0.288566
H254	H	-0.556988	1.434629	0.044768
H255	H	-0.223655	1.767963	0.378101
Br256	Br	-1.042538	1.119257	-0.272106
Br257	Br	-0.709205	1.452590	0.061228
Br258	Br	-0.375871	1.785923	0.394561
H259	H	-1.030615	0.932284	-0.444325
H260	H	-0.697281	1.265618	-0.110991
H261	H	-0.363948	1.598951	0.222342
H262	H	-0.897307	0.937921	-0.439050
H263	H	-0.563973	1.271254	-0.105717
H264	H	-0.230640	1.604588	0.227617
H265	H	-0.810284	0.943853	-0.433533
H266	H	-0.476951	1.277186	-0.100199
H267	H	-0.143617	1.610519	0.233134
Br268	Br	-0.406159	0.891780	-0.785271
Br269	Br	-0.072825	1.225113	-0.451937
Br270	Br	0.260508	1.558447	-0.118604
H271	H	-0.197047	0.407801	-0.470907
H272	H	0.136286	0.741134	-0.137574
H273	H	0.469619	1.074467	0.195760
H274	H	-0.210431	1.087651	-0.993717
H275	H	0.122902	1.420984	-0.660384
H276	H	0.456236	1.754317	-0.327050
Br277	Br	-0.185042	1.113136	-0.785398
Br278	Br	0.148292	1.446469	-0.452065
Br279	Br	0.481625	1.779802	-0.118731
