data_functionalizedCrystal
_audit_creation_method	'MofGen! by Chris Wilmer'
_symmetry_space_group_name_H-M	'P1'
_symmetry_Int_Tables_number	1
_symmetry_cell_setting	triclinic
loop_
_symmetry_equiv_pos_as_xyz
  x,y,z
_cell_length_a	16.956984
_cell_length_b	15.455313
_cell_length_c	16.109301
_cell_angle_alpha	87.337130
_cell_angle_beta	79.757450
_cell_angle_gamma	92.481874
loop_
_atom_site_label
_atom_site_type_symbol
_atom_site_fract_x
_atom_site_fract_y
_atom_site_fract_z
O1	O	1.061527	0.072136	0.030571
O2	O	0.829362	0.072137	0.059761
O3	O	0.951822	0.072128	-0.076301
O4	O	0.939067	0.072145	0.166633
O5	O	0.944819	-0.072134	-0.068551
O6	O	0.822359	-0.072124	0.067512
O7	O	1.054524	-0.072126	0.038321
Cu8	Cu	0.937802	-0.085297	0.053624
Cu9	Cu	0.946084	0.085309	0.044458
O10	O	0.932064	-0.072116	0.174384
C11	C	0.796152	0.000007	0.065131
C12	C	0.707630	0.000007	0.069575
N13	N	0.931983	-0.205292	0.060070
C14	C	0.675565	-0.000000	-0.004727
C15	C	0.592389	0.000006	-0.000547
C16	C	0.541279	0.000014	0.077937
C17	C	0.573350	0.000023	0.152244
C18	C	0.656524	0.000023	0.148063
C19	C	0.291501	0.000021	0.098633
C20	C	0.208321	0.000019	0.102809
C21	C	0.227366	0.000004	-0.049983
C22	C	0.310542	-0.000002	-0.054157
C23	C	0.342605	0.000012	0.020150
N24	N	0.456259	0.000018	0.082211
N25	N	0.427624	0.000015	0.015874
C26	C	0.984026	-0.250691	0.002285
C27	C	0.979633	-0.341498	0.007167
C28	C	0.923199	-0.386906	0.069838
C29	C	0.871151	-0.341501	0.127626
C30	C	0.875541	-0.250695	0.122740
C31	C	0.904250	-0.658486	0.090907
C32	C	0.899866	-0.749298	0.095791
C33	C	1.008347	-0.749289	-0.024671
C34	C	1.012736	-0.658481	-0.029548
C35	C	0.960684	-0.613084	0.028237
N36	N	0.918709	-0.479726	0.074832
N37	N	0.965171	-0.520266	0.023239
C38	C	1.087734	0.000007	0.032951
C39	C	1.176256	0.000012	0.028507
N40	N	0.951909	0.205304	0.038005
C41	C	0.947803	-0.000004	-0.103365
C42	C	0.946254	-0.000005	-0.195555
C43	C	1.015319	0.000008	-0.422555
C44	C	1.013857	0.000016	-0.509176
C45	C	0.868562	0.000013	-0.479356
C46	C	0.870024	0.000012	-0.392737
C47	C	0.943405	0.000005	-0.364339
C48	C	0.940481	0.000013	-0.537579
C49	C	0.938896	0.000021	-0.631497
C50	C	0.944990	-0.000001	-0.270416
C51	C	0.936082	0.000017	0.201448
C52	C	0.937632	0.000024	0.293637
H53	H	0.717173	-0.000010	-0.068637
F54	F	1.035022	-0.389815	-0.054336
H55	H	0.531730	0.000035	0.216147
F56	F	0.558268	0.000019	-0.079631
H57	H	0.811460	0.000012	-0.345335
H58	H	0.352150	-0.000012	-0.118067
H59	H	0.166708	0.000021	0.166724
F60	F	0.193236	-0.000008	-0.129061
H61	H	0.682630	0.000025	0.208568
F62	F	0.839798	-0.797619	0.162500
H63	H	0.825197	-0.378477	0.178653
H64	H	1.058688	-0.621512	-0.080580
H65	H	1.029984	-0.213726	-0.048746
F66	F	0.848856	-0.610178	0.152408
H67	H	0.833161	-0.213733	0.169794
F68	F	1.093416	0.000002	-0.392335
F69	F	1.063739	-0.797609	-0.086168
F70	F	1.090398	0.000020	-0.571130
H71	H	0.808818	0.000017	-0.502489
H72	H	0.317597	0.000039	0.159139
