data_functionalizedCrystal
_audit_creation_method	'MofGen! by Chris Wilmer'
_symmetry_space_group_name_H-M	'P1'
_symmetry_Int_Tables_number	1
_symmetry_cell_setting	triclinic
loop_
_symmetry_equiv_pos_as_xyz
  x,y,z
_cell_length_a	21.395364
_cell_length_b	17.637651
_cell_length_c	21.395356
_cell_angle_alpha	78.758589
_cell_angle_beta	89.976411
_cell_angle_gamma	101.233403
loop_
_atom_site_label
_atom_site_type_symbol
_atom_site_fract_x
_atom_site_fract_y
_atom_site_fract_z
Zn1	Zn	0.907528	-0.314481	-0.303822
Zn2	Zn	1.407528	0.185519	0.196178
Zn3	Zn	0.886273	-0.446703	-0.177838
Zn4	Zn	1.386273	0.053297	0.322162
Zn5	Zn	0.802736	-0.314537	-0.199050
Zn6	Zn	1.302736	0.185463	0.300950
Zn7	Zn	0.781554	-0.446696	-0.282579
Zn8	Zn	1.281554	0.053304	0.217421
O9	O	0.844523	-0.380604	-0.240823
O10	O	1.344523	0.119396	0.259177
O11	O	0.992390	-0.332000	-0.287123
O12	O	1.492390	0.168000	0.212877
O13	O	0.875161	-0.429197	-0.092970
O14	O	1.375161	0.070803	0.407030
O15	O	0.834396	-0.203885	-0.230716
O16	O	1.334396	0.296115	0.269284
O17	O	0.976774	-0.429143	-0.194563
O18	O	1.476774	0.070857	0.305437
O19	O	0.911387	-0.203844	-0.307692
O20	O	1.411387	0.296156	0.192308
O21	O	0.813787	-0.332095	-0.108554
O22	O	1.313787	0.167905	0.391446
O23	O	0.712245	-0.332089	-0.210118
O24	O	1.212245	0.167911	0.289882
O25	O	0.798296	-0.429131	-0.373080
O26	O	1.298296	0.070869	0.126920
O27	O	0.696683	-0.429185	-0.271486
O28	O	1.196683	0.070815	0.228514
O29	O	0.890848	-0.331993	-0.388687
O30	O	1.390848	0.168007	0.111313
O31	O	0.854622	-0.557346	-0.173965
O32	O	1.354622	-0.057346	0.326035
O33	O	0.777686	-0.557341	-0.250918
O34	O	1.277686	-0.057341	0.249082
C35	C	0.681729	-0.380643	-0.240799
C36	C	1.181729	0.119357	0.259201
C37	C	0.612082	-0.380678	-0.240800
C38	C	1.112082	0.119322	0.259200
C39	C	0.587509	-0.330179	-0.289045
C40	C	1.087509	0.169821	0.210955
C41	C	0.522077	-0.330158	-0.289051
C42	C	1.022077	0.169842	0.210949
C43	C	0.481218	-0.380650	-0.240816
C44	C	0.981218	0.119350	0.259184
C45	C	0.505798	-0.431153	-0.192563
C46	C	1.005798	0.068847	0.307437
C47	C	0.571230	-0.431167	-0.192555
C48	C	1.071230	0.068833	0.307445
C49	C	0.366099	-0.451856	-0.224358
C50	C	0.866099	0.048144	0.275642
C51	C	0.300668	-0.451843	-0.224370
C52	C	0.800668	0.048157	0.275630
C53	C	0.279404	-0.380607	-0.240837
C54	C	0.779404	0.119393	0.259163
C55	C	0.323580	-0.309381	-0.257306
C56	C	0.823580	0.190619	0.242694
C57	C	0.389012	-0.309395	-0.257298
C58	C	0.889012	0.190605	0.242702
C59	C	0.410267	-0.380640	-0.240819
C60	C	0.910267	0.119360	0.259181
C61	C	0.183883	-0.330080	-0.289091
C62	C	0.683883	0.169920	0.210909
C63	C	0.118450	-0.330058	-0.289093
C64	C	0.618450	0.169942	0.210907
C65	C	0.102172	-0.431061	-0.192607
C66	C	0.602172	0.068939	0.307393
C67	C	0.167605	-0.431076	-0.192603
C68	C	0.667605	0.068924	0.307397
C69	C	0.208456	-0.380587	-0.240849
C70	C	0.708456	0.119413	0.259151
C71	C	0.811566	-0.586033	-0.207848
C72	C	1.311566	-0.086033	0.292152
C73	C	0.797524	-0.673916	-0.193762
C74	C	1.297524	-0.173916	0.306238
C75	C	0.951603	-0.962551	-0.348028
C76	C	1.451603	-0.462551	0.151972
C77	C	0.938389	-1.045131	-0.334781
C78	C	1.438389	-0.545131	0.165219
C79	C	0.858272	-1.045281	-0.254549
C80	C	1.358272	-0.545281	0.245451
C81	C	0.871482	-0.962699	-0.267787
C82	C	1.371482	-0.462699	0.232213
C83	C	0.918147	-0.921341	-0.314527
C84	C	1.418147	-0.421341	0.185473
C85	C	0.838026	-0.921489	-0.234286
C86	C	1.338026	-0.421489	0.265714
C87	C	0.851233	-0.838915	-0.247525
C88	C	1.351233	-0.338915	0.252475
C89	C	0.897895	-0.797551	-0.294265
C90	C	1.397895	-0.297551	0.205735
C91	C	0.931354	-0.838767	-0.327766
C92	C	1.431354	-0.338767	0.172234
C93	C	0.791358	-0.962849	-0.187549
C94	C	1.291358	-0.462849	0.312451
C95	C	0.757902	-0.921639	-0.154048
C96	C	1.257902	-0.421639	0.345952
C97	C	0.771111	-0.839064	-0.167284
C98	C	1.271111	-0.339064	0.332716
C99	C	0.817774	-0.797700	-0.214024
C100	C	1.317774	-0.297700	0.285976
C101	C	0.737652	-0.797848	-0.133783
C102	C	1.237652	-0.297848	0.366217
C103	C	0.750859	-0.715274	-0.147022
C104	C	1.250859	-0.215274	0.352978
C105	C	0.830980	-0.715126	-0.227263
C106	C	1.330980	-0.215126	0.272737
C107	C	1.007952	-0.380566	-0.240847
C108	C	1.507952	0.119434	0.259153
C109	C	1.077596	-0.380550	-0.240857
C110	C	1.577596	0.119450	0.259143
C111	C	0.844580	-0.380555	-0.404254
C112	C	1.344580	0.119445	0.095746
C113	C	0.844604	-0.380534	-0.473898
C114	C	1.344604	0.119466	0.026102
C115	C	0.877625	-0.174374	-0.273940
C116	C	1.377625	0.325626	0.226060
C117	C	0.891732	-0.086491	-0.288052
C118	C	1.391732	0.413509	0.211948
C119	C	0.812658	-0.329968	-0.514717
C120	C	1.312658	0.170032	-0.014717
C121	C	0.812658	-0.329953	-0.580155
C122	C	1.312658	0.170047	-0.080155
C123	C	0.844617	-0.380497	-0.604773
C124	C	1.344617	0.119503	-0.104773
C125	C	0.876565	-0.431073	-0.563944
C126	C	1.376565	0.068927	-0.063944
C127	C	0.876558	-0.431092	-0.498507
C128	C	1.376558	0.068908	0.001493
C129	C	0.900077	-0.386694	-0.707465
C130	C	1.400077	0.113306	-0.207465
C131	C	0.900086	-0.386670	-0.772902
C132	C	1.400086	0.113330	-0.272902
C133	C	0.844636	-0.380443	-0.806602
C134	C	1.344636	0.119557	-0.306602
C135	C	0.789179	-0.374224	-0.774860
C136	C	1.289179	0.125776	-0.274860
C137	C	0.789172	-0.374243	-0.709423
C138	C	1.289172	0.125757	-0.209423
C139	C	0.844627	-0.380482	-0.675728
C140	C	1.344627	0.119518	-0.175728
C141	C	0.812687	-0.329858	-0.918377
C142	C	1.312687	0.170142	-0.418377
C143	C	0.812686	-0.329849	-0.983815
C144	C	1.312686	0.170151	-0.483815
C145	C	0.876598	-0.430965	-0.967604
C146	C	1.376598	0.069035	-0.467604
C147	C	0.876593	-0.430978	-0.902166
C148	C	1.376593	0.069022	-0.402166
C149	C	0.844640	-0.380421	-0.877557
C150	C	1.344640	0.119579	-0.377557
C151	C	0.844511	-0.380596	-0.078036
C152	C	1.344511	0.119404	0.421964
C153	C	0.844644	-0.380394	-0.008428
C154	C	1.344644	0.119606	0.491572
H155	H	0.424977	-0.251400	-0.270705
H156	H	0.924977	0.248600	0.229295
O157	O	0.091943	-0.275583	-0.341127
O158	O	0.591943	0.224417	0.158873
H159	H	0.102323	-0.289236	-0.388092
H160	H	0.602323	0.210764	0.111908
H161	H	0.868985	-0.681450	-0.265319
H162	H	1.368985	-0.181450	0.234681
O163	O	0.911025	-0.485630	-0.454483
O164	O	1.411025	0.014370	0.045517
H165	H	0.876524	-0.525877	-0.418198
H166	H	1.376524	-0.025877	0.081802
O167	O	0.912147	-0.708488	-0.308542
O168	O	1.412147	-0.208488	0.191458
H169	H	0.868360	-0.686754	-0.324640
H170	H	1.368360	-0.186754	0.175360
O171	O	0.778190	-0.275442	-0.488178
O172	O	1.278190	0.224558	0.011822
H173	H	0.783555	-0.283944	-0.435818
H174	H	1.283555	0.216056	0.064182
O175	O	0.778230	-0.275301	-1.027843
O176	O	1.278230	0.224699	-0.527843
H177	H	0.740666	-0.310682	-1.051956
H178	H	1.240666	0.189318	-0.551956
O179	O	0.389020	-0.528701	-0.206589
O180	O	0.889020	-0.028701	0.293411
H181	H	0.419014	-0.527386	-0.164349
H182	H	0.919014	-0.027386	0.335651
H183	H	0.969359	-0.805092	-0.365823
H184	H	1.469359	-0.305092	0.134177
H185	H	0.786646	-0.288772	-0.613397
H186	H	1.286646	0.211228	-0.113397
O187	O	0.959898	-0.393371	-0.807138
O188	O	1.459898	0.106629	-0.307138
H189	H	0.998451	-0.397718	-0.772711
H190	H	1.498451	0.102282	-0.272711
H191	H	0.723615	-0.681721	-0.119742
H192	H	1.223615	-0.181721	0.380258
H193	H	0.945236	-0.391758	-0.680033
H194	H	1.445236	0.108242	-0.180033
O195	O	0.058113	-0.485523	-0.140580
O196	O	0.558113	0.014477	0.359420
H197	H	0.008484	-0.477033	-0.148691
H198	H	0.508484	0.022967	0.351309
O199	O	0.300657	-0.232539	-0.275061
O200	O	0.800657	0.267461	0.224939
H201	H	0.270646	-0.233854	-0.317290
H202	H	0.770646	0.266146	0.182710
H203	H	0.989608	-0.928876	-0.386084
H204	H	1.489608	-0.428876	0.113916
O205	O	0.911071	-0.485482	-0.994144
O206	O	1.411071	0.014518	-0.494144
H207	H	0.905712	-0.476971	-1.046506
H208	H	1.405712	0.023029	-0.546506
H209	H	0.965627	-1.078681	-0.362074
H210	H	1.465627	-0.578681	0.137926
H211	H	0.820276	-1.078966	-0.216494
H212	H	1.320276	-0.578966	0.283506
H213	H	0.744028	-0.369149	-0.802298
H214	H	1.244028	0.130851	-0.302298
H215	H	0.719905	-0.955324	-0.115994
H216	H	1.219905	-0.455324	0.384006
H217	H	0.217148	-0.288964	-0.328372
H218	H	0.717148	0.211036	0.171628
O219	O	0.495569	-0.275688	-0.341093
O220	O	0.995569	0.224312	0.158907
H221	H	0.472224	-0.235401	-0.319574
H222	H	0.972224	0.264599	0.180426
H223	H	0.699653	-0.831534	-0.095731
H224	H	1.199653	-0.331534	0.404269
H225	H	0.187611	-0.472201	-0.153319
H226	H	0.687611	0.027799	0.346681
H227	H	0.620767	-0.289066	-0.328330
H228	H	1.120767	0.210934	0.171670
H229	H	0.264705	-0.509840	-0.210964
H230	H	0.764705	-0.009840	0.289036
O231	O	0.911066	-0.485501	-0.858136
O232	O	1.411066	0.014499	-0.358136
H233	H	0.933298	-0.520638	-0.886246
H234	H	1.433298	-0.020638	-0.386246
O235	O	0.911039	-0.485587	-0.590491
O236	O	1.411039	0.014413	-0.090491
H237	H	0.905683	-0.477073	-0.642853
H238	H	1.405683	0.022927	-0.142853
H239	H	0.780601	-1.030086	-0.176777
H240	H	1.280601	-0.530086	0.323223
O241	O	0.729366	-0.367530	-0.675185
O242	O	1.229366	0.132470	-0.175185
H243	H	0.690806	-0.363197	-0.709607
H244	H	1.190806	0.136803	-0.209607
H245	H	0.472527	-0.472264	-0.153290
H246	H	0.972527	0.027736	0.346710
H247	H	0.786668	-0.288692	-0.898339
H248	H	1.286668	0.211308	-0.398339
O249	O	0.597740	-0.485638	-0.140519
O250	O	1.097740	0.014362	0.359481
H251	H	0.558338	-0.520748	-0.106978
H252	H	1.058338	-0.020748	0.393022
