data_functionalizedCrystal
_audit_creation_method	'MofGen! by Chris Wilmer'
_symmetry_space_group_name_H-M	'P1'
_symmetry_Int_Tables_number	1
_symmetry_cell_setting	triclinic
loop_
_symmetry_equiv_pos_as_xyz
  x,y,z
_cell_length_a	10.654550
_cell_length_b	10.654550
_cell_length_c	13.101018
_cell_angle_alpha	93.391548
_cell_angle_beta	93.391684
_cell_angle_gamma	95.515069
loop_
_atom_site_label
_atom_site_type_symbol
_atom_site_fract_x
_atom_site_fract_y
_atom_site_fract_z
O1	O	1.674692	-0.169539	0.085138
O2	O	1.309215	-0.186344	0.085157
O3	O	1.500356	0.004797	0.085140
O4	O	1.483551	-0.360680	0.085154
O5	O	1.486626	-0.008929	-0.085289
O6	O	1.295485	-0.200070	-0.085273
O7	O	1.660962	-0.183265	-0.085291
Zn8	Zn	1.476043	-0.193847	-0.112341
Zn9	Zn	1.494133	-0.175762	0.112206
O10	O	1.469821	-0.374406	-0.085275
C11	C	1.255552	-0.191973	-0.000056
C12	C	1.116109	-0.188280	-0.000049
C13	C	1.036624	-0.300821	-0.000047
C14	C	0.905601	-0.297346	-0.000065
C15	C	0.933563	-0.068778	-0.000082
C16	C	1.064582	-0.072255	-0.000071
C17	C	1.714625	-0.177636	-0.000077
C18	C	1.854068	-0.181328	-0.000077
N19	N	1.463707	-0.206188	-0.265589
C20	C	1.492257	0.044732	-0.000074
C21	C	1.488565	0.184176	-0.000072
C22	C	1.477920	-0.414341	-0.000059
C23	C	1.481612	-0.553784	-0.000054
C24	C	1.601106	0.263661	-0.000077
C25	C	1.597631	0.394683	-0.000065
C26	C	1.369063	0.366721	-0.000045
C27	C	1.372540	0.235702	-0.000051
C28	C	1.523258	-0.146614	-0.525504
C29	C	1.446933	-0.222981	-0.474625
C30	C	1.456268	-0.213635	-0.358306
C31	C	1.513924	-0.155958	-0.641832
N32	N	1.506480	-0.163411	0.265454
H33	H	0.840889	-0.388990	-0.000066
O34	O	0.877979	0.056355	-0.000101
H35	H	0.955265	0.134028	-0.000112
H36	H	1.274599	0.408690	-0.000030
O37	O	1.251146	0.149963	-0.000058
H38	H	1.201266	0.173996	0.069405
O39	O	1.351105	-0.318917	-0.532614
H40	H	1.285693	-0.269428	-0.581516
O41	O	1.619098	-0.050724	-0.467492
H42	H	1.673572	0.003787	-0.522704
H43	H	1.129303	0.019395	-0.000075
O44	O	1.726242	0.208080	-0.000079
H45	H	1.803915	0.285369	-0.000067
H46	H	1.078571	-0.395297	-0.000037
H47	H	1.689273	0.459395	-0.000067
