data_functionalizedCrystal
_audit_creation_method	'MofGen! by Chris Wilmer'
_symmetry_space_group_name_H-M	'P1'
_symmetry_Int_Tables_number	1
_symmetry_cell_setting	triclinic
loop_
_symmetry_equiv_pos_as_xyz
  x,y,z
_cell_length_a	17.639054
_cell_length_b	19.120786
_cell_length_c	17.640968
_cell_angle_alpha	76.872907
_cell_angle_beta	70.330395
_cell_angle_gamma	103.104633
loop_
_atom_site_label
_atom_site_type_symbol
_atom_site_fract_x
_atom_site_fract_y
_atom_site_fract_z
Zn1	Zn	1.360221	0.095061	-0.727099
Zn2	Zn	1.323177	-0.055448	-0.580174
Zn3	Zn	1.190829	0.034205	-0.557684
Zn4	Zn	1.213261	-0.055386	-0.690050
O5	O	1.271872	0.004608	-0.638752
O6	O	1.472198	0.100538	-0.732526
O7	O	1.280729	-0.069049	-0.460306
O8	O	1.219414	0.142760	-0.586250
O9	O	1.444982	-0.010040	-0.624581
O10	O	1.343865	0.187470	-0.710719
O11	O	1.183494	-0.003182	-0.443783
O12	O	1.076913	-0.003121	-0.550326
O13	O	1.257647	-0.009935	-0.811850
O14	O	1.093394	-0.068943	-0.647575
O15	O	1.365617	0.100598	-0.839069
O16	O	1.302481	-0.155922	-0.588656
O17	O	1.221727	-0.155876	-0.669382
C18	C	1.054845	-0.042630	-0.592490
C19	C	0.962004	-0.062851	-0.572718
C20	C	0.816965	-0.148867	-0.488576
C21	C	0.904205	-0.129858	-0.507161
C22	C	0.932578	-0.014828	-0.619718
C23	C	0.845339	-0.033828	-0.601145
C24	C	0.787538	-0.100848	-0.535572
C25	C	0.815913	0.014191	-0.648142
C26	C	0.728681	-0.004806	-0.629567
C27	C	0.670875	-0.071822	-0.563995
C28	C	0.700306	-0.119845	-0.516997
C29	C	0.873714	0.081213	-0.713710
C30	C	0.844288	0.129232	-0.760707
C31	C	0.757055	0.110233	-0.742136
C32	C	0.699249	0.043217	-0.676565
C33	C	0.727623	0.158255	-0.789134
C34	C	0.640391	0.139258	-0.770559
C35	C	0.612017	0.024220	-0.657990
C36	C	1.260545	-0.181944	-0.627462
C37	C	1.255782	-0.261729	-0.622677
C38	C	1.318309	-0.275873	-0.685268
C39	C	1.313830	-0.350840	-0.680772
C40	C	1.246827	-0.411662	-0.613681
C41	C	1.184294	-0.397514	-0.551087
C42	C	1.188770	-0.322549	-0.555587
C43	C	1.230069	-0.639178	-0.596854
C44	C	1.225599	-0.714147	-0.592358
C45	C	1.355135	-0.667467	-0.722044
C46	C	1.359608	-0.592502	-0.726535
C47	C	1.297072	-0.578361	-0.663943
C48	C	1.242249	-0.488291	-0.609083
C49	C	1.301648	-0.501733	-0.668546
C50	C	1.489746	0.052030	-0.685195
C51	C	1.582590	0.072238	-0.704986
C52	C	1.318267	0.052127	-0.856614
C53	C	1.338037	0.072376	-0.949453
C54	C	1.283269	0.191898	-0.650109
C55	C	1.288126	0.271709	-0.654948
C56	C	1.122020	-0.148766	-1.183939
C57	C	1.140616	-0.129725	-1.271180
C58	C	1.253036	-0.014638	-1.299511
C59	C	1.234447	-0.033667	-1.212270
C60	C	1.168939	-0.100732	-1.154490
C61	C	1.281365	0.014367	-1.182821
C62	C	1.262780	-0.004663	-1.095588
C63	C	1.197277	-0.071726	-1.037804
C64	C	1.150354	-0.119762	-1.067257
C65	C	1.346877	0.081429	-1.240603
C66	C	1.393796	0.129463	-1.211155
C67	C	1.375207	0.110436	-1.123919
C68	C	1.309704	0.043373	-1.066135
C69	C	1.422130	0.158471	-1.094466
C70	C	1.403545	0.139442	-1.007233
C71	C	1.291119	0.024343	-0.978902
C72	C	1.225709	-0.042663	-0.421751
C73	C	1.206112	-0.062675	-0.328959
H74	H	0.599843	-0.087280	-0.548861
Br75	Br	0.922737	0.220186	-0.849694
H76	H	1.362008	0.096920	-1.311634
H77	H	1.447134	0.184066	-1.258211
Br78	Br	1.033106	-0.239778	-1.105514
H79	H	1.356199	-0.452210	-0.723173
H80	H	0.564952	-0.030359	-0.604600
H81	H	1.102404	-0.168845	-1.295152
H82	H	0.979651	0.039741	-0.673106
Br83	Br	1.151313	-0.570840	-0.518039
Br84	Br	1.409251	-0.193334	-0.776318
H85	H	1.475472	0.213072	-1.141524
Br86	Br	1.093352	-0.480058	-0.460043
Br87	Br	1.450544	-0.509961	-0.817589
Br88	Br	1.202204	-0.066669	-0.900477
Br89	Br	0.621858	-0.210819	-0.428029
Br90	Br	1.467226	0.204626	-0.967263
H91	H	1.179152	-0.627671	-0.545888
Br92	Br	1.341940	0.076374	-1.377933
H93	H	0.928159	-0.168966	-0.468886
Br94	Br	0.738517	-0.239840	-0.399607
Br95	Br	1.061439	-0.210774	-0.988832
H96	H	0.774696	0.212827	-0.842518
Br97	Br	1.103906	-0.303354	-0.470642
H98	H	0.944743	0.096680	-0.728829
H99	H	1.182150	-0.087221	-0.966774
Br100	Br	0.600449	0.204431	-0.834333
H101	H	1.364751	-0.362350	-0.731735
H102	H	1.171033	-0.763670	-0.537723
Br103	Br	1.439998	-0.686663	-0.806986
