data_functionalizedCrystal
_audit_creation_method	'MofGen! by Chris Wilmer'
_symmetry_space_group_name_H-M	'P1'
_symmetry_Int_Tables_number	1
_symmetry_cell_setting	triclinic
loop_
_symmetry_equiv_pos_as_xyz
  x,y,z
_cell_length_a	17.699083
_cell_length_b	17.699092
_cell_length_c	15.072220
_cell_angle_alpha	89.999035
_cell_angle_beta	90.003658
_cell_angle_gamma	83.284691
loop_
_atom_site_label
_atom_site_type_symbol
_atom_site_fract_x
_atom_site_fract_y
_atom_site_fract_z
O1	O	-1.004077	-0.095709	0.073655
O2	O	-0.783699	-0.108161	0.073683
O3	O	-0.900111	0.008254	0.073666
O4	O	-0.887665	-0.212124	0.073672
O5	O	-0.900105	0.008253	-0.073899
O6	O	-0.783693	-0.108162	-0.073882
O7	O	-1.004071	-0.095709	-0.073910
Zn8	Zn	-0.893881	-0.101936	-0.097325
Zn9	Zn	-0.893888	-0.101935	0.097098
O10	O	-0.887659	-0.212124	-0.073893
C11	C	-0.755499	-0.107715	-0.000095
C12	C	-0.671480	-0.106377	-0.000084
C13	C	-0.899661	0.036450	-0.000115
C14	C	-0.898319	0.120468	-0.000111
C15	C	-0.888109	-0.240321	-0.000110
C16	C	-0.889450	-0.324339	-0.000108
C17	C	-1.032271	-0.096155	-0.000129
C18	C	-1.116289	-0.097494	-0.000135
C19	C	-0.622862	-0.174710	-0.000083
C20	C	-0.543918	-0.173448	-0.000094
C21	C	-0.513595	-0.103851	-0.000101
C22	C	-0.562220	-0.035513	-0.000105
C23	C	-0.641162	-0.036776	-0.000100
C24	C	-0.243857	-0.030418	-0.000127
C25	C	-0.164909	-0.029160	-0.000130
C26	C	-0.146613	-0.167089	-0.000122
C27	C	-0.225555	-0.168352	-0.000116
C28	C	-0.274173	-0.100014	-0.000125
C29	C	-0.359772	-0.101384	-0.000114
C30	C	-0.427998	-0.102481	-0.000106
C31	C	-0.897694	0.159936	0.080328
C32	C	-0.896429	0.238879	0.080329
C33	C	-0.895795	0.278353	-0.000109
C34	C	-0.896418	0.238880	-0.080554
C35	C	-0.897677	0.159938	-0.080554
C36	C	-0.891338	0.557245	-0.080555
C37	C	-0.890080	0.636193	-0.080548
C38	C	-0.890090	0.636186	0.080329
C39	C	-0.891349	0.557244	0.080329
C40	C	-0.891968	0.517777	-0.000116
C41	C	-0.893338	0.432178	-0.000116
C42	C	-0.894430	0.363952	-0.000110
N43	N	-0.893881	-0.101936	-0.230014
N44	N	-0.893894	-0.101929	0.229787
C45	C	-0.893885	-0.101934	0.588989
C46	C	-0.956106	-0.039579	0.551345
C47	C	-0.956329	-0.039737	0.448519
C48	C	-0.893890	-0.101931	0.410785
C49	C	-0.910791	-0.180932	0.448112
C50	C	-0.911235	-0.180568	0.550969
C51	C	-0.814576	-0.085998	0.551090
C52	C	-0.815111	-0.084200	0.448226
C53	C	-0.893891	-0.101934	0.310071
C54	C	-0.893886	-0.101936	0.689702
H55	H	-0.647544	-0.231383	-0.000077
C56	C	-0.895745	0.282294	0.168810
H57	H	-0.894895	0.334962	0.157292
H58	H	-0.940074	0.275210	0.201853
H59	H	-0.851830	0.263501	0.201868
C60	C	-0.694646	0.038388	-0.000101
H61	H	-0.746004	0.027669	-0.000106
H62	H	-0.685466	0.066936	0.051355
H63	H	-0.685472	0.066928	-0.051570
C64	C	-0.752027	-0.147413	0.583994
H65	H	-0.774096	-0.182600	0.620649
H66	H	-0.728014	-0.173432	0.534549
H67	H	-0.715390	-0.124091	0.617107
H68	H	-0.504335	-0.229091	-0.000092
C69	C	-0.093131	-0.242261	-0.000124
H70	H	-0.041773	-0.231545	-0.000138
H71	H	-0.102303	-0.270803	0.051338
H72	H	-0.102318	-0.270804	-0.051587
H73	H	-0.891869	0.525108	0.145830
H74	H	-0.891857	0.525122	-0.146058
H75	H	-0.866662	-0.228451	0.423670
C76	C	-0.898367	0.116523	-0.169037
H77	H	-0.897815	0.151339	-0.216944
H78	H	-0.854739	0.079876	-0.172374
H79	H	-0.942982	0.091581	-0.172387
C80	C	-0.942823	0.039596	0.414420
H81	H	-0.937152	0.072213	0.463431
H82	H	-0.897974	0.035480	0.379286
H83	H	-0.985030	0.060051	0.379520
C84	C	-0.895723	0.282300	-0.169035
H85	H	-0.894892	0.334969	-0.157516
H86	H	-0.851810	0.263513	-0.202084
H87	H	-0.940053	0.275213	-0.202088
H88	H	-0.537525	0.021154	-0.000123
C89	C	-0.989357	-0.199521	0.583371
H90	H	-1.020525	-0.207367	0.533673
H91	H	-0.982785	-0.244385	0.618476
H92	H	-1.012965	-0.158492	0.617941
C93	C	-0.942809	0.040017	0.584759
H94	H	-0.899196	0.035937	0.621973
H95	H	-0.935038	0.071735	0.535544
H96	H	-0.985989	0.061481	0.617395
C97	C	-1.035174	-0.053128	0.586262
H98	H	-1.030432	-0.096624	0.623677
H99	H	-1.056411	-0.009913	0.618986
H100	H	-1.067455	-0.061218	0.537666
C101	C	-0.131556	0.047399	-0.000146
H102	H	-0.171817	0.087919	-0.000160
H103	H	-0.101136	0.050763	0.051311
H104	H	-0.101145	0.050749	-0.051614
H105	H	-0.898215	0.127802	0.145831
C106	C	-0.797775	-0.005685	0.415291
H107	H	-0.750054	0.004718	0.438173
H108	H	-0.796076	-0.005591	0.352298
H109	H	-0.836503	0.032264	0.435103
C110	C	-0.889398	0.679601	0.168818
H111	H	-0.888548	0.732268	0.157302
H112	H	-0.933725	0.672516	0.201863
H113	H	-0.845482	0.660806	0.201873
H114	H	-0.889562	0.668331	-0.146055
C115	C	-1.035841	-0.053506	0.415259
H116	H	-1.068129	-0.059033	0.464610
H117	H	-1.056581	-0.011483	0.380258
H118	H	-1.031866	-0.098515	0.380399
C119	C	-0.852328	-0.245140	0.584616
H120	H	-0.828236	-0.271483	0.535420
H121	H	-0.815234	-0.224303	0.619644
H122	H	-0.877183	-0.279486	0.619529
C123	C	-0.988017	-0.200357	0.413307
H124	H	-1.010059	-0.160430	0.376040
H125	H	-0.980684	-0.246433	0.380454
H126	H	-1.020962	-0.206175	0.461963
H127	H	-0.250239	-0.225025	-0.000107
C128	C	-0.297327	0.044751	-0.000131
H129	H	-0.267959	0.086378	-0.000126
H130	H	-0.328507	0.047128	-0.051589
H131	H	-0.328498	0.047128	0.051336
H132	H	-0.798250	-0.029621	0.577037
H133	H	-0.766665	-0.126670	0.422544
