data_functionalizedCrystal
_audit_creation_method	'MofGen! by Chris Wilmer'
_symmetry_space_group_name_H-M	'P1'
_symmetry_Int_Tables_number	1
_symmetry_cell_setting	triclinic
loop_
_symmetry_equiv_pos_as_xyz
  x,y,z
_cell_length_a	13.897449
_cell_length_b	19.077068
_cell_length_c	19.076919
_cell_angle_alpha	85.529249
_cell_angle_beta	92.282068
_cell_angle_gamma	87.671720
loop_
_atom_site_label
_atom_site_type_symbol
_atom_site_fract_x
_atom_site_fract_y
_atom_site_fract_z
Zn1	Zn	1.435688	0.296659	-0.409828
Zn2	Zn	1.935688	0.796659	0.090172
Zn3	Zn	1.435569	0.409812	-0.296673
Zn4	Zn	1.935569	0.909812	0.203327
Zn5	Zn	1.281141	0.291945	-0.291961
Zn6	Zn	1.781141	0.791945	0.208039
Zn7	Zn	1.267584	0.414512	-0.414519
Zn8	Zn	1.767584	0.914512	0.085481
O9	O	1.354995	0.353232	-0.353245
O10	O	1.854995	0.853232	0.146755
O11	O	1.570653	0.311674	-0.394827
O12	O	2.070653	0.811674	0.105173
O13	O	1.420707	0.390237	-0.197401
O14	O	1.920707	0.890237	0.302599
O15	O	1.307366	0.193921	-0.303661
O16	O	1.807366	0.693921	0.196339
O17	O	1.570565	0.394808	-0.311692
O18	O	2.070565	0.894808	0.188308
O19	O	1.420911	0.197384	-0.390258
O20	O	1.920911	0.697384	0.109742
O21	O	1.307250	0.303641	-0.193939
O22	O	1.807250	0.803641	0.306061
O23	O	1.144362	0.308198	-0.308209
O24	O	1.644362	0.808198	0.191791
O25	O	1.284259	0.402817	-0.512544
O26	O	1.784259	0.902817	-0.012544
O27	O	1.134401	0.398247	-0.398252
O28	O	1.634401	0.898247	0.101748
O29	O	1.407765	0.316231	-0.509098
O30	O	1.907765	0.816231	-0.009098
O31	O	1.407561	0.509085	-0.316241
O32	O	1.907561	1.009085	0.183759
O33	O	1.284144	0.512537	-0.402822
O34	O	1.784144	1.012537	0.097178
C35	C	1.344394	0.536390	-0.360567
C36	C	1.844394	1.036390	0.139433
C37	C	1.339945	0.614747	-0.363723
C38	C	1.839945	1.114747	0.136277
C39	C	1.104382	0.353222	-0.353229
C40	C	1.604382	0.853222	0.146771
C41	C	0.997167	0.353235	-0.353239
C42	C	1.497167	0.853235	0.146761
C43	C	1.344513	0.360574	-0.537114
C44	C	1.844513	0.860574	-0.037114
C45	C	1.340046	0.363703	-0.615468
C46	C	1.840046	0.863703	-0.115468
C47	C	0.800871	0.353238	-0.353258
C48	C	1.300871	0.853238	0.146742
C49	C	0.910104	0.353234	-0.353245
C50	C	1.410104	0.853234	0.146755
C51	C	1.606587	0.353243	-0.353262
C52	C	2.106587	0.853243	0.146738
C53	C	1.713800	0.353247	-0.353269
C54	C	2.213800	0.853247	0.146731
C55	C	1.365664	0.169359	-0.345910
C56	C	1.865664	0.669359	0.154090
C57	C	1.370210	0.091003	-0.342785
C58	C	1.870210	0.591003	0.157215
C59	C	1.402158	0.649740	-0.320165
C60	C	1.902158	1.149740	0.179835
C61	C	1.397979	0.723365	-0.323137
C62	C	1.897979	1.223365	0.176863
C63	C	1.331583	0.761996	-0.369665
C64	C	1.831583	1.261996	0.130335
C65	C	1.269367	0.726998	-0.413227
C66	C	1.769367	1.226998	0.086773
C67	C	1.273551	0.653375	-0.410258
C68	C	1.773551	1.153375	0.089742
C69	C	1.312178	0.982382	-0.383378
C70	C	1.812178	1.482382	0.116622
C71	C	1.307997	1.056010	-0.386343
C72	C	1.807997	1.556010	0.113657
C73	C	1.436611	1.052372	-0.296253
C74	C	1.936611	1.552372	0.203747
C75	C	1.440785	0.978747	-0.293285
C76	C	1.940785	1.478747	0.206715
C77	C	1.378573	0.943756	-0.336850
C78	C	1.878573	1.443756	0.163150
N79	N	1.327308	0.837252	-0.372702
N80	N	1.827308	1.337252	0.127298
N81	N	1.382853	0.868501	-0.333816
N82	N	1.882853	1.368501	0.166184
C83	C	1.402247	0.320094	-0.650486
C84	C	1.902247	0.820094	-0.150486
C85	C	1.398038	0.323032	-0.724108
C86	C	1.898038	0.823032	-0.224108
C87	C	1.331633	0.369582	-0.762710
C88	C	1.831633	0.869582	-0.262710
C89	C	1.269425	0.413192	-0.727688
C90	C	1.769425	0.913192	-0.227688
C91	C	1.273630	0.410251	-0.654067
C92	C	1.773630	0.910251	-0.154067
C93	C	1.312158	0.383209	-0.983085
C94	C	1.812158	0.883209	-0.483085
C95	C	1.307960	0.386148	-1.056710
C96	C	1.807960	0.886148	-0.556710
C97	C	1.436572	0.295987	-1.053125
C98	C	1.936572	0.795987	-0.553125
C99	C	1.440775	0.293053	-0.979504
C100	C	1.940775	0.793053	-0.479504
C101	C	1.378564	0.336660	-0.944487
C102	C	1.878564	0.836660	-0.444487
N103	N	1.327331	0.372587	-0.837964
N104	N	1.827331	0.872587	-0.337964
N105	N	1.382861	0.333651	-0.869235
N106	N	1.882861	0.833651	-0.369235
C107	C	1.365495	0.345867	-0.170090
C108	C	1.865495	0.845867	0.329910
C109	C	1.370160	0.342540	-0.091728
C110	C	1.870160	0.842540	0.408272
H111	H	1.456221	0.618291	-0.282274
H112	H	1.956221	1.118291	0.217726
H113	H	1.253881	0.424057	-1.088139
H114	H	1.753881	0.924057	-0.588139
C115	C	1.475298	0.268885	-0.608029
C116	C	1.975298	0.768885	-0.108029
N117	N	1.530319	0.230309	-0.576053
N118	N	2.030319	0.730309	-0.076053
H119	H	1.448691	0.287523	-0.752616
H120	H	1.948691	0.787523	-0.252616
C121	C	1.466413	0.761853	-0.275215
C122	C	1.966413	1.261853	0.224785
N123	N	1.517959	0.790842	-0.239117
N124	N	2.017959	1.290842	0.260883
H125	H	1.222970	0.445755	-0.625556
H126	H	1.722970	0.945755	-0.125556
H127	H	1.494851	0.947296	-0.255399
H128	H	1.994851	1.447296	0.244601
H129	H	1.222892	0.624884	-0.445729
H130	H	1.722892	1.124884	0.054271
C131	C	1.513817	0.241837	-0.937046
C132	C	2.013817	0.741837	-0.437046
N133	N	1.568832	0.203260	-0.905066
N134	N	2.068832	0.703260	-0.405066
H135	H	1.487219	0.260483	-1.081644
H136	H	1.987219	0.760483	-0.581644
C137	C	1.505043	1.090869	-0.248337
C138	C	2.005043	1.590869	0.251663
N139	N	1.556590	1.119864	-0.212245
N140	N	2.056590	1.619864	0.287755
C141	C	1.196369	0.464391	-0.770153
C142	C	1.696369	0.964391	-0.270153
N143	N	1.141341	0.502955	-0.802137
N144	N	1.641341	1.002955	-0.302137
H145	H	1.215309	0.758457	-0.451114
H146	H	1.715309	1.258457	0.048886
H147	H	1.261515	0.418728	-0.954584
H148	H	1.761515	0.918728	-0.454584
H149	H	1.253940	1.087462	-0.424243
H150	H	1.753940	1.587462	0.075757
C151	C	1.243790	0.943903	-0.431338
C152	C	1.743790	1.443903	0.068662
N153	N	1.192293	0.914918	-0.467477
N154	N	1.692293	1.414918	0.032523
