data_functionalizedCrystal
_audit_creation_method	'MofGen! by Chris Wilmer'
_symmetry_space_group_name_H-M	'P1'
_symmetry_Int_Tables_number	1
_symmetry_cell_setting	triclinic
loop_
_symmetry_equiv_pos_as_xyz
  x,y,z
_cell_length_a	16.974800
_cell_length_b	11.792254
_cell_length_c	15.455313
_cell_angle_alpha	92.683372
_cell_angle_beta	90.973911
_cell_angle_gamma	83.793472
loop_
_atom_site_label
_atom_site_type_symbol
_atom_site_fract_x
_atom_site_fract_y
_atom_site_fract_z
O1	O	1.049697	0.144683	0.001582
O2	O	1.549697	0.644683	0.501582
O3	O	0.820339	0.162015	-0.014526
O4	O	1.320339	0.662015	0.485474
O5	O	0.940579	-0.011852	-0.006075
O6	O	1.440579	0.488148	0.493925
O7	O	0.929458	0.318550	-0.006869
O8	O	1.429458	0.818550	0.493131
O9	O	0.933703	-0.001950	0.137704
O10	O	1.433703	0.498050	0.637704
O11	O	0.813463	0.171917	0.129253
O12	O	1.313463	0.671917	0.629253
O13	O	1.042821	0.154584	0.145361
O14	O	1.542821	0.654584	0.645361
Cu15	Cu	0.927514	0.164155	0.150435
Cu16	Cu	1.427514	0.664155	0.650435
Cu17	Cu	0.935646	0.152445	-0.019600
Cu18	Cu	1.435646	0.652445	0.480400
O19	O	0.922582	0.328451	0.136910
O20	O	1.422582	0.828451	0.636910
C21	C	0.787538	0.166126	0.055301
C22	C	1.287538	0.666126	0.555301
C23	C	0.700046	0.163607	0.049157
C24	C	1.200046	0.663607	0.549157
C25	C	0.655198	0.167818	0.124646
C26	C	1.155198	0.667818	0.624646
C27	C	0.572991	0.165434	0.118875
C28	C	1.072991	0.665434	0.618875
C29	C	0.535633	0.158846	0.037614
C30	C	1.035633	0.658846	0.537614
C31	C	0.580487	0.154631	-0.037881
C32	C	1.080487	0.654631	0.462119
C33	C	0.662693	0.157008	-0.032109
C34	C	1.162693	0.657008	0.467891
C35	C	0.290175	0.151153	0.011948
C36	C	0.790175	0.651153	0.511948
C37	C	0.207963	0.148781	0.006181
C38	C	0.707963	0.648781	0.506181
C39	C	0.200473	0.159581	0.162938
C40	C	0.700473	0.659581	0.662938
C41	C	0.282681	0.161964	0.168703
C42	C	0.782681	0.661964	0.668703
C43	C	0.327528	0.157743	0.093208
C44	C	0.827528	0.657743	0.593208
N45	N	0.451604	0.156413	0.031713
N46	N	0.951604	0.656413	0.531713
N47	N	0.411556	0.160168	0.099110
N48	N	0.911556	0.660168	0.599110
C49	C	0.936440	-0.049188	0.065765
C50	C	1.436440	0.450812	0.565765
C51	C	0.934343	-0.175189	0.065617
C52	C	1.434343	0.324811	0.565617
C53	C	0.932640	-0.277516	0.065494
C54	C	1.432640	0.222484	0.565494
C55	C	0.930510	-0.405891	0.065336
C56	C	1.430510	0.094109	0.565336
C57	C	1.075622	0.150474	0.075532
C58	C	1.575622	0.650474	0.575532
C59	C	1.163115	0.152992	0.081671
C60	C	1.663115	0.652992	0.581671
C61	C	0.926720	0.365787	0.065068
C62	C	1.426720	0.865787	0.565068
C63	C	0.928818	0.491788	0.065211
C64	C	1.428818	0.991788	0.565211
N65	N	0.921801	0.172390	0.270029
N66	N	1.421801	0.672390	0.770029
N67	N	0.941366	0.144201	-0.139194
N68	N	1.441366	0.644201	0.360806
C69	C	0.972901	0.098552	0.319015
C70	C	1.472901	0.598552	0.819015
C71	C	0.968587	0.104791	0.409519
C72	C	1.468587	0.604791	0.909519
C73	C	0.913177	0.184873	0.451037
C74	C	1.413177	0.684873	0.951037
C75	C	0.862071	0.258714	0.402045
C76	C	1.362071	0.758714	0.902045
C77	C	0.866382	0.252469	0.311541
C78	C	1.366382	0.752469	0.811541
C79	C	0.894571	0.211797	0.721311
C80	C	1.394571	0.711797	1.221311
C81	C	0.890266	0.218038	0.811821
C82	C	1.390266	0.718038	1.311821
C83	C	0.996781	0.064113	0.819289
C84	C	1.496781	0.564113	1.319289
C85	C	1.001090	0.057880	0.728784
C86	C	1.501090	0.557880	1.228784
C87	C	0.949982	0.131717	0.679799
C88	C	1.449982	0.631717	1.179799
N89	N	0.908768	0.191254	0.543547
N90	N	1.408768	0.691254	1.043547
N91	N	0.954388	0.125330	0.587290
N92	N	1.454388	0.625330	1.087290
H93	H	0.326680	0.147712	-0.049526
H94	H	0.826680	0.647712	0.450474
C95	C	0.801112	0.346795	0.447717
C96	C	1.301112	0.846795	0.947717
N97	N	0.755195	0.413139	0.482116
N98	N	1.255195	0.913139	0.982116
H99	H	0.163950	0.163016	0.224401
H100	H	0.663950	0.663016	0.724401
C101	C	1.024782	0.023536	0.463398
C102	C	1.524782	0.523536	0.963398
N103	N	1.067104	-0.037680	0.503979
N104	N	1.567104	0.462320	1.003979
H105	H	0.685608	0.173192	0.190817
H106	H	1.185608	0.673192	0.690817
C107	C	0.523660	0.170093	0.201919
C108	C	1.023660	0.670093	0.701919
N109	N	0.486503	0.173612	0.264472
N110	N	0.986503	0.673612	0.764472
H111	H	1.038390	0.003997	0.859180
H112	H	1.538390	0.503997	1.359180
C113	C	0.323769	0.169205	0.258096
C114	C	0.823769	0.669205	0.758096
N115	N	0.354717	0.174660	0.325428
N116	N	0.854717	0.674660	0.825428
H117	H	0.550063	0.149259	-0.104045
H118	H	1.050063	0.649259	0.395955
C119	C	0.166870	0.141532	-0.083216
C120	C	0.666870	0.641532	0.416784
N121	N	0.135919	0.136075	-0.150546
N122	N	0.635919	0.636075	0.349454
H123	H	0.699207	0.153580	-0.093580
H124	H	1.199207	0.653580	0.406420
C125	C	1.033857	0.010454	0.273354
C126	C	1.533857	0.510454	0.773354
N127	N	1.079768	-0.055908	0.238964
N128	N	1.579768	0.444092	0.738964
H129	H	1.046209	-0.007329	0.694982
H130	H	1.546209	0.492671	1.194982
H131	H	0.824770	0.312594	0.271658
H132	H	1.324770	0.812594	0.771658
C133	C	0.829305	0.306135	0.857488
C134	C	1.329305	0.806135	1.357488
N135	N	0.783392	0.372487	0.891885
N136	N	1.283392	0.872487	1.391885
H137	H	0.852958	0.271920	0.681435
H138	H	1.352958	0.771920	1.181435
