data_functionalizedCrystal
_audit_creation_method	'MofGen! by Chris Wilmer'
_symmetry_space_group_name_H-M	'P1'
_symmetry_Int_Tables_number	1
_symmetry_cell_setting	triclinic
loop_
_symmetry_equiv_pos_as_xyz
  x,y,z
_cell_length_a	27.731994
_cell_length_b	14.044220
_cell_length_c	12.503572
_cell_angle_alpha	86.156832
_cell_angle_beta	86.517947
_cell_angle_gamma	92.095294
loop_
_atom_site_label
_atom_site_type_symbol
_atom_site_fract_x
_atom_site_fract_y
_atom_site_fract_z
O1	O	0.648767	-0.106955	-0.089169
O2	O	1.148767	0.393045	0.410831
O3	O	0.508778	-0.124144	-0.089205
O4	O	1.008778	0.375856	0.410795
O5	O	0.576671	0.022403	-0.089177
O6	O	1.076671	0.522403	0.410823
O7	O	0.580874	-0.253502	-0.089197
O8	O	1.080874	0.246498	0.410803
O9	O	0.571566	0.011364	0.089463
O10	O	1.071566	0.511364	0.589463
O11	O	0.503673	-0.135184	0.089435
O12	O	1.003673	0.364816	0.589435
O13	O	0.643662	-0.117994	0.089471
O14	O	1.143662	0.382006	0.589471
Cu15	Cu	0.573201	-0.127597	0.105764
Cu16	Cu	1.073201	0.372403	0.605764
Cu17	Cu	0.579239	-0.114542	-0.105498
Cu18	Cu	1.079239	0.385458	0.394502
O19	O	0.575769	-0.264541	0.089443
O20	O	1.075769	0.235459	0.589443
C21	C	0.488202	-0.129311	0.000111
C22	C	0.988202	0.370689	0.500111
C23	C	0.434496	-0.128247	0.000097
C24	C	0.934496	0.371753	0.500097
N25	N	0.568958	-0.136779	0.254355
N26	N	1.068958	0.363221	0.754355
C27	C	0.572279	0.052170	0.000143
C28	C	1.072279	0.552170	0.500143
C29	C	0.566792	0.157313	0.000143
C30	C	1.066792	0.657313	0.500143
C31	C	0.098679	-0.127574	0.097516
C32	C	0.598679	0.372426	0.597516
C33	C	-0.103169	-0.123534	0.097528
C34	C	0.396831	0.376466	0.597528
O35	O	-0.131635	-0.128089	0.180343
O36	O	0.368365	0.371911	0.680343
N37	N	-0.125624	-0.117015	0.000152
N38	N	0.374376	0.382985	0.500152
C39	C	-0.097615	-0.111499	-0.097235
C40	C	0.402385	0.388501	0.402765
O41	O	-0.121346	-0.105852	-0.180059
O42	O	0.378654	0.394148	0.319941
C43	C	0.104233	-0.115532	-0.097246
C44	C	0.604233	0.384468	0.402754
C45	C	0.126685	-0.122061	0.000137
C46	C	0.626685	0.377939	0.500137
C47	C	0.121132	-0.134101	0.194891
C48	C	0.621132	0.365899	0.694891
C49	C	0.171591	-0.135116	0.194887
C50	C	0.671591	0.364884	0.694887
C51	C	0.199597	-0.129603	0.097508
C52	C	0.699597	0.370397	0.597508
C53	C	0.177144	-0.123076	0.000133
C54	C	0.677144	0.376924	0.500133
C55	C	0.132242	-0.110009	-0.194631
C56	C	0.632242	0.389991	0.305369
C57	C	0.182707	-0.111015	-0.194626
C58	C	0.682707	0.388985	0.305374
C59	C	0.205159	-0.117544	-0.097243
C60	C	0.705159	0.382456	0.402757
C61	C	0.255609	-0.118578	-0.097250
C62	C	0.755609	0.381422	0.402750
N63	N	0.278065	-0.125097	0.000126
N64	N	0.778065	0.374903	0.500126
C65	C	0.250059	-0.130610	0.097505
C66	C	0.750059	0.369390	0.597505
C67	C	-0.203588	-0.109384	-0.097222
C68	C	0.296412	0.390616	0.402778
C69	C	-0.254049	-0.108378	-0.097219
C70	C	0.245951	0.391622	0.402781
C71	C	-0.259600	-0.120411	0.097544
C72	C	0.240400	0.379589	0.597544
C73	C	-0.209138	-0.121425	0.097540
C74	C	0.290862	0.378575	0.597540
C75	C	-0.181132	-0.115904	0.000155
C76	C	0.318868	0.384096	0.500155
C77	C	0.356026	-0.132742	0.097489
C78	C	0.856026	0.367258	0.597489
C79	C	0.406490	-0.133760	0.097476
C80	C	0.906490	0.366240	0.597476
C81	C	0.412036	-0.121721	-0.097286
C82	C	0.912036	0.378279	0.402714
C83	C	0.361577	-0.120708	-0.097274
C84	C	0.861577	0.379292	0.402726
C85	C	0.333573	-0.126215	0.000122
C86	C	0.833573	0.373785	0.500122
O87	O	0.284105	-0.114016	-0.180022
O88	O	0.784105	0.385984	0.319978
O89	O	0.273799	-0.136236	0.180317
O90	O	0.773799	0.363764	0.680317
C91	C	0.048220	-0.126559	0.097520
C92	C	0.548220	0.373441	0.597520
C93	C	0.025767	-0.120031	0.000145
C94	C	0.525767	0.379969	0.500145
C95	C	0.053774	-0.114518	-0.097234
C96	C	0.553774	0.385482	0.402766
C97	C	-0.024694	-0.119025	0.000148
C98	C	0.475306	0.380975	0.500148
C99	C	-0.052700	-0.124537	0.097527
C100	C	0.447300	0.375463	0.597527
C101	C	-0.030245	-0.131057	0.194903
C102	C	0.469755	0.368943	0.694903
C103	C	0.020214	-0.132072	0.194899
C104	C	0.520214	0.367928	0.694899
C105	C	0.031318	-0.107999	-0.194610
C106	C	0.531318	0.392001	0.305390
C107	C	-0.019141	-0.106986	-0.194598
C108	C	0.480859	0.393014	0.305402
C109	C	-0.047147	-0.112499	-0.097219
C110	C	0.452853	0.387501	0.402781
C111	C	0.664239	-0.112828	0.000153
C112	C	1.164239	0.387172	0.500153
C113	C	0.717945	-0.113891	0.000160
C114	C	1.217945	0.386109	0.500160
C115	C	0.580161	-0.294308	0.000121
C116	C	1.080161	0.205692	0.500121
C117	C	0.585649	-0.399451	0.000114
C118	C	1.085649	0.100549	0.500114
C119	C	0.556761	0.349825	0.000125
C120	C	1.056761	0.849825	0.500125
C121	C	0.595678	0.408043	0.000132
C122	C	1.095678	0.908043	0.500132
C123	C	0.590096	0.515163	0.000122
C124	C	1.090096	1.015163	0.500122
C125	C	0.562341	0.242695	0.000135
C126	C	1.062341	0.742695	0.500135
N127	N	0.583485	-0.105352	-0.254088
N128	N	1.083485	0.394648	0.245912
C129	C	0.562717	-0.150293	0.473468
C130	C	1.062717	0.349707	0.973468
C131	C	0.589725	-0.091841	0.526806
C132	C	1.089725	0.408159	1.026806
C133	C	0.586252	-0.099360	0.648728
C134	C	1.086252	0.400640	1.148728
C135	C	0.566189	-0.142775	0.351535
C136	C	1.066189	0.357225	0.851535
H137	H	0.424768	-0.139080	0.176781
H138	H	0.924768	0.360920	0.676781
H139	H	0.536989	-0.205980	0.519364
H140	H	1.036989	0.294020	1.019364
H141	H	0.615456	-0.036151	0.480904
H142	H	1.115456	0.463849	0.980904
Br143	Br	0.318029	-0.140213	0.229671
Br144	Br	0.818029	0.359787	0.729671
H145	H	0.189867	-0.140427	0.274186
H146	H	0.689867	0.359573	0.774186
H147	H	-0.037417	-0.101676	-0.273905
H148	H	0.462583	0.398324	0.226095
Br149	Br	0.331104	-0.111866	-0.229437
Br150	Br	0.831104	0.388134	0.270563
H151	H	0.098334	-0.138589	0.274193
H152	H	0.598334	0.361411	0.774193
Br153	Br	-0.068263	-0.138545	0.327059
Br154	Br	0.431737	0.361455	0.827059
Br155	Br	-0.178672	-0.130286	0.229707
Br156	Br	0.321328	0.369714	0.729707
Br157	Br	-0.297618	-0.127893	0.229701
Br158	Br	0.202382	0.372107	0.729701
Br159	Br	0.658197	0.357033	0.000157
Br160	Br	1.158197	0.857033	0.500157
Br161	Br	-0.284515	-0.099540	-0.229387
Br162	Br	0.215485	0.400460	0.270613
Br163	Br	0.494245	0.400838	0.000100
Br164	Br	0.994245	0.900838	0.500100
H165	H	0.113970	-0.104691	-0.273931
H166	H	0.613970	0.395309	0.226069
Br167	Br	-0.165587	-0.101891	-0.229402
Br168	Br	0.334413	0.398109	0.270598
H169	H	0.205507	-0.106519	-0.273931
H170	H	0.705507	0.393481	0.226069
H171	H	0.434848	-0.117237	-0.176570
H172	H	0.934848	0.382763	0.323430
H173	H	0.054116	-0.103507	-0.273910
H174	H	0.554116	0.396493	0.226090
Br175	Br	0.050677	-0.140935	0.327069
Br176	Br	0.550677	0.359065	0.827069
