data_functionalizedCrystal
_audit_creation_method	'MofGen! by Chris Wilmer'
_symmetry_space_group_name_H-M	'P1'
_symmetry_Int_Tables_number	1
_symmetry_cell_setting	triclinic
loop_
_symmetry_equiv_pos_as_xyz
  x,y,z
_cell_length_a	26.455835
_cell_length_b	26.455273
_cell_length_c	26.451828
_cell_angle_alpha	60.005170
_cell_angle_beta	60.010757
_cell_angle_gamma	59.993435
loop_
_atom_site_label
_atom_site_type_symbol
_atom_site_fract_x
_atom_site_fract_y
_atom_site_fract_z
O1	O	0.069940	-0.738516	0.617604
O2	O	0.569940	-0.238516	1.117604
O3	O	0.026299	-0.574986	0.497618
O4	O	0.526299	-0.074986	0.997618
O5	O	0.129847	-0.678463	0.497546
O6	O	0.629847	-0.178463	0.997546
O7	O	-0.033607	-0.635040	0.617676
O8	O	0.466393	-0.135040	1.117676
O9	O	0.164197	-0.644116	0.531822
O10	O	0.664197	-0.144116	1.031822
O11	O	0.060649	-0.540639	0.531894
O12	O	0.560649	-0.040639	1.031894
O13	O	0.104290	-0.704170	0.651880
O14	O	0.604290	-0.204170	1.151880
Cu15	Cu	0.085606	-0.619268	0.595016
Cu16	Cu	0.585606	-0.119268	1.095016
Cu17	Cu	0.044984	-0.659887	0.554481
Cu18	Cu	0.544984	-0.159887	1.054481
O19	O	0.000742	-0.600693	0.651952
O20	O	0.500742	-0.100693	1.151952
N21	N	0.114179	-0.590703	0.623530
N22	N	0.614179	-0.090703	1.123530
N23	N	0.016416	-0.688458	0.525968
N24	N	0.516416	-0.188458	1.025968
C25	C	0.157553	-0.547535	0.933368
C26	C	0.657553	-0.047535	1.433368
C27	C	0.424104	-0.547506	0.666656
C28	C	0.924104	-0.047506	1.166656
C29	C	0.157413	-0.547503	0.666729
C30	C	0.657413	-0.047503	1.166729
C31	C	0.157397	-0.280846	0.666749
C32	C	0.657397	0.219154	1.166749
C33	C	0.200330	-0.409550	0.709625
C34	C	0.700330	0.090450	1.209625
C35	C	0.200339	-0.504608	0.709615
C36	C	0.700339	-0.004608	1.209615
C37	C	0.224118	-0.480848	0.733375
C38	C	0.724118	0.019152	1.233375
C39	C	0.327800	-0.462984	0.678792
C40	C	0.827800	0.037016	1.178792
C41	C	0.392611	-0.484588	0.657175
C42	C	0.892611	0.015412	1.157175
C43	C	0.392630	-0.589450	0.697162
C44	C	0.892630	-0.089450	1.197162
C45	C	0.327821	-0.567844	0.718781
C46	C	0.827821	-0.067844	1.218781
C47	C	0.215955	-0.377135	0.645910
C48	C	0.715955	0.122865	1.145910
C49	C	0.194327	-0.312320	0.624323
C50	C	0.694327	0.187680	1.124323
C51	C	0.141457	-0.312339	0.730169
C52	C	0.641457	0.187661	1.230169
C53	C	0.163084	-0.377154	0.751756
C54	C	0.663084	0.122846	1.251756
C55	C	0.136618	-0.488954	0.725292
C56	C	0.636618	0.011046	1.225292
C57	C	0.115007	-0.510553	0.703686
C58	C	0.615007	-0.010553	1.203686
C59	C	0.220833	-0.563461	0.650740
C60	C	0.720833	-0.063461	1.150740
C61	C	0.242447	-0.541861	0.672339
C62	C	0.742447	-0.041861	1.172339
C63	C	0.136680	-0.488971	0.837094
C64	C	0.636680	0.011029	1.337094
C65	C	0.115112	-0.510589	0.901907
C66	C	0.615112	-0.010589	1.401907
C67	C	0.220969	-0.563508	0.901868
C68	C	0.720969	-0.063508	1.401868
C69	C	0.242535	-0.541892	0.837053
C70	C	0.742535	-0.041892	1.337053
C71	C	0.200389	-0.504622	0.804668
C72	C	0.700389	-0.004622	1.304668
C73	C	0.295409	-0.504610	0.709593
C74	C	0.795409	-0.004610	1.209593
C75	C	0.132990	-0.570876	1.004655
C76	C	0.632990	-0.070876	1.504655
C77	C	0.495389	-0.570440	0.642547
C78	C	0.995389	-0.070440	1.142547
C79	C	0.132802	-0.570856	0.643399
C80	C	0.632802	-0.070856	1.143399
C81	C	0.133212	-0.209553	0.643833
C82	C	0.633212	0.290447	1.143833
C83	C	-0.097217	-0.706972	0.506986
C84	C	0.402783	-0.206972	1.006986
C85	C	-0.002040	-0.707108	0.412067
C86	C	0.497960	-0.207108	0.912067
C87	C	-0.002230	-0.802124	0.507163
C88	C	0.497770	-0.302124	1.007163
C89	C	-0.002214	-0.707101	0.507221
C90	C	0.497786	-0.207101	1.007221
C91	C	-0.025925	-0.730827	0.483360
C92	C	0.474075	-0.230827	0.983360
N93	N	0.553723	-0.590712	0.623415
N94	N	1.053723	-0.090712	1.123415
O95	O	0.751638	-0.596429	0.475603
O96	O	1.251638	-0.096429	0.975603
O97	O	0.751819	-0.716773	0.638980
O98	O	1.251819	-0.216773	1.138980
O99	O	0.751753	-0.716500	0.535361
O100	O	1.251753	-0.216500	1.035361
O101	O	0.751705	-0.596703	0.579222
O102	O	1.251705	-0.096703	1.079222
O103	O	0.648791	-0.682239	0.569747
O104	O	1.148791	-0.182239	1.069747
O105	O	0.648858	-0.682512	0.673366
O106	O	1.148858	-0.182512	1.173366
O107	O	0.648676	-0.562169	0.509989
O108	O	1.148676	-0.062169	1.009989
Cu109	Cu	0.639366	-0.619212	0.594817
Cu110	Cu	1.139366	-0.119212	1.094817
Cu111	Cu	0.761130	-0.659729	0.554152
Cu112	Cu	1.261130	-0.159729	1.054152
O113	O	0.648743	-0.562442	0.613609
O114	O	1.148743	-0.062442	1.113609
N115	N	0.846773	-0.688230	0.525548
N116	N	1.346773	-0.188230	1.025548
N117	N	0.114157	-0.151217	0.623565
N118	N	0.614157	0.348783	1.123565
O119	O	-0.033591	0.046803	0.617717
O120	O	0.466409	0.546803	1.117717
O121	O	0.129795	0.046806	0.497390
O122	O	0.629795	0.546806	0.997390
O123	O	0.026157	0.046789	0.497680
O124	O	0.526157	0.546789	0.997680
O125	O	0.070046	0.046819	0.617427
O126	O	0.570046	0.546819	1.117427
O127	O	0.060509	-0.056181	0.532004
O128	O	0.560509	0.443819	1.032004
O129	O	0.164146	-0.056164	0.531714
O130	O	0.664146	0.443836	1.031714
O131	O	0.000760	-0.056167	0.652041
O132	O	0.500760	0.443833	1.152041
Cu133	Cu	0.085590	-0.065568	0.595012
Cu134	Cu	0.585590	0.434432	1.095012
Cu135	Cu	0.044965	0.056206	0.554419
Cu136	Cu	0.544965	0.556206	1.054419
O137	O	0.104397	-0.056151	0.651751
O138	O	0.604397	0.443849	1.151751
N139	N	0.016390	0.141855	0.525867
N140	N	0.516390	0.641855	1.025867
N141	N	0.114410	-0.590756	1.062992
N142	N	0.614410	-0.090756	1.562992
O143	O	0.108565	-0.738494	1.260998
O144	O	0.608565	-0.238494	1.760998
O145	O	-0.011747	-0.575059	1.261012
O146	O	0.488253	-0.075059	1.761012
O147	O	-0.011470	-0.678679	1.260970
O148	O	0.488530	-0.178679	1.760970
O149	O	0.108287	-0.634874	1.261040
O150	O	0.608287	-0.134874	1.761040
O151	O	0.022849	-0.644347	1.158004
O152	O	0.522849	-0.144347	1.658004
O153	O	0.022572	-0.540726	1.158046
O154	O	0.522572	-0.040726	1.658046
O155	O	0.142884	-0.704162	1.158033
O156	O	0.642884	-0.204162	1.658033
Cu157	Cu	0.085861	-0.619309	1.148638
Cu158	Cu	0.585861	-0.119309	1.648638
Cu159	Cu	0.045275	-0.659911	1.270406
Cu160	Cu	0.545275	-0.159911	1.770406
O161	O	0.142606	-0.600541	1.158074
O162	O	0.642606	-0.100541	1.658074
N163	N	0.016726	-0.688471	1.356052
N164	N	0.516726	-0.188471	1.856052
C165	C	0.039385	-0.537207	0.498225
C166	C	0.539385	-0.037207	0.998225
C167	C	0.167616	-0.665350	0.498136
C168	C	0.667616	-0.165350	0.998136
C169	C	0.091204	-0.741950	0.651272
C170	C	0.591204	-0.241950	1.151272
C171	C	-0.037027	-0.613806	0.651361
C172	C	0.462973	-0.113806	1.151361
C173	C	0.700360	-0.716215	0.676756
C174	C	1.200360	-0.216215	1.176756
C175	C	0.700279	-0.715877	0.548436
C176	C	1.200279	-0.215877	1.048436
C177	C	0.700133	-0.562725	0.472214
C178	C	1.200133	-0.062725	0.972214
C179	C	0.700218	-0.563065	0.600533
C180	C	1.200218	-0.063065	1.100533
C181	C	0.167511	-0.004552	0.497940
C182	C	0.667511	0.495448	0.997940
C183	C	0.039211	-0.004699	0.498341
C184	C	0.539211	0.495301	0.998341
C185	C	-0.036999	-0.004682	0.651449
C186	C	0.463001	0.495318	1.151449
C187	C	0.091344	-0.004663	0.651090
C188	C	0.591344	0.495337	1.151090
C189	C	-0.011156	-0.537302	1.209530
C190	C	0.488844	-0.037302	1.709530
C191	C	-0.010806	-0.665617	1.209458
C192	C	0.489194	-0.165617	1.709458
C193	C	0.142293	-0.741918	1.209514
C194	C	0.642293	-0.241918	1.709514
C195	C	0.141950	-0.613596	1.209563
C196	C	0.641950	-0.113596	1.709563
H197	H	0.102355	-0.458618	0.810728
H198	H	0.602355	0.041382	1.310728
C199	C	-0.113495	-0.671430	1.262280
C200	C	0.386505	-0.171430	1.762280
C201	C	-0.061576	-0.678242	1.209372
C202	C	0.438424	-0.178242	1.709372
H203	H	-0.144836	-0.679229	1.262228
H204	H	0.355164	-0.179229	1.762228
H205	H	-0.128621	-0.630444	1.262297
H206	H	0.371379	-0.130444	1.762297
H207	H	-0.102239	-0.700008	1.298198
H208	H	0.397761	-0.200008	1.798198
H209	H	-0.072831	-0.649661	1.173454
H210	H	0.427169	-0.149661	1.673454
H211	H	-0.046448	-0.719234	1.209350
H212	H	0.453552	-0.219234	1.709350
H213	H	0.179573	-0.604224	1.209577
H214	H	0.679573	-0.104224	1.709577
C215	C	0.171248	-0.843612	1.209483
C216	C	0.671248	-0.343612	1.709483
C217	C	0.193288	-0.805282	1.209508
C218	C	0.693288	-0.305282	1.709508
H219	H	0.202731	-0.882730	1.209482
H220	H	0.702731	-0.382730	1.709482
H221	H	0.160005	-0.825081	1.173571
H222	H	0.660005	-0.325081	1.673571
H223	H	0.136067	-0.849026	1.245384
H224	H	0.636067	-0.349026	1.745384
H225	H	0.228467	-0.799865	1.173604
H226	H	0.728467	-0.299865	1.673604
H227	H	0.204540	-0.823817	1.245423
H228	H	0.704540	-0.323817	1.745423
H229	H	0.030065	-0.490230	0.460543
H230	H	0.530065	0.009770	0.960543
C231	C	0.647409	-0.783334	0.577896
C232	C	1.147409	-0.283334	1.077896
C233	C	0.700301	-0.766685	0.535771
C234	C	1.200301	-0.266685	1.035771
H235	H	0.647426	-0.814703	0.570079
H236	H	1.147426	-0.314703	1.070079
H237	H	0.611487	-0.748140	0.573300
H238	H	1.111487	-0.248140	1.073300
H239	H	0.647452	-0.798459	0.618880
H240	H	1.147452	-0.298459	1.118880
H241	H	0.700256	-0.751555	0.494788
H242	H	1.200256	-0.251555	0.994788
H243	H	0.736233	-0.801886	0.540363
H244	H	1.236233	-0.301886	1.040363
H245	H	0.100526	-0.788925	0.688956
H246	H	0.600526	-0.288925	1.188956
H247	H	0.700073	-0.524942	0.425295
H248	H	1.200073	-0.024942	0.925295
C249	C	-0.138678	-0.540911	0.680150
C250	C	0.361322	-0.040911	1.180150
C251	C	-0.100401	-0.601314	0.702292
C252	C	0.399599	-0.101314	1.202292
H253	H	-0.177801	-0.533199	0.711596
H254	H	0.322199	-0.033199	1.211596
H255	H	-0.144082	-0.536261	0.644977
H256	H	0.355918	-0.036261	1.144977
H257	H	-0.120113	-0.512307	0.668872
H258	H	0.379887	-0.012307	1.168872
H259	H	-0.118964	-0.629919	0.713566
H260	H	0.381036	-0.129919	1.213566
H261	H	-0.094999	-0.605970	0.737476
H262	H	0.405001	-0.105970	1.237476
C263	C	0.223013	-0.670979	0.395355
C264	C	0.723013	-0.170979	0.895355
C265	C	0.230990	-0.677843	0.447206
C266	C	0.730990	-0.177843	0.947206
H267	H	0.262139	-0.678695	0.363915
H268	H	0.762139	-0.178695	0.863915
H269	H	0.197045	-0.630004	0.380344
H270	H	0.697045	-0.130004	0.880344
H271	H	0.204454	-0.699590	0.406642
H272	H	0.704454	-0.199590	0.906642
H273	H	0.249546	-0.649228	0.435920
H274	H	0.749546	-0.149228	0.935920
H275	H	0.256968	-0.718823	0.462219
H276	H	0.756968	-0.218823	0.962219
H277	H	0.063231	-0.497836	0.928300
H278	H	0.563231	0.002164	1.428300
C279	C	0.700438	-0.745173	0.778438
C280	C	1.200438	-0.245173	1.278438
C281	C	0.700428	-0.767222	0.740098
C282	C	1.200428	-0.267222	1.240098
H283	H	0.700484	-0.776664	0.817540
H284	H	1.200484	-0.276664	1.317540
H285	H	0.664517	-0.710008	0.783880
H286	H	1.164517	-0.210008	1.283880
H287	H	0.736327	-0.733902	0.759898
H288	H	1.236327	-0.233902	1.259898
H289	H	0.664536	-0.778488	0.758636
H290	H	1.164536	-0.278488	1.258636
H291	H	0.736353	-0.802397	0.734657
H292	H	1.236353	-0.302397	1.234657
H293	H	0.029814	-0.004702	0.460721
H294	H	0.529814	0.495298	0.960721
C295	C	-0.138699	-0.004670	0.680407
C296	C	0.361301	0.495330	1.180407
C297	C	-0.100347	-0.004667	0.702444
C298	C	0.399653	0.495333	1.202444
H299	H	-0.177809	-0.004653	0.711887
H300	H	0.322191	0.495347	1.211887
H301	H	-0.120185	-0.040584	0.669177
H302	H	0.379815	0.459416	1.169177
H303	H	-0.144120	0.031232	0.645217
H304	H	0.355880	0.531232	1.145217
H305	H	-0.094922	-0.040571	0.737632
H306	H	0.405078	0.459429	1.237632
H307	H	-0.118864	0.031251	0.713683
H308	H	0.381136	0.531251	1.213683
H309	H	-0.048928	-0.490363	1.209534
H310	H	0.451072	0.009637	1.709534
C311	C	0.029275	-0.460922	0.666904
C312	C	0.529275	0.039078	1.166904
C313	C	0.044963	-0.493347	0.720916
C314	C	0.544963	0.006653	1.220916
H315	H	-0.013968	-0.450296	0.677543
H316	H	0.486032	0.049704	1.177543
H317	H	0.051254	-0.486199	0.641618
H318	H	0.551254	0.013801	1.141618
H319	H	0.039890	-0.424274	0.644925
H320	H	0.539890	0.075726	1.144925
H321	H	0.034352	-0.529997	0.742893
H322	H	0.534352	-0.029997	1.242893
H323	H	0.022976	-0.468069	0.746212
H324	H	0.522976	0.031931	1.246212
C325	C	0.753151	-0.533330	0.627654
C326	C	1.253151	-0.033330	1.127654
C327	C	0.700198	-0.512261	0.613202
C328	C	1.200198	-0.012261	1.113202
H329	H	0.753135	-0.501967	0.635479
H330	H	1.253135	-0.001967	1.135479
H331	H	0.789032	-0.542937	0.593867
H332	H	1.289032	-0.042937	1.093867
H333	H	0.753189	-0.569372	0.663426
H334	H	1.253189	-0.069372	1.163426
H335	H	0.700162	-0.476222	0.577427
H336	H	1.200162	0.023778	1.077427
H337	H	0.664307	-0.502646	0.646993
H338	H	1.164307	-0.002646	1.146993
C339	C	0.327772	-0.613631	0.895309
C340	C	0.827772	-0.113631	1.395309
C341	C	0.267298	-0.604464	0.937461
C342	C	0.767298	-0.104464	1.437461
H343	H	0.356374	-0.638919	0.917284
H344	H	0.856374	-0.138919	1.417284
H345	H	0.333974	-0.574782	0.870035
H346	H	0.833974	-0.074782	1.370035
H347	H	0.333982	-0.633418	0.870027
H348	H	0.833982	-0.133418	1.370027
H349	H	0.261086	-0.584672	0.962740
H350	H	0.761086	-0.084672	1.462740
H351	H	0.261093	-0.643319	0.962746
H352	H	0.761093	-0.143319	1.462746
C353	C	0.277374	-0.056974	0.467508
C354	C	0.777374	0.443026	0.967508
C355	C	0.230726	-0.004164	0.446816
C356	C	0.730726	0.495836	0.946816
H357	H	0.316401	-0.056732	0.435949
H358	H	0.816401	0.443268	0.935949
H359	H	0.270023	-0.092957	0.477133
H360	H	0.770023	0.407043	0.977133
H361	H	0.277339	-0.057040	0.503471
H362	H	0.777339	0.442960	1.003471
H363	H	0.230757	-0.004100	0.410856
H364	H	0.730757	0.495900	0.910856
H365	H	0.238078	0.031828	0.437183
H366	H	0.738078	0.531828	0.937183
C367	C	0.328201	-0.505069	0.764145
C368	C	0.828201	-0.005069	1.264145
C369	C	0.312570	-0.559097	0.801410
C370	C	0.812570	-0.059097	1.301410
H371	H	0.371436	-0.515693	0.742140
H372	H	0.871436	-0.015693	1.242140
H373	H	0.317589	-0.483091	0.789433
H374	H	0.817589	0.016909	1.289433
H375	H	0.306186	-0.479787	0.735584
H376	H	0.806186	0.020213	1.235584
H377	H	0.334582	-0.584378	0.829975
H378	H	0.834582	-0.084378	1.329975
H379	H	0.323189	-0.581085	0.776121
H380	H	0.823189	-0.081085	1.276121
C381	C	0.304361	-0.571965	0.555753
C382	C	0.804361	-0.071965	1.055753
C383	C	0.267130	-0.604405	0.609764
C384	C	0.767130	-0.104405	1.109764
H385	H	0.332944	-0.597240	0.530452
H386	H	0.832944	-0.097240	1.030452
H387	H	0.326337	-0.561341	0.566389
H388	H	0.826337	-0.061341	1.066389
H389	H	0.279051	-0.535317	0.533784
H390	H	0.779051	-0.035317	1.033784
H391	H	0.292440	-0.641051	0.631736
H392	H	0.792440	-0.141051	1.131736
H393	H	0.245152	-0.615038	0.599128
H394	H	0.745152	-0.115038	1.099128
C395	C	0.328105	-0.505019	0.622713
C396	C	0.828105	-0.005019	1.122713
C397	C	0.312488	-0.559056	0.655114
C398	C	0.812488	-0.059056	1.155114
H399	H	0.371345	-0.515634	0.612079
H400	H	0.871345	-0.015634	1.112079
H401	H	0.306113	-0.479748	0.648008
H402	H	0.806113	0.020252	1.148008
H403	H	0.317459	-0.483033	0.586073
H404	H	0.817459	0.016967	1.086073
H405	H	0.323130	-0.581040	0.691757
H406	H	0.823130	-0.081040	1.191757
H407	H	0.334488	-0.584336	0.629819
H408	H	0.834488	-0.084336	1.129819
C409	C	0.334354	-0.673667	0.756126
C410	C	0.834354	-0.173667	1.256126
C411	C	0.292214	-0.613604	0.752635
C412	C	0.792214	-0.113604	1.252635
H413	H	0.312370	-0.701916	0.777023
H414	H	0.812370	-0.201916	1.277023
H415	H	0.359646	-0.684511	0.778202
H416	H	0.859646	-0.184511	1.278202
H417	H	0.359617	-0.675310	0.715516
H418	H	0.859617	-0.175310	1.215516
H419	H	0.266954	-0.611960	0.793245
H420	H	0.766954	-0.111960	1.293245
H421	H	0.266912	-0.602757	0.730560
H422	H	0.766912	-0.102757	1.230560
H423	H	0.419022	-0.640939	0.704632
H424	H	0.919022	-0.140939	1.204632
C425	C	0.386081	-0.378765	0.619812
C426	C	0.886081	0.121235	1.119812
C427	C	0.428218	-0.438831	0.623314
C428	C	0.928218	0.061169	1.123314
H429	H	0.408066	-0.350516	0.598903
H430	H	0.908066	0.149484	1.098903
H431	H	0.360820	-0.377111	0.660412
H432	H	0.860820	0.122889	1.160412
H433	H	0.360787	-0.367928	0.597735
H434	H	0.860787	0.132072	1.097735
H435	H	0.453510	-0.449669	0.645395
H436	H	0.953510	0.050331	1.145395
H437	H	0.453490	-0.440486	0.582706
H438	H	0.953490	0.059514	1.082706
C439	C	0.164452	-0.004670	0.679574
C440	C	0.664452	0.495330	1.179574
C441	C	0.104027	-0.004668	0.701883
C442	C	0.604027	0.495332	1.201883
H443	H	0.172283	-0.004680	0.710935
H444	H	0.672283	0.495320	1.210935
H445	H	0.169049	0.031239	0.644375
H446	H	0.669049	0.531239	1.144375
H447	H	0.193004	-0.040577	0.668293
H448	H	0.693004	0.459423	1.168293
H449	H	0.075474	0.031242	0.713159
H450	H	0.575474	0.531242	1.213159
H451	H	0.099424	-0.040580	0.737093
H452	H	0.599424	0.459420	1.237093
H453	H	0.301415	-0.411495	0.671309
H454	H	0.801415	0.088505	1.171309
C455	C	0.266027	-0.370605	0.539117
C456	C	0.766027	0.129395	1.039117
C457	C	0.256890	-0.412747	0.599603
C458	C	0.756890	0.087253	1.099603
H459	H	0.291295	-0.392591	0.510528
H460	H	0.791295	0.107409	1.010528
H461	H	0.285815	-0.345327	0.532886
H462	H	0.785815	0.154673	1.032886
H463	H	0.227165	-0.345325	0.532915
H464	H	0.727165	0.154675	1.032915
H465	H	0.295751	-0.438024	0.605806
H466	H	0.795751	0.061976	1.105806
H467	H	0.237102	-0.438036	0.605836
H468	H	0.737102	0.061964	1.105836
C469	C	0.091383	-0.318863	0.836963
C470	C	0.591383	0.181137	1.336963
C471	C	0.100520	-0.276724	0.776477
C472	C	0.600520	0.223276	1.276477
H473	H	0.066107	-0.296876	0.865551
H474	H	0.566107	0.203124	1.365551
H475	H	0.130238	-0.344137	0.843168
H476	H	0.630238	0.155863	1.343168
H477	H	0.071597	-0.344149	0.843193
H478	H	0.571597	0.155851	1.343193
H479	H	0.120310	-0.251441	0.770245
H480	H	0.620310	0.248559	1.270245
H481	H	0.061658	-0.251440	0.770269
H482	H	0.561658	0.248560	1.270269
H483	H	0.207047	-0.285927	0.572438
H484	H	0.707047	0.214073	1.072438
C485	C	0.199952	-0.450060	0.837432
C486	C	0.699952	0.049940	1.337432
C487	C	0.145912	-0.412791	0.821796
C488	C	0.645912	0.087209	1.321796
H489	H	0.189348	-0.472063	0.880670
H490	H	0.689348	0.027937	1.380670
H491	H	0.221926	-0.424774	0.826809
H492	H	0.721926	0.075226	1.326809
H493	H	0.225227	-0.478626	0.815426
H494	H	0.725227	0.021374	1.315426
H495	H	0.120639	-0.384221	0.843799
H496	H	0.620639	0.115779	1.343799
H497	H	0.123928	-0.438080	0.832425
H498	H	0.623928	0.061920	1.332425
H499	H	0.102328	-0.458621	0.755642
H500	H	0.602328	0.041379	1.255642
