data_functionalizedCrystal
_audit_creation_method	'MofGen! by Chris Wilmer'
_symmetry_space_group_name_H-M	'P1'
_symmetry_Int_Tables_number	1
_symmetry_cell_setting	triclinic
loop_
_symmetry_equiv_pos_as_xyz
  x,y,z
_cell_length_a	14.519709
_cell_length_b	15.538191
_cell_length_c	14.185569
_cell_angle_alpha	82.124202
_cell_angle_beta	76.819419
_cell_angle_gamma	114.523881
loop_
_atom_site_label
_atom_site_type_symbol
_atom_site_fract_x
_atom_site_fract_y
_atom_site_fract_z
O1	O	-0.271310	-1.228085	-0.083424
O2	O	0.228690	-0.728085	0.416576
O3	O	-0.164884	-0.954005	-0.083426
O4	O	0.335116	-0.454005	0.416574
O5	O	-0.354783	-1.098314	-0.083416
O6	O	0.145217	-0.598314	0.416584
O7	O	-0.081411	-1.083776	-0.083434
O8	O	0.418589	-0.583776	0.416566
O9	O	-0.410876	-1.140944	0.083422
O10	O	0.089124	-0.640944	0.583422
O11	O	-0.220977	-0.996635	0.083412
O12	O	0.279023	-0.496635	0.583412
O13	O	-0.327403	-1.270715	0.083414
O14	O	0.172597	-0.770715	0.583414
Cu15	Cu	-0.279312	-1.137568	0.098646
Cu16	Cu	0.220688	-0.637568	0.598646
Cu17	Cu	-0.212975	-1.087153	-0.098658
Cu18	Cu	0.287025	-0.587153	0.401342
O19	O	-0.137505	-1.126406	0.083404
O20	O	0.362495	-0.626406	0.583404
C21	C	-0.416961	-1.118952	0.000003
C22	C	0.083039	-0.618952	0.500003
C23	C	-0.518660	-1.116922	0.000004
C24	C	-0.018660	-0.616922	0.500004
C25	C	-0.181796	-0.940243	-0.000007
C26	C	0.318204	-0.440243	0.499993
C27	C	-0.148628	-0.835725	-0.000007
C28	C	0.351372	-0.335725	0.499993
C29	C	-0.310491	-1.284476	-0.000007
C30	C	0.189509	-0.784476	0.499993
C31	C	-0.343656	-1.388993	-0.000014
C32	C	0.156344	-0.888993	0.499986
C33	C	-0.891034	-1.109444	-0.000022
C34	C	-0.391034	-0.609444	0.499978
C35	C	-0.787426	-1.111520	-0.000015
C36	C	-0.287426	-0.611520	0.499985
C37	C	-0.704851	-1.113183	-0.000008
C38	C	-0.204851	-0.613183	0.499992
C39	C	-0.601236	-1.115260	-0.000003
C40	C	-0.101236	-0.615260	0.499997
C41	C	-0.075325	-1.105768	-0.000017
C42	C	0.424675	-0.605768	0.499983
C43	C	0.026376	-1.107796	-0.000025
C44	C	0.526376	-0.607796	0.499975
N45	N	-0.325973	-1.173034	0.237420
N46	N	0.174027	-0.673034	0.737420
C47	C	-0.478139	-0.547381	-0.000001
C48	C	0.021861	-0.047381	0.499999
C49	C	-0.446949	-0.449167	-0.000004
C50	C	0.053051	0.050833	0.499996
C51	C	-0.271514	-0.427017	-0.000015
C52	C	0.228486	0.072983	0.499985
C53	C	-0.302691	-0.525232	-0.000008
C54	C	0.197309	-0.025232	0.499992
C55	C	-0.406004	-0.585407	-0.000002
C56	C	0.093996	-0.085407	0.499998
C57	C	-0.230557	-0.563258	-0.000008
C58	C	0.269443	-0.063258	0.499992
C59	C	-0.261730	-0.661463	-0.000006
C60	C	0.238270	-0.161463	0.499994
C61	C	-0.365037	-0.721643	-0.000003
C62	C	0.134963	-0.221643	0.499997
C63	C	-0.437177	-0.683612	0.000001
C64	C	0.062823	-0.183612	0.500001
C65	C	-0.127242	-0.503080	-0.000021
C66	C	0.372758	-0.003080	0.499979
C67	C	-0.055107	-0.541106	-0.000022
C68	C	0.444893	-0.041106	0.499978
C69	C	-0.086282	-0.639314	-0.000012
C70	C	0.413718	-0.139314	0.499988
C71	C	-0.189590	-0.699494	-0.000009
C72	C	0.310410	-0.199494	0.499991
C73	C	-0.014142	-0.677345	-0.000016
C74	C	0.485858	-0.177345	0.499984
C75	C	-0.045315	-0.775551	-0.000013
C76	C	0.454685	-0.275551	0.499987
C77	C	-0.220763	-0.797700	-0.000007
C78	C	0.279237	-0.297700	0.499993
N79	N	-0.166324	-1.051694	-0.237432
N80	N	0.333676	-0.551694	0.262568
C81	C	-0.029276	-0.947494	0.605054
C82	C	0.470724	-0.447494	1.105054
C83	C	-0.064616	-0.974366	0.710078
C84	C	0.435384	-0.474366	1.210078
C85	C	-0.232734	-1.102177	0.710047
C86	C	0.267266	-0.602177	1.210047
C87	C	-0.197409	-1.075313	0.605022
C88	C	0.302591	-0.575313	1.105022
C89	C	-0.095679	-0.997972	0.552534
C90	C	0.404321	-0.497972	1.052534
C91	C	-0.263812	-1.125791	0.552501
C92	C	0.236188	-0.625791	1.052501
C93	C	-0.228488	-1.098932	0.447485
C94	C	0.271512	-0.598932	0.947485
C95	C	-0.126760	-1.021596	0.394989
C96	C	0.373240	-0.521596	0.894989
C97	C	-0.060354	-0.971113	0.447517
C98	C	0.439646	-0.471113	0.947517
C99	C	-0.365540	-1.203137	0.604991
C100	C	0.134460	-0.703137	1.104991
C101	C	-0.431943	-1.253615	0.552471
C102	C	0.068057	-0.753615	1.052471
C103	C	-0.396622	-1.226752	0.447452
C104	C	0.103378	-0.726752	0.947452
C105	C	-0.294894	-1.149415	0.394957
C106	C	0.205106	-0.649415	0.894957
C107	C	-0.463027	-1.277234	0.394924
C108	C	0.036973	-0.777234	0.894924
C109	C	-0.427703	-1.250375	0.289908
C110	C	0.072297	-0.750375	0.789908
C111	C	-0.259569	-1.122556	0.289940
C112	C	0.240431	-0.622556	0.789940
H113	H	-0.304892	-0.846700	0.000004
H114	H	0.195108	-0.346700	0.500004
H115	H	-0.562268	-0.596381	0.000010
H116	H	-0.062268	-0.096381	0.500010
H117	H	-0.545854	-1.340213	0.437674
H118	H	-0.045854	-0.840213	0.937674
Br119	Br	-0.544862	-0.397568	0.000011
Br120	Br	-0.044862	0.102432	0.500011
H121	H	0.069979	-0.628334	-0.000031
H122	H	0.569979	-0.128334	0.499969
H123	H	-0.514772	-1.316590	0.595219
H124	H	-0.014772	-0.816590	1.095219
H125	H	-0.187395	-0.378009	-0.000024
H126	H	0.312605	0.121991	0.499976
H127	H	0.053559	-0.884508	0.562316
H128	H	0.553559	-0.384508	1.062316
H129	H	-0.101863	-0.423115	-0.000026
H130	H	0.398137	0.076885	0.499974
Br131	Br	-0.517821	-1.318888	0.218627
Br132	Br	-0.017821	-0.818888	0.718627
Br133	Br	0.085102	-0.459430	-0.000040
Br134	Br	0.585102	0.040570	0.499960
Br135	Br	0.052584	-0.827161	-0.000020
Br136	Br	0.552584	-0.327161	0.499980
H137	H	-0.390412	-0.801605	-0.000014
H138	H	0.109588	-0.301605	0.499986
H139	H	-0.521307	-0.732612	0.000012
H140	H	-0.021307	-0.232612	0.500012
H141	H	-0.176735	-1.059570	0.247202
H142	H	0.323265	-0.559570	0.747202
Br143	Br	-0.078813	-0.985149	0.252465
Br144	Br	0.421187	-0.485149	0.752465
H145	H	0.022480	-0.908127	0.404779
H146	H	0.522480	-0.408127	0.904779
Br147	Br	0.025521	-0.905853	0.781349
Br148	Br	0.525521	-0.405853	1.281349
Br149	Br	-0.370790	-1.207143	0.781287
Br150	Br	0.129210	-0.707143	1.281287
H151	H	-0.394295	-1.225005	0.690503
H152	H	0.105705	-0.725005	1.190503
