data_functionalizedCrystal
_audit_creation_method	'MofGen! by Chris Wilmer'
_symmetry_space_group_name_H-M	'P1'
_symmetry_Int_Tables_number	1
_symmetry_cell_setting	triclinic
loop_
_symmetry_equiv_pos_as_xyz
  x,y,z
_cell_length_a	12.811457
_cell_length_b	12.837942
_cell_length_c	9.798715
_cell_angle_alpha	89.997407
_cell_angle_beta	95.428260
_cell_angle_gamma	89.411937
loop_
_atom_site_label
_atom_site_type_symbol
_atom_site_fract_x
_atom_site_fract_y
_atom_site_fract_z
O1	O	1.406628	0.139675	0.060606
O2	O	1.906628	0.639675	0.560606
O3	O	1.102567	0.154865	0.022970
O4	O	1.602567	0.654865	0.522970
O5	O	1.247855	-0.003662	0.040962
O6	O	1.747855	0.496338	0.540962
O7	O	1.261340	0.298202	0.042614
O8	O	1.761340	0.798202	0.542614
O9	O	1.247843	-0.003662	0.267943
O10	O	1.747843	0.496338	0.767943
O11	O	1.102555	0.154865	0.249951
O12	O	1.602555	0.654865	0.749951
O13	O	1.406616	0.139674	0.287587
O14	O	1.906616	0.639674	0.787587
Zn15	Zn	1.254584	0.147269	0.304807
Zn16	Zn	1.754584	0.647269	0.804807
Zn17	Zn	1.254599	0.147270	0.005750
Zn18	Zn	1.754599	0.647270	0.505750
O19	O	1.261328	0.298201	0.269595
O20	O	1.761328	0.798201	0.769595
C21	C	1.063372	0.154014	0.131610
C22	C	1.563372	0.654014	0.631610
C23	C	0.946600	0.151466	0.117156
C24	C	1.446600	0.651466	0.617156
C25	C	0.727160	0.146658	0.337479
C26	C	1.227160	0.646658	0.837479
C27	C	0.617443	0.144263	0.323905
C28	C	1.117443	0.644263	0.823905
C29	C	0.617447	0.144275	0.076437
C30	C	1.117447	0.644275	0.576437
C31	C	0.727164	0.146670	0.090011
C32	C	1.227164	0.646670	0.590011
C33	C	0.782017	0.147862	0.220536
C34	C	1.282017	0.647862	0.720536
C35	C	0.891736	0.150264	0.234108
C36	C	1.391736	0.650264	0.734108
C37	C	0.891738	0.150269	-0.013359
C38	C	1.391738	0.650269	0.486641
C39	C	0.782021	0.147874	-0.026932
C40	C	1.282021	0.647874	0.473068
C41	C	1.243294	-0.042302	0.153888
C42	C	1.743294	0.457698	0.653888
C43	C	1.229708	-0.157438	0.152204
C44	C	1.729708	0.342562	0.652204
C45	C	1.393036	-0.397693	0.172392
C46	C	1.893036	0.102307	0.672392
C47	C	1.380276	-0.505874	0.170810
C48	C	1.880276	-0.005874	0.670810
C49	C	1.191428	-0.481982	0.147449
C50	C	1.691428	0.018018	0.647449
C51	C	1.204188	-0.373802	0.149031
C52	C	1.704188	0.126198	0.649031
C53	C	1.304996	-0.331661	0.161505
C54	C	1.804996	0.168339	0.661505
C55	C	1.317755	-0.223478	0.163096
C56	C	1.817755	0.276522	0.663096
C57	C	1.128908	-0.199589	0.139725
C58	C	1.628908	0.300411	0.639725
C59	C	1.116148	-0.307770	0.138144
C60	C	1.616148	0.192230	0.638144
C61	C	1.445811	0.140525	0.178944
C62	C	1.945811	0.640525	0.678944
C63	C	1.562583	0.143073	0.193389
C64	C	2.062583	0.643073	0.693389
C65	C	1.265889	0.336842	0.156666
C66	C	1.765889	0.836842	0.656666
C67	C	1.279475	0.451977	0.158341
C68	C	1.779475	0.951977	0.658341
N69	N	1.254580	0.147269	0.508906
N70	N	1.754580	0.647269	1.008906
N71	N	1.254610	0.147263	-0.198348
N72	N	1.754610	0.647263	0.301652
C73	C	1.315556	0.080415	0.584234
C74	C	1.815556	0.580415	1.084234
C75	C	1.315573	0.080412	0.741399
C76	C	1.815573	0.580412	1.241399
H77	H	0.936395	0.151242	0.340388
H78	H	1.436395	0.651242	0.840388
Br79	Br	1.402598	-0.014982	0.849314
Br80	Br	1.902598	0.485018	1.349314
H81	H	1.202407	0.204505	0.736911
H82	H	1.702407	0.704505	1.236911
H83	H	0.936414	0.151256	-0.108582
H84	H	1.436414	0.651256	0.391418
H85	H	0.572783	0.143288	0.419133
H86	H	1.072783	0.643288	0.919133
Br87	Br	0.542990	0.142542	-0.100689
Br88	Br	1.042990	0.642542	0.399311
Br89	Br	1.454562	-0.166287	0.180039
Br90	Br	1.954562	0.333713	0.680039
Br91	Br	1.009417	-0.109968	0.124973
Br92	Br	1.509417	0.390032	0.624973
H93	H	1.475117	-0.363382	0.182562
H94	H	1.975117	0.136618	0.682562
H95	H	1.202384	0.204498	0.560767
H96	H	1.702384	0.704498	1.060767
Br97	Br	0.707570	0.146214	-0.204064
Br98	Br	1.207570	0.646214	0.295936
Br99	Br	1.499764	-0.595487	0.185577
Br100	Br	1.999764	-0.095487	0.685577
Br101	Br	0.801608	0.148296	0.514613
Br102	Br	1.301608	0.648296	1.014613
Br103	Br	1.054629	-0.539192	0.130473
Br104	Br	1.554629	-0.039192	0.630473
H105	H	1.034073	-0.342096	0.127983
H106	H	1.534073	0.157904	0.627983
Br107	Br	1.402260	-0.015244	0.497773
Br108	Br	1.902260	0.484756	0.997773
