data_functionalizedCrystal
_audit_creation_method	'MofGen! by Chris Wilmer'
_symmetry_space_group_name_H-M	'P1'
_symmetry_Int_Tables_number	1
_symmetry_cell_setting	triclinic
loop_
_symmetry_equiv_pos_as_xyz
  x,y,z
_cell_length_a	11.026607
_cell_length_b	10.723024
_cell_length_c	9.198806
_cell_angle_alpha	89.996352
_cell_angle_beta	90.001089
_cell_angle_gamma	83.473057
loop_
_atom_site_label
_atom_site_type_symbol
_atom_site_fract_x
_atom_site_fract_y
_atom_site_fract_z
O1	O	0.170518	-1.693992	0.120878
O2	O	0.670518	-1.193992	0.620878
O3	O	0.186840	-1.334363	0.120883
O4	O	0.686840	-0.834363	0.620883
O5	O	0.001778	-1.484372	0.120876
O6	O	0.501778	-0.984372	0.620876
O7	O	0.355580	-1.543983	0.120886
O8	O	0.855580	-1.043983	0.620886
O9	O	0.001777	-1.484357	-0.120909
O10	O	0.501777	-0.984357	0.379091
O11	O	0.186840	-1.334348	-0.120902
O12	O	0.686840	-0.834348	0.379098
O13	O	0.170518	-1.693977	-0.120907
O14	O	0.670518	-1.193977	0.379093
Cu15	Cu	0.178679	-1.514161	-0.142981
Cu16	Cu	0.678679	-1.014161	0.357019
Cu17	Cu	0.178679	-1.514179	0.142958
Cu18	Cu	0.678679	-1.014179	0.642958
O19	O	0.355580	-1.543968	-0.120899
O20	O	0.855580	-1.043968	0.379101
C21	C	-0.043525	-1.473367	-0.000015
C22	C	0.456475	-0.973367	0.499985
C23	C	-0.178512	-1.440584	-0.000009
C24	C	0.321488	-0.940584	0.499991
C25	C	0.185652	-1.287599	-0.000009
C26	C	0.685652	-0.787599	0.499991
C27	C	0.182098	-1.148278	-0.000007
C28	C	0.682098	-0.648278	0.499993
C29	C	0.171706	-1.740741	-0.000011
C30	C	0.671706	-1.240741	0.499989
C31	C	0.175259	-1.880062	-0.000004
C32	C	0.675259	-1.380062	0.499996
C33	C	-0.251564	-1.531104	-0.000008
C34	C	0.248436	-1.031104	0.499992
C35	C	-0.391080	-1.497223	-0.000003
C36	C	0.108920	-0.997223	0.499997
C37	C	0.400883	-1.554973	-0.000006
C38	C	0.900883	-1.054973	0.499994
C39	C	0.535869	-1.587756	-0.000002
C40	C	1.035869	-1.087756	0.499998
N41	N	0.178677	-1.514157	-0.344095
N42	N	0.678677	-1.014157	0.155905
C43	C	0.285649	-1.095646	-0.000003
C44	C	0.785649	-0.595646	0.499997
C45	C	0.281979	-0.951650	-0.000001
C46	C	0.781979	-0.451650	0.499999
C47	C	0.100633	-1.577068	-0.416295
C48	C	0.600633	-1.077068	0.083705
C49	C	0.100628	-1.577086	-0.583707
C50	C	0.600628	-1.077086	-0.083707
N51	N	0.178671	-1.514191	0.344072
N52	N	0.678671	-1.014191	0.844072
H53	H	-0.210818	-1.633684	-0.000019
H54	H	0.289182	-1.133684	0.499981
C55	C	0.409093	-1.178783	-0.000006
C56	C	0.909093	-0.678783	0.499994
N57	N	0.502074	-1.241401	-0.000007
N58	N	1.002074	-0.741401	0.499993
C59	C	0.055490	-0.941246	-0.000012
C60	C	0.555490	-0.441246	0.499988
N61	N	-0.034720	-0.987339	-0.000022
N62	N	0.465280	-0.487339	0.499978
C63	C	0.010357	-1.649851	-0.667584
C64	C	0.510357	-1.149851	-0.167584
N65	N	-0.057639	-1.704658	-0.730764
N66	N	0.442361	-1.204658	-0.230764
H67	H	0.245496	-1.460333	-0.593849
H68	H	0.745496	-0.960333	-0.093849
C69	C	0.268939	-1.441405	-0.428019
C70	C	0.768939	-0.941405	0.071981
N71	N	0.336927	-1.386606	-0.491229
N72	N	0.836927	-0.886606	0.008771
C73	C	-0.409100	-1.726349	-0.000005
C74	C	0.090900	-1.226349	0.499995
N75	N	-0.367650	-1.830735	-0.000010
N76	N	0.132350	-1.330735	0.499990
C77	C	-0.233550	-1.301999	-0.000009
C78	C	0.266450	-0.801999	0.499991
N79	N	-0.275004	-1.197613	-0.000014
N80	N	0.224996	-0.697613	0.499986
H81	H	0.370627	-0.906351	0.000008
H82	H	0.870627	-0.406351	0.500008
C83	C	0.010346	-1.649789	-0.332371
C84	C	0.510346	-1.149789	0.167629
N85	N	-0.057667	-1.704557	-0.269162
N86	N	0.442333	-1.204557	0.230838
H87	H	0.090727	-1.086734	0.000028
H88	H	0.590727	-0.586734	0.500028
H89	H	-0.431820	-1.394636	0.000008
H90	H	0.068180	-0.894636	0.500008
