data_functionalizedCrystal
_audit_creation_method	'MofGen! by Chris Wilmer'
_symmetry_space_group_name_H-M	'P1'
_symmetry_Int_Tables_number	1
_symmetry_cell_setting	triclinic
loop_
_symmetry_equiv_pos_as_xyz
  x,y,z
_cell_length_a	19.288864
_cell_length_b	15.995350
_cell_length_c	18.366186
_cell_angle_alpha	89.995992
_cell_angle_beta	89.977106
_cell_angle_gamma	83.314311
loop_
_atom_site_label
_atom_site_type_symbol
_atom_site_fract_x
_atom_site_fract_y
_atom_site_fract_z
O1	O	0.921624	0.104451	-0.060780
O2	O	0.719400	0.118542	-0.060729
O3	O	0.826040	-0.010412	-0.060755
O4	O	0.814984	0.233405	-0.060754
O5	O	0.826022	-0.010418	0.060344
O6	O	0.719382	0.118535	0.060370
O7	O	0.921606	0.104445	0.060320
Zn8	Zn	0.820491	0.111489	0.079572
Zn9	Zn	0.820515	0.111498	-0.079982
O10	O	0.814966	0.233399	0.060346
C11	C	0.693513	0.118085	-0.000173
C12	C	0.616406	0.116724	-0.000154
C13	C	0.571906	0.192388	-0.000165
C14	C	0.499456	0.191110	-0.000173
C15	C	0.471508	0.114163	-0.000185
C16	C	0.516018	0.038489	-0.000170
C17	C	0.588467	0.039769	-0.000155
C18	C	0.363096	0.053676	-0.042636
C19	C	0.290648	0.052398	-0.042656
C20	C	0.248053	0.110209	-0.000229
C21	C	0.277912	0.169312	0.042208
C22	C	0.350361	0.170593	0.042224
C23	C	0.392951	0.112765	-0.000201
C24	C	0.124993	0.184492	-0.000248
C25	C	0.052542	0.183210	-0.000251
C26	C	0.069106	0.030587	-0.000255
C27	C	0.141556	0.031871	-0.000244
C28	C	0.169495	0.108826	-0.000244
C29	C	0.825574	-0.041608	-0.000207
C30	C	0.824203	-0.134553	-0.000211
C31	C	0.819282	-0.472282	-0.000207
C32	C	0.743335	-0.424562	-0.000460
C33	C	0.744706	-0.327877	-0.000187
C34	C	0.821723	-0.304731	-0.000209
C35	C	0.859173	-0.345953	0.068934
C36	C	0.857265	-0.442582	0.068992
C37	C	0.858854	-0.442939	-0.068721
C38	C	0.858836	-0.345993	-0.069635
C39	C	0.823107	-0.210039	-0.000208
C40	C	0.817901	-0.566975	-0.000203
C41	C	0.947492	0.104902	-0.000238
C42	C	1.024600	0.106263	-0.000262
C43	C	0.815432	0.264595	-0.000204
C44	C	0.816802	0.357540	-0.000206
N45	N	0.820480	0.111483	0.188463
N46	N	0.820531	0.111497	-0.188873
C47	C	0.867715	0.054410	0.226552
C48	C	0.867720	0.054407	0.302780
C49	C	0.820495	0.111490	0.340916
C50	C	0.773250	0.168567	0.302818
C51	C	0.773243	0.168564	0.226591
C52	C	0.811395	0.187781	0.461678
C53	C	0.811407	0.187785	0.537903
C54	C	0.820515	0.111500	0.576023
C55	C	0.829624	0.035208	0.537909
C56	C	0.829617	0.035204	0.461683
C57	C	0.820498	0.111500	0.423571
C58	C	0.867758	0.054419	0.696767
C59	C	0.867757	0.054414	0.772996
C60	C	0.773292	0.168582	0.773033
C61	C	0.773289	0.168579	0.696805
C62	C	0.820525	0.111499	0.658677
H63	H	0.177789	-0.029743	-0.000239
H64	H	0.243232	0.216387	0.076757
H65	H	0.397772	0.006598	-0.077190
C66	C	0.932584	-0.486439	0.073229
H67	H	0.931929	-0.545736	0.073291
H68	H	0.953974	-0.469922	0.116674
H69	H	0.958312	-0.470721	0.032328
C70	C	0.934495	-0.486135	-0.069378
H71	H	0.941952	-0.521884	-0.028126
H72	H	0.965875	-0.444592	-0.067870
H73	H	0.942316	-0.518598	-0.112540
C74	C	0.919708	-0.008374	0.654823
H75	H	0.947834	-0.042375	0.688428
H76	H	0.948618	0.021655	0.625070
H77	H	0.894716	-0.043154	0.625104
H78	H	0.906220	0.007934	0.804009
C79	C	0.704653	-0.290076	0.066902
H80	H	0.705348	-0.230787	0.067294
H81	H	0.726184	-0.313641	0.109913
H82	H	0.657707	-0.302470	0.064880
C83	C	0.485279	-0.046151	-0.000187
H84	H	0.435757	-0.036077	-0.000206
H85	H	0.500528	-0.077300	0.042044
H86	H	0.500581	-0.077289	-0.042421
H87	H	0.734838	0.215057	0.804083
C88	C	0.038376	-0.054056	-0.000265
H89	H	0.075259	-0.098937	-0.000253
H90	H	0.010479	-0.057728	-0.042498
H91	H	0.010437	-0.057727	0.041967
C92	C	0.257809	-0.012613	-0.089332
H93	H	0.293553	-0.046871	-0.114586
H94	H	0.226424	0.015828	-0.123456
H95	H	0.233199	-0.046920	-0.058741
C96	C	0.721343	0.231374	0.654902
H97	H	0.728100	0.223195	0.604043
H98	H	0.728890	0.287230	0.667388
H99	H	0.674985	0.222426	0.667415
C100	C	0.637419	-0.043465	-0.000151
H101	H	0.610401	-0.089477	-0.000163
H102	H	0.666006	-0.046141	0.042081
H103	H	0.666044	-0.046131	-0.042384
C104	C	0.820345	-0.467173	0.138829
H105	H	0.806649	-0.418131	0.166895
H106	H	0.851372	-0.505263	0.166470
H107	H	0.780225	-0.493284	0.126202
H108	H	0.147742	0.247153	-0.000237
C109	C	0.935608	-0.327157	0.072395
H110	H	0.945382	-0.293919	0.031606
H111	H	0.965726	-0.378557	0.071746
H112	H	0.942867	-0.297379	0.115965
H113	H	0.833147	-0.317476	0.120403
C114	C	0.003591	0.266445	-0.000264
H115	H	0.030610	0.312457	-0.000268
H116	H	-0.025039	0.269122	0.041961
H117	H	-0.024991	0.269114	-0.042504
H118	H	0.734777	0.215040	0.195579
C119	C	0.383206	0.235592	0.088908
H120	H	0.347467	0.269838	0.114179
H121	H	0.407820	0.269901	0.058330
H122	H	0.414589	0.207132	0.123029
H123	H	0.715267	-0.299341	-0.049751
C124	C	0.801381	0.271700	0.419753
H125	H	0.795969	0.317136	0.453367
H126	H	0.760937	0.273523	0.390035
H127	H	0.841072	0.276217	0.389999
C128	C	0.825320	-0.470548	-0.139519
H129	H	0.786867	-0.500231	-0.127953
H130	H	0.858835	-0.506147	-0.166531
H131	H	0.809551	-0.422288	-0.167744
H132	H	0.803994	0.249907	0.568929
H133	H	0.712987	-0.442976	-0.050043
H134	H	0.734798	0.215044	0.333872
H135	H	0.837040	-0.026911	0.568945
C136	C	0.602636	0.277035	-0.000152
H137	H	0.565752	0.321915	-0.000152
H138	H	0.630581	0.280715	-0.042372
H139	H	0.630525	0.280702	0.042093
C140	C	0.450494	0.274341	-0.000189
H141	H	0.403345	0.262555	-0.000194
H142	H	0.458989	0.305904	-0.042418
H143	H	0.458938	0.305906	0.042048
H144	H	0.906177	0.007930	0.195510
C145	C	0.821903	-0.308970	-0.138738
H146	H	0.784026	-0.268530	-0.125343
H147	H	0.804846	-0.352804	-0.165887
H148	H	0.854054	-0.282714	-0.167610
H149	H	0.713107	-0.444044	0.048862
C150	C	0.934712	-0.325534	-0.075299
H151	H	0.944796	-0.291413	-0.035215
H152	H	0.940602	-0.296209	-0.119437
H153	H	0.965553	-0.376367	-0.074720
H154	H	0.906186	0.007929	0.333798
C155	C	0.839626	-0.048709	0.419758
H156	H	0.845146	-0.094143	0.453371
H157	H	0.880006	-0.050478	0.389918
H158	H	0.799885	-0.053279	0.390126
