data_functionalizedCrystal
_audit_creation_method	'MofGen! by Chris Wilmer'
_symmetry_space_group_name_H-M	'P1'
_symmetry_Int_Tables_number	1
_symmetry_cell_setting	triclinic
loop_
_symmetry_equiv_pos_as_xyz
  x,y,z
_cell_length_a	18.215407
_cell_length_b	21.295417
_cell_length_c	18.215399
_cell_angle_alpha	89.967848
_cell_angle_beta	89.980167
_cell_angle_gamma	90.030955
loop_
_atom_site_label
_atom_site_type_symbol
_atom_site_fract_x
_atom_site_fract_y
_atom_site_fract_z
Zn1	Zn	1.125043	-0.250608	-0.416094
Zn2	Zn	1.124940	-0.355879	-0.293019
Zn3	Zn	1.001976	-0.250629	-0.293042
Zn4	Zn	1.001930	-0.355844	-0.416044
O5	O	1.063472	-0.303240	-0.354550
O6	O	1.228014	-0.264579	-0.399780
O7	O	1.108604	-0.341941	-0.190038
O8	O	1.018364	-0.162537	-0.309396
O9	O	1.227938	-0.341921	-0.309357
O10	O	1.108781	-0.162521	-0.399802
O11	O	1.018263	-0.264614	-0.190054
O12	O	0.898985	-0.264580	-0.309347
O13	O	1.018285	-0.341861	-0.519035
O14	O	0.898951	-0.341881	-0.399716
O15	O	1.108736	-0.264545	-0.519072
O16	O	1.108559	-0.443964	-0.309308
O17	O	1.018184	-0.443938	-0.399694
C18	C	0.872266	-0.303229	-0.354529
C19	C	0.790467	-0.303240	-0.354537
C20	C	0.602275	-0.343554	-0.401533
C21	C	0.525416	-0.343556	-0.401542
C22	C	0.525422	-0.262938	-0.307582
C23	C	0.602279	-0.262933	-0.307577
C24	C	0.640703	-0.303245	-0.354552
C25	C	0.486987	-0.303251	-0.354566
C26	C	0.403654	-0.303253	-0.354575
C27	C	0.724042	-0.303242	-0.354543
C28	C	1.063376	-0.466792	-0.354509
C29	C	1.063402	-0.536760	-0.354516
C30	C	1.110502	-0.569619	-0.307500
C31	C	1.110536	-0.635361	-0.307517
C32	C	1.063457	-0.668242	-0.354542
C33	C	1.016354	-0.635375	-0.401566
C34	C	1.016326	-0.569634	-0.401554
N35	N	0.999079	-0.771508	-0.360145
N36	N	0.999107	-0.833960	-0.360153
C37	C	1.063540	-0.866317	-0.354584
N38	N	1.127944	-0.833863	-0.348993
N39	N	1.127915	-0.771406	-0.348981
C40	C	1.063483	-0.739528	-0.354561
C41	C	1.110681	-0.970462	-0.307584
C42	C	1.110717	-1.036205	-0.307605
C43	C	1.016528	-1.036218	-0.401651
C44	C	1.016499	-0.970475	-0.401633
C45	C	1.063575	-0.937601	-0.354595
C46	C	1.255425	-0.303251	-0.354571
C47	C	1.337224	-0.303256	-0.354581
C48	C	1.063517	-0.303197	-0.546503
C49	C	1.063536	-0.303178	-0.628302
C50	C	1.063589	-0.139050	-0.354607
C51	C	1.063639	-0.069082	-0.354631
C52	C	1.110651	-0.262882	-0.816516
C53	C	1.110660	-0.262863	-0.893375
C54	C	1.016473	-0.343377	-0.893325
C55	C	1.016461	-0.343392	-0.816468
C56	C	1.063554	-0.303145	-0.778065
C57	C	1.063575	-0.303112	-0.931781
C58	C	1.063584	-0.303093	-1.015115
C59	C	1.063544	-0.303164	-0.694726
C60	C	1.063470	-0.303238	-0.163344
C61	C	1.063593	-0.303079	-0.081545
H62	H	1.148835	-0.542855	-0.269202
C63	C	0.688753	-0.178240	-0.297526
C64	C	0.644525	-0.218621	-0.255931
H65	H	0.714830	-0.150882	-0.265643
H66	H	0.722632	-0.202245	-0.325496
H67	H	0.658787	-0.154199	-0.329639
H68	H	0.674492	-0.242666	-0.223821
H69	H	0.610642	-0.194614	-0.227948
H70	H	0.977971	-0.542879	-0.439840
H71	H	0.494130	-0.376379	-0.439801
H72	H	0.978133	-0.376146	-0.924602
C73	C	0.923258	-0.628786	-0.494527
C74	C	0.964605	-0.671515	-0.453259
H75	H	0.891315	-0.651098	-0.526446
H76	H	0.895115	-0.603187	-0.462434
H77	H	0.955305	-0.603101	-0.522699
H78	H	0.932558	-0.697196	-0.425083
H79	H	0.992750	-0.697124	-0.485356
H80	H	0.494127	-0.230118	-0.269336
H81	H	1.149009	-0.230076	-0.924678
H82	H	1.149015	-0.943694	-0.269285
C83	C	1.203619	-0.628752	-0.214540
C84	C	1.162307	-0.671490	-0.255829
H85	H	1.235575	-0.651057	-0.182627
H86	H	1.231746	-0.603073	-0.246620
H87	H	1.171550	-0.603150	-0.186361
H88	H	1.194375	-0.697090	-0.284011
H89	H	1.134177	-0.697181	-0.223744
C90	C	1.203800	-1.029585	-0.214632
C91	C	1.162493	-1.072327	-0.255920
H92	H	1.235761	-1.051887	-0.182720
H93	H	1.231923	-1.003902	-0.246712
H94	H	1.171729	-1.003987	-0.186451
H95	H	1.194564	-1.097923	-0.284105
H96	H	1.134368	-1.098021	-0.223835
H97	H	0.978199	-1.062989	-0.439942
C98	C	0.923395	-0.977093	-0.494582
C99	C	0.964715	-0.934352	-0.453305
H100	H	0.891422	-0.954791	-0.526480
H101	H	0.955453	-1.002689	-0.522769
H102	H	0.895279	-1.002780	-0.462488
H103	H	0.992835	-0.908669	-0.485399
H104	H	0.932653	-0.908746	-0.425116
H105	H	1.148995	-0.230109	-0.785251
C106	C	0.980540	-0.449993	-0.792744
C107	C	0.964692	-0.387654	-0.774194
H108	H	0.948583	-0.477315	-0.766642
H109	H	0.973803	-0.455743	-0.844006
H110	H	1.029981	-0.459200	-0.780152
H111	H	0.915252	-0.378446	-0.786792
H112	H	0.971423	-0.381902	-0.722921
C113	C	0.594546	-0.423234	-0.494417
C114	C	0.644511	-0.387857	-0.453175
H115	H	0.620622	-0.450581	-0.526303
H116	H	0.564546	-0.447282	-0.462305
H117	H	0.564593	-0.395831	-0.522622
H118	H	0.674461	-0.415261	-0.424966
H119	H	0.674525	-0.363807	-0.485290
