data_functionalizedCrystal
_audit_creation_method	'MofGen! by Chris Wilmer'
_symmetry_space_group_name_H-M	'P1'
_symmetry_Int_Tables_number	1
_symmetry_cell_setting	triclinic
loop_
_symmetry_equiv_pos_as_xyz
  x,y,z
_cell_length_a	12.759394
_cell_length_b	18.101398
_cell_length_c	12.759387
_cell_angle_alpha	89.987511
_cell_angle_beta	90.029786
_cell_angle_gamma	89.990626
loop_
_atom_site_label
_atom_site_type_symbol
_atom_site_fract_x
_atom_site_fract_y
_atom_site_fract_z
Zn1	Zn	-0.418357	-1.132235	0.593788
Zn2	Zn	-0.594074	-1.132158	0.418111
Zn3	Zn	-0.418393	-1.008385	0.418149
Zn4	Zn	-0.593978	-1.008380	0.593775
O5	O	-0.506201	-1.070289	0.505956
O6	O	-0.441691	-1.235857	0.570473
O7	O	-0.570825	-1.115709	0.271095
O8	O	-0.271368	-1.024848	0.441469
O9	O	-0.570789	-1.235801	0.441404
O10	O	-0.271341	-1.115840	0.570510
O11	O	-0.441753	-1.024774	0.271123
O12	O	-0.441661	-0.904751	0.441457
O13	O	-0.570627	-1.024839	0.740798
O14	O	-0.570662	-0.904748	0.570488
O15	O	-0.441598	-1.115835	0.740807
O16	O	-0.741082	-1.115704	0.441392
O17	O	-0.741012	-1.024765	0.570451
C18	C	-0.506156	-0.877879	0.505976
C19	C	-0.506162	-0.795565	0.506009
C20	C	-0.506218	-0.496474	0.505974
C21	C	-0.587775	-0.527821	0.586755
C22	C	-0.587522	-0.613440	0.587085
C23	C	-0.506191	-0.644856	0.505992
C24	C	-0.395528	-0.613781	0.536241
C25	C	-0.396016	-0.528136	0.536817
C26	C	-0.534349	-0.528021	0.394748
C27	C	-0.536779	-0.613672	0.395340
C28	C	-0.506169	-0.728716	0.506000
C29	C	-0.506233	-0.412614	0.505968
C30	C	-0.779168	-1.070246	0.505939
C31	C	-0.895945	-1.070295	0.505967
C32	C	-1.115582	-0.975702	0.371541
C33	C	-1.060818	-0.928344	0.304289
C34	C	-0.951096	-0.928301	0.304260
C35	C	-0.896137	-0.975621	0.371493
C36	C	-0.950902	-1.022979	0.438744
C37	C	-1.060626	-1.023018	0.438764
C38	C	-0.950710	-1.117653	0.573219
C39	C	-1.060431	-1.117700	0.573244
C40	C	-0.895750	-1.164972	0.640451
C41	C	-0.950515	-1.212335	0.707700
C42	C	-1.060243	-1.212376	0.707725
C43	C	-1.115196	-1.165058	0.640496
C44	C	-0.232167	-1.070353	0.505995
C45	C	-0.115391	-1.070380	0.506012
C46	C	-0.506098	-1.070345	0.779989
C47	C	-0.506054	-1.070369	0.896766
C48	C	-0.506242	-0.263451	0.505943
C49	C	-0.506247	-0.345765	0.505956
C50	C	-0.506227	-1.070276	0.232988
C51	C	-0.505975	-1.070396	0.116212
C52	C	-0.371705	-1.165129	0.896796
C53	C	-0.304515	-1.212519	0.951671
C54	C	-0.304477	-1.212537	1.061393
C55	C	-0.371634	-1.165158	1.116241
C56	C	-0.438824	-1.117768	1.061366
C57	C	-0.438857	-1.117757	0.951642
C58	C	-0.573165	-1.023006	1.061336
C59	C	-0.573211	-1.022990	0.951615
C60	C	-0.640322	-0.975627	1.116185
C61	C	-0.707519	-0.928239	1.061309
C62	C	-0.707555	-0.928223	0.951581
C63	C	-0.640400	-0.975600	0.896739
H64	H	-0.569398	-0.506311	0.668691
H65	H	-0.568908	-0.633942	0.669495
C66	C	-0.890848	-0.876207	0.230287
C67	C	-0.770158	-0.876164	0.230264
C68	C	-0.709910	-0.824069	0.156292
C69	C	-0.770352	-0.772017	0.082344
C70	C	-0.891048	-0.772058	0.082364
C71	C	-0.951297	-0.824153	0.156336
H72	H	-0.725409	-0.914697	0.285007
H73	H	-0.620562	-0.824039	0.156277
H74	H	-0.725752	-0.733453	0.027586
H75	H	-0.935797	-0.733524	0.027621
H76	H	-1.040645	-0.824183	0.156351
H77	H	-1.204924	-0.975737	0.371549
C78	C	-0.781467	-0.876092	0.891221
C79	C	-0.855329	-0.823981	0.951557
C80	C	-0.929242	-0.771849	0.891202
C81	C	-0.929292	-0.771827	0.770512
C82	C	-0.855427	-0.823939	0.710170
C83	C	-0.781514	-0.876071	0.770525
H84	H	-0.855295	-0.823996	1.040905
H85	H	-0.983922	-0.733272	0.935872
H86	H	-0.984007	-0.733235	0.725834
H87	H	-0.855462	-0.823924	0.620822
H88	H	-0.726834	-0.914648	0.725855
H89	H	-0.371239	-0.635244	0.616666
C90	C	-0.311207	-0.641271	0.459238
C91	C	-0.319997	-0.622717	0.341771
C92	C	-0.235681	-0.650210	0.264765
C93	C	-0.142575	-0.696256	0.305225
C94	C	-0.133781	-0.714812	0.422698
C95	C	-0.218097	-0.687320	0.499704
H96	H	-0.388923	-0.588629	0.311814
H97	H	-0.242191	-0.636473	0.177803
H98	H	-0.080159	-0.716608	0.248221
H99	H	-0.064855	-0.748901	0.452655
H100	H	-0.211587	-0.701057	0.586666
H101	H	-0.618211	-0.633992	0.372526
H102	H	-0.249759	-1.251122	1.106072
C103	C	-0.698998	-0.499984	0.561442
C104	C	-0.786826	-0.555600	0.536416
C105	C	-0.898049	-0.527754	0.511099
C106	C	-0.921444	-0.444292	0.510807
C107	C	-0.833614	-0.388672	0.535834
C108	C	-0.722391	-0.416518	0.561151
H109	H	-0.769509	-0.617387	0.536631
H110	H	-0.963066	-0.568928	0.492572
H111	H	-1.003778	-0.423679	0.492066
H112	H	-0.850931	-0.326884	0.535619
H113	H	-0.657373	-0.375343	0.579678
H114	H	-0.481691	-0.635058	0.331918
C115	C	-1.121276	-0.876296	0.230335
C116	C	-1.196735	-0.908447	0.147901
C117	C	-1.257190	-0.856399	0.073949
C118	C	-1.242186	-0.772201	0.082430
C119	C	-1.166724	-0.740046	0.164868
C120	C	-1.106269	-0.792094	0.238820
H121	H	-1.207845	-0.970779	0.141619
H122	H	-1.313053	-0.880202	0.012923
H123	H	-1.286939	-0.733672	0.027687
H124	H	-1.155614	-0.677714	0.171150
H125	H	-1.050406	-0.768291	0.299845
C126	C	-0.641495	-0.498841	0.357604
C127	C	-0.730997	-0.553321	0.333499
C128	C	-0.838149	-0.524140	0.296373
C129	C	-0.855799	-0.440480	0.283352
C130	C	-0.766295	-0.385994	0.307457
C131	C	-0.659143	-0.415175	0.344584
H132	H	-0.717933	-0.615256	0.343137
H133	H	-0.904405	-0.564474	0.278528
H134	H	-0.935119	-0.418879	0.255868
H135	H	-0.779358	-0.324059	0.297819
H136	H	-0.592886	-0.374841	0.362428
C137	C	-0.311136	-0.500114	0.460811
C138	C	-0.294266	-0.416541	0.445837
C139	C	-0.209382	-0.388523	0.369838
C140	C	-0.141368	-0.444078	0.308815
C141	C	-0.158237	-0.527656	0.323788
C142	C	-0.243120	-0.555674	0.399786
H143	H	-0.344615	-0.375411	0.491012
H144	H	-0.196895	-0.326653	0.358755
H145	H	-0.078533	-0.423338	0.252556
H146	H	-0.107887	-0.568786	0.278613
H147	H	-0.255607	-0.617545	0.410870
C148	C	-0.890061	-1.264381	0.781649
C149	C	-0.769371	-1.264330	0.781627
C150	C	-0.708913	-1.316377	0.855576
C151	C	-0.769144	-1.368475	0.929549
C152	C	-0.889841	-1.368528	0.929574
C153	C	-0.950299	-1.316480	0.855624
H154	H	-0.724778	-1.225763	0.726865
H155	H	-0.619565	-1.316338	0.855557
H156	H	-0.724389	-1.407004	0.984291
H157	H	-0.934434	-1.407095	0.984336
H158	H	-1.039647	-1.316520	0.855643
C159	C	-0.363794	-0.501162	0.646663
C160	C	-0.337797	-0.557550	0.733248
C161	C	-0.305577	-0.530580	0.843097
C162	C	-0.299354	-0.447222	0.866361
C163	C	-0.325352	-0.390829	0.779774
C164	C	-0.357572	-0.417799	0.669925
H165	H	-0.342403	-0.619261	0.716028
H166	H	-0.286332	-0.572327	0.907194
H167	H	-0.275503	-0.427258	0.947678
H168	H	-0.320745	-0.329118	0.796994
H169	H	-0.376817	-0.376052	0.605828
H170	H	-0.669584	-0.634451	0.568127
H171	H	-0.474943	-0.507748	0.334558
C172	C	-0.230646	-1.264635	0.891337
C173	C	-0.156738	-1.316761	0.951698
C174	C	-0.082866	-1.368875	0.891369
C175	C	-0.082903	-1.368863	0.770679
C176	C	-0.156814	-1.316735	0.710311
C177	C	-0.230686	-1.264621	0.770640
H178	H	-0.156708	-1.316772	1.041046
H179	H	-0.028152	-1.407463	0.936058
H180	H	-0.028219	-1.407440	0.726020
H181	H	-0.156844	-1.316724	0.620963
H182	H	-0.285399	-1.226032	0.725952
H183	H	-0.762187	-0.889663	1.105976
H184	H	-0.806796	-0.975576	0.371472
H185	H	-0.806409	-1.164931	0.640428
H186	H	-1.104826	-1.250934	0.762499
H187	H	-1.204537	-1.165089	0.640507
H188	H	-0.371740	-1.165126	0.807454
H189	H	-0.371588	-1.165171	1.205583
H190	H	-0.640282	-0.975642	1.205526
H191	H	-0.640428	-0.975595	0.807398
