data_functionalizedCrystal
_audit_creation_method	'MofGen! by Chris Wilmer'
_symmetry_space_group_name_H-M	'P1'
_symmetry_Int_Tables_number	1
_symmetry_cell_setting	triclinic
loop_
_symmetry_equiv_pos_as_xyz
  x,y,z
_cell_length_a	13.185408
_cell_length_b	14.519731
_cell_length_c	12.376457
_cell_angle_alpha	101.297478
_cell_angle_beta	82.594262
_cell_angle_gamma	67.831176
loop_
_atom_site_label
_atom_site_type_symbol
_atom_site_fract_x
_atom_site_fract_y
_atom_site_fract_z
O1	O	1.467323	-0.262963	-0.093908
O2	O	1.150022	-0.169537	-0.093932
O3	O	1.317071	-0.352581	-0.093909
O4	O	1.300274	-0.079919	-0.093931
O5	O	1.275323	-0.306872	0.094097
O6	O	1.108274	-0.123828	0.094074
O7	O	1.425576	-0.217254	0.094098
Zn8	Zn	1.260297	-0.163283	0.123936
Zn9	Zn	1.315301	-0.223507	-0.123770
O10	O	1.258527	-0.034209	0.094075
C11	C	1.088539	-0.137211	0.000068
C12	C	0.967539	-0.109001	0.000059
C13	C	0.897876	-0.008552	0.000049
C14	C	0.784186	0.017960	0.000057
C15	C	0.740149	-0.055976	0.000066
C16	C	0.809814	-0.156428	0.000069
C17	C	0.923513	-0.182941	0.000070
C18	C	0.765786	-0.230365	0.000087
C19	C	0.835451	-0.330817	0.000089
C20	C	0.949139	-0.357325	0.000089
C21	C	0.993176	-0.283389	0.000080
C22	C	0.652086	-0.203852	0.000086
C23	C	0.677724	-0.378241	0.000107
C24	C	0.791414	-0.404753	0.000099
C25	C	1.295410	-0.363889	0.000094
C26	C	1.293051	-0.465681	0.000095
C27	C	1.291134	-0.548347	0.000092
C28	C	1.288741	-0.652060	0.000083
C29	C	1.286842	-0.734727	0.000076
C30	C	1.284448	-0.838446	0.000069
C31	C	1.487058	-0.249580	0.000095
C32	C	1.608061	-0.277792	0.000097
C33	C	1.280188	-0.022902	0.000069
C34	C	1.282549	0.078888	0.000061
N35	N	1.222766	-0.122185	0.292989
N36	N	1.352840	-0.264615	-0.292823
C37	C	1.439961	-0.360036	0.648004
C38	C	1.466223	-0.388800	0.529668
C39	C	1.405361	-0.322149	0.470492
C40	C	1.318233	-0.226729	0.529665
C41	C	1.291974	-0.197959	0.648013
C42	C	1.257373	-0.160071	0.470501
C43	C	1.170245	-0.064651	0.529673
C44	C	1.143990	-0.035886	0.648010
C45	C	1.204853	-0.102538	0.707185
C46	C	1.283632	-0.188841	0.352153
C47	C	1.135645	-0.026764	0.352162
C48	C	1.109383	0.002000	0.470498
H49	H	1.354572	-0.266532	0.303985
C50	C	0.707563	0.128451	0.000053
C51	C	0.734292	0.173005	-0.097580
C52	C	0.657669	0.283504	-0.097583
C53	C	0.554316	0.349448	0.000047
C54	C	0.527583	0.304894	0.097688
C55	C	0.604206	0.194395	0.097691
H56	H	0.810804	0.124189	-0.169858
H57	H	0.677459	0.316485	-0.169863
H58	H	0.497595	0.431246	0.000045
H59	H	0.451071	0.353710	0.169966
H60	H	0.584415	0.161414	0.169971
H61	H	1.426747	-0.345572	0.374138
C62	C	0.946324	0.072762	0.000033
C63	C	0.999297	0.102246	0.097653
C64	C	1.047748	0.183565	0.097634
C65	C	1.043227	0.235402	-0.000005
C66	C	0.990252	0.205919	-0.097632
C67	C	0.941801	0.124599	-0.097614
H68	H	1.002645	0.063873	0.169938
H69	H	1.086963	0.205390	0.169905
H70	H	1.079093	0.295599	-0.000019
H71	H	0.986903	0.244292	-0.169917
H72	H	0.902586	0.102775	-0.169885
H73	H	1.085750	-0.304969	0.000077
C74	C	1.562052	-0.493756	0.464577
C75	C	1.629003	-0.567080	0.529652
C76	C	1.724836	-0.672043	0.464557
C77	C	1.753718	-0.703683	0.334387
C78	C	1.686767	-0.630358	0.269304
C79	C	1.590933	-0.525395	0.334399
H80	H	1.607623	-0.543660	0.626019
H81	H	1.774398	-0.726323	0.512737
H82	H	1.824660	-0.781383	0.286199
H83	H	1.708146	-0.653778	0.172937
H84	H	1.541371	-0.471115	0.286219
C85	C	1.506907	-0.433345	0.713093
C86	C	1.446133	-0.473513	0.794468
C87	C	1.513088	-0.546828	0.859556
C88	C	1.640816	-0.579975	0.843270
C89	C	1.701597	-0.539807	0.761892
C90	C	1.634642	-0.466491	0.696804
H91	H	1.351575	-0.448976	0.806527
H92	H	1.468093	-0.576563	0.919798
H93	H	1.690379	-0.634247	0.891453
H94	H	1.796155	-0.564344	0.749833
H95	H	1.679637	-0.436756	0.636562
H96	H	0.595376	-0.122062	0.000086
H97	H	0.641882	-0.438458	0.000063
H98	H	0.647576	-0.034383	0.000074
H99	H	1.183468	-0.079121	0.803544
H100	H	1.073054	0.041815	0.696188
H101	H	1.038441	0.079693	0.518691
H102	H	1.005855	-0.439116	0.000106
H103	H	0.848151	-0.486542	0.000101
H104	H	1.086087	0.027511	0.303982
