data_functionalizedCrystal
_audit_creation_method	'MofGen! by Chris Wilmer'
_symmetry_space_group_name_H-M	'P1'
_symmetry_Int_Tables_number	1
_symmetry_cell_setting	triclinic
loop_
_symmetry_equiv_pos_as_xyz
  x,y,z
_cell_length_a	12.645331
_cell_length_b	12.645330
_cell_length_c	12.645324
_cell_angle_alpha	90.031659
_cell_angle_beta	89.978020
_cell_angle_gamma	89.983329
loop_
_atom_site_label
_atom_site_type_symbol
_atom_site_fract_x
_atom_site_fract_y
_atom_site_fract_z
Zn1	Zn	1.620724	0.421989	-0.599446
Zn2	Zn	2.120724	0.921989	-0.099446
Zn3	Zn	1.620608	0.599298	-0.422186
Zn4	Zn	2.120608	1.099298	0.077814
Zn5	Zn	1.443441	0.422046	-0.422191
Zn6	Zn	1.943441	0.922046	0.077809
Zn7	Zn	1.443420	0.599208	-0.599402
Zn8	Zn	1.943420	1.099208	-0.099402
O9	O	1.532048	0.510635	-0.510806
O10	O	2.032048	1.010635	-0.010806
O11	O	1.769056	0.445523	-0.575949
O12	O	2.269056	0.945523	-0.075949
O13	O	1.597066	0.575846	-0.273840
O14	O	2.097066	1.075846	0.226160
O15	O	1.467015	0.273691	-0.445724
O16	O	1.967015	0.773691	0.054276
O17	O	1.768970	0.575791	-0.445717
O18	O	2.268970	1.075791	0.054283
O19	O	1.597264	0.273649	-0.575953
O20	O	2.097264	0.773649	-0.075953
O21	O	1.466902	0.445620	-0.273843
O22	O	1.966902	0.945620	0.226157
O23	O	1.295091	0.445533	-0.445681
O24	O	1.795091	0.945533	0.054319
O25	O	1.466980	0.575638	-0.747755
O26	O	1.966980	1.075638	-0.247755
O27	O	1.295076	0.575693	-0.575877
O28	O	1.795076	1.075693	-0.075877
O29	O	1.597244	0.445436	-0.747788
O30	O	2.097244	0.945436	-0.247788
O31	O	1.597046	0.747633	-0.445674
O32	O	2.097046	1.247633	0.054326
O33	O	1.466867	0.747567	-0.575873
O34	O	1.966867	1.247567	-0.075873
C35	C	1.531971	0.786065	-0.510791
C36	C	2.031971	1.286065	-0.010791
C37	C	1.532035	0.903895	-0.510821
C38	C	2.032035	1.403895	-0.010821
C39	C	1.256618	0.510610	-0.510776
C40	C	1.756618	1.010610	-0.010776
C41	C	1.138788	0.510625	-0.510788
C42	C	1.638788	1.010625	-0.010788
C43	C	1.532123	0.510520	-0.787312
C44	C	2.032123	1.010520	-0.287312
C45	C	1.532155	0.510471	-0.905142
C46	C	2.032155	1.010471	-0.405142
C47	C	0.971198	0.428364	-0.429333
C48	C	1.471198	0.928364	0.070667
C49	C	1.093758	0.428577	-0.428974
C50	C	1.593758	0.928577	0.071026
C51	C	1.094269	0.622302	-0.480273
C52	C	1.594269	1.122302	0.019727
C53	C	0.971670	0.621853	-0.479717
C54	C	1.471670	1.121853	0.020283
C55	C	0.971638	0.482270	-0.623072
C56	C	1.471638	0.982270	-0.123072
C57	C	1.094244	0.479775	-0.622448
C58	C	1.594244	0.979775	-0.122448
C59	C	1.808553	0.510661	-0.510838
C60	C	2.308553	1.010661	-0.010838
C61	C	1.926383	0.510672	-0.510851
C62	C	2.426383	1.010672	-0.010851
C63	C	1.532155	0.234130	-0.510844
C64	C	2.032155	0.734130	-0.010844
C65	C	1.532200	0.116300	-0.510861
C66	C	2.032200	0.616300	-0.010861
C67	C	1.450477	1.071461	-0.592982
C68	C	1.950477	1.571461	-0.092982
C69	C	1.450060	0.948902	-0.592717
C70	C	1.950060	1.448902	-0.092717
C71	C	1.501791	0.948501	-0.399099
C72	C	2.001791	1.448501	0.100901
C73	C	1.501293	1.071100	-0.399597
C74	C	2.001293	1.571100	0.100403
C75	C	1.644335	1.070983	-0.539475
C76	C	2.144335	1.570983	-0.039475
C77	C	1.643647	0.948375	-0.541918
C78	C	2.143647	1.448375	-0.041918
C79	C	1.614122	0.428544	-0.950044
C80	C	2.114122	0.928544	-0.450044
C81	C	1.614474	0.428758	-1.072604
C82	C	2.114474	0.928758	-0.572604
C83	C	1.562111	0.622241	-1.073023
C84	C	2.062111	1.122241	-0.573023
C85	C	1.562675	0.621795	-0.950425
C86	C	2.062675	1.121795	-0.450425
C87	C	1.420090	0.481547	-0.950312
C88	C	1.920090	0.981547	-0.450312
C89	C	1.420721	0.479055	-1.072919
C90	C	1.920721	0.979055	-0.572919
C91	C	1.532035	0.510673	-0.235377
C92	C	2.032035	1.010673	0.264623
C93	C	1.532208	0.510423	-0.117547
C94	C	2.032208	1.010423	0.382453
H95	H	1.123859	0.345764	-0.448100
H96	H	1.623859	0.845764	0.051900
H97	H	1.595790	0.345859	-1.102711
H98	H	2.095790	0.845859	-0.602711
H99	H	0.940352	0.446929	-0.346662
H100	H	1.440352	0.946929	0.153338
H101	H	1.367864	1.102363	-0.574266
H102	H	1.867864	1.602363	-0.074266
H103	H	1.468982	0.918738	-0.675558
H104	H	1.968982	1.418738	-0.175558
H105	H	1.123437	0.685267	-0.537783
H106	H	1.623437	1.185267	-0.037783
H107	H	1.559427	0.919352	-0.336240
H108	H	2.059427	1.419352	0.163760
H109	H	1.123037	0.447350	-0.345814
H110	H	1.623037	0.947350	0.154186
H111	H	0.943025	0.645937	-0.397678
H112	H	1.443025	1.145937	0.102322
H113	H	1.705221	1.099979	-0.479663
H114	H	2.205221	1.599979	0.020337
H115	H	0.942025	0.685255	-0.536502
H116	H	1.442025	1.185255	-0.036502
H117	H	0.942658	0.542220	-0.683810
H118	H	1.442658	1.042220	-0.183810
H119	H	1.123347	0.397593	-0.645458
H120	H	1.623347	0.897593	-0.145458
H121	H	1.124925	0.646800	-0.399115
H122	H	1.624925	1.146800	0.100885
H123	H	0.941734	0.345302	-0.448254
H124	H	1.441734	0.845302	0.051746
H125	H	1.558234	1.100766	-0.336324
H126	H	2.058234	1.600766	0.163676
H127	H	1.671924	1.101817	-0.619558
H128	H	2.171924	1.601817	-0.119558
H129	H	1.666455	0.919216	-0.624140
H130	H	2.166455	1.419216	-0.124140
H131	H	0.940741	0.402256	-0.650823
H132	H	1.440741	0.902256	-0.150823
H133	H	1.124900	0.535351	-0.686433
H134	H	1.624900	1.035351	-0.186433
H135	H	1.469226	1.100863	-0.676094
H136	H	1.969226	1.600863	-0.176094
H137	H	1.644582	0.646259	-0.921841
H138	H	2.144582	1.146259	-0.421841
H139	H	1.419321	1.099793	-0.375357
H140	H	1.919321	1.599793	0.124643
H141	H	1.595658	0.345394	-0.920588
H142	H	2.095658	0.845394	-0.420588
H143	H	1.366928	0.919668	-0.573760
H144	H	1.866928	1.419668	-0.073760
H145	H	1.707742	0.917733	-0.486462
H146	H	2.207742	1.417733	0.013538
H147	H	1.392770	0.401415	-0.919395
H148	H	1.892770	0.901415	-0.419395
H149	H	1.696689	0.447486	-0.919250
H150	H	2.196689	0.947486	-0.419250
H151	H	1.420673	0.917892	-0.374420
H152	H	1.920673	1.417892	0.125580
H153	H	1.697528	0.447919	-1.101946
H154	H	2.197528	0.947919	-0.601946
H155	H	1.505525	0.684917	-0.920717
H156	H	2.005525	1.184917	-0.420717
H157	H	1.398163	0.396765	-1.102023
H158	H	1.898163	0.896765	-0.602023
H159	H	1.504254	0.684938	-1.102130
H160	H	2.004254	1.184938	-0.602130
H161	H	1.643118	0.647130	-1.103763
H162	H	2.143118	1.147130	-0.603763
H163	H	1.356430	0.534332	-1.103509
H164	H	1.856430	1.034332	-0.603509
H165	H	1.359024	0.541214	-0.921269
H166	H	1.859024	1.041214	-0.421269
