data_functionalizedCrystal
_audit_creation_method	'MofGen! by Chris Wilmer'
_symmetry_space_group_name_H-M	'P1'
_symmetry_Int_Tables_number	1
_symmetry_cell_setting	triclinic
loop_
_symmetry_equiv_pos_as_xyz
  x,y,z
_cell_length_a	26.374263
_cell_length_b	26.373608
_cell_length_c	26.370205
_cell_angle_alpha	60.005297
_cell_angle_beta	60.010839
_cell_angle_gamma	59.993700
loop_
_atom_site_label
_atom_site_type_symbol
_atom_site_fract_x
_atom_site_fract_y
_atom_site_fract_z
O1	O	0.070152	-0.740800	0.619517
O2	O	0.026377	-0.576764	0.499159
O3	O	0.130245	-0.680560	0.499088
O4	O	-0.033715	-0.637003	0.619589
O5	O	0.164701	-0.646107	0.533470
O6	O	0.060833	-0.542310	0.533541
O7	O	0.104608	-0.706346	0.653899
Cu8	Cu	0.085867	-0.621182	0.596859
Cu9	Cu	0.045119	-0.661927	0.556199
O10	O	0.000741	-0.602549	0.653971
N11	N	0.114528	-0.592529	0.625461
N12	N	0.016463	-0.690587	0.527598
C13	C	0.181428	-0.355400	0.692330
C14	C	0.181530	-0.525690	0.862573
C15	C	0.181440	-0.525667	0.692313
C16	C	0.351736	-0.525673	0.692271
C17	C	0.200174	-0.411588	0.711047
C18	C	0.200232	-0.506954	0.806384
C19	C	0.295546	-0.506943	0.711016
C20	C	0.200182	-0.506940	0.711037
C21	C	0.157567	-0.283881	0.668507
C22	C	0.157587	-0.549500	0.668479
C23	C	0.224035	-0.483107	0.734871
C24	C	0.455739	-0.507754	0.637520
C25	C	0.520749	-0.529425	0.615835
C26	C	0.520768	-0.634611	0.655947
C27	C	0.455759	-0.612939	0.677633
C28	C	0.173240	-0.251367	0.604595
C29	C	0.151546	-0.186351	0.582941
C30	C	0.098512	-0.186369	0.689113
C31	C	0.120206	-0.251385	0.710768
C32	C	0.093669	-0.533798	0.684205
C33	C	0.071992	-0.555464	0.662532
C34	C	0.178144	-0.608536	0.609422
C35	C	0.199825	-0.586869	0.631088
C36	C	0.093821	-0.533842	0.966616
C37	C	0.072187	-0.555526	1.031630
C38	C	0.178370	-0.608608	1.031591
C39	C	0.200004	-0.586926	0.966576
C40	C	0.157728	-0.549541	0.934090
C41	C	0.423247	-0.549509	0.668416
C42	C	-0.097522	-0.709158	0.508557
C43	C	-0.002050	-0.709295	0.413344
C44	C	-0.002241	-0.804604	0.508735
C45	C	-0.002225	-0.709288	0.508793
C46	C	-0.026009	-0.733087	0.484858
N47	N	0.552340	-0.592538	0.625346
O48	O	0.750867	-0.598274	0.477076
O49	O	0.751048	-0.718989	0.640960
O50	O	0.750981	-0.718715	0.537020
O51	O	0.750934	-0.598547	0.581017
O52	O	0.647701	-0.684348	0.571512
O53	O	0.647768	-0.684622	0.675452
O54	O	0.647587	-0.563907	0.511569
Cu55	Cu	0.638247	-0.621127	0.596660
Cu56	Cu	0.760388	-0.661769	0.555869
O57	O	0.647654	-0.564181	0.615509
N58	N	0.846295	-0.690358	0.527176
N59	N	0.114503	-0.154778	0.625499
O60	O	-0.033701	0.043855	0.619632
O61	O	0.130190	0.043858	0.498933
O62	O	0.026233	0.043841	0.499224
O63	O	0.070257	0.043872	0.619341
O64	O	0.060690	-0.059448	0.533654
O65	O	0.164647	-0.059431	0.533363
O66	O	0.000756	-0.059434	0.654062
Cu67	Cu	0.085848	-0.068863	0.596857
Cu68	Cu	0.045099	0.053287	0.556138
O69	O	0.104714	-0.059417	0.653771
N70	N	0.016435	0.139202	0.527497
N71	N	0.114760	-0.592585	1.063190
O72	O	0.108896	-0.740779	1.261808
O73	O	-0.011787	-0.576838	1.261822
O74	O	-0.011509	-0.680779	1.261780
O75	O	0.108618	-0.636838	1.261850
O76	O	0.022916	-0.646341	1.158496
O77	O	0.022638	-0.542399	1.158538
O78	O	0.143321	-0.706341	1.158524
Cu79	Cu	0.086123	-0.621225	1.149100
Cu80	Cu	0.045411	-0.661953	1.271246
O81	O	0.143044	-0.602399	1.158566
N82	N	0.016774	-0.690600	1.357156
C83	C	0.039504	-0.538867	0.499769
C84	C	0.168130	-0.667407	0.499680
C85	C	0.091482	-0.744243	0.653289
C86	C	-0.037145	-0.615703	0.653378
C87	C	0.699429	-0.718429	0.678853
C88	C	0.699348	-0.718091	0.550135
C89	C	0.699202	-0.564465	0.473677
C90	C	0.699287	-0.564805	0.602393
C91	C	0.168023	-0.007659	0.499484
C92	C	0.039327	-0.007807	0.499887
C93	C	-0.037119	-0.007789	0.653468
C94	C	0.091620	-0.007770	0.653109
C95	C	-0.011194	-0.538964	1.210181
C96	C	-0.010843	-0.667676	1.210109
C97	C	0.142729	-0.744214	1.210165
C98	C	0.142386	-0.615494	1.210214
H99	H	0.020147	-0.542732	1.058106
C100	C	-0.099904	-0.603252	0.703859
C101	C	-0.110871	-0.553347	0.718069
C102	C	-0.168674	-0.541865	0.764575
H103	H	-0.131550	-0.593386	0.689661
H104	H	-0.100024	-0.639182	0.739973
H105	H	-0.110757	-0.517425	0.681962
H106	H	-0.079240	-0.563199	0.732277
H107	H	-0.168793	-0.577796	0.800689
H108	H	-0.200315	-0.532002	0.750372
H109	H	-0.176120	-0.508008	0.774227
H110	H	0.699278	-0.527058	0.611808
H111	H	-0.084187	-0.007791	0.691362
C112	C	0.699526	-0.768896	0.741641
C113	C	0.699549	-0.746640	0.779971
C114	C	0.699647	-0.793115	0.837812
H115	H	0.663537	-0.780235	0.760311
H116	H	0.735574	-0.804178	0.736206
H117	H	0.663504	-0.711369	0.785407
H118	H	0.735535	-0.735305	0.761320
H119	H	0.735695	-0.828397	0.832377
H120	H	0.663658	-0.804451	0.856477
H121	H	0.699668	-0.778023	0.863824
C122	C	0.555920	-0.483988	0.582273
C123	C	0.513534	-0.423797	0.578827
C124	C	0.545911	-0.381924	0.547903
H125	H	0.581301	-0.494782	0.604373
H126	H	0.581249	-0.485612	0.541523
H127	H	0.488216	-0.422174	0.619570
H128	H	0.488152	-0.412983	0.556722
H129	H	0.571240	-0.383549	0.507153
H130	H	0.571291	-0.392725	0.570006
H131	H	0.517158	-0.341080	0.545556
C132	C	0.230688	-0.007411	0.448853
C133	C	0.258152	-0.060449	0.432118
C134	C	0.315885	-0.060251	0.385488
H135	H	0.225124	0.028640	0.413619
H136	H	0.256792	-0.007360	0.463814
H137	H	0.232054	-0.060494	0.417155
H138	H	0.263732	-0.096509	0.467337
H139	H	0.341989	-0.060201	0.400449
H140	H	0.310315	-0.024198	0.350258
H141	H	0.334529	-0.096239	0.374131
C142	C	0.192692	-0.603043	1.210359
C143	C	0.209239	-0.645339	1.263505
C144	C	0.255574	-0.633882	1.263663
H145	H	0.228057	-0.607690	1.174384
H146	H	0.177528	-0.561931	1.210400
H147	H	0.224405	-0.686441	1.263458
H148	H	0.173889	-0.640699	1.299488
H149	H	0.240410	-0.592770	1.263705
H150	H	0.290934	-0.638529	1.227687
H151	H	0.266802	-0.662574	1.299725
C152	C	0.026664	-0.007871	0.449665
C153	C	-0.033956	-0.007901	0.472196
C154	C	-0.045636	-0.007978	0.425956
H155	H	0.031231	0.028129	0.414309
H156	H	0.055291	-0.043913	0.438379
H157	H	-0.062575	0.028138	0.483473
H158	H	-0.038537	-0.043898	0.507547
H159	H	-0.017009	-0.044021	0.414670
H160	H	-0.041066	0.028023	0.390602
H161	H	-0.086765	-0.008004	0.441238
C162	C	0.699337	-0.768339	0.537477
C163	C	0.699268	-0.745813	0.476861
C164	C	0.699249	-0.792080	0.465181
H165	H	0.735367	-0.803670	0.542033
H166	H	0.663330	-0.779665	0.566112
H167	H	0.735271	-0.734495	0.448233
H168	H	0.663240	-0.710487	0.472290
H169	H	0.663242	-0.803407	0.493817
H170	H	0.735280	-0.827409	0.469740
H171	H	0.699197	-0.776801	0.424055
C172	C	-0.061171	-0.680065	1.209926
C173	C	-0.077694	-0.637733	1.156773
C174	C	-0.124060	-0.649122	1.156589
H175	H	-0.046060	-0.721157	1.209872
H176	H	-0.096533	-0.675402	1.245909
H177	H	-0.042338	-0.642402	1.120800
H178	H	-0.092816	-0.596638	1.156816
H179	H	-0.159422	-0.644458	1.192572
H180	H	-0.108944	-0.690214	1.156537
H181	H	-0.135280	-0.620398	1.120528
H182	H	0.100832	-0.791364	0.691090
C183	C	0.104316	-0.007804	0.703363
C184	C	0.164950	-0.007819	0.680847
C185	C	0.176672	-0.007863	0.727128
H186	H	0.075726	0.028202	0.714712
H187	H	0.099735	-0.043840	0.738680
H188	H	0.169525	0.028213	0.645540
H189	H	0.193553	-0.043823	0.669502
H190	H	0.172091	-0.043900	0.762445
H191	H	0.148079	0.028143	0.738474
H192	H	0.217815	-0.007880	0.711859
C193	C	-0.061649	-0.476154	1.210216
C194	C	-0.039403	-0.437835	1.210256
C195	C	-0.085867	-0.379973	1.210296
H196	H	-0.072964	-0.457489	1.174201
H197	H	-0.096943	-0.481563	1.246241
H198	H	-0.004120	-0.432425	1.174234
H199	H	-0.028092	-0.456480	1.246267
H200	H	-0.121160	-0.385382	1.246321
H201	H	-0.097179	-0.361314	1.174281
H202	H	-0.070781	-0.353968	1.210329
C203	C	0.699155	-0.514016	0.410872
C204	C	0.699157	-0.536280	0.372534
C205	C	0.699120	-0.489825	0.314672
H206	H	0.663129	-0.478713	0.416253
H207	H	0.735166	-0.502710	0.392241
H208	H	0.663150	-0.547576	0.391161
H209	H	0.735180	-0.571576	0.367135
H210	H	0.735131	-0.478520	0.296041
H211	H	0.663093	-0.454526	0.320060
H212	H	0.699127	-0.504926	0.288651
H213	H	0.180620	-0.791296	1.210154
H214	H	0.059391	-0.503396	0.940172
H215	H	0.212798	-0.639038	1.058038
H216	H	0.252044	-0.599714	0.940097
H217	H	0.059274	-0.503369	0.714648
H218	H	0.019945	-0.542665	0.675322
C219	C	0.230924	-0.679665	0.449194
C220	C	0.258214	-0.637284	0.432626
C221	C	0.316056	-0.648552	0.386115
H222	H	0.257048	-0.720745	0.464191
H223	H	0.225520	-0.674967	0.413878
H224	H	0.263621	-0.641988	0.467935
H225	H	0.232108	-0.596201	0.417619
H226	H	0.310652	-0.643854	0.350799
H227	H	0.342175	-0.689632	0.401117
H228	H	0.334577	-0.619795	0.374864
C229	C	0.223973	-0.649211	0.568922
C230	C	0.214665	-0.706599	0.598308
C231	C	0.256872	-0.744082	0.561018
H232	H	0.217738	-0.629425	0.529954
H233	H	0.265157	-0.655503	0.562671
H234	H	0.173491	-0.700306	0.604552
H235	H	0.220906	-0.726402	0.637274
H236	H	0.298056	-0.750374	0.554766
H237	H	0.250633	-0.724291	0.522051
H238	H	0.250566	-0.783026	0.580953
C239	C	0.269246	-0.603999	0.613965
C240	C	0.301595	-0.641370	0.576589
C241	C	0.365545	-0.657165	0.560806
H242	H	0.279966	-0.567280	0.591878
H243	H	0.279965	-0.626094	0.650703
H244	H	0.290881	-0.619275	0.539857
H245	H	0.290894	-0.678097	0.598663
H246	H	0.376264	-0.679260	0.597544
H247	H	0.376259	-0.620442	0.538721
H248	H	0.387502	-0.682527	0.535450
H249	H	0.547237	-0.686258	0.663446
C250	C	0.420596	-0.658371	0.711136
C251	C	0.462990	-0.718554	0.714546
C252	C	0.430621	-0.760423	0.745397
H253	H	0.395250	-0.656796	0.751892
H254	H	0.395234	-0.647528	0.688987
H255	H	0.488342	-0.729394	0.736696
H256	H	0.488338	-0.720149	0.673800
H257	H	0.405259	-0.749580	0.723248
H258	H	0.405276	-0.758843	0.786150
H259	H	0.459380	-0.801261	0.747710
H260	H	0.429268	-0.456103	0.630015
H261	H	0.164306	-0.159876	0.530897
C262	C	0.213768	-0.286535	0.558613
C263	C	0.222831	-0.244142	0.498004
C264	C	0.260156	-0.276519	0.455631
H265	H	0.252779	-0.311897	0.564761
H266	H	0.193920	-0.311885	0.564828
H267	H	0.242680	-0.218802	0.491791
H268	H	0.183832	-0.218778	0.491836
H269	H	0.240308	-0.301869	0.461846
H270	H	0.299164	-0.301880	0.461784
H271	H	0.266305	-0.247760	0.414503
H272	H	0.068098	-0.159910	0.723527
H273	H	0.107441	-0.277854	0.762810
H274	H	0.030155	-0.491745	0.461969
