data_functionalizedCrystal
_audit_creation_method	'MofGen! by Chris Wilmer'
_symmetry_space_group_name_H-M	'P1'
_symmetry_Int_Tables_number	1
_symmetry_cell_setting	triclinic
loop_
_symmetry_equiv_pos_as_xyz
  x,y,z
_cell_length_a	16.109302
_cell_length_b	10.967829
_cell_length_c	15.186229
_cell_angle_alpha	102.131627
_cell_angle_beta	90.005299
_cell_angle_gamma	84.099565
loop_
_atom_site_label
_atom_site_type_symbol
_atom_site_fract_x
_atom_site_fract_y
_atom_site_fract_z
O1	O	1.104075	0.160397	0.097606
O2	O	0.862131	0.180356	0.100628
O3	O	0.988683	-0.011276	0.071548
O4	O	0.977523	0.352029	0.126685
O5	O	0.988674	-0.011278	-0.074910
O6	O	0.862122	0.180354	-0.045830
O7	O	1.104067	0.160394	-0.048852
Zn8	Zn	0.983093	0.170374	-0.070594
Zn9	Zn	0.983104	0.170377	0.122370
O10	O	0.977515	0.352026	-0.019772
C11	C	0.831147	0.179546	0.027275
C12	C	0.738837	0.177122	0.026905
C13	C	0.526459	0.171515	-0.053772
C14	C	0.439725	0.169223	-0.054116
C15	C	0.439745	0.169232	0.105561
C16	C	0.526478	0.171515	0.105903
C17	C	0.569832	0.172662	0.026235
C18	C	0.396366	0.168088	0.025548
C19	C	0.302325	0.165604	0.025175
C20	C	0.663878	0.175144	0.026608
C21	C	0.987866	-0.057766	-0.008734
C22	C	0.985434	-0.196290	-0.029752
C23	C	0.984355	-0.258041	0.036748
C24	C	0.981842	-0.401212	0.015026
C25	C	1.135051	0.161204	0.024503
C26	C	1.227360	0.163629	0.024879
C27	C	0.978332	0.398517	0.060512
C28	C	0.980763	0.537041	0.081536
N29	N	0.983092	0.170370	-0.202287
C30	C	1.039148	0.085544	-0.440882
C31	C	1.039151	0.085541	-0.533072
C32	C	0.927050	0.255201	-0.507336
C33	C	0.927044	0.255197	-0.415149
C34	C	0.983098	0.170370	-0.381924
C35	C	0.983106	0.170371	-0.566302
C36	C	0.983109	0.170368	-0.666258
C37	C	0.983095	0.170370	-0.281961
N38	N	0.983113	0.170370	0.254062
H39	H	0.404435	0.168300	0.170424
C40	C	0.392014	0.167967	-0.142125
C41	C	0.296612	0.165448	-0.142510
C42	C	0.248902	0.164190	-0.230523
C43	C	0.296593	0.165451	-0.318150
C44	C	0.392001	0.167970	-0.317768
C45	C	0.439711	0.169228	-0.229755
H46	H	0.261304	0.164514	-0.077640
H47	H	0.178275	0.162325	-0.230805
H48	H	0.261275	0.164520	-0.383303
H49	H	0.427310	0.168904	-0.382638
H50	H	0.510338	0.171093	-0.229473
H51	H	0.881413	0.324266	-0.534397
H52	H	0.561755	0.172449	-0.118642
C53	C	0.984170	-0.268047	-0.128393
C54	C	1.056546	-0.264477	-0.193731
C55	C	1.055282	-0.336231	-0.292375
C56	C	0.981641	-0.411554	-0.325680
C57	C	0.909259	-0.415127	-0.260341
C58	C	0.910524	-0.343373	-0.161698
H59	H	1.111065	-0.208716	-0.169077
H60	H	1.108864	-0.333585	-0.340743
H61	H	0.980705	-0.464670	-0.398702
H62	H	0.854741	-0.470889	-0.284995
H63	H	0.856942	-0.346019	-0.113330
C64	C	1.100799	-0.007772	-0.404336
C65	C	1.162449	-0.101084	-0.469194
C66	C	1.224100	-0.194406	-0.432652
C67	C	1.224101	-0.194417	-0.331250
C68	C	1.162448	-0.101102	-0.266385
C69	C	1.100797	-0.007780	-0.302928
H70	H	1.162451	-0.101078	-0.544263
H71	H	1.269739	-0.263484	-0.480670
H72	H	1.269738	-0.263500	-0.304199
H73	H	1.162447	-0.101107	-0.191316
H74	H	1.055158	0.061298	-0.254910
C75	C	0.980578	-0.472964	-0.083620
C76	C	0.906937	-0.548288	-0.116925
C77	C	0.905673	-0.620041	-0.215569
C78	C	0.978049	-0.616471	-0.280907
C79	C	1.051695	-0.541145	-0.247602
C80	C	1.052960	-0.469391	-0.148958
H81	H	0.853355	-0.550933	-0.068557
H82	H	0.851155	-0.675803	-0.240223
H83	H	0.977113	-0.669587	-0.353929
H84	H	1.105278	-0.538500	-0.295970
H85	H	1.107478	-0.413630	-0.124305
C86	C	0.574194	0.172778	0.193918
C87	C	0.571100	0.064178	0.243304
C88	C	0.618816	0.065436	0.331313
C89	C	0.669626	0.175293	0.369936
C90	C	0.672721	0.283901	0.320550
C91	C	0.625005	0.282644	0.232541
H92	H	0.533486	-0.017152	0.214713
H93	H	0.616524	-0.014964	0.367872
H94	H	0.704948	0.176224	0.435086
H95	H	0.710335	0.365231	0.349141
H96	H	0.627297	0.363043	0.195982
H97	H	0.985288	-0.204913	0.109762
C98	C	0.982027	-0.391212	0.180183
C99	C	1.055668	-0.315891	0.213493
C100	C	1.056932	-0.244146	0.312139
C101	C	0.984556	-0.247722	0.377475
C102	C	0.910910	-0.323046	0.344166
C103	C	0.909645	-0.394792	0.245520
H104	H	1.109250	-0.313241	0.165126
H105	H	1.111450	-0.188386	0.336795
H106	H	0.985492	-0.194611	0.450498
H107	H	0.857327	-0.325696	0.392533
H108	H	0.855127	-0.450552	0.220864
H109	H	1.084791	0.016467	-0.581075
H110	H	0.881397	0.324272	-0.367141
