data_functionalizedCrystal
_audit_creation_method	'MofGen! by Chris Wilmer'
_symmetry_space_group_name_H-M	'P1'
_symmetry_Int_Tables_number	1
_symmetry_cell_setting	triclinic
loop_
_symmetry_equiv_pos_as_xyz
  x,y,z
_cell_length_a	19.288867
_cell_length_b	19.288865
_cell_length_c	17.766277
_cell_angle_alpha	89.988397
_cell_angle_beta	89.992126
_cell_angle_gamma	83.136658
loop_
_atom_site_label
_atom_site_type_symbol
_atom_site_fract_x
_atom_site_fract_y
_atom_site_fract_z
O1	O	0.921352	0.086655	-0.062576
O2	O	0.719092	0.098343	-0.062585
O3	O	0.826066	-0.008631	-0.062566
O4	O	0.814378	0.193629	-0.062596
O5	O	0.826048	-0.008637	0.062623
O6	O	0.719073	0.098337	0.062604
O7	O	0.921333	0.086650	0.062612
Cu8	Cu	0.820201	0.092493	0.074039
Cu9	Cu	0.820224	0.092500	-0.074011
O10	O	0.814359	0.193624	0.062593
C11	C	0.693206	0.097964	0.000009
C12	C	0.616102	0.096834	0.000006
C13	C	0.060547	0.088701	-0.068224
C14	C	0.132995	0.089758	-0.068227
C15	C	0.169213	0.090287	0.000013
C16	C	0.132980	0.089741	0.068261
C17	C	0.060535	0.088676	0.068262
C18	C	0.278533	0.132652	0.052287
C19	C	0.350976	0.133721	0.052283
C20	C	0.392659	0.093566	0.000012
C21	C	0.361888	0.052352	-0.052267
C22	C	0.289443	0.051288	-0.052266
C23	C	0.247768	0.091440	0.000019
C24	C	0.507439	0.095254	-0.068235
C25	C	0.579889	0.096306	-0.068235
C26	C	0.579872	0.096296	0.068255
C27	C	0.507425	0.095236	0.068253
C28	C	0.471213	0.094718	0.000006
C29	C	0.825681	-0.034510	0.000031
C30	C	0.824552	-0.111614	0.000038
C31	C	0.887320	-0.156310	0.000044
C32	C	0.886259	-0.228757	0.000032
C33	C	0.822427	-0.256505	0.000029
C34	C	0.759651	-0.211799	0.000018
C35	C	0.760713	-0.139354	0.000023
C36	C	0.772241	-0.364795	0.043877
C37	C	0.771181	-0.437239	0.043878
C38	C	0.819147	-0.479951	0.000012
C39	C	0.868185	-0.450210	-0.043845
C40	C	0.869248	-0.377765	-0.043840
C41	C	0.821268	-0.335059	0.000024
C42	C	0.880769	-0.603202	0.000004
C43	C	0.879706	-0.675650	-0.000013
C44	C	0.753096	-0.658691	-0.000019
C45	C	0.754161	-0.586245	-0.000010
C46	C	0.818000	-0.558505	0.000005
C47	C	0.947219	0.087029	0.000017
C48	C	1.024323	0.088159	0.000015
C49	C	0.814744	0.219503	-0.000005
C50	C	0.815873	0.296607	-0.000017
N51	N	0.820191	0.092488	0.178169
N52	N	0.820240	0.092499	-0.178142
C53	C	0.867575	0.045143	0.217564
C54	C	0.867579	0.045140	0.296366
C55	C	0.820206	0.092494	0.335769
C56	C	0.772813	0.139842	0.296364
C57	C	0.772806	0.139839	0.217564
C58	C	0.810907	0.155781	0.460598
C59	C	0.810919	0.155785	0.539397
C60	C	0.820224	0.092502	0.578816
C61	C	0.829532	0.029213	0.539426
C62	C	0.829525	0.029210	0.460626
C63	C	0.820208	0.092502	0.421215
C64	C	0.867615	0.045150	0.703657
C65	C	0.867614	0.045146	0.782460
C66	C	0.772852	0.139854	0.782457
C67	C	0.772849	0.139852	0.703655
C68	C	0.820234	0.092501	0.664260
H69	H	0.162494	0.090203	-0.123798
H70	H	0.703049	-0.549852	-0.000011
C71	C	0.691668	-0.090183	0.000017
H72	H	0.701443	-0.043064	0.000017
H73	H	0.665473	-0.098582	0.043668
H74	H	0.665494	-0.098562	-0.043649
H75	H	0.031041	0.088238	0.123832
C76	C	0.839752	-0.040401	0.417298
H77	H	0.845390	-0.078091	0.452053
H78	H	0.880137	-0.041868	0.386463
H79	H	0.800023	-0.044192	0.386655
C80	C	0.919689	-0.006948	0.174234
H81	H	0.947905	-0.035150	0.208987
H82	H	0.948519	0.017961	0.143476
H83	H	0.894787	-0.035804	0.143512
H84	H	0.909175	-0.353553	-0.079551
H85	H	0.376021	0.167297	0.094837
C86	C	0.957539	-0.125799	0.000047
H87	H	0.994770	-0.162799	0.000041
H88	H	0.960582	-0.097897	0.043702
H89	H	0.960590	-0.097886	-0.043616
H90	H	0.395825	0.019656	-0.094833
H91	H	0.701123	-0.681283	-0.000025
H92	H	0.734277	0.178407	0.814539
C93	C	0.955306	-0.277931	0.000044
H94	H	0.993477	-0.251034	0.000058
H95	H	0.957534	-0.306539	-0.043611
H96	H	0.957508	-0.306550	0.043707
C97	C	0.919724	-0.006941	0.660316
H98	H	0.912940	-0.000157	0.607742
H99	H	0.912327	-0.053278	0.673244
H100	H	0.966059	0.000486	0.673217
C101	C	0.467601	0.094676	-0.143299
H102	H	0.419265	0.093974	-0.133526
H103	H	0.484898	0.054356	-0.171335
H104	H	0.474054	0.135353	-0.171342
H105	H	0.906165	0.006585	0.328448
C106	C	0.800682	0.225397	0.582721
H107	H	0.802027	0.216337	0.635297
H108	H	0.756795	0.250273	0.569813
H109	H	0.836920	0.252525	0.569788
H110	H	0.731248	-0.461447	0.079584
C111	C	0.800676	0.225397	0.417244
H112	H	0.795145	0.263089	0.451987
H113	H	0.760227	0.226910	0.386511
H114	H	0.840354	0.229144	0.386496
H115	H	0.837109	-0.022318	0.571520
C116	C	0.920955	-0.497180	-0.092098
H117	H	0.950314	-0.469093	-0.118209
H118	H	0.896537	-0.522218	-0.127371
H119	H	0.948582	-0.529204	-0.060471
C120	C	0.232688	0.176829	0.109785
H121	H	0.261386	0.201535	0.140911
H122	H	0.208349	0.147086	0.140026
H123	H	0.200050	0.209132	0.083885
C124	C	0.950985	-0.572682	0.000011
H125	H	0.942629	-0.523134	0.000023
H126	H	0.976828	-0.588026	-0.043645
H127	H	0.976814	-0.588050	0.043672
C128	C	0.172817	0.090325	0.143323
H129	H	0.221150	0.091044	0.133549
H130	H	0.166368	0.049653	0.171368
H131	H	0.155514	0.130650	0.171356
H132	H	0.733179	-0.330024	0.079602
C133	C	0.689437	-0.242319	0.000017
H134	H	0.697794	-0.291867	0.000024
H135	H	0.663607	-0.226955	-0.043639
H136	H	0.663597	-0.226971	0.043678
H137	H	0.930821	-0.712042	-0.000012
H138	H	0.609382	0.096743	-0.123805
C139	C	0.619704	0.096877	0.143318
H140	H	0.668038	0.097592	0.133545
H141	H	0.613251	0.056206	0.171364
H142	H	0.602403	0.137203	0.171351
C143	C	0.919740	-0.006935	0.825796
H144	H	0.947962	-0.035129	0.791044
H145	H	0.894855	-0.035790	0.856550
H146	H	0.948573	0.017988	0.856521
C147	C	0.720734	0.191939	0.660318
H148	H	0.692524	0.220146	0.695069
H149	H	0.691899	0.167028	0.629590
H150	H	0.745631	0.220791	0.629567
C151	C	0.720706	0.191932	0.339705
H152	H	0.727502	0.185158	0.392278
H153	H	0.674374	0.184506	0.326807
H154	H	0.728105	0.238272	0.326773
H155	H	0.734220	0.178394	0.185488
H156	H	0.031068	0.088276	-0.123797
H157	H	0.264393	0.017728	-0.094833
H158	H	0.477930	0.094797	0.123821
