data_functionalizedCrystal
_audit_creation_method	'MofGen! by Chris Wilmer'
_symmetry_space_group_name_H-M	'P1'
_symmetry_Int_Tables_number	1
_symmetry_cell_setting	triclinic
loop_
_symmetry_equiv_pos_as_xyz
  x,y,z
_cell_length_a	14.853567
_cell_length_b	14.519709
_cell_length_c	13.930277
_cell_angle_alpha	89.994503
_cell_angle_beta	89.995755
_cell_angle_gamma	83.657538
loop_
_atom_site_label
_atom_site_type_symbol
_atom_site_fract_x
_atom_site_fract_y
_atom_site_fract_z
O1	O	1.196415	0.120405	-0.079767
O2	O	0.933961	0.134748	-0.079783
O3	O	1.072147	-0.006665	-0.079766
O4	O	1.058230	0.261817	-0.079784
O5	O	1.072128	-0.006668	0.079896
O6	O	0.933942	0.134745	0.079878
O7	O	1.196396	0.120402	0.079895
Zn8	Zn	1.065166	0.127573	0.105236
Zn9	Zn	1.065191	0.127577	-0.105125
O10	O	1.058210	0.261814	0.079878
C11	C	0.900363	0.134096	0.000045
C12	C	0.800278	0.132149	0.000039
C13	C	0.387709	0.039914	0.000067
C14	C	0.366493	0.207916	0.000055
C15	C	0.460527	0.209747	0.000052
C16	C	0.518157	0.126660	0.000055
C17	C	0.481752	0.041743	0.000061
C18	C	0.496939	0.294663	0.000035
C19	C	0.590979	0.296498	0.000031
C20	C	0.648610	0.213410	0.000041
C21	C	0.612200	0.128489	0.000049
C22	C	0.669830	0.045403	0.000052
C23	C	0.633422	-0.039520	0.000066
C24	C	0.539383	-0.041345	0.000071
C25	C	0.742649	0.215235	0.000036
C26	C	0.763873	0.047231	0.000046
C27	C	1.071488	-0.041026	0.000065
C28	C	1.069545	-0.143407	0.000065
C29	C	1.062390	-0.518299	0.000040
C30	C	1.064377	-0.413992	0.000047
C31	C	1.065967	-0.330856	0.000054
C32	C	1.067955	-0.226543	0.000059
C33	C	1.229994	0.121053	0.000064
C34	C	1.330079	0.123001	0.000064
C35	C	1.058869	0.296175	0.000044
C36	C	1.060812	0.398556	0.000038
N37	N	1.065155	0.127569	0.248803
N38	N	1.065209	0.127573	-0.248691
C39	C	1.004000	0.190170	0.701064
C40	C	1.126407	0.064977	0.701049
C41	C	1.126396	0.064974	0.600553
C42	C	1.065188	0.127571	0.550308
C43	C	1.003989	0.190171	0.600559
C44	C	1.187599	0.002381	0.550295
C45	C	1.187592	0.002376	0.449793
C46	C	1.126378	0.064970	0.399546
C47	C	1.065177	0.127571	0.449803
C48	C	1.003968	0.190168	0.399558
C49	C	0.942762	0.252767	0.449814
C50	C	0.942776	0.252764	0.550312
C51	C	1.126364	0.064972	0.299047
C52	C	1.003957	0.190169	0.299053
H53	H	0.358060	-0.029228	0.000082
C54	C	1.192710	-0.003088	0.755654
C55	C	1.144598	-0.059639	0.813351
C56	C	1.205645	-0.122363	0.863663
H57	H	1.230316	0.030050	0.794926
H58	H	1.229144	-0.040428	0.711367
H59	H	1.108180	-0.022304	0.857633
H60	H	1.106996	-0.092798	0.774102
H61	H	1.242080	-0.159703	0.819376
H62	H	1.243248	-0.089217	0.902930
H63	H	1.173010	-0.160746	0.902809
H64	H	0.680356	-0.107168	0.000062
C65	C	0.826290	-0.043081	-0.000001
C66	C	0.774274	-0.117835	-0.000012
C67	C	0.831740	-0.201043	-0.000069
H68	H	0.863439	-0.045992	0.055656
H69	H	0.863399	-0.045910	-0.055706
H70	H	0.737181	-0.115007	0.055688
H71	H	0.737127	-0.114955	-0.055665
H72	H	0.868849	-0.203873	-0.055774
H73	H	0.868886	-0.203945	0.055590
H74	H	0.796456	-0.251774	-0.000085
C75	C	0.434262	0.384793	-0.000117
C76	C	0.379634	0.388634	-0.082239
C77	C	0.321870	0.471644	-0.082402
H78	H	0.469294	0.435708	-0.000177
H79	H	0.397087	0.387573	0.055538
H80	H	0.416804	0.385863	-0.137879
H81	H	0.344582	0.337738	-0.082196
H82	H	0.284695	0.474423	-0.026748
H83	H	0.356910	0.522552	-0.082460
H84	H	0.284792	0.474257	-0.138116
H85	H	1.237438	-0.048579	0.591208
C86	C	0.499679	-0.133445	0.000030
C87	C	0.404990	-0.117260	0.000004
C88	C	0.368380	-0.202080	-0.000049
H89	H	0.519344	-0.167735	0.055694
H90	H	0.519400	-0.167667	-0.055668
H91	H	0.385276	-0.083053	0.055697
H92	H	0.385300	-0.082985	-0.055655
H93	H	0.388102	-0.236301	-0.055748
H94	H	0.388051	-0.236362	0.055616
H95	H	0.304130	-0.191110	-0.000075
H96	H	1.237428	-0.048595	0.408882
C97	C	0.630547	0.388671	-0.000187
C98	C	0.683895	0.394638	-0.082348
C99	C	0.720347	0.479542	-0.082591
H100	H	0.666851	0.392980	0.055421
H101	H	0.582776	0.437914	-0.000245
H102	H	0.731660	0.345410	-0.082281
H103	H	0.647611	0.390346	-0.137969
H104	H	0.672576	0.528784	-0.082649
H105	H	0.756647	0.483843	-0.026980
H106	H	0.756541	0.483605	-0.138340
C107	C	0.782231	0.307398	-0.000176
C108	C	0.835585	0.313362	-0.082332
C109	C	0.872052	0.398258	-0.082565
H110	H	0.818533	0.311696	0.055435
H111	H	0.734466	0.356647	-0.000234
H112	H	0.883343	0.264126	-0.082266
H113	H	0.799304	0.309080	-0.137957
H114	H	0.824287	0.447507	-0.082623
H115	H	0.908350	0.402549	-0.026950
H116	H	0.908250	0.402319	-0.138311
C117	C	0.303819	0.298048	-0.000099
C118	C	0.249200	0.301896	-0.082228
C119	C	0.191440	0.384909	-0.082394
H120	H	0.338855	0.348960	-0.000151
H121	H	0.266638	0.300827	0.055551
H122	H	0.286376	0.299126	-0.137863
H123	H	0.214144	0.251003	-0.082193
H124	H	0.154259	0.387689	-0.026744
H125	H	0.226484	0.435815	-0.082444
H126	H	0.154369	0.387528	-0.138113
C127	C	0.937460	0.258238	0.244679
C128	C	0.883881	0.313068	0.310203
C129	C	0.822623	0.375791	0.260149
H130	H	0.899794	0.225101	0.205477
H131	H	0.969922	0.296744	0.205488
H132	H	0.851421	0.274567	0.349377
H133	H	0.921522	0.346225	0.349406
H134	H	0.855085	0.414297	0.220958
H135	H	0.784963	0.342646	0.220949
H136	H	0.786268	0.413006	0.304599
H137	H	0.892929	0.303738	0.408893
H138	H	0.892944	0.303730	0.591236
H139	H	0.954164	0.241134	0.741984
C140	C	1.192849	-0.003085	0.244658
C141	C	1.246445	-0.057915	0.310171
C142	C	1.307695	-0.120633	0.260104
H143	H	1.230505	0.030056	0.205436
H144	H	1.160381	-0.041592	0.205487
H145	H	1.278911	-0.019414	0.349326
H146	H	1.208814	-0.091077	0.349395
H147	H	1.275226	-0.159140	0.220933
H148	H	1.345345	-0.087484	0.220884
H149	H	1.344061	-0.157848	0.304547
