data_functionalizedCrystal
_audit_creation_method	'MofGen! by Chris Wilmer'
_symmetry_space_group_name_H-M	'P1'
_symmetry_Int_Tables_number	1
_symmetry_cell_setting	triclinic
loop_
_symmetry_equiv_pos_as_xyz
  x,y,z
_cell_length_a	16.109301
_cell_length_b	16.109301
_cell_length_c	9.730223
_cell_angle_alpha	89.994178
_cell_angle_beta	89.999429
_cell_angle_gamma	83.461481
loop_
_atom_site_label
_atom_site_type_symbol
_atom_site_fract_x
_atom_site_fract_y
_atom_site_fract_z
O1	O	1.103130	0.106867	-0.114207
O2	O	1.603130	0.606867	0.385793
O3	O	0.861068	0.120166	-0.114230
O4	O	1.361068	0.620166	0.385770
O5	O	0.988749	-0.007514	-0.114204
O6	O	1.488749	0.492486	0.385796
O7	O	0.975450	0.234548	-0.114233
O8	O	1.475450	0.734548	0.385767
O9	O	0.988741	-0.007518	0.114376
O10	O	1.488741	0.492482	0.614376
O11	O	0.861060	0.120163	0.114350
O12	O	1.361060	0.620163	0.614350
O13	O	1.103122	0.106863	0.114373
O14	O	1.603122	0.606863	0.614373
Zn15	Zn	0.982090	0.113513	0.150653
Zn16	Zn	1.482090	0.613513	0.650653
Zn17	Zn	0.982101	0.113517	-0.150511
Zn18	Zn	1.482101	0.613517	0.349489
O19	O	0.975442	0.234544	0.114347
O20	O	1.475442	0.734544	0.614347
C21	C	0.830090	0.119626	0.000057
C22	C	1.330090	0.619626	0.500057
C23	C	0.737794	0.118011	0.000049
C24	C	1.237794	0.618011	0.500049
C25	C	0.988206	-0.038491	0.000087
C26	C	1.488206	0.461509	0.500087
C27	C	0.986591	-0.130786	0.000088
C28	C	1.486591	0.369214	0.500088
C29	C	0.515522	0.190018	0.000057
C30	C	1.015522	0.690018	0.500057
C31	C	0.428801	0.188494	0.000066
C32	C	0.928801	0.688494	0.500066
C33	C	0.448676	0.037006	0.000078
C34	C	0.948676	0.537006	0.500078
C35	C	0.535394	0.038530	0.000079
C36	C	1.035394	0.538530	0.500079
C37	C	0.568815	0.115039	0.000061
C38	C	1.068815	0.615039	0.500061
C39	C	0.395376	0.111990	0.000069
C40	C	0.895376	0.611990	0.500069
C41	C	0.301350	0.110337	0.000079
C42	C	0.801350	0.610337	0.500079
C43	C	0.662847	0.116693	0.000054
C44	C	1.162847	0.616693	0.500054
C45	C	1.058599	-0.353059	0.000073
C46	C	1.558599	0.146941	0.500073
C47	C	1.057075	-0.439779	0.000062
C48	C	1.557075	0.060221	0.500062
C49	C	0.905586	-0.419905	0.000053
C50	C	1.405586	0.080095	0.500053
C51	C	0.907111	-0.333186	0.000055
C52	C	1.407111	0.166814	0.500055
C53	C	0.983620	-0.299766	0.000072
C54	C	1.483620	0.200234	0.500072
C55	C	0.980571	-0.473205	0.000059
C56	C	1.480571	0.026795	0.500059
C57	C	0.978918	-0.567231	0.000046
C58	C	1.478918	-0.067231	0.500046
C59	C	0.985273	-0.205734	0.000082
C60	C	1.485273	0.294266	0.500082
C61	C	1.134101	0.107404	0.000082
C62	C	1.634101	0.607404	0.500082
C63	C	1.226397	0.109019	0.000081
C64	C	1.726397	0.609019	0.500081
C65	C	0.975984	0.265521	0.000053
C66	C	1.475984	0.765521	0.500053
C67	C	0.977600	0.357816	0.000042
C68	C	1.477600	0.857816	0.500042
N69	N	0.982089	0.113509	0.356190
N70	N	1.482089	0.613509	0.856190
N71	N	0.982109	0.113514	-0.356047
N72	N	1.482109	0.613514	0.143953
C73	C	1.038645	0.056996	0.428127
C74	C	1.538645	0.556996	0.928127
C75	C	1.038653	0.056996	0.572010
C76	C	1.538653	0.556996	1.072010
C77	C	0.925547	0.170030	0.572006
C78	C	1.425547	0.670030	1.072006
C79	C	0.925535	0.170025	0.428125
C80	C	1.425535	0.670025	0.928125
H81	H	0.385413	0.249550	0.000065
H82	H	0.885413	0.749550	0.500065
O83	O	0.831197	-0.452233	-0.000015
O84	O	1.331197	0.047767	0.499985
C85	C	0.765345	-0.386596	0.000014
C86	C	1.265345	0.113404	0.500014
H87	H	0.788638	-0.327691	-0.043259
H88	H	1.288638	0.172309	0.456741
H89	H	0.711932	-0.404698	-0.066352
H90	H	1.211932	0.095302	0.433648
H91	H	0.742215	-0.374325	0.109674
H92	H	1.242215	0.125675	0.609674
H93	H	0.421454	-0.025285	0.000101
H94	H	0.921454	0.474715	0.500101
H95	H	0.879476	0.216045	0.369550
H96	H	1.379476	0.716045	0.869550
H97	H	1.120897	-0.325851	0.000084
H98	H	1.620897	0.174149	0.500084
O99	O	0.834294	-0.281377	-0.000190
O100	O	1.334294	0.218623	0.499810
C101	C	0.830659	-0.230602	-0.118558
C102	C	1.330659	0.269398	0.381442
H103	H	0.873183	-0.262372	-0.201297
H104	H	1.373183	0.237628	0.298703
H105	H	0.763687	-0.220824	-0.158302
H106	H	1.263687	0.279176	0.341698
H107	H	0.852166	-0.167551	-0.091794
H108	H	1.352166	0.332449	0.408206
H109	H	1.118130	-0.483168	0.000060
H110	H	1.618130	0.016832	0.500060
H111	H	1.084705	0.010977	0.630578
H112	H	1.584705	0.510977	1.130578
H113	H	1.084693	0.010976	0.369561
H114	H	1.584693	0.510976	0.869561
O115	O	0.547849	0.264408	0.000112
O116	O	1.047849	0.764408	0.500112
C117	C	0.482211	0.330259	0.000078
C118	C	0.982211	0.830259	0.500078
H119	H	0.423309	0.306963	0.043353
H120	H	0.923309	0.806963	0.543353
H121	H	0.500316	0.383670	0.066440
H122	H	1.000316	0.883670	0.566440
H123	H	0.469932	0.353392	-0.109584
H124	H	0.969932	0.853392	0.390416
O125	O	0.587051	-0.034386	0.000021
O126	O	1.087051	0.465614	0.500021
C127	C	0.538960	-0.102241	0.000059
C128	C	1.038960	0.397759	0.500059
H129	H	0.474231	-0.081126	-0.043221
H130	H	0.974231	0.418874	0.456779
H131	H	0.570970	-0.154772	-0.066298
H132	H	1.070970	0.345228	0.433702
H133	H	0.532792	-0.125696	0.109722
H134	H	1.032792	0.374304	0.609722
H135	H	0.879503	0.216046	0.630590
H136	H	1.379503	0.716046	1.130590
