data_functionalizedCrystal
_audit_creation_method	'MofGen! by Chris Wilmer'
_symmetry_space_group_name_H-M	'P1'
_symmetry_Int_Tables_number	1
_symmetry_cell_setting	triclinic
loop_
_symmetry_equiv_pos_as_xyz
  x,y,z
_cell_length_a	16.120530
_cell_length_b	11.169416
_cell_length_c	11.169409
_cell_angle_alpha	89.969126
_cell_angle_beta	92.920596
_cell_angle_gamma	92.893829
loop_
_atom_site_label
_atom_site_type_symbol
_atom_site_fract_x
_atom_site_fract_y
_atom_site_fract_z
Zn1	Zn	1.274670	0.570869	0.771606
Zn2	Zn	1.274593	0.771604	0.570923
Zn3	Zn	1.135242	0.560749	0.560762
Zn4	Zn	1.135248	0.761319	0.761395
O5	O	1.204938	0.666135	0.666172
O6	O	1.391327	0.606036	0.753510
O7	O	1.256074	0.743702	0.401622
O8	O	1.153768	0.394144	0.588752
O9	O	1.391271	0.753515	0.606069
O10	O	1.256205	0.401579	0.743658
O11	O	1.153693	0.588788	0.394158
O12	O	1.018576	0.578815	0.578851
O13	O	1.153777	0.735986	0.930702
O14	O	1.018580	0.726173	0.726255
O15	O	1.256210	0.596063	0.938204
O16	O	1.256079	0.938187	0.596168
O17	O	1.153702	0.930631	0.736107
C18	C	0.988327	0.650281	0.650343
C19	C	0.895660	0.643528	0.643601
C20	C	1.205002	0.666007	0.979219
C21	C	1.205030	0.665952	1.112621
C22	C	1.204905	0.977957	0.666160
C23	C	1.204967	1.111362	0.666201
C24	C	0.725996	0.631170	0.631300
C25	C	0.684722	0.701189	0.701130
C26	C	0.590315	0.694313	0.694286
C27	C	0.820411	0.638044	0.638143
C28	C	1.422395	0.682052	0.682062
C29	C	1.515063	0.688835	0.688834
C30	C	1.204994	0.353097	0.666211
C31	C	1.205018	0.219699	0.666228
C32	C	1.204923	0.666180	0.354346
C33	C	1.205057	0.665909	0.220956
H34	H	0.720288	0.766297	0.766056
C35	C	0.678429	0.544482	0.544765
C36	C	0.592892	0.554850	0.555070
C37	C	0.549038	0.475027	0.475361
H38	H	0.692559	0.464819	0.563383
H39	H	0.692566	0.562983	0.465075
H40	H	0.578761	0.536341	0.634742
H41	H	0.578738	0.634495	0.536442
H42	H	0.563175	0.493528	0.395671
H43	H	0.563175	0.395370	0.493986
H44	H	0.490997	0.482059	0.482335
