data_functionalizedCrystal
_audit_creation_method	'MofGen! by Chris Wilmer'
_symmetry_space_group_name_H-M	'P1'
_symmetry_Int_Tables_number	1
_symmetry_cell_setting	triclinic
loop_
_symmetry_equiv_pos_as_xyz
  x,y,z
_cell_length_a	17.077404
_cell_length_b	16.625545
_cell_length_c	17.077396
_cell_angle_alpha	90.028053
_cell_angle_beta	89.980223
_cell_angle_gamma	89.980577
loop_
_atom_site_label
_atom_site_type_symbol
_atom_site_fract_x
_atom_site_fract_y
_atom_site_fract_z
Zn1	Zn	1.200048	0.321101	-0.443851
Zn2	Zn	1.199953	0.455944	-0.312586
Zn3	Zn	1.068780	0.321118	-0.312598
Zn4	Zn	1.068745	0.455884	-0.443809
O5	O	1.134382	0.388512	-0.378211
O6	O	1.309883	0.339006	-0.426451
O7	O	1.182527	0.438091	-0.202740
O8	O	1.086248	0.208283	-0.330032
O9	O	1.309812	0.438074	-0.330011
O10	O	1.182690	0.208271	-0.426463
O11	O	1.086155	0.339035	-0.202749
O12	O	0.958929	0.338977	-0.329991
O13	O	1.086189	0.437973	-0.553661
O14	O	0.958903	0.437990	-0.426391
O15	O	1.182656	0.338948	-0.553692
O16	O	1.182493	0.568768	-0.329970
O17	O	1.086096	0.568725	-0.426379
C18	C	0.930434	0.388479	-0.378188
C19	C	0.843184	0.388485	-0.378197
C20	C	0.467377	0.440183	-0.428350
C21	C	0.549357	0.440172	-0.428338
C22	C	0.590335	0.388533	-0.378223
C23	C	0.549328	0.336907	-0.328112
C24	C	0.467349	0.336922	-0.328120
C25	C	0.720198	0.336877	-0.328099
C26	C	0.802183	0.336861	-0.328091
C27	C	0.802206	0.440128	-0.428316
C28	C	0.720227	0.440143	-0.428325
C29	C	0.679226	0.388515	-0.378214
C30	C	1.134302	0.598003	-0.378186
C31	C	1.134339	0.687624	-0.378201
C32	C	1.134468	1.015799	-0.378295
C33	C	1.134429	0.924491	-0.378271
C34	C	1.134403	0.851714	-0.378248
C35	C	1.134366	0.760400	-0.378225
C36	C	1.339126	0.388545	-0.378234
C37	C	1.426376	0.388559	-0.378244
C38	C	1.134429	0.388452	-0.582955
C39	C	1.134449	0.388427	-0.670205
C40	C	1.134477	1.178203	-0.378263
C41	C	1.134500	1.088582	-0.378308
C42	C	1.184682	0.336860	-0.711213
C43	C	1.184691	0.336834	-0.793193
C44	C	1.134472	0.388378	-0.834165
C45	C	1.084234	0.439947	-0.793151
C46	C	1.084221	0.439969	-0.711172
C47	C	1.084265	0.439898	-0.964021
C48	C	1.084279	0.439877	-1.046006
C49	C	1.184736	0.336763	-1.046042
C50	C	1.184723	0.336785	-0.964063
C51	C	1.134486	0.388355	-0.923056
C52	C	1.134380	0.388513	-0.174263
C53	C	1.134511	0.388311	-0.087014
H54	H	0.582699	0.294865	-0.287304
O55	O	0.846386	0.281172	-0.274036
H56	H	0.804104	0.245283	-0.239183
H57	H	1.225640	0.294771	-1.079435
H58	H	0.686866	0.482188	-0.469136
O59	O	1.238852	0.281264	-0.667030
H60	H	1.278772	0.317370	-0.629687
O61	O	0.423120	0.281238	-0.274082
H62	H	0.465385	0.245321	-0.239238
H63	H	1.043308	0.481952	-0.677785
H64	H	1.043384	0.481848	-1.079363
O65	O	0.423154	0.495879	-0.482382
H66	H	0.385783	0.536835	-0.447152
H67	H	0.835594	0.482163	-0.469120
O68	O	1.238890	0.281197	-0.919867
H69	H	1.273822	0.245329	-0.962153
O70	O	1.030077	0.495513	-0.919787
H71	H	0.995162	0.531356	-0.962048
H72	H	1.043341	0.481912	-0.826517
H73	H	1.225598	0.294845	-0.826578
O74	O	0.593583	0.495845	-0.482387
H75	H	0.551316	0.531746	-0.517245
H76	H	0.686817	0.294835	-0.287295
