data_functionalizedCrystal
_audit_creation_method	'MofGen! by Chris Wilmer'
_symmetry_space_group_name_H-M	'P1'
_symmetry_Int_Tables_number	1
_symmetry_cell_setting	triclinic
loop_
_symmetry_equiv_pos_as_xyz
  x,y,z
_cell_length_a	23.532407
_cell_length_b	23.532407
_cell_length_c	22.010155
_cell_angle_alpha	90.000423
_cell_angle_beta	89.996931
_cell_angle_gamma	97.151322
loop_
_atom_site_label
_atom_site_type_symbol
_atom_site_fract_x
_atom_site_fract_y
_atom_site_fract_z
O1	O	0.755264	-0.069127	-0.050455
O2	O	0.589400	-0.079130	-0.050474
O3	O	0.677334	0.008803	-0.050453
O4	O	0.667330	-0.157060	-0.050476
O5	O	0.677318	0.008790	0.050597
O6	O	0.589384	-0.079143	0.050576
O7	O	0.755248	-0.069140	0.050595
Cu8	Cu	0.672315	-0.074143	0.059812
Cu9	Cu	0.672333	-0.074127	-0.059691
O10	O	0.667314	-0.157073	0.050574
C11	C	0.568176	-0.078882	0.000049
C12	C	0.504959	-0.078116	0.000042
C13	C	0.105856	-0.125350	0.000063
C14	C	0.046456	-0.124638	0.000067
O15	O	0.009711	-0.168424	0.000083
N16	N	0.023830	-0.072362	0.000073
C17	C	0.060607	-0.020794	0.000082
O18	O	0.035908	0.023737	0.000088
C19	C	0.120006	-0.021506	0.000082
C20	C	0.142629	-0.073785	0.000070
C21	C	0.128479	-0.177625	0.000051
C22	C	0.187876	-0.178336	0.000046
C23	C	0.224649	-0.126772	0.000053
C24	C	0.202025	-0.074497	0.000065
C25	C	0.156783	0.030062	0.000096
C26	C	0.216185	0.029345	0.000097
C27	C	0.238808	-0.022934	0.000084
C28	C	0.298194	-0.023643	0.000067
N29	N	0.320820	-0.075920	0.000061
C30	C	0.284048	-0.127484	0.000054
C31	C	-0.064135	-0.019302	0.000082
C32	C	-0.123533	-0.018589	0.000077
C33	C	-0.137680	-0.122434	0.000063
C34	C	-0.078281	-0.123146	0.000064
C35	C	-0.041509	-0.071578	0.000076
C36	C	0.408784	-0.128974	0.000043
C37	C	0.468186	-0.129680	0.000035
C38	C	0.482329	-0.025836	0.000052
C39	C	0.422932	-0.025129	0.000057
C40	C	0.386160	-0.076702	0.000054
O41	O	0.334974	0.020119	0.000054
O42	O	0.308755	-0.172007	0.000055
C43	C	0.677071	0.030013	0.000074
C44	C	0.676305	0.093230	0.000078
C45	C	0.776472	-0.069388	0.000071
C46	C	0.839689	-0.070154	0.000073
C47	C	0.667577	-0.178283	0.000046
C48	C	0.668343	-0.241500	0.000037
N49	N	0.672305	-0.074153	0.143865
C50	C	0.723539	0.492333	0.000050
C51	C	0.722827	0.551733	0.000046
O52	O	0.766613	0.588478	0.000028
N53	N	0.670551	0.574359	0.000040
C54	C	0.618983	0.537582	0.000033
O55	O	0.574452	0.562281	0.000027
C56	C	0.619695	0.478182	0.000033
C57	C	0.671974	0.455560	0.000045
C58	C	0.775814	0.469710	0.000061
C59	C	0.776525	0.410313	0.000067
C60	C	0.724961	0.373540	0.000062
C61	C	0.672685	0.396164	0.000051
C62	C	0.568127	0.441406	0.000022
C63	C	0.568844	0.382004	0.000022
C64	C	0.621123	0.359381	0.000034
C65	C	0.621832	0.299995	0.000052
N66	N	0.674109	0.277368	0.000057
C67	C	0.725673	0.314141	0.000062
C68	C	0.617491	0.662324	0.000031
C69	C	0.616778	0.721722	0.000035
C70	C	0.720623	0.735869	0.000047
C71	C	0.721335	0.676470	0.000047
C72	C	0.669767	0.639698	0.000037
C73	C	0.727163	0.189405	0.000075
C74	C	0.727869	0.130003	0.000083
C75	C	0.624025	0.115860	0.000069
C76	C	0.623318	0.175257	0.000064
C77	C	0.674891	0.212029	0.000065
O78	O	0.578070	0.263215	0.000067
O79	O	0.770196	0.289433	0.000060
N80	N	0.672347	-0.074112	-0.143744
C81	C	0.711273	-0.035196	0.563653
C82	C	0.711275	-0.035192	0.627261
O83	O	0.744384	-0.002076	0.660160
N84	N	0.672333	-0.074115	0.659072
C85	C	0.633382	-0.113041	0.627272
O86	O	0.600259	-0.146148	0.660170
C87	C	0.633377	-0.113042	0.563665
C88	C	0.672326	-0.074120	0.531858
C89	C	0.750217	0.003723	0.531846
C90	C	0.750215	0.003719	0.468243
C91	C	0.711268	-0.035205	0.436447
C92	C	0.672324	-0.074125	0.468255
C93	C	0.594424	-0.151965	0.531866
C94	C	0.594422	-0.151962	0.468256
C95	C	0.633370	-0.113040	0.436448
C96	C	0.633374	-0.113054	0.372856
N97	N	0.672317	-0.074130	0.341045
C98	C	0.711263	-0.035206	0.372841
C99	C	0.633395	-0.113036	0.760850
C100	C	0.633402	-0.113039	0.824455
C101	C	0.711294	-0.035188	0.824440
C102	C	0.711290	-0.035189	0.760833
C103	C	0.672337	-0.074113	0.729039
C104	C	0.711256	-0.035220	0.239269
C105	C	0.711252	-0.035229	0.175660
C106	C	0.633358	-0.113077	0.175681
C107	C	0.633364	-0.113070	0.239284
C108	C	0.672315	-0.074136	0.271077
O109	O	0.600282	-0.146151	0.339916
O110	O	0.744376	-0.002100	0.339935
H111	H	-0.141947	0.023982	0.000078
H112	H	0.575496	0.632386	0.000028
C113	C	0.368342	-0.185704	0.000034
C114	C	0.370681	-0.228623	-0.052450
C115	C	0.330238	-0.285353	-0.052463
C116	C	0.287456	-0.299163	0.000008
C117	C	0.285115	-0.256243	0.052496
C118	C	0.325558	-0.199513	0.052509
H119	H	0.402352	-0.218401	-0.091296
H120	H	0.331971	-0.317125	-0.091319
H121	H	0.257518	-0.341158	-0.000002
H122	H	0.253444	-0.266465	0.091342
H123	H	0.323825	-0.167741	0.091365
H124	H	0.601650	-0.144771	0.149783
C125	C	0.590563	-0.155858	0.859439
C126	C	0.590558	-0.155862	0.929404
C127	C	0.547714	-0.198680	0.964386
C128	C	0.504876	-0.241494	0.929404
C129	C	0.504879	-0.241491	0.859435
C130	C	0.547722	-0.198673	0.824453
H131	H	0.622271	-0.124167	0.955304
H132	H	0.547712	-0.198681	1.016182
H133	H	0.473161	-0.273190	0.955300
H134	H	0.473166	-0.273186	0.833536
H135	H	0.547724	-0.198672	0.772658
H136	H	0.138375	0.072634	0.000106
H137	H	-0.059867	-0.165717	0.000057
H138	H	0.404512	0.017441	0.000058
C139	C	0.551576	-0.194776	0.566846
C140	C	0.573567	-0.238227	0.610572
C141	C	0.530716	-0.281039	0.645551
C142	C	0.465874	-0.280401	0.636804
C143	C	0.443879	-0.236949	0.593076
C144	C	0.486731	-0.194136	0.558097
H145	H	0.621570	-0.238701	0.617049
H146	H	0.546998	-0.313206	0.677922
H147	H	0.434153	-0.312093	0.662698
H148	H	0.395876	-0.236475	0.586599
H149	H	0.470449	-0.161970	0.525726
C150	C	0.754134	0.007633	0.859424
C151	C	0.796974	0.050453	0.824445
C152	C	0.839810	0.093271	0.859432
C153	C	0.839806	0.093270	0.929396
C154	C	0.796965	0.050449	0.964379
C155	C	0.754128	0.007631	0.929392
H156	H	0.796978	0.050455	0.772650
H157	H	0.871524	0.124970	0.833535
H158	H	0.871516	0.124967	0.955295
H159	H	0.796961	0.050447	1.016174
H160	H	0.722414	-0.024068	0.955289
H161	H	0.601676	-0.144737	0.734966
H162	H	0.817806	0.499645	0.000063
C163	C	-0.023688	0.037428	0.000084
C164	C	-0.026027	0.080356	0.052559
C165	C	0.014417	0.137085	0.052562
C166	C	0.057199	0.150885	0.000090
C167	C	0.059540	0.107956	-0.052389
C168	C	0.019096	0.051227	-0.052392
H169	H	-0.057698	0.070142	0.091406
H170	H	0.012684	0.168865	0.091411
H171	H	0.087138	0.192880	0.000092
H172	H	0.091212	0.118170	-0.091236
H173	H	0.020829	0.019447	-0.091241
H174	H	0.512280	0.016146	0.000056
H175	H	0.580748	0.193677	0.000071
H176	H	0.819097	0.391900	0.000074
C177	C	0.088036	-0.234352	0.000041
C178	C	0.090382	-0.277271	-0.052442
C179	C	0.049943	-0.334003	-0.052458
C180	C	0.007158	-0.347816	0.000010
C181	C	0.004810	-0.304896	0.052497
C182	C	0.045249	-0.248164	0.052512
H183	H	0.122056	-0.267047	-0.091286
H184	H	0.051681	-0.365775	-0.091313
H185	H	-0.022778	-0.389813	-0.000002
H186	H	-0.026864	-0.315120	0.091340
H187	H	0.043510	-0.216392	0.091367
C188	C	0.590523	-0.155888	0.274274
C189	C	0.525680	-0.155260	0.265526
C190	C	0.482834	-0.198075	0.300510
C191	C	0.504832	-0.241517	0.344241
C192	C	0.569679	-0.242146	0.352991
C193	C	0.612525	-0.199332	0.318008
H194	H	0.509393	-0.123100	0.233152
H195	H	0.434830	-0.197608	0.294032
H196	H	0.473115	-0.273211	0.370138
H197	H	0.585966	-0.274306	0.385365
H198	H	0.660529	-0.199798	0.324485
C199	C	0.256635	0.086072	0.000107
C200	C	0.254301	0.128996	0.052589
C201	C	0.294749	0.185722	0.052598
C202	C	0.337531	0.199524	0.000126
C203	C	0.339867	0.156600	-0.052359
C204	C	0.299419	0.099874	-0.052369
H205	H	0.222629	0.118779	0.091435
H206	H	0.293019	0.217497	0.091451
H207	H	0.367473	0.241516	0.000132
H208	H	0.371539	0.166816	-0.091206
H209	H	0.301148	0.068099	-0.091222
C210	C	0.783893	0.229847	0.000081
C211	C	0.826811	0.227512	0.052564
C212	C	0.883540	0.267954	0.052575
C213	C	0.897352	0.310733	0.000103
C214	C	0.854433	0.313070	-0.052384
C215	C	0.797704	0.272627	-0.052395
H216	H	0.816587	0.195843	0.091411
H217	H	0.915312	0.266224	0.091430
H218	H	0.939347	0.340671	0.000111
H219	H	0.864657	0.344738	-0.091231
H220	H	0.765932	0.274358	-0.091250
H221	H	0.562700	-0.183658	0.442372
C222	C	0.754130	0.007629	0.725848
C223	C	0.732126	0.051076	0.682127
C224	C	0.774967	0.093898	0.647146
C225	C	0.839812	0.093272	0.655886
C226	C	0.861819	0.049823	0.699610
C227	C	0.818978	0.007001	0.734591
H228	H	0.684121	0.051541	0.675655
H229	H	0.758676	0.126061	0.614779
H230	H	0.871525	0.124970	0.629991
H231	H	0.909824	0.049358	0.706081
H232	H	0.835269	-0.025163	0.766957
H233	H	0.486602	-0.172255	0.000025
H234	H	0.763906	0.658056	0.000056
C235	C	0.510615	0.466276	0.000006
C236	C	0.467866	0.452260	0.052467
C237	C	0.410349	0.477127	0.052449
C238	C	0.395582	0.516009	-0.000030
C239	C	0.438332	0.530026	-0.052495
C240	C	0.495849	0.505160	-0.052478
H241	H	0.478796	0.423476	0.091319
H242	H	0.378702	0.466750	0.091288
H243	H	0.353004	0.534416	-0.000043
H244	H	0.427402	0.558811	-0.091347
H245	H	0.527496	0.515537	-0.091316
H246	H	0.206289	-0.220908	0.000036
H247	H	0.762610	0.765821	0.000048
H248	H	-0.167632	-0.164421	0.000060
H249	H	0.742971	-0.003534	0.149765
C250	C	0.793053	0.046539	0.433258
C251	C	0.792462	0.111387	0.442009
C252	C	0.835300	0.154212	0.407028
C253	C	0.878729	0.132187	0.363295
C254	C	0.879322	0.067336	0.354542
C255	C	0.836484	0.024511	0.389523
H256	H	0.760311	0.127694	0.474384
H257	H	0.834861	0.202219	0.413508
H258	H	0.910440	0.163889	0.337400
H259	H	0.911473	0.051029	0.322167
H260	H	0.836923	-0.023496	0.383043
H261	H	0.781933	0.035423	0.557728
H262	H	0.770443	0.111587	0.000094
H263	H	0.574207	0.740136	0.000036
H264	H	0.582043	0.085909	0.000067
H265	H	0.742973	-0.003516	0.265148
H266	H	0.526850	0.352066	0.000013
