data_functionalizedCrystal
_audit_creation_method	'MofGen! by Chris Wilmer'
_symmetry_space_group_name_H-M	'P1'
_symmetry_Int_Tables_number	1
_symmetry_cell_setting	triclinic
loop_
_symmetry_equiv_pos_as_xyz
  x,y,z
_cell_length_a	14.044191
_cell_length_b	13.101039
_cell_length_c	17.699083
_cell_angle_alpha	86.645432
_cell_angle_beta	88.237396
_cell_angle_gamma	93.662449
loop_
_atom_site_label
_atom_site_type_symbol
_atom_site_fract_x
_atom_site_fract_y
_atom_site_fract_z
O1	O	1.262509	0.085168	0.178644
O2	O	1.762509	0.585168	0.678644
O3	O	0.986555	0.085181	0.172055
O4	O	1.486555	0.585181	0.672055
O5	O	1.132328	0.085165	0.065699
O6	O	1.632328	0.585165	0.565699
O7	O	1.116736	0.085184	0.285000
O8	O	1.616736	0.585184	0.785000
O9	O	1.121869	-0.085263	0.073343
O10	O	1.621869	0.414737	0.573343
O11	O	0.976096	-0.085247	0.179699
O12	O	1.476096	0.414753	0.679699
O13	O	1.252050	-0.085260	0.186289
O14	O	1.752050	0.414740	0.686289
Zn15	Zn	1.112412	-0.112313	0.184208
Zn16	Zn	1.612412	0.387687	0.684208
Zn17	Zn	1.126192	0.112234	0.174136
Zn18	Zn	1.626192	0.612234	0.674136
O19	O	1.106277	-0.085244	0.292645
O20	O	1.606277	0.414756	0.792645
C21	C	0.946018	-0.000032	0.172994
C22	C	1.446018	0.499968	0.672994
C23	C	0.840812	-0.000027	0.164396
C24	C	1.340812	0.499973	0.664396
N25	N	1.103014	-0.265561	0.191082
N26	N	1.603014	0.234439	0.691082
C27	C	0.590421	-0.000033	0.209657
C28	C	1.090421	0.499967	0.709657
C29	C	0.648190	-0.000037	0.148690
C30	C	1.148190	0.499963	0.648690
C31	C	0.755375	-0.000031	0.157431
C32	C	1.255375	0.499969	0.657431
C33	C	0.483226	-0.000039	0.200917
C34	C	0.983226	0.499961	0.700917
C35	C	1.090228	-0.474602	0.200441
C36	C	1.590228	0.025398	0.700441
C37	C	1.148381	-0.525484	0.157899
C38	C	1.648381	-0.025484	0.657899
C39	C	1.141266	-0.641801	0.163107
C40	C	1.641266	-0.141801	0.663107
C41	C	1.097341	-0.358274	0.195235
C42	C	1.597341	0.141726	0.695235
C43	C	1.292587	-0.000045	0.185349
C44	C	1.792587	0.499955	0.685349
C45	C	1.397793	-0.000043	0.193947
C46	C	1.897793	0.499957	0.693947
C47	C	1.126539	-0.000049	0.041286
C48	C	1.626539	0.499951	0.541286
C49	C	1.124863	-0.000049	-0.042848
C50	C	1.624863	0.499951	0.457152
N51	N	1.135598	0.265482	0.167256
N52	N	1.635598	0.765482	0.667256
C53	C	1.210429	-0.000055	-0.085565
C54	C	1.710429	0.499945	0.414435
C55	C	1.208849	-0.000046	-0.164617
C56	C	1.708849	0.499954	0.335383
C57	C	1.121702	-0.000038	-0.200952
C58	C	1.621702	0.499962	0.299048
C59	C	1.036130	-0.000030	-0.158230
C60	C	1.536130	0.499970	0.341770
C61	C	1.037711	-0.000032	-0.079179
C62	C	1.537711	0.499968	0.420821
C63	C	1.029750	-0.000021	-0.477034
C64	C	1.529750	0.499979	0.022966
C65	C	1.028175	-0.000023	-0.556090
C66	C	1.528175	0.499977	-0.056090
C67	C	1.200888	-0.000035	-0.562472
C68	C	1.700888	0.499965	-0.062472
C69	C	1.202469	-0.000037	-0.483421
C70	C	1.702469	0.499963	0.016579
C71	C	1.116898	-0.000023	-0.440706
C72	C	1.616898	0.499977	0.059294
C73	C	1.118612	-0.000031	-0.354988
C74	C	1.618612	0.499969	0.145012
C75	C	1.119986	-0.000038	-0.286668
C76	C	1.619986	0.499962	0.213332
C77	C	1.112065	-0.000028	0.317058
C78	C	1.612065	0.499972	0.817058
C79	C	1.113742	-0.000021	0.401192
C80	C	1.613742	0.499979	0.901192
H81	H	0.617154	0.000030	0.089926
H82	H	1.117154	0.500030	0.589926
Br83	Br	1.320744	-0.000046	-0.434114
Br84	Br	1.820744	0.499954	0.065886
Br85	Br	0.909895	-0.000014	-0.605401
Br86	Br	1.409895	0.499986	-0.105401
H87	H	0.621460	-0.000025	0.268413
H88	H	1.121460	0.499975	0.768413
H89	H	1.281394	-0.000067	-0.055987
H90	H	1.781394	0.499933	0.444013
Br91	Br	0.998349	-0.547592	0.267663
Br92	Br	1.498349	-0.047592	0.767663
Br93	Br	1.324979	-0.000053	-0.222587
Br94	Br	1.824979	0.499947	0.277413
H95	H	1.203510	-0.481687	0.117567
H96	H	1.703510	0.018313	0.617567
H97	H	1.270564	-0.000041	-0.597261
H98	H	1.770564	0.499959	-0.097261
H99	H	0.960072	-0.000010	-0.442264
H100	H	1.460072	0.499990	0.057736
H101	H	0.965173	-0.000018	-0.187820
H102	H	1.465173	0.499982	0.312180
H103	H	0.968035	-0.000027	-0.044400
H104	H	1.468035	0.499973	0.455600
