data_functionalizedCrystal
_audit_creation_method	'MofGen! by Chris Wilmer'
_symmetry_space_group_name_H-M	'P1'
_symmetry_Int_Tables_number	1
_symmetry_cell_setting	triclinic
loop_
_symmetry_equiv_pos_as_xyz
  x,y,z
_cell_length_a	10.686220
_cell_length_b	12.827892
_cell_length_c	10.685880
_cell_angle_alpha	94.339956
_cell_angle_beta	89.641569
_cell_angle_gamma	94.396976
loop_
_atom_site_label
_atom_site_type_symbol
_atom_site_fract_x
_atom_site_fract_y
_atom_site_fract_z
Zn1	Zn	1.972253	-0.326209	-0.562376
Zn2	Zn	1.956034	-0.488709	-0.352625
Zn3	Zn	1.746382	-0.328338	-0.368698
Zn4	Zn	1.762451	-0.515271	-0.578397
O5	O	1.859280	-0.414632	-0.465524
O6	O	2.145644	-0.335757	-0.521120
O7	O	1.914711	-0.457210	-0.179216
O8	O	1.776407	-0.181817	-0.394412
O9	O	2.133729	-0.455145	-0.367017
O10	O	1.942353	-0.180253	-0.536706
O11	O	1.760681	-0.339387	-0.191025
O12	O	1.572971	-0.365143	-0.409947
O13	O	1.803795	-0.500416	-0.751813
O14	O	1.584777	-0.502481	-0.564012
O15	O	1.957935	-0.361513	-0.740042
O16	O	1.930293	-0.638471	-0.382552
O17	O	1.788068	-0.657986	-0.548426
C18	C	1.533358	-0.436926	-0.490463
C19	C	1.393929	-0.446491	-0.501161
C20	C	1.859200	-0.686146	-0.465508
C21	C	1.859284	-0.802295	-0.465534
C22	C	1.929758	-0.844387	-0.383532
C23	C	1.929846	-0.964434	-0.383557
C24	C	2.186475	-0.392251	-0.440488
C25	C	2.325906	-0.382713	-0.429820
C26	C	1.884466	-0.433690	-0.792716
C27	C	1.895199	-0.441812	-0.932146
C28	C	1.859397	-0.142057	-0.465565
C29	C	1.859447	-0.025901	-0.465582
C30	C	1.834264	-0.395567	-0.139599
C31	C	1.823775	-0.387135	-0.000151
H32	H	1.374336	-0.320794	-0.360555
C33	C	1.779125	-0.872860	-0.559234
C34	C	1.856389	-0.935280	-0.634184
C35	C	1.782588	-1.000304	-0.720506
H36	H	1.734879	-0.831014	-0.610800
H37	H	1.720907	-0.916490	-0.515375
H38	H	1.914584	-0.891655	-0.678040
H39	H	1.900635	-0.977148	-0.582653
H40	H	1.724370	-1.043935	-0.676647
H41	H	1.738345	-0.958450	-0.772063
H42	H	1.834998	-1.042671	-0.771362
C43	C	1.329128	-0.528965	-0.593492
C44	C	1.199081	-0.522359	-0.586135
C45	C	1.139348	-0.598305	-0.671180
H46	H	1.348962	-0.596683	-0.573460
H47	H	1.356978	-0.517231	-0.676215
H48	H	1.171241	-0.534100	-0.503430
H49	H	1.179211	-0.454657	-0.606178
H50	H	1.167198	-0.586572	-0.753903
H51	H	1.159191	-0.666018	-0.651141
H52	H	1.051106	-0.593827	-0.666208
C53	C	2.009904	-0.773894	-0.289751
C54	C	1.932633	-0.711509	-0.214764
C55	C	2.006419	-0.646569	-0.128347
H56	H	2.068159	-0.730231	-0.333496
H57	H	2.054103	-0.815831	-0.238233
H58	H	1.888455	-0.669575	-0.266276
H59	H	1.874379	-0.755144	-0.170992
H60	H	2.050618	-0.688506	-0.076828
H61	H	2.064671	-0.602913	-0.172102
H62	H	1.954001	-0.604240	-0.077450
H63	H	1.990178	-1.000669	-0.313349
H64	H	1.799102	-0.989674	-0.535787
C65	C	1.731396	-0.316446	-0.935329
C66	C	1.738779	-0.322146	-0.805283
C67	C	1.653709	-0.257031	-0.745520
H68	H	1.648673	-0.338666	-0.963047
H69	H	1.751423	-0.246180	-0.955272
H70	H	1.718743	-0.392397	-0.785350
H71	H	1.821482	-0.299917	-0.777529
H72	H	1.673736	-0.186765	-0.765463
H73	H	1.570991	-0.279257	-0.773247
H74	H	1.658714	-0.260882	-0.657277
H75	H	1.964569	-0.494841	-0.980597
