data_functionalizedCrystal
_audit_creation_method	'MofGen! by Chris Wilmer'
_symmetry_space_group_name_H-M	'P1'
_symmetry_Int_Tables_number	1
_symmetry_cell_setting	triclinic
loop_
_symmetry_equiv_pos_as_xyz
  x,y,z
_cell_length_a	6.817900
_cell_length_b	16.417825
_cell_length_c	16.418042
_cell_angle_alpha	95.405182
_cell_angle_beta	103.389568
_cell_angle_gamma	103.385495
loop_
_atom_site_label
_atom_site_type_symbol
_atom_site_fract_x
_atom_site_fract_y
_atom_site_fract_z
V1	V	-4.025074	-0.116567	-0.261449
O2	O	-4.013115	0.004901	-0.256170
O3	O	-3.976127	-0.230459	-0.259951
O4	O	-3.976155	-0.115081	-0.375343
O5	O	-4.013086	-0.111275	-0.139979
V6	V	-4.508841	-0.102002	-0.246885
O7	O	-4.285799	-0.148517	-0.293396
O8	O	-4.698313	-0.070051	-0.214937
O9	O	-4.334581	0.011890	-0.248382
O10	O	-4.638197	-0.223470	-0.252164
O11	O	-4.638225	-0.107293	-0.368355
O12	O	-4.334553	-0.103487	-0.132990
C13	C	-3.821011	-0.258214	-0.255902
C14	C	-3.862274	-0.351324	-0.255436
C15	C	-3.917414	-0.553385	-0.177648
C16	C	-3.956208	-0.640873	-0.177217
C17	C	-4.035881	-0.665184	-0.330695
C18	C	-3.997102	-0.577697	-0.331125
C19	C	-3.937858	-0.521800	-0.254599
C20	C	-4.015430	-0.696774	-0.253738
C21	C	-4.057492	-0.791633	-0.253272
C22	C	-3.895797	-0.426935	-0.255065
C23	C	-3.821046	-0.111037	-0.403095
C24	C	-3.862329	-0.110576	-0.496206
C25	C	-4.139337	-0.113692	-0.714700
C26	C	-4.178107	-0.113251	-0.802186
C27	C	-3.813934	-0.104873	-0.793622
C28	C	-3.775163	-0.105307	-0.706136
C29	C	-3.937874	-0.109721	-0.666678
C30	C	-4.015415	-0.108846	-0.841650
C31	C	-4.057451	-0.108368	-0.936507
C32	C	-3.895836	-0.110197	-0.571815
C33	C	-4.153039	0.039641	-0.252430
C34	C	-4.091014	0.132750	-0.252900
C35	C	-4.153004	-0.107534	-0.105235
C36	C	-4.090960	-0.107991	-0.012123
H37	H	-4.271828	-0.117284	-0.682575
H38	H	-4.084117	-0.710706	-0.393000
O39	O	-4.016967	-0.547150	-0.405953
C40	C	-4.077605	-0.615245	-0.473406
H41	H	-4.030330	-0.672562	-0.449151
H42	H	-4.254226	-0.632049	-0.500645
C43	C	-4.027180	-0.519106	-0.572847
C44	C	-3.969100	-0.589502	-0.543058
H45	H	-3.960259	-0.503226	-0.615813
H46	H	-3.986335	-0.473228	-0.527404
H47	H	-4.174365	-0.533119	-0.595540
H48	H	-3.821923	-0.575485	-0.520355
H49	H	-4.009919	-0.635377	-0.588499
O50	O	-4.373952	-0.117154	-0.848715
C51	C	-4.509225	-0.121120	-0.795120
H52	H	-4.442038	-0.146854	-0.735727
H53	H	-4.526035	-0.054920	-0.776429
C54	C	-4.807562	-0.148509	-0.915005
C55	C	-4.725050	-0.180123	-0.842060
H56	H	-4.940696	-0.184901	-0.943960
H57	H	-4.716427	-0.145833	-0.951113
H58	H	-4.821552	-0.093342	-0.899419
H59	H	-4.711037	-0.235283	-0.857648
H60	H	-4.816188	-0.182808	-0.805956
H61	H	-3.869175	-0.507875	-0.115335
H62	H	-3.681468	-0.101281	-0.825760
O63	O	-3.579574	-0.101462	-0.659359
C64	C	-3.580273	-0.102834	-0.573688
H65	H	-3.717563	-0.079800	-0.561183
H66	H	-3.595829	-0.170308	-0.559388
C67	C	-3.205944	-0.072588	-0.531673
C68	C	-3.374556	-0.044291	-0.516312
H69	H	-3.079045	-0.036479	-0.496280
H70	H	-3.205472	-0.071667	-0.589391
H71	H	-3.218935	-0.128817	-0.519757
H72	H	-3.361576	0.011933	-0.528238
H73	H	-3.375020	-0.045201	-0.458594
O74	O	-3.936156	-0.671411	-0.102390
C75	C	-3.875606	-0.603313	-0.034944
H76	H	-3.796400	-0.543030	-0.056293
H77	H	-4.019476	-0.594029	-0.015084
C78	C	-3.819394	-0.696938	0.066961
C79	C	-3.722096	-0.622899	0.040742
H80	H	-3.724709	-0.709021	0.113650
H81	H	-3.860195	-0.742819	0.021523
H82	H	-3.939283	-0.689193	0.083506
H83	H	-3.602226	-0.630650	0.024188
H84	H	-3.681271	-0.577021	0.086180
