data_functionalizedCrystal
_audit_creation_method	'MofGen! by Chris Wilmer'
_symmetry_space_group_name_H-M	'P1'
_symmetry_Int_Tables_number	1
_symmetry_cell_setting	triclinic
loop_
_symmetry_equiv_pos_as_xyz
  x,y,z
_cell_length_a	29.839134
_cell_length_b	29.839131
_cell_length_c	18.215398
_cell_angle_alpha	89.971652
_cell_angle_beta	89.970953
_cell_angle_gamma	90.036281
loop_
_atom_site_label
_atom_site_type_symbol
_atom_site_fract_x
_atom_site_fract_y
_atom_site_fract_z
Zn1	Zn	0.686751	-0.178931	-0.416289
Zn2	Zn	0.936751	0.071069	-0.166289
Zn3	Zn	1.186751	0.321069	0.083711
Zn4	Zn	1.436751	0.571069	0.333711
Zn5	Zn	0.686674	-0.254057	-0.293216
Zn6	Zn	0.936674	-0.004057	-0.043216
Zn7	Zn	1.186674	0.245943	0.206784
Zn8	Zn	1.436674	0.495943	0.456784
Zn9	Zn	0.611624	-0.178935	-0.293216
Zn10	Zn	0.861624	0.071065	-0.043216
Zn11	Zn	1.111624	0.321065	0.206784
Zn12	Zn	1.361624	0.571065	0.456784
Zn13	Zn	0.611581	-0.254028	-0.416221
Zn14	Zn	0.861581	-0.004028	-0.166221
Zn15	Zn	1.111581	0.245972	0.083779
Zn16	Zn	1.361581	0.495972	0.333779
O17	O	0.649158	-0.216487	-0.354735
O18	O	0.899158	0.033513	-0.104735
O19	O	1.149158	0.283513	0.145265
O20	O	1.399158	0.533513	0.395265
O21	O	0.749608	-0.188907	-0.399992
O22	O	0.999608	0.061093	-0.149992
O23	O	1.249608	0.311093	0.100008
O24	O	1.499608	0.561093	0.350008
O25	O	0.676704	-0.244105	-0.190232
O26	O	0.926704	0.005895	0.059768
O27	O	1.176704	0.255895	0.309768
O28	O	1.426704	0.505895	0.559768
O29	O	0.621640	-0.116067	-0.309570
O30	O	0.871640	0.133933	-0.059570
O31	O	1.121640	0.383933	0.190430
O32	O	1.371640	0.633933	0.440430
O33	O	0.749551	-0.244101	-0.309571
O34	O	0.999551	0.005899	-0.059571
O35	O	1.249551	0.255899	0.190429
O36	O	1.499551	0.505899	0.440429
O37	O	0.676836	-0.116064	-0.399991
O38	O	0.926836	0.133936	-0.149991
O39	O	1.176836	0.383936	0.100009
O40	O	1.426836	0.633936	0.350009
O41	O	0.621566	-0.188914	-0.190232
O42	O	0.871566	0.061086	0.059768
O43	O	1.121566	0.311086	0.309768
O44	O	1.371566	0.561086	0.559768
O45	O	0.548752	-0.188886	-0.309504
O46	O	0.798752	0.061114	-0.059504
O47	O	1.048752	0.311114	0.190496
O48	O	1.298752	0.561114	0.440496
O49	O	0.621567	-0.244052	-0.519214
O50	O	0.871567	0.005948	-0.269214
O51	O	1.121567	0.255948	-0.019214
O52	O	1.371567	0.505948	0.230786
O53	O	0.548720	-0.244056	-0.399875
O54	O	0.798720	0.005944	-0.149875
O55	O	1.048720	0.255944	0.100125
O56	O	1.298720	0.505944	0.350125
O57	O	0.676794	-0.188879	-0.519264
O58	O	0.926794	0.061121	-0.269264
O59	O	1.176794	0.311121	-0.019264
O60	O	1.426794	0.561121	0.230736
O61	O	0.676662	-0.316920	-0.309505
O62	O	0.926662	-0.066920	-0.059505
O63	O	1.176662	0.183080	0.190495
O64	O	1.426662	0.433080	0.440495
O65	O	0.621492	-0.316899	-0.399876
O66	O	0.871492	-0.066899	-0.149876
O67	O	1.121492	0.183101	0.100124
O68	O	1.371492	0.433101	0.350124
C69	C	0.532435	-0.216468	-0.354682
C70	C	0.782435	0.033532	-0.104682
C71	C	1.032435	0.283532	0.145318
C72	C	1.282435	0.533532	0.395318
C73	C	0.482501	-0.216471	-0.354677
C74	C	0.732501	0.033529	-0.104677
C75	C	0.982501	0.283529	0.145323
C76	C	1.232501	0.533529	0.395323
C77	C	0.172850	-0.245257	-0.401734
C78	C	0.422850	0.004743	-0.151734
C79	C	0.672850	0.254743	0.098266
C80	C	0.922850	0.504743	0.348266
C81	C	-0.014823	-0.245270	-0.401767
C82	C	0.235177	0.004730	-0.151767
C83	C	0.485177	0.254730	0.098233
C84	C	0.735177	0.504730	0.348233
O85	O	-0.039093	-0.269724	-0.441745
O86	O	0.210907	-0.019724	-0.191745
O87	O	0.460907	0.230276	0.058255
O88	O	0.710907	0.480276	0.308255
N89	N	-0.038284	-0.216504	-0.354791
N90	N	0.211716	0.033496	-0.104791
N91	N	0.461716	0.283496	0.145209
N92	N	0.711716	0.533496	0.395209
C93	C	-0.014825	-0.187731	-0.307807
C94	C	0.235175	0.062269	-0.057807
C95	C	0.485175	0.312269	0.192193
C96	C	0.735175	0.562269	0.442193
O97	O	-0.039087	-0.163261	-0.267857
O98	O	0.210913	0.086739	-0.017857
O99	O	0.460913	0.336739	0.232143
O100	O	0.710913	0.586739	0.482143
C101	C	0.172847	-0.187716	-0.307778
C102	C	0.422847	0.062284	-0.057778
C103	C	0.672847	0.312284	0.192222
C104	C	0.922847	0.562284	0.442222
C105	C	0.196307	-0.216487	-0.354752
C106	C	0.446307	0.033513	-0.104752
C107	C	0.696307	0.283513	0.145248
C108	C	0.946307	0.533513	0.395248
C109	C	0.196310	-0.274025	-0.448705
C110	C	0.446310	-0.024025	-0.198705
C111	C	0.696310	0.225975	0.051295
C112	C	0.946310	0.475975	0.301295
C113	C	0.243225	-0.274024	-0.448693
C114	C	0.493225	-0.024024	-0.198693
C115	C	0.743225	0.225976	0.051307
C116	C	0.993225	0.475976	0.301307
C117	C	0.266681	-0.245254	-0.401711
C118	C	0.516681	0.004746	-0.151711
C119	C	0.766681	0.254746	0.098289
C120	C	1.016681	0.504746	0.348289
C121	C	0.243222	-0.216485	-0.354741
C122	C	0.493222	0.033515	-0.104741
C123	C	0.743222	0.283515	0.145259
C124	C	0.993222	0.533515	0.395259
C125	C	0.196306	-0.158941	-0.260799
C126	C	0.446306	0.091059	-0.010799
C127	C	0.696306	0.341059	0.239201
C128	C	0.946306	0.591059	0.489201
C129	C	0.243227	-0.158939	-0.260797
C130	C	0.493227	0.091061	-0.010797
C131	C	0.743227	0.341061	0.239203
C132	C	0.993227	0.591061	0.489203
C133	C	0.266686	-0.187710	-0.307771
C134	C	0.516686	0.062290	-0.057771
C135	C	0.766686	0.312290	0.192229
C136	C	1.016686	0.562290	0.442229
C137	C	0.313594	-0.187714	-0.307747
C138	C	0.563594	0.062286	-0.057747
C139	C	0.813594	0.312286	0.192253
C140	C	1.063594	0.562286	0.442253
N141	N	0.337055	-0.216480	-0.354723
N142	N	0.587055	0.033520	-0.104723
N143	N	0.837055	0.283520	0.145277
N144	N	1.087055	0.533520	0.395277
C145	C	0.313599	-0.245250	-0.401705
C146	C	0.563599	0.004750	-0.151705
C147	C	0.813599	0.254750	0.098295
C148	C	1.063599	0.504750	0.348295
C149	C	-0.113356	-0.187741	-0.307824
C150	C	0.136644	0.062259	-0.057824
C151	C	0.386644	0.312259	0.192176
C152	C	0.636644	0.562259	0.442176
C153	C	-0.160273	-0.187745	-0.307830
C154	C	0.089727	0.062255	-0.057830
C155	C	0.339727	0.312255	0.192170
C156	C	0.589727	0.562255	0.442170
C157	C	-0.160268	-0.245284	-0.401791
C158	C	0.089732	0.004716	-0.151791
C159	C	0.339732	0.254716	0.098209
C160	C	0.589732	0.504716	0.348209
C161	C	-0.113349	-0.245282	-0.401781
C162	C	0.136651	0.004718	-0.151781
C163	C	0.386651	0.254718	0.098219
C164	C	0.636651	0.504718	0.348219
C165	C	-0.089894	-0.216507	-0.354800
C166	C	0.160106	0.033493	-0.104800
C167	C	0.410106	0.283493	0.145200
C168	C	0.660106	0.533493	0.395200
C169	C	0.412125	-0.245244	-0.401677
C170	C	0.662125	0.004756	-0.151677
C171	C	0.912125	0.254756	0.098323
C172	C	1.162125	0.504756	0.348323
C173	C	0.459045	-0.245241	-0.401659
C174	C	0.709045	0.004759	-0.151659
C175	C	0.959045	0.254759	0.098341
C176	C	1.209045	0.504759	0.348341
C177	C	0.459035	-0.187701	-0.307701
C178	C	0.709035	0.062299	-0.057701
C179	C	0.959035	0.312299	0.192299
C180	C	1.209035	0.562299	0.442299
C181	C	0.412120	-0.187705	-0.307716
C182	C	0.662120	0.062295	-0.057716
C183	C	0.912120	0.312295	0.192284
C184	C	1.162120	0.562295	0.442284
C185	C	0.388666	-0.216478	-0.354710
C186	C	0.638666	0.033522	-0.104710
C187	C	0.888666	0.283522	0.145290
C188	C	1.138666	0.533522	0.395290
O189	O	0.337893	-0.163269	-0.267796
O190	O	0.587893	0.086731	-0.017796
O191	O	0.837893	0.336731	0.232204
O192	O	1.087893	0.586731	0.482204
O193	O	0.337869	-0.269709	-0.441660
O194	O	0.587869	-0.019709	-0.191660
O195	O	0.837869	0.230291	0.058340
O196	O	1.087869	0.480291	0.308340
C197	C	0.125935	-0.245259	-0.401746
C198	C	0.375935	0.004741	-0.151746
C199	C	0.625935	0.254741	0.098254
C200	C	0.875935	0.504741	0.348254
C201	C	0.102476	-0.216491	-0.354775
C202	C	0.352476	0.033509	-0.104775
C203	C	0.602476	0.283509	0.145225
C204	C	0.852476	0.533509	0.395225
C205	C	0.125932	-0.187721	-0.307793
C206	C	0.375932	0.062279	-0.057793
C207	C	0.625932	0.312279	0.192207
C208	C	0.875932	0.562279	0.442207
C209	C	0.055558	-0.216495	-0.354781
C210	C	0.305558	0.033505	-0.104781
C211	C	0.555558	0.283505	0.145219
C212	C	0.805558	0.533505	0.395219
C213	C	0.032102	-0.245265	-0.401763
C214	C	0.282102	0.004735	-0.151763
C215	C	0.532102	0.254735	0.098237
C216	C	0.782102	0.504735	0.348237
C217	C	0.055563	-0.274031	-0.448739
C218	C	0.305563	-0.024031	-0.198739
C219	C	0.555563	0.225969	0.051261
C220	C	0.805563	0.475969	0.301261
C221	C	0.102479	-0.274029	-0.448728
C222	C	0.352479	-0.024029	-0.198728
C223	C	0.602479	0.225971	0.051272
C224	C	0.852479	0.475971	0.301272
C225	C	0.102470	-0.158955	-0.260817
C226	C	0.352470	0.091045	-0.010817
C227	C	0.602470	0.341045	0.239183
C228	C	0.852470	0.591045	0.489183
C229	C	0.055555	-0.158959	-0.260832
C230	C	0.305555	0.091041	-0.010832
C231	C	0.555555	0.341041	0.239168
C232	C	0.805555	0.591041	0.489168
C233	C	0.032098	-0.187729	-0.307814
C234	C	0.282098	0.062271	-0.057814
C235	C	0.532098	0.312271	0.192186
C236	C	0.782098	0.562271	0.442186
C237	C	0.649077	-0.333210	-0.354699
C238	C	0.899077	-0.083210	-0.104699
C239	C	1.149077	0.166790	0.145301
C240	C	1.399077	0.416790	0.395301
C241	C	0.649083	-0.383144	-0.354708
C242	C	0.899083	-0.133144	-0.104708
C243	C	1.149083	0.116856	0.145292
C244	C	1.399083	0.366856	0.395292
C245	C	0.677937	-0.692786	-0.307748
C246	C	0.927937	-0.442786	-0.057748
C247	C	1.177937	-0.192786	0.192252
C248	C	1.427937	0.057214	0.442252
C249	C	0.677992	-0.880459	-0.307777
C250	C	0.927992	-0.630459	-0.057777
C251	C	1.177992	-0.380459	0.192223
C252	C	1.427992	-0.130459	0.442223
O253	O	0.702461	-0.904723	-0.267822
O254	O	0.952461	-0.654723	-0.017822
O255	O	1.202461	-0.404723	0.232178
O256	O	1.452461	-0.154723	0.482178
N257	N	0.649251	-0.903929	-0.354791
N258	N	0.899251	-0.653929	-0.104791
N259	N	1.149251	-0.403929	0.145209
N260	N	1.399251	-0.153929	0.395209
C261	C	0.620495	-0.880479	-0.401805
C262	C	0.870495	-0.630479	-0.151805
C263	C	1.120495	-0.380479	0.098195
C264	C	1.370495	-0.130479	0.348195
O265	O	0.596054	-0.904748	-0.441799
O266	O	0.846054	-0.654748	-0.191799
O267	O	1.096054	-0.404748	0.058201
O268	O	1.346054	-0.154748	0.308201
C269	C	0.620443	-0.692806	-0.401779
C270	C	0.870443	-0.442806	-0.151779
C271	C	1.120443	-0.192806	0.098221
C272	C	1.370443	0.057194	0.348221
C273	C	0.649183	-0.669339	-0.354757
C274	C	0.899183	-0.419339	-0.104757
C275	C	1.149183	-0.169339	0.145243
C276	C	1.399183	0.080661	0.395243
C277	C	0.706675	-0.669318	-0.260730
C278	C	0.956675	-0.419318	-0.010730
C279	C	1.206675	-0.169318	0.239270
C280	C	1.456675	0.080682	0.489270
C281	C	0.706659	-0.622403	-0.260721
C282	C	0.956659	-0.372403	-0.010721
C283	C	1.206659	-0.122403	0.239279
C284	C	1.456659	0.127597	0.489279
C285	C	0.677905	-0.598955	-0.307729
C286	C	0.927905	-0.348955	-0.057729
C287	C	1.177905	-0.098955	0.192271
C288	C	1.427905	0.151045	0.442271
C289	C	0.649167	-0.622423	-0.354747
C290	C	0.899167	-0.372423	-0.104747
C291	C	1.149167	-0.122423	0.145253
C292	C	1.399167	0.127577	0.395253
C293	C	0.591690	-0.669356	-0.448796
C294	C	0.841690	-0.419356	-0.198796
C295	C	1.091690	-0.169356	0.051204
C296	C	1.341690	0.080644	0.301204
C297	C	0.591680	-0.622435	-0.448787
C298	C	0.841680	-0.372435	-0.198787
C299	C	1.091680	-0.122435	0.051213
C300	C	1.341680	0.127565	0.301213
C301	C	0.620420	-0.598967	-0.401765
C302	C	0.870420	-0.348967	-0.151765
C303	C	1.120420	-0.098967	0.098235
C304	C	1.370420	0.151033	0.348235
C305	C	0.620397	-0.552060	-0.401746
C306	C	0.870397	-0.302060	-0.151746
C307	C	1.120397	-0.052060	0.098254
C308	C	1.370397	0.197940	0.348254
N309	N	0.649139	-0.528590	-0.354732
N310	N	0.899139	-0.278590	-0.104732
N311	N	1.149139	-0.028590	0.145268
N312	N	1.399139	0.221410	0.395268
C313	C	0.677893	-0.552038	-0.307724
C314	C	0.927893	-0.302038	-0.057724
C315	C	1.177893	-0.052038	0.192276
C316	C	1.427893	0.197962	0.442276
C317	C	0.620525	-0.979009	-0.401814
C318	C	0.870525	-0.729009	-0.151814
C319	C	1.120525	-0.479009	0.098186
C320	C	1.370525	-0.229009	0.348186
C321	C	0.620537	-1.025927	-0.401819
C322	C	0.870537	-0.775927	-0.151819
C323	C	1.120537	-0.525927	0.098181
C324	C	1.370537	-0.275927	0.348181
C325	C	0.678035	-1.025905	-0.307792
C326	C	0.928035	-0.775905	-0.057792
C327	C	1.178035	-0.525905	0.192208
C328	C	1.428035	-0.275905	0.442208
C329	C	0.678020	-0.978986	-0.307783
C330	C	0.928020	-0.728986	-0.057783
C331	C	1.178020	-0.478986	0.192217
C332	C	1.428020	-0.228986	0.442217
C333	C	0.649266	-0.955539	-0.354800
C334	C	0.899266	-0.705539	-0.104800
C335	C	1.149266	-0.455539	0.145200
C336	C	1.399266	-0.205539	0.395200
C337	C	0.677857	-0.453512	-0.307707
C338	C	0.927857	-0.203512	-0.057707
C339	C	1.177857	0.046488	0.192293
C340	C	1.427857	0.296488	0.442293
C341	C	0.677837	-0.406592	-0.307699
C342	C	0.927837	-0.156592	-0.057699
C343	C	1.177837	0.093408	0.192301
C344	C	1.427837	0.343408	0.442301
C345	C	0.620341	-0.406619	-0.401729
C346	C	0.870341	-0.156619	-0.151729
C347	C	1.120341	0.093381	0.098271
C348	C	1.370341	0.343381	0.348271
C349	C	0.620359	-0.453534	-0.401734
C350	C	0.870359	-0.203534	-0.151734
C351	C	1.120359	0.046466	0.098266
C352	C	1.370359	0.296466	0.348266
C353	C	0.649121	-0.476980	-0.354721
C354	C	0.899121	-0.226980	-0.104721
C355	C	1.149121	0.023020	0.145279
C356	C	1.399121	0.273020	0.395279
O357	O	0.595945	-0.527768	-0.441686
O358	O	0.845945	-0.277768	-0.191686
O359	O	1.095945	-0.027768	0.058314
O360	O	1.345945	0.222232	0.308314
O361	O	0.702338	-0.527760	-0.267747
O362	O	0.952338	-0.277760	-0.017747
O363	O	1.202338	-0.027760	0.232253
O364	O	1.452338	0.222240	0.482253
C365	C	0.677953	-0.739702	-0.307758
C366	C	0.927953	-0.489702	-0.057758
C367	C	1.177953	-0.239702	0.192242
C368	C	1.427953	0.010298	0.442242
C369	C	0.649215	-0.763169	-0.354776
C370	C	0.899215	-0.513169	-0.104776
C371	C	1.149215	-0.263169	0.145224
C372	C	1.399215	-0.013169	0.395224
C373	C	0.620460	-0.739722	-0.401785
C374	C	0.870460	-0.489722	-0.151785
C375	C	1.120460	-0.239722	0.098215
C376	C	1.370460	0.010278	0.348215
C377	C	0.649227	-0.810087	-0.354781
C378	C	0.899227	-0.560087	-0.104781
C379	C	1.149227	-0.310087	0.145219
C380	C	1.399227	-0.060087	0.395219
C381	C	0.677981	-0.833535	-0.307773
C382	C	0.927981	-0.583535	-0.057773
C383	C	1.177981	-0.333535	0.192227
C384	C	1.427981	-0.083535	0.442227
C385	C	0.706723	-0.810065	-0.260759
C386	C	0.956723	-0.560065	-0.010759
C387	C	1.206723	-0.310065	0.239241
C388	C	1.456723	-0.060065	0.489241
C389	C	0.706707	-0.763149	-0.260749
C390	C	0.956707	-0.513149	-0.010749
C391	C	1.206707	-0.263149	0.239251
C392	C	1.456707	-0.013149	0.489251
C393	C	0.591719	-0.763192	-0.448799
C394	C	0.841719	-0.513192	-0.198799
C395	C	1.091719	-0.263192	0.051201
C396	C	1.341719	-0.013192	0.301201
C397	C	0.591737	-0.810107	-0.448804
C398	C	0.841737	-0.560107	-0.198804
C399	C	1.091737	-0.310107	0.051196
C400	C	1.341737	-0.060107	0.301196
C401	C	0.620491	-0.833555	-0.401795
C402	C	0.870491	-0.583555	-0.151795
C403	C	1.120491	-0.333555	0.098205
C404	C	1.370491	-0.083555	0.348205
C405	C	0.766336	-0.216507	-0.354789
C406	C	1.016336	0.033493	-0.104789
C407	C	1.266336	0.283493	0.145211
C408	C	1.516336	0.533493	0.395211
C409	C	0.816270	-0.216515	-0.354812
C410	C	1.066270	0.033485	-0.104812
C411	C	1.316270	0.283485	0.145188
C412	C	1.566270	0.533485	0.395188
C413	C	0.649184	-0.216462	-0.546688
C414	C	0.899184	0.033538	-0.296688
C415	C	1.149184	0.283538	-0.046688
C416	C	1.399184	0.533538	0.203312
C417	C	0.649196	-0.216451	-0.628487
C418	C	0.899196	0.033549	-0.378487
C419	C	1.149196	0.283549	-0.128487
C420	C	1.399196	0.533549	0.121513
C421	C	0.649251	-0.099309	-0.354788
C422	C	0.899251	0.150691	-0.104788
C423	C	1.149251	0.400691	0.145212
C424	C	1.399251	0.650691	0.395212
C425	C	0.649291	-0.049375	-0.354811
C426	C	0.899291	0.200625	-0.104811
C427	C	1.149291	0.450625	0.145189
C428	C	1.399291	0.700625	0.395189
C429	C	0.677927	-0.245134	-0.893550
C430	C	0.927927	0.004866	-0.643550
C431	C	1.177927	0.254866	-0.393550
C432	C	1.427927	0.504866	-0.143550
C433	C	0.677920	-0.245149	-0.816691
C434	C	0.927920	0.004851	-0.566691
C435	C	1.177920	0.254851	-0.316691
C436	C	1.427920	0.504851	-0.066691
C437	C	0.620499	-0.187681	-0.816674
C438	C	0.870499	0.062319	-0.566674
C439	C	1.120499	0.312319	-0.316674
C440	C	1.370499	0.562319	-0.066674
C441	C	0.620503	-0.187668	-0.893531
C442	C	0.870503	0.062332	-0.643531
C443	C	1.120503	0.312332	-0.393531
C444	C	1.370503	0.562332	-0.143531
C445	C	0.649220	-0.216394	-0.931967
C446	C	0.899220	0.033606	-0.681967
C447	C	1.149220	0.283606	-0.431967
C448	C	1.399220	0.533606	-0.181967
C449	C	0.649208	-0.216422	-0.778251
C450	C	0.899208	0.033578	-0.528251
C451	C	1.149208	0.283578	-0.278251
C452	C	1.399208	0.533578	-0.028251
C453	C	0.649201	-0.216439	-0.694917
C454	C	0.899201	0.033561	-0.444917
C455	C	1.149201	0.283561	-0.194917
C456	C	1.399201	0.533561	0.055083
C457	C	0.649227	-0.216378	-1.015306
C458	C	0.899227	0.033622	-0.765306
C459	C	1.149227	0.283622	-0.515306
C460	C	1.399227	0.533622	-0.265306
C461	C	0.649157	-0.216481	-0.163529
C462	C	0.899157	0.033519	0.086471
C463	C	1.149157	0.283519	0.336471
C464	C	1.399157	0.533519	0.586471
C465	C	0.649233	-0.216365	-0.081731
C466	C	0.899233	0.033635	0.168269
C467	C	1.149233	0.283635	0.418269
C468	C	1.399233	0.533635	0.668269
H469	H	0.262321	-0.297451	-0.486945
H470	H	0.512321	-0.047451	-0.236945
H471	H	0.762321	0.202549	0.013055
H472	H	1.012321	0.452549	0.263055
Cl473	Cl	0.714014	-0.482979	-0.248602
Cl474	Cl	0.964014	-0.232979	0.001398
Cl475	Cl	1.214014	0.017021	0.251398
Cl476	Cl	1.464014	0.267021	0.501398
H477	H	0.568284	-0.688456	-0.487084
H478	H	0.818284	-0.438456	-0.237084
H479	H	1.068284	-0.188456	0.012916
H480	H	1.318284	0.061544	0.262916
Cl481	Cl	0.742870	-0.839551	-0.201661
Cl482	Cl	0.992870	-0.589551	0.048339
Cl483	Cl	1.242870	-0.339551	0.298339
Cl484	Cl	1.492870	-0.089551	0.548339
H485	H	0.701423	-0.959881	-0.269494
H486	H	0.951423	-0.709881	-0.019494
H487	H	1.201423	-0.459881	0.230506
H488	H	1.451423	-0.209881	0.480506
H489	H	0.597109	-0.959922	-0.440101
H490	H	0.847109	-0.709922	-0.190101
H491	H	1.097109	-0.459922	0.059899
H492	H	1.347109	-0.209922	0.309899
Cl493	Cl	0.742799	-0.592908	-0.201614
Cl494	Cl	0.992799	-0.342908	0.048386
Cl495	Cl	1.242799	-0.092908	0.298386
Cl496	Cl	1.492799	0.157092	0.548386
H497	H	0.036457	-0.297458	-0.486991
H498	H	0.286457	-0.047458	-0.236991
H499	H	0.536457	0.202542	0.013009
H500	H	0.786457	0.452542	0.263009
Cl501	Cl	0.714026	-0.281247	-0.941867
Cl502	Cl	0.964026	-0.031247	-0.691867
Cl503	Cl	1.214026	0.218753	-0.441867
Cl504	Cl	1.464026	0.468753	-0.191867
Cl505	Cl	0.714009	-0.281282	-0.768398
Cl506	Cl	0.964009	-0.031282	-0.518398
Cl507	Cl	1.214009	0.218718	-0.268398
Cl508	Cl	1.464009	0.468718	-0.018398
H509	H	0.478143	-0.268672	-0.439911
H510	H	0.728143	-0.018672	-0.189911
H511	H	0.978143	0.231328	0.060089
H512	H	1.228143	0.481328	0.310089
H513	H	0.701448	-1.045004	-0.269516
H514	H	0.951448	-0.795004	-0.019516
H515	H	1.201448	-0.545004	0.230484
H516	H	1.451448	-0.295004	0.480484
Cl517	Cl	0.584400	-1.055423	-0.460927
Cl518	Cl	0.834400	-0.805423	-0.210927
Cl519	Cl	1.084400	-0.555423	0.039073
Cl520	Cl	1.334400	-0.305423	0.289073
H521	H	0.121575	-0.297457	-0.486979
H522	H	0.371575	-0.047457	-0.236979
H523	H	0.621575	0.202543	0.013021
H524	H	0.871575	0.452543	0.263021
H525	H	0.597119	-0.164293	-0.785370
H526	H	0.847119	0.085707	-0.535370
H527	H	1.097119	0.335707	-0.285370
H528	H	1.347119	0.585707	-0.035370
H529	H	0.597125	-0.164264	-0.924811
H530	H	0.847125	0.085736	-0.674811
H531	H	1.097125	0.335736	-0.424811
H532	H	1.347125	0.585736	-0.174811
H533	H	0.393034	-0.268673	-0.439946
H534	H	0.643034	-0.018673	-0.189946
H535	H	0.893034	0.231327	0.060054
H536	H	1.143034	0.481327	0.310054
H537	H	0.568329	-0.829211	-0.487095
H538	H	0.818329	-0.579211	-0.237095
H539	H	1.068329	-0.329211	0.012905
H540	H	1.318329	-0.079211	0.262905
Cl541	Cl	0.131951	-0.122782	-0.201749
Cl542	Cl	0.381951	0.127218	0.048251
Cl543	Cl	0.631951	0.377218	0.298251
Cl544	Cl	0.881951	0.627218	0.548251
H545	H	0.177217	-0.297454	-0.486967
H546	H	0.427217	-0.047454	-0.236967
H547	H	0.677217	0.202546	0.013033
H548	H	0.927217	0.452546	0.263033
H549	H	0.701241	-0.387486	-0.269405
H550	H	0.951241	-0.137486	-0.019405
H551	H	1.201241	0.112514	0.230595
H552	H	1.451241	0.362514	0.480595
H553	H	0.568304	-0.744105	-0.487080
H554	H	0.818304	-0.494105	-0.237080
H555	H	1.068304	-0.244105	0.012920
H556	H	1.318304	0.005895	0.262920
Cl557	Cl	0.555531	-0.592962	-0.507898
Cl558	Cl	0.805531	-0.342962	-0.257898
Cl559	Cl	1.055531	-0.092962	-0.007898
Cl560	Cl	1.305531	0.157038	0.242102
H561	H	-0.094252	-0.268709	-0.440032
H562	H	0.155748	-0.018709	-0.190032
H563	H	0.405748	0.231291	0.059968
H564	H	0.655748	0.481291	0.309968
H565	H	-0.179374	-0.268710	-0.440046
H566	H	0.070626	-0.018710	-0.190046
H567	H	0.320626	0.231290	0.059954
H568	H	0.570626	0.481290	0.309954
Cl569	Cl	0.382627	-0.151543	-0.248651
Cl570	Cl	0.632627	0.098457	0.001349
Cl571	Cl	0.882627	0.348457	0.251349
Cl572	Cl	1.132627	0.598457	0.501349
H573	H	-0.179370	-0.164321	-0.269572
H574	H	0.070630	0.085679	-0.019572
H575	H	0.320630	0.335679	0.230428
H576	H	0.570630	0.585679	0.480428
H577	H	0.036458	-0.135531	-0.222574
H578	H	0.286458	0.114469	0.027426
H579	H	0.536458	0.364469	0.277426
H580	H	0.786458	0.614469	0.527426
Cl581	Cl	0.584219	-0.483037	-0.460834
Cl582	Cl	0.834219	-0.233037	-0.210834
Cl583	Cl	1.084219	0.016963	0.039166
Cl584	Cl	1.334219	0.266963	0.289166
H585	H	-0.094262	-0.164309	-0.269563
H586	H	0.155738	0.085691	-0.019563
H587	H	0.405738	0.335691	0.230437
H588	H	0.655738	0.585691	0.480437
Cl589	Cl	0.742842	-0.733654	-0.201635
Cl590	Cl	0.992842	-0.483654	0.048365
Cl591	Cl	1.242842	-0.233654	0.298365
Cl592	Cl	1.492842	0.016346	0.548365
Cl593	Cl	0.166826	-0.122766	-0.201747
Cl594	Cl	0.416826	0.127234	0.048253
Cl595	Cl	0.666826	0.377234	0.298253
Cl596	Cl	0.916826	0.627234	0.548253
Cl597	Cl	0.272711	-0.122762	-0.201732
Cl598	Cl	0.522711	0.127238	0.048268
Cl599	Cl	0.772711	0.377238	0.298268
Cl600	Cl	1.022711	0.627238	0.548268
Cl601	Cl	0.742828	-0.698787	-0.201625
Cl602	Cl	0.992828	-0.448787	0.048375
Cl603	Cl	1.242828	-0.198787	0.298375
Cl604	Cl	1.492828	0.051213	0.548375
H605	H	0.596929	-0.387520	-0.440001
H606	H	0.846929	-0.137520	-0.190001
H607	H	1.096929	0.112480	0.059999
H608	H	1.346929	0.362480	0.309999
Cl609	Cl	0.488532	-0.151534	-0.248642
Cl610	Cl	0.738532	0.098466	0.001358
Cl611	Cl	0.988532	0.348466	0.251358
Cl612	Cl	1.238532	0.598466	0.501358
