data_functionalizedCrystal
_audit_creation_method	'MofGen! by Chris Wilmer'
_symmetry_space_group_name_H-M	'P1'
_symmetry_Int_Tables_number	1
_symmetry_cell_setting	triclinic
loop_
_symmetry_equiv_pos_as_xyz
  x,y,z
_cell_length_a	17.699077
_cell_length_b	19.188930
_cell_length_c	16.776229
_cell_angle_alpha	89.988225
_cell_angle_beta	89.993415
_cell_angle_gamma	83.212679
loop_
_atom_site_label
_atom_site_type_symbol
_atom_site_fract_x
_atom_site_fract_y
_atom_site_fract_z
O1	O	1.003965	0.088275	-0.066287
O2	O	1.503965	0.588275	0.433713
O3	O	0.783571	0.099766	-0.066292
O4	O	1.283571	0.599766	0.433708
O5	O	0.900128	-0.007628	-0.066273
O6	O	1.400128	0.492372	0.433727
O7	O	0.887408	0.195669	-0.066305
O8	O	1.387408	0.695669	0.433695
O9	O	0.900113	-0.007635	0.066303
O10	O	1.400113	0.492365	0.566303
O11	O	0.783556	0.099760	0.066285
O12	O	1.283556	0.599760	0.566285
O13	O	1.003950	0.088268	0.066290
O14	O	1.503950	0.588268	0.566290
Zn15	Zn	0.893750	0.094013	0.087337
Zn16	Zn	1.393750	0.594013	0.587337
Zn17	Zn	0.893770	0.094021	-0.087339
Zn18	Zn	1.393770	0.594021	0.412661
O19	O	0.887393	0.195662	0.066272
O20	O	1.387393	0.695662	0.566272
C21	C	0.755367	0.099352	-0.000004
C22	C	1.255367	0.599352	0.499996
C23	C	0.671350	0.098119	-0.000005
C24	C	1.171350	0.598119	0.499995
C25	C	0.631875	0.097534	0.072263
C26	C	1.131875	0.597534	0.572263
C27	C	0.552934	0.096364	0.072264
C28	C	1.052934	0.596364	0.572264
C29	C	0.513469	0.095784	-0.000004
C30	C	1.013469	0.595784	0.499996
C31	C	0.552950	0.096367	-0.072278
C32	C	1.052950	0.596367	0.427722
C33	C	0.631890	0.097531	-0.072278
C34	C	1.131890	0.597531	0.427722
C35	C	0.234592	0.091668	-0.072279
C36	C	0.734592	0.591668	0.427721
C37	C	0.155646	0.090505	-0.072273
C38	C	0.655646	0.590505	0.427727
C39	C	0.155637	0.090501	0.072264
C40	C	0.655637	0.590501	0.572264
C41	C	0.234577	0.091666	0.072263
C42	C	0.734577	0.591666	0.572263
C43	C	0.274051	0.092244	-0.000010
C44	C	0.774051	0.592244	0.499990
C45	C	0.359648	0.093512	-0.000010
C46	C	0.859648	0.593512	0.499990
C47	C	0.427872	0.094522	-0.000005
C48	C	0.927872	0.594522	0.499995
C49	C	0.899708	-0.033643	0.000017
C50	C	1.399708	0.466357	0.500017
C51	C	0.898472	-0.111149	0.000024
C52	C	1.398472	0.388851	0.500024
C53	C	0.966864	-0.155998	0.000029
C54	C	1.466864	0.344002	0.500029
C55	C	0.965702	-0.228823	0.000016
C56	C	1.465702	0.271177	0.500016
C57	C	0.896145	-0.256796	0.000014
C58	C	1.396145	0.243204	0.500014
C59	C	0.827744	-0.211937	0.000004
C60	C	1.327744	0.288063	0.500004
C61	C	0.828907	-0.139114	0.000009
C62	C	1.328907	0.360886	0.500009
N63	N	0.842971	-0.364862	0.045131
N64	N	1.342971	0.135138	0.545131
N65	N	0.841870	-0.434041	0.045129
N66	N	1.341870	0.065959	0.545129
C67	C	0.892634	-0.476208	-0.000002
C68	C	1.392634	0.023792	0.499998
N69	N	0.944553	-0.446583	-0.045119
N70	N	1.444553	0.053417	0.454881
N71	N	0.945656	-0.377398	-0.045113
N72	N	1.445656	0.122602	0.454887
C73	C	0.894875	-0.335760	0.000009
C74	C	1.394875	0.164240	0.500009
C75	C	0.959771	-0.600023	-0.000012
C76	C	1.459771	-0.100023	0.499988
C77	C	0.958607	-0.672849	-0.000029
C78	C	1.458607	-0.172849	0.499971
C79	C	0.820646	-0.655962	-0.000033
C80	C	1.320646	-0.155962	0.499967
C81	C	0.821813	-0.583137	-0.000024
C82	C	1.321813	-0.083137	0.499976
C83	C	0.891378	-0.555173	-0.000009
C84	C	1.391378	-0.055173	0.499991
C85	C	1.032154	0.088682	0.000000
C86	C	1.532154	0.588682	0.500000
C87	C	1.116171	0.089915	-0.000004
C88	C	1.616171	0.589915	0.499996
C89	C	0.887812	0.221677	-0.000021
C90	C	1.387812	0.721677	0.499979
C91	C	0.889049	0.299183	-0.000033
C92	C	1.389049	0.799183	0.499967
N93	N	0.893742	0.094006	0.206548
N94	N	1.393742	0.594006	0.706548
N95	N	0.893785	0.094022	-0.206550
N96	N	1.393785	0.594022	0.293450
C97	C	0.945369	0.046472	0.248273
C98	C	1.445369	0.546472	0.748273
C99	C	0.945373	0.046471	0.331725
C100	C	1.445373	0.546471	0.831725
C101	C	0.893753	0.094009	0.373451
C102	C	1.393753	0.594009	0.873451
C103	C	0.842121	0.141546	0.331720
C104	C	1.342121	0.641546	0.831720
C105	C	0.842113	0.141543	0.248269
C106	C	1.342113	0.641543	0.748269
C107	C	0.842148	0.141560	0.668267
C108	C	1.342148	0.641560	1.168267
C109	C	0.842161	0.141561	0.751724
C110	C	1.342161	0.641561	1.251724
C111	C	0.945408	0.046488	0.751723
C112	C	1.445408	0.546488	1.251723
C113	C	0.945401	0.046485	0.668272
C114	C	1.445401	0.546485	1.168272
C115	C	0.893766	0.094019	0.626549
C116	C	1.393766	0.594019	1.126549
C117	C	0.893761	0.094018	0.536060
C118	C	1.393761	0.594018	1.036060
C119	C	0.893761	0.094014	0.463938
C120	C	1.393761	0.594014	0.963938
H121	H	0.266705	0.092141	0.131112
H122	H	0.766705	0.592141	0.631112
N123	N	0.749594	-0.684526	-0.000021
N124	N	1.249594	-0.184526	0.499979
N125	N	0.703533	-0.670754	0.055865
N126	N	1.203533	-0.170754	0.555865
H127	H	0.653350	-0.690930	0.055872
H128	H	1.153350	-0.190930	0.555872
H129	H	0.987411	0.007764	0.365698
H130	H	1.487411	0.507764	0.865698
N131	N	0.789387	0.190111	0.374326
N132	N	1.289387	0.690111	0.874326
N133	N	0.743294	0.232548	0.337059
N134	N	1.243294	0.732548	0.837059
H135	H	0.706049	0.266850	0.367147
H136	H	1.206049	0.766850	0.867147
H137	H	0.987407	0.007763	0.214306
H138	H	1.487407	0.507763	0.714306
H139	H	0.766121	-0.546620	-0.000023
H140	H	1.266121	-0.046620	0.499977
H141	H	0.800072	0.180250	0.214297
H142	H	1.300072	0.680250	0.714297
N143	N	0.998120	-0.002085	0.625656
N144	N	1.498120	0.497915	1.125656
N145	N	0.974248	-0.045401	0.579111
N146	N	1.474248	0.454599	1.079111
H147	H	1.011481	-0.079707	0.549015
H148	H	1.511481	0.420293	1.049015
H149	H	0.987450	0.007781	0.785704
H150	H	1.487450	0.507781	1.285704
H151	H	1.021397	-0.265345	0.000018
H152	H	1.521397	0.234655	0.500018
N153	N	1.030827	-0.571454	-0.000024
N154	N	1.530827	-0.071454	0.499976
N155	N	1.046872	-0.532689	-0.055906
N156	N	1.546872	-0.032689	0.444094
H157	H	1.097056	-0.512514	-0.055917
H158	H	1.597056	-0.012514	0.444083
N159	N	0.274899	0.092245	-0.146108
N160	N	0.774899	0.592245	0.353892
N161	N	0.273213	0.042916	-0.194480
N162	N	0.773213	0.542916	0.305520
H163	H	0.301679	0.043320	-0.246628
H164	H	0.801679	0.543320	0.253372
N165	N	0.789399	0.190115	0.625667
N166	N	1.289399	0.690115	1.125667
N167	N	0.743315	0.232554	0.662934
N168	N	1.243315	0.732554	1.162934
H169	H	0.706056	0.266849	0.632846
H170	H	1.206056	0.766849	1.132846
N171	N	0.672170	0.098143	0.146092
N172	N	1.172170	0.598143	0.646092
N173	N	0.636910	0.097626	0.210612
N174	N	1.136910	0.597626	0.710612
H175	H	0.665366	0.098058	0.262757
H176	H	1.165366	0.598058	0.762757
N177	N	0.789424	0.190128	0.794334
N178	N	1.289424	0.690128	1.294334
N179	N	0.743326	0.232565	0.757073
N180	N	1.243326	0.732565	1.257073
H181	H	0.706082	0.266864	0.787166
H182	H	1.206082	0.766864	1.287166
N183	N	0.759036	-0.093308	-0.000000
N184	N	1.259036	0.406692	0.500000
N185	N	0.696934	-0.118288	-0.000010
N186	N	1.196934	0.381712	0.499990
H187	H	0.647586	-0.085937	-0.000017
H188	H	1.147586	0.414063	0.499983
H189	H	0.520799	0.095876	0.131112
H190	H	1.020799	0.595876	0.631112
H191	H	0.123516	0.090032	-0.131126
H192	H	0.623516	0.590032	0.368874
N193	N	0.115301	0.089910	0.146085
N194	N	0.615301	0.589910	0.646085
N195	N	0.044820	0.088871	0.146080
N196	N	0.544820	0.588871	0.646080
H197	H	0.016333	0.088457	0.198215
H198	H	0.516333	0.588457	0.698215
H199	H	0.520811	0.095889	-0.131120
H200	H	1.020811	0.595889	0.368880
H201	H	0.664029	0.098009	-0.131126
H202	H	1.164029	0.598009	0.368874
N203	N	1.037921	-0.127435	0.000051
N204	N	1.537921	0.372565	0.500051
N205	N	1.083967	-0.141233	0.055940
N206	N	1.583967	0.358767	0.555940
H207	H	1.134152	-0.121060	0.055955
H208	H	1.634152	0.378940	0.555955
N209	N	0.756699	-0.240519	-0.000005
N210	N	1.256699	0.259481	0.499995
N211	N	0.755668	-0.305540	-0.000009
N212	N	1.255668	0.194460	0.499991
H213	H	0.705491	-0.325727	-0.000019
H214	H	1.205491	0.174273	0.499981
H215	H	1.014302	-0.709365	-0.000029
H216	H	1.514302	-0.209365	0.499971
