data_functionalizedCrystal
_audit_creation_method	'MofGen! by Chris Wilmer'
_symmetry_space_group_name_H-M	'P1'
_symmetry_Int_Tables_number	1
_symmetry_cell_setting	triclinic
loop_
_symmetry_equiv_pos_as_xyz
  x,y,z
_cell_length_a	13.897449
_cell_length_b	13.897448
_cell_length_c	17.077396
_cell_angle_alpha	90.027368
_cell_angle_beta	90.021102
_cell_angle_gamma	90.018519
loop_
_atom_site_label
_atom_site_type_symbol
_atom_site_fract_x
_atom_site_fract_y
_atom_site_fract_z
Zn1	Zn	1.474681	-0.383994	0.443882
Zn2	Zn	1.474581	-0.545306	0.312619
Zn3	Zn	1.313376	-0.384029	0.312627
Zn4	Zn	1.313352	-0.545251	0.443839
O5	O	1.393998	-0.464645	0.378242
O6	O	1.609649	-0.405400	0.426485
O7	O	1.453166	-0.523951	0.202773
O8	O	1.334826	-0.249043	0.330059
O9	O	1.609576	-0.523916	0.330046
O10	O	1.453335	-0.249017	0.426492
O11	O	1.334729	-0.405461	0.202779
O12	O	1.178392	-0.405407	0.330017
O13	O	1.334784	-0.523821	0.553692
O14	O	1.178373	-0.523856	0.426418
O15	O	1.453311	-0.405347	0.553724
O16	O	1.453142	-0.680280	0.330004
O17	O	1.334687	-0.680240	0.426411
C18	C	1.143383	-0.464630	0.378214
C19	C	1.036169	-0.464647	0.378221
C20	C	0.949100	-0.464650	0.378234
C21	C	0.839867	-0.464657	0.378258
C22	C	1.393927	-0.715259	0.378219
C23	C	1.393985	-0.822473	0.378235
C24	C	1.394087	-1.018768	0.378285
C25	C	1.394028	-0.909536	0.378260
C26	C	1.645590	-0.464660	0.378270
C27	C	1.752804	-0.464667	0.378281
C28	C	1.394056	-0.464574	0.582986
C29	C	1.394081	-0.464544	0.670236
C30	C	1.394094	-0.213052	0.378282
C31	C	1.394136	-0.105838	0.378299
C32	C	1.393995	-0.464646	0.174294
C33	C	1.394157	-0.464405	0.087044
C34	C	1.455800	-0.402849	0.711244
C35	C	1.455812	-0.402816	0.793224
C36	C	1.394108	-0.464485	0.834195
C37	C	1.332382	-0.526183	0.793182
C38	C	1.332366	-0.526209	0.711203
C39	C	1.332420	-0.526125	0.964052
C40	C	1.332437	-0.526100	1.046036
C41	C	1.455867	-0.402732	1.046074
C42	C	1.455851	-0.402758	0.964095
C43	C	1.394125	-0.464458	0.923086
H44	H	1.506050	-0.352634	0.677891
H45	H	1.282098	-0.576438	0.677815
H46	H	1.506073	-0.352580	0.826610
C47	C	1.522881	-0.335701	0.919751
C48	C	1.576922	-0.281642	0.973209
C49	C	1.638669	-0.219848	0.932388
H50	H	1.564971	-0.372507	0.887769
H51	H	1.486011	-0.293630	0.887789
H52	H	1.613789	-0.323707	1.005157
H53	H	1.534857	-0.244816	1.005193
H54	H	1.601800	-0.177777	0.900426
H55	H	1.680753	-0.256662	0.900407
H56	H	1.675337	-0.183155	0.968653
C57	C	1.522765	-0.335765	1.090734
C58	C	1.509549	-0.348910	1.171297
C59	C	1.571145	-0.287229	1.212466
H60	H	1.587609	-0.349822	1.077409
H61	H	1.508654	-0.270941	1.077345
H62	H	1.523666	-0.413719	1.184680
H63	H	1.444717	-0.334846	1.184646
H64	H	1.557034	-0.222406	1.199077
H65	H	1.635986	-0.301292	1.199134
H66	H	1.562180	-0.296134	1.267131
C67	C	1.265335	-0.593085	1.090380
C68	C	1.211251	-0.647101	1.036923
C69	C	1.149417	-0.708808	1.077743
H70	H	1.302114	-0.635193	1.122361
H71	H	1.223283	-0.556188	1.122344
H72	H	1.253298	-0.683995	1.004972
H73	H	1.174452	-0.605018	1.004940
H74	H	1.107364	-0.671911	1.109707
H75	H	1.186204	-0.750910	1.109722
H76	H	1.112707	-0.745459	1.041479
C77	C	1.265571	-0.593170	0.919419
C78	C	1.320169	-0.654987	0.872341
C79	C	1.258630	-0.716755	0.831203
H80	H	1.228801	-0.629995	0.955462
H81	H	1.223567	-0.556307	0.887389
H82	H	1.362155	-0.691846	0.904368
H83	H	1.356937	-0.618188	0.836283
H84	H	1.216626	-0.679892	0.799174
H85	H	1.221863	-0.753574	0.867252
H86	H	1.295665	-0.758699	0.799251
H87	H	1.282138	-0.576391	0.826547
