data_functionalizedCrystal
_audit_creation_method	'MofGen! by Chris Wilmer'
_symmetry_space_group_name_H-M	'P1'
_symmetry_Int_Tables_number	1
_symmetry_cell_setting	triclinic
loop_
_symmetry_equiv_pos_as_xyz
  x,y,z
_cell_length_a	14.908932
_cell_length_b	19.805407
_cell_length_c	19.805399
_cell_angle_alpha	90.019573
_cell_angle_beta	86.686672
_cell_angle_gamma	86.700340
loop_
_atom_site_label
_atom_site_type_symbol
_atom_site_fract_x
_atom_site_fract_y
_atom_site_fract_z
Zn1	Zn	0.359180	1.019292	0.367217
Zn2	Zn	0.859180	1.519292	0.867217
Zn3	Zn	0.510045	1.012720	0.247517
Zn4	Zn	1.010045	1.512720	0.747517
Zn5	Zn	0.359205	0.906106	0.254041
Zn6	Zn	0.859205	1.406106	0.754041
Zn7	Zn	0.509997	0.899586	0.360666
Zn8	Zn	1.009997	1.399586	0.860666
O9	O	0.434607	0.959426	0.307360
O10	O	0.934607	1.459426	0.807360
O11	O	0.379202	1.113136	0.351350
O12	O	0.879202	1.613136	0.851350
O13	O	0.490066	0.998556	0.153665
O14	O	0.990066	1.498556	0.653665
O15	O	0.232957	0.926599	0.274525
O16	O	0.732957	1.426599	0.774525
O17	O	0.490042	1.108308	0.263407
O18	O	0.990042	1.608308	0.763407
O19	O	0.232938	1.009757	0.357676
O20	O	0.732938	1.509757	0.857676
O21	O	0.379244	0.920227	0.158457
O22	O	0.879244	1.420227	0.658457
O23	O	0.379198	0.810525	0.268173
O24	O	0.879198	1.310525	0.768173
O25	O	0.489960	0.915487	0.456253
O26	O	0.989960	1.415487	0.956253
O27	O	0.489984	0.805734	0.346511
O28	O	0.989984	1.305734	0.846511
O29	O	0.379156	1.003434	0.461066
O30	O	0.879156	1.503434	0.961066
O31	O	0.636283	0.992234	0.257055
O32	O	1.136283	1.492234	0.757055
O33	O	0.636248	0.909114	0.340185
O34	O	1.136248	1.409114	0.840185
C35	C	0.434589	0.783571	0.307339
C36	C	0.934589	1.283571	0.807339
C37	C	0.434604	0.708338	0.307345
C38	C	0.934604	1.208338	0.807345
C39	C	0.199298	0.969638	0.317559
C40	C	0.699298	1.469638	0.817559
C41	C	0.099024	0.973990	0.321905
C42	C	0.599024	1.473990	0.821905
C43	C	0.492377	0.670513	0.348062
C44	C	0.992377	1.170513	0.848062
C45	C	0.492379	0.599825	0.348071
C46	C	0.992379	1.099825	0.848071
C47	C	0.434611	0.566962	0.307360
C48	C	0.934611	1.066962	0.807360
C49	C	0.376831	0.604792	0.266642
C50	C	0.876831	1.104792	0.766642
C51	C	0.376826	0.675479	0.266637
C52	C	0.876826	1.175479	0.766637
C53	C	0.376851	0.319718	0.266664
C54	C	0.876851	0.819718	0.766664
C55	C	0.376863	0.249025	0.266671
C56	C	0.876863	0.749025	0.766671
C57	C	0.492404	0.244063	0.348098
C58	C	0.992404	0.744063	0.848098
C59	C	0.492399	0.314751	0.348093
C60	C	0.992399	0.814751	0.848093
C61	C	0.434616	0.352574	0.307378
C62	C	0.934616	0.852574	0.807378
C63	C	0.434614	0.429223	0.307369
C64	C	0.934614	0.929223	0.807369
C65	C	0.434617	0.490315	0.307365
C66	C	0.934617	0.990315	0.807365
C67	C	-0.089385	0.895560	0.243489
C68	C	0.410615	1.395560	0.743489
C69	C	-0.183601	0.899647	0.247570
C70	C	0.316399	1.399647	0.747570
C71	C	-0.183628	0.986247	0.334152
C72	C	0.316372	1.486247	0.834152
C73	C	-0.089411	0.982160	0.330070
C74	C	0.410589	1.482160	0.830070
C75	C	-0.042293	0.936816	0.284737
C76	C	0.457707	1.436816	0.784737
C77	C	0.051926	0.932733	0.280652
C78	C	0.551926	1.432733	0.780652
C79	C	0.051898	1.019329	0.367237
C80	C	0.551898	1.519329	0.867237
C81	C	-0.042319	1.023415	0.371318
C82	C	0.457681	1.523415	0.871318
C83	C	0.669000	0.949271	0.297216
C84	C	1.169000	1.449271	0.797216
C85	C	0.769274	0.944989	0.292899
C86	C	1.269274	1.444989	0.792899
C87	C	0.434550	0.959466	0.483906
C88	C	0.934550	1.459466	0.983906
C89	C	0.434526	0.959483	0.559139
C90	C	0.934526	1.459483	1.059139
C91	C	0.434625	1.135968	0.307382
C92	C	0.934625	1.635968	0.807382
C93	C	0.434632	1.211199	0.307391
C94	C	0.934632	1.711199	0.807391
C95	C	0.434598	0.959427	0.131505
C96	C	0.934598	1.459427	0.631505
C97	C	0.434368	0.959552	0.056283
C98	C	0.934368	1.459552	0.556283
C99	C	0.376827	1.005279	0.596990
C100	C	0.876827	1.505279	1.096990
C101	C	0.376800	1.005287	0.667680
C102	C	0.876800	1.505287	1.167680
C103	C	0.434478	0.959502	0.700516
C104	C	0.934478	1.459502	1.200516
C105	C	0.492180	0.913702	0.662660
C106	C	0.992180	1.413702	1.162660
C107	C	0.492201	0.913691	0.591972
C108	C	0.992201	1.413691	1.091972
C109	C	0.492096	0.913744	0.947737
C110	C	0.992096	1.413744	1.447737
C111	C	0.492072	0.913759	1.018430
C112	C	0.992072	1.413759	1.518430
C113	C	0.376695	1.005340	1.023445
C114	C	0.876695	1.505340	1.523445
C115	C	0.376716	1.005329	0.952757
C116	C	0.876716	1.505329	1.452757
C117	C	0.434414	0.959526	0.914907
C118	C	0.934414	1.459526	1.414907
C119	C	0.434441	0.959517	0.838257
C120	C	0.934441	1.459517	1.338257
C121	C	0.434457	0.959514	0.777164
C122	C	0.934457	1.459514	1.277164
H123	H	0.539421	0.697265	0.381211
H124	H	1.039421	1.197265	0.881211
H125	H	0.539442	0.341504	0.381241
H126	H	1.039442	0.841504	0.881241
H127	H	-0.221941	0.866052	0.213983
H128	H	0.278059	1.366052	0.713983
H129	H	0.329861	1.042564	0.570260
H130	H	0.829861	1.542564	1.070260
H131	H	0.329816	0.222271	0.233519
H132	H	0.829816	0.722271	0.733519
H133	H	-0.080694	1.060332	0.408230
H134	H	0.419306	1.560332	0.908230
C135	C	0.313356	1.055677	0.709316
C136	C	0.813356	1.555677	1.209316
H137	H	0.321601	1.049126	0.756118
H138	H	0.821601	1.549126	1.256118
H139	H	0.326589	1.100572	0.697160
H140	H	0.826589	1.600572	1.197160
H141	H	0.252733	1.048413	0.700363
H142	H	0.752733	1.548413	1.200363
H143	H	0.329776	0.706275	0.233485
H144	H	0.829776	1.206275	0.733485
C145	C	0.103700	1.064713	0.412610
C146	C	0.603700	1.564713	0.912610
H147	H	0.166561	1.055785	0.403689
H148	H	0.666561	1.555785	0.903689
H149	H	0.088261	1.110856	0.403374
H150	H	0.588261	1.610856	0.903374
H151	H	0.088247	1.055488	0.458759
H152	H	0.588247	1.555488	0.958759
H153	H	0.329712	1.042632	1.054271
H154	H	0.829712	1.542632	1.554271
H155	H	0.539042	0.876473	1.045163
H156	H	1.039042	1.376473	1.545163
H157	H	-0.222004	1.023160	0.371066
H158	H	0.277996	1.523160	0.871066
C159	C	0.313309	0.361314	0.221867
C160	C	0.813309	0.861314	0.721867
H161	H	0.278917	0.331616	0.197615
H162	H	0.778917	0.831616	0.697615
H163	H	0.274038	0.390604	0.249495
H164	H	0.774038	0.890604	0.749495
H165	H	0.347778	0.387380	0.190838
H166	H	0.847778	0.887380	0.690838
C167	C	0.103755	0.882854	0.230792
C168	C	0.603755	1.382854	0.730792
H169	H	0.062211	0.858864	0.206817
H170	H	0.562211	1.358864	0.706817
H171	H	0.140523	0.907138	0.199707
H172	H	0.640523	1.407138	0.699707
H173	H	0.140494	0.851775	0.255097
H174	H	0.640494	1.351775	0.755097
H175	H	0.329791	0.578029	0.233498
H176	H	0.829791	1.078029	0.733498
C177	C	0.555542	0.863350	0.906111
C178	C	1.055542	1.363350	1.406111
H179	H	0.589888	0.836086	0.935794
H180	H	1.089888	1.336086	1.435794
H181	H	0.521017	0.835358	0.880037
H182	H	1.021017	1.335358	1.380037
H183	H	0.594874	0.887516	0.876827
H184	H	1.094874	1.387516	1.376827
C185	C	0.555984	0.558218	0.392815
C186	C	1.055984	1.058218	0.892815
H187	H	0.590412	0.587913	0.417041
H188	H	1.090412	1.087913	0.917041
H189	H	0.521581	0.532126	0.423856
H190	H	1.021581	1.032126	0.923856
H191	H	0.595232	0.528954	0.365137
H192	H	1.095232	1.028954	0.865137
C193	C	0.555956	0.202456	0.392892
C194	C	1.055956	0.702456	0.892892
H195	H	0.547681	0.155651	0.387073
H196	H	1.047681	0.655651	0.887073
H197	H	0.616552	0.211412	0.380288
H198	H	1.116552	0.711412	0.880288
H199	H	0.542826	0.214632	0.438954
H200	H	1.042826	0.714632	0.938954
H201	H	-0.051020	0.858643	0.206573
H202	H	0.448980	1.358643	0.706573
C203	C	0.313268	1.055690	0.916640
C204	C	0.813268	1.555690	1.416640
H205	H	0.278893	1.082961	0.949308
H206	H	0.778893	1.582961	1.449308
H207	H	0.347785	1.083679	0.887572
H208	H	0.847785	1.583679	1.387572
H209	H	0.273964	1.031492	0.890767
H210	H	0.773964	1.531492	1.390767
C211	C	0.555625	0.863340	0.698778
C212	C	1.055625	1.363340	1.198778
H213	H	0.547357	0.869909	0.746299
H214	H	1.047357	1.369909	1.246299
H215	H	0.542423	0.818434	0.687759
H216	H	1.042423	1.318434	1.187759
H217	H	0.616247	0.870619	0.684565
H218	H	1.116247	1.370619	1.184565
C219	C	0.555692	0.863332	0.550334
C220	C	1.055692	1.363332	1.050334
H221	H	0.590052	0.836074	0.580013
H222	H	1.090052	1.336074	1.080013
H223	H	0.521205	0.835329	0.524240
H224	H	1.021205	1.335329	1.024240
H225	H	0.595007	0.887531	0.521068
H226	H	1.095007	1.387531	1.021068
