data_functionalizedCrystal
_audit_creation_method	'MofGen! by Chris Wilmer'
_symmetry_space_group_name_H-M	'P1'
_symmetry_Int_Tables_number	1
_symmetry_cell_setting	triclinic
loop_
_symmetry_equiv_pos_as_xyz
  x,y,z
_cell_length_a	12.759401
_cell_length_b	18.050589
_cell_length_c	12.759393
_cell_angle_alpha	90.030621
_cell_angle_beta	90.018496
_cell_angle_gamma	90.028382
loop_
_atom_site_label
_atom_site_type_symbol
_atom_site_fract_x
_atom_site_fract_y
_atom_site_fract_z
Zn1	Zn	1.606157	-0.295612	0.593988
Zn2	Zn	1.606010	-0.419823	0.418311
Zn3	Zn	1.430459	-0.295651	0.418328
Zn4	Zn	1.430406	-0.419766	0.593953
O5	O	1.518258	-0.357713	0.506145
O6	O	1.753158	-0.312097	0.570692
O7	O	1.582683	-0.403391	0.271292
O8	O	1.453849	-0.191722	0.441651
O9	O	1.753050	-0.403354	0.441623
O10	O	1.582934	-0.191693	0.570708
O11	O	1.453706	-0.312163	0.271304
O12	O	1.283431	-0.312108	0.441617
O13	O	1.453759	-0.403256	0.740979
O14	O	1.283392	-0.403294	0.570648
O15	O	1.582882	-0.312041	0.741005
O16	O	1.582632	-0.523740	0.441589
O17	O	1.453616	-0.523698	0.570632
C18	C	1.245290	-0.357699	0.506131
C19	C	1.128514	-0.357711	0.506149
C20	C	1.073659	-0.405268	0.573225
C21	C	0.963935	-0.405277	0.573236
C22	C	0.963930	-0.310171	0.439088
C23	C	1.073652	-0.310159	0.439083
C24	C	1.128521	-0.452820	0.640292
C25	C	1.073666	-0.500382	0.707372
C26	C	0.963942	-0.500391	0.707383
C27	C	0.909072	-0.452839	0.640314
C28	C	1.518131	-0.550665	0.506127
C29	C	1.518173	-0.633211	0.506155
C30	C	1.448083	-0.832666	0.576304
C31	C	1.422469	-0.882114	0.480436
C32	C	1.518276	-0.784341	0.506169
C33	C	1.543942	-0.881974	0.602048
C34	C	1.518374	-0.930326	0.506191
C35	C	1.492611	-0.832703	0.410250
C36	C	1.614129	-0.832558	0.531927
C37	C	1.588551	-0.881985	0.435992
C38	C	1.518217	-0.700243	0.506158
C39	C	1.518433	-1.014423	0.506191
C40	C	1.792291	-0.357727	0.506160
C41	C	1.909068	-0.357733	0.506166
C42	C	1.518331	-0.357638	0.780178
C43	C	1.518363	-0.357606	0.896955
C44	C	1.518414	-0.164007	0.506185
C45	C	1.518480	-0.081462	0.506203
C46	C	1.518245	-0.357734	0.233178
C47	C	1.518417	-0.357557	0.116401
C48	C	1.585606	-0.310106	0.951832
C49	C	1.585631	-0.310079	1.061557
C50	C	1.451166	-0.405059	1.061516
C51	C	1.451136	-0.405081	0.951794
C52	C	1.652833	-0.262631	0.896993
C53	C	1.720083	-0.215128	0.951871
C54	C	1.720108	-0.215101	1.061595
C55	C	1.652883	-0.262577	1.116442
H56	H	1.217863	-0.452820	0.640288
C57	C	1.573225	-0.911214	0.711572
C58	C	1.579573	-0.995237	0.731409
C59	C	1.608848	-1.024473	0.840934
C60	C	1.631774	-0.969687	0.930621
C61	C	1.625427	-0.885659	0.910787
C62	C	1.596153	-0.856423	0.801262
H63	H	1.562601	-1.035797	0.665014
H64	H	1.613546	-1.086676	0.855616
H65	H	1.653445	-0.991330	1.011698
H66	H	1.642399	-0.845099	0.977182
H67	H	1.591454	-0.794220	0.786580
C68	C	1.794024	-0.162904	0.891544
C69	C	1.785523	-0.078474	0.906651
C70	C	1.859465	-0.026248	0.846327
C71	C	1.941907	-0.058452	0.770896
C72	C	1.950411	-0.142886	0.755786
C73	C	1.876469	-0.195112	0.816110
H74	H	1.724492	-0.054630	0.962492
H75	H	1.853170	0.036256	0.857512
H76	H	1.996643	-0.019791	0.726241
H77	H	2.011442	-0.166729	0.699945
H78	H	1.882764	-0.257616	0.804925
H79	H	1.695124	-0.810777	0.553739
C80	C	1.794074	-0.162846	1.121962
C81	C	1.868015	-0.110627	1.061637
C82	C	1.941987	-0.058373	1.122001
C83	C	1.942020	-0.058339	1.242691
C84	C	1.868076	-0.110561	1.303024
C85	C	1.794104	-0.162815	1.242659
H86	H	1.867994	-0.110650	0.972289
H87	H	1.996725	-0.019715	1.077339
H88	H	1.996779	-0.019658	1.287377
H89	H	1.868098	-0.110537	1.392372
H90	H	1.739366	-0.201473	1.287321
C91	C	1.377234	-0.457290	1.121841
C92	C	1.257797	-0.451232	1.106758
C93	C	1.183868	-0.503468	1.167080
C94	C	1.229376	-0.561763	1.242485
C95	C	1.348819	-0.567823	1.257571
C96	C	1.422748	-0.515587	1.197250
H97	H	1.224104	-0.408077	1.050936
H98	H	1.095448	-0.498982	1.155911
H99	H	1.174649	-0.600431	1.287138
H100	H	1.382512	-0.610978	1.313394
H101	H	1.511167	-0.520073	1.208418
C102	C	1.668792	-0.911064	0.355788
C103	C	1.785377	-0.890315	0.366609
C104	C	1.865609	-0.919396	0.286400
C105	C	1.829258	-0.969226	0.195368
C106	C	1.712668	-0.989978	0.184543
C107	C	1.632435	-0.960897	0.264752
H108	H	1.812291	-0.853425	0.434000
H109	H	1.951917	-0.904034	0.294414
H110	H	1.888651	-0.990754	0.135992
H111	H	1.685753	-1.026868	0.117152
H112	H	1.546127	-0.976259	0.256738
C113	C	1.377181	-0.457333	0.891409
C114	C	1.257751	-0.451270	0.906473
C115	C	1.183795	-0.503520	0.846082
C116	C	1.229269	-0.561834	0.770628
C117	C	1.348705	-0.567900	0.755561
C118	C	1.422661	-0.515650	0.815952
H119	H	1.224083	-0.408100	0.962331
H120	H	1.095380	-0.499030	0.857235
H121	H	1.174522	-0.600513	0.725923
H122	H	1.382373	-0.611070	0.699703
H123	H	1.511076	-0.520140	0.804798
H124	H	1.652822	-0.262649	0.807650
H125	H	1.118347	-0.539092	0.761983
H126	H	0.919282	-0.539112	0.762010
C127	C	1.134007	-0.257845	0.365308
C128	C	1.118966	-0.173429	0.374100
C129	C	1.179325	-0.121109	0.300332
C130	C	1.254723	-0.153206	0.217774
C131	C	1.269767	-0.237626	0.208979
C132	C	1.209409	-0.289946	0.282746
H133	H	1.063149	-0.149665	0.435217
H134	H	1.168188	-0.058615	0.306843
H135	H	1.299404	-0.114475	0.163167
H136	H	1.325585	-0.261390	0.147861
H137	H	1.220546	-0.352440	0.276235
C138	C	1.367781	-0.803400	0.656315
C139	C	1.250913	-0.822999	0.644332
C140	C	1.170610	-0.793731	0.724335
C141	C	1.207175	-0.744865	0.816322
C142	C	1.324049	-0.725264	0.828309
C143	C	1.404352	-0.754531	0.748305
H144	H	1.223840	-0.859175	0.576234
H145	H	1.084092	-0.808242	0.715461
H146	H	1.147730	-0.723200	0.875545
H147	H	1.351122	-0.689088	0.896406
H148	H	1.490870	-0.740021	0.757179
H149	H	1.652896	-0.262543	1.205786
H150	H	0.819728	-0.452844	0.640338
H151	H	1.341455	-0.903898	0.458669
C152	C	1.463214	-0.803596	0.300686
C153	C	1.540532	-0.754246	0.239764
C154	C	1.511135	-0.725139	0.130202
C155	C	1.404420	-0.745383	0.081563
C156	C	1.327096	-0.794737	0.142486
C157	C	1.356493	-0.823843	0.252048
H158	H	1.619534	-0.739257	0.275769
H159	H	1.568376	-0.688605	0.085103
H160	H	1.382659	-0.723837	0.000459
H161	H	1.248093	-0.809725	0.106481
H162	H	1.299251	-0.860378	0.297147
H163	H	0.919247	-0.271458	0.384483
