data_functionalizedCrystal
_audit_creation_method	'MofGen! by Chris Wilmer'
_symmetry_space_group_name_H-M	'P1'
_symmetry_Int_Tables_number	1
_symmetry_cell_setting	triclinic
loop_
_symmetry_equiv_pos_as_xyz
  x,y,z
_cell_length_a	14.044191
_cell_length_b	14.044220
_cell_length_c	16.776229
_cell_angle_alpha	89.992645
_cell_angle_beta	89.995480
_cell_angle_gamma	93.190327
loop_
_atom_site_label
_atom_site_type_symbol
_atom_site_fract_x
_atom_site_fract_y
_atom_site_fract_z
O1	O	1.277176	0.230202	-0.066253
O2	O	1.000504	0.221890	-0.066263
O3	O	1.134687	0.087710	-0.066250
O4	O	1.142993	0.364382	-0.066266
O5	O	1.134667	0.087700	0.066326
O6	O	1.000483	0.221879	0.066313
O7	O	1.277156	0.230192	0.066323
Zn8	Zn	1.138816	0.226034	0.087368
Zn9	Zn	1.138843	0.226048	-0.087308
O10	O	1.142972	0.364371	0.066311
C11	C	0.964872	0.218248	0.000024
C12	C	0.858728	0.207401	0.000020
C13	C	0.613270	0.264501	0.000025
C14	C	0.664395	0.187585	0.000028
C15	C	0.772532	0.198613	0.000024
C16	C	0.505123	0.253474	0.000029
C17	C	1.131041	0.052083	0.000038
C18	C	1.120197	-0.054060	0.000039
C19	C	1.100370	-0.248398	0.000026
C20	C	1.177285	-0.299526	0.000027
C21	C	1.166253	-0.407663	0.000020
C22	C	1.111400	-0.140252	0.000033
C23	C	1.312788	0.233834	0.000034
C24	C	1.418931	0.244681	0.000033
C25	C	1.146618	0.399998	0.000020
C26	C	1.157463	0.506142	0.000015
N27	N	1.138805	0.226024	0.206579
N28	N	1.138861	0.226050	-0.206519
C29	C	1.198244	0.166638	0.248302
C30	C	1.198249	0.166637	0.331754
C31	C	1.138820	0.226029	0.373482
C32	C	1.079375	0.285418	0.331753
C33	C	1.079365	0.285413	0.248303
C34	C	1.079411	0.285440	0.668300
C35	C	1.079427	0.285442	0.751757
C36	C	1.198294	0.166664	0.751752
C37	C	1.198285	0.166659	0.668301
C38	C	1.138837	0.226044	0.626580
C39	C	1.138830	0.226042	0.536091
C40	C	1.138830	0.226036	0.463969
H41	H	0.626952	0.113452	-0.000024
O42	O	1.255832	0.108902	0.627644
C43	C	1.242977	0.121531	0.545042
H44	H	1.213913	0.194479	0.533596
H45	H	1.314301	0.116803	0.513248
H46	H	1.190323	0.063527	0.521486
O47	O	0.657886	0.352957	0.000152
C48	C	0.631136	0.402857	0.068798
H49	H	0.605988	0.349772	0.116800
H50	H	0.694968	0.448472	0.091833
H51	H	0.570823	0.450677	0.053270
H52	H	1.246698	0.118307	0.785730
H53	H	1.251419	-0.262085	-0.000024
H54	H	1.031008	0.333795	0.634338
H55	H	1.026242	-0.285837	0.000022
H56	H	1.030982	0.333772	0.365733
O57	O	1.021598	0.343160	0.792169
C58	C	0.969140	0.395589	0.737452
H59	H	0.964747	0.356354	0.677970
H60	H	0.894130	0.403651	0.761578
H61	H	1.006120	0.469157	0.728561
H62	H	1.246642	0.118279	0.214332
O63	O	1.256088	0.108933	0.372159
C64	C	1.308531	0.056504	0.317435
H65	H	1.312897	0.095734	0.257941
H66	H	1.383552	0.048453	0.341533
H67	H	1.271555	-0.017067	0.308579
O68	O	1.021601	0.343192	0.207894
C69	C	0.969133	0.395599	0.262617
H70	H	1.008373	0.400017	0.322097
H71	H	0.961005	0.470601	0.238494
H72	H	0.895594	0.358558	0.271509
