data_functionalizedCrystal
_audit_creation_method	'MofGen! by Chris Wilmer'
_symmetry_space_group_name_H-M	'P1'
_symmetry_Int_Tables_number	1
_symmetry_cell_setting	triclinic
loop_
_symmetry_equiv_pos_as_xyz
  x,y,z
_cell_length_a	10.489711
_cell_length_b	10.489741
_cell_length_c	13.101039
_cell_angle_alpha	93.396862
_cell_angle_beta	86.606839
_cell_angle_gamma	84.533091
loop_
_atom_site_label
_atom_site_type_symbol
_atom_site_fract_x
_atom_site_fract_y
_atom_site_fract_z
O1	O	1.701031	0.172808	-0.085251
O2	O	2.201031	0.672808	0.414749
O3	O	1.329830	0.189741	-0.085245
O4	O	1.829830	0.689741	0.414755
O5	O	1.523877	-0.004324	-0.085242
O6	O	2.023877	0.495676	0.414758
O7	O	1.506985	0.366872	-0.085254
O8	O	2.006985	0.866872	0.414746
O9	O	1.509955	0.009623	0.085187
O10	O	2.009955	0.509623	0.585187
O11	O	1.315908	0.203688	0.085185
O12	O	1.815908	0.703688	0.585185
O13	O	1.687109	0.186755	0.085178
O14	O	2.187109	0.686755	0.585178
Zn15	Zn	1.499298	0.197436	0.112241
Zn16	Zn	1.999298	0.697436	0.612241
Zn17	Zn	1.517641	0.179060	-0.112308
Zn18	Zn	2.017641	0.679060	0.387692
O19	O	1.493062	0.380820	0.085175
O20	O	1.993062	0.880820	0.585175
C21	C	1.275337	0.195443	-0.000029
C22	C	1.775337	0.695443	0.499971
C23	C	1.133705	0.191642	-0.000027
C24	C	1.633705	0.691642	0.499973
C25	C	0.951320	0.308345	-0.000043
C26	C	1.451320	0.808345	0.499957
C27	C	1.050330	0.243173	-0.084070
C28	C	1.550330	0.743173	0.415930
C29	C	1.036576	0.256892	0.083960
C30	C	1.536576	0.756892	0.583960
C31	C	0.980385	0.119624	-0.084145
C32	C	1.480385	0.619624	0.415855
C33	C	0.966616	0.133367	0.083960
C34	C	1.466616	0.633367	0.583960
C35	C	1.065600	0.068104	-0.000087
C36	C	1.565600	0.568104	0.499913
C37	C	1.515640	-0.044882	-0.000028
C38	C	2.015640	0.455118	0.499972
C39	C	1.511823	-0.186511	-0.000030
C40	C	2.011823	0.313489	0.499970
C41	C	1.388357	-0.254639	-0.000035
C42	C	1.888357	0.245361	0.499965
C43	C	1.439817	-0.339891	0.083994
C44	C	1.939817	0.160109	0.583994
C45	C	1.453573	-0.353616	-0.084036
C46	C	1.953573	0.146384	0.415964
C47	C	1.563328	-0.269892	0.084069
C48	C	2.063328	0.230108	0.584069
C49	C	1.577073	-0.283615	-0.084036
C50	C	2.077073	0.216385	0.415964
C51	C	1.628620	-0.368838	0.000014
C52	C	2.128620	0.131162	0.500014
C53	C	1.741603	0.181052	-0.000040
C54	C	2.241603	0.681052	0.499960
C55	C	1.883235	0.184853	-0.000049
C56	C	2.383235	0.684853	0.499951
C57	C	1.501300	0.421377	-0.000041
C58	C	2.001300	0.921377	0.499959
C59	C	1.505117	0.563006	-0.000046
C60	C	2.005117	1.063006	0.499954
N61	N	1.486788	0.209976	0.265489
N62	N	1.986788	0.709976	0.765489
N63	N	1.530161	0.166509	-0.265556
N64	N	2.030161	0.666509	0.234444
C65	C	1.469769	0.227049	0.474532
C66	C	1.969769	0.727049	0.974532
C67	C	1.547176	0.149440	0.525408
C68	C	2.047176	0.649440	1.025408
C69	C	1.537707	0.158940	0.641727
C70	C	2.037707	0.658940	1.141727
C71	C	1.479237	0.217551	0.358203
C72	C	1.979237	0.717551	0.858203
H73	H	1.061729	0.314979	0.155000
H74	H	1.561729	0.814979	0.655000
N75	N	1.377718	0.319367	0.529454
N76	N	1.877718	0.819367	1.029454
N77	N	1.304936	0.392349	0.481693
N78	N	1.804936	0.892349	0.981693
H79	H	1.239926	0.457549	0.520491
H80	H	1.739926	0.957549	1.020491
H81	H	1.609714	-0.233246	0.155189
H82	H	2.109714	0.266754	0.655189
H83	H	0.901637	0.409839	-0.000129
H84	H	1.401637	0.909839	0.499871
N85	N	1.260998	-0.192340	0.000075
N86	N	1.760998	0.307660	0.500075
N87	N	1.180597	-0.205121	0.072119
N88	N	1.680597	0.294879	0.572119
H89	H	1.090650	-0.161123	0.072201
H90	H	1.590650	0.338877	0.572201
H91	H	1.635073	-0.258390	-0.155083
H92	H	2.135073	0.241610	0.344917
H93	H	1.087128	0.289615	-0.155109
H94	H	1.587128	0.789615	0.344891
H95	H	1.620560	0.075863	0.481607
H96	H	2.120560	0.575863	0.981607
N97	N	1.366991	-0.371488	0.173113
N98	N	1.866991	0.128512	0.673113
N99	N	1.251503	-0.329135	0.188087
N100	N	1.751503	0.170865	0.688087
H101	H	1.200061	-0.351447	0.251024
H102	H	1.700061	0.148553	0.751024
N103	N	1.756071	-0.430857	0.000088
N104	N	2.256071	0.069143	0.500088
N105	N	1.786627	-0.498976	0.071605
N106	N	2.286627	0.001024	0.571605
H107	H	1.876638	-0.542778	0.071663
H108	H	2.376638	-0.042778	0.571663
N109	N	0.949016	0.046822	-0.173357
N110	N	1.449016	0.546822	0.326643
N111	N	0.834447	0.032139	-0.187780
N112	N	1.334447	0.532139	0.312220
H113	H	0.812288	-0.019276	-0.250784
H114	H	1.312288	0.480724	0.249216
H115	H	1.115061	-0.033495	-0.000127
H116	H	1.615061	0.466505	0.499873
H117	H	0.929789	0.086972	0.155006
H118	H	1.429789	0.586972	0.655006
N119	N	1.395276	-0.399767	-0.173145
N120	N	1.895276	0.100233	0.326855
N121	N	1.282230	-0.359848	-0.188090
N122	N	1.782230	0.140152	0.311910
H123	H	1.241047	-0.392438	-0.251019
H124	H	1.741047	0.107562	0.248981
