data_functionalizedCrystal
_audit_creation_method	'MofGen! by Chris Wilmer'
_symmetry_space_group_name_H-M	'P1'
_symmetry_Int_Tables_number	1
_symmetry_cell_setting	triclinic
loop_
_symmetry_equiv_pos_as_xyz
  x,y,z
_cell_length_a	14.519709
_cell_length_b	13.339070
_cell_length_c	12.376457
_cell_angle_alpha	104.410245
_cell_angle_beta	101.296542
_cell_angle_gamma	80.345281
loop_
_atom_site_label
_atom_site_type_symbol
_atom_site_fract_x
_atom_site_fract_y
_atom_site_fract_z
O1	O	0.449827	-1.362507	-0.094056
O2	O	0.949827	-0.862507	0.405944
O3	O	0.389115	-1.067869	-0.094048
O4	O	0.889115	-0.567869	0.405952
O5	O	0.287221	-1.222998	-0.094042
O6	O	0.787221	-0.722998	0.405958
O7	O	0.551721	-1.207378	-0.094062
O8	O	1.051721	-0.707378	0.405938
O9	O	0.312650	-1.184229	0.093969
O10	O	0.812650	-0.684229	0.593969
O11	O	0.414544	-1.029100	0.093963
O12	O	0.914544	-0.529100	0.593963
O13	O	0.475256	-1.323739	0.093955
O14	O	0.975256	-0.823739	0.593955
Zn15	Zn	0.448937	-1.170264	0.123810
Zn16	Zn	0.948937	-0.670264	0.623810
Zn17	Zn	0.415434	-1.221343	-0.123903
Zn18	Zn	0.915434	-0.721343	0.376097
O19	O	0.577150	-1.168610	0.093949
O20	O	1.077150	-0.668610	0.593949
C21	C	0.391574	-1.010777	-0.000041
C22	C	0.891574	-0.510777	0.499959
C23	C	0.361005	-0.898419	-0.000038
C24	C	0.861005	-0.398419	0.499962
C25	C	0.265390	-1.202885	-0.000036
C26	C	0.765390	-0.702885	0.499964
C27	C	0.162454	-1.200703	-0.000036
C28	C	0.662454	-0.700703	0.499964
N29	N	0.471804	-1.135411	0.292866
N30	N	0.971804	-0.635411	0.792866
C31	C	-0.214489	-1.192677	-0.000065
C32	C	0.285511	-0.692677	0.499935
C33	C	-0.109612	-1.194906	-0.000056
C34	C	0.390388	-0.694906	0.499944
C35	C	-0.026021	-1.196690	-0.000049
C36	C	0.473979	-0.696690	0.499951
C37	C	0.078862	-1.198919	-0.000043
C38	C	0.578862	-0.698919	0.499957
C39	C	0.598980	-1.188723	-0.000059
C40	C	1.098980	-0.688723	0.499941
C41	C	0.701915	-1.190906	-0.000067
C42	C	1.201915	-0.690906	0.499933
C43	C	0.472796	-1.380832	-0.000054
C44	C	0.972796	-0.880832	0.499946
C45	C	0.503364	-1.493191	-0.000065
C46	C	1.003364	-0.993191	0.499935
C47	C	0.598692	-0.534063	-0.000074
C48	C	1.098692	-0.034063	0.499926
C49	C	0.627415	-0.639629	-0.000081
C50	C	1.127415	-0.139629	0.499919
C51	C	0.560815	-0.704332	-0.000070
C52	C	1.060815	-0.204332	0.499930
C53	C	0.465487	-0.663458	-0.000053
C54	C	0.965487	-0.163458	0.499947
C55	C	0.436759	-0.557883	-0.000055
C56	C	0.936759	-0.057883	0.499945
C57	C	0.398883	-0.728152	-0.000050
C58	C	0.898883	-0.228152	0.499950
C59	C	0.303554	-0.687278	-0.000033
C60	C	0.803554	-0.187278	0.499967
C61	C	0.274832	-0.581713	-0.000035
C62	C	0.774832	-0.081713	0.499965
C63	C	0.341432	-0.517011	-0.000046
C64	C	0.841432	-0.017011	0.499954
C65	C	0.427610	-0.833726	-0.000048
C66	C	0.927610	-0.333726	0.499952
C67	C	0.265678	-0.857547	-0.000029
C68	C	0.765678	-0.357547	0.499971
C69	C	0.236954	-0.751980	-0.000022
C70	C	0.736954	-0.251980	0.499978
N71	N	0.392562	-1.256204	-0.292960
N72	N	0.892562	-0.756204	0.207040
C73	C	0.339463	-1.337109	0.647859
C74	C	0.839463	-0.837109	1.147859
C75	C	0.323457	-1.361497	0.529520
C76	C	0.823457	-0.861497	1.029520
C77	C	0.360542	-1.304977	0.470351
C78	C	0.860542	-0.804977	0.970351
C79	C	0.413636	-1.224066	0.529532
C80	C	0.913636	-0.724066	1.029532
C81	C	0.429650	-1.199681	0.647883
C82	C	0.929650	-0.699681	1.147883
C83	C	0.450729	-1.167550	0.470375
C84	C	0.950729	-0.667550	0.970375
C85	C	0.503824	-1.086639	0.529556
C86	C	1.003824	-0.586639	1.029556
C87	C	0.519834	-1.062257	0.647895
C88	C	1.019834	-0.562257	1.147895
C89	C	0.482749	-1.118777	0.707064
C90	C	0.982749	-0.618777	1.207064
C91	C	0.434715	-1.191935	0.352024
C92	C	0.934715	-0.691935	0.852024
C93	C	0.524903	-1.054507	0.352048
C94	C	1.024903	-0.554507	0.852048
C95	C	0.540909	-1.030119	0.470387
C96	C	1.040909	-0.530119	0.970387
H97	H	0.505228	-0.866994	-0.000058
H98	H	1.005228	-0.366994	0.499942
H99	H	0.584140	-0.964240	0.518587
H100	H	1.084140	-0.464240	1.018587
Cl101	Cl	0.596927	-0.837044	-0.000074
Cl102	Cl	1.096927	-0.337044	0.499926
Cl103	Cl	0.117116	-0.700584	-0.000003
Cl104	Cl	0.617116	-0.200584	0.499997
H105	H	0.391486	-1.257813	0.303849
H106	H	0.891486	-0.757813	0.803849
H107	H	0.652906	-0.481376	-0.000092
H108	H	1.152906	0.018624	0.499908
H109	H	0.309279	-1.383125	0.696043
H110	H	0.809279	-0.883125	1.196043
Cl111	Cl	0.502867	-1.088112	0.855840
Cl112	Cl	1.002867	-0.588112	1.355840
Cl113	Cl	0.747250	-0.691007	-0.000106
Cl114	Cl	1.247250	-0.191007	0.499894
H115	H	0.280229	-1.427374	0.481339
H116	H	0.780229	-0.927374	0.981339
H117	H	0.318049	-0.431049	-0.000040
H118	H	0.818049	0.068951	0.499960
H119	H	0.197207	-0.548441	-0.000034
H120	H	0.697207	-0.048441	0.499966
Cl121	Cl	0.586594	-0.960553	0.722296
Cl122	Cl	1.086594	-0.460553	1.222296
H123	H	0.347507	-1.324838	0.373994
H124	H	0.847507	-0.824838	0.873994
H125	H	0.555103	-1.008485	0.303873
H126	H	1.055103	-0.508485	0.803873
H127	H	0.211445	-0.910229	-0.000025
H128	H	0.711445	-0.410229	0.499975
