data_functionalizedCrystal
_audit_creation_method	'MofGen! by Chris Wilmer'
_symmetry_space_group_name_H-M	'P1'
_symmetry_Int_Tables_number	1
_symmetry_cell_setting	triclinic
loop_
_symmetry_equiv_pos_as_xyz
  x,y,z
_cell_length_a	17.699104
_cell_length_b	11.892113
_cell_length_c	12.811434
_cell_angle_alpha	91.070463
_cell_angle_beta	96.331320
_cell_angle_gamma	94.375324
loop_
_atom_site_label
_atom_site_type_symbol
_atom_site_fract_x
_atom_site_fract_y
_atom_site_fract_z
O1	O	1.008343	0.079884	-0.137910
O2	O	0.787962	0.078124	-0.155044
O3	O	0.904415	0.094566	0.005339
O4	O	0.891890	0.063442	-0.298292
O5	O	0.895790	-0.092224	0.017217
O6	O	0.779337	-0.108666	-0.143165
O7	O	0.999718	-0.106906	-0.126031
Zn8	Zn	0.888158	-0.137443	-0.132712
Zn9	Zn	0.899522	0.108661	-0.148363
O10	O	0.883265	-0.123348	-0.286414
C11	C	0.755453	-0.015208	-0.148487
C12	C	0.671436	-0.015019	-0.146634
N13	N	0.880408	-0.305402	-0.122030
C14	C	0.146546	-0.023586	-0.230326
C15	C	0.225489	-0.023761	-0.232061
C16	C	0.274129	-0.014110	-0.137910
C17	C	0.243823	-0.004273	-0.042019
C18	C	0.164881	-0.004090	-0.040286
C19	C	0.562186	-0.005007	-0.049008
C20	C	0.641133	-0.005194	-0.050748
C21	C	0.622795	-0.024678	-0.240783
C22	C	0.543853	-0.024495	-0.239049
C23	C	0.513554	-0.014652	-0.143159
C24	C	0.427954	-0.014461	-0.141279
C25	C	0.359727	-0.014309	-0.139789
C26	C	0.961199	-0.553467	-0.233418
C27	C	0.955787	-0.671043	-0.225942
C28	C	0.864179	-0.658131	-0.099599
C29	C	0.869590	-0.540555	-0.107075
C30	C	0.918101	-0.488228	-0.173987
C31	C	0.923507	-0.370650	-0.181468
C32	C	0.831903	-0.357740	-0.055120
C33	C	0.826492	-0.475316	-0.047644
C34	C	1.032227	-0.013572	-0.132589
C35	C	1.116244	-0.013753	-0.134442
N36	N	0.907278	0.276621	-0.159036
C37	C	0.899665	0.005155	0.050127
C38	C	0.898355	0.017028	0.165885
C39	C	0.888015	-0.033935	-0.331202
C40	C	0.889326	-0.045800	-0.446961
C41	C	0.901205	0.135564	0.322566
C42	C	0.902440	0.124421	0.213801
C43	C	0.893037	-0.079229	0.226743
C44	C	0.891801	-0.068085	0.335508
C45	C	0.895885	0.039314	0.383415
C46	C	0.894644	0.050457	0.492181
C47	C	0.885246	-0.153192	0.505123
C48	C	0.886481	-0.164335	0.396357
H49	H	0.106948	-0.031453	-0.306994
H50	H	0.824692	-0.700755	-0.045111
H51	H	0.883160	-0.251777	0.357337
H52	H	0.880909	-0.231565	0.554677
H53	H	0.963004	-0.328048	-0.235956
O54	O	0.496715	-0.033829	-0.330607
C55	C	0.486857	-0.053231	-0.519282
C56	C	0.540326	-0.042648	-0.415671
H57	H	0.522093	-0.060389	-0.588082
H58	H	0.453068	0.024551	-0.528263
H59	H	0.445812	-0.131779	-0.518194
H60	H	0.581416	0.035854	-0.416687
H61	H	0.574060	-0.120486	-0.406730
H62	H	1.000691	-0.510863	-0.287910
O63	O	0.291049	0.005307	0.049454
C64	C	0.335314	0.118645	0.205223
C65	C	0.281809	0.107955	0.101647
H66	H	0.327850	0.201620	0.247462
H67	H	0.396959	0.116902	0.187570
H68	H	0.320704	0.045275	0.257354
H69	H	0.296350	0.181306	0.049466
H70	H	0.220179	0.109647	0.119377
O71	O	0.135347	0.005303	0.052801
C72	C	0.052423	-0.079977	0.171239
C73	C	0.085796	-0.090754	0.065777
H74	H	0.012367	-0.157638	0.181773
H75	H	0.019485	-0.001283	0.171847
H76	H	0.100761	-0.073059	0.238212
H77	H	0.037505	-0.097717	-0.001255
H78	H	0.118755	-0.169432	0.065259
H79	H	0.990883	-0.724157	-0.274336
H80	H	0.786998	-0.517936	0.006837
H81	H	0.796805	-0.304610	-0.006732
O82	O	0.898635	0.154864	0.538558
C83	C	0.908015	0.355678	0.514221
C84	C	0.903525	0.237503	0.461575
H85	H	0.911953	0.422523	0.452003
H86	H	0.960630	0.367075	0.574471
H87	H	0.854724	0.364916	0.555167
H88	H	0.956777	0.228183	0.420572
H89	H	0.850876	0.226159	0.401382
H90	H	0.904518	0.223013	0.361570
H91	H	0.889720	-0.166668	0.187719
O92	O	0.254832	-0.033167	-0.325285
C93	C	0.267792	0.046939	-0.494379
C94	C	0.234510	0.057709	-0.388849
H95	H	0.251388	0.120414	-0.545792
H96	H	0.244116	-0.035954	-0.535995
H97	H	0.332566	0.048421	-0.479440
H98	H	0.169738	0.056276	-0.403695
H99	H	0.258246	0.140592	-0.347266
O100	O	0.652358	-0.034164	-0.333847
C101	C	0.765839	-0.043137	-0.420749
C102	C	0.732465	-0.032358	-0.315288
H103	H	0.830609	-0.041704	-0.405778
H104	H	0.749461	0.030282	-0.472252
H105	H	0.742142	-0.126059	-0.462292
H106	H	0.756144	0.050520	-0.273656
H107	H	0.748837	-0.105837	-0.263860
O108	O	0.907574	0.218033	0.154839
C109	C	0.916817	0.421203	0.153493
C110	C	0.910985	0.315276	0.220387
H111	H	0.919592	0.499851	0.206464
H112	H	0.864672	0.420165	0.092596
H113	H	0.970563	0.422005	0.111895
H114	H	0.857270	0.314405	0.262053
H115	H	0.963167	0.316355	0.281221
H116	H	0.680735	0.002668	0.025925
H117	H	0.537526	0.003004	0.029072
