data_functionalizedCrystal
_audit_creation_method	'MofGen! by Chris Wilmer'
_symmetry_space_group_name_H-M	'P1'
_symmetry_Int_Tables_number	1
_symmetry_cell_setting	triclinic
loop_
_symmetry_equiv_pos_as_xyz
  x,y,z
_cell_length_a	12.827893
_cell_length_b	12.827892
_cell_length_c	18.215399
_cell_angle_alpha	90.024028
_cell_angle_beta	90.017704
_cell_angle_gamma	90.015172
loop_
_atom_site_label
_atom_site_type_symbol
_atom_site_fract_x
_atom_site_fract_y
_atom_site_fract_z
Zn1	Zn	1.597655	-0.416045	0.416094
Zn2	Zn	2.097655	0.083955	0.916094
Zn3	Zn	1.597554	-0.590804	0.293036
Zn4	Zn	2.097554	-0.090804	0.793036
Zn5	Zn	1.422901	-0.416077	0.293046
Zn6	Zn	1.922901	0.083923	0.793046
Zn7	Zn	1.422882	-0.590744	0.416066
Zn8	Zn	1.922882	-0.090744	0.916066
O9	O	1.510248	-0.503417	0.354561
O10	O	2.010248	-0.003417	0.854561
O11	O	1.743877	-0.439238	0.399778
O12	O	2.243877	0.060762	0.899778
O13	O	1.574352	-0.567665	0.190053
O14	O	2.074352	-0.067665	0.690053
O15	O	1.446132	-0.269837	0.309385
O16	O	1.946132	0.230163	0.809385
O17	O	1.743804	-0.567633	0.309368
O18	O	2.243804	-0.067633	0.809368
O19	O	1.574523	-0.269813	0.399788
O20	O	2.074523	0.230187	0.899788
O21	O	1.446035	-0.439294	0.190060
O22	O	1.946035	0.060706	0.690060
O23	O	1.276662	-0.439236	0.309357
O24	O	1.776662	0.060764	0.809357
O25	O	1.446100	-0.567531	0.519054
O26	O	1.946100	-0.067531	1.019054
O27	O	1.276649	-0.567563	0.399739
O28	O	1.776649	-0.067563	0.899739
O29	O	1.574505	-0.439180	0.519075
O30	O	2.074505	0.060820	1.019075
O31	O	1.574334	-0.737032	0.309340
O32	O	2.074334	-0.237032	0.809340
O33	O	1.446003	-0.736988	0.399730
O34	O	1.946003	-0.236988	0.899730
C35	C	1.238738	-0.503397	0.354547
C36	C	1.738738	-0.003397	0.854547
C37	C	1.122585	-0.503414	0.354558
C38	C	1.622585	-0.003414	0.854558
C39	C	1.510184	-0.774927	0.354547
C40	C	2.010184	-0.274927	0.854547
C41	C	1.510252	-0.891081	0.354566
C42	C	2.010252	-0.391081	0.854566
C43	C	1.070821	-0.567013	0.399213
C44	C	1.570821	-0.067013	0.899213
C45	C	0.950771	-0.567032	0.399226
C46	C	1.450771	-0.067032	0.899226
C47	C	1.446735	-0.942878	0.399260
C48	C	1.946735	-0.442878	0.899260
C49	C	1.446803	-1.062928	0.399281
C50	C	1.946803	-0.562928	0.899281
C51	C	1.782818	-0.503438	0.354575
C52	C	2.282818	-0.003438	0.854575
C53	C	1.898971	-0.503447	0.354581
C54	C	2.398971	-0.003447	0.854581
C55	C	1.510312	-0.503345	0.546514
C56	C	2.010312	-0.003345	1.046514
C57	C	1.510339	-0.503315	0.628312
C58	C	2.010339	-0.003315	1.128312
C59	C	1.510341	-0.230847	0.354590
C60	C	2.010341	0.269153	0.854590
C61	C	1.510381	-0.114694	0.354603
C62	C	2.010381	0.385306	0.854603
C63	C	1.510245	-0.503414	0.163354
C64	C	2.010245	-0.003414	0.663354
C65	C	1.510420	-0.503150	0.081556
C66	C	2.010420	-0.003150	0.581556
C67	C	1.577223	-0.436420	0.816519
C68	C	2.077223	0.063580	1.316519
C69	C	1.577236	-0.436389	0.893377
C70	C	2.077236	0.063611	1.393377
C71	C	1.443528	-0.570048	0.893344
C72	C	1.943528	-0.070048	1.393344
C73	C	1.443511	-0.570072	0.816487
C74	C	1.943511	-0.070072	1.316487
C75	C	1.510365	-0.503260	0.778076
C76	C	2.010365	-0.003260	1.278076
C77	C	1.510394	-0.503205	0.931792
C78	C	2.010394	-0.003205	1.431792
C79	C	1.510407	-0.503173	1.015126
C80	C	2.010407	-0.003173	1.515126
C81	C	1.510351	-0.503291	0.694737
C82	C	2.010351	-0.003291	1.194737
H83	H	1.115381	-0.621446	0.437437
H84	H	1.615381	-0.121446	0.937437
H85	H	1.564679	-0.935611	0.316314
H86	H	2.064679	-0.435611	0.816314
H87	H	1.392428	-1.107473	0.437548
H88	H	1.892428	-0.607473	0.937548
Cl89	Cl	1.362694	-0.874135	0.458318
Cl90	Cl	1.862694	-0.374135	0.958318
Cl91	Cl	1.661300	-0.352367	0.941702
Cl92	Cl	2.161300	0.147633	1.441702
Cl93	Cl	1.661263	-0.352423	0.768233
Cl94	Cl	2.161263	0.147577	1.268233
H95	H	1.389060	-0.624501	0.785186
H96	H	1.889060	-0.124501	1.285186
Cl97	Cl	1.594351	-1.045933	0.295524
Cl98	Cl	2.094351	-0.545933	0.795524
Cl99	Cl	1.359495	-0.654042	0.941638
Cl100	Cl	1.859495	-0.154042	1.441638
H101	H	0.906255	-0.621485	0.437454
H102	H	1.406255	-0.121485	0.937454
H103	H	1.078025	-0.448974	0.316340
H104	H	1.578025	0.051026	0.816340
Cl105	Cl	0.967688	-0.419379	0.295547
Cl106	Cl	1.467688	0.080621	0.795547
