data_functionalizedCrystal
_audit_creation_method	'MofGen! by Chris Wilmer'
_symmetry_space_group_name_H-M	'P1'
_symmetry_Int_Tables_number	1
_symmetry_cell_setting	triclinic
loop_
_symmetry_equiv_pos_as_xyz
  x,y,z
_cell_length_a	16.992695
_cell_length_b	10.654550
_cell_length_c	9.730223
_cell_angle_alpha	90.003749
_cell_angle_beta	89.998169
_cell_angle_gamma	92.423437
loop_
_atom_site_label
_atom_site_type_symbol
_atom_site_fract_x
_atom_site_fract_y
_atom_site_fract_z
O1	O	0.110186	-1.677356	-0.114405
O2	O	0.120685	-1.312785	-0.114384
O3	O	0.001285	-1.493609	-0.114383
O4	O	0.229586	-1.496532	-0.114405
O5	O	0.001288	-1.493607	0.114196
O6	O	0.120688	-1.312783	0.114196
O7	O	0.110189	-1.677354	0.114175
Zn8	Zn	0.115439	-1.495068	0.150477
Zn9	Zn	0.115435	-1.495071	-0.150686
O10	O	0.229589	-1.496530	0.114174
C11	C	0.119915	-1.265919	-0.000091
C12	C	0.117609	-1.126277	-0.000082
C13	C	-0.027947	-1.489848	-0.000093
C14	C	-0.115052	-1.478628	-0.000093
N15	N	0.115441	-1.495075	0.356014
C16	C	-0.164704	-1.586879	-0.000098
C17	C	-0.246548	-1.576330	-0.000111
C18	C	-0.278738	-1.457529	-0.000108
C19	C	-0.229080	-1.349270	-0.000107
C20	C	-0.147237	-1.359820	-0.000105
C21	C	-0.522574	-1.413802	-0.000124
C22	C	-0.604422	-1.403260	-0.000123
C23	C	-0.621884	-1.630321	-0.000129
C24	C	-0.540040	-1.640861	-0.000118
C25	C	-0.490389	-1.532602	-0.000124
N26	N	-0.362396	-1.446743	-0.000116
N27	N	-0.406733	-1.543389	-0.000126
C28	C	0.258821	-1.500291	-0.000119
C29	C	0.345926	-1.511510	-0.000128
C30	C	0.110959	-1.724220	-0.000121
C31	C	0.113265	-1.863862	-0.000139
C32	C	0.187910	-1.052866	-0.000109
C33	C	0.185738	-0.921658	-0.000132
C34	C	0.042959	-0.937282	-0.000108
C35	C	0.045131	-1.068488	-0.000075
C36	C	0.270342	-1.043844	-0.000129
C37	C	0.268171	-0.912636	-0.000152
N38	N	0.115427	-1.495073	-0.356223
C39	C	0.062589	-1.575168	0.427940
C40	C	0.062580	-1.575164	0.571823
C41	C	0.168281	-1.414971	0.571841
C42	C	0.168286	-1.414970	0.427961
C43	C	0.001565	-1.667658	0.427931
C44	C	0.001556	-1.667654	0.571814
H45	H	-0.138501	-1.683620	-0.000092
H46	H	0.299229	-0.873588	-0.095823
C47	C	0.030717	-1.879474	0.512599
C48	C	0.019698	-1.799504	0.624535
H49	H	0.041919	-1.960866	0.545151
H50	H	-0.015785	-1.884370	0.458364
H51	H	0.073499	-1.847427	0.458383
H52	H	-0.023089	-1.831546	0.678746
H53	H	0.066205	-1.794611	0.678793
C54	C	-0.125897	-1.588482	0.524890
C55	C	-0.075380	-1.619870	0.632068
H56	H	-0.173397	-1.559002	0.562094
H57	H	-0.101167	-1.524533	0.469975
H58	H	-0.137398	-1.660633	0.469929
H59	H	-0.063875	-1.547716	0.687024
H60	H	-0.100115	-1.683824	0.687006
H61	H	-0.286971	-1.664480	-0.000112
H62	H	-0.058735	-1.641004	0.388884
H63	H	-0.513837	-1.737601	-0.000120
H64	H	0.211316	-1.349741	0.369400
H65	H	-0.662319	-1.718459	-0.000126
H66	H	-0.482157	-1.325649	-0.000129
C67	C	-0.578945	-1.179867	-0.000159
C68	C	-0.639807	-1.272663	-0.000142
H69	H	-0.600793	-1.099249	-0.000181
H70	H	-0.547390	-1.188685	0.079549
H71	H	-0.547384	-1.188725	-0.079874
H72	H	-0.671366	-1.263812	0.079578
H73	H	-0.671376	-1.263842	-0.079858
H74	H	0.296589	-1.081769	-0.098819
H75	H	-0.012114	-1.128255	-0.000033
C76	C	-0.042319	-0.798828	-0.117635
C77	C	-0.036707	-0.873759	-0.000113
H78	H	-0.091505	-0.759621	-0.117641
H79	H	-0.000767	-0.736332	-0.117642
H80	H	-0.038504	-0.849721	-0.197325
H81	H	-0.040516	-0.822864	0.079578
H82	H	-0.078270	-0.936263	-0.000094
H83	H	0.020673	-1.760493	0.383297
H84	H	0.211306	-1.349751	0.630436
H85	H	-0.255296	-1.252539	-0.000114
C86	C	0.338078	-0.982284	0.207309
C87	C	0.313860	-1.087214	0.129011
H88	H	0.364937	-1.009063	0.287036
H89	H	0.372409	-0.929003	0.154149
H90	H	0.293307	-0.937636	0.233863
H91	H	0.358631	-1.131857	0.102449
H92	H	0.279527	-1.140515	0.182181
H93	H	0.293084	-0.869116	0.098529
H94	H	-0.106811	-1.271671	-0.000101
