data_functionalizedCrystal
_audit_creation_method	'MofGen! by Chris Wilmer'
_symmetry_space_group_name_H-M	'P1'
_symmetry_Int_Tables_number	1
_symmetry_cell_setting	triclinic
loop_
_symmetry_equiv_pos_as_xyz
  x,y,z
_cell_length_a	27.732048
_cell_length_b	11.792241
_cell_length_c	10.268362
_cell_angle_alpha	90.005428
_cell_angle_beta	89.999089
_cell_angle_gamma	83.418035
loop_
_atom_site_label
_atom_site_type_symbol
_atom_site_fract_x
_atom_site_fract_y
_atom_site_fract_z
O1	O	-0.641711	-0.135041	-0.108133
O2	O	-0.501036	-0.155574	-0.108173
O3	O	-0.574787	0.019972	-0.108143
O4	O	-0.567960	-0.310587	-0.108163
O5	O	-0.574781	0.019979	0.108458
O6	O	-0.501030	-0.155567	0.108428
O7	O	-0.641704	-0.135034	0.108467
Cu8	Cu	-0.571366	-0.145300	0.128225
Cu9	Cu	-0.571374	-0.145308	-0.127930
O10	O	-0.567953	-0.310580	0.108438
C11	C	-0.483024	-0.155140	0.000123
C12	C	-0.429361	-0.153842	0.000108
C13	C	-0.574355	0.062253	0.000157
C14	C	-0.573071	0.188226	0.000155
C15	C	-0.659717	-0.135469	0.000169
C16	C	-0.713379	-0.136766	0.000175
C17	C	-0.091101	-0.249407	0.000158
C18	C	0.110587	-0.244592	0.000170
O19	O	0.141335	-0.331980	0.000221
N20	N	0.130315	-0.140500	0.000174
C21	C	0.099617	-0.037605	0.000184
O22	O	0.121024	0.051042	0.000201
C23	C	-0.102070	-0.042422	0.000181
C24	C	-0.121794	-0.146520	0.000164
C25	C	-0.110826	-0.353497	0.000143
C26	C	-0.161245	-0.354700	0.000133
C27	C	-0.191939	-0.251813	0.000138
C28	C	-0.172213	-0.147723	0.000154
C29	C	-0.132766	0.060472	0.000200
C30	C	-0.183191	0.059259	0.000203
C31	C	-0.202915	-0.044840	0.000186
C32	C	-0.253326	-0.046038	0.000150
N33	N	-0.273054	-0.150130	0.000146
C34	C	-0.242360	-0.253017	0.000140
C35	C	0.205506	-0.035084	0.000183
C36	C	0.255927	-0.033879	0.000181
C37	C	0.266894	-0.240866	0.000170
C38	C	0.216471	-0.242070	0.000162
C39	C	0.185778	-0.139175	0.000179
C40	C	-0.348244	-0.255535	0.000118
C41	C	-0.398668	-0.256729	0.000102
C42	C	-0.409630	-0.049742	0.000120
C43	C	-0.359210	-0.048548	0.000129
C44	C	-0.328518	-0.151454	0.000132
O45	O	-0.284103	0.041303	0.000113
O46	O	-0.263777	-0.341651	0.000152
C47	C	-0.040682	-0.248205	0.000169
C48	C	-0.020957	-0.144115	0.000184
C49	C	-0.051650	-0.041227	0.000190
C50	C	0.029465	-0.142910	0.000183
C51	C	0.060159	-0.245797	0.000177
C52	C	0.040431	-0.349889	0.000173
C53	C	-0.009988	-0.351092	0.000163
C54	C	-0.031923	0.062864	0.000194
C55	C	0.018497	0.064058	0.000203
C56	C	0.049191	-0.038829	0.000197
C57	C	-0.568385	-0.352861	0.000135
C58	C	-0.569669	-0.478834	0.000128
N59	N	-0.571365	-0.145293	0.308391
C60	C	-0.570711	0.418862	0.000133
C61	C	-0.572023	0.290519	0.000145
N62	N	-0.571380	-0.145306	-0.308096
C63	C	-0.571372	-0.145306	0.574062
C64	C	-0.571366	-0.145302	0.426224
H65	H	-0.323260	-0.339331	0.000124
H66	H	0.200415	-0.326836	0.000156
N67	N	-0.216292	0.170245	0.000226
H68	H	-0.209912	0.215700	-0.080060
H69	H	-0.251215	0.153605	0.000271
N70	N	-0.337939	0.063734	0.000149
H71	H	-0.317270	0.068848	0.080456
H72	H	-0.317282	0.068793	-0.080185
H73	H	0.034551	0.148834	0.000206
H74	H	0.291893	-0.324641	0.000166
N75	N	0.073550	-0.460849	0.000200
H76	H	0.067172	-0.506287	0.080501
H77	H	0.067174	-0.506244	-0.080140
H78	H	-0.177300	-0.439467	0.000118
H79	H	-0.085840	-0.437285	0.000143
N80	N	0.277199	0.078397	0.000176
H81	H	0.250099	0.143387	0.000183
H82	H	0.297879	0.083412	0.080474
N83	N	-0.065024	0.173841	0.000210
H84	H	-0.044871	0.239957	0.000216
H85	H	-0.086181	0.177855	-0.080090
H86	H	-0.434629	0.034026	0.000120
N87	N	-0.031253	-0.463377	0.000156
H88	H	-0.051929	-0.468498	0.080448
H89	H	-0.051901	-0.468439	-0.080193
N90	N	-0.419937	-0.369016	0.000075
H91	H	-0.408766	-0.414049	0.080367
H92	H	-0.456533	-0.354086	0.000016
N93	N	0.172409	0.075910	0.000185
H94	H	0.151245	0.080028	-0.080109
H95	H	0.151275	0.079979	0.080532
N96	N	-0.111500	0.172751	0.000225
H97	H	-0.138602	0.237736	0.000239
H98	H	-0.090822	0.177759	0.080528
