data_functionalizedCrystal
_audit_creation_method	'MofGen! by Chris Wilmer'
_symmetry_space_group_name_H-M	'P1'
_symmetry_Int_Tables_number	1
_symmetry_cell_setting	triclinic
loop_
_symmetry_equiv_pos_as_xyz
  x,y,z
_cell_length_a	13.033286
_cell_length_b	13.032721
_cell_length_c	17.077395
_cell_angle_alpha	82.845542
_cell_angle_beta	82.821870
_cell_angle_gamma	89.137287
loop_
_atom_site_label
_atom_site_type_symbol
_atom_site_fract_x
_atom_site_fract_y
_atom_site_fract_z
Zn1	Zn	1.520111	-0.608909	0.356575
Zn2	Zn	2.020111	-0.108909	0.856575
Zn3	Zn	1.498163	-0.780887	0.243810
Zn4	Zn	1.998163	-0.280887	0.743810
Zn5	Zn	1.348150	-0.587125	0.239687
Zn6	Zn	1.848150	-0.087125	0.739687
Zn7	Zn	1.326270	-0.759020	0.389384
Zn8	Zn	1.826270	-0.259020	0.889384
O9	O	1.423173	-0.683985	0.307364
O10	O	1.923173	-0.183985	0.807364
O11	O	1.661104	-0.649990	0.329611
O12	O	2.161104	-0.149990	0.829611
O13	O	1.478235	-0.755218	0.133422
O14	O	1.978235	-0.255218	0.633422
O15	O	1.389303	-0.446102	0.239736
O16	O	1.889303	0.053898	0.739736
O17	O	1.644979	-0.776342	0.246764
O18	O	2.144979	-0.276342	0.746764
O19	O	1.515642	-0.462107	0.325613
O20	O	2.015642	0.037893	0.825613
O21	O	1.368021	-0.612862	0.130393
O22	O	1.868021	-0.112862	0.630393
O23	O	1.201343	-0.591659	0.271550
O24	O	1.701343	-0.091659	0.771550
O25	O	1.352012	-0.739073	0.494872
O26	O	1.852012	-0.239073	0.994872
O27	O	1.185268	-0.717950	0.381531
O28	O	1.685268	-0.217950	0.881531
O29	O	1.494426	-0.628787	0.470768
O30	O	1.994426	-0.128787	0.970768
O31	O	1.457019	-0.921899	0.278577
O32	O	1.957019	-0.421899	0.778577
O33	O	1.330730	-0.905833	0.385529
O34	O	1.830730	-0.405833	0.885529
C35	C	1.155993	-0.650068	0.329654
C36	C	1.655993	-0.150068	0.829654
C37	C	1.041689	-0.635584	0.339211
C38	C	1.541689	-0.135584	0.839211
C39	C	0.982762	-0.691545	0.302396
C40	C	1.482762	-0.191545	0.802396
C41	C	0.864623	-0.676576	0.312272
C42	C	1.364623	-0.176576	0.812272
C43	C	1.389146	-0.951184	0.336076
C44	C	1.889146	-0.451184	0.836076
C45	C	1.374684	-1.065505	0.348377
C46	C	1.874684	-0.565505	0.848377
C47	C	1.430776	-1.124394	0.300974
C48	C	1.930776	-0.624394	0.800974
C49	C	1.415830	-1.242551	0.313687
C50	C	1.915830	-0.742551	0.813687
C51	C	1.691397	-0.718035	0.284988
C52	C	2.191397	-0.218035	0.784988
C53	C	1.805698	-0.732545	0.275452
C54	C	2.305698	-0.232545	0.775452
C55	C	1.423226	-0.683921	0.512097
C56	C	1.923226	-0.183921	1.012097
C57	C	1.423249	-0.683893	0.599342
C58	C	1.923249	-0.183893	1.099342
C59	C	1.457361	-0.415746	0.278555
C60	C	1.957361	0.084254	0.778555
C61	C	1.471930	-0.301438	0.266278
C62	C	1.971930	0.198562	0.766278
C63	C	1.423189	-0.683982	0.103414
C64	C	1.923189	-0.183982	0.603414
C65	C	1.423403	-0.683745	0.016122
C66	C	1.923403	-0.183745	0.516122
C67	C	1.497536	-0.626342	0.962582
C68	C	1.997536	-0.126342	1.462582
C69	C	1.497510	-0.626376	0.880607
C70	C	1.997510	-0.126376	1.380607
C71	C	1.423346	-0.683807	0.852174
C72	C	1.923346	-0.183807	1.352174
C73	C	1.349209	-0.741217	0.905720
C74	C	1.849209	-0.241217	1.405720
C75	C	1.349240	-0.741189	0.987693
C76	C	1.849240	-0.241189	1.487693
C77	C	1.349148	-0.741270	0.734861
C78	C	1.849148	-0.241270	1.234861
C79	C	1.349116	-0.741296	0.652882
C80	C	1.849116	-0.241296	1.152882
C81	C	1.497419	-0.626457	0.627775
C82	C	1.997419	-0.126457	1.127775
C83	C	1.497450	-0.626428	0.709748
C84	C	1.997450	-0.126428	1.209748
C85	C	1.423311	-0.683837	0.763289
C86	C	1.923311	-0.183837	1.263289
H87	H	1.004675	-0.576594	0.378044
H88	H	1.504675	-0.076594	0.878044
H89	H	0.827614	-0.617582	0.351108
H90	H	1.327614	-0.117582	0.851108
H91	H	1.557783	-0.579710	0.584177
H92	H	2.057783	-0.079710	1.084177
N93	N	1.269140	-0.803254	0.622210
N94	N	1.769140	-0.303254	1.122210
H95	H	1.275768	-0.878755	0.643031
H96	H	1.775768	-0.378755	1.143031
H97	H	1.280423	-0.794470	0.562158
H98	H	1.780423	-0.294470	1.062158
N99	N	1.509057	-1.075322	0.234753
N100	N	2.009057	-0.575322	0.734753
H101	H	1.508641	-0.997871	0.235060
H102	H	2.008641	-0.497871	0.735060
H103	H	1.490743	-1.092081	0.182018
H104	H	1.990743	-0.592081	0.682018
H105	H	1.356741	-1.279605	0.363688
H106	H	1.856741	-0.779605	0.863688
H107	H	0.842705	-0.791550	0.236626
H108	H	1.342705	-0.291550	0.736626
H109	H	1.531027	-1.264387	0.216283
H110	H	2.031027	-0.764387	0.716283
N111	N	1.296416	-1.114579	0.414607
N112	N	1.796416	-0.614579	0.914607
H113	H	1.296834	-1.192030	0.414301
H114	H	1.796834	-0.692030	0.914301
H115	H	1.225324	-1.086612	0.406477
H116	H	1.725324	-0.586612	0.906477
N117	N	1.577519	-0.564386	0.993247
N118	N	2.077519	-0.064386	1.493247
H119	H	1.624478	-0.528027	0.946888
H120	H	2.124478	-0.028027	1.446888
H121	H	1.619786	-0.612275	1.027784
H122	H	2.119786	-0.112275	1.527784
H123	H	1.557879	-0.579635	0.837018
H124	H	2.057879	-0.079635	1.337018
H125	H	1.557837	-0.579658	0.732895
H126	H	2.057837	-0.079658	1.232895
N127	N	1.269191	-0.803193	0.792611
N128	N	1.769191	-0.303193	1.292611
H129	H	1.222200	-0.839577	0.762161
H130	H	1.722200	-0.339577	1.262161
H131	H	1.226953	-0.755275	0.826098
H132	H	1.726953	-0.255275	1.326098
N133	N	1.269211	-0.803153	0.875054
N134	N	1.769211	-0.303153	1.375054
H135	H	1.222253	-0.839514	0.921412
H136	H	1.722253	-0.339514	1.421412
H137	H	1.304986	-0.856072	0.842658
H138	H	1.804986	-0.356072	1.342658
H139	H	1.288874	-0.787933	1.031286
H140	H	1.788874	-0.287933	1.531286
H141	H	1.019775	-0.750541	0.263568
H142	H	1.519775	-0.250541	0.763568
