data_functionalizedCrystal
_audit_creation_method	'MofGen! by Chris Wilmer'
_symmetry_space_group_name_H-M	'P1'
_symmetry_Int_Tables_number	1
_symmetry_cell_setting	triclinic
loop_
_symmetry_equiv_pos_as_xyz
  x,y,z
_cell_length_a	17.639617
_cell_length_b	17.637651
_cell_length_c	21.395355
_cell_angle_alpha	101.232233
_cell_angle_beta	101.248275
_cell_angle_gamma	109.613464
loop_
_atom_site_label
_atom_site_type_symbol
_atom_site_fract_x
_atom_site_fract_y
_atom_site_fract_z
Zn1	Zn	1.193656	-0.073879	0.534032
Zn2	Zn	1.165702	-0.211711	0.402660
Zn3	Zn	1.055826	-0.101703	0.402680
Zn4	Zn	1.027964	-0.239496	0.480833
O5	O	1.110787	-0.156697	0.455051
O6	O	1.305274	-0.068891	0.538861
O7	O	1.151088	-0.197135	0.314976
O8	O	1.097468	0.017338	0.442376
O9	O	1.284736	-0.170155	0.442343
O10	O	1.198731	0.037780	0.538880
O11	O	1.070363	-0.116312	0.314991
O12	O	0.936804	-0.143254	0.390791
O13	O	1.049982	-0.217510	0.575577
O14	O	0.916334	-0.244490	0.448210
O15	O	1.171715	-0.095832	0.614662
O16	O	1.124072	-0.330747	0.390758
O17	O	1.022877	-0.351161	0.448191
C18	C	0.896666	-0.199907	0.413730
C19	C	0.805060	-0.218412	0.396064
C20	C	0.557125	-0.016100	0.589419
C21	C	0.471043	-0.033508	0.572802
C22	C	0.449715	-0.138781	0.472216
C23	C	0.535796	-0.121383	0.488826
C24	C	0.589495	-0.060041	0.547428
C25	C	0.568166	-0.165325	0.446835
C26	C	0.654240	-0.147926	0.463442
C27	C	0.707945	-0.086585	0.522040
C28	C	0.675569	-0.042642	0.564035
C29	C	0.514467	-0.226663	0.388231
C30	C	0.546837	-0.270605	0.346240
C31	C	0.632911	-0.253210	0.362849
C32	C	0.686616	-0.191869	0.421448
C33	C	0.665287	-0.297153	0.320855
C34	C	0.751361	-0.279754	0.337462
C35	C	0.772690	-0.174470	0.438055
C36	C	1.067440	-0.370859	0.413717
C37	C	1.048972	-0.462462	0.396070
C38	C	1.251626	-0.710270	0.589416
C39	C	1.234246	-0.796351	0.572818
C40	C	1.128871	-0.817730	0.472265
C41	C	1.146245	-0.731649	0.488853
C42	C	1.207623	-0.677925	0.547430
C43	C	1.102242	-0.699304	0.446867
C44	C	1.119612	-0.613230	0.463456
C45	C	1.180986	-0.559502	0.522031
C46	C	1.224993	-0.591852	0.564019
C47	C	1.040861	-0.753030	0.388293
C48	C	0.996857	-0.720685	0.346306
C49	C	1.014231	-0.634609	0.362892
C50	C	1.075605	-0.580881	0.421468
C51	C	0.970224	-0.602260	0.320904
C52	C	0.987594	-0.516186	0.337493
C53	C	1.092975	-0.494807	0.438057
C54	C	1.325744	-0.113320	0.496534
C55	C	1.417346	-0.094835	0.514211
C56	C	1.110859	-0.156667	0.618491
C57	C	1.110889	-0.156654	0.688139
C58	C	1.154326	0.058305	0.496565
C59	C	1.172879	0.149926	0.514255
C60	C	1.110775	-0.156659	0.292268
C61	C	1.110951	-0.156407	0.222696
C62	C	1.174274	-0.093294	0.741205
C63	C	1.174280	-0.093259	0.806647
C64	C	1.110907	-0.156596	0.819020
C65	C	1.047512	-0.219962	0.765943
C66	C	1.047503	-0.219990	0.700503
C67	C	1.089378	-0.232129	0.907115
C68	C	1.089392	-0.232101	0.972554
C69	C	1.110930	-0.156508	1.020858
C70	C	1.132471	-0.080939	1.003718
C71	C	1.132462	-0.080967	0.938278
C72	C	1.110909	-0.156572	0.889976
C73	C	1.174325	-0.093106	1.144885
C74	C	1.174325	-0.093070	1.210328
C75	C	1.047560	-0.219779	1.169622
C76	C	1.047556	-0.219808	1.104182
C77	C	1.110943	-0.156472	1.091818
H78	H	0.719294	0.007306	0.611756
C79	C	1.292515	-0.532749	0.628453
C80	C	1.268718	-0.480786	0.682129
C81	C	1.336237	-0.421685	0.746560
C82	C	1.427553	-0.414547	0.757314
C83	C	1.451355	-0.466512	0.703636
C84	C	1.383836	-0.525612	0.639205
H85	H	1.201116	-0.486069	0.674170
H86	H	1.318617	-0.383218	0.786296
H87	H	1.477534	-0.370797	0.805009
H88	H	1.518956	-0.461229	0.711595
H89	H	1.401456	-0.564080	0.599469
H90	H	0.777717	-0.315536	0.303269
C91	C	1.160499	-0.435698	0.502487
C92	C	1.251816	-0.428555	0.513239
C93	C	1.319337	-0.369444	0.577665
C94	C	1.295541	-0.317476	0.631339
C95	C	1.204219	-0.324617	0.620589
C96	C	1.136698	-0.383728	0.556163
H97	H	1.269435	-0.467026	0.473505
H98	H	1.386940	-0.364157	0.585622
H99	H	1.345525	-0.273718	0.679031
H100	H	1.186600	-0.286146	0.660323
H101	H	1.069096	-0.389015	0.548205
C102	C	0.435445	0.014843	0.618997
C103	C	0.389359	0.067647	0.592999
C104	C	0.353764	0.116004	0.639190
C105	C	0.364256	0.111557	0.711380
C106	C	0.410344	0.058751	0.737382
C107	C	0.445939	0.010393	0.691190
H108	H	0.381590	0.070941	0.539556
H109	H	0.319647	0.155095	0.619942
H110	H	0.337907	0.147354	0.745574
H111	H	0.418113	0.055457	0.790824
H112	H	0.480056	-0.028697	0.710439
H113	H	1.195128	-0.489416	0.535536
C114	C	0.902708	-0.661360	0.256473
C115	C	0.811393	-0.668493	0.245714
C116	C	0.743878	-0.727591	0.181281
C117	C	0.767677	-0.779556	0.127607
C118	C	0.858996	-0.772424	0.138364
C119	C	0.926512	-0.713326	0.202797
H120	H	0.793772	-0.630025	0.285448
H121	H	0.676277	-0.732870	0.173318
H122	H	0.717698	-0.823303	0.079910
H123	H	0.876618	-0.810892	0.098630
H124	H	0.994113	-0.708046	0.210760
H125	H	0.995884	-0.271585	0.657294
C126	C	0.802629	-0.067441	0.540314
C127	C	0.865976	0.021363	0.548702
C128	C	0.960660	0.040507	0.566976
C129	C	0.991996	-0.029152	0.576862
C130	C	0.928648	-0.117963	0.568474
C131	C	0.833964	-0.137107	0.550200
H132	H	0.842781	0.072935	0.541384
H133	H	1.007555	0.106251	0.573185
H134	H	1.062087	-0.014980	0.590389
H135	H	0.951844	-0.169534	0.575792
H136	H	0.787069	-0.202850	0.543990
C137	C	1.319150	-0.651160	0.653847
C138	C	1.410468	-0.644017	0.664599
C139	C	1.477989	-0.584906	0.729025
C140	C	1.454193	-0.532938	0.782699
C141	C	1.362871	-0.540080	0.771949
C142	C	1.295350	-0.599191	0.707523
H143	H	1.428087	-0.682488	0.624864
H144	H	1.545592	-0.579620	0.736982
H145	H	1.504176	-0.489181	0.830391
H146	H	1.345252	-0.501609	0.811683
H147	H	1.227747	-0.604477	0.699565
H148	H	0.816415	-0.124522	0.485776
H149	H	0.405983	-0.188723	0.424501
C150	C	0.606215	-0.364622	0.256392
C151	C	0.599101	-0.455942	0.245586
C152	C	0.540032	-0.523412	0.181122
C153	C	0.488075	-0.499561	0.127464
C154	C	0.495188	-0.408236	0.138269
C155	C	0.554257	-0.340767	0.202733
H156	H	0.637564	-0.473602	0.285308
H157	H	0.534767	-0.591016	0.173124
H158	H	0.444348	-0.549506	0.079744
H159	H	0.456725	-0.390577	0.098547
H160	H	0.559522	-0.273162	0.210731
C161	C	0.487766	-0.338080	0.281780
C162	C	0.480660	-0.429397	0.270983
C163	C	0.421591	-0.496875	0.206523
C164	C	0.369628	-0.473037	0.152861
C165	C	0.376732	-0.381715	0.163656
C166	C	0.435801	-0.314237	0.228116
H167	H	0.519128	-0.447048	0.310709
H168	H	0.416333	-0.564477	0.198531
H169	H	0.325902	-0.522988	0.105143
H170	H	0.338265	-0.364065	0.123931
H171	H	0.441059	-0.246635	0.236108
H172	H	0.600850	0.033848	0.637140
C173	C	1.061361	-0.876831	0.407831
C174	C	1.085169	-0.928790	0.354161
C175	C	1.017660	-0.987890	0.289725
C176	C	0.926342	-0.995030	0.278960
C177	C	0.902529	-0.943069	0.332632
C178	C	0.970038	-0.883970	0.397068
H179	H	1.152772	-0.923506	0.362129
H180	H	1.035289	-1.026354	0.249994
H181	H	0.876368	-1.038779	0.231261
H182	H	0.834927	-0.948353	0.324664
H183	H	0.952410	-0.845505	0.436799
H184	H	0.951761	-0.489852	0.303304
C185	C	1.244012	-0.023565	0.865031
C186	C	1.313735	0.046099	0.851431
C187	C	1.383469	0.115791	0.909813
C188	C	1.383480	0.115817	0.981794
C189	C	1.313754	0.046150	0.995397
C190	C	1.244021	-0.023541	0.937015
H191	H	1.313729	0.046082	0.798144
H192	H	1.435084	0.167363	0.899743
H193	H	1.435101	0.167407	1.025011
H194	H	1.313760	0.046167	1.048684
H195	H	1.192405	-0.075113	0.947085
H196	H	1.150000	-0.019436	0.924325
H197	H	1.270072	-0.822683	0.607020
H198	H	0.444384	-0.240809	0.374701
C199	C	0.929347	-0.779786	0.281873
C200	C	0.953155	-0.831745	0.228202
C201	C	0.885646	-0.890845	0.163766
C202	C	0.794329	-0.897985	0.153001
C203	C	0.770516	-0.846024	0.206673
C204	C	0.838025	-0.786925	0.271109
H205	H	1.020758	-0.826461	0.236170
H206	H	0.903275	-0.929309	0.124035
H207	H	0.744354	-0.941734	0.105302
H208	H	0.702913	-0.851308	0.198706
H209	H	0.820396	-0.748460	0.310841
C210	C	1.244054	-0.023368	1.268703
C211	C	1.301522	-0.046014	1.319304
C212	C	1.371253	0.023689	1.377681
C213	C	1.383514	0.116038	1.385456
C214	C	1.326044	0.138688	1.334854
C215	C	1.256314	0.068985	1.276477
H216	H	1.292447	-0.114380	1.313550
H217	H	1.413796	0.006921	1.415140
H218	H	1.435133	0.167636	1.428670
H219	H	1.335119	0.207054	1.340608
H220	H	1.213770	0.085753	1.239018
H221	H	1.150011	-0.019384	1.043048
C222	C	1.065594	-0.315308	0.991279
C223	C	1.129028	-0.328231	1.044391
C224	C	1.105178	-0.411481	1.063052
C225	C	1.017894	-0.481808	1.028600
C226	C	0.954455	-0.468887	0.975485
C227	C	0.978304	-0.385637	0.956824
H228	H	1.193645	-0.276169	1.069897
H229	H	1.152141	-0.421045	1.102372
H230	H	1.000240	-0.543435	1.042414
H231	H	0.889837	-0.520950	0.949978
H232	H	0.931341	-0.376073	0.917504
H233	H	1.225887	-0.041720	0.731144
C234	C	0.977841	-0.289452	1.183217
C235	C	1.000438	-0.346951	1.222618
C236	C	0.930712	-0.416625	1.236213
C237	C	0.838388	-0.428799	1.210406
C238	C	0.815787	-0.371299	1.171002
C239	C	0.885513	-0.301625	1.157408
H240	H	1.068785	-0.337940	1.241724
H241	H	0.947443	-0.459190	1.265383
H242	H	0.786773	-0.480376	1.220470
H243	H	0.747440	-0.380309	1.151896
H244	H	0.868782	-0.259060	1.128238
C245	C	1.244039	-0.023433	1.131277
C246	C	1.256286	0.068921	1.157044
C247	C	1.326000	0.138593	1.143437
C248	C	1.383466	0.115912	1.104062
C249	C	1.371221	0.023554	1.078293
C250	C	1.301507	-0.046119	1.091900
H251	H	1.213745	0.085715	1.186194
H252	H	1.335064	0.206963	1.162513
H253	H	1.435072	0.167488	1.093990
H254	H	1.413762	0.006760	1.049143
H255	H	1.292443	-0.114489	1.072823
C256	C	1.065685	-0.315288	0.853983
C257	C	1.042005	-0.398407	0.872835
C258	C	1.018313	-0.481562	0.819704
C259	C	1.018301	-0.481598	0.747722
C260	C	1.041983	-0.398475	0.728866
C261	C	1.065675	-0.315320	0.781997
H262	H	1.042013	-0.398384	0.926124
H263	H	1.000782	-0.543095	0.833663
H264	H	1.000763	-0.543154	0.708391
H265	H	1.041975	-0.398499	0.675577
H266	H	1.083205	-0.253788	0.768038
H267	H	0.995946	-0.271406	1.060973
H268	H	0.995911	-0.271529	0.776021
H269	H	1.026712	-0.823118	0.374792
