data_functionalizedCrystal
_audit_creation_method	'MofGen! by Chris Wilmer'
_symmetry_space_group_name_H-M	'P1'
_symmetry_Int_Tables_number	1
_symmetry_cell_setting	triclinic
loop_
_symmetry_equiv_pos_as_xyz
  x,y,z
_cell_length_a	21.295419
_cell_length_b	25.639240
_cell_length_c	21.295411
_cell_angle_alpha	90.021594
_cell_angle_beta	89.975461
_cell_angle_gamma	89.942036
loop_
_atom_site_label
_atom_site_type_symbol
_atom_site_fract_x
_atom_site_fract_y
_atom_site_fract_z
Zn1	Zn	0.962300	0.208004	-0.355911
Zn2	Zn	1.295634	0.541337	-0.022578
Zn3	Zn	1.628967	0.874671	0.310755
Zn4	Zn	0.962179	0.295424	-0.250637
Zn5	Zn	1.295513	0.628757	0.082697
Zn6	Zn	1.628846	0.962091	0.416030
Zn7	Zn	0.857023	0.208027	-0.250656
Zn8	Zn	1.190357	0.541360	0.082677
Zn9	Zn	1.523690	0.874694	0.416010
Zn10	Zn	0.856970	0.295433	-0.355869
Zn11	Zn	1.190303	0.628766	-0.022535
Zn12	Zn	1.523636	0.962099	0.310798
O13	O	0.909618	0.251722	-0.303268
O14	O	1.242951	0.585055	0.030065
O15	O	1.576285	0.918389	0.363398
O16	O	1.050374	0.219587	-0.341956
O17	O	1.383707	0.552920	-0.008623
O18	O	1.717040	0.886254	0.324711
O19	O	0.948202	0.283836	-0.162550
O20	O	1.281535	0.617170	0.170783
O21	O	1.614869	0.950503	0.504117
O22	O	0.871062	0.134859	-0.264645
O23	O	1.204395	0.468192	0.068689
O24	O	1.537728	0.801525	0.402022
O25	O	1.050285	0.283814	-0.264611
O26	O	1.383618	0.617147	0.068722
O27	O	1.716951	0.950481	0.402055
O28	O	0.948408	0.134842	-0.341975
O29	O	1.281741	0.468175	-0.008642
O30	O	1.615075	0.801508	0.324692
O31	O	0.870945	0.219626	-0.162564
O32	O	1.204278	0.552960	0.170769
O33	O	1.537611	0.886293	0.504102
O34	O	0.768927	0.219635	-0.264603
O35	O	1.102260	0.552968	0.068730
O36	O	1.435594	0.886301	0.402063
O37	O	0.870970	0.283829	-0.443964
O38	O	1.204303	0.617163	-0.110630
O39	O	1.537637	0.950496	0.222703
O40	O	0.768887	0.283851	-0.341902
O41	O	1.102221	0.617185	-0.008569
O42	O	1.435554	0.950518	0.324764
O43	O	0.948356	0.219596	-0.443995
O44	O	1.281689	0.552929	-0.110662
O45	O	1.615023	0.886262	0.222672
O46	O	0.948150	0.368590	-0.264570
O47	O	1.281483	0.701924	0.068763
O48	O	1.614817	1.035257	0.402097
O49	O	0.870853	0.368597	-0.341883
O50	O	1.204186	0.701930	-0.008550
O51	O	1.537519	1.035263	0.324783
C52	C	0.746066	0.251747	-0.303251
C53	C	1.079400	0.585080	0.030083
C54	C	1.412733	0.918414	0.363416
C55	C	0.676098	0.251770	-0.303258
C56	C	1.009432	0.585104	0.030075
C57	C	1.342765	0.918437	0.363409
C58	C	0.643300	0.218382	-0.343594
C59	C	0.976634	0.551715	-0.010260
C60	C	1.309967	0.885049	0.323073
C61	C	0.577558	0.218368	-0.343596
C62	C	0.910891	0.551701	-0.010263
C63	C	1.244225	0.885035	0.323071
C64	C	0.544616	0.251752	-0.303269
C65	C	0.877949	0.585085	0.030064
C66	C	1.211283	0.918418	0.363397
C67	C	0.577422	0.285142	-0.262926
C68	C	0.910755	0.618476	0.070407
C69	C	1.244088	0.951809	0.403741
C70	C	0.643163	0.285152	-0.262920
C71	C	0.976496	0.618485	0.070413
C72	C	1.309830	0.951818	0.403746
N73	N	0.441328	0.297498	-0.298350
N74	N	0.774662	0.630831	0.034984
N75	N	1.107995	0.964164	0.368317
N76	N	0.378877	0.297487	-0.298359
N77	N	0.712210	0.630820	0.034974
N78	N	1.045544	0.964154	0.368308
C79	C	0.346541	0.251724	-0.303283
C80	C	0.679875	0.585058	0.030050
C81	C	1.013208	0.918391	0.363383
N82	N	0.379016	0.205972	-0.308211
N83	N	0.712350	0.539305	0.025123
N84	N	1.045683	0.872638	0.358456
N85	N	0.441473	0.205983	-0.308205
N86	N	0.774807	0.539316	0.025129
N87	N	1.108140	0.872649	0.358462
C88	C	0.473331	0.251745	-0.303271
C89	C	0.806664	0.585078	0.030062
C90	C	1.139997	0.918411	0.363396
C91	C	0.242458	0.218318	-0.343624
C92	C	0.575791	0.551651	-0.010290
C93	C	0.909124	0.884985	0.323043
C94	C	0.176714	0.218303	-0.343622
C95	C	0.510047	0.551636	-0.010289
C96	C	0.843381	0.884970	0.323045
C97	C	0.176579	0.285082	-0.262955
C98	C	0.509912	0.618415	0.070378
C99	C	0.843246	0.951749	0.403712
C100	C	0.242322	0.285092	-0.262954
C101	C	0.575655	0.618426	0.070380
C102	C	0.908988	0.951759	0.403713
C103	C	0.275257	0.251711	-0.303291
C104	C	0.608590	0.585044	0.030042
C105	C	0.941924	0.918378	0.363375
C106	C	0.909499	0.387564	-0.303234
C107	C	1.242833	0.720898	0.030100
C108	C	1.576166	1.054231	0.363433
C109	C	0.909506	0.445679	-0.303240
C110	C	1.242840	0.779012	0.030094
C111	C	1.576173	1.112345	0.363427
C112	C	0.949920	0.806026	-0.263056
C113	C	1.283253	1.139359	0.070278
C114	C	1.616586	1.472692	0.403611
C115	C	0.949939	0.860630	-0.263062
C116	C	1.283272	1.193963	0.070272
C117	C	1.616606	1.527297	0.403605
O118	O	0.984216	0.888853	-0.228876
O119	O	1.317549	1.222186	0.104457
O120	O	1.650883	1.555520	0.437790
N121	N	0.909669	0.887961	-0.303282
N122	N	1.243002	1.221294	0.030051
N123	N	1.576336	1.554628	0.363384
C124	C	0.869381	0.860685	-0.343504
C125	C	1.202715	1.194018	-0.010171
C126	C	1.536048	1.527351	0.323163
O127	O	0.835131	0.888946	-0.377716
O128	O	1.168464	1.222279	-0.044382
O129	O	1.501798	1.555613	0.288951
C130	C	0.869366	0.806081	-0.343501
C131	C	1.202699	1.139415	-0.010167
C132	C	1.536033	1.472748	0.323166
C133	C	0.909634	0.778753	-0.303273
C134	C	1.242967	1.112087	0.030060
C135	C	1.576301	1.445420	0.363394
C136	C	0.990185	0.778697	-0.222832
C137	C	1.323518	1.112031	0.110502
C138	C	1.656852	1.445364	0.443835
C139	C	0.990165	0.724097	-0.222825
C140	C	1.323498	1.057430	0.110508
C141	C	1.656831	1.390763	0.443842
C142	C	0.949879	0.696825	-0.263042
C143	C	1.283212	1.030158	0.070291
C144	C	1.616546	1.363491	0.403624
C145	C	0.909614	0.724153	-0.303266
C146	C	1.242947	1.057486	0.030067
C147	C	1.576280	1.390819	0.363400
C148	C	0.829082	0.778806	-0.383725
C149	C	1.162415	1.112140	-0.050392
C150	C	1.495749	1.445473	0.282942
C151	C	0.829070	0.724199	-0.383719
C152	C	1.162404	1.057533	-0.050385
C153	C	1.495737	1.390866	0.282948
C154	C	0.869338	0.696871	-0.343491
C155	C	1.202672	1.030204	-0.010157
C156	C	1.536005	1.363538	0.323176
C157	C	0.869308	0.642280	-0.343477
C158	C	1.202641	0.975613	-0.010143
C159	C	1.535975	1.308947	0.323190
N160	N	0.909578	0.614949	-0.303256
N161	N	1.242911	0.948282	0.030077
N162	N	1.576245	1.281616	0.363411
C163	C	0.949864	0.642221	-0.263039
C164	C	1.283197	0.975555	0.070294
C165	C	1.616530	1.308888	0.403628
C166	C	0.869418	0.975355	-0.343509
C167	C	1.202751	1.308689	-0.010175
C168	C	1.536085	1.642022	0.323158
C169	C	0.869430	1.029958	-0.343509
C170	C	1.202763	1.363291	-0.010176
C171	C	1.536097	1.696624	0.323157
C172	C	0.949989	1.029899	-0.263068
C173	C	1.283322	1.363232	0.070266
C174	C	1.616655	1.696566	0.403599
C175	C	0.949973	0.975296	-0.263064
C176	C	1.283306	1.308629	0.070269
C177	C	1.616640	1.641962	0.403602
C178	C	0.909688	0.948024	-0.303288
C179	C	1.243022	1.281358	0.030045
C180	C	1.576355	1.614691	0.363379
C181	C	0.949818	0.527556	-0.263028
C182	C	1.283151	0.860889	0.070306
C183	C	1.616484	1.194223	0.403639
C184	C	0.949792	0.472951	-0.263023
C185	C	1.283125	0.806284	0.070311
C186	C	1.616459	1.139617	0.403644
C187	C	0.869236	0.473014	-0.343466
C188	C	1.202569	0.806348	-0.010133
C189	C	1.535903	1.139681	0.323201
C190	C	0.869259	0.527615	-0.343469
C191	C	1.202593	0.860948	-0.010136
C192	C	1.535926	1.194282	0.323198
C193	C	0.909555	0.554884	-0.303248
C194	C	1.242888	0.888218	0.030086
C195	C	1.576222	1.221551	0.363419
O196	O	0.835050	0.614022	-0.377646
O197	O	1.168383	0.947355	-0.044313
O198	O	1.501717	1.280689	0.289020
O199	O	0.984114	0.613953	-0.228839
O200	O	1.317448	0.947287	0.104494
O201	O	1.650781	1.280620	0.437828
C202	C	1.073808	0.251697	-0.303286
C203	C	1.407142	0.585030	0.030047
C204	C	1.740475	0.918364	0.363380
C205	C	1.143777	0.251686	-0.303294
C206	C	1.477110	0.585020	0.030039
C207	C	1.810443	0.918353	0.363373
C208	C	0.909670	0.251711	-0.467459
C209	C	1.243004	0.585044	-0.134125
C210	C	1.576337	0.918377	0.199208
C211	C	0.909693	0.251706	-0.537427
C212	C	1.243026	0.585039	-0.204093
C213	C	1.576359	0.918373	0.129240
C214	C	0.909731	1.115349	-0.303306
C215	C	1.243064	1.448682	0.030027
C216	C	1.576397	1.782015	0.363361
C217	C	0.909718	1.057235	-0.303294
C218	C	1.243052	1.390568	0.030039
C219	C	1.576385	1.723901	0.363373
C220	C	0.949986	0.218258	-0.570311
C221	C	1.283319	0.551592	-0.236977
C222	C	1.616652	0.884925	0.096356
C223	C	0.949985	0.218236	-0.636053
C224	C	1.283318	0.551569	-0.302720
C225	C	1.616652	0.884902	0.030613
C226	C	0.909698	0.251670	-0.668909
C227	C	1.243031	0.585003	-0.335576
C228	C	1.576364	0.918337	-0.002243
C229	C	0.869397	0.285120	-0.636017
C230	C	1.202730	0.618454	-0.302684
C231	C	1.536063	0.951787	0.030649
C232	C	0.869394	0.285138	-0.570276
C233	C	1.202727	0.618472	-0.236943
C234	C	1.536061	0.951805	0.096391
N235	N	0.904829	0.297409	-0.772125
N236	N	1.238162	0.630743	-0.438791
N237	N	1.571495	0.964076	-0.105458
N238	N	0.904835	0.297391	-0.834576
N239	N	1.238168	0.630724	-0.501243
N240	N	1.571501	0.964057	-0.167910
C241	C	0.909702	0.251617	-0.866984
C242	C	1.243035	0.584950	-0.533651
C243	C	1.576368	0.918284	-0.200317
N244	N	0.914574	0.205862	-0.834581
N245	N	1.247908	0.539195	-0.501248
N246	N	1.581241	0.872528	-0.167915
N247	N	0.914572	0.205881	-0.772124
N248	N	1.247905	0.539214	-0.438791
N249	N	1.581238	0.872548	-0.105457
C250	C	0.909695	0.251654	-0.740195
C251	C	1.243029	0.584987	-0.406861
C252	C	1.576362	0.918321	-0.073528
C253	C	0.949996	0.218142	-0.971154
C254	C	1.283329	0.551475	-0.637820
C255	C	1.616663	0.884808	-0.304487
C256	C	0.949991	0.218118	-1.036898
C257	C	1.283324	0.551452	-0.703564
C258	C	1.616657	0.884785	-0.370231
C259	C	0.869406	0.285008	-1.036860
C260	C	1.202739	0.618341	-0.703527
C261	C	1.536072	0.951674	-0.370194
C262	C	0.869408	0.285027	-0.971118
C263	C	1.202741	0.618360	-0.637784
C264	C	1.536074	0.951693	-0.304451
C265	C	0.909706	0.251594	-0.938268
C266	C	1.243039	0.584928	-0.604935
C267	C	1.576373	0.918261	-0.271602
C268	C	0.909602	0.251695	-0.139717
C269	C	1.242936	0.585028	0.193617
C270	C	1.576269	0.918362	0.526950
C271	C	0.909702	0.251553	-0.069749
C272	C	1.243035	0.584886	0.263584
C273	C	1.576369	0.918219	0.596918
H274	H	0.269275	0.191134	-0.376465
H275	H	0.602608	0.524467	-0.043132
H276	H	0.935942	0.857800	0.290201
Br277	Br	0.532717	0.330445	-0.208192
Br278	Br	0.866050	0.663778	0.125142
Br279	Br	1.199383	0.997112	0.458475
Br280	Br	0.814721	0.330378	-1.081443
Br281	Br	1.148054	0.663711	-0.748110
Br282	Br	1.481387	0.997044	-0.414777
Br283	Br	0.132201	0.172982	-0.398364
Br284	Br	0.465534	0.506316	-0.065030
Br285	Br	0.798867	0.839649	0.268303
Br286	Br	0.687678	0.330465	-0.208171
Br287	Br	1.021011	0.663799	0.125162
Br288	Br	1.354345	0.997132	0.458495
H289	H	0.982583	0.450702	-0.230262
H290	H	1.315916	0.784035	0.103071
H291	H	1.649250	1.117368	0.436405
H292	H	0.550849	0.191176	-0.376441
H293	H	0.884182	0.524510	-0.043108
H294	H	1.217515	0.857843	0.290225
Br295	Br	0.131879	0.330384	-0.208218
Br296	Br	0.465213	0.663717	0.125115
Br297	Br	0.798546	0.997051	0.458449
H298	H	0.269026	0.312283	-0.230111
H299	H	0.602359	0.645616	0.103223
H300	H	0.935693	0.978950	0.436556
H301	H	1.022994	0.800897	-0.190082
H302	H	1.356327	1.134230	0.143251
H303	H	1.689661	1.467563	0.476585
Br304	Br	0.814737	0.938350	-0.398099
Br305	Br	1.148070	1.271683	-0.064766
Br306	Br	1.481403	1.605016	0.268567
H307	H	0.982793	1.052114	-0.230323
H308	H	1.316127	1.385447	0.103010
H309	H	1.649460	1.718781	0.436344
Br310	Br	0.814722	0.330424	-0.926486
Br311	Br	1.148055	0.663757	-0.593153
Br312	Br	1.481389	0.997090	-0.259819
H313	H	0.982763	0.953048	-0.230308
H314	H	1.316096	1.286382	0.103025
H315	H	1.649430	1.619715	0.436359
Br316	Br	1.004505	0.564556	-0.208441
Br317	Br	1.337839	0.897890	0.124892
Br318	Br	1.671172	1.231223	0.458226
H319	H	0.836434	0.450801	-0.376209
H320	H	1.169767	0.784134	-0.042875
H321	H	1.503101	1.117467	0.290458
H322	H	0.796266	0.701998	-0.416476
H323	H	1.129600	1.035331	-0.083142
H324	H	1.462933	1.368664	0.250191
Br325	Br	1.044827	0.687017	-0.168237
Br326	Br	1.378160	1.020350	0.165097
Br327	Br	1.711493	1.353684	0.498430
H328	H	0.836634	1.052204	-0.376261
H329	H	1.169967	1.385537	-0.042927
H330	H	1.503300	1.718870	0.290406
H331	H	0.796288	0.801048	-0.416480
H332	H	1.129622	1.134381	-0.083146
H333	H	1.462955	1.467714	0.250187
Br334	Br	0.814594	0.564704	-0.398049
Br335	Br	1.147927	0.898038	-0.064715
Br336	Br	1.481261	1.231371	0.268618
Br337	Br	1.004657	0.172826	-0.680692
Br338	Br	1.337990	0.506159	-0.347358
Br339	Br	1.671323	0.839492	-0.014025
Br340	Br	0.814716	0.330493	-0.680606
Br341	Br	1.148049	0.663826	-0.347272
Br342	Br	1.481383	0.997159	-0.013939
Br343	Br	1.004689	0.172728	-1.081528
Br344	Br	1.338022	0.506062	-0.748194
Br345	Br	1.671355	0.839395	-0.414861
Br346	Br	1.004674	0.172884	-0.525732
Br347	Br	1.338007	0.506217	-0.192399
Br348	Br	1.671340	0.839551	0.140934
Br349	Br	0.814705	0.330535	-0.525644
Br350	Br	1.148039	0.663868	-0.192311
Br351	Br	1.481372	0.997201	0.141022
H352	H	0.982806	0.190916	-0.944406
H353	H	1.316139	0.524250	-0.611073
H354	H	1.649473	0.857583	-0.277740
H355	H	0.670112	0.191200	-0.376439
H356	H	1.003446	0.524533	-0.043106
H357	H	1.336779	0.857866	0.290227
