data_functionalizedCrystal
_audit_creation_method	'MofGen! by Chris Wilmer'
_symmetry_space_group_name_H-M	'P1'
_symmetry_Int_Tables_number	1
_symmetry_cell_setting	triclinic
loop_
_symmetry_equiv_pos_as_xyz
  x,y,z
_cell_length_a	19.077068
_cell_length_b	11.169417
_cell_length_c	11.169409
_cell_angle_alpha	90.019824
_cell_angle_beta	92.259065
_cell_angle_gamma	87.672208
loop_
_atom_site_label
_atom_site_type_symbol
_atom_site_fract_x
_atom_site_fract_y
_atom_site_fract_z
Zn1	Zn	-0.280126	-1.815630	-0.697665
Zn2	Zn	0.053207	-1.482296	-0.364332
Zn3	Zn	0.386540	-1.148963	-0.030998
Zn4	Zn	-0.397846	-1.807395	-0.505018
Zn5	Zn	-0.064513	-1.474061	-0.171685
Zn6	Zn	0.268820	-1.140728	0.161649
Zn7	Zn	-0.280169	-1.614913	-0.497002
Zn8	Zn	0.053164	-1.281579	-0.163669
Zn9	Zn	0.386497	-0.948246	0.169664
Zn10	Zn	-0.397789	-1.606803	-0.705659
Zn11	Zn	-0.064456	-1.273469	-0.372326
Zn12	Zn	0.268878	-0.940136	-0.038992
O13	O	-0.338983	-1.711185	-0.601336
O14	O	-0.005649	-1.377851	-0.268003
O15	O	0.327684	-1.044518	0.065331
O16	O	-0.295748	-1.982486	-0.672119
O17	O	0.037585	-1.649153	-0.338786
O18	O	0.370918	-1.315820	-0.005452
O19	O	-0.382278	-1.781809	-0.336008
O20	O	-0.048945	-1.448476	-0.002674
O21	O	0.284388	-1.115142	0.330659
O22	O	-0.181673	-1.648378	-0.516921
O23	O	0.151660	-1.315045	-0.183587
O24	O	0.484994	-0.981712	0.149746
O25	O	-0.382237	-1.976436	-0.530582
O26	O	-0.048903	-1.643103	-0.197249
O27	O	0.284430	-1.309770	0.136085
O28	O	-0.181642	-1.795844	-0.664347
O29	O	0.151692	-1.462511	-0.331013
O30	O	0.485025	-1.129178	0.002320
O31	O	-0.295821	-1.640393	-0.330119
O32	O	0.037512	-1.307060	0.003215
O33	O	0.370845	-0.973727	0.336548
O34	O	-0.295766	-1.445887	-0.524672
O35	O	0.037568	-1.112554	-0.191339
O36	O	0.370901	-0.779221	0.141995
O37	O	-0.382139	-1.634556	-0.872546
O38	O	-0.048806	-1.301223	-0.539212
O39	O	0.284528	-0.967890	-0.205879
O40	O	-0.382181	-1.439929	-0.677971
O41	O	-0.048847	-1.106596	-0.344638
O42	O	0.284486	-0.773262	-0.011304
O43	O	-0.295693	-1.787981	-0.866672
O44	O	0.037641	-1.454647	-0.533339
O45	O	0.370974	-1.121314	-0.200006
O46	O	-0.496329	-1.773945	-0.538333
O47	O	-0.162996	-1.440612	-0.205000
O48	O	0.170337	-1.107279	0.128333
O49	O	-0.496287	-1.626571	-0.685743
O50	O	-0.162954	-1.293238	-0.352410
O51	O	0.170379	-0.959904	-0.019077
C52	C	-0.338972	-1.399361	-0.601320
C53	C	-0.005639	-1.066028	-0.267987
C54	C	0.327695	-0.732694	0.065347
C55	C	-0.338984	-1.265960	-0.601343
C56	C	-0.005651	-0.932627	-0.268009
C57	C	0.327682	-0.599293	0.065324
C58	C	-0.521846	-1.698517	-0.613802
C59	C	-0.188512	-1.365184	-0.280469
C60	C	0.144821	-1.031850	0.052865
C61	C	-0.600075	-1.693208	-0.619175
C62	C	-0.266742	-1.359874	-0.285842
C63	C	0.066591	-1.026541	0.047492
C64	C	-0.338905	-1.711282	-0.914373
C65	C	-0.005571	-1.377949	-0.581040
C66	C	0.327762	-1.044616	-0.247707
C67	C	-0.338871	-1.711324	-1.047771
C68	C	-0.005538	-1.377991	-0.714438
C69	C	0.327795	-1.044657	-0.381105
C70	C	-0.636826	-1.767503	-0.545014
C71	C	-0.303493	-1.434169	-0.211681
C72	C	0.029840	-1.100836	0.121652
C73	C	-0.710331	-1.762516	-0.550075
C74	C	-0.376998	-1.429182	-0.216742
C75	C	-0.043665	-1.095849	0.116592
C76	C	-0.747084	-1.683227	-0.629291
C77	C	-0.413751	-1.349894	-0.295958
C78	C	-0.080417	-1.016561	0.037376
C79	C	-0.710328	-1.608929	-0.703460
C80	C	-0.376994	-1.275596	-0.370126
C81	C	-0.043661	-0.942263	-0.036793
C82	C	-0.636824	-1.613923	-0.698404
C83	C	-0.303491	-1.280589	-0.365071
C84	C	0.029843	-0.947256	-0.031738
C85	C	-0.966916	-1.660064	-0.652640
C86	C	-0.633583	-1.326730	-0.319306
C87	C	-0.300250	-0.993397	0.014027
C88	C	-1.040425	-1.655073	-0.657687
C89	C	-0.707092	-1.321740	-0.324353
C90	C	-0.373758	-0.988406	0.008980
C91	C	-1.040424	-1.808662	-0.504303
C92	C	-0.707090	-1.475329	-0.170970
C93	C	-0.373757	-1.141995	0.162364
C94	C	-0.966918	-1.813643	-0.499250
C95	C	-0.633585	-1.480310	-0.165916
C96	C	-0.300252	-1.146977	0.167417
C97	C	-0.930169	-1.739350	-0.573423
C98	C	-0.596835	-1.406017	-0.240089
C99	C	-0.263502	-1.072683	0.093244
N100	N	-0.822218	-1.678125	-0.634463
N101	N	-0.488884	-1.344792	-0.301130
N102	N	-0.155551	-1.011459	0.032204
N103	N	-0.855036	-1.744459	-0.568256
N104	N	-0.521703	-1.411125	-0.234922
N105	N	-0.188370	-1.077792	0.098411
C106	C	-0.155406	-1.723935	-0.588848
C107	C	0.177928	-1.390601	-0.255515
C108	C	0.511261	-1.057268	0.077819
C109	C	-0.077176	-1.729368	-0.583526
C110	C	0.256157	-1.396035	-0.250193
C111	C	0.589491	-1.062701	0.083140
C112	C	-0.338994	-2.024226	-0.601353
C113	C	-0.005661	-1.690893	-0.268020
C114	C	0.327673	-1.357560	0.065314
C115	C	-0.338999	-2.157626	-0.601360
C116	C	-0.005665	-1.824293	-0.268027
C117	C	0.327668	-1.490959	0.065306
C118	C	-0.339010	-1.711160	-0.289513
C119	C	-0.005676	-1.377827	0.043820
C120	C	0.327657	-1.044494	0.377153
C121	C	-0.338845	-1.711365	-0.156103
C122	C	-0.005512	-1.378031	0.177231
C123	C	0.327822	-1.044698	0.510564
H124	H	-0.740251	-1.823014	-0.489685
H125	H	-0.406917	-1.489680	-0.156351
H126	H	-0.073584	-1.156347	0.176982
C127	C	-0.926501	-1.578323	-0.734206
C128	C	-0.593167	-1.244990	-0.400872
C129	C	-0.259834	-0.911656	-0.067539
H130	H	-0.958919	-1.530376	-0.782092
H131	H	-0.625585	-1.197042	-0.448758
H132	H	-0.292252	-0.863709	-0.115425
H133	H	-0.897775	-1.626142	-0.784571
H134	H	-0.564442	-1.292808	-0.451238
H135	H	-0.231108	-0.959475	-0.117905
H136	H	-0.897880	-1.527996	-0.686264
H137	H	-0.564547	-1.194663	-0.352931
H138	H	-0.231213	-0.861330	-0.019597
H139	H	-0.606907	-1.832062	-0.480503
H140	H	-0.273574	-1.498729	-0.147170
H141	H	0.059760	-1.165396	0.186164
H142	H	-0.936996	-1.878206	-0.434746
H143	H	-0.603663	-1.544873	-0.101412
H144	H	-0.270329	-1.211540	0.231921
C145	C	-1.080849	-1.890386	-0.422730
C146	C	-0.747516	-1.557052	-0.089396
C147	C	-0.414183	-1.223719	0.243937
H148	H	-1.129889	-1.876066	-0.437089
H149	H	-0.796556	-1.542733	-0.103756
H150	H	-0.463223	-1.209400	0.229577
H151	H	-1.068852	-1.873683	-0.341250
H152	H	-0.735519	-1.540349	-0.007916
H153	H	-0.402186	-1.207016	0.325417
H154	H	-1.068754	-1.971841	-0.439544
H155	H	-0.735420	-1.638507	-0.106211
H156	H	-0.402087	-1.305174	0.227122
H157	H	-1.070347	-1.590521	-0.722215
H158	H	-0.737014	-1.257188	-0.388882
H159	H	-0.403680	-0.923854	-0.055548
C160	C	-0.750754	-1.521711	-0.790593
C161	C	-0.417420	-1.188377	-0.457259
C162	C	-0.084087	-0.855044	-0.123926
H163	H	-0.799794	-1.529366	-0.782974
H164	H	-0.466460	-1.196033	-0.449641
H165	H	-0.133127	-0.862700	-0.116307
H166	H	-0.738660	-1.540051	-0.870417
H167	H	-0.405327	-1.206717	-0.537083
H168	H	-0.071994	-0.873384	-0.203750
H169	H	-0.738753	-1.441893	-0.772122
H170	H	-0.405420	-1.108560	-0.438789
H171	H	-0.072087	-0.775226	-0.105455
H172	H	-0.606902	-1.553426	-0.758795
H173	H	-0.273569	-1.220092	-0.425462
H174	H	0.059764	-0.886759	-0.092128
