data_functionalizedCrystal
_audit_creation_method	'MofGen! by Chris Wilmer'
_symmetry_space_group_name_H-M	'P1'
_symmetry_Int_Tables_number	1
_symmetry_cell_setting	triclinic
loop_
_symmetry_equiv_pos_as_xyz
  x,y,z
_cell_length_a	16.974829
_cell_length_b	16.992695
_cell_length_c	16.053802
_cell_angle_alpha	92.747646
_cell_angle_beta	96.228883
_cell_angle_gamma	92.973864
loop_
_atom_site_label
_atom_site_type_symbol
_atom_site_fract_x
_atom_site_fract_y
_atom_site_fract_z
O1	O	-1.061819	0.093240	-0.141161
O2	O	-0.831717	0.106702	-0.125614
O3	O	-0.945846	-0.014168	-0.133332
O4	O	-0.947690	0.214110	-0.133442
O5	O	-0.939562	-0.007542	0.005951
O6	O	-0.825433	0.113328	0.013670
O7	O	-1.055536	0.099866	-0.001877
Zn8	Zn	-0.939487	0.107649	0.028011
Zn9	Zn	-0.947766	0.098919	-0.155502
O10	O	-0.941407	0.220736	0.005841
C11	C	-0.798996	0.109625	-0.053974
C12	C	-0.710859	0.108454	-0.048020
C13	C	-0.940331	-0.040058	-0.063534
C14	C	-0.933250	-0.127072	-0.063066
C15	C	-1.088257	0.096943	-0.073519
C16	C	-1.176394	0.098114	-0.079479
C17	C	-0.214374	0.102276	-0.006353
C18	C	-0.297187	0.103376	-0.011949
C19	C	-0.342020	0.100308	-0.090672
C20	C	-0.304034	0.096148	-0.163804
C21	C	-0.221222	0.095054	-0.158207
C22	C	-0.590061	0.103199	-0.115554
C23	C	-0.672879	0.104292	-0.121146
C24	C	-0.666027	0.111521	0.030710
C25	C	-0.583213	0.110421	0.036300
C26	C	-0.545234	0.106266	-0.036831
N27	N	-0.426669	0.101430	-0.096395
N28	N	-0.460586	0.105149	-0.031108
N29	N	-0.933842	0.113606	0.153253
C30	C	-0.946922	0.246626	-0.063959
C31	C	-0.954003	0.333640	-0.064432
C32	C	-0.885679	0.384172	-0.059816
C33	C	-0.892338	0.465929	-0.060277
C34	C	-0.967320	0.497154	-0.065347
C35	C	-1.035649	0.446616	-0.069966
C36	C	-1.028990	0.364859	-0.069511
C37	C	-0.994920	0.740633	-0.067231
C38	C	-1.001574	0.822396	-0.067682
C39	C	-0.858262	0.841704	-0.057995
C40	C	-0.851609	0.759946	-0.057536
C41	C	-0.919938	0.709414	-0.062159
N42	N	-0.974128	0.580723	-0.065815
N43	N	-0.913130	0.625846	-0.061697
N44	N	-0.953416	0.092956	-0.280744
C45	C	-0.982425	0.062194	0.193661
C46	C	-0.978484	0.066369	0.281334
C47	C	-0.925965	0.121960	0.328597
C48	C	-0.877377	0.173374	0.288183
C49	C	-0.881314	0.169195	0.200512
C50	C	-0.908766	0.140191	0.591170
C51	C	-0.904834	0.144368	0.678847
C52	C	-1.005940	0.037361	0.671993
C53	C	-1.009876	0.033190	0.584320
C54	C	-0.961286	0.084602	0.543913
N55	N	-0.921937	0.126230	0.418214
N56	N	-0.965309	0.080327	0.454299
H57	H	-0.328107	0.106763	0.047598
H58	H	-0.836701	0.507070	-0.056520
N59	N	-0.804800	0.350505	-0.054348
H60	H	-0.801171	0.314553	-0.105575
H61	H	-0.796559	0.319519	-0.002279
N62	N	-0.549108	0.098705	-0.194430
H63	H	-0.518247	0.049501	-0.195715
H64	H	-0.511598	0.146715	-0.195225
H65	H	-1.045499	-0.004497	0.704900
N66	N	-0.848182	0.204321	0.729835
H67	H	-0.879056	0.240651	0.764001
H68	H	-0.818005	0.236203	0.690888
H69	H	-0.802633	0.882855	-0.054232
H70	H	-0.696958	0.114906	0.090249
N71	N	-1.116524	0.480290	-0.075425
H72	H	-1.124815	0.511325	-0.127457
H73	H	-1.120091	0.516200	-0.024153
H74	H	-1.084627	0.323716	-0.073273
H75	H	-1.062637	0.847815	-0.071811
H76	H	-0.546716	0.112902	0.100405
H77	H	-0.340544	0.093656	-0.227902
N78	N	-1.039076	0.002239	0.142687
H79	H	-1.069253	-0.029697	0.181593
H80	H	-1.008154	-0.034038	0.108520
H81	H	-1.018043	0.024504	0.314234
H82	H	-0.709380	0.101800	-0.185255
N83	N	-0.166023	0.105577	0.078558
H84	H	-0.202690	0.107836	0.124027
H85	H	-0.128550	0.154161	0.084642
N86	N	-0.180253	0.090568	-0.237077
H87	H	-0.221219	0.088790	-0.287798
H88	H	-0.149387	0.041366	-0.238290
N89	N	-0.770740	0.726258	-0.052075
H90	H	-0.762461	0.695230	-0.000038
H91	H	-0.728510	0.770712	-0.049257
H92	H	-1.050558	0.699500	-0.070990
N93	N	-0.856356	0.195636	0.547595
H94	H	-0.822490	0.231486	0.590842
H95	H	-0.890537	0.228448	0.509006
H96	H	-0.841752	0.211060	0.167613
H97	H	-1.052641	-0.012077	0.545839
H98	H	-0.834611	0.218635	0.326670
