data_functionalizedCrystal
_audit_creation_method	'MofGen! by Chris Wilmer'
_symmetry_space_group_name_H-M	'P1'
_symmetry_Int_Tables_number	1
_symmetry_cell_setting	triclinic
loop_
_symmetry_equiv_pos_as_xyz
  x,y,z
_cell_length_a	19.288867
_cell_length_b	13.339070
_cell_length_c	18.366186
_cell_angle_alpha	89.998593
_cell_angle_beta	89.995964
_cell_angle_gamma	99.383182
loop_
_atom_site_label
_atom_site_type_symbol
_atom_site_fract_x
_atom_site_fract_y
_atom_site_fract_z
O1	O	0.945920	0.126094	-0.060521
O2	O	1.445920	0.626094	0.439479
O3	O	0.746974	0.143101	-0.060528
O4	O	1.246974	0.643101	0.439472
O5	O	0.823615	-0.012562	-0.060523
O6	O	1.323615	0.487438	0.439477
O7	O	0.869280	0.281758	-0.060526
O8	O	1.369280	0.781758	0.439474
O9	O	0.823603	-0.012566	0.060576
O10	O	1.323603	0.487434	0.560576
O11	O	0.746962	0.143098	0.060572
O12	O	1.246962	0.643098	0.560572
O13	O	0.945908	0.126091	0.060578
O14	O	1.445908	0.626091	0.560578
Zn15	Zn	0.846433	0.134594	0.079802
Zn16	Zn	1.346433	0.634594	0.579802
Zn17	Zn	0.846449	0.134598	-0.079752
Zn18	Zn	1.346449	0.634598	0.420248
O19	O	0.869268	0.281754	0.060574
O20	O	1.369268	0.781754	0.560574
C21	C	0.720985	0.142552	0.000021
C22	C	1.220985	0.642552	0.500021
C23	C	0.643561	0.140908	0.000018
C24	C	1.143561	0.640908	0.500018
C25	C	0.815895	-0.050218	0.000025
C26	C	1.315895	0.449782	0.500025
C27	C	0.792902	-0.162415	0.000022
C28	C	1.292902	0.337585	0.500022
C29	C	0.085695	0.129071	-0.065984
C30	C	0.585695	0.629071	0.434016
C31	C	0.158442	0.130609	-0.065987
C32	C	0.658442	0.630609	0.434013
C33	C	0.194815	0.131381	0.000024
C34	C	0.694815	0.631381	0.500024
C35	C	0.158432	0.130588	0.066043
C36	C	0.658432	0.630588	0.566043
C37	C	0.085685	0.129040	0.066044
C38	C	0.585685	0.629040	0.566044
C39	C	0.316152	0.193031	0.050597
C40	C	0.816152	0.693031	0.550597
C41	C	0.388898	0.194585	0.050593
C42	C	0.888898	0.694585	0.550593
C43	C	0.419191	0.136153	0.000024
C44	C	0.919191	0.636153	0.500024
C45	C	0.376730	0.076178	-0.050553
C46	C	0.876730	0.576178	0.449447
C47	C	0.303983	0.074629	-0.050552
C48	C	0.803983	0.574629	0.449448
C49	C	0.273697	0.133059	0.000031
C50	C	0.773697	0.633059	0.500031
C51	C	0.534445	0.138606	-0.065993
C52	C	1.034445	0.638606	0.434007
C53	C	0.607193	0.140138	-0.065993
C54	C	1.107193	0.640138	0.434007
C55	C	0.607183	0.140128	0.066038
C56	C	1.107183	0.640128	0.566038
C57	C	0.534435	0.138585	0.066036
C58	C	1.034435	0.638585	0.566036
C59	C	0.498071	0.137829	0.000019
C60	C	0.998071	0.637829	0.500019
C61	C	0.971682	-0.528021	0.000028
C62	C	1.471682	-0.028021	0.500028
C63	C	0.993287	-0.422606	0.000036
C64	C	1.493287	0.077394	0.500036
C65	C	0.943193	-0.357553	0.000032
C66	C	1.443193	0.142447	0.500032
C67	C	0.871490	-0.397925	0.000021
C68	C	1.371490	0.102075	0.500021
C69	C	0.849882	-0.503350	0.000019
C70	C	1.349882	-0.003350	0.500019
C71	C	0.821393	-0.332883	0.000023
C72	C	1.321393	0.167117	0.500023
C73	C	0.749690	-0.373254	0.000012
C74	C	1.249690	0.126746	0.500012
C75	C	0.728086	-0.478669	0.000010
C76	C	1.228086	0.021331	0.500010
C77	C	0.778180	-0.543722	0.000014
C78	C	1.278180	-0.043722	0.500014
C79	C	0.843000	-0.227458	0.000025
C80	C	1.343000	0.272542	0.500025
C81	C	0.721200	-0.202787	0.000016
C82	C	1.221200	0.297213	0.500016
C83	C	0.699595	-0.308202	0.000008
C84	C	1.199595	0.191798	0.500008
C85	C	0.971898	0.126640	0.000028
C86	C	1.471898	0.626640	0.500028
C87	C	1.049321	0.128284	0.000026
C88	C	1.549321	0.628284	0.500026
C89	C	0.876988	0.319410	0.000024
C90	C	1.376988	0.819410	0.500024
C91	C	0.899980	0.431607	0.000022
C92	C	1.399980	0.931607	0.500022
N93	N	0.846427	0.134590	0.188693
N94	N	1.346427	0.634590	0.688693
N95	N	0.846459	0.134594	-0.188643
N96	N	1.346459	0.634594	0.311357
C97	C	0.880400	0.065685	0.773246
C98	C	1.380400	0.565685	1.273246
C99	C	0.880401	0.065688	0.697018
C100	C	1.380401	0.565688	1.197018
C101	C	0.846448	0.134589	0.658905
C102	C	1.346448	0.634589	1.158905
C103	C	0.812505	0.203511	0.697025
C104	C	1.312505	0.703511	1.197025
C105	C	0.812511	0.203513	0.773252
C106	C	1.312511	0.703513	1.273252
C107	C	0.785784	0.148078	0.538148
C108	C	1.285784	0.648078	1.038148
C109	C	0.785776	0.148068	0.461923
C110	C	1.285776	0.648068	0.961923
C111	C	0.846431	0.134587	0.423797
C112	C	1.346431	0.634587	0.923797
C113	C	0.907094	0.121095	0.461905
C114	C	1.407094	0.621095	0.961905
C115	C	0.907099	0.121097	0.538132
C116	C	1.407099	0.621097	1.038132
C117	C	0.846438	0.134595	0.576250
C118	C	1.346438	0.634595	1.076250
C119	C	0.880377	0.065677	0.303031
C120	C	1.380377	0.565677	0.803031
C121	C	0.880380	0.065686	0.226801
C122	C	1.380380	0.565686	0.726801
C123	C	0.812478	0.203505	0.226810
C124	C	1.312478	0.703505	0.726810
C125	C	0.812481	0.203500	0.303038
C126	C	1.312481	0.703500	0.803038
C127	C	0.846429	0.134581	0.341144
C128	C	1.346429	0.634581	0.841144
H129	H	0.056092	0.128451	-0.119741
H130	H	0.556092	0.628451	0.380259
H131	H	0.188064	0.131255	-0.119742
H132	H	0.688064	0.631255	0.380258
C133	C	0.754416	-0.659679	0.000010
C134	C	1.254416	-0.159679	0.500010
H135	H	0.794522	-0.692635	0.000015
H136	H	1.294522	-0.192635	0.500015
H137	H	0.727041	-0.678969	-0.042221
H138	H	1.227041	-0.178969	0.457779
H139	H	0.727035	-0.678974	0.042245
H140	H	1.227035	-0.178974	0.542245
C141	C	0.649215	-0.523076	0.000004
C142	C	1.149215	-0.023076	0.500004
H143	H	0.622474	-0.469239	-0.000004
H144	H	1.122474	0.030761	0.499996
H145	H	0.638249	-0.563692	0.042232
H146	H	1.138249	-0.063692	0.542232
H147	H	0.638263	-0.563683	-0.042233
H148	H	1.138263	-0.063683	0.457767
C149	C	0.917732	-0.010121	0.655086
C150	C	1.417732	0.489879	1.155086
H151	H	0.937947	-0.051170	0.688698
H152	H	1.437947	0.448830	1.188698
H153	H	0.953628	0.026121	0.625340
H154	H	1.453628	0.526121	1.125340
H155	H	0.884643	-0.052100	0.625360
H156	H	1.384643	0.447900	1.125360
H157	H	0.641213	-0.341087	0.000000
H158	H	1.141213	0.158913	0.500000
H159	H	0.908045	0.009570	0.804269
H160	H	1.408045	0.509570	1.304269
C161	C	0.410042	0.011899	-0.106182
C162	C	0.910042	0.511899	0.393818
H163	H	0.459447	0.021399	-0.098936
H164	H	0.959447	0.521399	0.401064
H165	H	0.400264	0.032465	-0.154104
H166	H	0.900264	0.532465	0.345896
H167	H	0.390973	-0.057830	-0.099815
H168	H	0.890973	0.442170	0.400185
C169	C	0.198434	0.131421	0.138655
C170	C	0.698434	0.631421	0.638655
H171	H	0.166348	0.130717	0.177970
H172	H	0.666348	0.630717	0.677970
H173	H	0.232875	0.190947	0.141410
H174	H	0.732875	0.690947	0.641410
H175	H	0.220748	0.073084	0.141387
H176	H	0.720748	0.573084	0.641387
C177	C	0.966957	-0.241600	0.000031
C178	C	1.466957	0.258400	0.500031
H179	H	1.016835	-0.226873	0.000030
H180	H	1.516835	0.273127	0.500030
H181	H	0.949347	-0.213190	0.042256
H182	H	1.449347	0.286810	0.542256
H183	H	0.949362	-0.213201	-0.042210
H184	H	1.449362	0.286799	0.457790
H185	H	0.784835	0.259610	0.195779
H186	H	1.284835	0.759610	0.695779
C187	C	0.045693	0.128403	0.138656
C188	C	0.545693	0.628403	0.638656
H189	H	-0.002835	0.127435	0.129201
H190	H	0.497165	0.627435	0.629201
H191	H	0.063736	0.187648	0.165680
H192	H	0.563736	0.687648	0.665680
H193	H	0.051501	0.069783	0.165879
H194	H	0.551501	0.569783	0.665879
H195	H	0.908024	0.009576	0.195770
H196	H	1.408024	0.509576	0.695770
H197	H	0.680409	-0.149821	0.000017
H198	H	1.180409	0.350179	0.500017
H199	H	0.784839	0.259608	0.334071
H200	H	1.284839	0.759608	0.834071
H201	H	0.504836	0.137987	-0.119749
H202	H	1.004836	0.637987	0.380251
H203	H	0.736378	0.159043	0.430901
H204	H	1.236378	0.659043	0.930901
C205	C	0.647205	0.141004	-0.138608
C206	C	1.147205	0.641004	0.361392
H207	H	0.615127	0.140342	-0.177923
H208	H	1.115127	0.640342	0.322077
H209	H	0.669524	0.082680	-0.141360
H210	H	1.169524	0.582680	0.358640
H211	H	0.681644	0.200543	-0.141346
H212	H	1.181644	0.700543	0.358654
H213	H	0.901381	-0.194598	0.000034
H214	H	1.401381	0.305402	0.500034
C215	C	1.072153	-0.378204	0.000039
C216	C	1.572153	0.121796	0.500039
H217	H	1.098894	-0.432042	0.000033
H218	H	1.598894	0.067958	0.500033
H219	H	1.083111	-0.337594	0.042269
H220	H	1.583111	0.162406	0.542269
H221	H	1.083116	-0.337592	-0.042196
H222	H	1.583116	0.162408	0.457804
H223	H	0.504820	0.137948	0.119789
H224	H	1.004820	0.637948	0.619789
H225	H	1.012461	-0.580995	0.000037
H226	H	1.512461	-0.080995	0.500037
C227	C	0.647184	0.140976	0.138650
C228	C	1.147184	0.640976	0.638650
H229	H	0.695720	0.142016	0.129196
H230	H	1.195720	0.642016	0.629196
H231	H	0.629200	0.081794	0.165774
H232	H	1.129200	0.581794	0.665774
H233	H	0.641320	0.199656	0.165772
H234	H	1.141320	0.699656	0.665772
H235	H	0.956493	0.110114	0.569156
H236	H	1.456493	0.610114	1.069156
H237	H	0.269414	0.025794	-0.091733
H238	H	0.769414	0.525794	0.408267
C239	C	0.719093	0.163070	0.580080
C240	C	1.219093	0.663070	1.080080
H241	H	0.682973	0.171139	0.546468
H242	H	1.182973	0.671139	1.046468
H243	H	0.729110	0.221964	0.609769
H244	H	1.229110	0.721964	1.109769
H245	H	0.704056	0.105389	0.609862
H246	H	1.204056	0.605389	1.109862
C247	C	0.973823	0.106284	0.419977
C248	C	1.473823	0.606284	0.919977
H249	H	0.965137	0.108231	0.369122
H250	H	1.465137	0.608231	0.869122
H251	H	0.986297	0.042447	0.432463
H252	H	1.486297	0.542447	0.932463
H253	H	1.011199	0.159057	0.432471
H254	H	1.511199	0.659057	0.932471
C255	C	0.435595	0.260529	0.106239
C256	C	0.935595	0.760529	0.606239
H257	H	0.407134	0.295086	0.136369
H258	H	0.907134	0.795086	0.636369
H259	H	0.468879	0.308750	0.081218
H260	H	0.968879	0.808750	0.581218
H261	H	0.459572	0.218419	0.135477
H262	H	0.959572	0.718419	0.635477
C263	C	0.917722	-0.010123	0.344950
C264	C	1.417722	0.489877	0.844950
H265	H	0.937945	-0.051155	0.311331
H266	H	1.437945	0.448845	0.811331
H267	H	0.884648	-0.052105	0.374689
H268	H	1.384648	0.447895	0.874689
H269	H	0.953625	0.026132	0.374681
H270	H	1.453625	0.526132	0.874681
H271	H	0.784861	0.259613	0.665990
H272	H	1.284861	0.759613	1.165990
H273	H	0.784872	0.259629	0.804283
H274	H	1.284872	0.759629	1.304283
H275	H	0.291493	0.240609	0.091784
H276	H	0.791493	0.740609	0.591784
