data_functionalizedCrystal
_audit_creation_method	'MofGen! by Chris Wilmer'
_symmetry_space_group_name_H-M	'P1'
_symmetry_Int_Tables_number	1
_symmetry_cell_setting	triclinic
loop_
_symmetry_equiv_pos_as_xyz
  x,y,z
_cell_length_a	6.817900
_cell_length_b	19.551823
_cell_length_c	16.305550
_cell_angle_alpha	95.888693
_cell_angle_beta	103.455250
_cell_angle_gamma	101.663376
loop_
_atom_site_label
_atom_site_type_symbol
_atom_site_fract_x
_atom_site_fract_y
_atom_site_fract_z
V1	V	-4.017281	-0.097265	-0.263428
O2	O	-4.014216	0.004067	-0.258008
O3	O	-3.959975	-0.192277	-0.262017
O4	O	-3.968800	-0.096036	-0.378140
O5	O	-4.005329	-0.092841	-0.141081
V6	V	-4.502073	-0.085113	-0.248747
O7	O	-4.275755	-0.123922	-0.295633
O8	O	-4.693797	-0.058457	-0.216543
O9	O	-4.336173	0.009899	-0.250158
O10	O	-4.622535	-0.186446	-0.254168
O11	O	-4.631422	-0.089538	-0.371095
O12	O	-4.327347	-0.086343	-0.134035
C13	C	-3.802811	-0.215431	-0.257962
C14	C	-3.837243	-0.293106	-0.257573
C15	C	-4.035182	-0.333161	-0.261608
C16	C	-4.067539	-0.406146	-0.261251
C17	C	-3.901937	-0.439072	-0.256841
C18	C	-3.703973	-0.399008	-0.252810
C19	C	-3.671626	-0.326026	-0.253175
C20	C	-3.788746	-0.545440	-0.203346
C21	C	-3.821097	-0.618420	-0.202975
C22	C	-4.001700	-0.664175	-0.255717
C23	C	-4.149976	-0.636939	-0.308819
C24	C	-4.117629	-0.563956	-0.309185
C25	C	-3.936992	-0.518209	-0.256445
C26	C	-4.234737	-0.783369	-0.259367
C27	C	-4.267089	-0.856357	-0.259015
C28	C	-3.903513	-0.849216	-0.250564
C29	C	-3.871171	-0.776231	-0.250925
C30	C	-4.036788	-0.743312	-0.255322
C31	C	-3.814068	-0.092664	-0.406088
C32	C	-3.855655	-0.092287	-0.499868
C33	C	-4.006876	-0.090827	-0.840607
C34	C	-3.771228	-0.086491	-0.799661
C35	C	-3.727972	-0.087172	-0.702169
C36	C	-3.931852	-0.091551	-0.671563
C37	C	-4.092525	-0.160559	-0.722471
C38	C	-4.134424	-0.160169	-0.820019
C39	C	-4.067542	-0.026706	-0.794503
C40	C	-4.019662	-0.026160	-0.696658
C41	C	-3.889464	-0.091963	-0.576026
C42	C	-4.049273	-0.090420	-0.936145
C43	C	-4.156678	0.033048	-0.254211
C44	C	-4.101484	0.110723	-0.254606
C45	C	-4.145421	-0.089717	-0.106083
C46	C	-4.083073	-0.090090	-0.012302
H47	H	-3.700368	-0.640589	-0.159730
H48	H	-4.307703	-0.166221	-0.848035
Br49	Br	-3.402974	-0.271662	-0.247699
Br50	Br	-3.602521	-0.721867	-0.245442
H51	H	-4.228729	-0.438765	-0.264538
H52	H	-4.238360	-0.541784	-0.352424
H53	H	-4.239370	-0.029268	-0.821329
Br54	Br	-4.265276	-0.024720	-0.661063
Br55	Br	-4.459503	-0.738691	-0.265352
Br56	Br	-4.066731	-0.241074	-0.870992
Br57	Br	-4.346932	-0.170062	-0.690996
Br58	Br	-4.395099	-0.699025	-0.380398
Br59	Br	-3.610112	-0.164846	-0.675322
Br60	Br	-3.543614	-0.483351	-0.131768
Br61	Br	-3.992688	-0.241489	-0.694780
Br62	Br	-3.524697	-0.004488	-0.643453
H63	H	-4.170046	-0.306364	-0.265195
Br64	Br	-3.825747	0.058918	-0.639020
H65	H	-3.980959	0.025581	-0.807657
H66	H	-4.428281	-0.888969	-0.262307
Br67	Br	-3.601992	-0.003324	-0.819767
H68	H	-3.768679	-0.876024	-0.246979
Br69	Br	-3.688984	-0.163274	-0.852491
H70	H	-3.569142	-0.425821	-0.249221
