data_functionalizedCrystal
_audit_creation_method	'MofGen! by Chris Wilmer'
_symmetry_space_group_name_H-M	'P1'
_symmetry_Int_Tables_number	1
_symmetry_cell_setting	triclinic
loop_
_symmetry_equiv_pos_as_xyz
  x,y,z
_cell_length_a	21.606444
_cell_length_b	23.196402
_cell_length_c	23.196401
_cell_angle_alpha	60.008520
_cell_angle_beta	90.012419
_cell_angle_gamma	59.999573
loop_
_atom_site_label
_atom_site_type_symbol
_atom_site_fract_x
_atom_site_fract_y
_atom_site_fract_z
Zr1	Zr	0.596188	0.631045	-0.075661
O2	O	0.497339	0.751312	-0.167707
O3	O	0.626492	0.510776	-0.047446
O4	O	0.626459	0.631048	-0.167714
O5	O	0.497397	0.631039	0.047432
O6	O	0.728308	0.631052	-0.167718
O7	O	0.497372	0.631041	-0.047439
O8	O	0.728368	0.415908	0.047420
O9	O	0.497337	0.846182	-0.167705
O10	O	0.715424	0.560248	-0.035413
O11	O	0.639433	0.560244	0.035391
O12	O	0.639393	0.701848	-0.106209
O13	O	0.563402	0.701844	-0.035405
Zr14	Zr	0.758665	0.631049	0.075642
Zr15	Zr	0.758626	0.631051	-0.075667
Zr16	Zr	0.596227	0.631043	0.075648
Zr17	Zr	0.596184	0.782353	-0.075658
Zr18	Zr	0.758669	0.479741	0.075639
O19	O	0.728361	0.751318	0.047427
O20	O	0.728306	0.751321	-0.167715
O21	O	0.497394	0.751309	0.047435
O22	O	0.857514	0.510782	0.167688
O23	O	0.857459	0.510785	-0.047454
O24	O	0.626547	0.510773	0.167696
O25	O	0.857456	0.631055	-0.047451
O26	O	0.728394	0.631046	0.167695
O27	O	0.626545	0.631042	0.167698
O28	O	0.857481	0.631053	0.047420
O29	O	0.626454	0.846188	-0.167710
O30	O	0.728399	0.415906	0.167690
O31	O	0.857516	0.415912	0.167686
O32	O	0.857485	0.415913	0.047415
O33	O	0.497368	0.846181	-0.047435
O34	O	0.626485	0.846186	-0.047439
O35	O	0.715460	0.560246	0.106190
O36	O	0.791451	0.560250	0.035386
O37	O	0.715421	0.701850	-0.035410
O38	O	0.639429	0.701846	0.035394
C39	C	0.677431	0.441784	-0.000014
C40	C	0.677432	0.377550	-0.000015
C41	C	0.717095	-0.085291	-0.036956
C42	C	0.717093	-0.024932	-0.036963
C43	C	0.677427	0.005248	-0.000003
C44	C	0.637745	-0.024921	0.036950
C45	C	0.637742	-0.085273	0.036950
C46	C	0.683112	0.067274	0.061902
C47	C	0.683121	0.127621	0.061904
C48	C	0.677433	0.191396	-0.000003
C49	C	0.671752	0.194808	-0.061912
C50	C	0.671748	0.134456	-0.061913
C51	C	0.677426	0.070690	0.000001
C52	C	0.717106	0.287010	-0.036965
C53	C	0.717099	0.347373	-0.036974
C54	C	0.637756	0.347377	0.036946
C55	C	0.637758	0.287021	0.036947
C56	C	0.677438	0.256838	-0.000006
C57	C	0.474241	0.631039	-0.000003
C58	C	0.405281	0.631036	-0.000001
C59	C	0.412569	0.557123	0.036952
C60	C	0.347772	0.557125	0.036952
C61	C	0.275687	0.631041	-0.000004
C62	C	0.268401	0.704960	-0.036957
C63	C	0.333197	0.704957	-0.036953
C64	C	0.007083	0.704974	-0.036973
C65	C	-0.057715	0.704972	-0.036976
C66	C	0.021657	0.557143	0.036933
C67	C	0.086454	0.557139	0.036937
C68	C	0.079162	0.631058	-0.000013
C69	C	0.149423	0.631054	-0.000013
C70	C	0.205427	0.631046	-0.000009
C71	C	0.880612	0.631055	-0.000017
C72	C	0.949572	0.631058	-0.000019
C73	C	0.677378	0.631050	-0.189274
C74	C	0.677361	0.631051	-0.253509
C75	C	0.677422	0.820310	-0.000006
C76	C	0.677421	0.884544	-0.000004
C77	C	0.637678	0.704962	-0.320636
C78	C	0.637697	0.704963	-0.380992
C79	C	0.677390	0.631049	-0.374215
C80	C	0.717082	0.557128	-0.307075
C81	C	0.717068	0.557129	-0.246722
C82	C	0.671755	0.574419	-0.441533
C83	C	0.671763	0.574421	-0.501887
C84	C	0.677438	0.631043	-0.560363
C85	C	0.683088	0.687676	-0.558485
C86	C	0.683074	0.687677	-0.498131
C87	C	0.677410	0.631040	-0.439654
C88	C	0.637773	0.704960	-0.692937
C89	C	0.637798	0.704958	-0.753292
C90	C	0.717177	0.557121	-0.679373
C91	C	0.717158	0.557125	-0.619020
C92	C	0.677451	0.631047	-0.625807
C93	C	0.677475	0.631044	0.189255
C94	C	0.677492	0.631043	0.253489
C95	C	0.880617	0.441792	-0.000020
C96	C	0.949577	0.377561	-0.000024
C97	C	0.677479	0.441781	0.189251
C98	C	0.677497	0.377546	0.253484
C99	C	0.880665	0.441789	0.189244
C100	C	0.949643	0.377557	0.253475
C101	C	0.474188	0.820305	-0.189263
C102	C	0.405211	0.884537	-0.253494
C103	C	0.474236	0.820302	0.000001
C104	C	0.405276	0.884533	0.000005
C105	C	0.677374	0.820313	-0.189270
C106	C	0.677356	0.884548	-0.253503
C107	C	0.942277	0.347396	-0.036989
C108	C	1.007066	0.287052	-0.037006
C109	C	1.079156	0.256870	-0.000055
C110	C	1.086456	0.287041	0.036911
C111	C	1.021667	0.347388	0.036924
C112	C	0.717191	0.347382	0.320611
C113	C	0.717205	0.287034	0.380971
C114	C	0.677529	0.256849	0.374202
C115	C	0.637830	0.287019	0.307068
C116	C	0.637812	0.347369	0.246709
C117	C	1.021708	0.347395	0.246679
C118	C	1.086526	0.287050	0.307025
C119	C	1.079276	0.256865	0.374166
C120	C	1.007203	0.287033	0.380960
C121	C	0.942387	0.347380	0.320615
C122	C	0.333145	0.914706	-0.246699
C123	C	0.268327	0.975070	-0.307045
C124	C	0.275577	1.005259	-0.374186
C125	C	0.347650	0.975087	-0.380980
C126	C	0.412466	0.914729	-0.320634
C127	C	0.412576	0.914704	0.036963
C128	C	0.347787	0.975065	0.036964
C129	C	0.275697	1.005249	0.000010
C130	C	0.268397	0.975075	-0.036952
C131	C	0.333186	0.914720	-0.036957
C132	C	0.717040	0.914715	-0.246712
C133	C	0.717038	0.975062	-0.307060
C134	C	0.677347	1.005246	-0.374199
C135	C	0.637662	0.975074	-0.380989
C136	C	0.637669	0.914723	-0.320642
H137	H	0.667121	0.137239	-0.112321
O138	O	0.354821	1.004263	-0.446149
C139	C	0.432327	0.964635	-0.439218
H140	H	0.466919	0.939863	-0.385415
H141	H	0.441339	1.009856	-0.482585
H142	H	0.451395	0.912143	-0.444050
O143	O	0.599320	-0.114729	0.072902
C144	C	0.650281	-0.199293	0.124781
H145	H	0.702501	-0.224883	0.109245
H146	H	0.621506	-0.230573	0.129255
H147	H	0.668042	-0.210805	0.177792
H148	H	0.001135	0.765163	-0.067073
H149	H	0.327227	0.890130	-0.192035
O150	O	0.212665	1.063808	-0.432853
C151	C	0.212751	1.034311	-0.473283
H152	H	0.273262	0.982986	-0.460101
H153	H	0.188875	1.085862	-0.531828
H154	H	0.176187	1.010233	-0.460612
O155	O	0.198398	0.776786	-0.072771
C156	C	0.190099	0.821768	-0.045611
H157	H	0.231130	0.778521	0.010726
H158	H	0.129485	0.855306	-0.045719
H159	H	0.202971	0.867849	-0.079876
H160	H	0.749353	0.999622	-0.301517
H161	H	0.222947	1.054394	0.000020
H162	H	0.209648	0.999625	-0.301499
O163	O	0.688469	0.742795	-0.496427
C164	C	0.626831	0.822381	-0.550964
H165	H	0.603534	0.821326	-0.594266
H166	H	0.646649	0.864031	-0.573839
H167	H	0.580469	0.846140	-0.528889
O168	O	0.354816	0.485345	0.072940
C169	C	0.319711	0.480925	0.124802
H170	H	0.316724	0.522869	0.138540
H171	H	0.354084	0.415549	0.174155
H172	H	0.259940	0.500780	0.103649
O173	O	0.198310	1.004460	-0.072781
C174	C	0.142700	1.064211	-0.064857
H175	H	0.167982	1.054294	-0.014944
H176	H	0.092734	1.059314	-0.060609
H177	H	0.122417	1.127338	-0.112607
H178	H	1.131906	0.207731	-0.000070
O179	O	0.755655	0.257807	0.446194
C180	C	0.704739	0.272542	0.483331
H181	H	0.644947	0.325435	0.444177
H182	H	0.721953	0.288535	0.516691
H183	H	0.706144	0.215575	0.519155
O184	O	0.688736	0.742574	-0.615251
C185	C	0.754154	0.700823	-0.629277
H186	H	0.796418	0.637141	-0.579245
H187	H	0.781008	0.735753	-0.647403
H188	H	0.737935	0.695815	-0.672523
H189	H	0.749500	0.371952	0.326136
H190	H	1.027622	0.371940	0.067029
H191	H	0.471144	0.890165	-0.326176
O192	O	0.482543	0.885504	0.072874
C193	C	0.475078	0.925074	0.105504
H194	H	0.417250	0.986248	0.076514
H195	H	0.521549	0.935474	0.103514
H196	H	0.480398	0.885498	0.162867
O197	O	0.677422	0.198323	0.432816
C198	C	0.602348	0.227796	0.432714
H199	H	0.565767	0.297285	0.398581
H200	H	0.601572	0.204092	0.489017
H201	H	0.578999	0.205846	0.410462
O202	O	0.325954	0.885472	-0.072864
C203	C	0.248430	0.925074	-0.105487
H204	H	0.213895	0.949947	-0.076496
H205	H	0.239386	0.879805	-0.103494
H206	H	0.229323	0.977489	-0.162852
O207	O	0.599179	0.257810	0.300467
C208	C	0.521715	0.322196	0.263227
H209	H	0.507651	0.373513	0.268241
H210	H	0.485846	0.299154	0.286174
H211	H	0.509009	0.345984	0.205154
H212	H	0.027588	0.496955	0.067021
H213	H	0.471260	0.496932	0.067049
O214	O	0.599312	0.257646	0.072955
C215	C	0.628479	0.222759	0.145094
H216	H	0.688967	0.204622	0.158190
H217	H	0.628364	0.166413	0.178523
H218	H	0.591692	0.269028	0.156904
O219	O	0.326255	0.776684	-0.072789
C220	C	0.398902	0.760832	-0.064874
H221	H	0.441861	0.697306	-0.014961
H222	H	0.398189	0.808035	-0.060634
H223	H	0.415400	0.764337	-0.112625
O224	O	0.599222	0.776714	-0.327136
C225	C	0.650149	0.781155	-0.294433
H226	H	0.702384	0.716981	-0.253301
H227	H	0.621350	0.812434	-0.267636
H228	H	0.667893	0.817640	-0.335919
O229	O	0.599102	0.776815	-0.699612
C230	C	0.521646	0.821775	-0.736851
H231	H	0.515169	0.800759	-0.770172
H232	H	0.497331	0.889395	-0.772718
H233	H	0.489807	0.811527	-0.697776
H234	H	0.605347	0.999659	-0.435662
O235	O	0.872342	0.376657	0.327131
C236	C	0.832492	0.361879	0.294458
H237	H	0.857213	0.354380	0.253317
H238	H	0.770123	0.415474	0.267676
H239	H	0.837914	0.303835	0.335960
H240	H	1.145160	0.262458	0.066995
H241	H	0.353745	0.999622	0.067066
O242	O	0.755666	0.885463	-0.181550
C243	C	0.790674	0.925052	-0.188511
H244	H	0.798513	0.949921	-0.242370
H245	H	0.848323	0.879776	-0.145229
H246	H	0.753496	0.977470	-0.183563
H247	H	0.677347	1.054388	-0.423332
H248	H	0.687754	0.124833	0.112315
O249	O	0.755742	-0.114614	-0.072808
C250	C	0.833203	-0.149545	-0.045622
H251	H	0.839703	-0.122285	-0.018553
H252	H	0.857501	-0.136310	-0.090600
H253	H	0.865042	-0.218285	-0.005730
O254	O	0.755692	0.004363	-0.072753
C255	C	0.811398	-0.010408	-0.025295
H256	H	0.794725	-0.017919	0.023345
H257	H	0.816201	0.043197	-0.052098
H258	H	0.868314	-0.068443	-0.008757
H259	H	0.667118	0.246736	-0.112323
H260	H	0.749497	0.496938	-0.673854
O261	O	0.599078	0.776837	-0.446157
C262	C	0.564049	0.842081	-0.439204
H263	H	0.556188	0.820414	-0.385354
H264	H	0.506409	0.893771	-0.482500
H265	H	0.601222	0.864818	-0.444136
O266	O	0.872310	0.376645	-0.072948
C267	C	0.879775	0.337058	-0.105561
H268	H	0.937594	0.312194	-0.112880
H269	H	0.833291	0.382334	-0.159246
H270	H	0.874477	0.284637	-0.070930
H271	H	0.667129	0.528311	-0.393924
H272	H	0.605486	0.765148	-0.807952
O273	O	0.599035	0.885467	-0.327166
C274	C	0.543334	0.900262	-0.294495
H275	H	0.560043	0.907739	-0.253344
H276	H	0.538490	0.846686	-0.267724
H277	H	0.486428	0.958324	-0.335996
H278	H	0.605491	0.371921	0.192054
H279	H	1.001108	0.262495	-0.067108
H280	H	1.027626	0.371963	0.192015
O281	O	1.000267	0.257714	0.446222
C282	C	1.035371	0.272479	0.483334
H283	H	1.079503	0.280018	0.460267
H284	H	1.064179	0.218859	0.541411
H285	H	0.990817	0.330497	0.478334
O286	O	0.755752	0.257678	-0.072815
C287	C	0.833213	0.222751	-0.045632
H288	H	0.839711	0.250019	-0.018571
H289	H	0.857510	0.235980	-0.090611
H290	H	0.865053	0.154011	-0.005734
O291	O	1.156475	0.257811	0.300291
C292	C	1.148967	0.297405	0.228089
H293	H	1.091134	0.322266	0.195919
H294	H	1.195429	0.252135	0.219669
H295	H	1.154265	0.349829	0.210295
H296	H	0.749403	0.371938	-0.067068
O297	O	1.142321	0.198213	0.432710
C298	C	1.207479	0.178083	0.412305
H299	H	1.192578	0.194722	0.356594
H300	H	1.253255	0.109871	0.450425
H301	H	1.229294	0.213378	0.413398
H302	H	0.605456	0.371953	0.067035
H303	H	0.687740	0.015350	0.112316
H304	H	0.605447	-0.000343	0.067041
H305	H	-0.116412	0.765167	-0.067071
O306	O	0.156459	0.485316	0.072950
C307	C	0.164769	0.440342	0.145087
H308	H	0.123741	0.483593	0.158169
H309	H	0.225385	0.406813	0.178522
H310	H	0.151901	0.394254	0.156902
O311	O	0.755711	0.485253	-0.553862
C312	C	0.790766	0.420012	-0.560819
H313	H	0.759654	0.441680	-0.614683
H314	H	0.788633	0.368316	-0.517545
H315	H	0.852355	0.397286	-0.555854
H316	H	0.749401	0.496946	-0.301561
O317	O	0.666289	0.519341	-0.503586
C318	C	0.661264	0.469375	-0.439039
H319	H	0.686715	0.469465	-0.396055
H320	H	0.693777	0.404471	-0.424031
H321	H	0.599238	0.493783	-0.444835
H322	H	0.749383	0.496939	-0.192061
