data_functionalizedCrystal
_audit_creation_method	'MofGen! by Chris Wilmer'
_symmetry_space_group_name_H-M	'P1'
_symmetry_Int_Tables_number	1
_symmetry_cell_setting	triclinic
loop_
_symmetry_equiv_pos_as_xyz
  x,y,z
_cell_length_a	19.288835
_cell_length_b	10.654550
_cell_length_c	9.130313
_cell_angle_alpha	90.004127
_cell_angle_beta	90.012492
_cell_angle_gamma	83.804445
loop_
_atom_site_label
_atom_site_type_symbol
_atom_site_fract_x
_atom_site_fract_y
_atom_site_fract_z
O1	O	-0.922386	-0.156474	-0.122086
O2	O	-0.422386	0.343526	0.377914
O3	O	-0.720261	-0.177646	-0.122026
O4	O	-0.220261	0.322354	0.377974
O5	O	-0.825971	0.015780	-0.122049
O6	O	-0.325971	0.515780	0.377951
O7	O	-0.816676	-0.349900	-0.122064
O8	O	-0.316676	0.150100	0.377936
O9	O	-0.825962	0.015784	0.121550
O10	O	-0.325962	0.515784	0.621550
O11	O	-0.720252	-0.177642	0.121572
O12	O	-0.220252	0.322358	0.621572
O13	O	-0.922377	-0.156470	0.121512
O14	O	-0.422377	0.343530	0.621512
Cu15	Cu	-0.821314	-0.167055	0.143785
Cu16	Cu	-0.321314	0.332945	0.643785
Cu17	Cu	-0.821324	-0.167060	-0.144299
Cu18	Cu	-0.321324	0.332940	0.355701
O19	O	-0.816668	-0.349895	0.121535
O20	O	-0.316668	0.150105	0.621535
C21	C	-0.694375	-0.176969	-0.000219
C22	C	-0.194375	0.323031	0.499781
C23	C	-0.617257	-0.174943	-0.000196
C24	C	-0.117257	0.325057	0.499804
C25	C	-0.581052	-0.173972	-0.132984
C26	C	-0.081052	0.326028	0.367016
C27	C	-0.508592	-0.172054	-0.132998
C28	C	-0.008592	0.327946	0.367002
C29	C	-0.472343	-0.171082	-0.000218
C30	C	0.027657	0.328918	0.499782
C31	C	-0.508556	-0.172060	0.132588
C32	C	-0.008556	0.327940	0.632588
C33	C	-0.581014	-0.173991	0.132598
C34	C	-0.081014	0.326009	0.632598
C35	C	-0.362510	-0.094467	0.101498
C36	C	0.137490	0.405533	0.601498
C37	C	-0.290054	-0.092529	0.101482
C38	C	0.209946	0.407471	0.601482
C39	C	-0.248859	-0.165134	-0.000245
C40	C	0.251141	0.334866	0.499755
C41	C	-0.280131	-0.239661	-0.101980
C42	C	0.219869	0.260339	0.398020
C43	C	-0.352588	-0.241591	-0.101970
C44	C	0.147412	0.258409	0.398030
C45	C	-0.393775	-0.168990	-0.000214
C46	C	0.106225	0.331010	0.499786
C47	C	-0.134085	-0.162085	-0.133058
C48	C	0.365915	0.337915	0.366942
C49	C	-0.061623	-0.160175	-0.133067
C50	C	0.438377	0.339825	0.366933
C51	C	-0.061590	-0.160169	0.132523
C52	C	0.438410	0.339831	0.632523
C53	C	-0.134049	-0.162091	0.132528
C54	C	0.365951	0.337909	0.632528
C55	C	-0.170293	-0.163044	-0.000266
C56	C	0.329707	0.336956	0.499734
C57	C	0.051738	-0.157155	-0.000286
C58	C	0.551738	0.342845	0.499714
C59	C	-0.025379	-0.159205	-0.000285
C60	C	0.474621	0.340795	0.499715
C61	C	-0.825284	0.062565	-0.000250
C62	C	-0.325284	0.562565	0.499750
C63	C	-0.823242	0.201964	-0.000251
C64	C	-0.323242	0.701964	0.499749
C65	C	-0.817354	-0.396681	-0.000268
C66	C	-0.317354	0.103319	0.499732
C67	C	-0.819396	-0.536080	-0.000275
C68	C	-0.319396	-0.036080	0.499725
N69	N	-0.821312	-0.167051	0.346408
N70	N	-0.321312	0.332949	0.846408
C71	C	-0.885482	0.282794	-0.000270
C72	C	-0.385482	0.782794	0.499730
C73	C	-0.883560	0.413774	-0.000288
C74	C	-0.383560	0.913774	0.499712
C75	C	-0.757151	0.383080	-0.000261
C76	C	-0.257151	0.883080	0.499739
C77	C	-0.759075	0.252103	-0.000254
C78	C	-0.259075	0.752103	0.499746
C79	C	-0.868136	-0.081438	0.423050
C80	C	-0.368136	0.418562	0.923050
C81	C	-0.868142	-0.081439	0.576386
C82	C	-0.368142	0.418561	1.076386
C83	C	-0.774498	-0.252676	0.576426
C84	C	-0.274498	0.247324	1.076426
C85	C	-0.774489	-0.252669	0.423092
C86	C	-0.274489	0.247331	0.923092
N87	N	-0.821327	-0.167059	0.653078
N88	N	-0.321327	0.332941	1.153078
H89	H	-0.479108	-0.171265	-0.241133
H90	H	0.020892	0.328735	0.258867
H91	H	-0.736377	-0.322386	0.638877
H92	H	-0.236377	0.177614	1.138877
H93	H	-0.032075	-0.159385	0.240636
H94	H	0.467925	0.340615	0.740636
Br95	Br	-0.183189	-0.163406	0.312751
Br96	Br	0.316811	0.336594	0.812751
H97	H	-0.032146	-0.159392	-0.241203
H98	H	0.467854	0.340608	0.258797
Br99	Br	-0.931680	0.034760	0.318984
Br100	Br	-0.431680	0.534760	0.818984
Br101	Br	-0.931688	0.034761	0.680398
Br102	Br	-0.431688	0.534761	1.180398
H103	H	-0.704908	0.423919	-0.000260
H104	H	-0.204908	0.923919	0.499740
H105	H	-0.736356	-0.322386	0.360686
H106	H	-0.236356	0.177614	0.860686
H107	H	-0.396045	-0.035340	0.184343
H108	H	0.103955	0.464660	0.684343
H109	H	-0.610557	-0.174747	-0.241116
H110	H	-0.110557	0.325253	0.258884
H111	H	-0.937732	0.241976	-0.000271
H112	H	-0.437732	0.741976	0.499729
Br113	Br	-0.674599	0.142395	-0.000248
Br114	Br	-0.174599	0.642395	0.499752
H115	H	-0.378046	-0.302277	-0.184803
H116	H	0.121954	0.197723	0.315197
H117	H	-0.246591	-0.298788	-0.184811
H118	H	0.253409	0.201212	0.315189
H119	H	-0.610492	-0.174783	0.240734
H120	H	-0.110492	0.325217	0.740734
Br121	Br	-0.183276	-0.163386	-0.313274
Br122	Br	0.316724	0.336614	0.186726
Br123	Br	-0.247620	0.008582	0.239578
Br124	Br	0.252380	0.508582	0.739578
H125	H	-0.479037	-0.171272	0.240699
H126	H	0.020963	0.328728	0.740699
H127	H	-0.934242	0.479581	-0.000306
H128	H	-0.434242	0.979581	0.499694
