data_functionalizedCrystal
_audit_creation_method	'MofGen! by Chris Wilmer'
_symmetry_space_group_name_H-M	'P1'
_symmetry_Int_Tables_number	1
_symmetry_cell_setting	triclinic
loop_
_symmetry_equiv_pos_as_xyz
  x,y,z
_cell_length_a	19.188930
_cell_length_b	12.811438
_cell_length_c	11.892095
_cell_angle_alpha	80.666371
_cell_angle_beta	93.870839
_cell_angle_gamma	83.595539
loop_
_atom_site_label
_atom_site_type_symbol
_atom_site_fract_x
_atom_site_fract_y
_atom_site_fract_z
O1	O	0.082768	1.409324	-0.238481
O2	O	0.094485	1.101432	-0.206924
O3	O	-0.013027	1.264261	-0.223591
O4	O	0.190281	1.246494	-0.221814
O5	O	-0.004077	1.250685	-0.034194
O6	O	0.103436	1.087856	-0.017527
O7	O	0.091719	1.395747	-0.049084
Zn8	Zn	0.098998	1.239646	-0.003235
Zn9	Zn	0.087206	1.257533	-0.252773
O10	O	0.199231	1.232918	-0.032417
C11	C	0.098578	1.055253	-0.108188
C12	C	0.097431	0.937881	-0.096157
C13	C	0.100693	0.765051	0.024034
C14	C	0.101771	0.875332	0.012735
C15	C	0.092014	0.890142	-0.193757
C16	C	0.090935	0.779861	-0.182458
C17	C	0.095274	0.717320	-0.073559
C18	C	0.094190	0.607038	-0.062261
C19	C	0.084437	0.621849	-0.268752
C20	C	0.085516	0.732130	-0.280051
C21	C	-0.034563	1.256898	-0.128830
C22	C	-0.112067	1.255169	-0.128643
C23	C	-0.156985	1.350713	-0.138431
C24	C	-0.229810	1.349091	-0.138282
C25	C	-0.257712	1.251919	-0.128324
C26	C	-0.212784	1.156364	-0.118542
C27	C	-0.139962	1.157989	-0.118701
N28	N	-0.362675	1.173022	-0.056255
N29	N	-0.431854	1.171485	-0.056102
C30	C	-0.477122	1.247017	-0.127844
N31	N	-0.450599	1.324160	-0.199733
N32	N	-0.381413	1.325700	-0.199882
C33	C	-0.336675	1.250146	-0.128150
C34	C	-0.601006	1.340809	-0.137473
C35	C	-0.673832	1.339184	-0.137332
C36	C	-0.656804	1.146452	-0.117579
C37	C	-0.583980	1.148081	-0.117732
C38	C	-0.556086	1.245262	-0.127674
C39	C	0.220767	1.240282	-0.127180
C40	C	0.298271	1.242011	-0.127375
N41	N	0.107046	1.227446	0.167068
C42	C	0.087626	1.441927	-0.147823
C43	C	0.088773	1.559299	-0.159861
N44	N	0.079153	1.269742	-0.423077
C45	C	0.023113	1.354635	0.390697
C46	C	0.028743	1.346115	0.509911
C47	C	0.123933	1.201882	0.524713
C48	C	0.118303	1.210402	0.405499
C49	C	0.067892	1.286782	0.338495
C50	C	0.062265	1.295306	0.219278
C51	C	0.157451	1.151069	0.234083
C52	C	0.163082	1.142549	0.353297
H53	H	0.106186	0.914190	0.092206
H54	H	-0.134279	1.429845	-0.146530
H55	H	0.204124	1.080358	0.407865
H56	H	0.088488	0.941081	-0.282417
Br57	Br	-0.250650	1.024487	-0.105040
H58	H	-0.103388	1.080183	-0.110731
H59	H	-0.266390	1.426897	-0.146257
Br60	Br	-0.032034	1.438200	0.580756
H61	H	-0.547406	1.070279	-0.109756
Br62	Br	0.218231	1.058988	0.163226
Br63	Br	-0.734796	1.468863	-0.150628
Br64	Br	-0.694664	1.014574	-0.104075
H65	H	0.080027	0.582974	-0.348219
Br66	Br	0.100072	0.522162	0.085528
Br67	Br	0.106561	0.680173	0.171820
Br68	Br	-0.006145	1.398968	0.128345
H69	H	-0.017929	1.416834	0.336141
Br70	Br	0.192335	1.098214	0.615658
H71	H	0.081986	0.783065	-0.368713
Br72	Br	-0.563144	1.472692	-0.150954
