data_functionalizedCrystal
_audit_creation_method	'MofGen! by Chris Wilmer'
_symmetry_space_group_name_H-M	'P1'
_symmetry_Int_Tables_number	1
_symmetry_cell_setting	triclinic
loop_
_symmetry_equiv_pos_as_xyz
  x,y,z
_cell_length_a	15.500227
_cell_length_b	15.995350
_cell_length_c	15.995350
_cell_angle_alpha	83.492375
_cell_angle_beta	92.830391
_cell_angle_gamma	87.159127
loop_
_atom_site_label
_atom_site_type_symbol
_atom_site_fract_x
_atom_site_fract_y
_atom_site_fract_z
O1	O	0.071866	-1.114876	-0.104044
O2	O	0.071884	-0.871102	-0.117370
O3	O	0.071874	-0.999653	0.011181
O4	O	0.071876	-0.986325	-0.232595
O5	O	-0.072014	-0.991852	0.003410
O6	O	-0.072004	-0.863301	-0.125140
O7	O	-0.072022	-1.107075	-0.111814
Cu8	Cu	-0.085151	-0.984476	-0.119187
Cu9	Cu	0.085013	-0.993701	-0.109998
O10	O	-0.072012	-0.978525	-0.240365
C11	C	-0.000058	-0.836007	-0.120704
C12	C	-0.000051	-0.743057	-0.119052
C13	C	-0.000069	-0.995201	0.038490
C14	C	-0.000064	-0.993550	0.131441
N15	N	-0.204836	-0.977993	-0.125649
C16	C	-0.250116	-1.032484	-0.071198
C17	C	-0.340689	-1.027589	-0.076093
C18	C	-0.385979	-0.968207	-0.135445
C19	C	-0.340692	-0.913711	-0.189898
C20	C	-0.250121	-0.918602	-0.184998
C21	C	-0.659444	-0.950586	-0.153082
C22	C	-0.750022	-0.945700	-0.157980
C23	C	-0.750013	-1.059578	-0.044173
C24	C	-0.659440	-1.064467	-0.039282
C25	C	-0.614161	-1.009968	-0.093732
C26	C	-0.478559	-0.963204	-0.140452
C27	C	-0.521583	-1.014968	-0.088721
N28	N	0.204698	-1.000190	-0.103528
C29	C	-0.000078	-1.142171	-0.108480
C30	C	-0.000079	-1.235121	-0.110132
C31	C	-0.000069	-0.405308	-0.113121
C32	C	-0.000391	-0.452725	-0.021586
C33	C	-0.000061	-0.549433	-0.023221
C34	C	-0.000061	-0.572869	-0.116063
C35	C	0.082103	-0.536237	-0.156782
C36	C	0.082166	-0.439604	-0.154479
C37	C	-0.081462	-0.430394	-0.165207
C38	C	-0.082542	-0.527281	-0.165243
C39	C	-0.000053	-0.667567	-0.117730
C40	C	-0.000071	-0.310610	-0.111456
C41	C	-0.000068	-0.982976	-0.267674
C42	C	-0.000067	-0.984628	-0.360625
C43	C	-0.000066	-0.987618	0.469188
C44	C	0.000263	-0.896083	0.421772
C45	C	-0.000061	-0.897718	0.325064
C46	C	-0.000064	-0.990560	0.301628
C47	C	-0.082233	-1.031262	0.338268
C48	C	-0.082302	-1.028958	0.434900
C49	C	0.081326	-1.039721	0.444094
C50	C	0.082412	-1.039758	0.347208
C51	C	-0.000066	-0.992228	0.206930
C52	C	-0.000070	-0.985952	0.563886
H53	H	-0.213247	-1.080842	-0.022871
C54	C	-0.082215	-0.387442	-0.256436
N55	N	-0.082777	-0.355086	-0.325147
H56	H	0.143251	-0.567926	-0.122117
H57	H	-0.484705	-1.063314	-0.040394
C58	C	0.165462	-1.003841	0.476382
N59	N	0.228830	-0.976807	0.500699
H60	H	-0.622567	-1.112821	0.009047
C61	C	-0.799827	-1.119516	0.015726
N62	N	-0.837348	-1.164660	0.060847
H63	H	-0.086032	-1.095972	0.466947
C64	C	-0.799839	-0.880370	-0.223271
N65	N	-0.837361	-0.831166	-0.272447
H66	H	-0.515441	-0.914855	-0.188778
C67	C	-0.165598	-0.398099	-0.129309
N68	N	-0.228965	-0.373777	-0.102262
C69	C	0.079862	-0.850957	0.451115
N70	N	0.139817	-0.816965	0.473224
C71	C	0.078761	-0.430534	0.031908
N72	N	0.138379	-0.413816	0.072198
C73	C	0.086237	-0.555547	-0.248705
N74	N	0.089349	-0.570094	-0.317942
H75	H	-0.143326	-0.551303	-0.135562
C76	C	-0.609649	-0.890743	-0.213089
N77	N	-0.572140	-0.845705	-0.258328
C78	C	-0.079627	-0.583529	0.020443
N79	N	-0.139556	-0.609206	0.053337
C80	C	0.089108	-1.131591	0.326823
N81	N	0.094144	-1.200763	0.311473
C82	C	0.087222	-0.396310	-0.245009
N83	N	0.091039	-0.363705	-0.313195
H84	H	-0.059059	-0.858785	0.294014
H85	H	-0.377556	-1.071959	-0.031754
H86	H	-0.143722	-0.992700	0.449885
H87	H	-0.377572	-0.865357	-0.238221
H88	H	-0.213254	-0.874229	-0.229338
H89	H	0.143586	-0.424626	-0.118232
C90	C	-0.089258	-0.547688	-0.257067
N91	N	-0.094314	-0.563064	-0.326230
C92	C	0.079509	-0.854071	0.290961
N93	N	0.139441	-0.821190	0.265278
H94	H	-0.058329	-0.856477	0.438202
H95	H	0.143198	-1.010038	0.323242
C96	C	-0.079992	-0.423378	0.023556
N97	N	-0.139949	-0.401267	0.057558
C98	C	-0.086379	-1.123179	0.318945
N99	N	-0.089503	-1.192409	0.304383
C100	C	0.079649	-0.591392	0.029357
N101	N	0.139691	-0.622996	0.068960
C102	C	-0.164839	-0.984409	0.295473
N103	N	-0.227056	-0.949114	0.263241
H104	H	0.081876	-1.107251	0.475885
