data_functionalizedCrystal
_audit_creation_method	'MofGen! by Chris Wilmer'
_symmetry_space_group_name_H-M	'P1'
_symmetry_Int_Tables_number	1
_symmetry_cell_setting	triclinic
loop_
_symmetry_equiv_pos_as_xyz
  x,y,z
_cell_length_a	9.130313
_cell_length_b	10.654550
_cell_length_c	16.109301
_cell_angle_alpha	83.973205
_cell_angle_beta	89.999196
_cell_angle_gamma	89.998405
loop_
_atom_site_label
_atom_site_type_symbol
_atom_site_fract_x
_atom_site_fract_y
_atom_site_fract_z
O1	O	-0.121697	0.161420	1.104090
O2	O	-0.121719	0.181509	0.862148
O3	O	-0.121709	-0.011350	0.988682
O4	O	-0.121708	0.354279	0.977556
O5	O	0.121890	-0.011356	0.988673
O6	O	0.121880	0.181503	0.862139
O7	O	0.121902	0.161415	1.104082
Cu8	Cu	0.144133	0.171458	0.983110
Cu9	Cu	-0.143951	0.171465	0.983120
O10	O	0.121891	0.354274	0.977548
C11	C	0.000077	0.180692	0.831164
C12	C	0.000068	0.178253	0.738854
N13	N	0.346756	0.171453	0.983108
N14	N	-0.346573	0.171460	0.983128
C15	C	0.000087	-0.058140	0.987861
C16	C	0.000077	-0.197550	0.985417
C17	C	0.423412	0.086091	1.039157
C18	C	0.576749	0.086091	1.039165
C19	C	0.576759	0.256827	0.927073
C20	C	0.423425	0.256820	0.927062
C21	C	-0.132698	-0.394041	0.981968
C22	C	-0.132707	-0.263052	0.984273
C23	C	0.132878	-0.263046	0.984264
C24	C	0.132885	-0.394033	0.981965
C25	C	0.000092	0.401063	0.978369
C26	C	0.000093	0.540473	0.980813
C27	C	0.000086	0.287019	0.517228
C28	C	0.000095	0.284717	0.430494
C29	C	0.000088	0.055896	0.449008
C30	C	0.000089	0.058199	0.535741
C31	C	0.000081	0.173764	0.569848
C32	C	0.000089	0.169159	0.396382
C33	C	0.000099	0.166662	0.302341
C34	C	0.000073	0.176262	0.663895
C35	C	0.000102	0.162231	1.135066
C36	C	0.000101	0.164671	1.227376
H37	H	0.360991	0.016578	1.084792
C38	C	0.278973	-0.466072	0.980692
N39	N	0.389002	-0.520331	0.979734
C40	C	0.339098	0.350787	0.865440
N41	N	0.275583	0.421579	0.819040
H42	H	0.000090	0.381119	0.544996
H43	H	0.000102	0.376940	0.387654
C44	C	0.000084	-0.071219	0.411481
N45	N	0.000075	-0.166965	0.383217
C46	C	0.000084	-0.066396	0.593626
N47	N	0.000084	-0.160237	0.637226
C48	C	0.278942	-0.190988	0.985518
N49	N	0.388960	-0.136715	0.986458
H50	H	0.639199	0.326332	0.881443
C51	C	0.661064	-0.007825	1.100816
N52	N	0.724569	-0.078570	1.147251
H53	H	-0.240839	-0.209739	0.985214
C54	C	-0.278773	-0.466082	0.980718
N55	N	-0.388802	-0.520341	0.979784
