data_functionalizedCrystal
_audit_creation_method	'MofGen! by Chris Wilmer'
_symmetry_space_group_name_H-M	'P1'
_symmetry_Int_Tables_number	1
_symmetry_cell_setting	triclinic
loop_
_symmetry_equiv_pos_as_xyz
  x,y,z
_cell_length_a	18.215407
_cell_length_b	18.215405
_cell_length_c	21.395356
_cell_angle_alpha	89.973989
_cell_angle_beta	89.978290
_cell_angle_gamma	90.017245
loop_
_atom_site_label
_atom_site_type_symbol
_atom_site_fract_x
_atom_site_fract_y
_atom_site_fract_z
Zn1	Zn	1.125111	-0.293111	-0.354237
Zn2	Zn	1.625111	0.206889	0.145763
Zn3	Zn	1.125016	-0.416179	-0.249463
Zn4	Zn	1.625016	0.083821	0.250537
Zn5	Zn	1.002035	-0.293119	-0.249477
Zn6	Zn	1.502035	0.206881	0.250523
Zn7	Zn	1.002014	-0.416128	-0.354206
Zn8	Zn	1.502014	0.083872	0.145794
O9	O	1.063544	-0.354634	-0.301846
O10	O	1.563544	0.145366	0.198154
O11	O	1.228083	-0.309454	-0.340345
O12	O	1.728083	0.190546	0.159655
O13	O	1.108671	-0.399879	-0.161787
O14	O	1.608671	0.100121	0.338213
O15	O	1.018410	-0.190133	-0.263393
O16	O	1.518410	0.309867	0.236607
O17	O	1.228013	-0.399871	-0.263368
O18	O	1.728013	0.100129	0.236632
O19	O	1.108834	-0.190127	-0.340360
O20	O	1.608834	0.309873	0.159640
O21	O	1.018318	-0.309467	-0.161798
O22	O	1.518318	0.190533	0.338202
O23	O	0.899048	-0.309418	-0.263363
O24	O	1.399048	0.190582	0.236637
O25	O	1.018374	-0.399785	-0.441888
O26	O	1.518374	0.100215	0.058112
O27	O	0.899033	-0.399793	-0.340307
O28	O	1.399033	0.100207	0.159693
O29	O	1.108813	-0.309405	-0.441911
O30	O	1.608813	0.190595	0.058089
O31	O	1.108651	-0.519156	-0.263338
O32	O	1.608651	-0.019156	0.236662
O33	O	1.018282	-0.519119	-0.340293
O34	O	1.518282	-0.019119	0.159707
C35	C	0.872338	-0.354602	-0.301834
C36	C	1.372338	0.145398	0.198166
C37	C	0.790539	-0.354606	-0.301843
C38	C	1.290539	0.145394	0.198157
C39	C	0.525512	-0.307644	-0.341992
C40	C	1.025512	0.192356	0.158008
C41	C	0.602371	-0.307632	-0.341990
C42	C	1.102371	0.192368	0.158010
C43	C	0.602317	-0.401648	-0.261714
C44	C	1.102317	0.098352	0.238286
C45	C	0.525460	-0.401663	-0.261719
C46	C	1.025460	0.098337	0.238281
C47	C	0.487059	-0.354657	-0.301857
C48	C	0.987059	0.145343	0.198143
C49	C	0.640776	-0.354630	-0.301850
C50	C	1.140776	0.145370	0.198150
C51	C	0.724109	-0.354617	-0.301847
C52	C	1.224109	0.145383	0.198153
C53	C	0.403720	-0.354670	-0.301861
C54	C	0.903720	0.145330	0.198139
C55	C	1.063474	-0.545840	-0.301824
C56	C	1.563474	-0.045840	0.198176
C57	C	1.063511	-0.627639	-0.301836
C58	C	1.563511	-0.127639	0.198164
C59	C	1.110617	-0.815769	-0.341967
C60	C	1.610617	-0.315769	0.158033
C61	C	1.110643	-0.892628	-0.341979
C62	C	1.610643	-0.392628	0.158021
C63	C	1.016563	-0.892747	-0.261764
C64	C	1.516563	-0.392747	0.238236
C65	C	1.016533	-0.815890	-0.261756
C66	C	1.516533	-0.315890	0.238244
C67	C	1.063564	-0.777403	-0.301856
C68	C	1.563564	-0.277403	0.198144
C69	C	1.063621	-0.931119	-0.301876
C70	C	1.563621	-0.431119	0.198124
C71	C	1.063649	-1.014452	-0.301889
C72	C	1.563649	-0.514452	0.198111
C73	C	1.063535	-0.694064	-0.301845
C74	C	1.563535	-0.194064	0.198155
C75	C	1.255497	-0.354667	-0.301859
C76	C	1.755497	0.145333	0.198141
C77	C	1.337296	-0.354681	-0.301864
C78	C	1.837296	0.145319	0.198136
C79	C	1.063602	-0.354588	-0.465269
C80	C	1.563602	0.145412	0.034731
C81	C	1.063627	-0.354569	-0.534911
C82	C	1.563627	0.145431	-0.034911
C83	C	1.063635	-0.162681	-0.301881
C84	C	1.563635	0.337319	0.198119
C85	C	1.063674	-0.080882	-0.301896
C86	C	1.563674	0.419118	0.198104
C87	C	1.016592	-0.307486	-0.567619
C88	C	1.516592	0.192514	-0.067619
C89	C	1.016590	-0.307473	-0.633055
C90	C	1.516590	0.192527	-0.133055
C91	C	1.063635	-0.354534	-0.665779
C92	C	1.563635	0.145466	-0.165779
C93	C	1.110673	-0.401626	-0.633062
C94	C	1.610673	0.098374	-0.133062
C95	C	1.110668	-0.401643	-0.567628
C96	C	1.610668	0.098357	-0.067628
C97	C	1.129943	-0.360326	-0.769464
C98	C	1.629943	0.139674	-0.269464
C99	C	1.129948	-0.360304	-0.834897
C100	C	1.629948	0.139696	-0.334897
C101	C	1.063647	-0.354484	-0.867600
C102	C	1.563647	0.145516	-0.367600
C103	C	0.997339	-0.348672	-0.834862
C104	C	1.497339	0.151328	-0.334862
C105	C	0.997335	-0.348690	-0.769428
C106	C	1.497335	0.151310	-0.269428
C107	C	1.063644	-0.354521	-0.736731
C108	C	1.563644	0.145479	-0.236731
C109	C	1.016606	-0.307384	-0.971261
C110	C	1.516606	0.192616	-0.471261
C111	C	1.016602	-0.307376	-1.036698
C112	C	1.516602	0.192624	-0.536698
C113	C	1.110691	-0.401525	-1.036704
C114	C	1.610691	0.098475	-0.536704
C115	C	1.110689	-0.401537	-0.971269
C116	C	1.610689	0.098463	-0.471269
C117	C	1.063647	-0.354463	-0.938551
C118	C	1.563647	0.145537	-0.438551
C119	C	1.063529	-0.354626	-0.139058
C120	C	1.563529	0.145374	0.360942
C121	C	1.063647	-0.354439	-0.069417
C122	C	1.563647	0.145561	0.430583
H123	H	0.633676	-0.269351	-0.374672
H124	H	1.133676	0.230649	0.125328
H125	H	1.183940	-0.365033	-0.861547
H126	H	1.683940	0.134967	-0.361547
H127	H	0.978214	-0.784650	-0.229093
H128	H	1.478214	-0.284650	0.270907
H129	H	1.148911	-0.784435	-0.374620
H130	H	1.648911	-0.284435	0.125380
H131	H	0.943350	-0.343929	-0.861488
H132	H	1.443350	0.156071	-0.361488
H133	H	0.633592	-0.439917	-0.229033
H134	H	1.133592	0.060083	0.270967
H135	H	1.148991	-0.439875	-0.944637
H136	H	1.648991	0.060125	-0.444637
H137	H	1.148957	-0.923862	-0.374642
H138	H	1.648957	-0.423862	0.125358
H139	H	0.978285	-0.269158	-0.540985
H140	H	1.478285	0.230842	-0.040985
H141	H	0.978273	-0.924093	-0.229114
H142	H	1.478273	-0.424093	0.270886
H143	H	1.148977	-0.439944	-0.659710
H144	H	1.648977	0.060056	-0.159710
H145	H	0.494151	-0.439950	-0.229037
H146	H	0.994151	0.060050	0.270963
H147	H	1.183938	-0.365059	-0.742842
H148	H	1.683938	0.134941	-0.242842
H149	H	1.148973	-0.439983	-0.540997
H150	H	1.648973	0.060017	-0.040997
H151	H	0.978290	-0.269129	-0.659692
H152	H	1.478290	0.230871	-0.159692
H153	H	0.943344	-0.343959	-0.742775
H154	H	1.443344	0.156041	-0.242775
H155	H	0.978301	-0.269054	-0.944621
H156	H	1.478301	0.230946	-0.444621
H157	H	0.978296	-0.269038	-1.063328
H158	H	1.478296	0.230962	-0.563328
H159	H	0.494249	-0.269369	-0.374675
H160	H	0.994249	0.230631	0.125325
H161	H	1.148998	-0.439842	-1.063347
H162	H	1.648998	0.060158	-0.563347
