data_functionalizedCrystal
_audit_creation_method	'MofGen! by Chris Wilmer'
_symmetry_space_group_name_H-M	'P1'
_symmetry_Int_Tables_number	1
_symmetry_cell_setting	triclinic
loop_
_symmetry_equiv_pos_as_xyz
  x,y,z
_cell_length_a	15.995343
_cell_length_b	14.472310
_cell_length_c	14.044220
_cell_angle_alpha	90.001238
_cell_angle_beta	88.339031
_cell_angle_gamma	90.008706
loop_
_atom_site_label
_atom_site_type_symbol
_atom_site_fract_x
_atom_site_fract_y
_atom_site_fract_z
O1	O	1.120123	0.076750	0.122138
O2	O	1.620123	0.576750	0.622138
O3	O	0.877474	0.076773	0.137233
O4	O	1.377474	0.576773	0.637233
O5	O	0.995156	0.076753	-0.008299
O6	O	1.495156	0.576753	0.491701
O7	O	1.002441	0.076770	0.267670
O8	O	1.502441	0.576770	0.767670
O9	O	0.995124	-0.076929	-0.008291
O10	O	1.495124	0.423071	0.491709
O11	O	0.877442	-0.076909	0.137242
O12	O	1.377442	0.423091	0.637242
O13	O	1.120090	-0.076932	0.122146
O14	O	1.620090	0.423068	0.622146
Cu15	Cu	0.998763	-0.090953	0.129695
Cu16	Cu	1.498763	0.409047	0.629695
Cu17	Cu	0.998802	0.090794	0.129685
Cu18	Cu	1.498802	0.590794	0.629685
O19	O	1.002408	-0.076912	0.267678
O20	O	1.502408	0.423088	0.767678
C21	C	0.846217	-0.000066	0.136615
C22	C	1.346217	0.499934	0.636615
C23	C	0.753126	-0.000057	0.134748
C24	C	1.253126	0.499943	0.634748
C25	C	0.582687	-0.000070	0.131359
C26	C	1.082687	0.499930	0.631359
C27	C	0.551495	-0.000076	0.026307
C28	C	1.051495	0.499924	0.526307
C29	C	0.454669	-0.000431	0.024330
C30	C	0.954669	0.499569	0.524330
C31	C	0.414878	-0.000081	0.128021
C32	C	0.914878	0.499919	0.628021
C33	C	0.447896	-0.087663	0.180847
C34	C	0.947896	0.412337	0.680847
C35	C	0.544782	-0.087731	0.182093
C36	C	1.044782	0.412269	0.682093
C37	C	0.544844	0.087040	0.183622
C38	C	1.044844	0.587040	0.683622
C39	C	0.448059	0.088186	0.179744
C40	C	0.948059	0.588186	0.679744
C41	C	0.320039	-0.000091	0.126140
C42	C	0.820039	0.499909	0.626140
C43	C	0.677526	-0.000067	0.133243
C44	C	1.177526	0.499933	0.633243
N45	N	0.998742	-0.218784	0.129701
N46	N	1.498742	0.281216	0.629701
C47	C	0.998800	-0.592875	0.129681
C48	C	1.498800	-0.092875	0.629681
C49	C	0.935581	-0.553699	0.207291
C50	C	1.435581	-0.053699	0.707291
C51	C	0.935761	-0.446611	0.207574
C52	C	1.435761	0.053389	0.707574
C53	C	0.998771	-0.407284	0.129691
C54	C	1.498771	0.092716	0.629691
C55	C	1.087749	-0.446128	0.151290
C56	C	1.587749	0.053872	0.651290
C57	C	1.087402	-0.553249	0.151842
C58	C	1.587402	-0.053249	0.651842
C59	C	0.973804	-0.553409	0.030242
C60	C	1.473804	-0.053409	0.530242
C61	C	0.971850	-0.446281	0.030905
C62	C	1.471850	0.053719	0.530905
C63	C	0.998759	-0.302396	0.129695
C64	C	1.498759	0.197604	0.629695
C65	C	0.998817	-0.697763	0.129679
C66	C	1.498817	-0.197763	0.629679
C67	C	1.151348	-0.000092	0.122765
C68	C	1.651348	0.499908	0.622765
C69	C	1.244438	-0.000094	0.124632
C70	C	1.744438	0.499906	0.624632
C71	C	0.991952	-0.000089	-0.043609
C72	C	1.491952	0.499911	0.456391
C73	C	0.982441	-0.000089	-0.148835
C74	C	1.482441	0.499911	0.351165
N75	N	0.998829	0.218625	0.129671
N76	N	1.498829	0.718625	0.629671
C77	C	0.965052	-0.000074	-0.341495
C78	C	1.465052	0.499926	0.158505
C79	C	1.032509	-0.000077	-0.399131
C80	C	1.532509	0.499923	0.100869
C81	C	1.022834	-0.000069	-0.506334
C82	C	1.522834	0.499931	-0.006334
C83	C	0.974726	-0.000082	-0.234282
C84	C	1.474726	0.499918	0.265718
C85	C	1.005613	-0.000069	0.302988
C86	C	1.505613	0.499931	0.802988
C87	C	1.015124	-0.000062	0.408214
C88	C	1.515124	0.499938	0.908214
H89	H	0.432575	0.062339	-0.017022
H90	H	0.932575	0.562339	0.482978
H91	H	1.097526	-0.000021	-0.367962
H92	H	1.597526	0.499979	0.132038
H93	H	0.576474	0.062720	-0.014416
H94	H	1.076474	0.562720	0.485584
Br95	Br	0.594792	-0.104608	-0.040456
Br96	Br	1.094792	0.395392	0.459544
Br97	Br	0.856692	-0.000056	-0.393443
Br98	Br	1.356692	0.499944	0.106557
H99	H	1.108956	-0.419287	0.222983
H100	H	1.608956	0.080713	0.722983
H101	H	0.425084	-0.153094	0.144608
H102	H	0.925084	0.346906	0.644608
H103	H	1.136224	-0.420652	0.096266
H104	H	1.636224	0.079348	0.596266
Br105	Br	0.418786	-0.105706	-0.044238
Br106	Br	0.918786	0.394294	0.455762
H107	H	0.426643	0.152980	0.141273
H108	H	0.926643	0.652980	0.641273
Br109	Br	0.578666	-0.093953	0.310490
Br110	Br	1.078666	0.406047	0.810490
Br111	Br	0.584907	-0.197274	0.121843
Br112	Br	1.084907	0.302726	0.621843
Br113	Br	1.050500	-0.595632	-0.066021
Br114	Br	1.550500	-0.095632	0.433979
H115	H	0.564633	0.087889	0.260946
H116	H	1.064633	0.587889	0.760946
H117	H	0.909929	-0.580472	0.009472
H118	H	1.409929	-0.080472	0.509472
H119	H	0.421749	-0.090670	0.257160
H120	H	0.921749	0.409330	0.757160
H121	H	0.570652	0.153446	0.150474
H122	H	1.070652	0.653446	0.650474
H123	H	0.420755	0.093750	0.255402
H124	H	0.920755	0.593750	0.755402
Br125	Br	0.825910	-0.402835	0.186192
Br126	Br	1.325910	0.097165	0.686192
Br127	Br	0.825407	-0.596644	0.186182
Br128	Br	1.325407	-0.096644	0.686182
H129	H	0.952125	-0.580605	0.280668
H130	H	1.452125	-0.080605	0.780668
Br131	Br	0.963608	-0.403871	0.330579
Br132	Br	1.463608	0.096129	0.830579
H133	H	0.906359	-0.420894	0.014513
H134	H	1.406359	0.079106	0.514513
H135	H	1.136308	-0.579163	0.097543
H136	H	1.636308	-0.079163	0.597543
Br137	Br	1.122235	-0.594877	0.272712
Br138	Br	1.622235	-0.094877	0.772712
Br139	Br	1.042673	-0.401684	-0.069869
Br140	Br	1.542673	0.098316	0.430131
