data_functionalizedCrystal
_audit_creation_method	'MofGen! by Chris Wilmer'
_symmetry_space_group_name_H-M	'P1'
_symmetry_Int_Tables_number	1
_symmetry_cell_setting	triclinic
loop_
_symmetry_equiv_pos_as_xyz
  x,y,z
_cell_length_a	14.908178
_cell_length_b	14.908571
_cell_length_c	14.908308
_cell_angle_alpha	90.175053
_cell_angle_beta	90.221621
_cell_angle_gamma	90.179240
loop_
_atom_site_label
_atom_site_type_symbol
_atom_site_fract_x
_atom_site_fract_y
_atom_site_fract_z
Zn1	Zn	-0.467728	-1.319970	0.559107
Zn2	Zn	-0.609493	-1.320875	0.400117
Zn3	Zn	-0.450513	-1.179218	0.401153
Zn4	Zn	-0.608428	-1.161960	0.541833
O5	O	-0.534041	-1.245506	0.475552
O6	O	-0.494184	-1.445502	0.544812
O7	O	-0.581645	-1.309684	0.274841
O8	O	-0.327380	-1.204733	0.429768
O9	O	-0.598338	-1.446167	0.428003
O10	O	-0.340028	-1.308143	0.545817
O11	O	-0.464843	-1.205610	0.275602
O12	O	-0.463811	-1.051517	0.413019
O13	O	-0.596523	-1.175320	0.669538
O14	O	-0.579830	-1.038838	0.516376
O15	O	-0.493151	-1.291409	0.682229
O16	O	-0.734769	-1.292951	0.411253
O17	O	-0.733987	-1.176197	0.515371
C18	C	-0.766900	-1.232822	0.461346
C19	C	-0.866524	-1.227476	0.455303
C20	C	-0.519838	-1.012659	0.462936
C21	C	-0.513784	-0.913044	0.457558
C22	C	-0.546639	-1.231338	0.709311
C23	C	-0.552007	-1.225301	0.808925
C24	C	-1.066751	-1.325018	0.564907
C25	C	-1.160358	-1.319998	0.559232
C26	C	-1.147346	-1.212412	0.438283
C27	C	-1.053739	-1.217432	0.443958
C28	C	-1.013445	-1.273738	0.507271
C29	C	-0.919837	-1.278762	0.512941
C30	C	-0.906827	-1.171172	0.391998
C31	C	-1.000433	-1.166152	0.386323
C32	C	-0.300275	-1.258262	0.489835
C33	C	-0.200658	-1.263698	0.495921
C34	C	-0.548300	-1.479261	0.488219
C35	C	-0.554376	-1.578874	0.493616
C36	C	-0.623390	-0.712702	0.554915
C37	C	-0.617705	-0.619104	0.549865
C38	C	-0.496726	-0.632249	0.442415
C39	C	-0.502411	-0.725847	0.447465
C40	C	-0.565746	-0.766070	0.503715
C41	C	-0.571434	-0.859669	0.508760
C42	C	-0.450452	-0.872812	0.401315
C43	C	-0.444767	-0.779214	0.396265
C44	C	-0.521430	-1.259673	0.242710
C45	C	-0.515820	-1.265897	0.143122
C46	C	-0.454433	-1.334839	1.009328
C47	C	-0.459475	-1.329169	1.102924
C48	C	-0.567126	-1.208289	1.089716
C49	C	-0.562085	-1.213958	0.996119
C50	C	-0.505737	-1.277237	0.955929
C51	C	-0.500701	-1.282910	0.862330
C52	C	-0.608347	-1.162026	0.849124
C53	C	-0.613389	-1.156356	0.942720
H54	H	-0.887031	-1.324611	0.564491
H55	H	-1.033943	-1.370871	0.616453
H56	H	-1.180169	-1.166567	0.386741
H57	H	-0.659263	-1.104835	0.975457
H58	H	-0.674964	-0.745452	0.600711
H59	H	-0.403516	-0.916275	0.359622
H60	H	-0.613000	-1.156771	1.122455
H61	H	-0.664643	-0.575655	0.591559
H62	H	-0.454822	-1.334435	0.829609
H63	H	-1.203756	-1.361750	0.606169
H64	H	-1.033254	-1.120308	0.334777
H65	H	-0.408558	-1.386367	0.976604
H66	H	-0.863414	-1.129419	0.345064
H67	H	-0.393200	-0.746452	0.350470
H68	H	-0.623006	-0.892417	0.554560
H69	H	-0.445157	-0.599483	0.396624
H70	H	-0.417695	-1.376073	1.146398
H71	H	-0.650125	-1.115123	0.805636
