data_functionalizedCrystal
_audit_creation_method	'MofGen! by Chris Wilmer'
_symmetry_space_group_name_H-M	'P1'
_symmetry_Int_Tables_number	1
_symmetry_cell_setting	triclinic
loop_
_symmetry_equiv_pos_as_xyz
  x,y,z
_cell_length_a	19.077105
_cell_length_b	16.120484
_cell_length_c	16.120297
_cell_angle_alpha	95.614431
_cell_angle_beta	90.698250
_cell_angle_gamma	90.738523
loop_
_atom_site_label
_atom_site_type_symbol
_atom_site_fract_x
_atom_site_fract_y
_atom_site_fract_z
Zn1	Zn	1.035311	-0.408728	-0.541298
Zn2	Zn	1.035223	-0.541413	-0.408604
Zn3	Zn	0.924375	-0.396094	-0.395989
Zn4	Zn	0.911827	-0.542259	-0.542147
O5	O	0.976684	-0.472123	-0.472009
O6	O	1.133368	-0.431262	-0.528620
O7	O	1.025733	-0.516495	-0.290230
O8	O	0.944379	-0.281070	-0.409629
O9	O	1.133303	-0.528745	-0.431130
O10	O	1.025883	-0.290352	-0.516387
O11	O	0.944293	-0.409729	-0.280961
O12	O	0.824641	-0.410550	-0.410453
O13	O	0.922993	-0.530187	-0.658735
O14	O	0.815423	-0.517936	-0.517835
O15	O	1.013716	-0.432082	-0.658111
O16	O	1.013566	-0.658225	-0.431954
O17	O	0.922907	-0.658846	-0.530067
C18	C	0.794604	-0.462964	-0.462868
C19	C	0.716707	-0.459067	-0.458977
C20	C	0.675330	-0.513223	-0.512978
C21	C	0.602138	-0.509551	-0.509326
C22	C	0.570325	-0.451726	-0.451670
C23	C	0.611708	-0.397564	-0.397667
C24	C	0.684898	-0.401233	-0.401323
C25	C	0.351943	-0.434744	-0.434752
C26	C	0.278747	-0.431081	-0.431098
C27	C	0.269182	-0.543067	-0.542759
C28	C	0.342375	-0.546735	-0.546407
C29	C	0.383751	-0.492570	-0.492407
N30	N	0.495512	-0.447972	-0.447934
N31	N	0.458563	-0.496320	-0.496147
C32	C	0.966884	-0.688796	-0.482491
C33	C	0.962754	-0.781495	-0.487006
C34	C	0.955218	-0.951216	-0.495266
C35	C	0.998275	-0.992197	-0.448772
C36	C	0.994082	-1.086636	-0.453368
C37	C	0.959410	-0.856769	-0.490671
C38	C	1.159475	-0.481318	-0.481187
C39	C	1.237370	-0.485237	-0.485098
C40	C	0.966965	-0.482638	-0.689528
C41	C	0.962823	-0.487119	-0.782222
C42	C	0.986541	-0.254606	-0.461506
C43	C	0.990741	-0.161913	-0.457030
C44	C	0.955237	-0.495280	-0.951932
C45	C	0.998280	-0.448724	-0.992933
C46	C	0.994059	-0.453265	-1.087365
C47	C	0.959457	-0.490740	-0.857491
C48	C	0.986408	-0.461591	-0.255335
C49	C	0.990696	-0.456882	-0.162638
H50	H	0.368271	-0.593824	-0.593355
H51	H	1.038300	-0.405455	-0.957113
H52	H	0.701227	-0.560313	-0.559926
O53	O	0.562049	-0.562253	-0.561809
C54	C	0.605822	-0.614071	-0.613488
H55	H	0.659389	-0.617857	-0.582068
H56	H	0.581317	-0.679158	-0.624383
H57	H	0.612157	-0.587099	-0.675800
O58	O	0.228886	-0.595589	-0.595180
C59	C	0.157464	-0.579969	-0.579579
H60	H	0.151588	-0.513752	-0.548755
H61	H	0.126610	-0.587346	-0.640927
H62	H	0.136441	-0.626176	-0.536443
H63	H	0.915208	-0.987055	-0.538519
O64	O	0.907593	-0.546996	-0.994704
C65	C	0.942852	-0.605221	-1.049721
H66	H	0.998965	-0.611903	-1.026431
H67	H	0.914554	-0.668180	-1.052651
H68	H	0.943547	-0.582663	-1.114566
O69	O	0.247955	-0.374830	-0.375064
C70	C	0.300169	-0.327822	-0.328171
H71	H	0.350949	-0.329250	-0.364803
H72	H	0.282377	-0.260619	-0.315151
H73	H	0.309400	-0.355584	-0.266643
H74	H	0.385623	-0.390646	-0.390775
H75	H	0.585800	-0.350478	-0.350724
H76	H	0.718587	-0.357129	-0.357354
H77	H	1.038287	-0.956355	-0.405515
