data_functionalizedCrystal
_audit_creation_method	'MofGen! by Chris Wilmer'
_symmetry_space_group_name_H-M	'P1'
_symmetry_Int_Tables_number	1
_symmetry_cell_setting	triclinic
loop_
_symmetry_equiv_pos_as_xyz
  x,y,z
_cell_length_a	14.971482
_cell_length_b	17.038272
_cell_length_c	14.048226
_cell_angle_alpha	89.993466
_cell_angle_beta	89.994098
_cell_angle_gamma	87.362082
loop_
_atom_site_label
_atom_site_type_symbol
_atom_site_fract_x
_atom_site_fract_y
_atom_site_fract_z
O1	O	1.194577	0.101883	-0.079149
O2	O	1.694577	0.601883	0.420851
O3	O	0.935090	0.114089	-0.079154
O4	O	1.435090	0.614089	0.420846
O5	O	1.063292	-0.005831	-0.079144
O6	O	1.563292	0.494169	0.420856
O7	O	1.066376	0.221803	-0.079159
O8	O	1.566376	0.721803	0.420841
O9	O	1.063275	-0.005838	0.079177
O10	O	1.563275	0.494162	0.579177
O11	O	0.935073	0.114082	0.079167
O12	O	1.435073	0.614082	0.579167
O13	O	1.194560	0.101876	0.079172
O14	O	1.694560	0.601876	0.579172
Zn15	Zn	1.064814	0.107978	0.104307
Zn16	Zn	1.564814	0.607978	0.604307
Zn17	Zn	1.064837	0.107987	-0.104289
Zn18	Zn	1.564837	0.607987	0.395711
O19	O	1.066359	0.221796	0.079162
O20	O	1.566359	0.721796	0.579162
C21	C	0.901716	0.113540	0.000006
C22	C	1.401716	0.613540	0.500006
C23	C	0.802297	0.111906	0.000004
C24	C	1.302297	0.611906	0.500004
C25	C	0.755585	0.111132	0.086307
C26	C	1.255585	0.611132	0.586307
C27	C	0.662171	0.109584	0.086308
C28	C	1.162171	0.609584	0.586308
C29	C	0.615469	0.108816	0.000006
C30	C	1.115469	0.608816	0.500006
C31	C	0.662188	0.109587	-0.086303
C32	C	1.162188	0.609587	0.413697
C33	C	0.755601	0.111129	-0.086303
C34	C	1.255601	0.611129	0.413697
C35	C	0.467485	0.106374	-0.086297
C36	C	0.967485	0.606374	0.413703
C37	C	0.374065	0.104833	-0.086297
C38	C	0.874065	0.604833	0.413703
C39	C	0.374055	0.104829	0.086314
C40	C	0.874055	0.604829	0.586314
C41	C	0.467468	0.106371	0.086314
C42	C	0.967468	0.606371	0.586314
C43	C	0.514180	0.107144	0.000005
C44	C	1.014180	0.607144	0.500005
C45	C	1.060478	-0.034966	0.000016
C46	C	1.560478	0.465034	0.500016
C47	C	1.052108	-0.121769	0.000016
C48	C	1.552108	0.378231	0.500016
C49	C	1.128952	-0.171794	0.000018
C50	C	1.628952	0.328206	0.500018
C51	C	1.121082	-0.253354	0.000009
C52	C	1.621082	0.246646	0.500009
C53	C	1.036368	-0.284886	0.000004
C54	C	1.536368	0.215114	0.500004
C55	C	0.959518	-0.234854	-0.000001
C56	C	1.459518	0.265146	0.499999
C57	C	0.967389	-0.153296	0.000002
C58	C	1.467389	0.346704	0.500002
C59	C	1.008563	-0.530676	-0.000009
C60	C	1.508563	-0.030676	0.499991
C61	C	1.000699	-0.612241	-0.000009
C62	C	1.500699	-0.112241	0.499991
C63	C	1.162263	-0.630735	-0.000000
C64	C	1.662263	-0.130735	0.500000
C65	C	1.170126	-0.549174	0.000008
C66	C	1.670126	-0.049174	0.500008
C67	C	1.093277	-0.499149	-0.000003
C68	C	1.593277	0.000851	0.499997
C69	C	1.028322	-0.368253	-0.000002
C70	C	1.528322	0.131747	0.499998
C71	C	1.101324	-0.415784	-0.000003
C72	C	1.601324	0.084216	0.499997
C73	C	1.227934	0.102425	0.000010
C74	C	1.727934	0.602425	0.500010
C75	C	1.327354	0.104059	0.000005
C76	C	1.827354	0.604059	0.500005
C77	C	1.069173	0.250931	-0.000000
C78	C	1.569173	0.750931	0.500000
C79	C	1.077543	0.337734	-0.000006
C80	C	1.577543	0.837734	0.499994
N81	N	1.064805	0.107971	0.246667
N82	N	1.564805	0.607971	0.746667
N83	N	1.064852	0.107988	-0.246649
N84	N	1.564852	0.607988	0.253351
C85	C	1.121593	0.054893	0.296490
C86	C	1.621593	0.554893	0.796490
C87	C	1.121599	0.054892	0.396147
C88	C	1.621599	0.554892	0.896147
C89	C	1.064821	0.107975	0.445981
C90	C	1.564821	0.607975	0.945981
C91	C	1.008027	0.161056	0.396151
C92	C	1.508027	0.661056	0.896151
C93	C	1.008017	0.161052	0.296496
C94	C	1.508017	0.661052	0.796496
C95	C	1.008053	0.161061	0.603866
C96	C	1.508053	0.661061	1.103866
C97	C	1.008064	0.161067	0.703528
C98	C	1.508064	0.661067	1.203528
C99	C	1.121636	0.054902	0.703517
C100	C	1.621636	0.554902	1.203517
C101	C	1.121626	0.054898	0.603862
C102	C	1.621626	0.554898	1.103862
C103	C	1.064832	0.107980	0.554039
C104	C	1.564832	0.607980	1.054039
H105	H	0.793602	0.111765	0.156584
H106	H	1.293602	0.611765	0.656584
H107	H	0.890542	-0.260534	-0.000011
H108	H	1.390542	0.239466	0.499989
H109	H	1.167833	0.011670	0.255922
H110	H	1.667833	0.511670	0.755922
Br111	Br	0.598779	0.108547	0.203437
Br112	Br	1.098779	0.608547	0.703437
H113	H	0.624156	0.108955	-0.156571
H114	H	1.124156	0.608955	0.343429
H115	H	0.904814	-0.112565	-0.000001
H116	H	1.404814	0.387435	0.499999
H117	H	0.793632	0.111760	-0.156579
H118	H	1.293632	0.611760	0.343421
H119	H	0.961792	0.204274	0.436731
H120	H	1.461792	0.704274	0.936731
Br121	Br	1.243927	-0.129009	0.000039
Br122	Br	1.743927	0.370991	0.500039
H123	H	0.505490	0.107002	0.156589
H124	H	1.005490	0.607002	0.656589
Br125	Br	0.310662	0.103784	0.203448
Br126	Br	0.810662	0.603784	0.703448
Br127	Br	0.310685	0.103790	-0.203422
Br128	Br	0.810685	0.603790	0.296578
Br129	Br	0.530879	0.107418	-0.203431
Br130	Br	1.030879	0.607418	0.296569
Br131	Br	1.198690	-0.017135	0.536227
Br132	Br	1.698690	0.482865	1.036227
H133	H	1.239110	-0.523507	0.000012
H134	H	1.739110	-0.023507	0.500012
H135	H	1.183657	-0.294082	0.000013
H136	H	1.683657	0.205918	0.500013
Br137	Br	1.266553	-0.698629	0.000014
Br138	Br	1.766553	-0.198629	0.500014
Br139	Br	1.198715	-0.017134	0.771136
Br140	Br	1.698715	0.482866	1.271136
Br141	Br	1.198667	-0.017147	0.463767
Br142	Br	1.698667	0.482853	0.963767
Br143	Br	0.885722	-0.655034	-0.000005
Br144	Br	1.385722	-0.155034	0.499995
Br145	Br	0.904266	-0.462795	-0.000029
Br146	Br	1.404266	0.037205	0.499971
H147	H	0.961828	0.204291	0.744098
H148	H	1.461828	0.704291	1.244098
Br149	Br	1.216289	-0.372989	-0.000005
Br150	Br	1.716289	0.127011	0.499995
Br151	Br	0.930937	0.233085	0.228879
Br152	Br	1.430937	0.733085	0.728879
H153	H	0.961802	0.204284	0.563303
H154	H	1.461802	0.704284	1.063303
H155	H	0.959347	-0.393936	-0.000004
H156	H	1.459347	0.106064	0.499996
