data_functionalizedCrystal
_audit_creation_method	'MofGen! by Chris Wilmer'
_symmetry_space_group_name_H-M	'P1'
_symmetry_Int_Tables_number	1
_symmetry_cell_setting	triclinic
loop_
_symmetry_equiv_pos_as_xyz
  x,y,z
_cell_length_a	12.594517
_cell_length_b	12.594516
_cell_length_c	12.594509
_cell_angle_alpha	90.027875
_cell_angle_beta	90.021327
_cell_angle_gamma	90.011616
loop_
_atom_site_label
_atom_site_type_symbol
_atom_site_fract_x
_atom_site_fract_y
_atom_site_fract_z
Zn1	Zn	1.627298	-0.423716	0.601863
Zn2	Zn	1.627202	-0.601726	0.423885
Zn3	Zn	1.449302	-0.423761	0.423892
Zn4	Zn	1.449298	-0.601652	0.601815
O5	O	1.538275	-0.512714	0.512864
O6	O	1.776231	-0.447341	0.578271
O7	O	1.603565	-0.578169	0.274940
O8	O	1.472956	-0.274809	0.447522
O9	O	1.776161	-0.578124	0.447512
O10	O	1.603729	-0.274776	0.578277
O11	O	1.472863	-0.447419	0.274945
O12	O	1.300356	-0.447347	0.447476
O13	O	1.472948	-0.577998	0.750767
O14	O	1.300352	-0.578042	0.578196
O15	O	1.603724	-0.447269	0.750802
O16	O	1.603561	-0.750662	0.447466
O17	O	1.472855	-0.750608	0.578190
C18	C	1.261734	-0.512692	0.512832
C19	C	1.143429	-0.512709	0.512844
C20	C	1.074146	-0.441526	0.441881
C21	C	1.003343	-0.538615	0.415702
C22	C	1.003433	-0.415668	0.539042
C23	C	1.074183	-0.609849	0.486614
C24	C	1.074280	-0.486836	0.609999
C25	C	1.003508	-0.583991	0.583857
C26	C	1.538226	-0.789255	0.512845
C27	C	1.538302	-0.907560	0.512873
C28	C	1.609475	-0.976804	0.441848
C29	C	1.635486	-1.047501	0.538997
C30	C	1.512425	-1.047662	0.415785
C31	C	1.564362	-0.976698	0.610073
C32	C	1.441256	-0.976854	0.486796
C33	C	1.467229	-1.047519	0.584012
C34	C	1.815896	-0.512736	0.512896
C35	C	1.934201	-0.512745	0.512909
C36	C	1.538346	-0.512620	0.790485
C37	C	1.538377	-0.512581	0.908790
C38	C	1.538354	-0.235093	0.512906
C39	C	1.538387	-0.116787	0.512923
C40	C	1.538265	-0.512730	0.236323
C41	C	1.538441	-0.512470	0.118018
C42	C	1.467270	-0.583644	0.978025
C43	C	1.564392	-0.609650	1.048815
C44	C	1.441330	-0.486510	1.048799
C45	C	1.635550	-0.538638	0.978023
C46	C	1.512422	-0.415453	0.978000
C47	C	1.609612	-0.441422	1.048759
H48	H	0.972687	-0.644273	0.643895
H49	H	1.105131	-0.691955	0.464392
H50	H	1.717593	-1.078536	0.561082
O51	O	1.590813	-0.939629	0.708012
C52	C	1.683497	-0.877270	0.700596
H53	H	1.729803	-0.900826	0.626485
H54	H	1.660713	-0.789824	0.695439
C55	C	1.696091	-0.866525	0.890597
C56	C	1.752969	-0.895463	0.799577
H57	H	1.738944	-0.877742	0.951654
H58	H	1.633646	-0.908534	0.895594
H59	H	1.677108	-0.793654	0.886284
H60	H	1.771939	-0.968335	0.803884
H61	H	1.815419	-0.853467	0.794582
H62	H	0.972301	-0.333597	0.561136
O63	O	1.733454	-0.565188	0.941048
C64	C	1.725920	-0.657925	0.878745
H65	H	1.651754	-0.704160	0.902272
H66	H	1.720786	-0.635220	0.791279
C67	C	1.915905	-0.670653	0.868159
C68	C	1.824817	-0.727444	0.897063
H69	H	1.976911	-0.713534	0.879454
H70	H	1.920982	-0.608172	0.910131
H71	H	1.911612	-0.651736	0.795273
H72	H	1.829106	-0.746349	0.969951
H73	H	1.819744	-0.789931	0.855104
H74	H	1.407077	-1.078372	0.644167
H75	H	1.669674	-0.945753	0.381838
H76	H	1.490406	-0.333385	0.946871
H77	H	1.359173	-0.945796	0.464682
O78	O	1.486387	-1.084721	0.317731
C79	C	1.561610	-1.048712	0.243088
H80	H	1.602106	-0.974135	0.274644
H81	H	1.623633	-1.113161	0.229242
C82	C	1.455557	-1.114654	0.098871
C83	C	1.505288	-1.023052	0.137625
H84	H	1.420817	-1.098830	0.033815
H85	H	1.404879	-1.138918	0.149159
H86	H	1.507252	-1.168353	0.087342
H87	H	1.453592	-0.969360	0.149166
H88	H	1.555956	-0.998779	0.087336
O89	O	1.111439	-0.460485	0.707923
C90	C	1.075434	-0.358056	0.735215
H91	H	1.055501	-0.312047	0.659875
H92	H	1.001428	-0.364849	0.786864
C93	C	1.187481	-0.355649	0.889564
C94	C	1.163008	-0.299138	0.797029
H95	H	1.241498	-0.319306	0.927698
H96	H	1.211737	-0.424659	0.871179
H97	H	1.125802	-0.361306	0.932592
H98	H	1.224683	-0.293493	0.753996
H99	H	1.138765	-0.230125	0.815407
H100	H	1.359232	-0.464506	1.079889
H101	H	1.407184	-0.643833	0.946967
H102	H	1.105163	-0.381389	0.381796
H103	H	1.669841	-0.381279	1.079621
H104	H	1.586380	-0.691742	1.079921
H105	H	0.972185	-0.560522	0.333568
