data_functionalizedCrystal
_audit_creation_method	'MofGen! by Chris Wilmer'
_symmetry_space_group_name_H-M	'P1'
_symmetry_Int_Tables_number	1
_symmetry_cell_setting	triclinic
loop_
_symmetry_equiv_pos_as_xyz
  x,y,z
_cell_length_a	25.639239
_cell_length_b	11.169417
_cell_length_c	11.169409
_cell_angle_alpha	89.979747
_cell_angle_beta	89.960777
_cell_angle_gamma	90.039936
loop_
_atom_site_label
_atom_site_type_symbol
_atom_site_fract_x
_atom_site_fract_y
_atom_site_fract_z
Zn1	Zn	-0.208091	1.834735	-0.678475
Zn2	Zn	0.291909	2.334735	-0.178475
Zn3	Zn	-0.295541	1.834522	-0.477767
Zn4	Zn	0.204459	2.334522	0.022233
Zn5	Zn	-0.208124	1.634018	-0.477810
Zn6	Zn	0.291876	2.134018	0.022190
Zn7	Zn	-0.295499	1.633929	-0.678413
Zn8	Zn	0.204501	2.133929	-0.178413
O9	O	-0.251814	1.734301	-0.578116
O10	O	0.248186	2.234301	-0.078116
O11	O	-0.219696	2.002656	-0.651858
O12	O	0.280304	2.502656	-0.151858
O13	O	-0.283976	1.807873	-0.309823
O14	O	0.216024	2.307873	0.190177
O15	O	-0.134954	1.660770	-0.504473
O16	O	0.365046	2.160770	-0.004473
O17	O	-0.283945	2.002500	-0.504399
O18	O	0.216055	2.502500	-0.004399
O19	O	-0.134930	1.808235	-0.651900
O20	O	0.365070	2.308235	-0.151900
O21	O	-0.219751	1.660564	-0.309855
O22	O	0.280249	2.160564	0.190145
O23	O	-0.219710	1.466056	-0.504413
O24	O	0.280290	1.966056	-0.004413
O25	O	-0.283874	1.660618	-0.846371
O26	O	0.216126	2.160618	-0.346371
O27	O	-0.283905	1.465991	-0.651795
O28	O	0.216095	1.965991	-0.151795
O29	O	-0.219655	1.808149	-0.846416
O30	O	0.280345	2.308149	-0.346416
O31	O	-0.368701	1.807787	-0.504340
O32	O	0.131299	2.307787	-0.004340
O33	O	-0.368670	1.660412	-0.651754
O34	O	0.131330	2.160412	-0.151754
C35	C	-0.387657	1.734099	-0.578062
C36	C	0.112343	2.234099	-0.078062
C37	C	-0.445771	1.734123	-0.578078
C38	C	0.054229	2.234123	-0.078078
C39	C	-0.251807	1.422476	-0.578103
C40	C	0.248193	1.922476	-0.078103
C41	C	-0.251817	1.289076	-0.578125
C42	C	0.248183	1.789076	-0.078125
C43	C	-0.806137	1.811239	-0.501489
C44	C	-0.306137	2.311239	-0.001489
C45	C	-0.860741	1.811286	-0.501505
C46	C	-0.360741	2.311286	-0.001505
O47	O	-0.888981	1.876644	-0.436326
O48	O	-0.388981	2.376644	0.063674
N49	N	-0.888053	1.734512	-0.578196
N50	N	-0.388053	2.234512	-0.078196
C51	C	-0.860757	1.657695	-0.654885
C52	C	-0.360757	2.157695	-0.154885
O53	O	-0.889002	1.592398	-0.720118
O54	O	-0.389002	2.092398	-0.220118
C55	C	-0.806154	1.657655	-0.654874
C56	C	-0.306154	2.157655	-0.154874
C57	C	-0.778845	1.734426	-0.578169
C58	C	-0.278845	2.234426	-0.078169
C59	C	-0.778828	1.888005	-0.424791
C60	C	-0.278828	2.388005	0.075209
C61	C	-0.724228	1.887956	-0.424774
C62	C	-0.224228	2.387956	0.075226
C63	C	-0.696936	1.811143	-0.501454
C64	C	-0.196936	2.311143	-0.001454
C65	C	-0.724245	1.734377	-0.578152
C66	C	-0.224245	2.234377	-0.078152
C67	C	-0.778860	1.580845	-0.731567
C68	C	-0.278860	2.080845	-0.231567
C69	C	-0.724253	1.580813	-0.731551
C70	C	-0.224253	2.080813	-0.231551
C71	C	-0.696944	1.657583	-0.654846
C72	C	-0.196944	2.157583	-0.154846
C73	C	-0.642353	1.657515	-0.654814
C74	C	-0.142353	2.157515	-0.154814
N75	N	-0.615041	1.734289	-0.578123
N76	N	-0.115041	2.234289	-0.078123
C77	C	-0.642333	1.811103	-0.501443
C78	C	-0.142333	2.311103	-0.001443
C79	C	-0.975428	1.657785	-0.654903
C80	C	-0.475428	2.157785	-0.154903
C81	C	-1.030030	1.657818	-0.654909
C82	C	-0.530030	2.157818	-0.154909
C83	C	-1.030010	1.811411	-0.501530
C84	C	-0.530010	2.311411	-0.001530
C85	C	-0.975407	1.811371	-0.501520
C86	C	-0.475407	2.311371	-0.001520
C87	C	-0.948116	1.734559	-0.578212
C88	C	-0.448116	2.234559	-0.078212
C89	C	-0.527668	1.810995	-0.501412
C90	C	-0.027668	2.310995	-0.001412
C91	C	-0.473062	1.810936	-0.501398
C92	C	0.026938	2.310936	-0.001398
C93	C	-0.473087	1.657348	-0.654780
C94	C	0.026913	2.157348	-0.154780
C95	C	-0.527688	1.657402	-0.654790
C96	C	-0.027688	2.157402	-0.154790
C97	C	-0.554977	1.734235	-0.578102
C98	C	-0.054977	2.234235	-0.078102
O99	O	-0.614078	1.592194	-0.719964
O100	O	-0.114078	2.092194	-0.219964
O101	O	-0.614081	1.876400	-0.436232
O102	O	-0.114081	2.376400	0.063768
C103	C	-0.115441	1.734536	-0.578198
C104	C	0.384559	2.234536	-0.078198
C105	C	-0.057327	1.734637	-0.578233
C106	C	0.442673	2.234637	-0.078233
C107	C	-0.251756	1.734397	-0.891159
C108	C	0.248244	2.234397	-0.391159
C109	C	-0.251731	1.734438	-1.024559
C110	C	0.248269	2.234438	-0.524559
C111	C	-0.251821	2.047343	-0.578131
C112	C	0.248179	2.547343	-0.078131
C113	C	-0.251825	2.180743	-0.578137
C114	C	0.248175	2.680743	-0.078137
C115	C	-0.251834	1.734274	-0.266292
C116	C	0.248166	2.234274	0.233708
C117	C	-0.251711	1.734466	-0.132892
C118	C	0.248289	2.234466	0.367108
H119	H	-0.450829	1.873452	-0.438932
H120	H	0.049171	2.373452	0.061068
Br121	Br	-0.564694	1.915269	-0.397335
Br122	Br	-0.064694	2.415269	0.102665
Br123	Br	-0.938396	1.553523	-0.758988
Br124	Br	-0.438396	2.053523	-0.258988
H125	H	-0.801043	1.950562	-0.362349
H126	H	-0.301043	2.450562	0.137651
Br127	Br	-0.687174	1.992168	-0.320687
Br128	Br	-0.187174	2.492168	0.179313
H129	H	-0.953176	1.873885	-0.439061
H130	H	-0.453176	2.373885	0.060939
H131	H	-0.801085	1.518325	-0.794023
H132	H	-0.301085	2.018325	-0.294023
H133	H	-1.052241	1.873961	-0.439097
H134	H	-0.552241	2.373961	0.060903
Br135	Br	-1.067086	1.553608	-0.758994
Br136	Br	-0.567086	2.053608	-0.258994
Br137	Br	-0.687218	1.476567	-0.835644
Br138	Br	-0.187218	1.976567	-0.335644
H139	H	-0.549924	1.594893	-0.717253
H140	H	-0.049924	2.094893	-0.217253
H141	H	-0.450858	1.594804	-0.717209
H142	H	0.049142	2.094804	-0.217209
