data_functionalizedCrystal
_audit_creation_method	'MofGen! by Chris Wilmer'
_symmetry_space_group_name_H-M	'P1'
_symmetry_Int_Tables_number	1
_symmetry_cell_setting	triclinic
loop_
_symmetry_equiv_pos_as_xyz
  x,y,z
_cell_length_a	11.792254
_cell_length_b	15.995350
_cell_length_c	10.868271
_cell_angle_alpha	89.997096
_cell_angle_beta	89.995741
_cell_angle_gamma	83.845486
loop_
_atom_site_label
_atom_site_type_symbol
_atom_site_fract_x
_atom_site_fract_y
_atom_site_fract_z
O1	O	1.505942	0.114814	-0.102315
O2	O	2.005942	0.614814	0.397685
O3	O	1.175504	0.126630	-0.102317
O4	O	1.675504	0.626630	0.397683
O5	O	1.349756	-0.001124	-0.102314
O6	O	1.849756	0.498876	0.397686
O7	O	1.331691	0.242568	-0.102317
O8	O	1.831691	0.742568	0.397683
O9	O	1.349742	-0.001129	0.102330
O10	O	1.849742	0.498871	0.602330
O11	O	1.175490	0.126625	0.102328
O12	O	1.675490	0.626625	0.602328
O13	O	1.505928	0.114809	0.102330
O14	O	2.005928	0.614809	0.602330
Zn15	Zn	1.340707	0.120716	0.134821
Zn16	Zn	1.840707	0.620716	0.634821
Zn17	Zn	1.340726	0.120723	-0.134807
Zn18	Zn	1.840726	0.620723	0.365193
O19	O	1.331676	0.242563	0.102328
O20	O	1.831676	0.742563	0.602328
C21	C	1.133213	0.125883	0.000005
C22	C	1.633213	0.625883	0.500005
C23	C	1.007218	0.123655	0.000004
C24	C	1.507218	0.623655	0.500004
C25	C	0.904897	0.121845	-0.000001
C26	C	1.404897	0.621845	0.499999
C27	C	0.776529	0.119581	-0.000002
C28	C	1.276529	0.619581	0.499998
C29	C	1.349002	-0.032325	0.000006
C30	C	1.849002	0.467675	0.500006
C31	C	1.346763	-0.125286	-0.000001
C32	C	1.846763	0.374714	0.499999
C33	C	1.338722	-0.463070	0.000003
C34	C	1.838722	0.036930	0.500003
C35	C	1.214623	-0.416203	-0.000457
C36	C	1.714623	0.083797	0.499543
C37	C	1.216863	-0.319503	0.000004
C38	C	1.716863	0.180497	0.500004
C39	C	1.342710	-0.295491	-0.000000
C40	C	1.842710	0.204509	0.500000
C41	C	1.403912	-0.336292	0.116860
C42	C	1.903912	0.163708	0.616860
C43	C	1.400795	-0.432942	0.116958
C44	C	1.900795	0.067058	0.616958
C45	C	1.403375	-0.433282	-0.115761
C46	C	1.903375	0.066718	0.384239
C47	C	1.403345	-0.336337	-0.117306
C48	C	1.903345	0.163663	0.382694
C49	C	1.344971	-0.200783	0.000002
C50	C	1.844971	0.299217	0.500002
C51	C	1.336465	-0.557778	0.000008
C52	C	1.836465	-0.057778	0.500008
C53	C	1.548220	0.115556	0.000005
C54	C	2.048220	0.615556	0.500005
C55	C	1.674214	0.117784	-0.000002
C56	C	2.174214	0.617784	0.499998
C57	C	1.332430	0.273764	0.000005
C58	C	1.832430	0.773764	0.500005
C59	C	1.334669	0.366725	0.000004
C60	C	1.834669	0.866725	0.500004
N61	N	1.340702	0.120711	0.318835
N62	N	1.840702	0.620711	0.818835
N63	N	1.340739	0.120721	-0.318822
N64	N	1.840739	0.620721	0.181178
C65	C	1.340720	0.120721	0.569841
C66	C	1.840720	0.620721	1.069841
C67	C	1.340706	0.120718	0.430163
C68	C	1.840706	0.620718	0.930163
H69	H	1.168753	-0.291299	-0.083766
H70	H	1.668753	0.208701	0.416234
H71	H	1.361393	-0.308107	0.203826
H72	H	1.861393	0.191893	0.703826
C73	C	1.523868	-0.475952	0.124150
C74	C	2.023868	0.024048	0.624150
H75	H	1.522798	-0.535256	0.124255
H76	H	2.022798	-0.035256	0.624255
H77	H	1.558825	-0.459194	0.197576
H78	H	2.058825	0.040806	0.697576
H79	H	1.565902	-0.459945	0.055043
H80	H	2.065902	0.040055	0.555043
H81	H	1.362807	-0.454005	-0.204334
H82	H	1.862807	0.045995	0.295666
H83	H	1.358599	-0.309291	-0.203756
H84	H	1.858599	0.190709	0.296244
C85	C	1.527327	-0.315025	-0.126844
C86	C	2.027327	0.184975	0.373156
H87	H	1.543809	-0.280790	-0.059103
H88	H	2.043809	0.219210	0.440897
H89	H	1.536945	-0.285634	-0.201431
H90	H	2.036945	0.214366	0.298569
H91	H	1.577722	-0.365511	-0.125853
H92	H	2.077722	0.134489	0.374147
C93	C	1.147611	-0.441549	-0.113654
C94	C	1.647611	0.058451	0.386346
H95	H	1.194710	-0.480944	-0.161648
H96	H	1.694710	0.019056	0.338352
H97	H	1.124790	-0.393076	-0.161779
H98	H	1.624790	0.106924	0.338221
H99	H	1.081995	-0.466285	-0.087364
H100	H	1.581995	0.033715	0.412636
H101	H	1.494872	-0.464625	-0.116550
H102	H	1.994872	0.035375	0.383450
H103	H	1.168418	-0.291862	0.083917
H104	H	1.668418	0.208138	0.583917
C105	C	1.147892	-0.442980	0.112109
C106	C	1.647892	0.057020	0.612109
H107	H	1.073007	-0.414380	0.111118
H108	H	1.573007	0.085620	0.611118
H109	H	1.185768	-0.429154	0.185299
H110	H	1.685768	0.070846	0.685299
H111	H	1.143716	-0.501933	0.109340
H112	H	1.643716	-0.001933	0.609340
C113	C	1.340476	-0.457948	0.234958
C114	C	1.840476	0.042052	0.734958
H115	H	1.318100	-0.409058	0.282381
H116	H	1.818100	0.090942	0.782381
H117	H	1.391177	-0.495687	0.281683
H118	H	1.891177	0.004313	0.781683
H119	H	1.274917	-0.484509	0.213604
H120	H	1.774917	0.015491	0.713604
H121	H	1.496369	-0.321743	0.121203
H122	H	1.996369	0.178257	0.621203
