data_functionalizedCrystal
_audit_creation_method	'MofGen! by Chris Wilmer'
_symmetry_space_group_name_H-M	'P1'
_symmetry_Int_Tables_number	1
_symmetry_cell_setting	triclinic
loop_
_symmetry_equiv_pos_as_xyz
  x,y,z
_cell_length_a	14.044220
_cell_length_b	15.995343
_cell_length_c	12.503572
_cell_angle_alpha	93.518504
_cell_angle_beta	86.164750
_cell_angle_gamma	88.339031
loop_
_atom_site_label
_atom_site_type_symbol
_atom_site_fract_x
_atom_site_fract_y
_atom_site_fract_z
O1	O	1.263161	0.197432	-0.089227
O2	O	0.987193	0.190147	-0.089253
O3	O	1.132723	0.072466	-0.089220
O4	O	1.117631	0.315113	-0.089261
O5	O	1.121779	0.081333	0.089420
O6	O	0.976249	0.199013	0.089386
O7	O	1.252216	0.206299	0.089412
Cu8	Cu	1.113233	0.203465	0.105710
Cu9	Cu	1.126176	0.192980	-0.105551
O10	O	1.106686	0.323979	0.089378
C11	C	0.946407	0.191391	0.000063
C12	C	0.841182	0.181880	0.000054
C13	C	1.126628	0.045658	0.000103
C14	C	1.124761	-0.047432	0.000111
C15	C	0.648520	0.164493	0.000078
C16	C	0.590885	0.231949	0.000071
C17	C	0.483681	0.222274	0.000085
C18	C	0.755734	0.174166	0.000065
C19	C	1.121373	-0.217872	0.000086
C20	C	1.016322	-0.249065	0.000074
C21	C	1.014371	-0.345911	-0.000344
C22	C	1.118037	-0.385683	0.000063
C23	C	1.177096	-0.357691	-0.101738
C24	C	1.178346	-0.260809	-0.101812
C25	C	1.167437	-0.250716	0.101342
C26	C	1.163478	-0.347435	0.102668
C27	C	1.116157	-0.480522	0.000046
C28	C	1.123257	-0.123033	0.000096
C29	C	1.293003	0.205054	0.000093
C30	C	1.398228	0.214565	0.000096
C31	C	1.112781	0.350787	0.000054
C32	C	1.114649	0.443877	0.000038
N33	N	1.104136	0.210840	0.254300
N34	N	1.135281	0.185599	-0.254142
C35	C	1.090754	0.221696	0.473413
C36	C	1.148659	0.174746	0.526753
C37	C	1.141214	0.180786	0.648675
C38	C	1.098199	0.215657	0.351480
H39	H	0.622055	0.296965	0.000055
Cl40	Cl	0.600398	0.064118	0.000097
H41	H	0.968544	-0.364403	0.072611
Cl42	Cl	1.279714	-0.389036	0.112604
Cl43	Cl	1.005589	0.290758	0.544272
H44	H	0.971131	-0.220480	0.073068
H45	H	0.977718	-0.371060	-0.073759
Cl46	Cl	0.961371	-0.214517	-0.112482
Cl47	Cl	1.129754	-0.229465	-0.219759
H48	H	1.203826	0.130015	0.480853
Cl49	Cl	1.297692	-0.229751	-0.108466
H50	H	1.253623	-0.384011	-0.105232
H51	H	1.145512	-0.384258	-0.177797
Cl52	Cl	1.108962	-0.204988	0.220519
H53	H	1.120398	-0.365135	0.177982
H54	H	1.244698	-0.230871	0.102338
