data_functionalizedCrystal
_audit_creation_method	'MofGen! by Chris Wilmer'
_symmetry_space_group_name_H-M	'P1'
_symmetry_Int_Tables_number	1
_symmetry_cell_setting	triclinic
loop_
_symmetry_equiv_pos_as_xyz
  x,y,z
_cell_length_a	10.654541
_cell_length_b	10.868271
_cell_length_c	10.654555
_cell_angle_alpha	89.998868
_cell_angle_beta	84.486741
_cell_angle_gamma	90.003021
loop_
_atom_site_label
_atom_site_type_symbol
_atom_site_fract_x
_atom_site_fract_y
_atom_site_fract_z
O1	O	1.667851	0.102277	0.176378
O2	O	1.302373	0.102287	0.193187
O3	O	1.493508	0.102282	0.002044
O4	O	1.476717	0.102283	0.367521
O5	O	1.493490	-0.102363	0.002050
O6	O	1.302356	-0.102358	0.193193
O7	O	1.667834	-0.102368	0.176384
Zn8	Zn	1.485092	-0.134854	0.184789
Zn9	Zn	1.485115	0.134774	0.184781
O10	O	1.476699	-0.102362	0.367527
C11	C	1.255566	-0.000034	0.191956
C12	C	1.116123	-0.000030	0.188265
C13	C	1.088161	-0.000014	0.416829
C14	C	1.008671	-0.000001	0.529372
C15	C	0.877653	0.000000	0.525896
C16	C	0.826123	-0.000015	0.409865
C17	C	0.905613	-0.000028	0.297323
C18	C	1.036633	-0.000026	0.300811
C19	C	0.933574	-0.000053	0.068762
C20	C	1.064593	-0.000045	0.072235
C21	C	0.882044	-0.000068	-0.047268
C22	C	0.961534	-0.000073	-0.159814
C23	C	1.092560	-0.000072	-0.156333
C24	C	1.144082	-0.000058	-0.040308
N25	N	1.485086	-0.318868	0.184794
C26	C	1.485095	-0.430206	0.184794
C27	C	1.485112	-0.569884	0.184783
C28	C	1.714641	-0.000044	0.177614
C29	C	1.854084	-0.000040	0.181305
C30	C	1.492263	-0.000038	-0.044751
C31	C	1.488566	-0.000031	-0.184194
N32	N	1.485131	0.318788	0.184766
C33	C	1.481607	-0.223149	-0.446218
C34	C	1.483329	-0.334703	-0.380700
C35	C	1.486797	-0.334703	-0.249681
C36	C	1.488541	-0.223138	-0.184177
C37	C	1.486819	-0.111584	-0.249695
C38	C	1.483354	-0.111596	-0.380717
C39	C	1.486844	0.111523	-0.249712
C40	C	1.483384	0.111526	-0.380732
C41	C	1.488587	0.223089	-0.184207
C42	C	1.486874	0.334645	-0.249726
C43	C	1.483407	0.334641	-0.380753
C44	C	1.481663	0.223080	-0.446249
C45	C	1.477944	-0.000040	0.414321
C46	C	1.481641	-0.000039	0.553764
H47	H	1.250762	-0.000044	-0.037463
Br48	Br	1.476934	-0.223157	-0.624035
Br49	Br	1.265972	0.000014	0.421554
Br50	Br	1.078609	0.000017	0.686834
Br51	Br	1.476971	0.223065	-0.624064
Br52	Br	0.769769	0.000001	0.678632
Br53	Br	0.648311	-0.000041	0.405151
H54	H	1.157274	-0.000088	-0.247980
H55	H	1.491350	-0.223148	-0.077492
H56	H	0.919567	-0.000084	-0.254277
Br57	Br	0.704233	-0.000077	-0.051988
Br58	Br	1.480944	-0.486106	-0.469600
Br59	Br	1.489125	-0.486098	-0.160757
Br60	Br	1.493259	0.223091	-0.006390
H61	H	1.488285	0.425473	-0.196381
H62	H	1.481995	0.425482	-0.434089
