data_functionalizedCrystal
_audit_creation_method	'MofGen! by Chris Wilmer'
_symmetry_space_group_name_H-M	'P1'
_symmetry_Int_Tables_number	1
_symmetry_cell_setting	triclinic
loop_
_symmetry_equiv_pos_as_xyz
  x,y,z
_cell_length_a	12.970454
_cell_length_b	12.970454
_cell_length_c	12.970454
_cell_angle_alpha	120.000093
_cell_angle_beta	90.002165
_cell_angle_gamma	59.999262
loop_
_atom_site_label
_atom_site_type_symbol
_atom_site_fract_x
_atom_site_fract_y
_atom_site_fract_z
Zr1	Zr	0.993228	1.128505	0.135305
O2	O	0.828608	1.343594	0.299924
O3	O	1.043693	0.913416	0.084842
O4	O	1.043698	1.128504	0.299929
O5	O	0.828599	1.128507	-0.084830
O6	O	1.213366	1.128503	0.299932
O7	O	0.828603	1.128506	0.084836
O8	O	1.213356	0.743750	-0.084821
O9	O	0.828609	1.513260	0.299923
O10	O	1.191837	1.001885	0.063320
O11	O	1.065213	1.001886	-0.063302
O12	O	1.065219	1.255124	0.189936
O13	O	0.938596	1.255126	0.063314
Zr14	Zr	1.263822	1.128505	-0.135289
Zr15	Zr	1.263828	1.128504	0.135309
Zr16	Zr	0.993222	1.128507	-0.135294
Zr17	Zr	0.993229	1.399103	0.135303
Zr18	Zr	1.263821	0.857908	-0.135287
O19	O	1.213358	1.343594	-0.084826
O20	O	1.213366	1.343592	0.299930
O21	O	0.828599	1.343596	-0.084832
O22	O	1.428442	0.913417	-0.299909
O23	O	1.428451	0.913414	0.084848
O24	O	1.043684	0.913419	-0.299915
O25	O	1.428452	1.128503	0.084846
O26	O	1.213352	1.128507	-0.299914
O27	O	1.043685	1.128508	-0.299916
O28	O	1.428448	1.128504	-0.084821
O29	O	1.043700	1.513259	0.299926
O30	O	1.213351	0.743752	-0.299911
O31	O	1.428442	0.743751	-0.299907
O32	O	1.428446	0.743749	-0.084818
O33	O	0.828604	1.513261	0.084833
O34	O	1.043695	1.513260	0.084836
O35	O	1.191831	1.001886	-0.189920
O36	O	1.318455	1.001885	-0.063298
O37	O	1.191838	1.255124	0.063318
O38	O	1.065214	1.255126	-0.063304
C39	C	1.128524	0.790029	0.000011
C40	C	1.128524	0.675153	0.000012
C41	C	0.790046	1.128507	0.000003
C42	C	0.675169	1.128508	0.000001
C43	C	1.467004	1.128504	0.000013
C44	C	1.581881	1.128503	0.000015
C45	C	1.128533	1.128503	0.338485
C46	C	1.128535	1.128503	0.453361
C47	C	1.128526	1.466982	0.000005
C48	C	1.128527	1.581857	0.000004
C49	C	1.128521	1.128507	0.661530
C50	C	1.128531	1.128507	0.546654
C51	C	1.467003	0.790027	0.000016
C52	C	1.581880	0.675151	0.000019
C53	C	1.128516	0.790031	-0.338467
C54	C	1.128513	0.675156	-0.453342
C55	C	1.466996	0.790029	-0.338461
C56	C	1.581869	0.675153	-0.453335
C57	C	0.790055	1.466982	0.338477
C58	C	0.675181	1.581857	0.453350
C59	C	0.790047	1.466984	-0.000000
C60	C	0.675171	1.581860	-0.000003
C61	C	1.128534	1.466980	0.338482
C62	C	1.128537	1.581855	0.453357
