data_functionalizedCrystal
_audit_creation_method	'MofGen! by Chris Wilmer'
_symmetry_space_group_name_H-M	'P1'
_symmetry_Int_Tables_number	1
_symmetry_cell_setting	triclinic
loop_
_symmetry_equiv_pos_as_xyz
  x,y,z
_cell_length_a	6.817900
_cell_length_b	7.190334
_cell_length_c	15.866870
_cell_angle_alpha	74.030337
_cell_angle_beta	102.655915
_cell_angle_gamma	60.611776
loop_
_atom_site_label
_atom_site_type_symbol
_atom_site_fract_x
_atom_site_fract_y
_atom_site_fract_z
V1	V	-4.278433	0.767890	-0.130870
O2	O	-4.203398	0.646163	0.007859
O3	O	-4.283778	0.865652	-0.261003
O4	O	-4.314452	1.055795	-0.128168
O5	O	-4.172512	0.454703	-0.125896
V6	V	-4.744158	0.717916	-0.114358
O7	O	-4.578733	0.877511	-0.167091
O8	O	-4.894056	0.608295	-0.078137
O9	O	-4.515607	0.620154	0.015776
O10	O	-4.936591	0.839643	-0.253087
O11	O	-4.967477	1.031103	-0.119332
O12	O	-4.484933	0.430011	-0.117060
C13	C	-4.139122	0.880119	-0.292749
C14	C	-4.225342	0.961971	-0.399130
C15	C	-4.178259	1.122659	-0.123299
C16	C	-4.291433	1.363135	-0.121924
C17	C	-3.991620	0.202729	-0.682960
C18	C	-4.072667	0.279712	-0.782926
C19	C	-4.279585	0.691098	-0.809332
C20	C	-4.198544	0.614148	-0.709366
C21	C	-4.054566	0.369961	-0.646187
C22	C	-4.261489	0.781381	-0.672594
C23	C	-4.180466	0.704438	-0.572637
C24	C	-4.036496	0.460261	-0.509452
C25	C	-3.973542	0.293018	-0.546230
C26	C	-4.405482	1.025568	-0.735775
C27	C	-4.468428	1.192801	-0.699003
C28	C	-4.387389	1.115858	-0.599044
C29	C	-4.243420	0.871681	-0.535859
C30	C	-4.450344	1.283101	-0.562266
C31	C	-4.369320	1.206158	-0.462309
C32	C	-4.162396	0.794738	-0.435902
C33	C	-4.323605	0.605685	0.047516
C34	C	-4.216628	0.523848	0.153897
H35	H	-3.970535	0.397619	-0.428062
N36	N	-4.623753	1.456158	-0.767161
H37	H	-4.534617	1.487428	-0.805931
H38	H	-4.651319	1.550278	-0.728640
N39	N	-4.434923	0.954465	-0.877478
H40	H	-4.476720	0.977839	-0.946381
H41	H	-4.338582	1.021042	-0.862484
N42	N	-4.437165	1.386521	-0.422641
H43	H	-4.363986	1.300720	-0.349732
H44	H	-4.623892	1.499651	-0.449174
N45	N	-4.005020	0.099424	-0.822635
H46	H	-3.906700	0.112292	-0.860258
H47	H	-4.161670	0.132317	-0.866754
H48	H	-4.045122	0.595894	-0.384457
N49	N	-3.818237	0.029641	-0.478079
H50	H	-3.914484	-0.037072	-0.492999
H51	H	-3.776505	0.006485	-0.409207
N52	N	-3.836315	-0.060646	-0.614806
H53	H	-3.808722	-0.154925	-0.653265
H54	H	-3.925593	-0.091682	-0.576061
N55	N	-4.492894	1.108564	-0.843587
H56	H	-4.425677	1.198052	-0.869556
H57	H	-4.680416	1.217582	-0.876059
N58	N	-4.605687	1.546459	-0.630426
H59	H	-4.516567	1.577742	-0.669201
H60	H	-4.633259	1.640583	-0.591907
