data_functionalizedCrystal
_audit_creation_method	'MofGen! by Chris Wilmer'
_symmetry_space_group_name_H-M	'P1'
_symmetry_Int_Tables_number	1
_symmetry_cell_setting	triclinic
loop_
_symmetry_equiv_pos_as_xyz
  x,y,z
_cell_length_a	6.817900
_cell_length_b	12.000032
_cell_length_c	10.773894
_cell_angle_alpha	94.306023
_cell_angle_beta	96.645922
_cell_angle_gamma	119.142083
loop_
_atom_site_label
_atom_site_type_symbol
_atom_site_fract_x
_atom_site_fract_y
_atom_site_fract_z
V1	V	-4.033352	-0.172143	-0.390991
O2	O	-3.931513	0.013105	-0.381384
O3	O	-4.070638	-0.345980	-0.390399
O4	O	-3.948674	-0.167375	-0.560567
O5	O	-4.054322	-0.166736	-0.210038
V6	V	-4.510577	-0.150236	-0.369095
O7	O	-4.308424	-0.220199	-0.439023
O8	O	-4.685702	-0.102181	-0.321064
O9	O	-4.250084	0.023600	-0.369688
O10	O	-4.729813	-0.335485	-0.378702
O11	O	-4.607004	-0.155643	-0.550048
O12	O	-4.372048	-0.155005	-0.199520
C13	C	-3.937658	-0.388424	-0.384768
C14	C	-4.049189	-0.530523	-0.385413
C15	C	-3.924030	-0.587762	-0.379712
C16	C	-4.039299	-0.734629	-0.380380
C17	C	-3.782079	-0.160594	-0.601832
C18	C	-3.794696	-0.157845	-0.740475
C19	C	-3.975119	-0.162609	-0.808393
C20	C	-3.988164	-0.159768	-0.951688
C21	C	-4.046411	0.066037	-0.375315
C22	C	-3.914117	0.208136	-0.374678
C23	C	-4.201989	-0.161790	-0.158248
C24	C	-4.168607	-0.164532	-0.019604
H25	H	-3.721617	-0.732144	-0.369299
Br26	Br	-4.370020	-0.630055	-0.394357
H27	H	-4.119921	-0.168781	-0.760455
Br28	Br	-3.746762	-0.149449	-1.031564
Br29	Br	-3.553309	-0.147527	-0.820356
Br30	Br	-4.409973	-0.174802	-0.939723
H31	H	-3.731538	-0.528035	-0.374330
H32	H	-4.231795	-0.794349	-0.385742
