data_functionalizedCrystal
_audit_creation_method	'MofGen! by Chris Wilmer'
_symmetry_space_group_name_H-M	'P1'
_symmetry_Int_Tables_number	1
_symmetry_cell_setting	triclinic
loop_
_symmetry_equiv_pos_as_xyz
  x,y,z
_cell_length_a	23.532407
_cell_length_b	26.210047
_cell_length_c	23.532407
_cell_angle_alpha	90.000177
_cell_angle_beta	82.848678
_cell_angle_gamma	90.003642
loop_
_atom_site_label
_atom_site_type_symbol
_atom_site_fract_x
_atom_site_fract_y
_atom_site_fract_z
O1	O	0.755264	0.042370	0.069127
O2	O	0.589401	0.042386	0.079130
O3	O	0.677334	0.042368	-0.008803
O4	O	0.667331	0.042388	0.157060
O5	O	0.677317	-0.042490	-0.008790
O6	O	0.589384	-0.042472	0.079144
O7	O	0.755247	-0.042488	0.069140
Cu8	Cu	0.672314	-0.050228	0.074143
Cu9	Cu	0.672334	0.050127	0.074127
O10	O	0.667314	-0.042470	0.157074
C11	C	0.568176	-0.000041	0.078882
C12	C	0.504959	-0.000035	0.078116
N13	N	0.672304	-0.120812	0.074154
C14	C	0.105856	-0.000053	0.125350
C15	C	0.046456	-0.000056	0.124638
O16	O	0.009711	-0.000069	0.168424
N17	N	0.023830	-0.000061	0.072362
C18	C	0.060607	-0.000069	0.020794
O19	O	0.035908	-0.000074	-0.023737
C20	C	0.120006	-0.000069	0.021506
C21	C	0.142629	-0.000059	0.073785
C22	C	0.128479	-0.000043	0.177625
C23	C	0.187876	-0.000039	0.178336
C24	C	0.224649	-0.000045	0.126772
C25	C	0.202025	-0.000055	0.074497
C26	C	0.156783	-0.000080	-0.030062
C27	C	0.216185	-0.000081	-0.029345
C28	C	0.238808	-0.000071	0.022934
C29	C	0.298194	-0.000056	0.023643
N30	N	0.320820	-0.000051	0.075920
C31	C	0.284048	-0.000045	0.127484
C32	C	-0.064135	-0.000069	0.019302
C33	C	-0.123533	-0.000065	0.018589
C34	C	-0.137680	-0.000053	0.122434
C35	C	-0.078281	-0.000053	0.123146
C36	C	-0.041509	-0.000063	0.071578
C37	C	0.408784	-0.000036	0.128974
C38	C	0.468186	-0.000030	0.129680
C39	C	0.482329	-0.000044	0.025836
C40	C	0.422932	-0.000048	0.025129
C41	C	0.386160	-0.000045	0.076702
O42	O	0.334974	-0.000045	-0.020119
O43	O	0.308755	-0.000046	0.172007
C44	C	0.711267	-0.473334	0.035199
C45	C	0.711280	-0.686992	0.035191
O46	O	0.744385	-0.714621	0.002072
N47	N	0.672337	-0.713706	0.074114
C48	C	0.633386	-0.687001	0.113040
O49	O	0.600260	-0.714625	0.146143
C50	C	0.633372	-0.473344	0.113045
C51	C	0.672320	-0.446633	0.074123
C52	C	0.750212	-0.446623	-0.003721
C53	C	0.750211	-0.393212	-0.003716
C54	C	0.711264	-0.366511	0.035208
C55	C	0.672319	-0.393222	0.074127
C56	C	0.594419	-0.446640	0.151968
C57	C	0.594417	-0.393222	0.151965
C58	C	0.633366	-0.366512	0.113042
C59	C	0.633371	-0.313109	0.113056
N60	N	0.672313	-0.286396	0.074132
C61	C	0.711260	-0.313097	0.035208
C62	C	0.633398	-0.799175	0.113036
C63	C	0.633402	-0.852589	0.113035
C64	C	0.711295	-0.852576	0.035185
C65	C	0.711293	-0.799161	0.035189
C66	C	0.672340	-0.772461	0.074112
C67	C	0.711254	-0.200929	0.035221
C68	C	0.711251	-0.147513	0.035230
C69	C	0.633356	-0.147530	0.113078
C70	C	0.633361	-0.200941	0.113071
C71	C	0.672312	-0.227640	0.074138
O72	O	0.600278	-0.285448	0.146153
O73	O	0.744373	-0.285464	0.002102
C74	C	0.711268	-0.526745	0.035194
C75	C	0.672323	-0.553456	0.074114
C76	C	0.633377	-0.526755	0.113038
C77	C	0.672328	-0.606870	0.074114
C78	C	0.711274	-0.633571	0.035190
C79	C	0.750217	-0.606857	-0.003734
C80	C	0.750215	-0.553446	-0.003730
C81	C	0.594434	-0.553469	0.151961
C82	C	0.594439	-0.606880	0.151954
C83	C	0.633386	-0.633581	0.113030
C84	C	0.776472	-0.000059	0.069388
C85	C	0.839689	-0.000062	0.070154
C86	C	0.677071	-0.000062	-0.030013
C87	C	0.676305	-0.000066	-0.093230
N88	N	0.672349	0.120710	0.074111
C89	C	0.723539	-0.000042	-0.492333
C90	C	0.722827	-0.000038	-0.551733
O91	O	0.766613	-0.000024	-0.588478
N92	N	0.670551	-0.000034	-0.574359
C93	C	0.618983	-0.000028	-0.537582
O94	O	0.574452	-0.000023	-0.562281
C95	C	0.619695	-0.000028	-0.478182
C96	C	0.671974	-0.000038	-0.455560
C97	C	0.775814	-0.000051	-0.469710
C98	C	0.776525	-0.000056	-0.410313
C99	C	0.724961	-0.000052	-0.373540
C100	C	0.672685	-0.000043	-0.396164
C101	C	0.568127	-0.000019	-0.441406
C102	C	0.568844	-0.000019	-0.382004
C103	C	0.621123	-0.000028	-0.359381
C104	C	0.621832	-0.000043	-0.299995
N105	N	0.674109	-0.000048	-0.277368
C106	C	0.725673	-0.000052	-0.314141
C107	C	0.617491	-0.000026	-0.662324
C108	C	0.616778	-0.000030	-0.721722
C109	C	0.720623	-0.000039	-0.735869
C110	C	0.721335	-0.000039	-0.676470
C111	C	0.669767	-0.000031	-0.639698
C112	C	0.727163	-0.000063	-0.189405
C113	C	0.727869	-0.000070	-0.130003
C114	C	0.624025	-0.000058	-0.115860
C115	C	0.623318	-0.000054	-0.175257
C116	C	0.674891	-0.000054	-0.212029
O117	O	0.578070	-0.000056	-0.263215
O118	O	0.770196	-0.000050	-0.289433
C119	C	0.667577	-0.000038	0.178283
C120	C	0.668343	-0.000031	0.241500
H121	H	0.486602	-0.000021	0.172255
H122	H	0.743007	-0.874325	0.003492
F123	F	-0.176828	-0.000049	0.177314
F124	F	0.552956	-0.364810	0.193393
F125	F	0.369658	-0.000034	0.183864
F126	F	-0.147603	-0.000064	-0.037054
F127	F	0.591913	-0.229368	0.154503
F128	F	0.752708	-0.119088	-0.006197
H129	H	0.742971	-0.222660	0.003517
F130	F	0.830701	-0.000056	-0.508838
F131	F	0.591955	-0.881011	0.154468
F132	F	0.591938	-0.770764	0.154467
F133	F	0.591909	-0.119105	0.154503
H134	H	0.404512	-0.000049	-0.017441
H135	H	0.819097	-0.000062	-0.391900
F136	F	0.782053	-0.000064	-0.228531
F137	F	0.569149	-0.000053	-0.076714
F138	F	0.132720	-0.000084	-0.085706
H139	H	0.781927	-0.468358	-0.035420
H140	H	0.781931	-0.531702	-0.035424
H141	H	0.206289	-0.000030	0.220908
F142	F	0.089351	-0.000037	0.232512
F143	F	0.567676	-0.000052	-0.199335
H144	H	-0.034198	-0.000072	-0.022693
H145	H	0.781924	-0.371467	-0.035412
F146	F	0.552963	-0.475058	0.193393
F147	F	0.255318	-0.000093	-0.084233
F148	F	-0.054210	-0.000043	0.178789
F149	F	0.776978	-0.000050	-0.652399
F150	F	0.791668	-0.635283	-0.045158
F151	F	0.561135	-0.000028	-0.745792
H152	H	0.512280	-0.000047	-0.016146
H153	H	0.743008	-0.777416	0.003495
H154	H	0.562724	-0.628624	0.183654
F155	F	0.552980	-0.525058	0.193391
F156	F	0.783515	-0.000080	-0.105930
H157	H	0.762610	-0.000041	-0.765821
H158	H	0.575496	-0.000024	-0.632386
F159	F	0.512483	-0.000006	-0.465469
H160	H	0.526850	-0.000011	-0.352066
