data_functionalizedCrystal
_audit_creation_method	'MofGen! by Chris Wilmer'
_symmetry_space_group_name_H-M	'P1'
_symmetry_Int_Tables_number	1
_symmetry_cell_setting	triclinic
loop_
_symmetry_equiv_pos_as_xyz
  x,y,z
_cell_length_a	13.032831
_cell_length_b	21.295417
_cell_length_c	13.032328
_cell_angle_alpha	82.860434
_cell_angle_beta	89.112777
_cell_angle_gamma	82.834379
loop_
_atom_site_label
_atom_site_type_symbol
_atom_site_fract_x
_atom_site_fract_y
_atom_site_fract_z
Zn1	Zn	1.498331	-0.425092	0.780723
Zn2	Zn	1.520043	-0.518879	0.608720
Zn3	Zn	1.348200	-0.398799	0.586972
Zn4	Zn	1.326291	-0.515474	0.758845
O5	O	1.423216	-0.464561	0.683815
O6	O	1.645128	-0.449962	0.776164
O7	O	1.515503	-0.493372	0.461922
O8	O	1.368197	-0.314208	0.612727
O9	O	1.661079	-0.518867	0.649794
O10	O	1.478498	-0.333526	0.755075
O11	O	1.389250	-0.405149	0.445943
O12	O	1.201377	-0.401848	0.591513
O13	O	1.330857	-0.513064	0.905661
O14	O	1.185281	-0.487568	0.717788
O15	O	1.457254	-0.446660	0.921734
O16	O	1.494259	-0.606507	0.628581
O17	O	1.351911	-0.604005	0.738877
C18	C	1.156013	-0.441486	0.649917
C19	C	1.041699	-0.431631	0.635440
C20	C	0.982810	-0.469705	0.691371
C21	C	0.864661	-0.459520	0.676409
C22	C	1.423089	-0.628097	0.683741
C23	C	1.423124	-0.698069	0.683755
C24	C	1.497295	-0.732227	0.626399
C25	C	1.497340	-0.797976	0.626428
C26	C	1.423197	-0.829561	0.683801
C27	C	1.349020	-0.795396	0.741169
C28	C	1.348984	-0.729650	0.741147
N29	N	1.332234	-0.925584	0.680227
N30	N	1.332273	-0.988040	0.680243
C31	C	1.423305	-1.027650	0.683874
N32	N	1.514302	-1.002443	0.687469
N33	N	1.514262	-0.939981	0.687448
C34	C	1.423229	-0.900851	0.683832
C35	C	1.497531	-1.133099	0.626547
C36	C	1.497577	-1.198849	0.626584
C37	C	1.349249	-1.196267	0.741318
C38	C	1.349211	-1.130519	0.741288
C39	C	1.423352	-1.098939	0.683897
C40	C	1.691463	-0.487728	0.717845
C41	C	1.805773	-0.497600	0.732347
C42	C	1.389190	-0.482415	0.952056
C43	C	1.374690	-0.490023	1.066364
C44	C	1.423370	-0.300390	0.683915
C45	C	1.423435	-0.230431	0.683958
C46	C	1.457169	-0.446737	0.416625
C47	C	1.471868	-0.438968	0.302343
C48	C	1.415793	-0.468428	1.243425
C49	C	1.430774	-0.460559	1.125280
H50	H	0.842819	-0.537736	0.791318
H51	H	1.489872	-0.429506	1.088261
H52	H	0.827613	-0.419378	0.617449
H53	H	1.530963	-0.407918	1.265319
O54	O	1.276952	-0.825981	0.796993
C55	C	1.211460	-0.781727	0.847594
H56	H	1.253100	-0.738712	0.856517
H57	H	1.138162	-0.765537	0.799965
C58	C	1.131539	-0.866193	0.944193
C59	C	1.182686	-0.813364	0.955161
H60	H	1.113786	-0.885708	1.010544
H61	H	1.175660	-0.896008	0.910100
H62	H	1.070464	-0.852694	0.904499
H63	H	1.243766	-0.826865	0.994843
H64	H	1.138575	-0.783552	0.989263
O65	O	1.027111	-0.517515	0.761777
C66	C	1.080829	-0.491487	0.836140
H67	H	1.101419	-0.442712	0.802027
H68	H	1.029840	-0.486182	0.907179
C69	C	1.155283	-0.596012	0.909388
C70	C	1.180580	-0.536109	0.867486
H71	H	1.216811	-0.623538	0.928728
H72	H	1.119089	-0.613549	0.859291
H73	H	1.112790	-0.591583	0.968582
H74	H	1.223060	-0.540537	0.808286
H75	H	1.216783	-0.518574	0.917574
O76	O	0.997482	-0.383828	0.564973
C77	C	0.943725	-0.409859	0.490643
H78	H	0.976954	-0.461774	0.488230
H79	H	0.858316	-0.407205	0.512195
C80	C	0.914678	-0.307988	0.386555
C81	C	0.955497	-0.371750	0.383587
H82	H	0.921935	-0.284479	0.320519
H83	H	0.950892	-0.290449	0.436635
H84	H	0.843507	-0.305785	0.404520
H85	H	1.026669	-0.373953	0.365635
H86	H	0.919295	-0.389288	0.333501
H87	H	1.288584	-0.701838	0.787854
O88	O	1.569422	-0.701656	0.570642
C89	C	1.634884	-0.745907	0.520006
H90	H	1.633086	-0.795868	0.562593
H91	H	1.607204	-0.744493	0.437100
C92	C	1.748418	-0.667303	0.466851
C93	C	1.746216	-0.728665	0.519162
H94	H	1.817092	-0.656667	0.466326
H95	H	1.704313	-0.637490	0.500962
H96	H	1.725346	-0.666133	0.397768
H97	H	1.769275	-0.729832	0.588247
H98	H	1.790327	-0.758479	0.485062
H99	H	1.557742	-0.825793	0.579723
H100	H	1.557903	-1.107386	0.579819
O101	O	1.569677	-1.231932	0.570773
C102	C	1.635117	-1.189959	0.520136
H103	H	1.593422	-1.139243	0.511182
H104	H	1.708409	-1.192160	0.567756
C105	C	1.715128	-1.271936	0.423593
C106	C	1.663914	-1.209646	0.412587
H107	H	1.732896	-1.284081	0.357253
H108	H	1.671043	-1.300215	0.457710
H109	H	1.776198	-1.273762	0.463280
H110	H	1.602838	-1.207823	0.372912
H111	H	1.707989	-1.181367	0.378460
H112	H	1.315576	-0.521066	1.103380
O113	O	1.277275	-1.227035	0.796963
C114	C	1.293230	-1.292393	0.784711
H115	H	1.337042	-1.299011	0.709655
H116	H	1.340220	-1.319786	0.852703
C117	C	1.134191	-1.309718	0.873056
C118	C	1.187994	-1.317845	0.780866
H119	H	1.069278	-1.325419	0.870689
H120	H	1.123443	-1.265686	0.881314
H121	H	1.173361	-1.332546	0.929706
H122	H	1.148830	-1.295011	0.724219
H123	H	1.198733	-1.361874	0.772599
O124	O	1.345426	-0.505551	1.287649
C125	C	1.396113	-0.555358	1.357208
H126	H	1.481192	-0.564098	1.335040
H127	H	1.389429	-0.541582	1.439046
C128	C	1.241084	-0.605834	1.379813
C129	C	1.345578	-0.616572	1.352580
H130	H	1.209910	-0.643594	1.376963
H131	H	1.206933	-0.572277	1.332953
H132	H	1.235528	-0.594352	1.448009
H133	H	1.351132	-0.628046	1.284380
H134	H	1.379729	-0.650133	1.399429
H135	H	1.288811	-1.102705	0.787988
