data_functionalizedCrystal
_audit_creation_method	'MofGen! by Chris Wilmer'
_symmetry_space_group_name_H-M	'P1'
_symmetry_Int_Tables_number	1
_symmetry_cell_setting	triclinic
loop_
_symmetry_equiv_pos_as_xyz
  x,y,z
_cell_length_a	12.837943
_cell_length_b	15.995350
_cell_length_c	11.295483
_cell_angle_alpha	94.097343
_cell_angle_beta	85.461227
_cell_angle_gamma	89.160657
loop_
_atom_site_label
_atom_site_type_symbol
_atom_site_fract_x
_atom_site_fract_y
_atom_site_fract_z
O1	O	1.382434	0.212589	-0.098992
O2	O	1.080629	0.201836	-0.099000
O3	O	1.239781	0.085983	-0.098995
O4	O	1.223282	0.328442	-0.098997
O5	O	1.225803	0.096142	0.099056
O6	O	1.066650	0.211995	0.099051
O7	O	1.368455	0.222747	0.099058
Cu8	Cu	1.216276	0.218299	0.117138
Cu9	Cu	1.232808	0.206285	-0.117080
O10	O	1.209303	0.338600	0.099053
C11	C	1.035019	0.203283	0.000024
C12	C	0.919942	0.192449	0.000021
C13	C	0.678983	0.322688	0.000037
C14	C	0.570857	0.312513	0.000035
C15	C	0.595562	0.161925	0.000024
C16	C	0.703688	0.172100	0.000026
C17	C	0.745394	0.252484	0.000031
C18	C	0.853523	0.262658	0.000024
C19	C	0.878225	0.112072	0.000021
C20	C	0.770100	0.101896	0.000019
C21	C	1.232110	0.059813	0.000028
C22	C	1.230066	-0.033301	0.000021
C23	C	1.222721	-0.371634	0.000025
C24	C	1.109407	-0.333266	-0.000422
C25	C	1.111421	-0.236390	0.000025
C26	C	1.226364	-0.203783	0.000023
C27	C	1.274288	-0.234599	0.113118
C28	C	1.271434	-0.331457	0.113213
C29	C	1.289672	-0.343180	-0.112007
C30	C	1.289750	-0.246314	-0.113502
C31	C	1.228429	-0.108920	0.000025
C32	C	1.220659	-0.466496	0.000031
C33	C	1.414065	0.221301	0.000031
C34	C	1.529143	0.232134	0.000027
C35	C	1.216974	0.364770	0.000027
C36	C	1.219019	0.457884	0.000026
N37	N	1.204657	0.226748	0.281874
N38	N	1.244436	0.197830	-0.281816
C39	C	1.328081	0.136958	0.531167
C40	C	1.319308	0.143350	0.655831
C41	C	1.178331	0.245919	0.655866
C42	C	1.187105	0.239527	0.531203
C43	C	1.261983	0.185046	0.468858
C44	C	1.270762	0.178659	0.344192
C45	C	1.129781	0.281223	0.344230
C46	C	1.121007	0.287615	0.468893
H47	H	0.712940	0.388139	0.000039
H48	H	0.561579	0.096485	0.000118
H49	H	0.736126	0.036451	0.000029
H50	H	0.516788	0.369680	0.000043
H51	H	1.073197	-0.215632	-0.081047
H52	H	1.389057	0.092603	0.480405
H53	H	0.887477	0.328111	0.000030
H54	H	1.331734	0.134300	0.293432
C55	C	1.038637	0.347535	0.537487
N56	N	0.976594	0.392667	0.589151
H57	H	1.358437	-0.213520	0.117323
C58	C	0.951288	0.034842	0.000011
N59	N	1.006319	-0.023325	-0.000000
C60	C	1.403645	-0.217005	-0.122726
N61	N	1.489436	-0.194933	-0.129662
H62	H	1.069828	-0.359572	-0.081525
C63	C	1.247777	-0.380858	-0.227812
N64	N	1.216211	-0.409237	-0.315030
C65	C	1.040794	-0.358981	0.108556
N66	N	0.989122	-0.378342	0.190650
H67	H	1.061448	-0.207890	0.081232
C68	C	1.208287	-0.354720	0.227418
N69	N	1.160719	-0.372237	0.313438
H70	H	1.373130	0.104191	0.706560
H71	H	1.354288	-0.356802	0.118343
C72	C	1.213801	-0.194618	0.226822
N73	N	1.168235	-0.164507	0.312460
C74	C	1.057068	0.334123	0.275679
N75	N	1.002304	0.373967	0.224046
C76	C	1.242561	-0.219653	-0.226535
N77	N	1.207007	-0.199576	-0.311669
C78	C	1.402640	-0.377138	-0.113042
N79	N	1.487723	-0.402720	-0.113813
C80	C	1.095946	0.305822	0.724467
N81	N	1.033886	0.350935	0.776139
