data_functionalizedCrystal
_audit_creation_method	'MofGen! by Chris Wilmer'
_symmetry_space_group_name_H-M	'P1'
_symmetry_Int_Tables_number	1
_symmetry_cell_setting	triclinic
loop_
_symmetry_equiv_pos_as_xyz
  x,y,z
_cell_length_a	8.965430
_cell_length_b	14.519709
_cell_length_c	14.519731
_cell_angle_alpha	96.315501
_cell_angle_beta	90.000564
_cell_angle_gamma	90.001799
loop_
_atom_site_label
_atom_site_type_symbol
_atom_site_fract_x
_atom_site_fract_y
_atom_site_fract_z
O1	O	0.123848	-1.223877	0.120883
O2	O	0.623848	-0.723877	0.620883
O3	O	0.123895	-0.955401	0.135120
O4	O	0.623895	-0.455401	0.635120
O5	O	0.123857	-1.096747	-0.006236
O6	O	0.623857	-0.596747	0.493764
O7	O	0.123886	-1.082531	0.262238
O8	O	0.623886	-0.582531	0.762238
O9	O	-0.124222	-1.096735	-0.006226
O10	O	0.375778	-0.596735	0.493774
O11	O	-0.124184	-0.955389	0.135129
O12	O	0.375816	-0.455389	0.635129
O13	O	-0.124230	-1.223865	0.120893
O14	O	0.375770	-0.723865	0.620893
Cu15	Cu	-0.146859	-1.089626	0.128012
Cu16	Cu	0.353141	-0.589626	0.628012
Cu17	Cu	0.146523	-1.089640	0.128000
Cu18	Cu	0.646523	-0.589640	0.628000
O19	O	-0.124193	-1.082519	0.262248
O20	O	0.375807	-0.582519	0.762248
C21	C	-0.000139	-0.921035	0.134461
C22	C	0.499861	-0.421035	0.634461
C23	C	-0.000122	-0.818654	0.132473
C24	C	0.499878	-0.318654	0.632473
C25	C	-0.000183	-1.096075	-0.040591
C26	C	0.499817	-0.596075	0.459409
C27	C	-0.000183	-1.094079	-0.142971
C28	C	0.499817	-0.594079	0.357029
N29	N	-0.353208	-1.089622	0.128019
N30	N	0.146792	-0.589622	0.628019
C31	C	-0.450496	-1.024235	0.193370
C32	C	0.049504	-0.524235	0.693370
C33	C	-0.549922	-1.107603	0.211402
C34	C	-0.049922	-0.607603	0.711402
C35	C	-0.549910	-1.006290	0.109994
C36	C	-0.049910	-0.506290	0.609994
C37	C	-0.450445	-1.173032	0.146093
C38	C	0.049555	-0.673032	0.646093
C39	C	-0.450424	-1.071665	0.044649
C40	C	0.049576	-0.571665	0.544649
C41	C	-0.549805	-1.155093	0.062646
C42	C	-0.049805	-0.655093	0.562646
N43	N	0.352872	-1.089650	0.127986
N44	N	0.852872	-0.589650	0.627986
C45	C	-0.000193	-1.258230	0.121551
C46	C	0.499807	-0.758230	0.621551
C47	C	-0.000201	-1.360612	0.123539
C48	C	0.499799	-0.860612	0.623539
C49	C	-0.000191	-0.443757	0.125153
C50	C	0.499809	0.056243	0.625153
C51	C	-0.000171	-0.548065	0.127186
C52	C	0.499829	-0.048065	0.627186
C53	C	-0.000155	-0.631202	0.128813
C54	C	0.499845	-0.131202	0.628813
C55	C	-0.000138	-0.735517	0.130846
C56	C	0.499862	-0.235517	0.630846
C57	C	-0.000180	-1.092457	-0.226115
C58	C	0.499820	-0.592457	0.273885
C59	C	-0.000168	-1.090430	-0.330424
C60	C	0.499832	-0.590430	0.169576
C61	C	-0.000158	-1.088822	-0.413563
C62	C	0.499842	-0.588822	0.086437
C63	C	-0.000149	-1.086795	-0.517878
C64	C	0.499851	-0.586795	-0.017878
C65	C	-0.000150	-1.083191	0.296603
C66	C	0.499850	-0.583191	0.796603
C67	C	-0.000139	-1.085187	0.398983
C68	C	0.499861	-0.585187	0.898983
H69	H	-0.406893	-0.968989	0.248685
H70	H	0.093107	-0.468989	0.748685
H71	H	-0.593626	-1.122811	0.281892
H72	H	-0.093626	-0.622811	0.781892
C73	C	-0.391674	-1.268275	0.166788
C74	C	0.108326	-0.768275	0.666788
N75	N	-0.347404	-1.340008	0.182381
N76	N	0.152596	-0.840008	0.682381
C77	C	-0.608368	-1.229893	-0.012030
C78	C	-0.108368	-0.729893	0.487970
N79	N	-0.652487	-1.286236	-0.068269
N80	N	-0.152487	-0.786236	0.431731
C81	C	-0.391324	-1.051082	-0.050548
C82	C	0.108676	-0.551082	0.449452
N83	N	-0.346805	-1.035568	-0.122250
N84	N	0.153195	-0.535568	0.377750
H85	H	-0.593604	-0.935805	0.094764
H86	H	-0.093604	-0.435805	0.594764
