data_functionalizedCrystal
_audit_creation_method	'MofGen! by Chris Wilmer'
_symmetry_space_group_name_H-M	'P1'
_symmetry_Int_Tables_number	1
_symmetry_cell_setting	triclinic
loop_
_symmetry_equiv_pos_as_xyz
  x,y,z
_cell_length_a	15.944551
_cell_length_b	14.853567
_cell_length_c	15.021413
_cell_angle_alpha	89.992183
_cell_angle_beta	90.002826
_cell_angle_gamma	83.566834
loop_
_atom_site_label
_atom_site_type_symbol
_atom_site_fract_x
_atom_site_fract_y
_atom_site_fract_z
O1	O	-1.114658	-0.116261	-0.073932
O2	O	-0.870125	-0.130597	-0.073953
O3	O	-0.998923	0.007809	-0.073944
O4	O	-0.985860	-0.254667	-0.073940
O5	O	-0.998903	0.007789	0.074120
O6	O	-0.870104	-0.130616	0.074111
O7	O	-1.114638	-0.116281	0.074133
Zn8	Zn	-0.992368	-0.123452	0.097630
Zn9	Zn	-0.992395	-0.123426	-0.097451
O10	O	-0.985839	-0.254687	0.074124
C11	C	-0.998321	0.041387	0.000085
C12	C	-0.996547	0.141469	0.000077
C13	C	-0.838820	-0.130011	0.000076
C14	C	-0.745572	-0.128227	0.000068
C15	C	-1.145943	-0.116866	0.000101
C16	C	-1.239191	-0.118650	0.000104
C17	C	-0.530615	-0.038172	0.000084
C18	C	-0.469651	-0.079981	-0.072919
C19	C	-0.574842	-0.124999	0.000078
C20	C	-0.469653	-0.080021	0.073061
C21	C	-0.409926	-0.121875	0.000092
C22	C	-0.515107	-0.166832	-0.072985
C23	C	-0.515116	-0.166860	0.073061
C24	C	-0.454170	-0.208732	0.000040
C25	C	-0.669847	-0.126797	0.000070
C26	C	-0.314923	-0.120085	0.000095
C27	C	-0.986441	-0.288265	0.000093
C28	C	-0.988215	-0.388346	0.000095
N29	N	-0.992355	-0.123469	0.230768
C30	C	-0.912540	0.553895	0.000087
C31	C	-1.065556	0.575372	0.000100
C32	C	-1.067224	0.481341	0.000095
C33	C	-0.991549	0.423582	0.000087
C34	C	-0.914206	0.459854	0.000084
C35	C	-1.144565	0.445061	0.000107
C36	C	-1.146236	0.351024	0.000103
C37	C	-1.070560	0.293263	0.000088
C38	C	-0.993214	0.329541	0.000085
C39	C	-0.917539	0.271782	0.000077
C40	C	-0.840192	0.308058	0.000067
C41	C	-0.838530	0.402093	0.000070
C42	C	-1.072223	0.199228	0.000085
C43	C	-0.919205	0.177741	0.000075
N44	N	-0.992414	-0.123401	-0.230588
C45	C	-0.932790	-0.187438	0.470447
C46	C	-1.008710	-0.204940	0.529789
C47	C	-0.992377	-0.123447	0.412375
C48	C	-0.916478	-0.105964	0.529775
C49	C	-0.992391	-0.123427	0.587799
C50	C	-1.068335	-0.140989	0.470410
C51	C	-0.976053	-0.041978	0.470391
C52	C	-1.052028	-0.059446	0.529706
C53	C	-0.992368	-0.123460	0.311318
C54	C	-0.992409	-0.123412	0.688854
H55	H	-0.563867	0.033887	-0.000008
H56	H	-1.132542	-0.155850	0.444443
Cl57	Cl	-1.129918	0.024121	0.569633
Cl58	Cl	-0.824064	0.105137	0.000058
Cl59	Cl	-0.438554	-0.023272	-0.168212
H60	H	-0.962210	0.026887	0.444280
Cl61	Cl	-0.817371	-0.083146	0.570038
H62	H	-0.449518	-0.043289	0.134777
H63	H	-0.421092	-0.280866	0.000000
Cl64	Cl	-0.745062	0.235436	0.000065
Cl65	Cl	-1.239693	0.517674	0.000136
Cl66	Cl	-0.741303	0.447704	0.000055
Cl67	Cl	-0.546251	-0.223526	0.168357
Cl68	Cl	-0.546038	-0.223476	-0.168378
Cl69	Cl	-1.030047	-0.311295	0.570072
Cl70	Cl	-1.160685	0.647983	0.000125
Cl71	Cl	-0.815309	0.599496	0.000066
H72	H	-1.209217	0.321496	0.000110
Cl73	Cl	-0.855070	-0.271051	0.430269
Cl74	Cl	-1.169450	0.153626	0.000114
