data_functionalizedCrystal
_audit_creation_method	'MofGen! by Chris Wilmer'
_symmetry_space_group_name_H-M	'P1'
_symmetry_Int_Tables_number	1
_symmetry_cell_setting	triclinic
loop_
_symmetry_equiv_pos_as_xyz
  x,y,z
_cell_length_a	12.594517
_cell_length_b	16.120847
_cell_length_c	16.120297
_cell_angle_alpha	89.836070
_cell_angle_beta	87.122039
_cell_angle_gamma	87.100418
loop_
_atom_site_label
_atom_site_type_symbol
_atom_site_fract_x
_atom_site_fract_y
_atom_site_fract_z
Zn1	Zn	1.575039	0.354925	0.453441
Zn2	Zn	2.075039	0.854925	0.953441
Zn3	Zn	1.575886	0.486935	0.307354
Zn4	Zn	2.075886	0.986935	0.807354
Zn5	Zn	1.406500	0.347897	0.314399
Zn6	Zn	1.906500	0.847897	0.814399
Zn7	Zn	1.388528	0.493939	0.446364
Zn8	Zn	1.888528	0.993939	0.946364
O9	O	1.486488	0.420924	0.380389
O10	O	1.986488	0.920924	0.880389
O11	O	1.724096	0.372446	0.434075
O12	O	2.224096	0.872446	0.934075
O13	O	1.561292	0.462618	0.191922
O14	O	2.061292	0.962618	0.691922
O15	O	1.436023	0.232463	0.338754
O16	O	1.936023	0.732463	0.838754
O17	O	1.724718	0.469433	0.326745
O18	O	2.224718	0.969433	0.826745
O19	O	1.559849	0.237627	0.440907
O20	O	2.059849	0.737627	0.940907
O21	O	1.436845	0.360468	0.197099
O22	O	1.936845	0.860468	0.697099
O23	O	1.255171	0.367259	0.331892
O24	O	1.755171	0.867259	0.831892
O25	O	1.405393	0.481371	0.563669
O26	O	1.905393	0.981371	1.063669
O27	O	1.241968	0.474556	0.428846
O28	O	1.741968	0.974556	0.928846
O29	O	1.542422	0.379238	0.568868
O30	O	2.042422	0.879238	1.068868
O31	O	1.543866	0.604230	0.319883
O32	O	2.043866	1.104230	0.819883
O33	O	1.406215	0.609376	0.422014
O34	O	1.906215	1.109376	0.922014
C35	C	1.209950	0.420906	0.380366
C36	C	1.709950	0.920906	0.880366
C37	C	1.091643	0.420919	0.380374
C38	C	1.591643	0.920919	0.880374
C39	C	1.499846	0.204029	0.391406
C40	C	1.999846	0.704029	0.891406
C41	C	1.505539	0.111601	0.396100
C42	C	2.005539	0.611601	0.896100
C43	C	1.515950	-0.057626	0.404669
C44	C	2.015950	0.442374	0.904669
C45	C	1.457216	-0.101373	0.356209
C46	C	1.957216	0.398627	0.856209
C47	C	1.463009	-0.195536	0.360977
C48	C	1.963009	0.304464	0.860977
C49	C	1.510158	0.036546	0.399902
C50	C	2.010158	0.536546	0.899902
C51	C	1.029538	0.362490	0.327751
C52	C	1.529538	0.862490	0.827751
C53	C	0.955481	0.437303	0.303457
C54	C	1.455481	0.937303	0.803457
C55	C	0.954898	0.346144	0.404680
C56	C	1.454898	0.846144	0.904680
C57	C	1.019144	0.495771	0.356039
C58	C	1.519144	0.995771	0.856039
C59	C	1.018569	0.404562	0.457300
C60	C	1.518569	0.904562	0.957300
C61	C	0.944538	0.479429	0.433033
C62	C	1.444538	0.979429	0.933033
C63	C	1.764106	0.420942	0.380414
C64	C	2.264106	0.920942	0.880414
C65	C	1.882410	0.420950	0.380424
C66	C	2.382410	0.920950	0.880424
C67	C	1.473210	0.636976	0.369434
C68	C	1.973210	1.136976	0.869434
C69	C	1.467625	0.729406	0.364775
C70	C	1.967625	1.229406	0.864775
C71	C	1.471809	0.431870	0.597284
C72	C	1.971809	0.931870	1.097284
C73	C	1.465553	0.436535	0.689712
C74	C	1.965553	0.936535	1.189712
C75	C	1.501175	0.409960	0.164341
C76	C	2.001175	0.909960	0.664341
C77	C	1.507651	0.405061	0.071926
C78	C	2.007651	0.905061	0.571926
C79	C	1.454094	0.445033	0.858939
C80	C	1.954094	0.945033	1.358939
C81	C	1.519107	0.396566	0.902704
C82	C	2.019107	0.896566	1.402704
C83	C	1.512731	0.401294	0.996868
C84	C	2.012731	0.901294	1.496868
C85	C	1.460469	0.440306	0.764767
C86	C	1.960469	0.940306	1.264767
H87	H	1.570583	-0.090889	0.449734
H88	H	2.070583	0.409111	0.949734
C89	C	0.916635	0.260702	0.432431
C90	C	1.416635	0.760702	0.932431
H91	H	0.945935	0.219246	0.394965
H92	H	1.445935	0.719246	0.894965
H93	H	0.841148	0.261471	0.432742
H94	H	1.341148	0.761471	0.932742
H95	H	0.939240	0.248671	0.486702
H96	H	1.439240	0.748671	0.986702
C97	C	1.057227	0.581235	0.328189
C98	C	1.557227	1.081235	0.828189
H99	H	0.997434	0.616921	0.316612
H100	H	1.497434	1.116921	0.816612
H101	H	1.102731	0.574857	0.279583
H102	H	1.602731	1.074857	0.779583
H103	H	1.095000	0.604659	0.371203
H104	H	1.595000	1.104659	0.871203
C105	C	1.079652	0.295801	0.267556
C106	C	1.579652	0.795801	0.767556
H107	H	1.058137	0.307576	0.212934
H108	H	1.558137	0.807576	0.712934
H109	H	1.056727	0.242780	0.284269
H110	H	1.556727	0.742780	0.784269
H111	H	1.155018	0.295921	0.268319
H112	H	1.655018	0.795921	0.768319
H113	H	1.402579	-0.068106	0.311142
H114	H	1.902579	0.431894	0.811142
C115	C	1.600774	0.335719	0.857789
C116	C	2.100774	0.835719	1.357789
H117	H	1.594408	0.340489	0.799475
H118	H	2.094408	0.840489	1.299475
H119	H	1.587708	0.280542	0.874799
H120	H	2.087708	0.780542	1.374799
H121	H	1.670597	0.348605	0.871374
H122	H	2.170597	0.848605	1.371374
C123	C	0.917861	0.456020	0.215607
C124	C	1.417861	0.956020	0.715607
H125	H	0.947139	0.414444	0.178265
H126	H	1.447139	0.914444	0.678265
H127	H	0.940863	0.508748	0.197994
H128	H	1.440863	1.008748	0.697994
H129	H	0.842366	0.456393	0.216364
H130	H	1.342366	0.956393	0.716364
C131	C	0.894682	0.546266	0.493172
C132	C	1.394682	1.046266	0.993172
H133	H	0.916739	0.599339	0.475790
H134	H	1.416739	1.099339	0.975790
H135	H	0.917240	0.535087	0.547614
H136	H	1.417240	1.035087	1.047614
H137	H	0.819297	0.545616	0.493198
H138	H	1.319297	1.045616	0.993198
C139	C	1.056226	0.385813	0.545128
C140	C	1.556226	0.885813	1.045128
H141	H	1.034366	0.332623	0.562301
H142	H	1.534366	0.832623	1.062301
H143	H	1.025914	0.426785	0.582697
H144	H	1.525914	0.926785	1.082697
H145	H	1.131644	0.386442	0.544563
H146	H	1.631644	0.886442	1.044563
H147	H	1.393652	0.490075	0.892189
H148	H	1.893652	0.990075	1.392189
