data_functionalizedCrystal
_audit_creation_method	'MofGen! by Chris Wilmer'
_symmetry_space_group_name_H-M	'P1'
_symmetry_Int_Tables_number	1
_symmetry_cell_setting	triclinic
loop_
_symmetry_equiv_pos_as_xyz
  x,y,z
_cell_length_a	12.759401
_cell_length_b	16.994729
_cell_length_c	12.759393
_cell_angle_alpha	89.964281
_cell_angle_beta	90.018496
_cell_angle_gamma	89.972197
loop_
_atom_site_label
_atom_site_type_symbol
_atom_site_fract_x
_atom_site_fract_y
_atom_site_fract_z
Zn1	Zn	1.606567	-0.313978	0.594473
Zn2	Zn	1.606592	-0.445906	0.418999
Zn3	Zn	1.430869	-0.314020	0.418812
Zn4	Zn	1.430988	-0.445845	0.594640
O5	O	1.518754	-0.379937	0.506731
O6	O	1.753591	-0.331487	0.571204
O7	O	1.583243	-0.428453	0.271953
O8	O	1.454115	-0.203633	0.441965
O9	O	1.753610	-0.428413	0.442284
O10	O	1.583200	-0.203603	0.571022
O11	O	1.454140	-0.331557	0.271816
O12	O	1.283864	-0.331499	0.442128
O13	O	1.454319	-0.428310	0.741639
O14	O	1.283952	-0.428350	0.571308
O15	O	1.583315	-0.331428	0.741516
O16	O	1.583359	-0.556279	0.442447
O17	O	1.454343	-0.556234	0.571490
C18	C	1.245787	-0.379923	0.506717
C19	C	1.129010	-0.379936	0.506736
C20	C	1.518879	-0.584877	0.507004
C21	C	1.518968	-0.674200	0.507099
Zn22	Zn	1.431658	-0.944828	0.417910
Zn23	Zn	1.430257	-0.813262	0.593859
Zn24	Zn	1.607459	-0.813136	0.419830
Zn25	Zn	1.605745	-0.945322	0.595168
O26	O	1.518780	-0.879137	0.506692
O27	O	1.284457	-0.927221	0.439899
O28	O	1.453894	-0.702864	0.571029
O29	O	1.585442	-0.830346	0.272560
O30	O	1.283428	-0.830560	0.569168
O31	O	1.456282	-0.927099	0.271150
O32	O	1.584083	-0.702772	0.443171
O33	O	1.754246	-0.830825	0.444440
O34	O	1.582521	-1.055637	0.571398
O35	O	1.752987	-0.927941	0.573260
O36	O	1.454620	-1.055274	0.441168
O37	O	1.452232	-0.831039	0.741047
O38	O	1.581162	-0.928063	0.742009
C39	C	1.074221	-0.430447	0.573889
C40	C	0.964497	-0.430457	0.573900
C41	C	0.964360	-0.329442	0.439596
C42	C	1.074082	-0.329429	0.439591
C43	C	1.129149	-0.480954	0.641034
C44	C	1.074360	-0.531470	0.708191
C45	C	0.964636	-0.531480	0.708203
C46	C	0.909701	-0.480974	0.641056
C47	C	1.792787	-0.379952	0.506746
C48	C	1.909564	-0.379959	0.506752
C49	C	1.518828	-0.379858	0.780764
C50	C	1.518859	-0.379824	0.897541
C51	C	1.518634	-0.174197	0.506451
C52	C	1.518585	-0.084875	0.506331
C53	C	1.518741	-0.379960	0.233764
C54	C	1.518913	-0.379771	0.116987
C55	C	1.586037	-0.329373	0.952341
C56	C	1.586062	-0.329344	1.062065
C57	C	1.451728	-0.430225	1.062180
C58	C	1.451699	-0.430249	0.952458
C59	C	1.653197	-0.278948	0.897424
C60	C	1.720381	-0.228493	0.952223
C61	C	1.720406	-0.228465	1.061947
C62	C	1.653247	-0.278891	1.116872
C63	C	1.791736	-0.879424	0.509201
C64	C	1.908508	-0.879565	0.510299
C65	C	1.516356	-0.879617	0.779647
C66	C	1.515289	-0.879799	0.896419
C67	C	1.244757	-0.878850	0.504173
C68	C	1.127985	-0.878727	0.503100
C69	C	1.521210	-0.878653	0.232670
C70	C	1.522245	-0.878447	0.115898
C71	C	1.962684	-0.930117	0.577983
C72	C	2.072403	-0.930258	0.578995
C73	C	2.073762	-0.829289	0.444637
C74	C	1.964044	-0.829153	0.443620
C75	C	1.907147	-0.980529	0.644661
C76	C	1.961323	-1.031084	0.712351
C77	C	2.071043	-1.031225	0.713364
C78	C	2.126587	-0.980811	0.646686
C79	C	1.447603	-0.829417	0.950742
C80	C	1.446583	-0.829608	1.060461
C81	C	1.580944	-0.930564	1.061523
C82	C	1.581958	-0.930377	0.951806
C83	C	1.380934	-0.778840	0.895354
C84	C	1.313244	-0.728453	0.949678
C85	C	1.312224	-0.728644	1.059397
C86	C	1.378894	-0.779221	1.114792
H87	H	1.218492	-0.480953	0.641030
H88	H	1.119096	-0.572585	0.762866
O89	O	1.239226	-0.674300	1.117995
H90	H	1.156963	-0.687741	1.096113
H91	H	0.820356	-0.480979	0.641080
H92	H	1.381759	-0.778677	0.806016
H93	H	2.115150	-1.072395	0.768473
H94	H	1.397050	-0.471279	1.106908
H95	H	0.920030	-0.572606	0.762893
H96	H	1.916092	-1.072133	0.766631
H97	H	1.653187	-0.278967	0.808081
H98	H	1.396980	-0.471318	0.907839
H99	H	1.378055	-0.779375	1.204133
H100	H	2.215928	-0.980935	0.647510
H101	H	1.817808	-0.980419	0.643847
H102	H	1.653261	-0.278854	1.206217
O103	O	0.905097	-0.274986	0.367171
H104	H	0.926088	-0.213087	0.385231
H105	H	1.118693	-0.288292	0.384917
O106	O	1.652860	-0.985106	1.121264
H107	H	1.640791	-0.976765	1.206684
O108	O	1.792819	-0.174109	0.892993
H109	H	1.781527	-0.182609	0.807489
H110	H	2.118994	-0.788244	0.390353
O111	O	1.905599	-0.774627	0.370627
H112	H	1.962648	-0.739585	0.324445
O113	O	1.792863	-0.174050	1.121059
H114	H	1.839561	-0.138998	1.064434
H115	H	1.258958	-0.687280	0.904568
O116	O	1.654967	-0.984708	0.893202
H117	H	1.701170	-1.019900	0.950147
