data_functionalizedCrystal
_audit_creation_method	'MofGen! by Chris Wilmer'
_symmetry_space_group_name_H-M	'P1'
_symmetry_Int_Tables_number	1
_symmetry_cell_setting	triclinic
loop_
_symmetry_equiv_pos_as_xyz
  x,y,z
_cell_length_a	18.050591
_cell_length_b	18.050590
_cell_length_c	12.827885
_cell_angle_alpha	89.965317
_cell_angle_beta	89.983112
_cell_angle_gamma	90.017393
loop_
_atom_site_label
_atom_site_type_symbol
_atom_site_fract_x
_atom_site_fract_y
_atom_site_fract_z
Zn1	Zn	1.135389	-0.295646	-0.590747
Zn2	Zn	1.135307	-0.419854	-0.415992
Zn3	Zn	1.011194	-0.295680	-0.416028
Zn4	Zn	1.011177	-0.419797	-0.590699
O5	O	1.073267	-0.357744	-0.503366
O6	O	1.239303	-0.312133	-0.567570
O7	O	1.118816	-0.403421	-0.269761
O8	O	1.027711	-0.191751	-0.439239
O9	O	1.239242	-0.403388	-0.439179
O10	O	1.118956	-0.191726	-0.567604
O11	O	1.027631	-0.312190	-0.269787
O12	O	0.907267	-0.312134	-0.439193
O13	O	1.027681	-0.403290	-0.736942
O14	O	0.907255	-0.403322	-0.567524
O15	O	1.118939	-0.312077	-0.736976
O16	O	1.118799	-0.523771	-0.439133
O17	O	1.027601	-0.523729	-0.567489
C18	C	0.880315	-0.357726	-0.503358
C19	C	0.797769	-0.357736	-0.503379
C20	C	0.548958	-0.407427	-0.573070
C21	C	0.598323	-0.425511	-0.477685
C22	C	0.500648	-0.357760	-0.503377
C23	C	0.598365	-0.339699	-0.598757
C24	C	0.646634	-0.357750	-0.503383
C25	C	0.548927	-0.375879	-0.407942
C26	C	0.548964	-0.290035	-0.529078
C27	C	0.598307	-0.308094	-0.433627
C28	C	0.416550	-0.357767	-0.503375
C29	C	0.730730	-0.357743	-0.503374
C30	C	1.073210	-0.550697	-0.503325
C31	C	1.073253	-0.633242	-0.503342
C32	C	1.122950	-0.832689	-0.433639
C33	C	1.141093	-0.882015	-0.529013
C34	C	1.073295	-0.784373	-0.503383
C35	C	1.055228	-0.882129	-0.408052
C36	C	1.073337	-0.930358	-0.503415
C37	C	1.091473	-0.832611	-0.598808
C38	C	1.005577	-0.832721	-0.477783
C39	C	1.023694	-0.882024	-0.573223
C40	C	1.073273	-0.700274	-0.503364
C41	C	1.073360	-1.014454	-0.503446
C42	C	1.266972	-0.357763	-0.503376
C43	C	1.349518	-0.357771	-0.503380
C44	C	1.073317	-0.357673	-0.775937
C45	C	1.073339	-0.357643	-0.892090
C46	C	1.073344	-0.164039	-0.503431
C47	C	1.073377	-0.081493	-0.503459
C48	C	1.118501	-0.312499	-0.943892
C49	C	1.118524	-0.312467	-1.063942
C50	C	1.073259	-0.357762	-0.231856
C51	C	1.073381	-0.357583	-0.115704
H52	H	1.164955	-0.811026	-0.374719
H53	H	0.620005	-0.482781	-0.455942
H54	H	0.948307	-0.811050	-0.456081
O55	O	1.164724	-0.266331	-1.116918
C56	C	1.206678	-0.224374	-1.045472
H57	H	1.209272	-0.254764	-0.967631
H58	H	1.265180	-0.216468	-1.077094
H59	H	1.179508	-0.167965	-1.033921
H60	H	0.527302	-0.391220	-0.327261
O61	O	0.523191	-0.457527	-0.643421
C62	C	0.549445	-0.439069	-0.743656
H63	H	0.601807	-0.404138	-0.736301
H64	H	0.562524	-0.491938	-0.788602
H65	H	0.505235	-0.406205	-0.787117
H66	H	1.198379	-0.903669	-0.550687
H67	H	0.619838	-0.266088	-0.374625
O68	O	1.027230	-0.403770	-1.062735
C69	C	0.985250	-0.445701	-1.134180
H70	H	1.015629	-0.448298	-1.212015
H71	H	0.977325	-0.504203	-1.102549
H72	H	0.928849	-0.418509	-1.145750
H73	H	0.620080	-0.324427	-0.679416
O74	O	0.523104	-0.221757	-0.555228
C75	C	0.548265	-0.202925	-0.655881
H76	H	0.562134	-0.255588	-0.700835
H77	H	0.503072	-0.171074	-0.698821
H78	H	0.599933	-0.166887	-0.649377
O79	O	1.109829	-0.806655	-0.694958
C80	C	1.109597	-0.728551	-0.693775
H81	H	1.117883	-0.708146	-0.610505
H82	H	1.156418	-0.706927	-0.745120
H83	H	1.054304	-0.707421	-0.724743
O84	O	0.973704	-0.907675	-0.643820
C85	C	0.993040	-0.882289	-0.744173
H86	H	1.054651	-0.868463	-0.746231
H87	H	0.980564	-0.927330	-0.803908
H88	H	0.959542	-0.830548	-0.763530
H89	H	1.039929	-0.903879	-0.327419
O90	O	1.027266	-0.403830	-0.945084
C91	C	1.043459	-0.477873	-0.918485
H92	H	1.071943	-0.479486	-0.839212
H93	H	0.989846	-0.511173	-0.914847
H94	H	1.081682	-0.502834	-0.979886
O95	O	1.164508	-0.266383	-0.890664
C96	C	1.122195	-0.218457	-0.827561
H97	H	1.065888	-0.244655	-0.811309
H98	H	1.152384	-0.208581	-0.750767
H99	H	1.114097	-0.163380	-0.869576
