data_functionalizedCrystal
_audit_creation_method	'MofGen! by Chris Wilmer'
_symmetry_space_group_name_H-M	'P1'
_symmetry_Int_Tables_number	1
_symmetry_cell_setting	triclinic
loop_
_symmetry_equiv_pos_as_xyz
  x,y,z
_cell_length_a	10.489741
_cell_length_b	16.974800
_cell_length_c	16.053802
_cell_angle_alpha	91.074188
_cell_angle_beta	92.592148
_cell_angle_gamma	83.963381
loop_
_atom_site_label
_atom_site_type_symbol
_atom_site_fract_x
_atom_site_fract_y
_atom_site_fract_z
O1	O	0.162593	1.050000	0.001544
O2	O	0.182119	0.820649	-0.013960
O3	O	-0.013302	0.940543	-0.005850
O4	O	0.358013	0.930106	-0.006566
O5	O	-0.002590	0.933944	0.132562
O6	O	0.192831	0.814050	0.124452
O7	O	0.173305	1.043401	0.139957
Zn8	Zn	0.184769	0.927677	0.154181
Zn9	Zn	0.170655	0.936373	-0.028184
O10	O	0.368725	0.923507	0.131847
C11	C	0.186536	0.787981	0.053261
C12	C	0.183723	0.700473	0.047345
C13	C	0.188238	0.655768	0.120017
C14	C	0.185575	0.573546	0.114461
C15	C	0.178406	0.536029	0.036233
C16	C	0.173888	0.580740	-0.036444
C17	C	0.176541	0.662961	-0.030887
C18	C	0.169835	0.290510	0.011524
C19	C	0.167185	0.208282	0.005972
C20	C	0.178870	0.201094	0.156878
C21	C	0.181531	0.283317	0.162428
C22	C	0.177006	0.328021	0.089751
N23	N	0.175688	0.451984	0.030552
N24	N	0.179714	0.412065	0.095433
C25	C	-0.055468	0.936455	0.063302
C26	C	-0.197071	0.934097	0.063141
C27	C	-0.264336	0.857812	0.057978
C28	C	-0.351590	0.890594	0.128659
C29	C	-0.362126	0.897119	-0.007804
C30	C	-0.282456	0.966908	0.133880
C31	C	-0.292987	0.973425	-0.002644
C32	C	-0.380214	1.006262	0.068057
C33	C	0.410892	0.927595	0.062692
C34	C	0.552494	0.929953	0.062848
C35	C	0.168888	1.076069	0.072734
C36	C	0.171700	1.163578	0.078644
N37	N	0.194400	0.921749	0.278640
N38	N	0.161014	0.942307	-0.152643
C39	C	0.111278	0.972783	0.325786
C40	C	0.118028	0.968643	0.412913
C41	C	0.207906	0.913473	0.452892
C42	C	0.291031	0.862433	0.405739
C43	C	0.284275	0.866570	0.318614
C44	C	0.237383	0.895404	0.713079
C45	C	0.244135	0.891273	0.800211
C46	C	0.071129	0.997482	0.807378
C47	C	0.064386	1.001617	0.720251
C48	C	0.147507	0.950575	0.673106
N49	N	0.214810	0.909242	0.541949
N50	N	0.140596	0.954803	0.584050
H51	H	-0.213959	0.795087	0.053807
H52	H	0.003455	1.039038	0.845771
N53	N	0.159434	0.167810	-0.078403
H54	H	0.237072	0.127914	-0.084476
H55	H	0.156921	0.208652	-0.123554
H56	H	0.305065	0.853845	0.674701
N57	N	-0.236190	1.005957	0.213290
H58	H	-0.311531	1.022070	0.249124
H59	H	-0.193739	1.054429	0.199154
N60	N	-0.258248	1.019791	-0.076178
H61	H	-0.302156	1.075576	-0.072956
H62	H	-0.287077	0.993322	-0.129618
N63	N	-0.386255	0.844205	0.202202
H64	H	-0.343678	0.788133	0.198365
H65	H	-0.482424	0.843450	0.201821
H66	H	-0.430355	1.069038	0.072338
H67	H	-0.397185	0.867583	-0.067687
N68	N	0.014345	1.032293	0.282668
H69	H	-0.037289	1.063993	0.325759
H70	H	-0.044979	1.003520	0.244471
H71	H	0.194086	0.686307	0.183719
H72	H	0.166145	0.326898	-0.047655
H73	H	0.187363	0.313858	0.226130
H74	H	0.351960	0.825012	0.280228
H75	H	0.050342	1.010199	0.451299
H76	H	-0.008800	1.046541	0.687702
H77	H	0.189230	0.537152	0.173638
H78	H	0.172867	0.699359	-0.090064
N79	N	0.341092	0.831773	0.843335
H80	H	0.392727	0.800066	0.800250
H81	H	0.294919	0.794942	0.877132
H82	H	0.364208	0.817508	0.438295
N83	N	0.166163	0.540283	-0.120823
H84	H	0.085073	0.562108	-0.152437
H85	H	0.165226	0.481419	-0.113252
H86	H	0.182553	0.164688	0.216047
