data_functionalizedCrystal
_audit_creation_method	'MofGen! by Chris Wilmer'
_symmetry_space_group_name_H-M	'P1'
_symmetry_Int_Tables_number	1
_symmetry_cell_setting	triclinic
loop_
_symmetry_equiv_pos_as_xyz
  x,y,z
_cell_length_a	12.759401
_cell_length_b	16.120484
_cell_length_c	12.759393
_cell_angle_alpha	92.863871
_cell_angle_beta	89.981287
_cell_angle_gamma	92.926992
loop_
_atom_site_label
_atom_site_type_symbol
_atom_site_fract_x
_atom_site_fract_y
_atom_site_fract_z
Zn1	Zn	1.584961	-0.331832	-0.615183
Zn2	Zn	1.575916	-0.471267	-0.448395
Zn3	Zn	1.409263	-0.331876	-0.439521
Zn4	Zn	1.400312	-0.471209	-0.624029
O5	O	1.492613	-0.401546	-0.531782
O6	O	1.730781	-0.350334	-0.593070
O7	O	1.553770	-0.452820	-0.300200
O8	O	1.440101	-0.215205	-0.455406
O9	O	1.724136	-0.452777	-0.470532
O10	O	1.569186	-0.215172	-0.584465
O11	O	1.431331	-0.350410	-0.293680
O12	O	1.261055	-0.350353	-0.463984
O13	O	1.424845	-0.452677	-0.769874
O14	O	1.254479	-0.452721	-0.599541
O15	O	1.560506	-0.350278	-0.763374
O16	O	1.545090	-0.587925	-0.479110
O17	O	1.416075	-0.587882	-0.608147
C18	C	1.219646	-0.401536	-0.531760
C19	C	1.102869	-0.401552	-0.531777
C20	C	1.478658	-0.618154	-0.545574
C21	C	1.472784	-0.710819	-0.551509
C22	C	1.044605	-0.454935	-0.602261
C23	C	0.934880	-0.454939	-0.602282
C24	C	0.941694	-0.348172	-0.461326
C25	C	1.051416	-0.348165	-0.461311
C26	C	0.783061	-0.484853	-0.728051
C27	C	0.724792	-0.538250	-0.798526
C28	C	0.755171	-0.619611	-0.819663
C29	C	0.843816	-0.647592	-0.770310
C30	C	0.902078	-0.594200	-0.699827
C31	C	0.871702	-0.512827	-0.678709
C32	C	1.203237	-0.318259	-0.335542
C33	C	1.261502	-0.264870	-0.265053
C34	C	1.231125	-0.183508	-0.243905
C35	C	1.142477	-0.155530	-0.293240
C36	C	1.084212	-0.208918	-0.363729
C37	C	1.114597	-0.290280	-0.384878
C38	C	1.462066	-0.880481	-0.562368
C39	C	1.523348	-0.921771	-0.501213
C40	C	1.517384	-1.016177	-0.507255
C41	C	1.468028	-0.786067	-0.556327
C42	C	1.766645	-0.401557	-0.531804
C43	C	1.883422	-0.401562	-0.531814
C44	C	1.492686	-0.401466	-0.805810
C45	C	1.492717	-0.401432	-0.922585
C46	C	1.506651	-0.184093	-0.517959
C47	C	1.512633	-0.091427	-0.512068
C48	C	1.422103	-0.454727	-0.980831
C49	C	1.422142	-0.454696	-1.090553
C50	C	1.563414	-0.348068	-1.083773
C51	C	1.563378	-0.348104	-0.974053
C52	C	1.378303	-0.552967	-1.246755
C53	C	1.307673	-0.606255	-1.305004
C54	C	1.204321	-0.619061	-1.270205
C55	C	1.171579	-0.578567	-1.177158
C56	C	1.242204	-0.525273	-1.118914
C57	C	1.345569	-0.512483	-1.153712
C58	C	1.607207	-0.249831	-0.817849
C59	C	1.677828	-0.196533	-0.759603
C60	C	1.781182	-0.183718	-0.794399
C61	C	1.813921	-0.224197	-0.887449
C62	C	1.743301	-0.277496	-0.945695
C63	C	1.639947	-0.290311	-0.910892
C64	C	1.492604	-0.401566	-0.258816
C65	C	1.492792	-0.401365	-0.142027
H66	H	0.974250	-0.616982	-0.659644
H67	H	1.580291	-0.886221	-0.444319
O68	O	1.386633	-0.927560	-0.637723
H69	H	1.305217	-0.910970	-0.618585
H70	H	1.364560	-0.498145	-0.938929
H71	H	1.215545	-0.492302	-1.043159
O72	O	1.342989	-0.649929	-1.405357
H73	H	1.276508	-0.689125	-1.440020
O74	O	1.109709	-0.067775	-0.270406
H75	H	1.029284	-0.069497	-0.237138
H76	H	0.899788	-0.304708	-0.403953
O77	O	0.988603	-0.178745	-0.416956
H78	H	0.977269	-0.113196	-0.390418
O79	O	1.293965	-0.125919	-0.167877
H80	H	1.360712	-0.159039	-0.137120
O81	O	1.060118	-0.592413	-1.139591
H82	H	1.016518	-0.636294	-1.195706
O83	O	1.489768	-0.539126	-1.284310
H84	H	1.500653	-0.576213	-1.358812
H85	H	1.651160	-0.163567	-0.683842
O86	O	1.778616	-0.321159	-1.046055
H87	H	1.730174	-0.302731	-1.112440
H88	H	1.333683	-0.287658	-0.224881
O89	O	1.235996	-0.406021	-0.358352
H90	H	1.307415	-0.416511	-0.312189
O91	O	1.925399	-0.210386	-0.924988
H92	H	1.969009	-0.166533	-0.868849
O93	O	1.128123	-0.676504	-1.333051
H94	H	1.168248	-0.702499	-1.403602
H95	H	1.523048	-0.260264	-0.789506
O96	O	1.639592	-0.290524	-1.139281
H97	H	1.627738	-0.299437	-1.225362
H98	H	0.868536	-0.713849	-0.787517
O99	O	1.100106	-0.512503	-0.678272
H100	H	1.041153	-0.549617	-0.727295
O101	O	0.692334	-0.677206	-0.895681
H102	H	0.625597	-0.644080	-0.926450
O103	O	1.857359	-0.126234	-0.731577
H104	H	1.817236	-0.100237	-0.661026
H105	H	0.652619	-0.515460	-0.838710
H106	H	0.758325	-0.418600	-0.710858
