data_functionalizedCrystal
_audit_creation_method	'MofGen! by Chris Wilmer'
_symmetry_space_group_name_H-M	'P1'
_symmetry_Int_Tables_number	1
_symmetry_cell_setting	triclinic
loop_
_symmetry_equiv_pos_as_xyz
  x,y,z
_cell_length_a	17.019372
_cell_length_b	17.038272
_cell_length_c	7.681481
_cell_angle_alpha	96.157826
_cell_angle_beta	80.432306
_cell_angle_gamma	87.242864
loop_
_atom_site_label
_atom_site_type_symbol
_atom_site_fract_x
_atom_site_fract_y
_atom_site_fract_z
O1	O	1.053978	0.098903	-0.013249
O2	O	0.823509	0.113377	0.021672
O3	O	0.937374	-0.007665	0.004405
O4	O	0.940113	0.219944	0.004018
O5	O	0.951387	-0.022596	-0.290578
O6	O	0.837521	0.098445	-0.273311
O7	O	1.067991	0.083971	-0.308231
Zn8	Zn	0.954981	0.088837	-0.337606
Zn9	Zn	0.936519	0.108510	0.051046
O10	O	0.954125	0.205013	-0.290965
C11	C	0.800881	0.105657	-0.121330
C12	C	0.712579	0.104892	-0.107950
C13	C	0.212773	0.100954	-0.024096
C14	C	0.295744	0.101672	-0.036691
C15	C	0.344859	0.093897	-0.203785
C16	C	0.311001	0.085396	-0.358294
C17	C	0.228032	0.084673	-0.345698
C18	C	0.595752	0.095668	-0.249863
C19	C	0.678725	0.096395	-0.262448
C20	C	0.663463	0.112669	0.059157
C21	C	0.580493	0.111949	0.071739
C22	C	0.546642	0.103445	-0.082770
C23	C	0.429668	0.094633	-0.216663
C24	C	0.461835	0.102703	-0.069891
C25	C	0.941889	-0.044237	-0.142709
C26	C	0.934455	-0.130967	-0.141582
C27	C	1.002706	-0.181664	-0.151925
C28	C	0.995716	-0.263154	-0.150849
C29	C	0.920474	-0.293946	-0.139443
C30	C	0.852218	-0.243241	-0.129093
C31	C	0.859209	-0.161752	-0.130157
C32	C	0.895778	-0.539491	-0.135676
C33	C	0.888793	-0.620987	-0.134619
C34	C	1.032291	-0.640894	-0.156372
C35	C	1.039275	-0.559403	-0.157445
C36	C	0.971019	-0.508706	-0.147086
C37	C	0.913328	-0.377242	-0.138348
C38	C	0.978165	-0.425411	-0.148168
C39	C	1.090619	0.091691	-0.165226
C40	C	1.178920	0.092456	-0.178594
C41	C	0.949610	0.241585	-0.143847
C42	C	0.957044	0.328315	-0.144962
N43	N	0.967587	0.075411	-0.602852
N44	N	0.923919	0.121931	0.316291
H45	H	0.200470	0.077761	-0.471506
C46	C	1.107369	-0.696660	-0.167747
C47	C	1.160244	-0.685906	-0.023684
C48	C	1.235326	-0.741671	-0.035052
C49	C	1.257533	-0.808191	-0.190483
C50	C	1.204658	-0.818949	-0.334558
C51	C	1.129576	-0.763183	-0.323190
H52	H	1.143805	-0.636661	0.091386
H53	H	1.274468	-0.733707	0.071602
H54	H	1.313114	-0.849472	-0.198899
H55	H	1.221096	-0.868193	-0.449628
H56	H	1.090434	-0.771147	-0.429844
H57	H	0.421842	0.109030	0.066156
H58	H	0.469666	0.088304	-0.352712
H59	H	1.012173	0.027930	-0.684819
H60	H	1.063976	-0.156601	-0.161224
C61	C	1.070796	-0.318919	-0.162233
C62	C	1.138219	-0.323686	-0.324534
C63	C	1.213303	-0.379449	-0.335915
C64	C	1.220965	-0.430445	-0.184993
C65	C	1.153540	-0.425680	-0.022680
C66	C	1.078455	-0.369916	-0.011299
H67	H	1.132549	-0.285934	-0.436266
H68	H	1.263216	-0.382977	-0.456071
H69	H	1.276547	-0.471724	-0.193418
H70	H	1.159210	-0.463431	0.089052
H71	H	1.028543	-0.366389	0.108857
C72	C	0.806024	-0.654865	-0.122056
C73	C	0.755057	-0.643213	-0.266388
C74	C	0.672296	-0.677095	-0.253827
C75	C	0.640501	-0.722631	-0.096933
C76	C	0.691469	-0.734285	0.047410
C77	C	0.774231	-0.700403	0.034849
H78	H	0.778593	-0.609503	-0.382540
H79	H	0.634566	-0.668467	-0.360681
H80	H	0.579236	-0.747713	-0.087635
H81	H	0.667934	-0.767995	0.163562
H82	H	0.811960	-0.709031	0.141703
C83	C	0.820696	-0.483736	-0.124314
C84	C	0.753261	-0.478977	0.037963
C85	C	0.678174	-0.423220	0.049316
C86	C	0.670522	-0.372222	-0.101607
C87	C	0.737959	-0.376980	-0.263895
C88	C	0.813046	-0.432737	-0.275249
H89	H	0.758924	-0.516730	0.149695
H90	H	0.628253	-0.419699	0.169454
H91	H	0.614938	-0.330948	-0.093202
H92	H	0.732296	-0.339227	-0.375628
H93	H	0.862967	-0.436258	-0.395386
H94	H	0.879342	0.169414	-0.601752
C95	C	0.784132	-0.105981	-0.118782
C96	C	0.716706	-0.101215	0.043512
C97	C	0.641627	-0.045444	0.054898
C98	C	0.633974	0.005562	-0.096010
C99	C	0.701403	0.000798	-0.258317
C100	C	0.776482	-0.054973	-0.269702
H101	H	0.722369	-0.138975	0.155234
H102	H	0.591712	-0.041918	0.175049
H103	H	0.578396	0.046848	-0.087582
H104	H	0.695740	0.038558	-0.370039
H105	H	0.826397	-0.058499	-0.389853
H106	H	1.039425	-0.400335	-0.157416
H107	H	0.790954	-0.268317	-0.119795
H108	H	0.852066	-0.402321	-0.129065
H109	H	0.718714	0.090068	-0.398523
H110	H	0.540508	0.118279	0.207804
C111	C	0.365017	0.076858	-0.542110
C112	C	0.364347	0.002166	-0.673753
C113	C	0.418358	-0.006363	-0.857578
C114	C	0.473038	0.059800	-0.909759
C115	C	0.473710	0.134497	-0.778113
C116	C	0.419699	0.143026	-0.594288
H117	H	0.323868	-0.046817	-0.635128
H118	H	0.417861	-0.061659	-0.955030
H119	H	0.513020	0.053486	-1.045836
H120	H	0.514189	0.183479	-0.816738
H121	H	0.420196	0.198322	-0.496836
C122	C	0.158751	0.109507	0.159713
C123	C	0.095175	0.179137	0.213299
C124	C	0.041155	0.187687	0.397114
C125	C	0.050711	0.126606	0.527343
C126	C	0.114290	0.056970	0.473760
C127	C	0.168310	0.048421	0.289946
H128	H	0.088099	0.224357	0.116893
H129	H	-0.005910	0.239236	0.436778
H130	H	0.010722	0.132935	0.663414
H131	H	0.121366	0.011750	0.570167
H132	H	0.215375	-0.003128	0.250281
C133	C	0.700702	0.122017	0.229107
C134	C	0.760082	0.056861	0.263984
C135	C	0.797320	0.066207	0.433942
C136	C	0.775179	0.140709	0.569022
C137	C	0.715796	0.205869	0.534148
C138	C	0.678558	0.196523	0.364190
H139	H	0.776475	0.001706	0.163987
H140	H	0.841280	0.017971	0.459757
H141	H	0.802746	0.147627	0.694835
H142	H	0.699403	0.261024	0.634146
H143	H	0.634598	0.244760	0.338375
H144	H	0.323303	0.108587	0.089117
H145	H	0.568202	0.088732	-0.375676
H146	H	1.100545	-0.534339	-0.166733
