data_functionalizedCrystal
_audit_creation_method	'MofGen! by Chris Wilmer'
_symmetry_space_group_name_H-M	'P1'
_symmetry_Int_Tables_number	1
_symmetry_cell_setting	triclinic
loop_
_symmetry_equiv_pos_as_xyz
  x,y,z
_cell_length_a	14.971506
_cell_length_b	14.586319
_cell_length_c	14.971486
_cell_angle_alpha	89.995999
_cell_angle_beta	96.381742
_cell_angle_gamma	90.003812
loop_
_atom_site_label
_atom_site_type_symbol
_atom_site_fract_x
_atom_site_fract_y
_atom_site_fract_z
O1	O	1.186932	0.076247	-0.116648
O2	O	1.520266	0.409581	0.216686
O3	O	1.853599	0.742914	0.550019
O4	O	0.926535	0.076248	-0.130588
O5	O	1.259868	0.409581	0.202746
O6	O	1.593201	0.742914	0.536079
O7	O	1.063713	0.076241	0.006582
O8	O	1.397046	0.409574	0.339915
O9	O	1.730379	0.742908	0.673249
O10	O	1.049754	0.076254	-0.253817
O11	O	1.383088	0.409587	0.079516
O12	O	1.716421	0.742921	0.412849
O13	O	1.063703	-0.076240	0.006584
O14	O	1.397037	0.257093	0.339917
O15	O	1.730370	0.590427	0.673251
O16	O	0.926525	-0.076233	-0.130586
O17	O	1.259858	0.257100	0.202748
O18	O	1.593192	0.590434	0.536081
O19	O	1.186923	-0.076234	-0.116646
O20	O	1.520256	0.257100	0.216688
O21	O	1.853589	0.590433	0.550021
Cu22	Cu	1.056723	-0.090156	-0.123615
Cu23	Cu	1.390056	0.243177	0.209718
Cu24	Cu	1.723390	0.576511	0.543051
Cu25	Cu	1.056734	0.090170	-0.123618
Cu26	Cu	1.390068	0.423504	0.209716
Cu27	Cu	1.723401	0.756837	0.543049
O28	O	1.049745	-0.076227	-0.253815
O29	O	1.383078	0.257107	0.079518
O30	O	1.716411	0.590440	0.412852
C31	C	0.893205	0.000007	-0.129960
C32	C	1.226539	0.333341	0.203373
C33	C	1.559872	0.666674	0.536707
C34	C	0.793909	0.000007	-0.128082
C35	C	1.127243	0.333341	0.205251
C36	C	1.460576	0.666674	0.538585
C37	C	0.355627	0.000020	-0.201500
C38	C	0.688960	0.333354	0.131833
C39	C	1.022294	0.666687	0.465167
C40	C	0.448927	0.000024	-0.203258
C41	C	0.782260	0.333358	0.130076
C42	C	1.115594	0.666691	0.463409
C43	C	0.506147	0.000016	-0.122665
C44	C	0.839480	0.333350	0.210668
C45	C	1.172814	0.666683	0.544001
C46	C	0.470062	0.000013	-0.040310
C47	C	0.803396	0.333347	0.293023
C48	C	1.136729	0.666680	0.626357
C49	C	0.376764	0.000016	-0.038553
C50	C	0.710097	0.333349	0.294780
C51	C	1.043431	0.666683	0.628113
C52	C	0.664525	0.000006	-0.043977
C53	C	0.997859	0.333339	0.289356
C54	C	1.331192	0.666673	0.622690
C55	C	0.757831	0.000002	-0.045733
C56	C	1.091164	0.333335	0.287600
C57	C	1.424497	0.666668	0.620934
C58	C	0.736689	0.000014	-0.208681
C59	C	1.070022	0.333348	0.124652
C60	C	1.403355	0.666681	0.457986
C61	C	0.643390	0.000017	-0.206924
C62	C	0.976723	0.333350	0.126409
C63	C	1.310057	0.666684	0.459742
C64	C	0.607312	0.000012	-0.124569
C65	C	0.940645	0.333346	0.208764
C66	C	1.273979	0.666679	0.542098
N67	N	1.056722	-0.216988	-0.123613
N68	N	1.390055	0.116346	0.209720
N69	N	1.723388	0.449679	0.543054
C70	C	1.117484	-0.451997	-0.062895
C71	C	1.450818	-0.118664	0.270438
C72	C	1.784151	0.214669	0.603772
C73	C	1.117487	-0.547978	-0.062893
C74	C	1.450820	-0.214645	0.270441
C75	C	1.784154	0.118688	0.603774
C76	C	0.995974	-0.547982	-0.184334
C77	C	1.329307	-0.214649	0.148999
C78	C	1.662640	0.118685	0.482333
C79	C	0.995968	-0.452002	-0.184331
C80	C	1.329301	-0.118669	0.149002
C81	C	1.662634	0.214664	0.482335
C82	C	1.056728	-0.404013	-0.123613
C83	C	1.390061	-0.070679	0.209721
C84	C	1.723395	0.262654	0.543054
C85	C	1.056737	-0.595973	-0.123613
C86	C	1.390070	-0.262640	0.209720
C87	C	1.723403	0.070693	0.543053
C88	C	1.056739	-0.700040	-0.123612
C89	C	1.390072	-0.366707	0.209722
C90	C	1.723406	-0.033374	0.543055
C91	C	1.056725	-0.299939	-0.123613
C92	C	1.390058	0.033395	0.209720
C93	C	1.723391	0.366728	0.543053
C94	C	1.220252	0.000009	-0.117273
C95	C	1.553585	0.333342	0.216060
C96	C	1.886919	0.666676	0.549393
C97	C	1.319548	0.000015	-0.119151
C98	C	1.652881	0.333348	0.214182
C99	C	1.986215	0.666682	0.547515
C100	C	1.063084	0.000001	0.039908
C101	C	1.396417	0.333334	0.373241
C102	C	1.729751	0.666667	0.706574
C103	C	1.061213	0.000002	0.139205
C104	C	1.394546	0.333335	0.472538
C105	C	1.727880	0.666668	0.805872
N106	N	1.056743	0.217002	-0.123613
N107	N	1.390076	0.550335	0.209720
N108	N	1.723410	0.883669	0.543054
C109	C	1.050374	0.000015	-0.287141
C110	C	1.383707	0.333349	0.046192
C111	C	1.717040	0.666682	0.379526
C112	C	1.052244	0.000021	-0.386438
C113	C	1.385578	0.333354	-0.053105
C114	C	1.718911	0.666687	0.280229
C115	C	1.141802	0.000001	0.196424
C116	C	1.475135	0.333334	0.529758
C117	C	1.808468	0.666668	0.863091
C118	C	1.140038	0.000010	0.289724
C119	C	1.473372	0.333343	0.623057
C120	C	1.806705	0.666677	0.956391
C121	C	1.057686	0.000014	0.325802
C122	C	1.391019	0.333347	0.659136
C123	C	1.724353	0.666680	0.992469
C124	C	0.977091	0.000017	0.268575
C125	C	1.310425	0.333350	0.601909
C126	C	1.643758	0.666684	0.935242
C127	C	0.978855	0.000014	0.175278
C128	C	1.312189	0.333348	0.508611
C129	C	1.645522	0.666681	0.841944
C130	C	0.973420	0.000020	0.463038
C131	C	1.306754	0.333354	0.796372
C132	C	1.640087	0.666687	1.129705
C133	C	0.971656	0.000021	0.556342
C134	C	1.304989	0.333355	0.889676
C135	C	1.638323	0.666688	1.223009
C136	C	1.134603	0.000016	0.577485
C137	C	1.467937	0.333349	0.910818
C138	C	1.801270	0.666683	1.244151
C139	C	1.136367	0.000013	0.484187
C140	C	1.469701	0.333347	0.817520
C141	C	1.803034	0.666680	1.150853
C142	C	1.055772	0.000015	0.426966
C143	C	1.389106	0.333349	0.760300
C144	C	1.722439	0.666682	1.093633
H145	H	0.766067	0.000018	-0.275738
H146	H	1.099401	0.333351	0.057596
H147	H	1.432734	0.666684	0.390929
Br148	Br	1.199943	-0.386871	0.019510
Br149	Br	1.533276	-0.053538	0.352844
Br150	Br	1.866609	0.279795	0.686177
H151	H	0.946488	-0.412931	-0.233775
H152	H	1.279821	-0.079597	0.099558
H153	H	1.613155	0.253736	0.432891
Br154	Br	1.253572	-0.000017	0.147471
Br155	Br	1.586905	0.333316	0.480804
Br156	Br	1.920239	0.666650	0.814138
Br157	Br	0.547717	0.000008	0.069067
Br158	Br	0.881050	0.333341	0.402400
Br159	Br	1.214384	0.666674	0.735734
Br160	Br	0.497887	0.000041	-0.315022
Br161	Br	0.831221	0.333374	0.018312
Br162	Br	1.164554	0.666708	0.351645
Br163	Br	1.248133	0.000011	0.435223
Br164	Br	1.581466	0.333344	0.768557
Br165	Br	1.914799	0.666678	1.101890
Br166	Br	0.835486	-0.000004	0.063643
Br167	Br	1.168820	0.333329	0.396977
Br168	Br	1.502153	0.666663	0.730310
H169	H	1.205662	0.000007	0.336309
H170	H	1.538995	0.333341	0.669642
H171	H	1.872329	0.666674	1.002976
Br172	Br	0.913518	-0.613114	-0.266737
Br173	Br	1.246851	-0.279781	0.066597
Br174	Br	1.580185	0.053553	0.399930
Br175	Br	1.243983	0.000015	0.655139
Br176	Br	1.577316	0.333349	0.988473
Br177	Br	1.910650	0.666682	1.321806
Br178	Br	0.615563	-0.000005	0.067792
Br179	Br	0.948896	0.333329	0.401126
Br180	Br	1.282230	0.666662	0.734459
H181	H	0.596803	0.000018	-0.272550
H182	H	0.930137	0.333351	0.060783
H183	H	1.263470	0.666684	0.394117
Br184	Br	0.327799	0.000012	0.073210
Br185	Br	0.661132	0.333345	0.406543
Br186	Br	0.994466	0.666679	0.739877
H187	H	0.309044	0.000020	-0.267128
H188	H	0.642377	0.333353	0.066205
H189	H	0.975711	0.666687	0.399539
Br190	Br	1.199941	-0.613099	0.019517
Br191	Br	1.533274	-0.279766	0.352851
Br192	Br	1.866608	0.053568	0.686184
H193	H	0.904597	0.000009	0.585714
H194	H	1.237931	0.333343	0.919047
H195	H	1.571264	0.666676	1.252381
Br196	Br	0.864040	0.000026	0.385382
Br197	Br	1.197374	0.333360	0.718715
Br198	Br	1.530707	0.666693	1.052049
Br199	Br	0.865326	0.000037	0.317538
Br200	Br	1.198659	0.333371	0.650871
Br201	Br	1.531992	0.666704	0.984204
H202	H	0.913232	0.000015	0.128690
H203	H	1.246565	0.333349	0.462023
H204	H	1.579898	0.666682	0.795356
