data_functionalizedCrystal
_audit_creation_method	'MofGen! by Chris Wilmer'
_symmetry_space_group_name_H-M	'P1'
_symmetry_Int_Tables_number	1
_symmetry_cell_setting	triclinic
loop_
_symmetry_equiv_pos_as_xyz
  x,y,z
_cell_length_a	29.839134
_cell_length_b	29.839131
_cell_length_c	29.839125
_cell_angle_alpha	90.025363
_cell_angle_beta	90.024313
_cell_angle_gamma	90.027971
loop_
_atom_site_label
_atom_site_type_symbol
_atom_site_fract_x
_atom_site_fract_y
_atom_site_fract_z
Zn1	Zn	0.686739	-0.179003	0.254129
Zn2	Zn	0.686679	-0.254115	0.178989
Zn3	Zn	0.611622	-0.178991	0.178996
Zn4	Zn	0.611578	-0.254097	0.254074
O5	O	0.649154	-0.216552	0.216547
O6	O	0.749598	-0.188980	0.244182
O7	O	0.676716	-0.244152	0.116123
O8	O	0.621630	-0.116125	0.188988
O9	O	0.749554	-0.244164	0.188977
O10	O	0.676818	-0.116134	0.244188
O11	O	0.621572	-0.188958	0.116128
O12	O	0.548749	-0.188941	0.188935
O13	O	0.621554	-0.244134	0.316949
O14	O	0.548716	-0.244122	0.244095
O15	O	0.676775	-0.188962	0.316989
O16	O	0.676673	-0.316980	0.188924
O17	O	0.621497	-0.316967	0.244088
C18	C	0.532432	-0.216528	0.216510
C19	C	0.482497	-0.216529	0.216505
C20	C	0.125915	-0.187777	0.187884
C21	C	0.313588	-0.187764	0.187857
O22	O	0.337856	-0.163279	0.163480
N23	N	0.337052	-0.216536	0.216527
C24	C	0.313596	-0.245312	0.245209
O25	O	0.337860	-0.269781	0.269598
C26	C	0.125923	-0.245322	0.245238
C27	C	0.102461	-0.216551	0.216562
C28	C	0.102452	-0.159007	0.159211
C29	C	0.055537	-0.159013	0.159216
C30	C	0.032084	-0.187787	0.187895
C31	C	0.055546	-0.216556	0.216568
C32	C	0.102468	-0.274095	0.273922
C33	C	0.055547	-0.274094	0.273927
C34	C	0.032085	-0.245323	0.245251
C35	C	-0.014823	-0.245336	0.245251
N36	N	-0.038287	-0.216563	0.216581
C37	C	-0.014834	-0.187789	0.187902
C38	C	0.412126	-0.245305	0.245191
C39	C	0.459044	-0.245303	0.245183
C40	C	0.459033	-0.187755	0.187831
C41	C	0.412114	-0.187759	0.187837
C42	C	0.388662	-0.216533	0.216520
C43	C	-0.113360	-0.187802	0.187916
C44	C	-0.160280	-0.187811	0.187922
C45	C	-0.160264	-0.245358	0.245275
C46	C	-0.113349	-0.245351	0.245267
C47	C	-0.089898	-0.216569	0.216586
O48	O	-0.039120	-0.269804	0.269618
O49	O	-0.039107	-0.163316	0.163524
C50	C	0.172830	-0.187771	0.187878
C51	C	0.196292	-0.216541	0.216552
C52	C	0.172839	-0.245315	0.245230
C53	C	0.243210	-0.216539	0.216544
C54	C	0.266663	-0.187764	0.187865
C55	C	0.243199	-0.158992	0.159195
C56	C	0.196283	-0.158997	0.159200
C57	C	0.196304	-0.274087	0.273901
C58	C	0.243219	-0.274080	0.273892
C59	C	0.266672	-0.245306	0.245214
C60	C	0.649086	-0.333274	0.216509
C61	C	0.649098	-0.383209	0.216508
C62	C	0.677885	-0.692822	0.245331
C63	C	0.677933	-0.880495	0.245358
O64	O	0.702342	-0.904734	0.269836
N65	N	0.649231	-0.903994	0.216597
C66	C	0.620512	-0.880571	0.187829
O67	O	0.596096	-0.904865	0.163370
C68	C	0.620461	-0.692899	0.187805
C69	C	0.649169	-0.669403	0.216564
C70	C	0.706590	-0.669326	0.274088
C71	C	0.706579	-0.622410	0.274079
C72	C	0.677863	-0.598991	0.245313
C73	C	0.649158	-0.622487	0.216556
C74	C	0.591740	-0.669477	0.159040
C75	C	0.591729	-0.622556	0.159037
C76	C	0.620437	-0.599060	0.187797
C77	C	0.620431	-0.552153	0.187781
N78	N	0.649134	-0.528654	0.216541
C79	C	0.677850	-0.552073	0.245308
C80	C	0.620541	-0.979102	0.187844
C81	C	0.620554	-1.026020	0.187849
C82	C	0.677975	-1.025940	0.245378
C83	C	0.677964	-0.979022	0.245370
C84	C	0.649244	-0.955603	0.216604
C85	C	0.677826	-0.453547	0.245287
C86	C	0.677814	-0.406628	0.245274
C87	C	0.620391	-0.406711	0.187747
C88	C	0.620404	-0.453627	0.187758
C89	C	0.649123	-0.477044	0.216531
O90	O	0.596032	-0.527885	0.163319
O91	O	0.702255	-0.527772	0.269770
C92	C	0.677895	-0.739737	0.245339
C93	C	0.649190	-0.763234	0.216582
C94	C	0.620474	-0.739815	0.187816
C95	C	0.649203	-0.810152	0.216587
C96	C	0.677919	-0.833571	0.245354
C97	C	0.706622	-0.810072	0.274115
C98	C	0.706611	-0.763157	0.274106
C99	C	0.591772	-0.763313	0.159055
C100	C	0.591785	-0.810229	0.159066
C101	C	0.620501	-0.833648	0.187832
C102	C	0.766333	-0.216575	0.216585
C103	C	0.816267	-0.216586	0.216601
C104	C	0.649167	-0.216548	0.333725
C105	C	0.649172	-0.216546	0.383660
C106	C	0.649235	-0.099373	0.216595
C107	C	0.649270	-0.049439	0.216615
C108	C	0.649168	-0.216523	0.099825
C109	C	0.649250	-0.216398	0.049890
C110	C	0.677955	-0.187743	0.693327
C111	C	0.677978	-0.187705	0.881000
O112	O	0.702417	-0.163258	0.905286
N113	N	0.649231	-0.216426	0.904445
C114	C	0.620475	-0.245156	0.880969
O115	O	0.596022	-0.269581	0.905216
C116	C	0.620451	-0.245192	0.693296
C117	C	0.649202	-0.216472	0.669854
C118	C	0.706704	-0.159025	0.669885
C119	C	0.706700	-0.159037	0.622970
C120	C	0.677947	-0.187766	0.599496
C121	C	0.649198	-0.216484	0.622939
C122	C	0.591693	-0.273920	0.669821
C123	C	0.591689	-0.273925	0.622900
C124	C	0.620440	-0.245206	0.599458
C125	C	0.620441	-0.245225	0.552550
N126	N	0.649188	-0.216504	0.529105
C127	C	0.677941	-0.187774	0.552578
C128	C	0.620491	-0.245136	0.979499
C129	C	0.620497	-0.245128	1.026417
C130	C	0.677999	-0.187675	1.026446
C131	C	0.677994	-0.187686	0.979527
C132	C	0.649237	-0.216415	0.956055
C133	C	0.677930	-0.187801	0.454053
C134	C	0.677925	-0.187817	0.407133
C135	C	0.620421	-0.245267	0.407109
C136	C	0.620428	-0.245253	0.454024
C137	C	0.649184	-0.216517	0.477495
O138	O	0.596011	-0.269655	0.528236
O139	O	0.702383	-0.163346	0.528323
C140	C	0.677959	-0.187731	0.740243
C141	C	0.649211	-0.216449	0.763685
C142	C	0.620458	-0.245178	0.740212
C143	C	0.649217	-0.216441	0.810603
C144	C	0.677970	-0.187711	0.834076
C145	C	0.706717	-0.158990	0.810631
C146	C	0.706712	-0.159002	0.763716
C147	C	0.591711	-0.273899	0.763657
C148	C	0.591718	-0.273886	0.810572
C149	C	0.620471	-0.245156	0.834045
H150	H	-0.179368	-0.268787	0.268623
H151	H	0.568297	-0.297295	0.744550
H152	H	0.262303	-0.135564	0.135842
H153	H	0.729974	-0.688389	0.297516
H154	H	0.262318	-0.297513	0.297243
O155	O	0.708928	-0.953679	0.276387
H156	H	0.728897	-0.977851	0.296389
H157	H	0.568306	-0.297277	0.829655
H158	H	0.729988	-0.744029	0.297525
O159	O	0.589564	-0.953845	0.156814
H160	H	0.609682	-0.932465	0.133980
O161	O	0.171010	-0.305185	0.304772
H162	H	0.195213	-0.325213	0.324681
O163	O	0.386833	-0.276405	0.276065
H164	H	0.411036	-0.296435	0.295972
O165	O	-0.185588	-0.156784	0.156988
H166	H	-0.206950	-0.133961	0.177138
H167	H	0.478143	-0.268737	0.268529
O168	O	-0.088069	-0.156767	0.156975
H169	H	-0.112272	-0.136770	0.137035
O170	O	0.709002	-0.156708	0.954243
H171	H	0.728993	-0.136730	0.978453
H172	H	0.730005	-0.829148	0.297536
O173	O	0.708783	-0.381284	0.276289
H174	H	0.728751	-0.405454	0.296294
H175	H	0.121563	-0.297524	0.297272
O176	O	0.560755	-0.597297	0.128007
H177	H	0.540801	-0.621521	0.108009
O178	O	0.589443	-0.478974	0.156739
H179	H	0.569472	-0.454805	0.136736
O180	O	0.589418	-0.381448	0.156722
H181	H	0.594232	-0.344877	0.161554
H182	H	0.730125	-0.135615	0.744633
O183	O	0.708803	-0.478801	0.276317
H184	H	0.728762	-0.454575	0.296307
O185	O	0.560819	-0.835570	0.128045
H186	H	0.540848	-0.811398	0.108046
H187	H	0.036454	-0.297524	0.297286
O188	O	-0.088038	-0.276382	0.276194
H189	H	-0.112231	-0.296390	0.296138
H190	H	0.729954	-0.603282	0.297499
O191	O	0.708944	-1.051203	0.276411
H192	H	0.704124	-1.087774	0.271584
O193	O	0.589594	-1.051361	0.156827
H194	H	0.569622	-1.027189	0.136829
O195	O	0.737715	-0.128033	0.695200
H196	H	0.760560	-0.148138	0.716580
H197	H	0.701339	-0.164429	0.388048
H198	H	0.177185	-0.135568	0.135850
O199	O	0.560773	-0.694814	0.128024
H200	H	0.540801	-0.670639	0.108028
O201	O	0.560805	-0.738056	0.128020
H202	H	0.540854	-0.762283	0.108021
O203	O	0.708948	-0.156812	0.479365
H204	H	0.728939	-0.136850	0.455175
O205	O	0.737708	-0.128058	0.597687
H206	H	0.757697	-0.108079	0.621898
H207	H	0.701411	-0.164283	1.045566
O208	O	0.589488	-0.276105	1.051700
H209	H	0.569491	-0.296077	1.027491
H210	H	0.597073	-0.268533	0.960392
H211	H	0.568280	-0.297306	0.688899
H212	H	0.568265	-0.297315	0.603791
O213	O	0.589420	-0.276229	0.479313
H214	H	0.569424	-0.296207	0.455106
H215	H	0.597013	-0.268659	0.387988
O216	O	0.737719	-0.127997	0.835959
H217	H	0.760560	-0.148100	0.857346
O218	O	0.030233	-0.127978	0.128291
H219	H	0.039258	-0.092731	0.136069
O220	O	0.127740	-0.127976	0.128267
H221	H	0.118750	-0.092728	0.136032
O222	O	0.386809	-0.156724	0.156913
H223	H	0.411005	-0.136715	0.136974
O224	O	0.484332	-0.156714	0.156902
H225	H	0.520898	-0.161547	0.161720
