data_functionalizedCrystal
_audit_creation_method	'MofGen! by Chris Wilmer'
_symmetry_space_group_name_H-M	'P1'
_symmetry_Int_Tables_number	1
_symmetry_cell_setting	triclinic
loop_
_symmetry_equiv_pos_as_xyz
  x,y,z
_cell_length_a	14.519731
_cell_length_b	14.519709
_cell_length_c	9.730223
_cell_angle_alpha	89.997715
_cell_angle_beta	89.999699
_cell_angle_gamma	83.684499
loop_
_atom_site_label
_atom_site_type_symbol
_atom_site_fract_x
_atom_site_fract_y
_atom_site_fract_z
O1	O	1.223850	0.120981	-0.114296
O2	O	1.723850	0.620981	0.385704
O3	O	0.955376	0.135197	-0.114298
O4	O	1.455376	0.635197	0.385702
O5	O	1.096731	-0.006149	-0.114285
O6	O	1.596731	0.493851	0.385715
O7	O	1.082495	0.262327	-0.114310
O8	O	1.582495	0.762327	0.385690
O9	O	1.096730	-0.006146	0.114295
O10	O	1.596730	0.493854	0.614295
O11	O	0.955374	0.135200	0.114282
O12	O	1.455374	0.635200	0.614282
O13	O	1.223848	0.120984	0.114284
O14	O	1.723848	0.620984	0.614284
Zn15	Zn	1.089611	0.128093	0.150575
Zn16	Zn	1.589611	0.628093	0.650575
Zn17	Zn	1.089613	0.128088	-0.150589
Zn18	Zn	1.589613	0.628088	0.349411
O19	O	1.082493	0.262330	0.114270
O20	O	1.582493	0.762330	0.614270
C21	C	0.921016	0.134532	-0.000009
C22	C	1.421016	0.634532	0.499991
C23	C	0.818635	0.132536	-0.000009
C24	C	1.318635	0.632536	0.499991
C25	C	0.735491	0.130915	-0.000015
C26	C	1.235491	0.630915	0.499985
C27	C	0.631182	0.128888	-0.000015
C28	C	1.131182	0.628888	0.499985
C29	C	0.548043	0.127280	-0.000015
C30	C	1.048043	0.627280	0.499985
C31	C	0.443728	0.125253	-0.000017
C32	C	0.943728	0.625253	0.499983
C33	C	1.096067	-0.040507	0.000006
C34	C	1.596067	0.459493	0.500006
C35	C	1.094079	-0.142889	0.000006
C36	C	1.594079	0.357111	0.500006
C37	C	1.086759	-0.517785	-0.000029
C38	C	1.586759	-0.017785	0.499971
C39	C	1.088792	-0.413477	-0.000019
C40	C	1.588792	0.086523	0.499981
C41	C	1.090419	-0.330340	-0.000010
C42	C	1.590419	0.169660	0.499990
C43	C	1.092452	-0.226025	-0.000002
C44	C	1.592452	0.273975	0.499998
C45	C	1.258209	0.121649	-0.000009
C46	C	1.758209	0.621649	0.499991
C47	C	1.360589	0.123645	-0.000017
C48	C	1.860589	0.623645	0.499983
C49	C	1.083157	0.296688	-0.000023
C50	C	1.583157	0.796688	0.499977
C51	C	1.085146	0.399070	-0.000033
C52	C	1.585146	0.899070	0.499967
N53	N	1.089616	0.128096	0.356111
N54	N	1.589616	0.628096	0.856111
N55	N	1.089615	0.128078	-0.356125
N56	N	1.589615	0.628078	0.143875
C57	C	1.152224	0.065529	0.428043
C58	C	1.652224	0.565529	0.928043
C59	C	1.152222	0.065518	0.571926
C60	C	1.652222	0.565518	1.071926
C61	C	1.027000	0.190648	0.571932
C62	C	1.527000	0.690648	1.071932
C63	C	1.026999	0.190654	0.428052
C64	C	1.526999	0.690654	0.928052
C65	C	1.214842	0.002970	0.356103
C66	C	1.714842	0.502970	0.856103
C67	C	1.277456	-0.059601	0.428035
C68	C	1.777456	0.440399	0.928035
C69	C	1.277453	-0.059612	0.571918
C70	C	1.777453	0.440388	1.071918
C71	C	1.214837	0.002948	0.643868
C72	C	1.714837	0.502948	1.143868
H73	H	1.214851	0.002975	0.238946
H74	H	1.714851	0.502975	0.738946
C75	C	1.402916	-0.079343	0.733731
C76	C	1.902916	0.420657	1.233731
C77	C	1.346271	-0.128390	0.650992
C78	C	1.846271	0.371610	1.150992
H79	H	1.445400	-0.121805	0.782551
H80	H	1.945400	0.378195	1.282551
H81	H	1.436144	-0.040880	0.677605
H82	H	1.936144	0.459120	1.177605
H83	H	1.365617	-0.042091	0.797165
H84	H	1.865617	0.457909	1.297165
H85	H	1.383569	-0.165637	0.587551
H86	H	1.883569	0.334363	1.087551
H87	H	1.313040	-0.166869	0.707123
H88	H	1.813040	0.333131	1.207123
C89	C	1.333010	-0.115198	0.207472
C90	C	1.833010	0.384802	0.707472
C91	C	1.346241	-0.128404	0.348952
C92	C	1.846241	0.371596	0.848952
H93	H	1.375469	-0.157684	0.158655
H94	H	1.875469	0.342316	0.658655
H95	H	1.271442	-0.125321	0.183927
H96	H	1.771442	0.374679	0.683927
H97	H	1.343162	-0.053635	0.183883
H98	H	1.843162	0.446365	0.683883
H99	H	1.336083	-0.189965	0.372543
H100	H	1.836083	0.310035	0.872543
H101	H	1.407824	-0.118289	0.372507
H102	H	1.907824	0.381711	0.872507
H103	H	1.214834	0.002927	0.761028
H104	H	1.714834	0.502927	1.261028
H105	H	0.976022	0.241583	0.630524
H106	H	1.476022	0.741583	1.130524
H107	H	0.976017	0.241601	0.369484
H108	H	1.476017	0.741601	0.869484
