data_functionalizedCrystal
_audit_creation_method	'MofGen! by Chris Wilmer'
_symmetry_space_group_name_H-M	'P1'
_symmetry_Int_Tables_number	1
_symmetry_cell_setting	triclinic
loop_
_symmetry_equiv_pos_as_xyz
  x,y,z
_cell_length_a	12.759401
_cell_length_b	12.827892
_cell_length_c	12.759393
_cell_angle_alpha	90.026884
_cell_angle_beta	89.980324
_cell_angle_gamma	89.982243
loop_
_atom_site_label
_atom_site_type_symbol
_atom_site_fract_x
_atom_site_fract_y
_atom_site_fract_z
Zn1	Zn	1.606247	0.415971	-0.594011
Zn2	Zn	1.606130	0.590748	-0.418342
Zn3	Zn	1.430546	0.416023	-0.418350
Zn4	Zn	1.430530	0.590672	-0.593983
O5	O	1.518363	0.503353	-0.506172
O6	O	1.753253	0.439165	-0.570717
O7	O	1.582796	0.567624	-0.271322
O8	O	1.453909	0.269780	-0.441667
O9	O	1.753167	0.567573	-0.441653
O10	O	1.582996	0.269741	-0.570724
O11	O	1.453795	0.439254	-0.271328
O12	O	1.283523	0.439180	-0.441640
O13	O	1.453881	0.567443	-0.741008
O14	O	1.283511	0.567494	-0.570677
O15	O	1.582980	0.439091	-0.741029
O16	O	1.582781	0.736974	-0.441627
O17	O	1.453768	0.736918	-0.570669
C18	C	1.245396	0.503335	-0.506157
C19	C	1.128619	0.503353	-0.506175
C20	C	1.073803	0.436611	-0.573482
C21	C	0.964079	0.436622	-0.573489
C22	C	0.963997	0.570124	-0.438880
C23	C	1.073719	0.570108	-0.438868
C24	C	1.518288	0.774863	-0.506167
C25	C	1.518352	0.891016	-0.506200
C26	C	1.582266	0.942794	-0.442419
C27	C	1.582334	1.062844	-0.442452
C28	C	1.792396	0.503372	-0.506187
C29	C	1.909173	0.503380	-0.506194
C30	C	1.518442	0.503253	-0.780205
C31	C	1.518475	0.503210	-0.896982
C32	C	1.518459	1.230783	-0.506212
C33	C	1.518477	1.114630	-0.506262
C34	C	1.585702	0.436367	-0.951856
C35	C	1.585720	0.436322	-1.061580
C36	C	1.451281	0.569973	-1.061546
C37	C	1.451259	0.570012	-0.951824
C38	C	1.518345	0.503378	-0.233204
C39	C	1.518515	0.503126	-0.116428
H40	H	1.118352	0.624457	-0.384053
H41	H	1.396558	0.624362	-1.106212
H42	H	1.396507	0.624443	-0.907144
C43	C	1.659623	0.362875	-0.891533
H44	H	1.699655	0.323052	-0.939933
H45	H	1.705379	0.402861	-0.848729
H46	H	1.619431	0.317353	-0.848735
C47	C	1.656123	0.882624	-0.368618
H48	H	1.646384	0.809830	-0.378273
H49	H	1.726731	0.900389	-0.384042
H50	H	1.640803	0.900524	-0.297998
H51	H	1.118499	0.382252	-0.628285
C52	C	1.656253	1.122989	-0.368678
H53	H	1.646604	1.195786	-0.378381
H54	H	1.640920	1.105215	-0.298054
H55	H	1.726847	1.105084	-0.384099
C56	C	0.903785	0.363212	-0.647532
H57	H	0.952199	0.323462	-0.687619
H58	H	0.860972	0.317634	-0.607429
H59	H	0.860997	0.403257	-0.693247
C60	C	0.903604	0.643558	-0.364857
H61	H	0.830406	0.634018	-0.374511
H62	H	0.921554	0.628181	-0.294290
H63	H	0.921585	0.713790	-0.380123
C64	C	1.444551	1.054497	-0.580038
H65	H	1.404493	1.102560	-0.620072
H66	H	1.484731	1.011847	-0.625798
H67	H	1.398804	1.011989	-0.539753
C68	C	1.659679	0.362807	-1.121943
H69	H	1.650064	0.372343	-1.195144
H70	H	1.730256	0.378124	-1.103966
H71	H	1.644332	0.292592	-1.103967
H72	H	1.463688	0.935564	-0.560834
