data_functionalizedCrystal
_audit_creation_method	'MofGen! by Chris Wilmer'
_symmetry_space_group_name_H-M	'P1'
_symmetry_Int_Tables_number	1
_symmetry_cell_setting	triclinic
loop_
_symmetry_equiv_pos_as_xyz
  x,y,z
_cell_length_a	16.120530
_cell_length_b	12.645330
_cell_length_c	16.120297
_cell_angle_alpha	92.876762
_cell_angle_beta	90.128140
_cell_angle_gamma	87.113442
loop_
_atom_site_label
_atom_site_type_symbol
_atom_site_fract_x
_atom_site_fract_y
_atom_site_fract_z
Zn1	Zn	1.247482	-0.537081	-0.534595
Zn2	Zn	1.254445	-0.705843	-0.395547
Zn3	Zn	1.115471	-0.519167	-0.388512
Zn4	Zn	1.108402	-0.704866	-0.527517
O5	O	1.181450	-0.616739	-0.461543
O6	O	1.364772	-0.567373	-0.522057
O7	O	1.241883	-0.673991	-0.278248
O8	O	1.133026	-0.373200	-0.407909
O9	O	1.369888	-0.691362	-0.419899
O10	O	1.230014	-0.386361	-0.515235
O11	O	1.139779	-0.536842	-0.273080
O12	O	0.998166	-0.535895	-0.401045
O13	O	1.120978	-0.689698	-0.644821
O14	O	0.992972	-0.672327	-0.503171
O15	O	1.223160	-0.566427	-0.650022
O16	O	1.235028	-0.854056	-0.413035
O17	O	1.127731	-0.853339	-0.509992
C18	C	0.965397	-0.602062	-0.450577
C19	C	0.872967	-0.595810	-0.445905
C20	C	0.703737	-0.584371	-0.437383
C21	C	0.660000	-0.649190	-0.485763
C22	C	0.565835	-0.642825	-0.481022
C23	C	0.797911	-0.590734	-0.442124
C24	C	1.181390	-0.892164	-0.461528
C25	C	1.181439	-1.009999	-0.461554
C26	C	1.114193	-1.177186	-0.522761
C27	C	1.113876	-1.054592	-0.522537
C28	C	1.162161	-1.047614	-0.372717
C29	C	1.161751	-1.170210	-0.373088
C30	C	1.268390	-1.184441	-0.488492
C31	C	1.267753	-1.061915	-0.490381
C32	C	1.398347	-0.631475	-0.472552
C33	C	1.490775	-0.637754	-0.477244
C34	C	1.170504	-0.629952	-0.678438
C35	C	1.165839	-0.635582	-0.770865
C36	C	1.181532	-0.340242	-0.461577
C37	C	1.181567	-0.222415	-0.461592
C38	C	1.157292	-0.645836	-0.940091
C39	C	1.205771	-0.587337	-0.983855
C40	C	1.201016	-0.593042	-1.078018
C41	C	1.162047	-0.640132	-0.845919
C42	C	1.192401	-0.603505	-0.245494
C43	C	1.197227	-0.597587	-0.153075
H44	H	1.125592	-1.211590	-0.588700
N45	N	0.704074	-0.729046	-0.545334
H46	H	0.661764	-0.771422	-0.576959
H47	H	0.738193	-0.690718	-0.585658
N48	N	1.129161	-1.021252	-0.609607
H49	H	1.080347	-0.975109	-0.628229
H50	H	1.181230	-0.980113	-0.610388
H51	H	0.670462	-0.524103	-0.392405
N52	N	1.287122	-1.030121	-0.577004
H53	H	1.340315	-0.991157	-0.576171
H54	H	1.293797	-1.095650	-0.615339
H55	H	1.050134	-1.202791	-0.504798
H56	H	1.049419	-1.020022	-0.504364
N57	N	1.077860	-1.200905	-0.343586
H58	H	1.041493	-1.134828	-0.330463
H59	H	1.050952	-1.245913	-0.388573
N60	N	1.265486	-0.515332	-0.939812
H61	H	1.324148	-0.536736	-0.957901
H62	H	1.251785	-0.439628	-0.954228
N63	N	1.097584	-0.717833	-0.984139
H64	H	1.129580	-0.771389	-1.021901
H65	H	1.065896	-0.756014	-0.941770
N66	N	1.079170	-0.999799	-0.342808
H67	H	1.067321	-1.024478	-0.285598
H68	H	1.080488	-0.919939	-0.340452
H69	H	1.208935	-1.199856	-0.325719
N70	N	1.337282	-1.022302	-0.436141
H71	H	1.313708	-0.969911	-0.391913
H72	H	1.366445	-1.084101	-0.408968
N73	N	1.225357	-1.009058	-0.310431
H74	H	1.267191	-0.966734	-0.339270
H75	H	1.196298	-0.962786	-0.265401
N76	N	1.292850	-1.232364	-0.573140
H77	H	1.348733	-1.206962	-0.589177
H78	H	1.296238	-1.312201	-0.571497
N79	N	1.334811	-1.223315	-0.429553
H80	H	1.308836	-1.265320	-0.385639
H81	H	1.377678	-1.269965	-0.461452
