data_functionalizedCrystal
_audit_creation_method	'MofGen! by Chris Wilmer'
_symmetry_space_group_name_H-M	'P1'
_symmetry_Int_Tables_number	1
_symmetry_cell_setting	triclinic
loop_
_symmetry_equiv_pos_as_xyz
  x,y,z
_cell_length_a	16.992694
_cell_length_b	10.654550
_cell_length_c	9.130313
_cell_angle_alpha	89.997153
_cell_angle_beta	90.001860
_cell_angle_gamma	87.576577
loop_
_atom_site_label
_atom_site_type_symbol
_atom_site_fract_x
_atom_site_fract_y
_atom_site_fract_z
O1	O	-1.041840	-0.266428	0.121615
O2	O	-0.541840	0.233572	0.621615
O3	O	-0.813538	-0.263505	0.121658
O4	O	-0.313538	0.236495	0.621658
O5	O	-0.932938	-0.082681	0.121627
O6	O	-0.432938	0.417319	0.621627
O7	O	-0.922440	-0.447253	0.121647
O8	O	-0.422440	0.052747	0.621647
O9	O	-0.932929	-0.082681	-0.121972
O10	O	-0.432929	0.417319	0.378028
O11	O	-0.813529	-0.263505	-0.121940
O12	O	-0.313529	0.236495	0.378060
O13	O	-1.041830	-0.266428	-0.121984
O14	O	-0.541830	0.233572	0.378016
Cu15	Cu	-0.927679	-0.264966	-0.144204
Cu16	Cu	-0.427679	0.235034	0.355796
Cu17	Cu	-0.927690	-0.264967	0.143879
Cu18	Cu	-0.427690	0.235033	0.643879
O19	O	-0.922431	-0.447252	-0.121952
O20	O	-0.422431	0.052748	0.378048
C21	C	-0.784301	-0.259745	-0.000136
C22	C	-0.284301	0.240255	0.499864
C23	C	-0.697196	-0.248526	-0.000119
C24	C	-0.197196	0.251474	0.499881
C25	C	-0.932163	-0.035816	-0.000172
C26	C	-0.432163	0.464184	0.499828
C27	C	-0.929856	0.103826	-0.000169
C28	C	-0.429856	0.603826	0.499831
C29	C	-1.071068	-0.270188	-0.000186
C30	C	-0.571068	0.229812	0.499814
C31	C	-1.158173	-0.281408	-0.000193
C32	C	-0.658173	0.218592	0.499807
C33	C	-0.647544	-0.356776	-0.000114
C34	C	-0.147544	0.143224	0.499886
C35	C	-0.565700	-0.346227	-0.000135
C36	C	-0.065700	0.153773	0.499865
C37	C	-0.533509	-0.227426	-0.000150
C38	C	-0.033509	0.272574	0.499850
C39	C	-0.583167	-0.119167	-0.000160
C40	C	-0.083167	0.380833	0.499840
C41	C	-0.665010	-0.129718	-0.000149
C42	C	-0.165010	0.370282	0.499851
C43	C	-0.289674	-0.183699	-0.000192
C44	C	0.210326	0.316301	0.499808
C45	C	-0.207825	-0.173157	-0.000198
C46	C	0.292175	0.326843	0.499802
C47	C	-0.190363	-0.400218	-0.000176
C48	C	0.309637	0.099782	0.499824
C49	C	-0.272208	-0.410758	-0.000157
C50	C	0.227792	0.089242	0.499843
C51	C	-0.321859	-0.302499	-0.000174
C52	C	0.178141	0.197501	0.499826
N53	N	-0.449852	-0.216640	-0.000167
N54	N	0.050148	0.283360	0.499833
N55	N	-0.405515	-0.313286	-0.000168
N56	N	0.094485	0.186714	0.499832
C57	C	-0.923206	-0.494117	-0.000150
C58	C	-0.423206	0.005883	0.499850
C59	C	-0.925512	-0.633759	-0.000143
C60	C	-0.425512	-0.133759	0.499857
N61	N	-0.927677	-0.264965	-0.346827
N62	N	-0.427677	0.235035	0.153173
C63	C	-1.000157	0.177237	-0.000182
C64	C	-0.500157	0.677237	0.499818
C65	C	-0.997985	0.308445	-0.000164
C66	C	-0.497985	0.808445	0.499836
C67	C	-0.855206	0.292820	-0.000126
C68	C	-0.355206	0.792820	0.499874
C69	C	-0.857379	0.161614	-0.000134
C70	C	-0.357379	0.661614	0.499866
C71	C	-0.975671	-0.345995	-0.423479
C72	C	-0.475671	0.154005	0.076521
C73	C	-0.975683	-0.345989	-0.576815
C74	C	-0.475683	0.154011	-0.076815
C75	C	-0.879702	-0.183920	-0.576836
C76	C	-0.379702	0.316080	-0.076836
C77	C	-0.879694	-0.183921	-0.423502
C78	C	-0.379694	0.316079	0.076498
N79	N	-0.927698	-0.264959	0.346502
N80	N	-0.427698	0.235041	0.846502
H81	H	-0.673747	-0.453517	-0.000101
H82	H	-0.173747	0.046483	0.499899
F83	F	-0.342506	-0.068479	-0.000210
F84	F	0.157494	0.431521	0.499790
F85	F	-0.306461	-0.537202	-0.000133
F86	F	0.193539	-0.037202	0.499867
H87	H	-0.796197	0.339888	-0.000100
H88	H	-0.296197	0.839888	0.499900
H89	H	-1.014766	-0.411970	-0.639218
H90	H	-0.514766	0.088030	-0.139218
H91	H	-0.149929	-0.488356	-0.000165
H92	H	0.350071	0.011644	0.499835
H93	H	-0.840635	-0.117938	-0.639283
H94	H	-0.340635	0.382062	-0.139283
F95	F	-1.077294	0.115738	-0.000218
F96	F	-0.577294	0.615738	0.499782
F97	F	-0.173568	-0.046707	-0.000240
F98	F	0.326432	0.453293	0.499760
H99	H	-0.705436	-0.041568	-0.000152
H100	H	-0.205436	0.458432	0.499848
H101	H	-0.800128	0.101841	-0.000119
H102	H	-0.300128	0.601841	0.499881
F103	F	-0.828609	-0.097675	-0.341919
F104	F	-0.328609	0.402325	0.158081
F105	F	-0.548906	0.007271	-0.000185
F106	F	-0.048906	0.507271	0.499815
F107	F	-1.072809	0.386569	-0.000174
F108	F	-0.572809	0.886569	0.499826
F109	F	-1.026743	-0.432243	-0.341881
F110	F	-0.526743	0.067757	0.158119
H111	H	-0.525276	-0.434377	-0.000129
H112	H	-0.025276	0.065623	0.499871
