data_functionalizedCrystal
_audit_creation_method	'MofGen! by Chris Wilmer'
_symmetry_space_group_name_H-M	'P1'
_symmetry_Int_Tables_number	1
_symmetry_cell_setting	triclinic
loop_
_symmetry_equiv_pos_as_xyz
  x,y,z
_cell_length_a	16.959455
_cell_length_b	18.101395
_cell_length_c	16.959447
_cell_angle_alpha	89.970532
_cell_angle_beta	89.985678
_cell_angle_gamma	90.028051
loop_
_atom_site_label
_atom_site_type_symbol
_atom_site_fract_x
_atom_site_fract_y
_atom_site_fract_z
Zn1	Zn	1.208323	-0.294875	-0.446913
Zn2	Zn	1.208220	-0.418728	-0.314737
Zn3	Zn	1.076152	-0.294899	-0.314751
Zn4	Zn	1.076091	-0.418673	-0.446875
O5	O	1.142196	-0.356794	-0.380819
O6	O	1.318920	-0.311318	-0.429390
O7	O	1.190683	-0.402335	-0.204128
O8	O	1.093753	-0.191263	-0.332304
O9	O	1.318845	-0.402312	-0.332280
O10	O	1.190859	-0.191246	-0.429404
O11	O	1.093653	-0.311358	-0.204138
O12	O	0.965533	-0.311304	-0.332267
O13	O	1.093649	-0.402218	-0.557491
O14	O	0.965488	-0.402241	-0.429339
O15	O	1.190800	-0.311264	-0.557519
O16	O	1.190624	-0.522354	-0.332243
O17	O	1.093550	-0.522313	-0.429325
C18	C	0.936830	-0.356769	-0.380801
C19	C	0.848974	-0.356777	-0.380812
C20	C	0.477497	-0.309404	-0.330380
C21	C	0.477499	-0.404244	-0.431304
C22	C	0.560045	-0.404234	-0.431299
C23	C	0.601321	-0.356808	-0.380833
C24	C	0.560050	-0.309394	-0.330372
C25	C	0.601321	-0.451653	-0.481754
C26	C	0.683872	-0.451644	-0.481750
C27	C	0.725150	-0.404215	-0.431287
C28	C	0.683874	-0.356798	-0.380825
C29	C	0.725150	-0.309373	-0.330359
C30	C	0.683876	-0.261951	-0.279899
C31	C	0.601327	-0.261964	-0.279909
C32	C	0.807698	-0.404202	-0.431278
C33	C	0.807703	-0.309362	-0.330351
C34	C	1.142091	-0.549204	-0.380796
C35	C	1.142118	-0.631518	-0.380812
C36	C	1.142291	-0.930609	-0.380855
C37	C	1.081356	-0.899289	-0.442088
C38	C	1.081066	-0.813671	-0.441896
C39	C	1.142205	-0.782227	-0.380834
C40	C	1.119658	-0.813380	-0.297530
C41	C	1.119266	-0.899025	-0.297896
C42	C	1.225907	-0.898956	-0.402193
C43	C	1.225415	-0.813305	-0.404020
C44	C	1.142158	-0.698367	-0.380818
C45	C	1.142337	-1.014469	-0.380866
C46	C	1.348365	-0.356819	-0.380838
C47	C	1.436221	-0.356830	-0.380846
C48	C	1.142229	-0.356732	-0.586987
C49	C	1.142243	-0.356706	-0.674844
C50	C	1.142324	-0.163632	-0.380860
C51	C	1.142379	-0.081318	-0.380877
C52	C	1.091756	-0.403984	-1.046308
C53	C	1.192920	-0.309273	-1.046332
C54	C	1.192899	-0.309289	-0.963786
C55	C	1.142306	-0.356653	-0.922497
C56	C	1.091735	-0.404002	-0.963754
C57	C	1.243475	-0.261946	-0.922523
C58	C	1.243456	-0.261960	-0.839972
C59	C	1.192859	-0.309322	-0.798681
C60	C	1.142285	-0.356672	-0.839944
C61	C	1.091693	-0.404037	-0.798655
C62	C	1.041115	-0.451384	-0.839915
C63	C	1.041138	-0.451364	-0.922464
C64	C	1.192836	-0.309342	-0.716133
C65	C	1.091672	-0.404055	-0.716101
C66	C	1.142209	-0.356801	-0.175453
C67	C	1.142348	-0.356619	-0.087597
H68	H	0.841304	-0.270738	-0.289259
H69	H	0.999926	-0.489951	-0.806287
H70	H	0.999962	-0.489914	-0.956066
C71	C	0.728655	-0.210558	-0.224974
C72	C	0.708556	-0.226607	-0.146738
C73	C	0.749802	-0.179289	-0.096119
H74	H	0.715193	-0.160785	-0.236529
H75	H	0.783735	-0.217358	-0.232144
H76	H	0.653488	-0.219801	-0.139571
H77	H	0.722020	-0.276371	-0.135158
H78	H	0.804883	-0.186089	-0.103289
H79	H	0.736338	-0.129519	-0.107681
H80	H	0.736177	-0.190176	-0.043031
C81	C	0.556563	-0.210360	-0.225221
C82	C	0.576661	-0.137104	-0.242582
C83	C	0.535431	-0.089546	-0.192226
H84	H	0.570039	-0.221036	-0.172064
H85	H	0.501481	-0.217107	-0.232455
H86	H	0.631731	-0.130359	-0.235342
H87	H	0.563183	-0.126404	-0.295731
H88	H	0.480349	-0.096293	-0.199460
H89	H	0.548911	-0.100229	-0.139072
H90	H	0.549056	-0.039836	-0.204003
C91	C	0.728780	-0.503001	-0.536586
C92	C	0.776213	-0.461117	-0.587311
C93	C	0.817600	-0.508400	-0.637833
H94	H	0.692463	-0.531263	-0.566717
H95	H	0.761009	-0.535219	-0.506314
H96	H	0.743985	-0.428912	-0.617580
H97	H	0.812544	-0.432858	-0.557201
H98	H	0.849830	-0.540618	-0.607560
H99	H	0.781278	-0.536659	-0.667958
H100	H	0.849794	-0.479989	-0.672250
C101	C	0.432548	-0.258000	-0.275627
C102	C	0.351420	-0.268166	-0.286420
C103	C	0.309989	-0.220832	-0.235989
H104	H	0.446009	-0.208225	-0.287238
H105	H	0.446007	-0.268783	-0.222479
H106	H	0.337967	-0.257378	-0.339556
H107	H	0.337936	-0.317932	-0.274804
H108	H	0.323448	-0.231614	-0.182841
H109	H	0.323456	-0.171060	-0.247604
H110	H	0.254940	-0.227728	-0.243300
C111	C	1.298392	-0.210471	-0.795321
C112	C	1.342688	-0.168976	-0.849150
C113	C	1.393293	-0.121527	-0.808045
H114	H	1.332875	-0.238725	-0.763103
H115	H	1.268183	-0.178166	-0.763149
H116	H	1.372895	-0.201276	-0.881308
H117	H	1.308226	-0.140706	-0.881369
H118	H	1.363084	-0.089223	-0.775873
H119	H	1.427771	-0.149788	-0.775829
H120	H	1.423349	-0.093362	-0.844561
C121	C	0.432831	-0.455804	-0.486132
C122	C	0.486644	-0.497333	-0.530313
C123	C	0.445522	-0.544842	-0.580829
H124	H	0.400651	-0.427593	-0.520692
H125	H	0.400620	-0.488086	-0.455864
H126	H	0.518842	-0.465056	-0.560579
H127	H	0.518826	-0.525560	-0.495775
H128	H	0.413311	-0.577123	-0.550561
H129	H	0.413343	-0.516624	-0.615384
H130	H	0.482028	-0.573029	-0.610807
H131	H	1.234018	-0.270794	-0.682542
H132	H	0.567709	-0.490269	-0.522835
H133	H	1.059184	-0.791993	-0.279130
H134	H	0.841299	-0.442814	-0.472359
H135	H	1.271306	-0.919210	-0.357595
H136	H	1.095172	-0.792606	-0.503666
H137	H	1.095322	-0.919836	-0.504057
H138	H	1.019755	-0.920873	-0.428131
H139	H	1.050466	-0.442619	-0.682489
C140	C	0.998386	-0.786574	-0.422989
C141	C	0.948497	-0.847317	-0.411694
C142	C	0.872327	-0.822384	-0.394260
H143	H	0.979291	-0.757441	-0.465485
H144	H	0.999654	-0.757597	-0.376314
H145	H	0.947226	-0.876282	-0.458364
H146	H	0.967567	-0.876456	-0.369196
H147	H	0.873594	-0.793408	-0.347584
H148	H	0.853239	-0.793251	-0.436758
H149	H	0.838469	-0.863594	-0.386587
H150	H	1.058143	-0.919066	-0.279821
H151	H	1.234114	-0.270715	-1.079954
H152	H	1.050574	-0.442530	-1.079906
C153	C	1.175873	-0.926516	-0.234916
C154	C	1.210279	-0.866008	-0.196705
C155	C	1.262415	-0.891300	-0.138673
H156	H	1.215908	-0.955609	-0.258759
H157	H	1.147857	-0.955615	-0.197617
H158	H	1.238293	-0.836921	-0.233998
H159	H	1.170263	-0.836908	-0.172846
H160	H	1.234399	-0.920399	-0.101374
H161	H	1.302445	-0.920394	-0.162522
H162	H	1.285760	-0.850250	-0.112735
C163	C	1.298322	-0.210560	-0.967492
C164	C	1.287499	-0.220666	-1.048615
C165	C	1.338008	-0.173336	-1.090069
H166	H	1.351451	-0.221369	-0.954056
H167	H	1.286786	-0.160785	-0.954027
H168	H	1.299042	-0.270430	-1.062075
H169	H	1.234381	-0.209852	-1.062074
H170	H	1.326472	-0.123560	-1.076604
H171	H	1.391134	-0.184148	-1.076627
H172	H	1.330667	-0.180181	-1.145115
C173	C	1.253163	-0.927731	-0.481845
C174	C	1.195343	-0.974453	-0.513246
C175	C	1.220409	-1.000966	-0.586627
H176	H	1.300962	-0.954417	-0.475544
H177	H	1.261575	-0.887330	-0.516631
H178	H	1.186941	-1.014847	-0.478468
H179	H	1.147540	-0.947784	-0.519566
H180	H	1.228822	-0.960566	-0.621414
H181	H	1.268209	-1.027648	-0.580319
H182	H	1.181180	-1.032664	-0.607945
C183	C	1.248255	-0.786150	-0.485720
C184	C	1.318151	-0.745212	-0.480864
C185	C	1.339220	-0.720207	-0.556117
H186	H	1.207403	-0.755814	-0.506186
H187	H	1.255999	-0.827299	-0.519594
H188	H	1.310403	-0.704068	-0.447002
H189	H	1.359018	-0.775532	-0.460412
H190	H	1.346964	-0.761356	-0.589992
H191	H	1.298364	-0.689874	-0.576577
H192	H	1.386650	-0.692434	-0.552834
C193	C	1.289039	-0.784712	-0.348783
C194	C	1.254883	-0.738265	-0.292321
C195	C	1.313466	-0.711919	-0.241411
H196	H	1.327179	-0.757863	-0.378172
H197	H	1.313801	-0.825201	-0.323145
H198	H	1.230135	-0.697782	-0.317957
H199	H	1.216750	-0.765097	-0.262913
H200	H	1.338227	-0.752408	-0.215774
H201	H	1.351602	-0.685074	-0.270808
H202	H	1.290299	-0.680407	-0.203092
H203	H	1.162645	-0.793014	-0.250663
