data_functionalizedCrystal
_audit_creation_method	'MofGen! by Chris Wilmer'
_symmetry_space_group_name_H-M	'P1'
_symmetry_Int_Tables_number	1
_symmetry_cell_setting	triclinic
loop_
_symmetry_equiv_pos_as_xyz
  x,y,z
_cell_length_a	12.811445
_cell_length_b	11.792254
_cell_length_c	11.295483
_cell_angle_alpha	85.876761
_cell_angle_beta	99.539261
_cell_angle_gamma	84.121730
loop_
_atom_site_label
_atom_site_type_symbol
_atom_site_fract_x
_atom_site_fract_y
_atom_site_fract_z
O1	O	1.411391	0.133589	0.251431
O2	O	1.911391	0.633589	0.751431
O3	O	1.103543	0.152758	0.218191
O4	O	1.603543	0.652758	0.718191
O5	O	1.264930	-0.022072	0.235608
O6	O	1.764930	0.477928	0.735608
O7	O	1.250004	0.308418	0.234014
O8	O	1.750004	0.808418	0.734014
O9	O	1.250755	-0.006740	0.036028
O10	O	1.750755	0.493260	0.536028
O11	O	1.089368	0.168090	0.018611
O12	O	1.589368	0.668090	0.518611
O13	O	1.397216	0.148921	0.051850
O14	O	1.897216	0.648921	0.551850
Cu15	Cu	1.241998	0.159905	0.017007
Cu16	Cu	1.741998	0.659905	0.517007
Cu17	Cu	1.258761	0.141773	0.253034
Cu18	Cu	1.758761	0.641773	0.753034
O19	O	1.235829	0.323750	0.034433
O20	O	1.735829	0.823750	0.534433
C21	C	1.057045	0.159819	0.114145
C22	C	1.557045	0.659819	0.614145
C23	C	0.939611	0.158001	0.101465
C24	C	1.439611	0.658001	0.601465
C25	C	0.734391	0.137890	0.295243
C26	C	1.234391	0.637890	0.795243
C27	C	0.624052	0.136182	0.283334
C28	C	1.124052	0.636182	0.783334
C29	C	0.608591	0.152885	0.065740
C30	C	1.108591	0.652885	0.565740
C31	C	0.718930	0.154593	0.077649
C32	C	1.218930	0.654593	0.577649
C33	C	0.781827	0.147093	0.192404
C34	C	1.281827	0.647093	0.692404
C35	C	0.892169	0.148793	0.204312
C36	C	1.392169	0.648793	0.704312
C37	C	0.876705	0.165504	-0.013282
C38	C	1.376705	0.665504	0.486718
C39	C	0.766366	0.163796	-0.025190
C40	C	1.266366	0.663796	0.474810
C41	C	1.256902	-0.056687	0.135717
C42	C	1.756902	0.443313	0.635717
C43	C	1.254088	-0.182671	0.135414
C44	C	1.754088	0.317329	0.635414
C45	C	1.251801	-0.284985	0.135171
C46	C	1.751801	0.215015	0.635171
C47	C	1.248943	-0.413343	0.134874
C48	C	1.748943	0.086657	0.634874
C49	C	1.443715	0.141860	0.155899
C50	C	1.943715	0.641860	0.655899
C51	C	1.561149	0.143677	0.168586
C52	C	2.061149	0.643677	0.668586
C53	C	1.243857	0.358365	0.134327
C54	C	1.743857	0.858365	0.634327
C55	C	1.246672	0.484349	0.134638
C56	C	1.746672	0.984349	0.634638
N57	N	1.230215	0.172658	-0.149001
N58	N	1.730215	0.672658	0.350999
C59	C	1.355373	0.037150	-0.384783
C60	C	1.855373	0.537150	0.115217
C61	C	1.346476	0.046795	-0.510407
C62	C	1.846476	0.546795	-0.010407
C63	C	1.203520	0.201587	-0.525875
C64	C	1.703520	0.701587	-0.025875
C65	C	1.212417	0.191942	-0.400251
C66	C	1.712417	0.691942	0.099749
C67	C	1.288347	0.109722	-0.329709
C68	C	1.788347	0.609722	0.170291
C69	C	1.297248	0.100083	-0.204083
C70	C	1.797248	0.600083	0.295917
C71	C	1.154287	0.254868	-0.219554
C72	C	1.654287	0.754868	0.280446
C73	C	1.145391	0.264513	-0.345177
C74	C	1.645391	0.764513	0.154823
N75	N	1.270553	0.129012	0.419043
N76	N	1.770553	0.629012	0.919043
H77	H	1.359077	0.033139	-0.146648
H78	H	1.859077	0.533139	0.353352
H79	H	0.715140	0.169906	-0.118621
H80	H	1.215140	0.669906	0.381379
O81	O	1.437239	-0.051542	-0.308681
O82	O	1.937239	0.448458	0.191319
H83	H	1.492981	-0.008333	-0.245840
H84	H	1.992981	0.491667	0.254160
H85	H	1.401054	-0.012301	-0.555244
H86	H	1.901054	0.487699	-0.055244
H87	H	0.943378	0.142686	0.297752
H88	H	1.443378	0.642686	0.797752
O89	O	0.572888	0.126222	0.394251
O90	O	1.072888	0.626222	0.894251
H91	H	0.635167	0.121277	0.476044
H92	H	1.135167	0.621277	0.976044
H93	H	0.557361	0.159001	-0.027689
H94	H	1.057361	0.659001	0.472311
H95	H	1.141692	0.268521	-0.583327
H96	H	1.641692	0.768521	-0.083327
O97	O	1.063503	0.353198	-0.421261
O98	O	1.563503	0.853198	0.078739
H99	H	1.068581	0.347721	-0.517869
H100	H	1.568581	0.847721	-0.017869
O101	O	1.081980	0.333145	-0.160158
O102	O	1.581980	0.833145	0.339842
H103	H	1.100915	0.312623	-0.060952
H104	H	1.600915	0.812623	0.439048
O105	O	0.927868	0.175469	-0.124208
O106	O	1.427868	0.675469	0.375792
H107	H	0.865591	0.180401	-0.206000
H108	H	1.365591	0.680401	0.294000
O109	O	0.802241	0.129799	0.419005
O110	O	1.302241	0.629799	0.919005
H111	H	0.750718	0.123115	0.488518
H112	H	1.250718	0.623115	0.988518
