data_functionalizedCrystal
_audit_creation_method	'MofGen! by Chris Wilmer'
_symmetry_space_group_name_H-M	'P1'
_symmetry_Int_Tables_number	1
_symmetry_cell_setting	triclinic
loop_
_symmetry_equiv_pos_as_xyz
  x,y,z
_cell_length_a	16.120490
_cell_length_b	12.594515
_cell_length_c	16.120297
_cell_angle_alpha	92.876747
_cell_angle_beta	89.870317
_cell_angle_gamma	92.879353
loop_
_atom_site_label
_atom_site_type_symbol
_atom_site_fract_x
_atom_site_fract_y
_atom_site_fract_z
Zn1	Zn	1.247412	0.539329	0.534565
Zn2	Zn	1.254352	0.708771	0.395517
Zn3	Zn	1.115403	0.521334	0.388485
Zn4	Zn	1.108307	0.707781	0.527490
O5	O	1.181368	0.619304	0.461514
O6	O	1.364699	0.569752	0.522024
O7	O	1.241793	0.676790	0.278218
O8	O	1.132979	0.374781	0.407881
O9	O	1.369797	0.694240	0.419866
O10	O	1.229966	0.388002	0.515206
O11	O	1.139708	0.539081	0.273052
O12	O	0.998095	0.538121	0.401021
O13	O	1.120886	0.692552	0.644794
O14	O	0.992882	0.675103	0.503146
O15	O	1.223086	0.568791	0.649992
O16	O	1.234913	0.857580	0.413005
O17	O	1.127615	0.856852	0.509965
C18	C	0.965316	0.604553	0.450553
C19	C	0.872887	0.598269	0.445884
C20	C	0.659922	0.651891	0.485736
C21	C	0.703663	0.586806	0.437357
C22	C	0.797828	0.593186	0.442103
C23	C	0.565748	0.645512	0.480992
C24	C	1.181269	0.895837	0.461499
C25	C	1.181301	1.014147	0.461525
C26	C	1.122970	1.153806	0.514235
C27	C	1.197755	1.089320	0.538475
C28	C	1.106522	1.077064	0.437323
C29	C	1.256230	1.160460	0.485843
C30	C	1.164948	1.148205	0.384653
C31	C	1.239787	1.083752	0.408867
C32	C	1.398264	0.634113	0.472518
C33	C	1.490692	0.640424	0.477208
C34	C	1.170420	0.632568	0.678409
C35	C	1.165755	0.638221	0.770837
C36	C	1.181456	1.341691	0.461548
C37	C	1.181406	1.223383	0.461562
C38	C	1.192322	0.606017	0.245465
C39	C	1.197148	0.600076	0.153046
C40	C	1.157206	0.648515	0.940062
C41	C	1.205694	0.589784	0.983826
C42	C	1.200938	0.595512	1.077989
C43	C	1.161962	0.642789	0.845891
H44	H	1.073652	1.184582	0.558834
O45	O	1.097494	0.720816	0.984104
H46	H	1.062701	0.762957	0.937522
H47	H	1.043238	1.040639	0.416838
O48	O	1.305259	1.043253	0.349847
H49	H	1.292122	1.067985	0.286268
O50	O	0.659602	0.506663	0.377756
H51	H	0.591484	0.514177	0.383323
O52	O	1.216150	1.054789	0.624602
H53	H	1.216532	0.966634	0.623663
O54	O	0.703983	0.732029	0.545333
H55	H	0.772100	0.724518	0.539754
H56	H	1.319530	1.196758	0.506404
H57	H	1.151044	1.174289	0.319646
H58	H	1.250777	0.535200	0.950574
