data_functionalizedCrystal
_audit_creation_method	'MofGen! by Chris Wilmer'
_symmetry_space_group_name_H-M	'P1'
_symmetry_Int_Tables_number	1
_symmetry_cell_setting	triclinic
loop_
_symmetry_equiv_pos_as_xyz
  x,y,z
_cell_length_a	19.188929
_cell_length_b	19.188928
_cell_length_c	12.503552
_cell_angle_alpha	86.472133
_cell_angle_beta	93.485982
_cell_angle_gamma	83.144291
loop_
_atom_site_label
_atom_site_type_symbol
_atom_site_fract_x
_atom_site_fract_y
_atom_site_fract_z
O1	O	-0.083090	-0.930210	0.089787
O2	O	0.166910	-0.680210	0.339787
O3	O	0.416910	-0.430210	0.589787
O4	O	0.666910	-0.180210	0.839787
O5	O	-0.094830	-0.726895	0.089705
O6	O	0.155170	-0.476895	0.339705
O7	O	0.405170	-0.226895	0.589705
O8	O	0.655170	0.023105	0.839705
O9	O	0.012693	-0.834417	0.089682
O10	O	0.262693	-0.584417	0.339682
O11	O	0.512693	-0.334417	0.589682
O12	O	0.762693	-0.084417	0.839682
O13	O	-0.190613	-0.822688	0.089810
O14	O	0.059387	-0.572688	0.339810
O15	O	0.309387	-0.322688	0.589810
O16	O	0.559387	-0.072688	0.839810
O17	O	0.004599	-0.826321	-0.088959
O18	O	0.254599	-0.576321	0.161041
O19	O	0.504599	-0.326321	0.411041
O20	O	0.754599	-0.076321	0.661041
O21	O	-0.102923	-0.718799	-0.088936
O22	O	0.147077	-0.468799	0.161064
O23	O	0.397077	-0.218799	0.411064
O24	O	0.647077	0.031201	0.661064
O25	O	-0.091184	-0.922115	-0.088854
O26	O	0.158816	-0.672115	0.161146
O27	O	0.408816	-0.422115	0.411146
O28	O	0.658816	-0.172115	0.661146
Cu29	Cu	-0.097793	-0.819718	-0.105206
Cu30	Cu	0.152207	-0.569718	0.144794
Cu31	Cu	0.402207	-0.319718	0.394794
Cu32	Cu	0.652207	-0.069718	0.644794
Cu33	Cu	-0.088221	-0.829292	0.106057
Cu34	Cu	0.161779	-0.579292	0.356057
Cu35	Cu	0.411779	-0.329292	0.606057
Cu36	Cu	0.661779	-0.079292	0.856057
O37	O	-0.198706	-0.814593	-0.088831
O38	O	0.051294	-0.564593	0.161169
O39	O	0.301294	-0.314593	0.411169
O40	O	0.551294	-0.064593	0.661169
C41	C	-0.098497	-0.696836	0.000373
C42	C	0.151503	-0.446836	0.250373
C43	C	0.401503	-0.196836	0.500373
C44	C	0.651503	0.053164	0.750373
C45	C	-0.097359	-0.619329	0.000338
C46	C	0.152641	-0.369329	0.250338
C47	C	0.402641	-0.119329	0.500338
C48	C	0.652641	0.130671	0.750338
C49	C	-0.160448	-0.574408	0.000391
C50	C	0.089552	-0.324408	0.250391
C51	C	0.339552	-0.074408	0.500391
C52	C	0.589552	0.175592	0.750391
C53	C	-0.159376	-0.501584	0.000397
C54	C	0.090624	-0.251584	0.250397
C55	C	0.340624	-0.001584	0.500397
C56	C	0.590624	0.248416	0.750397
C57	C	-0.095212	-0.473686	0.000371
C58	C	0.154788	-0.223686	0.250371
C59	C	0.404788	0.026314	0.500371
C60	C	0.654788	0.276314	0.750371
C61	C	-0.032115	-0.518618	0.000311
C62	C	0.217885	-0.268618	0.250311
C63	C	0.467885	-0.018618	0.500311
C64	C	0.717885	0.231382	0.750311
C65	C	-0.033189	-0.591439	0.000295
C66	C	0.216811	-0.341439	0.250295
C67	C	0.466811	-0.091439	0.500295
C68	C	0.716811	0.158561	0.750295
N69	N	-0.043411	-0.368462	0.061174
N70	N	0.206589	-0.118462	0.311174
N71	N	0.456589	0.131538	0.561174
N72	N	0.706589	0.381538	0.811174
N73	N	-0.042395	-0.299284	0.061192
N74	N	0.207605	-0.049284	0.311192
N75	N	0.457605	0.200716	0.561192
N76	N	0.707605	0.450716	0.811192
C77	C	-0.091973	-0.254280	0.000418
C78	C	0.158027	-0.004280	0.250418
C79	C	0.408027	0.245720	0.500418
C80	C	0.658027	0.495720	0.750418
N81	N	-0.142616	-0.281066	-0.060361
N82	N	0.107384	-0.031066	0.189639
N83	N	0.357384	0.218934	0.439639
N84	N	0.607384	0.468934	0.689639
N85	N	-0.143633	-0.350250	-0.060374
N86	N	0.106367	-0.100250	0.189626
N87	N	0.356367	0.149750	0.439626
N88	N	0.606367	0.399750	0.689626
C89	C	-0.094041	-0.394725	0.000388
C90	C	0.155959	-0.144725	0.250388
C91	C	0.405959	0.105275	0.500388
C92	C	0.655959	0.355275	0.750388
C93	C	-0.153905	-0.130394	0.000476
C94	C	0.096095	0.119606	0.250476
C95	C	0.346095	0.369606	0.500476
C96	C	0.596095	0.619606	0.750476
C97	C	-0.152831	-0.057569	0.000475
C98	C	0.097169	0.192431	0.250475
C99	C	0.347169	0.442431	0.500475
C100	C	0.597169	0.692431	0.750475
C101	C	-0.025568	-0.074604	0.000400
C102	C	0.224432	0.175396	0.250400
C103	C	0.474432	0.425396	0.500400
C104	C	0.724432	0.675396	0.750400
C105	C	-0.026644	-0.147427	0.000390
C106	C	0.223356	0.102573	0.250390
C107	C	0.473356	0.352573	0.500390
C108	C	0.723356	0.602573	0.750390
C109	C	-0.090814	-0.175317	0.000433
C110	C	0.159186	0.074683	0.250433
C111	C	0.409186	0.324683	0.500433
C112	C	0.659186	0.574683	0.750433
C113	C	-0.220670	-0.819021	0.000507
C114	C	0.029330	-0.569021	0.250507
C115	C	0.279330	-0.319021	0.500507
C116	C	0.529330	-0.069021	0.750507
C117	C	-0.298172	-0.820164	0.000558
C118	C	-0.048172	-0.570164	0.250558
C119	C	0.201828	-0.320164	0.500558
C120	C	0.451828	-0.070164	0.750558
C121	C	-0.343099	-0.757071	0.000511
C122	C	-0.093099	-0.507071	0.250511
C123	C	0.156901	-0.257071	0.500511
C124	C	0.406901	-0.007071	0.750511
C125	C	-0.415923	-0.758142	0.000487
C126	C	-0.165923	-0.508142	0.250487
C127	C	0.084077	-0.258142	0.500487
C128	C	0.334077	-0.008142	0.750487
C129	C	-0.443819	-0.822308	0.000489
C130	C	-0.193819	-0.572308	0.250489
C131	C	0.056181	-0.322308	0.500489
C132	C	0.306181	-0.072308	0.750489
C133	C	-0.398883	-0.885410	0.000542
C134	C	-0.148883	-0.635410	0.250542
C135	C	0.101117	-0.385410	0.500542
C136	C	0.351117	-0.135410	0.750542
C137	C	-0.326059	-0.884338	0.000577
C138	C	-0.076059	-0.634338	0.250577
C139	C	0.173941	-0.384338	0.500577
C140	C	0.423941	-0.134338	0.750577
N141	N	-0.554544	-0.868598	-0.060354
N142	N	-0.304544	-0.618598	0.189646
N143	N	-0.054544	-0.368598	0.439646
N144	N	0.195456	-0.118598	0.689646
N145	N	-0.623724	-0.869612	-0.060389
N146	N	-0.373724	-0.619612	0.189611
N147	N	-0.123724	-0.369612	0.439611
N148	N	0.126276	-0.119612	0.689611
C149	C	-0.663233	-0.825542	0.000387
C150	C	-0.413233	-0.575542	0.250387
C151	C	-0.163233	-0.325542	0.500387
C152	C	0.086767	-0.075542	0.750387
N153	N	-0.630950	-0.780408	0.061187
N154	N	-0.380950	-0.530408	0.311187
N155	N	-0.130950	-0.280408	0.561187
N156	N	0.119050	-0.030408	0.811187
N157	N	-0.561763	-0.779392	0.061217
N158	N	-0.311763	-0.529392	0.311217
N159	N	-0.061763	-0.279392	0.561217
N160	N	0.188237	-0.029392	0.811217
C161	C	-0.522784	-0.823478	0.000452
C162	C	-0.272784	-0.573478	0.250452
C163	C	-0.022784	-0.323478	0.500452
C164	C	0.227216	-0.073478	0.750452
C165	C	-0.787125	-0.763605	0.000316
C166	C	-0.537125	-0.513605	0.250316
C167	C	-0.287125	-0.263605	0.500316
C168	C	-0.037125	-0.013605	0.750316
C169	C	-0.859950	-0.764679	0.000298
C170	C	-0.609950	-0.514679	0.250298
C171	C	-0.359950	-0.264679	0.500298
C172	C	-0.109950	-0.014679	0.750298
C173	C	-0.842908	-0.891948	0.000343
C174	C	-0.592908	-0.641948	0.250343
C175	C	-0.342908	-0.391948	0.500343
C176	C	-0.092908	-0.141948	0.750343
C177	C	-0.770084	-0.890873	0.000371
C178	C	-0.520084	-0.640873	0.250371
C179	C	-0.270084	-0.390873	0.500371
C180	C	-0.020084	-0.140873	0.750371
C181	C	-0.742197	-0.826700	0.000352
C182	C	-0.492197	-0.576700	0.250352
C183	C	-0.242197	-0.326700	0.500352
C184	C	0.007803	-0.076700	0.750352
C185	C	0.034656	-0.829988	0.000346
C186	C	0.284656	-0.579988	0.250346
C187	C	0.534656	-0.329988	0.500346
C188	C	0.784656	-0.079988	0.750346
C189	C	0.112159	-0.828846	0.000302
C190	C	0.362159	-0.578846	0.250302
C191	C	0.612159	-0.328846	0.500302
C192	C	0.862159	-0.078846	0.750302
N193	N	-0.104524	-0.812989	-0.253798
N194	N	0.145476	-0.562989	-0.003798
N195	N	0.395476	-0.312989	0.246202
N196	N	0.645476	-0.062989	0.496202
C197	C	-0.087519	0.047827	0.000462
C198	C	0.162481	0.297827	0.250462
C199	C	0.412481	0.547827	0.500462
C200	C	0.662481	0.797827	0.750462
C201	C	-0.088666	-0.029676	0.000447
C202	C	0.161334	0.220324	0.250447
C203	C	0.411334	0.470324	0.500447
C204	C	0.661334	0.720324	0.750447
C205	C	-0.071579	-0.845921	-0.526238
C206	C	0.178421	-0.595921	-0.276238
C207	C	0.428421	-0.345921	-0.026238
C208	C	0.678421	-0.095921	0.223762
C209	C	-0.114426	-0.803097	-0.472905
C210	C	0.135574	-0.553097	-0.222905
C211	C	0.385574	-0.303097	0.027095
C212	C	0.635574	-0.053097	0.277095
C213	C	-0.108915	-0.808602	-0.350982
C214	C	0.141085	-0.558602	-0.100982
C215	C	0.391085	-0.308602	0.149018
C216	C	0.641085	-0.058602	0.399018
C217	C	-0.077090	-0.840416	-0.648171
C218	C	0.172910	-0.590416	-0.398171
C219	C	0.422910	-0.340416	-0.148171
C220	C	0.672910	-0.090416	0.101829
N221	N	-0.081484	-0.836026	0.254648
N222	N	0.168516	-0.586026	0.504648
N223	N	0.418516	-0.336026	0.754648
N224	N	0.668516	-0.086026	1.004648
H225	H	-0.212700	-0.597111	0.000429
H226	H	0.037300	-0.347111	0.250429
H227	H	0.287300	-0.097111	0.500429
H228	H	0.537300	0.152889	0.750429
Br229	Br	0.058982	-0.208397	0.000320
Br230	Br	0.308982	0.041603	0.250320
Br231	Br	0.558982	0.291603	0.500320
Br232	Br	0.808982	0.541603	0.750320
H233	H	0.026680	-0.051894	0.000445
H234	H	0.276680	0.198106	0.250445
H235	H	0.526680	0.448106	0.500445
H236	H	0.776680	0.698106	0.750445
H237	H	-0.155248	-0.762300	-0.518812
H238	H	0.094752	-0.512300	-0.268812
H239	H	0.344752	-0.262300	-0.018812
H240	H	0.594752	-0.012300	0.231188
H241	H	-0.210753	-0.465002	0.000437
H242	H	0.039247	-0.215002	0.250437
H243	H	0.289247	0.034998	0.500437
H244	H	0.539247	0.284998	0.750437
H245	H	-0.733504	-0.942250	0.000402
H246	H	-0.483504	-0.692250	0.250402
H247	H	-0.233504	-0.442250	0.500402
H248	H	0.016496	-0.192250	0.750402
Br249	Br	-0.880758	-0.979033	0.000361
Br250	Br	-0.630758	-0.729033	0.250361
Br251	Br	-0.380758	-0.479033	0.500361
Br252	Br	-0.130758	-0.229033	0.750361
H253	H	-0.030761	-0.886716	-0.480336
H254	H	0.219239	-0.636716	-0.230336
H255	H	0.469239	-0.386716	0.019664
H256	H	0.719239	-0.136716	0.269664
Br257	Br	-0.749273	-0.676515	0.000293
Br258	Br	-0.499273	-0.426515	0.250293
Br259	Br	-0.249273	-0.176515	0.500293
Br260	Br	0.000727	0.073485	0.750293
Br261	Br	0.052439	-0.652408	0.000220
Br262	Br	0.302439	-0.402408	0.250220
Br263	Br	0.552439	-0.152408	0.500220
Br264	Br	0.802439	0.097592	0.750220
H265	H	-0.206157	-0.153102	0.000495
H266	H	0.043843	0.096898	0.250495
H267	H	0.293843	0.346898	0.500495
H268	H	0.543843	0.596898	0.750495
Br269	Br	0.054966	-0.480758	0.000264
Br270	Br	0.304966	-0.230758	0.250264
Br271	Br	0.554966	0.019242	0.500264
Br272	Br	0.804966	0.269242	0.750264
H273	H	-0.320398	-0.704817	0.000505
H274	H	-0.070398	-0.454817	0.250505
H275	H	0.179602	-0.204817	0.500505
H276	H	0.429602	0.045183	0.750505
Br277	Br	-0.238460	0.003400	0.000538
Br278	Br	0.011540	0.253400	0.250538
Br279	Br	0.261540	0.503400	0.500538
Br280	Br	0.511540	0.753400	0.750538
Br281	Br	-0.436739	-0.972494	0.000556
Br282	Br	-0.186739	-0.722494	0.250556
Br283	Br	0.063261	-0.472494	0.500556
Br284	Br	0.313261	-0.222494	0.750556
Br285	Br	-0.476907	-0.672510	0.000421
Br286	Br	-0.226907	-0.422510	0.250421
Br287	Br	0.023093	-0.172510	0.500421
Br288	Br	0.273093	0.077490	0.750421
H289	H	-0.289479	-0.935718	0.000616
H290	H	-0.039479	-0.685718	0.250616
H291	H	0.210521	-0.435718	0.500616
H292	H	0.460521	-0.185718	0.750616
H293	H	-0.896529	-0.713299	0.000267
H294	H	-0.646529	-0.463299	0.250267
H295	H	-0.396529	-0.213299	0.500267
H296	H	-0.146529	0.036701	0.750267
