data_functionalizedCrystal
_audit_creation_method	'MofGen! by Chris Wilmer'
_symmetry_space_group_name_H-M	'P1'
_symmetry_Int_Tables_number	1
_symmetry_cell_setting	triclinic
loop_
_symmetry_equiv_pos_as_xyz
  x,y,z
_cell_length_a	14.044220
_cell_length_b	27.732048
_cell_length_c	13.101039
_cell_angle_alpha	93.329410
_cell_angle_beta	86.340132
_cell_angle_gamma	87.915767
loop_
_atom_site_label
_atom_site_type_symbol
_atom_site_fract_x
_atom_site_fract_y
_atom_site_fract_z
O1	O	1.261246	0.114020	-0.085126
O2	O	0.985339	0.109817	-0.085151
O3	O	1.131860	0.041925	-0.085119
O4	O	1.114725	0.181913	-0.085159
O5	O	1.121348	0.046805	0.085309
O6	O	0.974827	0.114697	0.085276
O7	O	1.250733	0.118900	0.085301
Zn8	Zn	1.111111	0.117574	0.112348
Zn9	Zn	1.124962	0.111144	-0.112198
O10	O	1.104212	0.186793	0.085268
C11	C	0.944796	0.110418	0.000059
C12	C	0.839651	0.104930	0.000051
C13	C	0.647135	0.094899	0.000074
C14	C	0.588932	0.133816	0.000067
C15	C	0.481810	0.128235	0.000080
C16	C	0.754268	0.100480	0.000061
C17	C	1.126244	0.026341	0.000098
C18	C	1.125160	-0.027364	0.000106
C19	C	1.204929	-0.362438	0.000061
C20	C	1.200910	-0.564286	0.000046
O21	O	1.273853	-0.592120	0.000008
N22	N	1.114029	-0.587487	0.000039
C23	C	1.028146	-0.560223	0.000029
O24	O	0.954156	-0.584589	0.000012
C25	C	1.032166	-0.358376	0.000037
C26	C	1.119052	-0.335177	0.000054
C27	C	1.291808	-0.339239	0.000077
C28	C	1.292812	-0.288779	0.000086
C29	C	1.206935	-0.261519	0.000079
C30	C	1.120056	-0.284718	0.000063
C31	C	0.946285	-0.331113	0.000019
C32	C	0.947297	-0.280648	0.000018
C33	C	1.034184	-0.257449	0.000036
C34	C	1.035183	-0.206998	0.000066
N35	N	1.122064	-0.183797	0.000072
C36	C	1.207941	-0.211057	0.000079
C37	C	1.026042	-0.666196	0.000027
C38	C	1.025036	-0.716658	0.000027
C39	C	1.197801	-0.720717	0.000043
C40	C	1.198805	-0.670255	0.000050
C41	C	1.112923	-0.642995	0.000034
C42	C	1.210041	-0.105089	0.000100
C43	C	1.211037	-0.054625	0.000113
C44	C	1.038273	-0.050570	0.000093
C45	C	1.037276	-0.101030	0.000085
C46	C	1.123168	-0.128288	0.000085
O47	O	0.962280	-0.179134	0.000092
O48	O	1.281921	-0.186683	0.000073
C49	C	1.203925	-0.412897	0.000052
C50	C	1.117046	-0.436096	0.000035
C51	C	1.031169	-0.408835	0.000029
C52	C	1.116040	-0.486557	0.000035
C53	C	1.201917	-0.513818	0.000042
C54	C	1.288798	-0.490617	0.000049
C55	C	1.289802	-0.440157	0.000059
C56	C	0.944288	-0.432037	0.000022
C57	C	0.943292	-0.482496	0.000013
C58	C	1.029168	-0.509756	0.000020
C59	C	1.291277	0.118300	0.000088
C60	C	1.396422	0.123787	0.000090
C61	C	1.109828	0.202376	0.000050
C62	C	1.110913	0.256082	0.000034
N63	N	1.101664	0.121962	0.265594
N64	N	1.134415	0.106752	-0.265444
C65	C	1.088813	0.127936	0.474634
C66	C	1.147264	0.100779	0.525523
C67	C	1.140113	0.104104	0.641839
C68	C	1.095962	0.124612	0.358306
H69	H	1.281793	-0.035739	0.000130
C70	C	1.222131	0.066001	0.466372
C71	C	1.229225	0.062657	0.348373
C72	C	1.304092	0.027882	0.289217
C73	C	1.371863	-0.003550	0.348060
C74	C	1.364771	-0.000207	0.466066
C75	C	1.289905	0.034568	0.525222
H76	H	1.179055	0.085925	0.304808
H77	H	1.309341	0.025407	0.201861
H78	H	1.427284	-0.029293	0.304269
H79	H	1.414941	-0.023476	0.509631
H80	H	1.284655	0.037042	0.612578
C81	C	1.013963	0.162720	0.533780
C82	C	1.006209	0.165697	0.651775
C83	C	0.931364	0.200482	0.710934
C84	C	0.864271	0.232291	0.652099
C85	C	0.872023	0.229316	0.534097
C86	C	0.946868	0.194530	0.474937
H87	H	1.055877	0.142149	0.695335
H88	H	0.925626	0.202685	0.798288
H89	H	0.808866	0.258041	0.695892
H90	H	0.822355	0.252864	0.490537
H91	H	0.952606	0.192328	0.387584
H92	H	0.619555	0.171325	0.000051
H93	H	0.616514	0.057393	0.000090
C94	C	1.304521	-0.135068	0.000108
C95	C	1.370452	-0.127273	0.088622
C96	C	1.464930	-0.157252	0.088639
C97	C	1.493477	-0.195026	0.000142
C98	C	1.427545	-0.202823	-0.088379
C99	C	1.333067	-0.172844	-0.088396
H100	H	1.349321	-0.099308	0.154140
H101	H	1.513738	-0.151480	0.154169
H102	H	1.563416	-0.217219	0.000154
H103	H	1.448676	-0.230788	-0.153896
H104	H	1.284259	-0.178617	-0.153926
H105	H	1.361743	-0.361429	0.000079
C106	C	1.294381	-0.644738	0.000060
C107	C	1.360046	-0.650827	0.088565
C108	C	1.455627	-0.625314	0.088573
C109	C	1.485542	-0.593712	0.000075
C110	C	1.419875	-0.587623	-0.088437
C111	C	1.324295	-0.613136	-0.088444
H112	H	1.337902	-0.674221	0.154082
H113	H	1.504237	-0.629822	0.154096
H114	H	1.556296	-0.574826	0.000081
H115	H	1.442019	-0.564228	-0.153954
H116	H	1.275684	-0.608627	-0.153967
C117	C	0.931561	-0.636216	0.000024
C118	C	0.865611	-0.644013	-0.088472
C119	C	0.771129	-0.614035	-0.088467
C120	C	0.742598	-0.576260	0.000033
C121	C	0.808550	-0.568461	0.088536
C122	C	0.903031	-0.598439	0.088532
H123	H	0.886730	-0.671978	-0.153992
H124	H	0.722307	-0.619809	-0.153984
H125	H	0.672657	-0.554069	0.000037
H126	H	0.787431	-0.540496	0.154056
H127	H	0.951853	-0.592665	0.154048
H128	H	0.875533	-0.349993	-0.000001
H129	H	1.363564	-0.269896	0.000096
H130	H	0.877360	-0.258456	0.000004
H131	H	1.267725	-0.742921	0.000049
H132	H	0.954283	-0.735541	0.000031
H133	H	0.966524	-0.119918	0.000099
H134	H	0.968354	-0.028365	0.000091
H135	H	1.360554	-0.421273	0.000072
H136	H	1.358722	-0.512821	0.000060
H137	H	0.872532	-0.501380	0.000008
C138	C	0.849815	-0.402055	0.000024
C139	C	0.783863	-0.409848	-0.088472
C140	C	0.689382	-0.379869	-0.088461
C141	C	0.660852	-0.342098	0.000048
C142	C	0.726805	-0.334304	0.088551
C143	C	0.821287	-0.364282	0.088540
H144	H	0.804981	-0.437810	-0.153998
H145	H	0.640559	-0.385640	-0.153977
H146	H	0.590911	-0.319906	0.000057
H147	H	0.705687	-0.306342	0.154077
H148	H	0.870109	-0.358512	0.154056
