data_functionalizedCrystal
_audit_creation_method	'MofGen! by Chris Wilmer'
_symmetry_space_group_name_H-M	'P1'
_symmetry_Int_Tables_number	1
_symmetry_cell_setting	triclinic
loop_
_symmetry_equiv_pos_as_xyz
  x,y,z
_cell_length_a	16.109301
_cell_length_b	16.053802
_cell_length_c	16.109301
_cell_angle_alpha	87.436620
_cell_angle_beta	83.461481
_cell_angle_gamma	92.577771
loop_
_atom_site_label
_atom_site_type_symbol
_atom_site_fract_x
_atom_site_fract_y
_atom_site_fract_z
O1	O	1.106638	0.069379	0.103368
O2	O	0.864576	0.069392	0.116667
O3	O	0.992256	0.069377	-0.011013
O4	O	0.978958	0.069395	0.231048
O5	O	0.985228	-0.069481	-0.004014
O6	O	0.857549	-0.069466	0.123666
O7	O	1.099610	-0.069479	0.110367
Zn8	Zn	0.977463	-0.091519	0.118128
Zn9	Zn	0.986723	0.091432	0.108906
O10	O	0.971930	-0.069464	0.238047
C11	C	0.830088	-0.000035	0.119628
C12	C	0.737793	-0.000030	0.118012
N13	N	0.971150	-0.216379	0.124420
C14	C	0.515520	-0.000034	0.190020
C15	C	0.428799	-0.000040	0.188496
C16	C	0.448673	-0.000048	0.037008
C17	C	0.535392	-0.000048	0.038533
C18	C	0.568813	-0.000037	0.115041
C19	C	0.395374	-0.000042	0.111992
C20	C	0.301347	-0.000048	0.110340
C21	C	0.662845	-0.000033	0.116694
C22	C	1.025498	-0.260079	0.070112
C23	C	1.021089	-0.347485	0.074522
C24	C	0.962337	-0.391189	0.133245
C25	C	0.907983	-0.347483	0.187556
C26	C	0.912388	-0.260078	0.183141
C27	C	0.943094	-0.652597	0.152504
C28	C	0.938695	-0.740008	0.156916
C29	C	1.051801	-0.740004	0.043880
C30	C	1.056204	-0.652598	0.039474
C31	C	1.001848	-0.608899	0.093782
N32	N	0.957831	-0.480533	0.137755
N33	N	1.006350	-0.519557	0.089267
C34	C	1.134099	-0.000050	0.107406
C35	C	1.226394	-0.000049	0.109021
C36	C	0.988204	-0.000053	-0.038488
C37	C	0.986588	-0.000054	-0.130784
N38	N	0.993043	0.216292	0.102607
C39	C	1.058597	-0.000045	-0.353057
C40	C	1.057073	-0.000038	-0.439777
C41	C	0.905584	-0.000032	-0.419903
C42	C	0.907109	-0.000033	-0.333184
C43	C	0.983618	-0.000044	-0.299763
C44	C	0.980569	-0.000036	-0.473203
C45	C	0.978916	-0.000028	-0.567229
C46	C	0.985271	-0.000050	-0.205731
C47	C	0.975983	-0.000032	0.265522
C48	C	0.977598	-0.000026	0.357817
H49	H	0.542728	-0.000032	0.252318
Br50	Br	0.403311	-0.000059	-0.066820
H51	H	0.846049	-0.000030	-0.289791
Br52	Br	1.105244	-0.200776	-0.009582
Br53	Br	0.356475	-0.000040	0.290258
Br54	Br	1.125565	-0.799313	-0.029822
Br55	Br	0.858955	-0.799315	0.236622
Br56	Br	0.607724	-0.000062	-0.063231
H57	H	1.065343	-0.383066	0.030299
Br58	Br	0.869329	-0.593296	0.226207
Br59	Br	1.135944	-0.593284	-0.040218
H60	H	0.860141	-0.383072	0.235367
H61	H	1.120895	-0.000051	-0.325848
Br62	Br	0.838622	-0.200770	0.256844
Br63	Br	1.158835	-0.000034	-0.512102
Br64	Br	0.801757	-0.000016	-0.465266
