data_functionalizedCrystal
_audit_creation_method	'MofGen! by Chris Wilmer'
_symmetry_space_group_name_H-M	'P1'
_symmetry_Int_Tables_number	1
_symmetry_cell_setting	triclinic
loop_
_symmetry_equiv_pos_as_xyz
  x,y,z
_cell_length_a	12.827893
_cell_length_b	16.625545
_cell_length_c	12.827885
_cell_angle_alpha	90.033025
_cell_angle_beta	90.019462
_cell_angle_gamma	90.025528
loop_
_atom_site_label
_atom_site_type_symbol
_atom_site_fract_x
_atom_site_fract_y
_atom_site_fract_z
Zn1	Zn	1.597598	-0.320962	0.590827
Zn2	Zn	2.097598	0.179038	1.090827
Zn3	Zn	1.597460	-0.455816	0.416078
Zn4	Zn	2.097460	0.044184	0.916078
Zn5	Zn	1.422839	-0.321001	0.416100
Zn6	Zn	1.922839	0.178999	0.916100
Zn7	Zn	1.422793	-0.455756	0.590777
Zn8	Zn	1.922793	0.044244	1.090777
O9	O	1.510172	-0.388384	0.503445
O10	O	2.010172	0.111616	1.003445
O11	O	1.743816	-0.338859	0.567657
O12	O	2.243816	0.161141	1.067657
O13	O	1.574258	-0.437975	0.269844
O14	O	2.074258	0.062025	0.769844
O15	O	1.446097	-0.208164	0.439308
O16	O	1.946097	0.291836	0.939308
O17	O	1.743715	-0.437936	0.439269
O18	O	2.243715	0.062064	0.939269
O19	O	1.574492	-0.208135	0.567679
O20	O	2.074492	0.291865	1.067679
O21	O	1.445964	-0.338927	0.269861
O22	O	1.945964	0.161073	0.769861
O23	O	1.276597	-0.338868	0.439260
O24	O	1.776597	0.161132	0.939260
O25	O	1.446020	-0.437833	0.737020
O26	O	1.946020	0.062167	1.237020
O27	O	1.276563	-0.437872	0.567595
O28	O	1.776563	0.062128	1.067595
O29	O	1.574448	-0.338801	0.737056
O30	O	2.074448	0.161199	1.237056
O31	O	1.574214	-0.568641	0.439222
O32	O	2.074214	-0.068641	0.939222
O33	O	1.445887	-0.568596	0.567573
O34	O	1.945887	-0.068596	1.067573
C35	C	1.238663	-0.388368	0.503426
C36	C	1.738663	0.111632	1.003426
C37	C	1.122509	-0.388381	0.503442
C38	C	1.622509	0.111619	1.003442
C39	C	0.950669	-0.339340	0.440069
C40	C	1.450669	0.160660	0.940069
C41	C	1.070720	-0.339326	0.440050
C42	C	1.570720	0.160674	0.940050
C43	C	1.510059	-0.597875	0.503413
C44	C	2.010059	-0.097875	1.003413
C45	C	1.510106	-0.687496	0.503433
C46	C	2.010106	-0.187496	1.003433
C47	C	1.510147	-0.760278	0.503454
C48	C	2.010147	-0.260278	1.003454
C49	C	1.510207	-0.851587	0.503477
C50	C	2.010207	-0.351587	1.003477
C51	C	1.510262	-0.924363	0.503490
C52	C	2.010262	-0.424363	1.003490
C53	C	1.510321	-1.015677	0.503512
C54	C	2.010321	-0.515677	1.003512
C55	C	1.782743	-0.388400	0.503466
C56	C	2.282743	0.111600	1.003466
C57	C	1.898896	-0.388407	0.503475
C58	C	2.398896	0.111593	1.003475
C59	C	1.510245	-0.388306	0.776016
C60	C	2.010245	0.111694	1.276016
C61	C	1.510275	-0.388272	0.892169
C62	C	2.010275	0.111728	1.392169
C63	C	1.510315	-0.178075	0.503501
C64	C	2.010315	0.321925	1.003501
C65	C	1.510376	-0.088454	0.503525
C66	C	2.010376	0.411546	1.003525
C67	C	1.510161	-0.388404	0.231935
C68	C	2.010161	0.111596	0.731935
C69	C	1.510333	-0.388210	0.115783
C70	C	2.010333	0.111790	0.615783
C71	C	1.446745	-0.437257	0.943936
C72	C	1.946745	0.062743	1.443936
C73	C	1.446776	-0.437224	1.063986
C74	C	1.946776	0.062776	1.563986
H75	H	1.392337	-0.479222	0.899379
H76	H	1.892337	0.020778	1.399379
O77	O	0.897368	-0.289306	0.375360
O78	O	1.397368	0.210694	0.875360
C79	C	0.789370	-0.300446	0.389801
C80	C	1.289370	0.199554	0.889801
H81	H	0.774559	-0.362716	0.423894
H82	H	1.274559	0.137284	0.923894
H83	H	0.747774	-0.294932	0.311585
H84	H	1.247774	0.205068	0.811585
H85	H	0.758446	-0.252698	0.445601
H86	H	1.258446	0.247302	0.945601
O87	O	1.123943	-0.289321	0.375234
O88	O	1.623943	0.210679	0.875234
C89	C	1.187007	-0.335205	0.307664
C90	C	1.687007	0.164795	0.807664
H91	H	1.203244	-0.396353	0.344394
H92	H	1.703244	0.103647	0.844394
H93	H	1.263810	-0.302396	0.293791
H94	H	1.763810	0.197604	0.793791
H95	H	1.144964	-0.343968	0.230170
H96	H	1.644964	0.156032	0.730170
H97	H	1.392379	-0.479156	1.108505
H98	H	1.892379	0.020844	1.608505
O99	O	1.575260	-0.338097	1.062850
O100	O	2.075260	0.161903	1.562850
C101	C	1.634381	-0.292534	1.134328
C102	C	2.134381	0.207466	1.634328
H103	H	1.591671	-0.289664	1.212157
H104	H	2.091671	0.210336	1.712157
H105	H	1.645536	-0.229037	1.102730
H106	H	2.145536	0.270963	1.602730
H107	H	1.713740	-0.322056	1.145895
H108	H	2.213740	0.177944	1.645895
H109	H	1.564691	-0.346313	0.936726
H110	H	2.064691	0.153687	1.436726
H111	H	0.943447	-0.430400	0.557750
H112	H	1.443447	0.069600	1.057750
O113	O	1.069522	-0.438459	0.568356
O114	O	1.569522	0.061541	1.068356
C115	C	1.096153	-0.420931	0.672570
C116	C	1.596153	0.079069	1.172570
H117	H	1.175441	-0.389984	0.674865
H118	H	1.675441	0.110016	1.174865
H119	H	1.099775	-0.479166	0.719303
H120	H	1.599775	0.020834	1.219303
H121	H	1.034780	-0.379471	0.707811
H122	H	1.534780	0.120529	1.207811
