data_functionalizedCrystal
_audit_creation_method	'MofGen! by Chris Wilmer'
_symmetry_space_group_name_H-M	'P1'
_symmetry_Int_Tables_number	1
_symmetry_cell_setting	triclinic
loop_
_symmetry_equiv_pos_as_xyz
  x,y,z
_cell_length_a	12.784890
_cell_length_b	15.944493
_cell_length_c	11.295483
_cell_angle_alpha	94.100278
_cell_angle_beta	86.328828
_cell_angle_gamma	78.290801
loop_
_atom_site_label
_atom_site_type_symbol
_atom_site_fract_x
_atom_site_fract_y
_atom_site_fract_z
O1	O	1.417475	-0.000922	-0.098988
O2	O	1.108013	0.035052	-0.098993
O3	O	1.271228	-0.105834	-0.099001
O4	O	1.254261	0.139964	-0.098981
O5	O	1.256892	-0.093477	0.099051
O6	O	1.093678	0.047409	0.099058
O7	O	1.403140	0.011434	0.099063
Cu8	Cu	1.247100	0.030550	0.117144
Cu9	Cu	1.264053	0.015937	-0.117075
O10	O	1.239925	0.152321	0.099070
C11	C	1.061246	0.043571	0.000031
C12	C	0.943250	0.050532	0.000028
C13	C	0.764257	0.137784	0.000034
C14	C	0.875123	0.131248	0.000033
C15	C	0.900505	-0.023653	0.000021
C16	C	0.789639	-0.017118	0.000021
C17	C	0.721518	0.063604	0.000030
C18	C	0.610649	0.070140	0.000039
C19	C	0.636033	-0.084762	0.000017
C20	C	0.746900	-0.091298	0.000017
C21	C	1.263367	-0.130900	0.000020
C22	C	1.261289	-0.223997	0.000005
C23	C	1.357359	-0.466778	0.000029
C24	C	1.312619	-0.519652	-0.097621
C25	C	1.257436	-0.394436	0.000019
C26	C	1.298463	-0.507443	0.097642
C27	C	1.253721	-0.559073	0.000039
C28	C	1.212729	-0.446089	-0.097711
C29	C	1.198581	-0.433872	0.097640
C30	C	1.153769	-0.486710	-0.000034
C31	C	1.259579	-0.299593	0.000007
C32	C	1.251571	-0.653913	0.000042
C33	C	1.449908	0.002916	0.000036
C34	C	1.567903	-0.004046	0.000031
C35	C	1.247786	0.177386	0.000047
C36	C	1.249865	0.270484	0.000054
N37	N	1.235184	0.040827	0.281881
N38	N	1.275978	0.005652	-0.281811
C39	C	1.361759	-0.068376	0.531165
C40	C	1.352761	-0.060604	0.655829
C41	C	1.208186	0.064139	0.655875
C42	C	1.217184	0.056367	0.531211
C43	C	1.293973	-0.009892	0.468861
C44	C	1.302976	-0.017660	0.344194
C45	C	1.158396	0.107079	0.344243
C46	C	1.149399	0.114851	0.468907
H47	H	0.909916	0.191654	0.000039
H48	H	1.103204	0.154703	0.293500
N49	N	0.541078	0.152598	0.000058
N50	N	0.579257	0.218823	0.000062
H51	H	0.530125	0.277062	0.000074
N52	N	0.694681	0.220242	0.000064
N53	N	0.732854	0.286470	0.000082
H54	H	0.683718	0.344709	0.000106
N55	N	0.970114	-0.106097	-0.000013
N56	N	1.069099	-0.111917	-0.000030
H57	H	1.118264	-0.170143	-0.000058
N58	N	1.070951	0.182518	0.532605
N59	N	0.999957	0.164992	0.602175
H60	H	0.944552	0.212783	0.647162
N61	N	1.138197	-0.387221	0.201217
N62	N	1.164954	-0.404795	0.302538
H63	H	1.122315	-0.371848	0.375700
H64	H	0.802378	-0.157019	0.000006
N65	N	1.381395	-0.085341	0.280483
N66	N	1.389419	-0.092275	0.169177
H67	H	1.444802	-0.140078	0.124181
H68	H	1.424291	-0.122322	0.480398
H69	H	1.443437	-0.457446	-0.000068
H70	H	0.601231	-0.145171	-0.000081
H71	H	1.360794	-0.556833	-0.180176
H72	H	1.407957	-0.108229	0.706554
H73	H	1.176536	-0.419343	-0.180355
N74	N	1.129748	0.131802	0.719595
N75	N	1.121722	0.138723	0.830901
H76	H	1.066324	0.186510	0.875906
H77	H	1.067635	-0.495883	-0.000089
N78	N	1.343939	-0.541144	0.201197
N79	N	1.439019	-0.539158	0.218568
H80	H	1.471146	-0.562958	0.291698
