data_functionalizedCrystal
_audit_creation_method	'MofGen! by Chris Wilmer'
_symmetry_space_group_name_H-M	'P1'
_symmetry_Int_Tables_number	1
_symmetry_cell_setting	triclinic
loop_
_symmetry_equiv_pos_as_xyz
  x,y,z
_cell_length_a	25.639239
_cell_length_b	12.594517
_cell_length_c	12.594509
_cell_angle_alpha	90.025818
_cell_angle_beta	89.965872
_cell_angle_gamma	89.966377
loop_
_atom_site_label
_atom_site_type_symbol
_atom_site_fract_x
_atom_site_fract_y
_atom_site_fract_z
Zn1	Zn	-0.208206	-1.627100	-0.601944
Zn2	Zn	-0.295648	-1.626920	-0.423947
Zn3	Zn	-0.208221	-1.449103	-0.423959
Zn4	Zn	-0.295604	-1.449015	-0.601863
O5	O	-0.251920	-1.538035	-0.512928
O6	O	-0.219817	-1.776022	-0.578361
O7	O	-0.284075	-1.603294	-0.275003
O8	O	-0.135053	-1.472827	-0.447608
O9	O	-0.284061	-1.775890	-0.447588
O10	O	-0.135042	-1.603600	-0.578373
O11	O	-0.219843	-1.472653	-0.275011
O12	O	-0.219800	-1.300146	-0.447529
O13	O	-0.283986	-1.472677	-0.750820
O14	O	-0.284000	-1.300081	-0.578235
O15	O	-0.219775	-1.603515	-0.750879
O16	O	-0.368807	-1.603209	-0.447509
O17	O	-0.368775	-1.472503	-0.578223
C18	C	-0.251898	-1.261494	-0.512875
C19	C	-0.251901	-1.143188	-0.512878
C20	C	-0.387762	-1.537856	-0.512879
C21	C	-0.445876	-1.537876	-0.512894
C22	C	-0.216932	-1.073939	-0.441917
C23	C	-0.264621	-1.003090	-0.415722
C24	C	-0.204226	-1.003239	-0.539075
C25	C	-0.299615	-1.073897	-0.486631
C26	C	-0.239188	-1.074052	-0.610030
C27	C	-0.286910	-1.003234	-0.583871
C28	C	-0.806243	-1.606271	-0.444981
C29	C	-0.860848	-1.606312	-0.444996
O30	O	-0.889088	-1.664278	-0.387200
N31	N	-0.888159	-1.538222	-0.512999
C32	C	-0.860862	-1.470093	-0.581000
O33	O	-0.889106	-1.412182	-0.638844
C34	C	-0.806259	-1.470058	-0.580990
C35	C	-0.778951	-1.538145	-0.512975
C36	C	-0.778935	-1.674353	-0.376972
C37	C	-0.724335	-1.674310	-0.376957
C38	C	-0.697042	-1.606185	-0.444951
C39	C	-0.724350	-1.538102	-0.512959
C40	C	-0.778964	-1.401936	-0.648996
C41	C	-0.724357	-1.401907	-0.648981
C42	C	-0.697049	-1.469994	-0.580965
C43	C	-0.642458	-1.469934	-0.580938
N44	N	-0.615147	-1.538024	-0.512934
C45	C	-0.642439	-1.606150	-0.444941
C46	C	-0.975533	-1.470174	-0.581016
C47	C	-1.030135	-1.470202	-0.581021
C48	C	-1.030117	-1.606423	-0.445018
C49	C	-0.975513	-1.606388	-0.445008
C50	C	-0.948222	-1.538264	-0.513013
C51	C	-0.527774	-1.606054	-0.444913
C52	C	-0.473169	-1.606002	-0.444901
C53	C	-0.473192	-1.469786	-0.580907
C54	C	-0.527792	-1.469833	-0.580916
C55	C	-0.555082	-1.537976	-0.512916
O56	O	-0.614183	-1.412001	-0.638707
O57	O	-0.614188	-1.664062	-0.387116
C58	C	-0.115547	-1.538243	-0.513000
C59	C	-0.057432	-1.538332	-0.513031
C60	C	-0.251874	-1.538106	-0.790549
C61	C	-0.251854	-1.538136	-0.908855
C62	C	-0.251932	-0.815655	-0.512962
C63	C	-0.251910	-0.933961	-0.512927
C64	C	-0.286759	-1.466996	-0.978076
C65	C	-0.299538	-1.564106	-1.048871
C66	C	-0.239044	-1.441102	-1.048859
C67	C	-0.264658	-1.635297	-0.978092
C68	C	-0.204142	-1.512227	-0.978073
C69	C	-0.216903	-1.609405	-1.048837
C70	C	-0.251927	-1.538025	-0.236387
C71	C	-0.251800	-1.538201	-0.118082
H72	H	-0.187392	-1.104984	-0.381841
N73	N	-0.278272	-1.738314	-0.939273
N74	N	-0.247054	-1.788483	-0.881905
H75	H	-0.256668	-1.861239	-0.854489
N76	N	-0.278117	-0.964003	-0.312675
N77	N	-0.250333	-0.986647	-0.234363
H78	H	-0.259862	-0.959047	-0.161583
N79	N	-0.225669	-1.113211	-0.713030
N80	N	-0.223885	-1.210999	-0.729653
H81	H	-0.214331	-1.238660	-0.802397
H82	H	-0.228231	-1.359014	-1.079944
N83	N	-0.153574	-1.484651	-0.939003
N84	N	-0.145424	-1.480991	-0.841229
H85	H	-0.109710	-1.461504	-0.813631
H86	H	-0.450962	-1.414316	-0.636264
H87	H	-0.339948	-1.104806	-0.464403
N88	N	-0.324058	-0.964542	-0.659176
N89	N	-0.371245	-0.987399	-0.649253
H90	H	-0.397483	-0.960072	-0.702434
N91	N	-0.555682	-1.400261	-0.650379
N92	N	-0.531305	-1.339432	-0.711073
H93	H	-0.550998	-1.290298	-0.760137
N94	N	-0.323849	-1.391588	-0.939106
N95	N	-0.371058	-1.401305	-0.961816
H96	H	-0.397254	-1.348052	-0.934294
H97	H	-0.163910	-0.972144	-0.561175
N98	N	-0.445283	-1.675556	-0.375409
N99	N	-0.469662	-1.736376	-0.314708
H100	H	-0.449970	-1.785498	-0.265630
N101	N	-0.696472	-1.332314	-0.718431
N102	N	-0.647720	-1.332278	-0.718413
H103	H	-0.628026	-1.283126	-0.767459
H104	H	-0.187362	-1.669663	-1.079710
N105	N	-0.696452	-1.743869	-0.307475
N106	N	-0.720836	-1.804686	-0.246779
H107	H	-0.701148	-1.853819	-0.197706
H108	H	-0.801151	-1.729835	-0.321604
N109	N	-0.555636	-1.675663	-0.375445
N110	N	-0.531239	-1.736438	-0.314729
H111	H	-0.550916	-1.785595	-0.265661
H112	H	-1.052348	-1.661898	-0.389658
N113	N	-0.947630	-1.675941	-0.375524
N114	N	-0.972011	-1.736753	-0.314819
H115	H	-0.952321	-1.785879	-0.265742
N116	N	-1.058018	-1.400629	-0.650487
N117	N	-1.033637	-1.339807	-0.711182
H118	H	-1.053327	-1.290670	-0.760248
H119	H	-0.953315	-1.414690	-0.636390
H120	H	-0.801189	-1.346487	-0.704376
H121	H	-0.339864	-1.586055	-1.079969
