data_functionalizedCrystal
_audit_creation_method	'MofGen! by Chris Wilmer'
_symmetry_space_group_name_H-M	'P1'
_symmetry_Int_Tables_number	1
_symmetry_cell_setting	triclinic
loop_
_symmetry_equiv_pos_as_xyz
  x,y,z
_cell_length_a	29.839134
_cell_length_b	29.839131
_cell_length_c	29.839125
_cell_angle_alpha	89.974637
_cell_angle_beta	89.978020
_cell_angle_gamma	90.030088
loop_
_atom_site_label
_atom_site_type_symbol
_atom_site_fract_x
_atom_site_fract_y
_atom_site_fract_z
Zn1	Zn	0.686739	-0.178978	-0.254101
Zn2	Zn	0.936739	0.071022	-0.004101
Zn3	Zn	1.186739	0.321022	0.245899
Zn4	Zn	1.436739	0.571022	0.495899
Zn5	Zn	0.686679	-0.254090	-0.178961
Zn6	Zn	0.936679	-0.004090	0.071039
Zn7	Zn	1.186679	0.245910	0.321039
Zn8	Zn	1.436679	0.495910	0.571039
Zn9	Zn	0.611622	-0.178968	-0.178971
Zn10	Zn	0.861622	0.071032	0.071029
Zn11	Zn	1.111622	0.321032	0.321029
Zn12	Zn	1.361622	0.571032	0.571029
Zn13	Zn	0.611578	-0.254075	-0.254049
Zn14	Zn	0.861578	-0.004075	-0.004049
Zn15	Zn	1.111578	0.245925	0.245951
Zn16	Zn	1.361578	0.495925	0.495951
O17	O	0.649154	-0.216528	-0.216521
O18	O	0.899154	0.033472	0.033479
O19	O	1.149154	0.283472	0.283479
O20	O	1.399154	0.533472	0.533479
O21	O	0.749598	-0.188952	-0.244151
O22	O	0.999598	0.061048	0.005849
O23	O	1.249598	0.311048	0.255849
O24	O	1.499598	0.561048	0.505849
O25	O	0.676716	-0.244127	-0.116095
O26	O	0.926716	0.005873	0.133905
O27	O	1.176716	0.255873	0.383905
O28	O	1.426716	0.505873	0.633905
O29	O	0.621630	-0.116102	-0.188963
O30	O	0.871630	0.133898	0.061037
O31	O	1.121630	0.383898	0.311037
O32	O	1.371630	0.633898	0.561037
O33	O	0.749554	-0.244137	-0.188946
O34	O	0.999554	0.005863	0.061054
O35	O	1.249554	0.255863	0.311054
O36	O	1.499554	0.505863	0.561054
O37	O	0.676818	-0.116109	-0.244161
O38	O	0.926818	0.133891	0.005839
O39	O	1.176818	0.383891	0.255839
O40	O	1.426818	0.633891	0.505839
O41	O	0.621572	-0.188935	-0.116102
O42	O	0.871572	0.061065	0.133898
O43	O	1.121572	0.311065	0.383898
O44	O	1.371572	0.561065	0.633898
O45	O	0.548749	-0.188921	-0.188912
O46	O	0.798749	0.061079	0.061088
O47	O	1.048749	0.311079	0.311088
O48	O	1.298749	0.561079	0.561088
O49	O	0.621554	-0.244111	-0.316923
O50	O	0.871554	0.005889	-0.066923
O51	O	1.121554	0.255889	0.183077
O52	O	1.371554	0.505889	0.433077
O53	O	0.548716	-0.244101	-0.244072
O54	O	0.798716	0.005899	0.005928
O55	O	1.048716	0.255899	0.255928
O56	O	1.298716	0.505899	0.505928
O57	O	0.676775	-0.188937	-0.316961
O58	O	0.926775	0.061063	-0.066961
O59	O	1.176775	0.311063	0.183039
O60	O	1.426775	0.561063	0.433039
O61	O	0.676673	-0.316955	-0.188896
O62	O	0.926673	-0.066955	0.061104
O63	O	1.176673	0.183045	0.311104
O64	O	1.426673	0.433045	0.561104
O65	O	0.621497	-0.316944	-0.244063
O66	O	0.871497	-0.066944	0.005937
O67	O	1.121497	0.183056	0.255937
O68	O	1.371497	0.433056	0.505937
C69	C	0.532432	-0.216509	-0.216488
C70	C	0.782432	0.033491	0.033512
C71	C	1.032432	0.283491	0.283512
C72	C	1.282432	0.533491	0.533512
C73	C	0.482497	-0.216511	-0.216485
C74	C	0.732497	0.033489	0.033515
C75	C	0.982497	0.283489	0.283515
C76	C	1.232497	0.533489	0.533515
C77	C	0.172847	-0.245303	-0.245207
C78	C	0.422847	0.004697	0.004793
C79	C	0.672847	0.254697	0.254793
C80	C	0.922847	0.504697	0.504793
C81	C	-0.014827	-0.245315	-0.245227
C82	C	0.235173	0.004685	0.004773
C83	C	0.485173	0.254685	0.254773
C84	C	0.735173	0.504685	0.504773
O85	O	-0.039098	-0.269774	-0.269629
O86	O	0.210902	-0.019774	-0.019629
O87	O	0.460902	0.230226	0.230371
O88	O	0.710902	0.480226	0.480371
N89	N	-0.038288	-0.216544	-0.216554
N90	N	0.211712	0.033456	0.033446
N91	N	0.461712	0.283456	0.283446
N92	N	0.711712	0.533456	0.533446
C93	C	-0.014828	-0.187766	-0.187877
C94	C	0.235172	0.062234	0.062123
C95	C	0.485172	0.312234	0.312123
C96	C	0.735172	0.562234	0.562123
O97	O	-0.039089	-0.163291	-0.163492
O98	O	0.210911	0.086709	0.086508
O99	O	0.460911	0.336709	0.336508
O100	O	0.710911	0.586709	0.586508
C101	C	0.172844	-0.187751	-0.187859
C102	C	0.422844	0.062249	0.062141
C103	C	0.672844	0.312249	0.312141
C104	C	0.922844	0.562249	0.562141
C105	C	0.196303	-0.216527	-0.216531
C106	C	0.446303	0.033473	0.033469
C107	C	0.696303	0.283473	0.283469
C108	C	0.946303	0.533473	0.533469
C109	C	0.196305	-0.274076	-0.273877
C110	C	0.446305	-0.024076	-0.023877
C111	C	0.696305	0.225924	0.226123
C112	C	0.946305	0.475924	0.476123
C113	C	0.243221	-0.274075	-0.273870
C114	C	0.493221	-0.024075	-0.023870
C115	C	0.743221	0.225925	0.226130
C116	C	0.993221	0.475925	0.476130
C117	C	0.266677	-0.245299	-0.245193
C118	C	0.516677	0.004701	0.004807
C119	C	0.766677	0.254701	0.254807
C120	C	1.016677	0.504701	0.504807
C121	C	0.243219	-0.216526	-0.216524
C122	C	0.493219	0.033474	0.033476
C123	C	0.743219	0.283474	0.283476
C124	C	0.993219	0.533474	0.533476
C125	C	0.196303	-0.158971	-0.159184
C126	C	0.446303	0.091029	0.090816
C127	C	0.696303	0.341029	0.340816
C128	C	0.946303	0.591029	0.590816
C129	C	0.243224	-0.158969	-0.159183
C130	C	0.493224	0.091031	0.090817
C131	C	0.743224	0.341031	0.340817
C132	C	0.993224	0.591031	0.590817
C133	C	0.266683	-0.187745	-0.187855
C134	C	0.516683	0.062255	0.062145
C135	C	0.766683	0.312255	0.312145
C136	C	1.016683	0.562255	0.562145
C137	C	0.313591	-0.187749	-0.187840
C138	C	0.563591	0.062251	0.062160
C139	C	0.813591	0.312251	0.312160
C140	C	1.063591	0.562251	0.562160
N141	N	0.337052	-0.216520	-0.216513
N142	N	0.587052	0.033480	0.033487
N143	N	0.837052	0.283480	0.283487
N144	N	1.087052	0.533480	0.533487
C145	C	0.313595	-0.245295	-0.245189
C146	C	0.563595	0.004705	0.004811
C147	C	0.813595	0.254705	0.254811
C148	C	1.063595	0.504705	0.504811
C149	C	-0.113358	-0.187776	-0.187887
C150	C	0.136642	0.062224	0.062113
C151	C	0.386642	0.312224	0.312113
C152	C	0.636642	0.562224	0.562113
C153	C	-0.160276	-0.187780	-0.187891
C154	C	0.089724	0.062220	0.062109
C155	C	0.339724	0.312220	0.312109
C156	C	0.589724	0.562220	0.562109
C157	C	-0.160272	-0.245329	-0.245242
C158	C	0.089728	0.004671	0.004758
C159	C	0.339728	0.254671	0.254758
C160	C	0.589728	0.504671	0.504758
C161	C	-0.113353	-0.245327	-0.245236
C162	C	0.136647	0.004673	0.004764
C163	C	0.386647	0.254673	0.254764
C164	C	0.636647	0.504673	0.504764
C165	C	-0.089897	-0.216547	-0.216560
C166	C	0.160103	0.033453	0.033440
C167	C	0.410103	0.283453	0.283440
C168	C	0.660103	0.533453	0.533440
C169	C	0.412121	-0.245290	-0.245172
C170	C	0.662121	0.004710	0.004828
C171	C	0.912121	0.254710	0.254828
C172	C	1.162121	0.504710	0.504828
C173	C	0.459041	-0.245287	-0.245161
C174	C	0.709041	0.004713	0.004839
C175	C	0.959041	0.254713	0.254839
C176	C	1.209041	0.504713	0.504839
C177	C	0.459032	-0.187736	-0.187812
C178	C	0.709032	0.062264	0.062188
C179	C	0.959032	0.312264	0.312188
C180	C	1.209032	0.562264	0.562188
C181	C	0.412117	-0.187740	-0.187821
C182	C	0.662117	0.062260	0.062179
C183	C	0.912117	0.312260	0.312179
C184	C	1.162117	0.562260	0.562179
C185	C	0.388662	-0.216519	-0.216505
C186	C	0.638662	0.033481	0.033495
C187	C	0.888662	0.283481	0.283495
C188	C	1.138662	0.533481	0.533495
O189	O	0.337891	-0.163299	-0.163455
O190	O	0.587891	0.086701	0.086545
O191	O	0.837891	0.336701	0.336545
O192	O	1.087891	0.586701	0.586545
O193	O	0.337865	-0.269759	-0.269577
O194	O	0.587865	-0.019759	-0.019577
O195	O	0.837865	0.230241	0.230423
O196	O	1.087865	0.480241	0.480423
C197	C	0.125931	-0.245304	-0.245214
C198	C	0.375931	0.004696	0.004786
C199	C	0.625931	0.254696	0.254786
C200	C	0.875931	0.504696	0.504786
C201	C	0.102472	-0.216531	-0.216545
C202	C	0.352472	0.033469	0.033455
C203	C	0.602472	0.283469	0.283455
C204	C	0.852472	0.533469	0.533455
C205	C	0.125929	-0.187755	-0.187868
C206	C	0.375929	0.062245	0.062132
C207	C	0.625929	0.312245	0.312132
C208	C	0.875929	0.562245	0.562132
C209	C	0.055554	-0.216535	-0.216548
C210	C	0.305554	0.033465	0.033452
C211	C	0.555554	0.283465	0.283452
C212	C	0.805554	0.533465	0.533452
C213	C	0.032098	-0.245310	-0.245225
C214	C	0.282098	0.004690	0.004775
C215	C	0.532098	0.254690	0.254775
C216	C	0.782098	0.504690	0.504775
C217	C	0.055559	-0.274082	-0.273898
C218	C	0.305559	-0.024082	-0.023898
C219	C	0.555559	0.225918	0.226102
C220	C	0.805559	0.475918	0.476102
C221	C	0.102474	-0.274080	-0.273891
C222	C	0.352474	-0.024080	-0.023891
C223	C	0.602474	0.225920	0.226109
C224	C	0.852474	0.475920	0.476109
C225	C	0.102468	-0.158984	-0.159196
C226	C	0.352468	0.091016	0.090804
C227	C	0.602468	0.341016	0.340804
C228	C	0.852468	0.591016	0.590804
C229	C	0.055552	-0.158989	-0.159205
C230	C	0.305552	0.091011	0.090795
C231	C	0.555552	0.341011	0.340795
C232	C	0.805552	0.591011	0.590795
C233	C	0.032096	-0.187764	-0.187881
C234	C	0.282096	0.062236	0.062119
C235	C	0.532096	0.312236	0.312119
C236	C	0.782096	0.562236	0.562119
C237	C	0.649086	-0.333250	-0.216483
C238	C	0.899086	-0.083250	0.033517
C239	C	1.149086	0.166750	0.283517
C240	C	1.399086	0.416750	0.533517
C241	C	0.649098	-0.383185	-0.216482
C242	C	0.899098	-0.133185	0.033518
C243	C	1.149098	0.116815	0.283518
C244	C	1.399098	0.366815	0.533518
C245	C	0.677885	-0.692797	-0.245303
C246	C	0.927885	-0.442797	0.004697
C247	C	1.177885	-0.192797	0.254697
C248	C	1.427885	0.057203	0.504697
C249	C	0.677933	-0.880470	-0.245330
C250	C	0.927933	-0.630470	0.004670
C251	C	1.177933	-0.380470	0.254670
C252	C	1.427933	-0.130470	0.504670
O253	O	0.702342	-0.904708	-0.269807
O254	O	0.952342	-0.654708	-0.019807
O255	O	1.202342	-0.404708	0.230193
O256	O	1.452342	-0.154708	0.480193
N257	N	0.649231	-0.903970	-0.216570
N258	N	0.899231	-0.653970	0.033430
N259	N	1.149231	-0.403970	0.283430
N260	N	1.399231	-0.153970	0.533430
C261	C	0.620512	-0.880548	-0.187804
C262	C	0.870512	-0.630548	0.062196
C263	C	1.120512	-0.380548	0.312196
C264	C	1.370512	-0.130548	0.562196
O265	O	0.596096	-0.904843	-0.163346
O266	O	0.846096	-0.654843	0.086654
O267	O	1.096096	-0.404843	0.336654
O268	O	1.346096	-0.154843	0.586654
C269	C	0.620461	-0.692876	-0.187780
C270	C	0.870461	-0.442876	0.062220
C271	C	1.120461	-0.192876	0.312220
C272	C	1.370461	0.057124	0.562220
C273	C	0.649169	-0.669379	-0.216538
C274	C	0.899169	-0.419379	0.033462
C275	C	1.149169	-0.169379	0.283462
C276	C	1.399169	0.080621	0.533462
C277	C	0.706590	-0.669300	-0.274059
C278	C	0.956590	-0.419300	-0.024059
C279	C	1.206590	-0.169300	0.225941
C280	C	1.456590	0.080700	0.475941
C281	C	0.706579	-0.622384	-0.274051
C282	C	0.956579	-0.372384	-0.024051
C283	C	1.206579	-0.122384	0.225949
C284	C	1.456579	0.127616	0.475949
C285	C	0.677863	-0.598966	-0.245286
C286	C	0.927863	-0.348966	0.004714
C287	C	1.177863	-0.098966	0.254714
C288	C	1.427863	0.151034	0.504714
C289	C	0.649158	-0.622463	-0.216529
C290	C	0.899158	-0.372463	0.033471
C291	C	1.149158	-0.122463	0.283471
C292	C	1.399158	0.127537	0.533471
C293	C	0.591740	-0.669456	-0.159016
C294	C	0.841740	-0.419456	0.090984
C295	C	1.091740	-0.169456	0.340984
C296	C	1.341740	0.080544	0.590984
C297	C	0.591729	-0.622535	-0.159013
C298	C	0.841729	-0.372535	0.090987
C299	C	1.091729	-0.122535	0.340987
C300	C	1.341729	0.127465	0.590987
C301	C	0.620437	-0.599037	-0.187771
C302	C	0.870437	-0.349037	0.062229
C303	C	1.120437	-0.099037	0.312229
C304	C	1.370437	0.150963	0.562229
C305	C	0.620431	-0.552130	-0.187755
C306	C	0.870431	-0.302130	0.062245
C307	C	1.120431	-0.052130	0.312245
C308	C	1.370431	0.197870	0.562245
N309	N	0.649134	-0.528630	-0.216515
N310	N	0.899134	-0.278630	0.033485
N311	N	1.149134	-0.028630	0.283485
N312	N	1.399134	0.221370	0.533485
C313	C	0.677850	-0.552048	-0.245280
C314	C	0.927850	-0.302048	0.004720
C315	C	1.177850	-0.052048	0.254720
C316	C	1.427850	0.197952	0.504720
C317	C	0.620541	-0.979079	-0.187818
C318	C	0.870541	-0.729079	0.062182
C319	C	1.120541	-0.479079	0.312182
C320	C	1.370541	-0.229079	0.562182
C321	C	0.620554	-1.025997	-0.187824
C322	C	0.870554	-0.775997	0.062176
C323	C	1.120554	-0.525997	0.312176
C324	C	1.370554	-0.275997	0.562176
C325	C	0.677975	-1.025915	-0.245351
C326	C	0.927975	-0.775915	0.004649
C327	C	1.177975	-0.525915	0.254649
C328	C	1.427975	-0.275915	0.504649
C329	C	0.677964	-0.978996	-0.245342
C330	C	0.927964	-0.728996	0.004658
C331	C	1.177964	-0.478996	0.254658
C332	C	1.427964	-0.228996	0.504658
C333	C	0.649244	-0.955579	-0.216578
C334	C	0.899244	-0.705579	0.033422
C335	C	1.149244	-0.455579	0.283422
C336	C	1.399244	-0.205579	0.533422
C337	C	0.677826	-0.453522	-0.245259
C338	C	0.927826	-0.203522	0.004741
C339	C	1.177826	0.046478	0.254741
C340	C	1.427826	0.296478	0.504741
C341	C	0.677814	-0.406603	-0.245247
C342	C	0.927814	-0.156603	0.004753
C343	C	1.177814	0.093397	0.254753
C344	C	1.427814	0.343397	0.504753
C345	C	0.620391	-0.406688	-0.187722
C346	C	0.870391	-0.156688	0.062278
C347	C	1.120391	0.093312	0.312278
C348	C	1.370391	0.343312	0.562278
C349	C	0.620404	-0.453604	-0.187732
C350	C	0.870404	-0.203604	0.062268
C351	C	1.120404	0.046396	0.312268
C352	C	1.370404	0.296396	0.562268
C353	C	0.649123	-0.477020	-0.216505
C354	C	0.899123	-0.227020	0.033495
C355	C	1.149123	0.022980	0.283495
C356	C	1.399123	0.272980	0.533495
O357	O	0.596032	-0.527863	-0.163295
O358	O	0.846032	-0.277863	0.086705
O359	O	1.096032	-0.027863	0.336705
O360	O	1.346032	0.222137	0.586705
O361	O	0.702255	-0.527746	-0.269742
O362	O	0.952255	-0.277746	-0.019742
O363	O	1.202255	-0.027746	0.230258
O364	O	1.452255	0.222254	0.480258
C365	C	0.677895	-0.739712	-0.245312
C366	C	0.927895	-0.489712	0.004688
C367	C	1.177895	-0.239712	0.254688
C368	C	1.427895	0.010288	0.504688
C369	C	0.649190	-0.763210	-0.216556
C370	C	0.899190	-0.513210	0.033444
C371	C	1.149190	-0.263210	0.283444
C372	C	1.399190	-0.013210	0.533444
C373	C	0.620474	-0.739792	-0.187790
C374	C	0.870474	-0.489792	0.062210
C375	C	1.120474	-0.239792	0.312210
C376	C	1.370474	0.010208	0.562210
C377	C	0.649203	-0.810128	-0.216561
C378	C	0.899203	-0.560128	0.033439
C379	C	1.149203	-0.310128	0.283439
C380	C	1.399203	-0.060128	0.533439
C381	C	0.677919	-0.833546	-0.245326
C382	C	0.927919	-0.583546	0.004674
C383	C	1.177919	-0.333546	0.254674
C384	C	1.427919	-0.083546	0.504674
C385	C	0.706622	-0.810046	-0.274086
C386	C	0.956622	-0.560046	-0.024086
C387	C	1.206622	-0.310046	0.225914
C388	C	1.456622	-0.060046	0.475914
C389	C	0.706611	-0.763130	-0.274077
C390	C	0.956611	-0.513130	-0.024077
C391	C	1.206611	-0.263130	0.225923
C392	C	1.456611	-0.013130	0.475923
C393	C	0.591772	-0.763291	-0.159031
C394	C	0.841772	-0.513291	0.090969
C395	C	1.091772	-0.263291	0.340969
C396	C	1.341772	-0.013291	0.590969
C397	C	0.591785	-0.810207	-0.159041
C398	C	0.841785	-0.560207	0.090959
C399	C	1.091785	-0.310207	0.340959
C400	C	1.341785	-0.060207	0.590959
C401	C	0.620501	-0.833625	-0.187807
C402	C	0.870501	-0.583625	0.062193
C403	C	1.120501	-0.333625	0.312193
C404	C	1.370501	-0.083625	0.562193
C405	C	0.766333	-0.216547	-0.216553
C406	C	1.016333	0.033453	0.033447
C407	C	1.266333	0.283453	0.283447
C408	C	1.516333	0.533453	0.533447
C409	C	0.816267	-0.216555	-0.216567
C410	C	1.066267	0.033445	0.033433
C411	C	1.316267	0.283445	0.283433
C412	C	1.566267	0.533445	0.533433
C413	C	0.649167	-0.216524	-0.333699
C414	C	0.899167	0.033476	-0.083699
C415	C	1.149167	0.283476	0.166301
C416	C	1.399167	0.533476	0.416301
C417	C	0.649172	-0.216522	-0.383633
C418	C	0.899172	0.033478	-0.133633
C419	C	1.149172	0.283478	0.116367
C420	C	1.399172	0.533478	0.366367
C421	C	0.649235	-0.099349	-0.216568
C422	C	0.899235	0.150651	0.033432
C423	C	1.149235	0.400651	0.283432
C424	C	1.399235	0.650651	0.533432
C425	C	0.649270	-0.049415	-0.216589
C426	C	0.899270	0.200585	0.033411
C427	C	1.149270	0.450585	0.283411
C428	C	1.399270	0.700585	0.533411
C429	C	0.677955	-0.187718	-0.693300
C430	C	0.927955	0.062282	-0.443300
C431	C	1.177955	0.312282	-0.193300
C432	C	1.427955	0.562282	0.056700
C433	C	0.677978	-0.187680	-0.880973
C434	C	0.927978	0.062320	-0.630973
C435	C	1.177978	0.312320	-0.380973
C436	C	1.427978	0.562320	-0.130973
O437	O	0.702417	-0.163232	-0.905257
O438	O	0.952417	0.086768	-0.655257
O439	O	1.202417	0.336768	-0.405257
O440	O	1.452417	0.586768	-0.155257
N441	N	0.649231	-0.216402	-0.904419
N442	N	0.899231	0.033598	-0.654419
N443	N	1.149231	0.283598	-0.404419
N444	N	1.399231	0.533598	-0.154419
C445	C	0.620475	-0.245133	-0.880943
C446	C	0.870475	0.004867	-0.630943
C447	C	1.120475	0.254867	-0.380943
C448	C	1.370475	0.504867	-0.130943
O449	O	0.596022	-0.269559	-0.905192
O450	O	0.846022	-0.019559	-0.655192
O451	O	1.096022	0.230441	-0.405192
O452	O	1.346022	0.480441	-0.155192
C453	C	0.620451	-0.245169	-0.693271
C454	C	0.870451	0.004831	-0.443271
C455	C	1.120451	0.254831	-0.193271
C456	C	1.370451	0.504831	0.056729
C457	C	0.649202	-0.216448	-0.669828
C458	C	0.899202	0.033552	-0.419828
C459	C	1.149202	0.283552	-0.169828
C460	C	1.399202	0.533552	0.080172
C461	C	0.706704	-0.158999	-0.669856
C462	C	0.956704	0.091001	-0.419856
C463	C	1.206704	0.341001	-0.169856
C464	C	1.456704	0.591001	0.080144
C465	C	0.706700	-0.159011	-0.622941
C466	C	0.956700	0.090989	-0.372941
C467	C	1.206700	0.340989	-0.122941
C468	C	1.456700	0.590989	0.127059
C469	C	0.677947	-0.187741	-0.599469
C470	C	0.927947	0.062259	-0.349469
C471	C	1.177947	0.312259	-0.099469
C472	C	1.427947	0.562259	0.150531
C473	C	0.649198	-0.216460	-0.622912
C474	C	0.899198	0.033540	-0.372912
C475	C	1.149198	0.283540	-0.122912
C476	C	1.399198	0.533540	0.127088
C477	C	0.591693	-0.273898	-0.669797
C478	C	0.841693	-0.023898	-0.419797
C479	C	1.091693	0.226102	-0.169797
C480	C	1.341693	0.476102	0.080203
C481	C	0.591689	-0.273903	-0.622876
C482	C	0.841689	-0.023903	-0.372876
C483	C	1.091689	0.226097	-0.122876
C484	C	1.341689	0.476097	0.127124
C485	C	0.620440	-0.245183	-0.599432
C486	C	0.870440	0.004817	-0.349432
C487	C	1.120440	0.254817	-0.099432
C488	C	1.370440	0.504817	0.150568
C489	C	0.620441	-0.245202	-0.552525
C490	C	0.870441	0.004798	-0.302525
C491	C	1.120441	0.254798	-0.052525
C492	C	1.370441	0.504798	0.197475
N493	N	0.649188	-0.216480	-0.529079
N494	N	0.899188	0.033520	-0.279079
N495	N	1.149188	0.283520	-0.029079
N496	N	1.399188	0.533520	0.220921
C497	C	0.677941	-0.187749	-0.552551
C498	C	0.927941	0.062251	-0.302551
C499	C	1.177941	0.312251	-0.052551
C500	C	1.427941	0.562251	0.197449
C501	C	0.620491	-0.245113	-0.979474
C502	C	0.870491	0.004887	-0.729474
C503	C	1.120491	0.254887	-0.479474
C504	C	1.370491	0.504887	-0.229474
C505	C	0.620497	-0.245105	-1.026392
C506	C	0.870497	0.004895	-0.776392
C507	C	1.120497	0.254895	-0.526392
C508	C	1.370497	0.504895	-0.276392
C509	C	0.677999	-0.187650	-1.026418
C510	C	0.927999	0.062350	-0.776418
C511	C	1.177999	0.312350	-0.526418
C512	C	1.427999	0.562350	-0.276418
C513	C	0.677994	-0.187661	-0.979499
C514	C	0.927994	0.062339	-0.729499
C515	C	1.177994	0.312339	-0.479499
C516	C	1.427994	0.562339	-0.229499
C517	C	0.649237	-0.216391	-0.956028
C518	C	0.899237	0.033609	-0.706028
C519	C	1.149237	0.283609	-0.456028
C520	C	1.399237	0.533609	-0.206028
C521	C	0.677930	-0.187776	-0.454025
C522	C	0.927930	0.062224	-0.204025
C523	C	1.177930	0.312224	0.045975
C524	C	1.427930	0.562224	0.295975
C525	C	0.677925	-0.187792	-0.407105
C526	C	0.927925	0.062208	-0.157105
C527	C	1.177925	0.312208	0.092895
C528	C	1.427925	0.562208	0.342895
C529	C	0.620421	-0.245244	-0.407083
C530	C	0.870421	0.004756	-0.157083
C531	C	1.120421	0.254756	0.092917
C532	C	1.370421	0.504756	0.342917
C533	C	0.620428	-0.245230	-0.453999
C534	C	0.870428	0.004770	-0.203999
C535	C	1.120428	0.254770	0.046001
C536	C	1.370428	0.504770	0.296001
C537	C	0.649184	-0.216493	-0.477469
C538	C	0.899184	0.033507	-0.227469
C539	C	1.149184	0.283507	0.022531
C540	C	1.399184	0.533507	0.272531
O541	O	0.596011	-0.269633	-0.528212
O542	O	0.846011	-0.019633	-0.278212
O543	O	1.096011	0.230367	-0.028212
O544	O	1.346011	0.480367	0.221788
O545	O	0.702383	-0.163320	-0.528294
O546	O	0.952383	0.086680	-0.278294
O547	O	1.202383	0.336680	-0.028294
O548	O	1.452383	0.586680	0.221706
C549	C	0.677959	-0.187706	-0.740215
C550	C	0.927959	0.062294	-0.490215
C551	C	1.177959	0.312294	-0.240215
C552	C	1.427959	0.562294	0.009785
C553	C	0.649211	-0.216425	-0.763659
C554	C	0.899211	0.033575	-0.513659
C555	C	1.149211	0.283575	-0.263659
C556	C	1.399211	0.533575	-0.013659
C557	C	0.620458	-0.245155	-0.740187
C558	C	0.870458	0.004845	-0.490187
C559	C	1.120458	0.254845	-0.240187
C560	C	1.370458	0.504845	0.009813
C561	C	0.649217	-0.216417	-0.810577
C562	C	0.899217	0.033583	-0.560577
C563	C	1.149217	0.283583	-0.310577
C564	C	1.399217	0.533583	-0.060577
C565	C	0.677970	-0.187686	-0.834049
C566	C	0.927970	0.062314	-0.584049
C567	C	1.177970	0.312314	-0.334049
C568	C	1.427970	0.562314	-0.084049
C569	C	0.706717	-0.158964	-0.810603
C570	C	0.956717	0.091036	-0.560603
C571	C	1.206717	0.341036	-0.310603
C572	C	1.456717	0.591036	-0.060603
C573	C	0.706712	-0.158976	-0.763687
C574	C	0.956712	0.091024	-0.513687
C575	C	1.206712	0.341024	-0.263687
C576	C	1.456712	0.591024	-0.013687
C577	C	0.591711	-0.273877	-0.763633
C578	C	0.841711	-0.023877	-0.513633
C579	C	1.091711	0.226123	-0.263633
C580	C	1.341711	0.476123	-0.013633
C581	C	0.591718	-0.273864	-0.810548
C582	C	0.841718	-0.023864	-0.560548
C583	C	1.091718	0.226136	-0.310548
C584	C	1.341718	0.476136	-0.060548
C585	C	0.620471	-0.245133	-0.834020
C586	C	0.870471	0.004867	-0.584020
C587	C	1.120471	0.254867	-0.334020
C588	C	1.370471	0.504867	-0.084020
C589	C	0.649168	-0.216499	-0.099798
C590	C	0.899168	0.033501	0.150202
C591	C	1.149168	0.283501	0.400202
C592	C	1.399168	0.533501	0.650202
C593	C	0.649250	-0.216374	-0.049864
C594	C	0.899250	0.033626	0.200136
C595	C	1.149250	0.283626	0.450136
C596	C	1.399250	0.533626	0.700136
H597	H	-0.179372	-0.164352	-0.164539
H598	H	0.070628	0.085648	0.085461
H599	H	0.320628	0.335648	0.335461
H600	H	0.570628	0.585648	0.585461
H601	H	0.568265	-0.297294	-0.603768
H602	H	0.818265	-0.047294	-0.353768
H603	H	1.068265	0.202706	-0.103768
H604	H	1.318265	0.452706	0.146232
H605	H	0.729988	-0.744002	-0.297495
H606	H	0.979988	-0.494002	-0.047495
H607	H	1.229988	-0.244002	0.202505
H608	H	1.479988	0.005998	0.452505
H609	H	0.701344	-0.164374	-0.473128
H610	H	0.951344	0.085626	-0.223128
H611	H	1.201344	0.335626	0.026872
H612	H	1.451344	0.585626	0.276872
H613	H	0.568363	-0.688579	-0.135597
H614	H	0.818363	-0.438579	0.114403
H615	H	1.068363	-0.188579	0.364403
H616	H	1.318363	0.061421	0.614403
H617	H	0.393030	-0.268723	-0.268530
H618	H	0.643030	-0.018723	-0.018530
H619	H	0.893030	0.231277	0.231470
H620	H	1.143030	0.481277	0.481470
H621	H	0.597012	-0.387614	-0.164300
H622	H	0.847012	-0.137614	0.085700
H623	H	1.097012	0.112386	0.335700
H624	H	1.347012	0.362386	0.585700
H625	H	0.701411	-0.164257	-1.045537
H626	H	0.951411	0.085743	-0.795537
H627	H	1.201411	0.335743	-0.545537
H628	H	1.451411	0.585743	-0.295537
H629	H	0.701208	-0.472582	-0.268692
H630	H	0.951208	-0.222582	-0.018692
H631	H	1.201208	0.027418	0.231308
H632	H	1.451208	0.277418	0.481308
H633	H	0.597153	-0.960016	-0.164394
H634	H	0.847153	-0.710016	0.085606
H635	H	1.097153	-0.460016	0.335606
H636	H	1.347153	-0.210016	0.585606
H637	H	0.036456	-0.135556	-0.135853
H638	H	0.286456	0.114444	0.114147
H639	H	0.536456	0.364444	0.364147
H640	H	0.786456	0.614444	0.614147
H641	H	0.597020	-0.268621	-0.473087
H642	H	0.847020	-0.018621	-0.223087
H643	H	1.097020	0.231379	0.026913
H644	H	1.347020	0.481379	0.276913
H645	H	0.701192	-0.387473	-0.268665
H646	H	0.951192	-0.137473	-0.018665
H647	H	1.201192	0.112527	0.231335
H648	H	1.451192	0.362527	0.481335
H649	H	0.701357	-1.044990	-0.268772
H650	H	0.951357	-0.794990	-0.018772
H651	H	1.201357	-0.544990	0.231228
H652	H	1.451357	-0.294990	0.481228
H653	H	0.121561	-0.135551	-0.135843
H654	H	0.371561	0.114449	0.114157
H655	H	0.621561	0.364449	0.364157
H656	H	0.871561	0.614449	0.614157
H657	H	0.730005	-0.829121	-0.297506
H658	H	0.980005	-0.579121	-0.047506
H659	H	1.230005	-0.329121	0.202494
H660	H	1.480005	-0.079121	0.452494
H661	H	0.597182	-1.045124	-0.164401
H662	H	0.847182	-0.795124	0.085599
H663	H	1.097182	-0.545124	0.335599
H664	H	1.347182	-0.295124	0.585599
H665	H	0.568297	-0.297274	-0.744526
H666	H	0.818297	-0.047274	-0.494526
H667	H	1.068297	0.202726	-0.244526
H668	H	1.318297	0.452726	0.005474
H669	H	0.730112	-0.135623	-0.603857
H670	H	0.980112	0.114377	-0.353857
H671	H	1.230112	0.364377	-0.103857
H672	H	1.480112	0.614377	0.146143
H673	H	0.568408	-0.829334	-0.135619
H674	H	0.818408	-0.579334	0.114381
H675	H	1.068408	-0.329334	0.364381
H676	H	1.318408	-0.079334	0.614381
H677	H	0.568387	-0.744228	-0.135607
H678	H	0.818387	-0.494228	0.114393
H679	H	1.068387	-0.244228	0.364393
H680	H	1.318387	0.005772	0.614393
H681	H	0.597090	-0.268497	-1.045476
H682	H	0.847090	-0.018497	-0.795476
H683	H	1.097090	0.231503	-0.545476
H684	H	1.347090	0.481503	-0.295476
H685	H	-0.179378	-0.268759	-0.268592
H686	H	0.070622	-0.018759	-0.018592
H687	H	0.320622	0.231241	0.231408
H688	H	0.570622	0.481241	0.481408
H689	H	0.597013	-0.268637	-0.387964
H690	H	0.847013	-0.018637	-0.137964
H691	H	1.097013	0.231363	0.112036
H692	H	1.347013	0.481363	0.362036
H693	H	0.729954	-0.603255	-0.297470
H694	H	0.979954	-0.353255	-0.047470
H695	H	1.229954	-0.103255	0.202530
H696	H	1.479954	0.146745	0.452530
H697	H	0.177211	-0.135539	-0.135836
H698	H	0.427211	0.114461	0.114164
H699	H	0.677211	0.364461	0.364164
H700	H	0.927211	0.614461	0.614164
H701	H	0.597032	-0.472736	-0.164312
H702	H	0.847032	-0.222736	0.085688
H703	H	1.097032	0.027264	0.335688
H704	H	1.347032	0.277264	0.585688
H705	H	0.730125	-0.135588	-0.744604
H706	H	0.980125	0.114412	-0.494604
H707	H	1.230125	0.364412	-0.244604
H708	H	1.480125	0.614412	0.005396
H709	H	0.568340	-0.603470	-0.135590
H710	H	0.818340	-0.353470	0.114410
H711	H	1.068340	-0.103470	0.364410
H712	H	1.318340	0.146530	0.614410
H713	H	0.729974	-0.688362	-0.297486
H714	H	0.979974	-0.438362	-0.047486
H715	H	1.229974	-0.188362	0.202514
H716	H	1.479974	0.061638	0.452514
H717	H	0.036452	-0.297513	-0.297246
H718	H	0.286452	-0.047513	-0.047246
H719	H	0.536452	0.202487	0.202754
H720	H	0.786452	0.452487	0.452754
H721	H	-0.094265	-0.164339	-0.164534
H722	H	0.155735	0.085661	0.085466
H723	H	0.405735	0.335661	0.335466
H724	H	0.655735	0.585661	0.585466
H725	H	0.568306	-0.297256	-0.829632
H726	H	0.818306	-0.047256	-0.579632
H727	H	1.068306	0.202744	-0.329632
H728	H	1.318306	0.452744	-0.079632
H729	H	0.701339	-0.164403	-0.388020
H730	H	0.951339	0.085597	-0.138020
H731	H	1.201339	0.335597	0.111980
H732	H	1.451339	0.585597	0.361980
H733	H	0.262317	-0.297506	-0.297218
H734	H	0.512317	-0.047506	-0.047218
H735	H	0.762317	0.202494	0.202782
H736	H	1.012317	0.452494	0.452782
H737	H	0.701340	-0.959868	-0.268760
H738	H	0.951340	-0.709868	-0.018760
H739	H	1.201340	-0.459868	0.231240
H740	H	1.451340	-0.209868	0.481240
H741	H	0.262320	-0.135529	-0.135834
H742	H	0.512320	0.114471	0.114166
H743	H	0.762320	0.364471	0.364166
H744	H	1.012320	0.614471	0.614166
H745	H	0.393015	-0.164309	-0.164474
H746	H	0.643015	0.085691	0.085526
H747	H	0.893015	0.335691	0.335526
H748	H	1.143015	0.585691	0.585526
H749	H	0.701406	-0.164274	-0.960415
H750	H	0.951406	0.085726	-0.710415
H751	H	1.201406	0.335726	-0.460415
H752	H	1.451406	0.585726	-0.210415
H753	H	0.730118	-0.135601	-0.688962
H754	H	0.980118	0.114399	-0.438962
H755	H	1.230118	0.364399	-0.188962
H756	H	1.480118	0.614399	0.061038
H757	H	0.568280	-0.297285	-0.688876
H758	H	0.818280	-0.047285	-0.438876
H759	H	1.068280	0.202715	-0.188876
H760	H	1.318280	0.452715	0.061124
H761	H	0.478139	-0.268721	-0.268510
H762	H	0.728139	-0.018721	-0.018510
H763	H	0.978139	0.231279	0.231490
H764	H	1.228139	0.481279	0.481490
H765	H	0.478139	-0.164309	-0.164463
H766	H	0.728139	0.085691	0.085537
H767	H	0.978139	0.335691	0.335537
H768	H	1.228139	0.585691	0.585537
H769	H	0.730130	-0.135573	-0.829722
H770	H	0.980130	0.114427	-0.579722
H771	H	1.230130	0.364427	-0.329722
H772	H	1.480130	0.614427	-0.079722
H773	H	0.121570	-0.297512	-0.297238
H774	H	0.371570	-0.047512	-0.047238
H775	H	0.621570	0.202488	0.202762
H776	H	0.871570	0.452488	0.452762
H777	H	0.177212	-0.297509	-0.297231
H778	H	0.427212	-0.047509	-0.047231
H779	H	0.677212	0.202491	0.202769
H780	H	0.927212	0.452491	0.452769
H781	H	-0.094256	-0.268759	-0.268583
H782	H	0.155744	-0.018759	-0.018583
H783	H	0.405744	0.231241	0.231417
H784	H	0.655744	0.481241	0.481417
H785	H	0.597073	-0.268511	-0.960368
H786	H	0.847073	-0.018511	-0.710368
H787	H	1.097073	0.231489	-0.460368
H788	H	1.347073	0.481489	-0.210368
