data_functionalizedCrystal
_audit_creation_method	'MofGen! by Chris Wilmer'
_symmetry_space_group_name_H-M	'P1'
_symmetry_Int_Tables_number	1
_symmetry_cell_setting	triclinic
loop_
_symmetry_equiv_pos_as_xyz
  x,y,z
_cell_length_a	17.699083
_cell_length_b	14.472311
_cell_length_c	17.699083
_cell_angle_alpha	89.996457
_cell_angle_beta	83.283015
_cell_angle_gamma	90.003549
loop_
_atom_site_label
_atom_site_type_symbol
_atom_site_fract_x
_atom_site_fract_y
_atom_site_fract_z
O1	O	1.004074	-0.076713	0.095709
O2	O	0.783695	-0.076744	0.108162
O3	O	0.900111	-0.076719	-0.008254
O4	O	0.887658	-0.076738	0.212125
O5	O	0.900105	0.076963	-0.008253
O6	O	0.783689	0.076938	0.108162
O7	O	1.004068	0.076969	0.095710
Cu8	Cu	0.893878	0.090986	0.101936
Cu9	Cu	0.893885	-0.090761	0.101935
O10	O	0.887652	0.076944	0.212125
C11	C	0.755495	0.000093	0.107716
C12	C	0.671477	0.000082	0.106377
C13	C	0.622856	0.000077	0.174710
C14	C	0.543913	0.000089	0.173448
C15	C	0.513592	0.000100	0.103852
C16	C	0.562219	0.000108	0.035513
C17	C	0.641161	0.000102	0.036776
C18	C	0.243856	0.000131	0.030418
C19	C	0.164908	0.000134	0.029160
C20	C	0.146608	0.000118	0.167090
C21	C	0.225550	0.000112	0.168353
C22	C	0.274170	0.000125	0.100015
C23	C	0.359769	0.000114	0.101384
C24	C	0.427995	0.000104	0.102481
N25	N	0.893891	-0.218592	0.101929
C26	C	0.893883	-0.592683	0.101934
C27	C	0.956105	-0.553475	0.039579
C28	C	0.956328	-0.446387	0.039737
C29	C	0.893887	-0.407092	0.101931
C30	C	0.910785	-0.445971	0.180933
C31	C	0.911230	-0.553092	0.180568
C32	C	0.814574	-0.553213	0.085998
C33	C	0.815109	-0.446084	0.084200
C34	C	0.893887	-0.302204	0.101934
C35	C	0.893883	-0.697571	0.101936
C36	C	1.032268	0.000130	0.096156
C37	C	1.116286	0.000135	0.097494
C38	C	0.899662	0.000122	-0.036451
C39	C	0.898323	0.000122	-0.120469
N40	N	0.893878	0.218817	0.101936
C41	C	0.966656	0.000133	-0.169090
C42	C	0.965394	0.000124	-0.248033
C43	C	0.895798	0.000112	-0.278354
C44	C	0.827459	0.000098	-0.229727
C45	C	0.828722	0.000100	-0.150785
C46	C	0.822364	0.000090	-0.548090
C47	C	0.821106	0.000091	-0.627038
C48	C	0.959036	0.000114	-0.645338
C49	C	0.960299	0.000116	-0.566396
C50	C	0.891961	0.000098	-0.517776
C51	C	0.893330	0.000105	-0.432177
C52	C	0.894427	0.000111	-0.363951
C53	C	0.888102	0.000101	0.240322
C54	C	0.889440	0.000095	0.324340
H55	H	0.504328	0.000083	0.229092
N56	N	1.032749	0.000119	-0.697775
H57	H	1.063113	0.057097	-0.688041
H58	H	1.021333	0.000077	-0.752365
H59	H	0.766718	0.000075	-0.508512
N60	N	0.655550	0.000057	0.249779
H61	H	0.637816	0.057025	0.279711
H62	H	0.712932	0.000016	0.240153
H63	H	0.967951	-0.419133	0.195310
H64	H	0.802278	-0.420675	0.026084
H65	H	0.107012	0.000112	0.222734
H66	H	0.770792	0.000082	-0.254420
H67	H	0.946273	-0.579256	-0.019337
N68	N	1.039099	0.000144	-0.300471
H69	H	1.041641	0.057112	-0.333637
H70	H	1.041612	-0.056866	-0.333579
H71	H	0.283434	0.000142	-0.025228
N72	N	0.258250	0.000111	0.243418
H73	H	0.315638	0.000108	0.233849
H74	H	0.240451	-0.056861	0.273317
H75	H	0.140225	0.000144	-0.027517
H76	H	0.764429	0.000083	-0.651721
N77	N	0.755020	0.000083	-0.098340
H78	H	0.710739	0.000076	-0.129525
H79	H	0.752535	0.057053	-0.065188
H80	H	0.537526	0.000130	-0.021154
N81	N	1.035366	0.000135	-0.533698
H82	H	1.065299	-0.056832	-0.551434
H83	H	1.025735	0.000171	-0.476316
N84	N	0.693606	0.000115	-0.036926
H85	H	0.662421	0.000122	-0.081207
H86	H	0.726756	-0.056856	-0.039410
N87	N	1.033628	-0.589184	0.052829
H88	H	1.028619	-0.630639	0.099053
H89	H	1.067969	-0.535388	0.061388
H90	H	0.946318	-0.420100	-0.018987
H91	H	1.015189	-0.420752	0.049922
H92	H	0.969058	-0.578068	0.194605
N93	N	0.750932	-0.410673	0.140461
H94	H	0.701091	-0.436866	0.127646
H95	H	0.749269	-0.340999	0.137887
H96	H	0.866655	-0.420519	0.228451
N97	N	0.853463	-0.587459	0.243879
H98	H	0.827824	-0.533019	0.271903
H99	H	0.879905	-0.626146	0.280357
H100	H	0.798249	-0.580232	0.029621
H101	H	1.023330	0.000148	-0.144409
N102	N	0.753240	-0.586796	0.146227
H103	H	0.776669	-0.627379	0.183660
H104	H	0.714282	-0.623415	0.121412
