data_functionalizedCrystal
_audit_creation_method	'MofGen! by Chris Wilmer'
_symmetry_space_group_name_H-M	'P1'
_symmetry_Int_Tables_number	1
_symmetry_cell_setting	triclinic
loop_
_symmetry_equiv_pos_as_xyz
  x,y,z
_cell_length_a	10.489716
_cell_length_b	10.489716
_cell_length_c	12.503572
_cell_angle_alpha	93.562900
_cell_angle_beta	86.446389
_cell_angle_gamma	84.529136
loop_
_atom_site_label
_atom_site_type_symbol
_atom_site_fract_x
_atom_site_fract_y
_atom_site_fract_z
O1	O	1.701343	0.172510	-0.089302
O2	O	1.330142	0.189435	-0.089305
O3	O	1.524206	-0.004628	-0.089307
O4	O	1.507280	0.366573	-0.089300
O5	O	1.509611	0.009991	0.089335
O6	O	1.315548	0.204054	0.089337
O7	O	1.686749	0.187129	0.089340
Cu8	Cu	1.499816	0.196926	0.105650
Cu9	Cu	1.517075	0.179638	-0.105615
O10	O	1.492685	0.381192	0.089343
C11	C	1.515637	-0.044851	0.000011
C12	C	1.511833	-0.186483	0.000001
C13	C	1.275313	0.195473	0.000016
C14	C	1.133683	0.191668	0.000014
C15	C	1.630838	-0.284166	0.000012
C16	C	1.575148	-0.368729	-0.088066
C17	C	1.560732	-0.354280	0.088061
C18	C	1.456199	-0.269186	-0.088150
C19	C	1.441794	-0.254725	0.088057
C20	C	1.386018	-0.339241	-0.000042
C21	C	1.035998	0.310674	0.000014
C22	C	0.951462	0.254997	0.088097
C23	C	0.965857	0.240555	-0.088030
C24	C	1.051006	0.136047	0.088170
C25	C	1.065413	0.121616	-0.088036
C26	C	0.980924	0.065854	0.000069
C27	C	1.741578	0.181091	0.000017
C28	C	1.883209	0.184895	0.000012
C29	C	1.501254	0.421415	0.000022
C30	C	1.505059	0.563046	0.000025
N31	N	1.487685	0.209086	0.254243
N32	N	1.529216	0.167468	-0.254207
C33	C	1.469841	0.226983	0.473358
C34	C	1.547056	0.149575	0.526684
C35	C	1.537127	0.159533	0.648608
C36	C	1.479768	0.217026	0.351424
H37	H	1.734360	-0.259506	-0.000077
O38	O	1.065354	0.434204	0.000304
C39	C	1.006789	0.504119	0.093339
H40	H	0.986720	0.435203	0.157924
H41	H	0.912679	0.558059	0.073247
C42	C	1.121703	0.685366	0.055536
C43	C	1.097063	0.600722	0.134864
H44	H	1.177384	0.744960	0.081149
H45	H	1.161156	0.638266	-0.007146
H46	H	1.043270	0.730303	0.038800
H47	H	1.175493	0.555776	0.151588
H48	H	1.057625	0.647818	0.197550
H49	H	0.956499	-0.037735	0.000118
H50	H	1.114997	0.065323	-0.162509
H51	H	0.928452	0.284724	-0.162487
H52	H	1.620618	0.075825	0.480771
O53	O	1.382030	0.314803	0.528243
C54	C	1.297351	0.251109	0.593284
H55	H	1.345741	0.153049	0.609981
H56	H	1.206428	0.238230	0.550039
C57	C	1.202876	0.451831	0.679687
C58	C	1.262313	0.331397	0.700202
H59	H	1.181257	0.501358	0.745637
H60	H	1.259922	0.494745	0.635865
H61	H	1.127114	0.441082	0.643647
H62	H	1.338082	0.342147	0.736229
H63	H	1.205279	0.288487	0.744033
O64	O	1.642533	-0.427863	-0.176820
C65	C	1.771463	-0.400279	-0.176525
H66	H	1.795091	-0.373129	-0.090812
H67	H	1.786364	-0.316910	-0.228732
C68	C	1.831229	-0.552786	-0.326736
C69	C	1.860253	-0.519450	-0.221461
H70	H	1.886001	-0.626293	-0.354459
H71	H	1.744366	-0.571367	-0.326938
H72	H	1.843647	-0.483302	-0.370229
H73	H	1.847820	-0.588927	-0.177968
H74	H	1.947117	-0.500883	-0.221252
H75	H	1.282430	-0.363666	-0.000091
O76	O	1.403800	-0.224788	-0.177174
C77	C	1.496225	-0.165629	-0.238134
H78	H	1.596491	-0.204690	-0.218160
H79	H	1.482391	-0.057453	-0.218219
C80	C	1.357282	-0.146395	-0.383139
C81	C	1.480430	-0.194378	-0.358613
H82	H	1.347536	-0.164123	-0.457456
H83	H	1.295011	-0.186247	-0.342068
H84	H	1.345768	-0.056251	-0.366535
H85	H	1.491936	-0.284522	-0.375203
H86	H	1.542703	-0.154542	-0.399689
O87	O	1.374656	-0.195315	0.176809
C88	C	1.378299	-0.061444	0.175039
H89	H	1.398288	-0.035432	0.088837
H90	H	1.457563	-0.030162	0.226177
C91	C	1.223655	-0.024553	0.326343
C92	C	1.248194	0.007396	0.220468
H93	H	1.143403	0.017913	0.354371
H94	H	1.221203	-0.114744	0.327539
H95	H	1.289718	0.001517	0.368945
H96	H	1.182141	-0.018688	0.177866
H97	H	1.250632	0.097586	0.219266
H98	H	0.901891	0.311329	0.162566
O99	O	1.613607	-0.398744	0.176867
C100	C	1.742603	-0.371256	0.176512
H101	H	1.756907	-0.287200	0.124946
H102	H	1.808040	-0.459162	0.142134
C103	C	1.758223	-0.439269	0.355554
C104	C	1.775789	-0.336022	0.292227
H105	H	1.778698	-0.417540	0.426933
H106	H	1.671318	-0.457793	0.355793
H107	H	1.812756	-0.512514	0.326893
H108	H	1.721245	-0.262784	0.320881
H109	H	1.862687	-0.317485	0.291996
H110	H	1.088236	0.091939	0.162712
