data_functionalizedCrystal
_audit_creation_method	'MofGen! by Chris Wilmer'
_symmetry_space_group_name_H-M	'P1'
_symmetry_Int_Tables_number	1
_symmetry_cell_setting	triclinic
loop_
_symmetry_equiv_pos_as_xyz
  x,y,z
_cell_length_a	21.606444
_cell_length_b	23.196402
_cell_length_c	23.196402
_cell_angle_alpha	60.000138
_cell_angle_beta	89.998862
_cell_angle_gamma	60.001587
loop_
_atom_site_label
_atom_site_type_symbol
_atom_site_fract_x
_atom_site_fract_y
_atom_site_fract_z
Zr1	Zr	0.596238	0.631025	-0.075648
O2	O	0.497418	0.751290	-0.167693
O3	O	0.626530	0.510760	-0.047436
O4	O	0.626531	0.631030	-0.167702
O5	O	0.497418	0.631016	0.047447
O6	O	0.728381	0.631034	-0.167706
O7	O	0.497416	0.631020	-0.047426
O8	O	0.728378	0.415892	0.047430
O9	O	0.497421	0.846157	-0.167689
O10	O	0.715461	0.560229	-0.035401
O11	O	0.639453	0.560224	0.035404
O12	O	0.639455	0.701826	-0.106195
O13	O	0.563447	0.701820	-0.035390
Zr14	Zr	0.758680	0.631025	0.075657
Zr15	Zr	0.758677	0.631031	-0.075654
Zr16	Zr	0.596241	0.631019	0.075662
Zr17	Zr	0.596243	0.782327	-0.075642
Zr18	Zr	0.758675	0.479723	0.075650
O19	O	0.728388	0.751290	0.047444
O20	O	0.728385	0.751299	-0.167701
O21	O	0.497421	0.751281	0.047452
O22	O	0.857500	0.510760	0.167701
O23	O	0.857497	0.510769	-0.047443
O24	O	0.626533	0.510751	0.167709
O25	O	0.857500	0.631034	-0.047438
O26	O	0.728387	0.631020	0.167711
O27	O	0.626537	0.631016	0.167714
O28	O	0.857502	0.631030	0.047434
O29	O	0.626538	0.846162	-0.167693
O30	O	0.728380	0.415887	0.167702
O31	O	0.857497	0.415893	0.167697
O32	O	0.857495	0.415898	0.047425
O33	O	0.497423	0.846152	-0.047417
O34	O	0.626540	0.846157	-0.047421
O35	O	0.715463	0.560224	0.106203
O36	O	0.791471	0.560230	0.035399
O37	O	0.715465	0.701826	-0.035395
O38	O	0.639457	0.701820	0.035410
C39	C	0.677453	0.441769	-0.000004
C40	C	0.677452	0.377537	-0.000007
C41	C	0.717122	0.347370	-0.036969
C42	C	0.717129	0.287009	-0.036963
C43	C	0.677451	0.256829	-0.000005
C44	C	0.637779	0.287000	0.036965
C45	C	0.637779	0.347354	0.036964
C46	C	0.610993	0.194797	-0.005277
C47	C	0.610991	0.134447	-0.005281
C48	C	0.677452	0.070674	0.000002
C49	C	0.743916	0.067265	0.005276
C50	C	0.743916	0.127619	0.005275
C51	C	0.677447	0.191384	0.000001
C52	C	0.717134	-0.024945	-0.036955
C53	C	0.717144	-0.085310	-0.036944
C54	C	0.637786	-0.085312	0.036979
C55	C	0.637784	-0.024953	0.036973
C56	C	0.677456	0.005230	0.000002
C57	C	0.474273	0.631017	0.000011
C58	C	0.405314	0.631014	0.000013
C59	C	0.412589	0.557103	0.036964
C60	C	0.347792	0.557105	0.036965
C61	C	0.275720	0.631019	0.000010
C62	C	0.268446	0.704937	-0.036942
C63	C	0.333243	0.704933	-0.036938
C64	C	0.007128	0.704951	-0.036958
C65	C	-0.057670	0.704948	-0.036961
C66	C	0.021677	0.557122	0.036945
C67	C	0.086473	0.557119	0.036949
C68	C	0.079194	0.631036	0.000000
C69	C	0.149455	0.631032	0.000001
C70	C	0.205459	0.631024	0.000005
C71	C	0.880645	0.631033	-0.000003
C72	C	0.949604	0.631036	-0.000005
C73	C	0.677456	0.631033	-0.189263
C74	C	0.677455	0.631035	-0.253498
C75	C	0.677465	0.820281	0.000012
C76	C	0.677466	0.884513	0.000015
C77	C	0.637797	0.704926	-0.753277
C78	C	0.637790	0.704931	-0.692925
C79	C	0.677465	0.631019	-0.625789
C80	C	0.717133	0.557098	-0.619008
C81	C	0.717133	0.557096	-0.679360
C82	C	0.743924	0.574397	-0.501861
C83	C	0.743927	0.574403	-0.441511
C84	C	0.677466	0.631024	-0.439640
C85	C	0.611004	0.687654	-0.498134
C86	C	0.611003	0.687651	-0.558486
C87	C	0.677470	0.631014	-0.560343
C88	C	0.637789	0.704946	-0.380985
C89	C	0.637781	0.704947	-0.320630
C90	C	0.717131	0.557113	-0.246713
C91	C	0.717132	0.557113	-0.307068
C92	C	0.677463	0.631032	-0.374202
C93	C	0.677462	0.631017	0.189271
C94	C	0.677463	0.631014	0.253506
C95	C	0.880639	0.441777	-0.000011
C96	C	0.949597	0.377548	-0.000016
C97	C	0.677457	0.441761	0.189263
C98	C	0.677456	0.377526	0.253496
C99	C	0.880642	0.441769	0.189256
C100	C	0.949601	0.377537	0.253486
C101	C	0.474276	0.820281	-0.189248
C102	C	0.405317	0.884513	-0.253478
C103	C	0.474279	0.820273	0.000019
C104	C	0.405321	0.884502	0.000024
C105	C	0.677461	0.820289	-0.189254
C106	C	0.677462	0.884523	-0.253487
C107	C	0.942303	0.347385	-0.036981
C108	C	1.007090	0.287043	-0.037000
C109	C	1.079170	0.256861	-0.000049
C110	C	1.086462	0.287030	0.036918
C111	C	1.021676	0.347375	0.036932
C112	C	0.717132	0.347361	0.320623
C113	C	0.717128	0.287015	0.380982
C114	C	0.677452	0.256830	0.374212
C115	C	0.637771	0.287001	0.307078
C116	C	0.637771	0.347351	0.246720
C117	C	1.021667	0.347376	0.246690
C118	C	1.086467	0.287032	0.307036
C119	C	1.079200	0.256846	0.374177
C120	C	1.007126	0.287013	0.380971
C121	C	0.942328	0.347360	0.320627
C122	C	0.333251	0.914681	-0.246682
C123	C	0.268451	0.975044	-0.307027
C124	C	0.275718	1.005233	-0.374168
C125	C	0.347792	0.975063	-0.380963
C126	C	0.412590	0.914705	-0.320618
C127	C	0.412615	0.914671	0.036983
C128	C	0.347828	0.975030	0.036986
C129	C	0.275748	1.005214	0.000032
C130	C	0.268456	0.975042	-0.036931
C131	C	0.333242	0.914689	-0.036937
C132	C	0.717146	0.914689	-0.246695
C133	C	0.717162	0.975036	-0.307042
C134	C	0.677489	1.005221	-0.374182
C135	C	0.637804	0.975049	-0.380973
C136	C	0.637793	0.914699	-0.320626
H137	H	0.749427	0.371941	-0.067071
C138	C	1.165756	0.253815	0.077567
N139	N	1.225483	0.228791	0.108188
H140	H	1.145147	0.262477	0.301491
H141	H	0.209761	0.999627	-0.067018
C142	C	-0.136953	0.786264	-0.077612
N143	N	-0.196667	0.847508	-0.108228
C144	C	0.594141	-0.118507	0.077635
N145	N	0.561268	-0.143514	0.108259
C146	C	0.204489	1.071600	0.000050
N147	N	0.150819	1.121601	0.000068
C148	C	0.760777	0.380557	0.328087
N149	N	0.793648	0.405561	0.333715
C150	C	0.594135	0.253785	0.299643
N151	N	0.561272	0.228760	0.294045
H152	H	0.327293	0.890127	-0.067032
C153	C	0.677506	1.071609	-0.440559
N154	N	0.677521	1.121615	-0.490552
H155	H	0.222949	1.054380	-0.423299
C156	C	-0.000889	0.786261	-0.077615
N157	N	-0.006927	0.847509	-0.108245
H158	H	0.798046	0.528295	-0.393890
H159	H	0.027598	0.496936	0.067033
C160	C	0.594132	0.253802	0.077618
N161	N	0.561257	0.228796	0.108241
C162	C	0.817042	0.512111	-0.503911
N163	N	0.872115	0.465201	-0.505456
H164	H	1.131969	0.207707	0.423308
H165	H	0.471270	0.496913	0.067061
C166	C	0.760791	0.253830	0.454823
N167	N	0.793680	0.228835	0.510439
H168	H	0.327319	0.890104	-0.192018
C169	C	0.537889	0.749937	-0.496081
N170	N	0.482821	0.796847	-0.494530
H171	H	0.677459	0.207689	0.423365
C172	C	0.594131	0.380517	0.172881
N173	N	0.561260	0.405494	0.117266
C174	C	0.999145	0.253792	0.454833
N175	N	0.993135	0.228764	0.510468
H176	H	1.027599	0.371945	0.192026
H177	H	0.605473	0.371917	0.067063
H178	H	0.605484	0.765135	-0.435649
H179	H	0.605474	0.890145	-0.326166
H180	H	0.605503	0.999635	-0.435646
H181	H	0.749452	0.890122	-0.192032
C182	C	0.189177	1.008219	-0.299537
N183	N	0.129470	1.033205	-0.293893
H184	H	0.883651	0.371909	0.326170
C185	C	0.355773	1.008272	-0.454825
N186	N	0.361783	1.033283	-0.510460
H187	H	0.749476	0.999595	-0.301499
C188	C	0.189164	0.786244	-0.077596
N189	N	0.129449	0.847486	-0.108220
H190	H	0.471268	0.890142	-0.326160
H191	H	0.798033	0.124838	0.009570
C192	C	0.817031	-0.002887	0.011091
N193	N	0.872099	-0.055727	0.015471
C194	C	0.760769	0.253820	-0.077628
N195	N	0.793637	0.228825	-0.108258
C196	C	0.355866	1.008201	0.077657
N197	N	0.361923	1.033181	0.108292
H198	H	0.883618	0.371959	-0.067080
C199	C	0.594157	0.786242	-0.700384
N200	N	0.561294	0.847486	-0.706005
H201	H	0.749430	0.496933	-0.192051
H202	H	1.131916	0.207724	-0.000066
C203	C	0.999052	0.253862	-0.077661
N204	N	0.992995	0.228869	-0.108284
H205	H	1.027625	0.371925	0.067038
H206	H	0.749440	-0.000371	-0.067057
H207	H	0.471300	0.890100	0.067080
H208	H	0.605477	-0.000388	0.067069
C209	C	0.537882	0.138199	-0.011074
N210	N	0.482816	0.141024	-0.015432
H211	H	0.749452	-0.109877	-0.067040
H212	H	0.353722	0.496919	0.067056
C213	C	0.537875	0.264946	-0.011088
N214	N	0.482805	0.317780	-0.015464
C215	C	0.325236	0.786242	-0.077589
N216	N	0.319204	0.847486	-0.108208
C217	C	0.537892	0.749932	-0.622821
N218	N	0.482822	0.796839	-0.671276
C219	C	0.165752	0.475807	0.077603
N220	N	0.225464	0.414562	0.108227
H221	H	0.605493	0.765116	-0.807936
H222	H	0.749437	0.496926	-0.301541
C223	C	0.594142	0.786260	-0.328097
N224	N	0.561275	0.847507	-0.333722
H225	H	0.749435	0.496919	-0.564341
H226	H	0.749435	0.496906	-0.673831
