data_functionalizedCrystal
_audit_creation_method	'MofGen! by Chris Wilmer'
_symmetry_space_group_name_H-M	'P1'
_symmetry_Int_Tables_number	1
_symmetry_cell_setting	triclinic
loop_
_symmetry_equiv_pos_as_xyz
  x,y,z
_cell_length_a	14.044220
_cell_length_b	16.992695
_cell_length_c	16.053802
_cell_angle_alpha	87.258926
_cell_angle_beta	87.184754
_cell_angle_gamma	88.071450
loop_
_atom_site_label
_atom_site_type_symbol
_atom_site_fract_x
_atom_site_fract_y
_atom_site_fract_z
O1	O	1.275871	-0.187006	-0.069429
O2	O	1.775871	0.312994	0.430571
O3	O	0.999383	-0.180148	-0.069431
O4	O	1.499383	0.319852	0.430569
O5	O	1.136518	-0.069357	-0.069423
O6	O	1.636518	0.430643	0.430577
O7	O	1.138736	-0.297797	-0.069437
O8	O	1.638736	0.202203	0.430563
O9	O	1.128968	-0.075428	0.069435
O10	O	1.628968	0.424572	0.569435
O11	O	0.991832	-0.186218	0.069427
O12	O	1.491832	0.313782	0.569427
O13	O	1.268321	-0.193076	0.069429
O14	O	1.768321	0.306924	0.569429
Zn15	Zn	1.128878	-0.190611	0.091475
Zn16	Zn	1.628878	0.309389	0.591475
Zn17	Zn	1.138826	-0.182613	-0.091477
Zn18	Zn	1.638826	0.317387	0.408523
O19	O	1.131185	-0.303867	0.069422
O20	O	1.631185	0.196133	0.569422
C21	C	1.129891	-0.042980	0.000006
C22	C	1.629891	0.457020	0.500006
C23	C	1.121383	0.044659	0.000005
C24	C	1.621383	0.544659	0.500005
C25	C	0.960066	-0.180181	-0.000002
C26	C	1.460066	0.319819	0.499998
C27	C	0.854162	-0.171227	-0.000003
C28	C	1.354162	0.328773	0.499997
C29	C	1.307638	-0.193043	-0.000001
C30	C	1.807638	0.306957	0.499999
C31	C	1.413542	-0.201997	-0.000006
C32	C	1.913542	0.298003	0.499994
C33	C	1.607444	-0.218367	-0.000006
C34	C	2.107444	0.281633	0.499994
C35	C	1.660266	-0.154861	-0.000003
C36	C	2.160266	0.345139	0.499997
C37	C	1.768160	-0.163969	-0.000003
C38	C	2.268160	0.336031	0.499997
C39	C	1.499540	-0.209259	-0.000006
C40	C	1.999540	0.290741	0.499994
C41	C	1.137812	-0.330244	-0.000009
C42	C	1.637812	0.169756	0.499991
C43	C	1.146321	-0.417883	-0.000014
C44	C	1.646321	0.082117	0.499986
N45	N	1.122095	-0.196070	0.216335
N46	N	1.622095	0.303930	0.716335
C47	C	1.203479	0.089157	0.000007
C48	C	1.703479	0.589157	0.500007
C49	C	1.195479	0.171504	-0.000001
C50	C	1.695479	0.671504	0.499999
C51	C	1.105381	0.209350	-0.000005
C52	C	1.605381	0.709350	0.499995
C53	C	1.023279	0.164846	-0.000009
C54	C	1.523279	0.664846	0.499991
C55	C	1.031280	0.082501	-0.000007
C56	C	1.531280	0.582501	0.499993
C57	C	1.072220	0.455268	-0.000016
C58	C	1.572220	0.955268	0.499984
C59	C	1.064225	0.537619	-0.000016
C60	C	1.564225	1.037619	0.499984
C61	C	1.236426	0.544271	-0.000010
C62	C	1.736426	1.044271	0.499990
C63	C	1.244419	0.461924	-0.000003
C64	C	1.744419	0.961924	0.499997
C65	C	1.162317	0.417427	-0.000011
C66	C	1.662317	0.917427	0.499989
N67	N	1.097202	0.293522	-0.000010
N68	N	1.597202	0.793522	0.499990
N69	N	1.170497	0.333258	-0.000012
N70	N	1.670497	0.833258	0.499988
N71	N	1.145615	-0.177148	-0.216337
N72	N	1.645615	0.322852	0.283663
C73	C	1.180471	-0.148948	0.260032
C74	C	1.680471	0.351052	0.760032
C75	C	1.175736	-0.152775	0.347439
C76	C	1.675736	0.347225	0.847439
C77	C	1.112630	-0.203728	0.391147
C78	C	1.612630	0.296272	0.891147
C79	C	1.054248	-0.250852	0.347443
C80	C	1.554248	0.249148	0.847443
C81	C	1.058979	-0.247020	0.260038
C82	C	1.558979	0.252980	0.760038
C83	C	1.091964	-0.220441	0.652555
C84	C	1.591964	0.279559	1.152555
C85	C	1.087240	-0.224270	0.739966
C86	C	1.587240	0.275730	1.239966
C87	C	1.208727	-0.126192	0.739956
C88	C	1.708727	0.373808	1.239956
C89	C	1.213456	-0.122369	0.652549
C90	C	1.713456	0.377631	1.152549
C91	C	1.155071	-0.169489	0.608853
C92	C	1.655071	0.330511	1.108853
N93	N	1.107791	-0.207642	0.480490
N94	N	1.607791	0.292358	0.980490
N95	N	1.159906	-0.165570	0.519511
N96	N	1.659906	0.334430	1.019511
H97	H	1.624461	-0.093648	-0.000060
H98	H	2.124461	0.406352	0.499940
Br99	Br	1.366701	0.410568	-0.000025
Br100	Br	1.866701	0.910568	0.499975
Br101	Br	1.287959	-0.062244	0.799260
Br102	Br	1.787959	0.437756	1.299260
H103	H	1.276846	0.058349	0.000015
H104	H	1.776846	0.558349	0.500015
Br105	Br	1.667123	-0.320382	-0.000018
Br106	Br	2.167123	0.179618	0.499982
Br107	Br	1.012731	-0.284390	0.593258
Br108	Br	1.512731	0.215610	1.093258
H109	H	1.262331	0.207731	0.000002
H110	H	1.762331	0.707731	0.500002
H111	H	1.303269	0.580509	-0.000005
H112	H	1.803269	1.080509	0.499995
H113	H	1.223269	-0.114404	0.383017
H114	H	1.723269	0.385596	0.883017
H115	H	0.990852	0.568430	-0.000005
H116	H	1.490852	1.068430	0.499995
H117	H	1.005366	0.419049	-0.000023
H118	H	1.505366	0.919049	0.499977
Br119	Br	0.979745	-0.310969	0.200735
Br120	Br	1.479745	0.189031	0.700735
Br121	Br	1.266127	-0.079800	0.200724
Br122	Br	1.766127	0.420200	0.700724
H123	H	1.002861	-0.292336	0.383035
H124	H	1.502861	0.207664	0.883035
H125	H	0.949919	0.195668	-0.000017
H126	H	1.449919	0.695668	0.499983
Br127	Br	1.299104	-0.053221	0.593230
Br128	Br	1.799104	0.446779	1.093230
Br129	Br	0.919859	0.022110	-0.000015
Br130	Br	1.419859	0.522110	0.499985
H131	H	1.035848	-0.265765	0.775549
H132	H	1.535848	0.234235	1.275549
