data_functionalizedCrystal
_audit_creation_method	'MofGen! by Chris Wilmer'
_symmetry_space_group_name_H-M	'P1'
_symmetry_Int_Tables_number	1
_symmetry_cell_setting	triclinic
loop_
_symmetry_equiv_pos_as_xyz
  x,y,z
_cell_length_a	21.295417
_cell_length_b	21.295418
_cell_length_c	21.295411
_cell_angle_alpha	89.952143
_cell_angle_beta	90.020597
_cell_angle_gamma	89.952090
loop_
_atom_site_label
_atom_site_type_symbol
_atom_site_fract_x
_atom_site_fract_y
_atom_site_fract_z
Zn1	Zn	-0.250375	-0.962359	0.356307
Zn2	Zn	-0.355627	-0.962263	0.251035
Zn3	Zn	-0.250409	-0.857083	0.251010
Zn4	Zn	-0.355644	-0.857053	0.356224
O5	O	-0.303014	-0.909690	0.303644
O6	O	-0.264316	-1.050436	0.342388
O7	O	-0.341677	-0.948283	0.162942
O8	O	-0.162315	-0.871100	0.265002
O9	O	-0.341644	-1.050365	0.265045
O10	O	-0.162290	-0.948447	0.342364
O11	O	-0.264373	-0.871007	0.162924
O12	O	-0.264390	-0.768989	0.264921
O13	O	-0.341672	-0.871051	0.444324
O14	O	-0.341705	-0.768968	0.342221
O15	O	-0.264332	-0.948418	0.444386
O16	O	-0.443718	-0.948255	0.264964
O17	O	-0.443731	-0.870957	0.342245
C18	C	-0.303054	-0.746138	0.303560
C19	C	-0.303086	-0.676170	0.303538
C20	C	-0.343399	-0.643309	0.343726
C21	C	-0.343386	-0.577566	0.343750
C22	C	-0.303067	-0.544687	0.303574
C23	C	-0.262746	-0.577557	0.263384
C24	C	-0.262756	-0.643298	0.263366
N25	N	-0.298144	-0.441411	0.248509
N26	N	-0.298139	-0.378960	0.248528
C27	C	-0.303035	-0.346613	0.303627
N28	N	-0.307949	-0.379076	0.358707
N29	N	-0.307958	-0.441533	0.358688
C30	C	-0.303052	-0.473402	0.303590
C31	C	-0.343336	-0.242466	0.343843
C32	C	-0.343319	-0.176722	0.343868
C33	C	-0.262683	-0.176714	0.263497
C34	C	-0.262696	-0.242456	0.263478
C35	C	-0.303027	-0.275328	0.303650
C36	C	-0.466565	-0.909609	0.303612
C37	C	-0.536533	-0.909633	0.303619
C38	C	-0.569330	-0.949884	0.343930
C39	C	-0.635072	-0.949906	0.343946
C40	C	-0.668016	-0.909684	0.303639
C41	C	-0.635211	-0.869425	0.263325
C42	C	-0.569470	-0.869399	0.263315
N43	N	-0.771270	-0.904924	0.248546
N44	N	-0.833721	-0.904952	0.248557
C45	C	-0.866090	-0.909757	0.303668
N46	N	-0.833649	-0.914546	0.358767
N47	N	-0.771192	-0.914521	0.358755
C48	C	-0.739301	-0.909707	0.303646
C49	C	-0.970173	-0.950035	0.343999
C50	C	-1.035916	-0.950053	0.344016
C51	C	-1.036054	-0.869574	0.263389
C52	C	-0.970312	-0.869553	0.263378
C53	C	-0.937375	-0.909787	0.303682
C54	C	-0.138823	-0.909787	0.303690
C55	C	-0.068855	-0.909829	0.303709
C56	C	-0.303000	-0.909742	0.467834
C57	C	-0.302995	-0.909764	0.537802
C58	C	-0.302984	-0.073880	0.303711
C59	C	-0.302999	-0.143848	0.303693
C60	C	-0.302981	-0.909674	0.140092
C61	C	-0.302810	-0.909774	0.070125
C62	C	-0.262722	-0.950048	0.570702
C63	C	-0.262694	-0.950047	0.636445
C64	C	-0.302951	-0.909769	0.669285
C65	C	-0.343227	-0.869478	0.636377
C66	C	-0.343249	-0.869475	0.570636
N67	N	-0.358021	-0.904913	0.772499
N68	N	-0.357998	-0.904919	0.834951
C69	C	-0.302887	-0.909773	0.867360
N70	N	-0.247799	-0.914633	0.834958
N71	N	-0.247822	-0.914630	0.772501
C72	C	-0.302932	-0.909767	0.740570
C73	C	-0.262581	-0.950058	0.971545
C74	C	-0.262553	-0.950053	1.037289
C75	C	-0.343092	-0.869487	1.037220
C76	C	-0.343114	-0.869488	0.971478
C77	C	-0.302860	-0.909778	0.938644
H78	H	-0.229851	-0.149945	0.230788
N79	N	-0.221450	-0.991194	0.938001
N80	N	-0.181357	-0.969065	0.901299
H81	H	-0.152307	-0.998117	0.877609
H82	H	-0.376213	-0.550805	0.376478
N83	N	-0.384382	-0.828325	0.537017
N84	N	-0.362253	-0.788227	0.500299
H85	H	-0.391303	-0.759164	0.476554
H86	H	-0.229926	-0.670053	0.230640
N87	N	-0.668592	-0.991019	0.385122
N88	N	-0.705286	-0.968870	0.425210
H89	H	-0.728959	-0.997905	0.454291
N90	N	-0.221571	-0.543975	0.222336
N91	N	-0.225662	-0.551250	0.164240
H92	H	-0.196579	-0.527533	0.135250
N93	N	-0.936529	-0.991111	0.385189
N94	N	-0.899857	-0.968920	0.425268
H95	H	-0.876099	-0.997928	0.454363
N96	N	-0.535956	-0.828288	0.222138
N97	N	-0.477259	-0.828272	0.222135
H98	H	-0.453588	-0.799236	0.193054
N99	N	-0.384514	-0.276058	0.384885
N100	N	-0.384517	-0.334755	0.384864
H101	H	-0.413598	-0.358480	0.413851
H102	H	-0.376145	-0.149968	0.376598
H103	H	-0.229754	-0.982856	1.064075
N104	N	-0.384249	-0.828334	0.937869
N105	N	-0.380082	-0.770251	0.945167
H106	H	-0.409134	-0.741181	0.921431
N107	N	-0.221515	-0.276018	0.222420
N108	N	-0.185516	-0.246657	0.186553
H109	H	-0.156428	-0.270359	0.157556
N110	N	-0.535697	-0.990984	0.385103
N111	N	-0.564993	-1.026920	0.421093
H112	H	-0.541239	-1.055947	0.450173
N113	N	-0.668845	-0.828335	0.222145
N114	N	-0.661571	-0.770243	0.226235
H115	H	-0.685322	-0.741221	0.197149
H116	H	-1.062618	-0.982830	0.376845
H117	H	-0.943607	-0.836780	0.230551
N118	N	-0.384597	-0.676875	0.384765
N119	N	-0.420588	-0.647522	0.420645
H120	H	-0.449684	-0.671229	0.449630
N121	N	-0.221602	-0.991206	0.537174
N122	N	-0.185646	-1.027172	0.566562
H123	H	-0.156605	-1.056241	0.542883
H124	H	-1.062876	-0.836821	0.230575
H125	H	-0.229896	-0.982849	0.663237
N126	N	-0.384204	-0.828341	1.070767
N127	N	-0.384177	-0.828344	1.129464
H128	H	-0.413211	-0.799282	1.153160
N129	N	-0.384341	-0.828334	0.669929
N130	N	-0.384317	-0.828342	0.728626
H131	H	-0.413352	-0.799281	0.752323
