data_functionalizedCrystal
_audit_creation_method	'MofGen! by Chris Wilmer'
_symmetry_space_group_name_H-M	'P1'
_symmetry_Int_Tables_number	1
_symmetry_cell_setting	triclinic
loop_
_symmetry_equiv_pos_as_xyz
  x,y,z
_cell_length_a	6.817900
_cell_length_b	11.353959
_cell_length_c	12.200875
_cell_angle_alpha	103.763819
_cell_angle_beta	107.143593
_cell_angle_gamma	107.526623
loop_
_atom_site_label
_atom_site_type_symbol
_atom_site_fract_x
_atom_site_fract_y
_atom_site_fract_z
V1	V	-4.112946	-0.181231	-0.393859
V2	V	-3.612946	0.318769	0.106141
O3	O	-4.052970	0.008403	-0.349174
O4	O	-3.552970	0.508403	0.150826
O5	O	-4.107969	-0.359057	-0.426931
O6	O	-3.607969	0.140943	0.073069
O7	O	-4.082016	-0.178578	-0.549317
O8	O	-3.582016	0.321422	-0.049317
O9	O	-4.079103	-0.173326	-0.225940
O10	O	-3.579103	0.326674	0.274060
V11	V	-4.588684	-0.158533	-0.369430
V12	V	-4.088684	0.341467	0.130570
O13	O	-4.391282	-0.231022	-0.447447
O14	O	-3.891282	0.268978	0.052553
O15	O	-4.760545	-0.108742	-0.315842
O16	O	-4.260545	0.391258	0.184158
O17	O	-4.370454	0.019293	-0.336358
O18	O	-3.870454	0.519293	0.163642
O19	O	-4.766057	-0.348168	-0.414115
O20	O	-4.266057	0.151832	0.085885
O21	O	-4.739923	-0.166439	-0.537349
O22	O	-4.239923	0.333561	-0.037349
O23	O	-4.396408	-0.161187	-0.213972
O24	O	-3.896408	0.338813	0.286028
C25	C	-3.962969	-0.402403	-0.429946
C26	C	-3.462969	0.097597	0.070054
C27	C	-4.040303	-0.547779	-0.458023
C28	C	-3.540303	-0.047779	0.041977
C29	C	-4.020543	-0.594762	-0.367146
C30	C	-3.520543	-0.094762	0.132854
C31	C	-4.100471	-0.745016	-0.396162
C32	C	-3.600471	-0.245016	0.103838
C33	C	-3.929861	-0.172182	-0.586061
C34	C	-3.429861	0.327818	-0.086061
C35	C	-3.986143	-0.171189	-0.713384
C36	C	-3.486143	0.328811	-0.213384
C37	C	-4.089147	-0.169373	-0.946495
C38	C	-3.589147	0.330627	-0.446495
C39	C	-4.031819	-0.170383	-0.816775
C40	C	-3.531819	0.329617	-0.316775
C41	C	-4.178798	0.062632	-0.333341
C42	C	-3.678798	0.562632	0.166659
C43	C	-4.080703	0.208007	-0.305272
C44	C	-3.580703	0.708007	0.194728
C45	C	-4.211905	-0.167587	-0.177223
C46	C	-3.711905	0.332413	0.322777
C47	C	-4.134860	-0.168573	-0.049898
C48	C	-3.634860	0.331427	0.450102
H49	H	-4.116399	-0.618792	-0.557307
H50	H	-3.616399	-0.118792	-0.057307
H51	H	-3.944465	-0.523750	-0.267862
H52	H	-3.444465	-0.023750	0.232138
O53	O	-4.190939	-0.829578	-0.514657
O54	O	-3.690939	-0.329578	-0.014657
C55	C	-4.032739	-0.801408	-0.567747
C56	C	-3.532739	-0.301408	-0.067747
H57	H	-3.905370	-0.694765	-0.515532
H58	H	-3.405370	-0.194765	-0.015532
H59	H	-4.121952	-0.815464	-0.667918
H60	H	-3.621952	-0.315464	-0.167918
H61	H	-3.942974	-0.871217	-0.562723
H62	H	-3.442974	-0.371217	-0.062723
H63	H	-4.004621	-0.720986	-0.205981
H64	H	-3.504621	-0.220986	0.294019
