data_functionalizedCrystal
_audit_creation_method	'MofGen! by Chris Wilmer'
_symmetry_space_group_name_H-M	'P1'
_symmetry_Int_Tables_number	1
_symmetry_cell_setting	triclinic
loop_
_symmetry_equiv_pos_as_xyz
  x,y,z
_cell_length_a	8.597340
_cell_length_b	8.559649
_cell_length_c	7.681481
_cell_angle_alpha	94.930900
_cell_angle_beta	76.525094
_cell_angle_gamma	77.625043
loop_
_atom_site_label
_atom_site_type_symbol
_atom_site_fract_x
_atom_site_fract_y
_atom_site_fract_z
O1	O	2.072798	0.220972	-0.168061
O2	O	1.605621	0.246431	-0.097179
O3	O	1.880368	0.001097	-0.138866
O4	O	1.798050	0.466306	-0.126373
O5	O	1.914193	-0.029168	-0.436856
O6	O	1.639446	0.216166	-0.395169
O7	O	2.106623	0.190707	-0.466051
Zn8	Zn	1.878405	0.198632	-0.477922
Zn9	Zn	1.833839	0.238507	-0.085307
O10	O	1.831876	0.436041	-0.424363
C11	C	1.563278	0.230251	-0.237183
C12	C	1.386718	0.227108	-0.210395
C13	C	1.903519	-0.073565	-0.288805
C14	C	1.922086	-0.250945	-0.291612
C15	C	2.148965	0.206888	-0.326042
C16	C	2.325524	0.210032	-0.352819
C17	C	1.808725	0.510704	-0.274421
C18	C	1.790156	0.688085	-0.271602
N19	N	1.908832	0.171417	-0.745873
N20	N	1.803426	0.265709	0.182641
H21	H	1.408209	0.197804	-0.495256
F22	F	2.049493	0.045625	-0.865510
H23	H	1.304027	0.239326	-0.067949
F24	F	2.088307	-0.360098	-0.316852
F25	F	1.623946	-0.202772	-0.246389
H26	H	1.695829	0.361953	-0.725836
