data_functionalizedCrystal
_audit_creation_method	'MofGen! by Chris Wilmer'
_symmetry_space_group_name_H-M	'P1'
_symmetry_Int_Tables_number	1
_symmetry_cell_setting	triclinic
loop_
_symmetry_equiv_pos_as_xyz
  x,y,z
_cell_length_a	29.839134
_cell_length_b	29.839131
_cell_length_c	29.839125
_cell_angle_alpha	89.974637
_cell_angle_beta	89.978020
_cell_angle_gamma	90.030088
loop_
_atom_site_label
_atom_site_type_symbol
_atom_site_fract_x
_atom_site_fract_y
_atom_site_fract_z
Zn1	Zn	0.686739	-0.178978	-0.254101
Zn2	Zn	1.020072	0.154355	0.079232
Zn3	Zn	1.353406	0.487689	0.412566
Zn4	Zn	0.686679	-0.254090	-0.178961
Zn5	Zn	1.020013	0.079243	0.154372
Zn6	Zn	1.353346	0.412577	0.487706
Zn7	Zn	0.611622	-0.178968	-0.178971
Zn8	Zn	0.944955	0.154365	0.154363
Zn9	Zn	1.278288	0.487699	0.487696
Zn10	Zn	0.611578	-0.254075	-0.254049
Zn11	Zn	0.944911	0.079258	0.079284
Zn12	Zn	1.278244	0.412592	0.412617
O13	O	0.649154	-0.216528	-0.216521
O14	O	0.982488	0.116806	0.116813
O15	O	1.315821	0.450139	0.450146
O16	O	0.749598	-0.188952	-0.244151
O17	O	1.082931	0.144381	0.089182
O18	O	1.416265	0.477715	0.422515
O19	O	0.676716	-0.244127	-0.116095
O20	O	1.010049	0.089206	0.217238
O21	O	1.343383	0.422540	0.550571
O22	O	0.621630	-0.116102	-0.188963
O23	O	0.954963	0.217231	0.144371
O24	O	1.288296	0.550564	0.477704
O25	O	0.749554	-0.244137	-0.188946
O26	O	1.082888	0.089197	0.144387
O27	O	1.416221	0.422530	0.477721
O28	O	0.676818	-0.116109	-0.244161
O29	O	1.010151	0.217224	0.089173
O30	O	1.343485	0.550557	0.422506
O31	O	0.621572	-0.188935	-0.116102
O32	O	0.954905	0.144398	0.217231
O33	O	1.288238	0.477731	0.550564
O34	O	0.548749	-0.188921	-0.188912
O35	O	0.882082	0.144413	0.144421
O36	O	1.215415	0.477746	0.477754
O37	O	0.621554	-0.244111	-0.316923
O38	O	0.954888	0.089222	0.016410
O39	O	1.288221	0.422556	0.349743
O40	O	0.548716	-0.244101	-0.244072
O41	O	0.882050	0.089232	0.089261
O42	O	1.215383	0.422565	0.422594
O43	O	0.676775	-0.188937	-0.316961
O44	O	1.010108	0.144396	0.016372
O45	O	1.343442	0.477729	0.349705
O46	O	0.676673	-0.316955	-0.188896
O47	O	1.010007	0.016378	0.144437
O48	O	1.343340	0.349712	0.477771
O49	O	0.621497	-0.316944	-0.244063
O50	O	0.954830	0.016389	0.089270
O51	O	1.288163	0.349723	0.422604
C52	C	0.532432	-0.216509	-0.216488
C53	C	0.865765	0.116825	0.116845
C54	C	1.199098	0.450158	0.450179
C55	C	0.482497	-0.216511	-0.216485
C56	C	0.815831	0.116822	0.116848
C57	C	1.149164	0.450155	0.450182
C58	C	0.172847	-0.245303	-0.245207
C59	C	0.506180	0.088031	0.088126
C60	C	0.839513	0.421364	0.421459
C61	C	-0.014827	-0.245315	-0.245227
C62	C	0.318507	0.088018	0.088106
C63	C	0.651840	0.421351	0.421440
O64	O	-0.039098	-0.269774	-0.269629
O65	O	0.294236	0.063560	0.063705
O66	O	0.627569	0.396893	0.397038
N67	N	-0.038288	-0.216544	-0.216554
N68	N	0.295046	0.116789	0.116779
N69	N	0.628379	0.450123	0.450112
C70	C	-0.014828	-0.187766	-0.187877
C71	C	0.318506	0.145568	0.145457
C72	C	0.651839	0.478901	0.478790
O73	O	-0.039089	-0.163291	-0.163492
O74	O	0.294244	0.170042	0.169841
O75	O	0.627577	0.503376	0.503174
C76	C	0.172844	-0.187751	-0.187859
C77	C	0.506178	0.145582	0.145474
C78	C	0.839511	0.478916	0.478807
C79	C	0.196303	-0.216527	-0.216531
C80	C	0.529637	0.116806	0.116803
C81	C	0.862970	0.450139	0.450136
C82	C	0.196305	-0.274076	-0.273877
C83	C	0.529639	0.059257	0.059457
C84	C	0.862972	0.392590	0.392790
C85	C	0.243221	-0.274075	-0.273870
C86	C	0.576554	0.059259	0.059464
C87	C	0.909888	0.392592	0.392797
C88	C	0.266677	-0.245299	-0.245193
C89	C	0.600011	0.088034	0.088140
C90	C	0.933344	0.421367	0.421474
C91	C	0.243219	-0.216526	-0.216524
C92	C	0.576552	0.116808	0.116810
C93	C	0.909885	0.450141	0.450143
C94	C	0.196303	-0.158971	-0.159184
C95	C	0.529637	0.174363	0.174149
C96	C	0.862970	0.507696	0.507482
C97	C	0.243224	-0.158969	-0.159183
C98	C	0.576558	0.174365	0.174150
C99	C	0.909891	0.507698	0.507483
C100	C	0.266683	-0.187745	-0.187855
C101	C	0.600017	0.145588	0.145479
C102	C	0.933350	0.478922	0.478812
C103	C	0.313591	-0.187749	-0.187840
C104	C	0.646924	0.145585	0.145493
C105	C	0.980257	0.478918	0.478826
N106	N	0.337052	-0.216520	-0.216513
N107	N	0.670385	0.116814	0.116820
N108	N	1.003719	0.450147	0.450154
C109	C	0.313595	-0.245295	-0.245189
C110	C	0.646929	0.088038	0.088144
C111	C	0.980262	0.421372	0.421477
C112	C	-0.113358	-0.187776	-0.187887
C113	C	0.219975	0.145557	0.145446
C114	C	0.553308	0.478891	0.478779
C115	C	-0.160276	-0.187780	-0.187891
C116	C	0.173057	0.145553	0.145442
C117	C	0.506390	0.478887	0.478776
C118	C	-0.160272	-0.245329	-0.245242
C119	C	0.173062	0.088004	0.088091
C120	C	0.506395	0.421337	0.421425
C121	C	-0.113353	-0.245327	-0.245236
C122	C	0.219980	0.088006	0.088098
C123	C	0.553314	0.421340	0.421431
C124	C	-0.089897	-0.216547	-0.216560
C125	C	0.243436	0.116786	0.116773
C126	C	0.576769	0.450119	0.450107
C127	C	0.412121	-0.245290	-0.245172
C128	C	0.745454	0.088044	0.088161
C129	C	1.078788	0.421377	0.421494
C130	C	0.459041	-0.245287	-0.245161
C131	C	0.792374	0.088047	0.088172
C132	C	1.125707	0.421380	0.421505
C133	C	0.459032	-0.187736	-0.187812
C134	C	0.792365	0.145597	0.145521
C135	C	1.125699	0.478931	0.478855
C136	C	0.412117	-0.187740	-0.187821
C137	C	0.745450	0.145593	0.145512
C138	C	1.078783	0.478926	0.478846
C139	C	0.388662	-0.216519	-0.216505
C140	C	0.721996	0.116815	0.116829
C141	C	1.055329	0.450148	0.450162
O142	O	0.337891	-0.163299	-0.163455
O143	O	0.671224	0.170034	0.169878
O144	O	1.004557	0.503367	0.503212
O145	O	0.337865	-0.269759	-0.269577
O146	O	0.671198	0.063574	0.063756
O147	O	1.004532	0.396908	0.397090
C148	C	0.125931	-0.245304	-0.245214
C149	C	0.459264	0.088029	0.088119
C150	C	0.792598	0.421362	0.421452
C151	C	0.102472	-0.216531	-0.216545
C152	C	0.435806	0.116803	0.116789
C153	C	0.769139	0.450136	0.450122
C154	C	0.125929	-0.187755	-0.187868
C155	C	0.459262	0.145578	0.145465
C156	C	0.792596	0.478911	0.478798
C157	C	0.055554	-0.216535	-0.216548
C158	C	0.388888	0.116798	0.116785
C159	C	0.722221	0.450132	0.450118
C160	C	0.032098	-0.245310	-0.245225
C161	C	0.365431	0.088023	0.088108
C162	C	0.698764	0.421356	0.421442
C163	C	0.055559	-0.274082	-0.273898
C164	C	0.388892	0.059252	0.059436
C165	C	0.722226	0.392585	0.392769
C166	C	0.102474	-0.274080	-0.273891
C167	C	0.435808	0.059254	0.059443
C168	C	0.769141	0.392587	0.392776
C169	C	0.102468	-0.158984	-0.159196
C170	C	0.435801	0.174349	0.174138
C171	C	0.769134	0.507682	0.507471
C172	C	0.055552	-0.158989	-0.159205
C173	C	0.388886	0.174345	0.174129
C174	C	0.722219	0.507678	0.507462
C175	C	0.032096	-0.187764	-0.187881
C176	C	0.365429	0.145569	0.145452
C177	C	0.698762	0.478903	0.478786
C178	C	0.649086	-0.333250	-0.216483
C179	C	0.982419	0.000083	0.116851
C180	C	1.315753	0.333416	0.450184
C181	C	0.649098	-0.383185	-0.216482
C182	C	0.982431	-0.049851	0.116852
C183	C	1.315764	0.283482	0.450185
C184	C	0.677885	-0.692797	-0.245303
C185	C	1.011218	-0.359464	0.088030
C186	C	1.344551	-0.026130	0.421364
C187	C	0.677933	-0.880470	-0.245330
C188	C	1.011267	-0.547137	0.088003
C189	C	1.344600	-0.213803	0.421337
O190	O	0.702342	-0.904708	-0.269807
O191	O	1.035675	-0.571375	0.063526
O192	O	1.369009	-0.238042	0.396859
N193	N	0.649231	-0.903970	-0.216570
N194	N	0.982564	-0.570636	0.116763
N195	N	1.315897	-0.237303	0.450096
C196	C	0.620512	-0.880548	-0.187804
C197	C	0.953845	-0.547215	0.145529
C198	C	1.287178	-0.213882	0.478863
O199	O	0.596096	-0.904843	-0.163346
O200	O	0.929429	-0.571509	0.169987
O201	O	1.262763	-0.238176	0.503321
C202	C	0.620461	-0.692876	-0.187780
C203	C	0.953794	-0.359543	0.145554
C204	C	1.287128	-0.026209	0.478887
C205	C	0.649169	-0.669379	-0.216538
C206	C	0.982502	-0.336045	0.116795
C207	C	1.315835	-0.002712	0.450129
C208	C	0.706590	-0.669300	-0.274059
C209	C	1.039923	-0.335966	0.059274
C210	C	1.373256	-0.002633	0.392607
C211	C	0.706579	-0.622384	-0.274051
C212	C	1.039912	-0.289051	0.059283
C213	C	1.373246	0.044283	0.392616
C214	C	0.677863	-0.598966	-0.245286
C215	C	1.011196	-0.265633	0.088048
C216	C	1.344530	0.067701	0.421381
C217	C	0.649158	-0.622463	-0.216529
C218	C	0.982491	-0.289130	0.116804
C219	C	1.315825	0.044203	0.450137
C220	C	0.591740	-0.669456	-0.159016
C221	C	0.925073	-0.336122	0.174318
C222	C	1.258407	-0.002789	0.507651
C223	C	0.591729	-0.622535	-0.159013
C224	C	0.925062	-0.289201	0.174320
C225	C	1.258396	0.044132	0.507654
C226	C	0.620437	-0.599037	-0.187771
C227	C	0.953770	-0.265704	0.145562
C228	C	1.287103	0.067629	0.478895
C229	C	0.620431	-0.552130	-0.187755
C230	C	0.953765	-0.218796	0.145578
C231	C	1.287098	0.114537	0.478911
N232	N	0.649134	-0.528630	-0.216515
N233	N	0.982467	-0.195297	0.116818
N234	N	1.315801	0.138037	0.450152
C235	C	0.677850	-0.552048	-0.245280
C236	C	1.011183	-0.218715	0.088053
C237	C	1.344517	0.114618	0.421387
C238	C	0.620541	-0.979079	-0.187818
C239	C	0.953874	-0.645746	0.145515
C240	C	1.287208	-0.312412	0.478848
C241	C	0.620554	-1.025997	-0.187824
C242	C	0.953887	-0.692663	0.145510
C243	C	1.287221	-0.359330	0.478843
C244	C	0.677975	-1.025915	-0.245351
C245	C	1.011309	-0.692582	0.087983
C246	C	1.344642	-0.359249	0.421316
C247	C	0.677964	-0.978996	-0.245342
C248	C	1.011297	-0.645663	0.087991
C249	C	1.344631	-0.312330	0.421324
C250	C	0.649244	-0.955579	-0.216578
C251	C	0.982577	-0.622246	0.116755
C252	C	1.315910	-0.288913	0.450089
C253	C	0.677826	-0.453522	-0.245259
C254	C	1.011159	-0.120189	0.088074
C255	C	1.344492	0.213144	0.421407
C256	C	0.677814	-0.406603	-0.245247
C257	C	1.011147	-0.073269	0.088087
C258	C	1.344480	0.260064	0.421420
C259	C	0.620391	-0.406688	-0.187722
C260	C	0.953724	-0.073355	0.145612
C261	C	1.287057	0.259978	0.478945
C262	C	0.620404	-0.453604	-0.187732
C263	C	0.953738	-0.120271	0.145601
C264	C	1.287071	0.213063	0.478934
C265	C	0.649123	-0.477020	-0.216505
C266	C	0.982456	-0.143686	0.116828
C267	C	1.315790	0.189647	0.450162
O268	O	0.596032	-0.527863	-0.163295
O269	O	0.929365	-0.194529	0.170039
O270	O	1.262699	0.138804	0.503372
O271	O	0.702255	-0.527746	-0.269742
O272	O	1.035588	-0.194413	0.063592
O273	O	1.368922	0.138921	0.396925
C274	C	0.677895	-0.739712	-0.245312
C275	C	1.011229	-0.406379	0.088021
C276	C	1.344562	-0.073046	0.421355
C277	C	0.649190	-0.763210	-0.216556
C278	C	0.982524	-0.429876	0.116778
C279	C	1.315857	-0.096543	0.450111
C280	C	0.620474	-0.739792	-0.187790
C281	C	0.953808	-0.406458	0.145543
C282	C	1.287141	-0.073125	0.478876
C283	C	0.649203	-0.810128	-0.216561
C284	C	0.982537	-0.476794	0.116772
C285	C	1.315870	-0.143461	0.450106
C286	C	0.677919	-0.833546	-0.245326
C287	C	1.011253	-0.500212	0.088007
C288	C	1.344586	-0.166879	0.421341
C289	C	0.706622	-0.810046	-0.274086
C290	C	1.039955	-0.476713	0.059248
C291	C	1.373289	-0.143379	0.392581
C292	C	0.706611	-0.763130	-0.274077
C293	C	1.039945	-0.429797	0.059256
C294	C	1.373278	-0.096464	0.392590
C295	C	0.591772	-0.763291	-0.159031
C296	C	0.925105	-0.429958	0.174303
C297	C	1.258438	-0.096625	0.507636
C298	C	0.591785	-0.810207	-0.159041
C299	C	0.925118	-0.476874	0.174292
C300	C	1.258452	-0.143540	0.507625
C301	C	0.620501	-0.833625	-0.187807
C302	C	0.953834	-0.500292	0.145527
C303	C	1.287168	-0.166958	0.478860
C304	C	0.766333	-0.216547	-0.216553
C305	C	1.099666	0.116786	0.116780
C306	C	1.432999	0.450120	0.450113
C307	C	0.816267	-0.216555	-0.216567
C308	C	1.149600	0.116778	0.116766
C309	C	1.482934	0.450111	0.450099
C310	C	0.649167	-0.216524	-0.333699
C311	C	0.982500	0.116810	-0.000366
C312	C	1.315833	0.450143	0.332968
C313	C	0.649172	-0.216522	-0.383633
C314	C	0.982505	0.116811	-0.050300
C315	C	1.315838	0.450145	0.283033
C316	C	0.649235	-0.099349	-0.216568
C317	C	0.982569	0.233984	0.116765
C318	C	1.315902	0.567317	0.450098
C319	C	0.649270	-0.049415	-0.216589
C320	C	0.982603	0.283918	0.116745
C321	C	1.315937	0.617252	0.450078
C322	C	0.677955	-0.187718	-0.693300
C323	C	1.011289	0.145615	-0.359966
C324	C	1.344622	0.478949	-0.026633
C325	C	0.677978	-0.187680	-0.880973
C326	C	1.011311	0.145654	-0.547640
C327	C	1.344644	0.478987	-0.214306
O328	O	0.702417	-0.163232	-0.905257
O329	O	1.035750	0.170101	-0.571924
O330	O	1.369084	0.503435	-0.238590
N331	N	0.649231	-0.216402	-0.904419
N332	N	0.982565	0.116932	-0.571085
N333	N	1.315898	0.450265	-0.237752
C334	C	0.620475	-0.245133	-0.880943
C335	C	0.953809	0.088200	-0.547610
C336	C	1.287142	0.421533	-0.214277
O337	O	0.596022	-0.269559	-0.905192
O338	O	0.929355	0.063774	-0.571859
O339	O	1.262689	0.397108	-0.238525
C340	C	0.620451	-0.245169	-0.693271
C341	C	0.953784	0.088164	-0.359938
C342	C	1.287118	0.421498	-0.026604
C343	C	0.649202	-0.216448	-0.669828
C344	C	0.982536	0.116885	-0.336494
C345	C	1.315869	0.450218	-0.003161
C346	C	0.706704	-0.158999	-0.669856
C347	C	1.040037	0.174334	-0.336523
C348	C	1.373371	0.507667	-0.003190
C349	C	0.706700	-0.159011	-0.622941
C350	C	1.040033	0.174323	-0.289607
C351	C	1.373367	0.507656	0.043726
C352	C	0.677947	-0.187741	-0.599469
C353	C	1.011280	0.145592	-0.266135
C354	C	1.344614	0.478926	0.067198
C355	C	0.649198	-0.216460	-0.622912
C356	C	0.982532	0.116874	-0.289579
C357	C	1.315865	0.450207	0.043754
C358	C	0.591693	-0.273898	-0.669797
C359	C	0.925026	0.059435	-0.336463
C360	C	1.258360	0.392769	-0.003130
C361	C	0.591689	-0.273903	-0.622876
C362	C	0.925022	0.059430	-0.289542
C363	C	1.258355	0.392763	0.043791
C364	C	0.620440	-0.245183	-0.599432
C365	C	0.953773	0.088151	-0.266099
C366	C	1.287107	0.421484	0.067234
C367	C	0.620441	-0.245202	-0.552525
C368	C	0.953775	0.088132	-0.219191
C369	C	1.287108	0.421465	0.114142
N370	N	0.649188	-0.216480	-0.529079
N371	N	0.982521	0.116854	-0.195746
N372	N	1.315854	0.450187	0.137588
C373	C	0.677941	-0.187749	-0.552551
C374	C	1.011274	0.145584	-0.219218
C375	C	1.344607	0.478917	0.114116
C376	C	0.620491	-0.245113	-0.979474
C377	C	0.953824	0.088220	-0.646141
C378	C	1.287157	0.421554	-0.312807
C379	C	0.620497	-0.245105	-1.026392
C380	C	0.953830	0.088229	-0.693059
C381	C	1.287164	0.421562	-0.359725
C382	C	0.677999	-0.187650	-1.026418
C383	C	1.011332	0.145683	-0.693085
C384	C	1.344666	0.479016	-0.359751
C385	C	0.677994	-0.187661	-0.979499
C386	C	1.011328	0.145672	-0.646166
C387	C	1.344661	0.479005	-0.312833
C388	C	0.649237	-0.216391	-0.956028
C389	C	0.982570	0.116942	-0.622695
C390	C	1.315904	0.450276	-0.289362
C391	C	0.677930	-0.187776	-0.454025
C392	C	1.011263	0.145557	-0.120692
C393	C	1.344597	0.478891	0.212642
C394	C	0.677925	-0.187792	-0.407105
C395	C	1.011258	0.145542	-0.073772
C396	C	1.344591	0.478875	0.259561
C397	C	0.620421	-0.245244	-0.407083
C398	C	0.953754	0.088089	-0.073750
C399	C	1.287088	0.421423	0.259583
C400	C	0.620428	-0.245230	-0.453999
C401	C	0.953761	0.088103	-0.120665
C402	C	1.287095	0.421436	0.212668
C403	C	0.649184	-0.216493	-0.477469
C404	C	0.982517	0.116840	-0.144135
C405	C	1.315851	0.450174	0.189198
O406	O	0.596011	-0.269633	-0.528212
O407	O	0.929344	0.063700	-0.194878
O408	O	1.262678	0.397034	0.138455
O409	O	0.702383	-0.163320	-0.528294
O410	O	1.035717	0.170013	-0.194961
O411	O	1.369050	0.503346	0.138372
C412	C	0.677959	-0.187706	-0.740215
C413	C	1.011293	0.145627	-0.406882
C414	C	1.344626	0.478960	-0.073549
C415	C	0.649211	-0.216425	-0.763659
C416	C	0.982544	0.116908	-0.430325
C417	C	1.315877	0.450242	-0.096992
C418	C	0.620458	-0.245155	-0.740187
C419	C	0.953791	0.088178	-0.406853
C420	C	1.287124	0.421511	-0.073520
C421	C	0.649217	-0.216417	-0.810577
C422	C	0.982551	0.116917	-0.477243
C423	C	1.315884	0.450250	-0.143910
C424	C	0.677970	-0.187686	-0.834049
C425	C	1.011303	0.145647	-0.500715
C426	C	1.344637	0.478980	-0.167382
C427	C	0.706717	-0.158964	-0.810603
C428	C	1.040050	0.174369	-0.477269
C429	C	1.373383	0.507702	-0.143936
C430	C	0.706712	-0.158976	-0.763687
C431	C	1.040046	0.174357	-0.430354
C432	C	1.373379	0.507691	-0.097020
C433	C	0.591711	-0.273877	-0.763633
C434	C	0.925045	0.059456	-0.430299
C435	C	1.258378	0.392789	-0.096966
C436	C	0.591718	-0.273864	-0.810548
C437	C	0.925052	0.059470	-0.477215
C438	C	1.258385	0.392803	-0.143881
C439	C	0.620471	-0.245133	-0.834020
C440	C	0.953805	0.088200	-0.500687
C441	C	1.287138	0.421533	-0.167353
C442	C	0.649168	-0.216499	-0.099798
C443	C	0.982501	0.116834	0.233535
C444	C	1.315835	0.450167	0.566869
C445	C	0.649250	-0.216374	-0.049864
C446	C	0.982583	0.116959	0.283469
C447	C	1.315917	0.450292	0.616803
H448	H	-0.179372	-0.164352	-0.164539
H449	H	0.153961	0.168981	0.168794
H450	H	0.487294	0.502315	0.502127
H451	H	0.568265	-0.297294	-0.603768
H452	H	0.901599	0.036039	-0.270435
H453	H	1.234932	0.369372	0.062899
H454	H	0.729988	-0.744002	-0.297495
H455	H	1.063321	-0.410669	0.035838
H456	H	1.396654	-0.077336	0.369172
H457	H	0.701344	-0.164374	-0.473128
H458	H	1.034678	0.168960	-0.139795
H459	H	1.368011	0.502293	0.193538
H460	H	0.568363	-0.688579	-0.135597
H461	H	0.901696	-0.355246	0.197736
H462	H	1.235030	-0.021912	0.531069
H463	H	0.393030	-0.268723	-0.268530
H464	H	0.726364	0.064611	0.064803
H465	H	1.059697	0.397944	0.398136
H466	H	0.597012	-0.387614	-0.164300
H467	H	0.930345	-0.054281	0.169033
H468	H	1.263679	0.279053	0.502367
H469	H	0.701411	-0.164257	-1.045537
H470	H	1.034744	0.169076	-0.712204
H471	H	1.368078	0.502409	-0.378870
H472	H	0.701208	-0.472582	-0.268692
H473	H	1.034541	-0.139249	0.064642
H474	H	1.367875	0.194085	0.397975
H475	H	0.597153	-0.960016	-0.164394
H476	H	0.930486	-0.626682	0.168940
H477	H	1.263819	-0.293349	0.502273
H478	H	0.036456	-0.135556	-0.135853
H479	H	0.369789	0.197777	0.197481
H480	H	0.703123	0.531111	0.530814
H481	H	0.597020	-0.268621	-0.473087
H482	H	0.930354	0.064712	-0.139754
H483	H	1.263687	0.398045	0.193579
H484	H	0.701192	-0.387473	-0.268665
H485	H	1.034526	-0.054139	0.064668
H486	H	1.367859	0.279194	0.398002
H487	H	0.701357	-1.044990	-0.268772
H488	H	1.034691	-0.711657	0.064562
H489	H	1.368024	-0.378323	0.397895
H490	H	0.121561	-0.135551	-0.135843
H491	H	0.454895	0.197782	0.197490
H492	H	0.788228	0.531115	0.530823
H493	H	0.730005	-0.829121	-0.297506
H494	H	1.063338	-0.495788	0.035827
H495	H	1.396672	-0.162454	0.369161
H496	H	0.597182	-1.045124	-0.164401
H497	H	0.930515	-0.711791	0.168932
H498	H	1.263849	-0.378458	0.502266
H499	H	0.568297	-0.297274	-0.744526
H500	H	0.901631	0.036059	-0.411193
H501	H	1.234964	0.369393	-0.077860
H502	H	0.730112	-0.135623	-0.603857
H503	H	1.063445	0.197711	-0.270524
H504	H	1.396778	0.531044	0.062809
H505	H	0.568408	-0.829334	-0.135619
H506	H	0.901742	-0.496001	0.197715
H507	H	1.235075	-0.162668	0.531048
H508	H	0.568387	-0.744228	-0.135607
H509	H	0.901720	-0.410895	0.197726
H510	H	1.235054	-0.077561	0.531060
H511	H	0.597090	-0.268497	-1.045476
H512	H	0.930423	0.064836	-0.712142
H513	H	1.263756	0.398170	-0.378809
H514	H	-0.179378	-0.268759	-0.268592
H515	H	0.153955	0.064574	0.064742
H516	H	0.487289	0.397907	0.398075
H517	H	0.597013	-0.268637	-0.387964
H518	H	0.930346	0.064696	-0.054631
H519	H	1.263679	0.398030	0.278703
H520	H	0.729954	-0.603255	-0.297470
H521	H	1.063287	-0.269922	0.035864
H522	H	1.396621	0.063411	0.369197
H523	H	0.177211	-0.135539	-0.135836
H524	H	0.510545	0.197794	0.197498
H525	H	0.843878	0.531128	0.530831
H526	H	0.597032	-0.472736	-0.164312
H527	H	0.930365	-0.139403	0.169022
H528	H	1.263698	0.193930	0.502355
H529	H	0.730125	-0.135588	-0.744604
H530	H	1.063458	0.197745	-0.411270
H531	H	1.396791	0.531078	-0.077937
H532	H	0.568340	-0.603470	-0.135590
H533	H	0.901673	-0.270137	0.197743
H534	H	1.235006	0.063196	0.531077
H535	H	0.729974	-0.688362	-0.297486
H536	H	1.063307	-0.355028	0.035847
H537	H	1.396640	-0.021695	0.369180
H538	H	0.036452	-0.297513	-0.297246
H539	H	0.369786	0.035821	0.036088
H540	H	0.703119	0.369154	0.369421
H541	H	-0.094265	-0.164339	-0.164534
H542	H	0.239068	0.168994	0.168800
H543	H	0.572402	0.502327	0.502133
H544	H	0.568306	-0.297256	-0.829632
H545	H	0.901639	0.036077	-0.496298
H546	H	1.234973	0.369411	-0.162965
H547	H	0.701339	-0.164403	-0.388020
H548	H	1.034672	0.168930	-0.054686
H549	H	1.368006	0.502263	0.278647
H550	H	0.262317	-0.297506	-0.297218
H551	H	0.595650	0.035827	0.036116
H552	H	0.928984	0.369160	0.369449
H553	H	0.701340	-0.959868	-0.268760
H554	H	1.034674	-0.626534	0.064573
H555	H	1.368007	-0.293201	0.397906
H556	H	0.262320	-0.135529	-0.135834
H557	H	0.595653	0.197804	0.197499
H558	H	0.928986	0.531137	0.530833
H559	H	0.393015	-0.164309	-0.164474
H560	H	0.726349	0.169024	0.168860
H561	H	1.059682	0.502357	0.502193
H562	H	0.701406	-0.164274	-0.960415
H563	H	1.034739	0.169060	-0.627082
H564	H	1.368072	0.502393	-0.293748
H565	H	0.730118	-0.135601	-0.688962
H566	H	1.063452	0.197732	-0.355629
H567	H	1.396785	0.531066	-0.022295
H568	H	0.568280	-0.297285	-0.688876
H569	H	0.901614	0.036048	-0.355543
H570	H	1.234947	0.369381	-0.022210
H571	H	0.478139	-0.268721	-0.268510
H572	H	0.811472	0.064612	0.064824
H573	H	1.144805	0.397945	0.398157
H574	H	0.478139	-0.164309	-0.164463
H575	H	0.811472	0.169024	0.168870
H576	H	1.144806	0.502358	0.502204
H577	H	0.730130	-0.135573	-0.829722
H578	H	1.063463	0.197761	-0.496388
H579	H	1.396796	0.531094	-0.163055
H580	H	0.121570	-0.297512	-0.297238
H581	H	0.454904	0.035821	0.036095
H582	H	0.788237	0.369154	0.369429
H583	H	0.177212	-0.297509	-0.297231
H584	H	0.510545	0.035824	0.036102
H585	H	0.843879	0.369158	0.369436
H586	H	-0.094256	-0.268759	-0.268583
H587	H	0.239077	0.064575	0.064750
H588	H	0.572411	0.397908	0.398083
H589	H	0.597073	-0.268511	-0.960368
H590	H	0.930406	0.064822	-0.627035
H591	H	1.263740	0.398156	-0.293701
