data_functionalizedCrystal
_audit_creation_method	'MofGen! by Chris Wilmer'
_symmetry_space_group_name_H-M	'P1'
_symmetry_Int_Tables_number	1
_symmetry_cell_setting	triclinic
loop_
_symmetry_equiv_pos_as_xyz
  x,y,z
_cell_length_a	10.654556
_cell_length_b	12.996460
_cell_length_c	10.654550
_cell_angle_alpha	89.999886
_cell_angle_beta	95.513766
_cell_angle_gamma	90.004591
loop_
_atom_site_label
_atom_site_type_symbol
_atom_site_fract_x
_atom_site_fract_y
_atom_site_fract_z
O1	O	1.667841	0.085528	-0.176429
O2	O	1.302363	0.085538	-0.193226
O3	O	1.493505	0.085526	-0.002088
O4	O	1.476699	0.085540	-0.367567
O5	O	1.493480	-0.085608	-0.002099
O6	O	1.302338	-0.085596	-0.193237
O7	O	1.667816	-0.085606	-0.176440
Cu8	Cu	1.485075	-0.101227	-0.184839
Cu9	Cu	1.485104	0.101159	-0.184826
O10	O	1.476674	-0.085594	-0.367577
C11	C	1.255553	-0.000027	-0.191997
C12	C	1.116110	-0.000023	-0.188302
C13	C	0.919578	0.093253	-0.183093
C14	C	1.050600	0.093260	-0.186557
C15	C	1.050592	-0.093320	-0.186569
C16	C	0.919573	-0.093325	-0.183096
N17	N	1.485063	-0.243574	-0.184848
C18	C	1.485069	-0.336680	-0.184851
C19	C	1.485081	-0.453485	-0.184843
C20	C	1.485096	-0.546583	-0.184829
C21	C	1.485110	-0.663396	-0.184822
C22	C	1.714626	-0.000038	-0.177669
C23	C	1.854069	-0.000035	-0.181364
C24	C	1.492258	-0.000040	0.044704
C25	C	1.488567	-0.000038	0.184147
N26	N	1.485125	0.243506	-0.184808
C27	C	1.477920	-0.000026	-0.414370
C28	C	1.481612	-0.000020	-0.553813
C29	C	1.601108	-0.000041	0.263630
C30	C	1.597631	-0.000029	0.394651
C31	C	1.369063	-0.000015	0.366693
C32	C	1.372540	-0.000020	0.235675
H33	H	0.866234	-0.169297	-0.181687
H34	H	1.695584	-0.000054	0.221681
H35	H	1.103932	0.169225	-0.187963
C36	C	1.173151	-0.087969	0.383194
C37	C	1.241527	-0.000002	0.423331
H38	H	1.094411	-0.087957	0.418152
H39	H	1.219523	-0.147638	0.410420
H40	H	1.159130	-0.087959	0.293787
H41	H	1.255556	-0.000015	0.512738
H42	H	1.195145	0.059683	0.396112
H43	H	1.103941	-0.169273	-0.187981
C44	C	1.178799	0.087959	0.171503
C45	C	1.248823	-0.000018	0.148299
H46	H	1.102422	0.087958	0.117565
H47	H	1.226337	0.147622	0.155769
H48	H	1.160130	0.087950	0.256910
H49	H	1.267500	-0.000005	0.062894
H50	H	1.201275	-0.059696	0.164024
C51	C	1.791403	0.087927	0.458796
C52	C	1.721343	-0.000036	0.482016
H53	H	1.867784	0.087919	0.512726
H54	H	1.743892	0.147600	0.474529
H55	H	1.810063	0.087907	0.373386
H56	H	1.702675	-0.000012	0.567423
H57	H	1.768863	-0.059724	0.466292
C58	C	0.932752	0.277678	-0.183421
C59	C	0.847576	0.195796	-0.181177
H60	H	0.888302	0.340984	-0.182229
H61	H	0.974913	0.273804	-0.257879
H62	H	0.992796	0.273787	-0.111661
H63	H	0.787537	0.199683	-0.252942
H64	H	0.805395	0.199672	-0.106711
