data_functionalizedCrystal
_audit_creation_method	'MofGen! by Chris Wilmer'
_symmetry_space_group_name_H-M	'P1'
_symmetry_Int_Tables_number	1
_symmetry_cell_setting	triclinic
loop_
_symmetry_equiv_pos_as_xyz
  x,y,z
_cell_length_a	19.077105
_cell_length_b	19.077068
_cell_length_c	19.076919
_cell_angle_alpha	94.470751
_cell_angle_beta	90.076224
_cell_angle_gamma	90.115316
loop_
_atom_site_label
_atom_site_type_symbol
_atom_site_fract_x
_atom_site_fract_y
_atom_site_fract_z
Zn1	Zn	1.044048	-0.340450	-0.453500
Zn2	Zn	1.544048	0.159550	0.046500
Zn3	Zn	1.043962	-0.453600	-0.340340
Zn4	Zn	1.543962	0.046400	0.159660
Zn5	Zn	0.931660	-0.331023	-0.330931
Zn6	Zn	1.431660	0.168977	0.169069
Zn7	Zn	0.921801	-0.453176	-0.453077
Zn8	Zn	1.421801	0.046824	0.046923
O9	O	0.985368	-0.394562	-0.394462
O10	O	1.485368	0.105438	0.105538
O11	O	1.142196	-0.359583	-0.442604
O12	O	1.642196	0.140417	0.057396
O13	O	1.033154	-0.433572	-0.240616
O14	O	1.533154	0.066428	0.259384
O15	O	0.950731	-0.233799	-0.343429
O16	O	1.450731	0.266201	0.156571
O17	O	1.142133	-0.442714	-0.359466
O18	O	1.642133	0.057286	0.140534
O19	O	1.033302	-0.240725	-0.433479
O20	O	1.533302	0.259275	0.066521
O21	O	0.950647	-0.343516	-0.233703
O22	O	1.450647	0.156484	0.266297
O23	O	0.832193	-0.343104	-0.343019
O24	O	1.332193	0.156896	0.156981
O25	O	0.933928	-0.441990	-0.551609
O26	O	1.433928	0.058010	-0.051609
O27	O	0.824949	-0.432849	-0.432759
O28	O	1.324949	0.067151	0.067241
O29	O	1.023742	-0.359171	-0.551919
O30	O	1.523742	0.140829	-0.051919
O31	O	1.023594	-0.552019	-0.359056
O32	O	1.523594	-0.052019	0.140944
O33	O	0.933844	-0.551707	-0.441883
O34	O	1.433844	-0.051707	0.058117
C35	C	0.803119	-0.386908	-0.386822
C36	C	1.303119	0.113092	0.113178
C37	C	0.725151	-0.383651	-0.383571
C38	C	1.225151	0.116349	0.116429
C39	C	0.684769	-0.428912	-0.428699
C40	C	1.184769	0.071088	0.071301
C41	C	0.611510	-0.425842	-0.425647
C42	C	1.111510	0.074158	0.074353
C43	C	0.578634	-0.377515	-0.377464
C44	C	1.078634	0.122485	0.122536
C45	C	0.619022	-0.332250	-0.332335
C46	C	1.119022	0.167750	0.167665
C47	C	0.692280	-0.335317	-0.335390
C48	C	1.192280	0.164683	0.164610
C49	C	0.359940	-0.363323	-0.363326
C50	C	0.859940	0.136677	0.136674
C51	C	0.286677	-0.360262	-0.360273
C52	C	0.786677	0.139738	0.139727
C53	C	0.279170	-0.453853	-0.453586
C54	C	0.779170	0.046147	0.046414
C55	C	0.352429	-0.456918	-0.456635
C56	C	0.852429	0.043082	0.043365
C57	C	0.392810	-0.411651	-0.411508
C58	C	0.892810	0.088349	0.088492
N59	N	0.503752	-0.374378	-0.374342
N60	N	1.003752	0.125622	0.125658
N61	N	0.467691	-0.414785	-0.414634
N62	N	0.967691	0.085215	0.085366
C63	C	0.977658	-0.577398	-0.401461
C64	C	1.477658	-0.077398	0.098539
C65	C	0.974423	-0.655619	-0.404482
C66	C	1.474423	-0.155619	0.095518
C67	C	1.019665	-0.692509	-0.362816
C68	C	1.519665	-0.192509	0.137184
C69	C	1.016626	-0.766007	-0.365661
C70	C	1.516626	-0.266007	0.134339
C71	C	0.968342	-0.802612	-0.410169
C72	C	1.468342	-0.302612	0.089831
C73	C	0.923098	-0.765717	-0.451839
C74	C	1.423098	-0.265717	0.048161
C75	C	0.926141	-0.692221	-0.448997
C76	C	1.426141	-0.192221	0.051003
C77	C	0.954231	-1.022406	-0.423292
C78	C	1.454231	-0.522406	0.076708
C79	C	0.951190	-1.095907	-0.426130
C80	C	1.451190	-0.595907	0.073870
C81	C	1.044720	-1.096192	-0.339952
C82	C	1.544720	-0.596192	0.160048
C83	C	1.047755	-1.022695	-0.337111
C84	C	1.547755	-0.522695	0.162889
C85	C	1.002514	-0.985806	-0.378784
C86	C	1.502514	-0.485806	0.121216
N87	N	0.965233	-0.877738	-0.413077
N88	N	1.465233	-0.377738	0.086923
N89	N	1.005627	-0.910681	-0.375880
N90	N	1.505627	-0.410681	0.124120
C91	C	1.168328	-0.402247	-0.402132
C92	C	1.668328	0.097753	0.097868
C93	C	1.246295	-0.405522	-0.405400
C94	C	1.746295	0.094478	0.094600
C95	C	0.977745	-0.401585	-0.578012
C96	C	1.477745	0.098415	-0.078012
C97	C	0.974497	-0.404578	-0.656230
C98	C	1.474497	0.095422	-0.156230
C99	C	0.993126	-0.211015	-0.387451
C100	C	1.493126	0.288985	0.112549
C101	C	0.996432	-0.132798	-0.384464
C102	C	1.496432	0.367202	0.115536
C103	C	1.019730	-0.362866	-0.693140
C104	C	1.519730	0.137134	-0.193140
C105	C	1.016669	-0.365675	-0.766634
C106	C	1.516669	0.134325	-0.266634
C107	C	0.968378	-0.410200	-0.803216
C108	C	1.468378	0.089800	-0.303216
C109	C	0.923140	-0.451913	-0.766301
C110	C	1.423140	0.048087	-0.266301
C111	C	0.926198	-0.449100	-0.692809
C112	C	1.426198	0.050900	-0.192809
C113	C	0.954216	-0.423233	-1.022998
C114	C	1.454216	0.076767	-0.522998
C115	C	0.951163	-0.426044	-1.096496
C116	C	1.451163	0.073956	-0.596496
C117	C	1.044691	-0.339805	-1.096823
C118	C	1.544691	0.160195	-0.596823
C119	C	1.047748	-0.337000	-1.023329
C120	C	1.547748	0.163000	-0.523329
C121	C	1.002507	-0.378710	-0.986421
C122	C	1.502507	0.121290	-0.486421
N123	N	0.965250	-0.413073	-0.878339
N124	N	1.465250	0.086927	-0.378339
N125	N	1.005632	-0.375832	-0.911299
N126	N	1.505632	0.124168	-0.411299
C127	C	0.993003	-0.387518	-0.211626
C128	C	1.493003	0.112482	0.288374
C129	C	0.996396	-0.384333	-0.133406
C130	C	1.496396	0.115667	0.366594
H131	H	0.246283	-0.490707	-0.490327
H132	H	0.746283	0.009293	0.009673
H133	H	0.917392	-0.992377	-0.457223
H134	H	1.417392	-0.492377	0.042777
C135	C	0.388590	-0.510102	-0.509610
C136	C	0.888590	-0.010102	-0.009610
H137	H	0.438004	-0.505458	-0.504953
H138	H	0.938004	-0.005458	-0.004953
H139	H	0.375075	-0.501214	-0.556029
H140	H	0.875075	-0.001214	-0.056029
H141	H	0.375009	-0.556459	-0.500509
H142	H	0.875009	-0.056459	-0.000509
C143	C	0.582864	-0.279089	-0.279335
C144	C	1.082864	0.220911	0.220665
H145	H	0.617409	-0.252568	-0.252901
H146	H	1.117409	0.247432	0.247099
H147	H	0.554423	-0.303587	-0.248465
H148	H	1.054423	0.196413	0.251535
H149	H	0.554463	-0.248303	-0.303946
H150	H	1.054463	0.251697	0.196054
C151	C	0.736703	-0.285532	-0.285752
C152	C	1.236703	0.214468	0.214248
H153	H	0.785041	-0.294274	-0.294477
H154	H	1.285041	0.205726	0.205523
H155	H	0.726224	-0.293441	-0.238342
H156	H	1.226224	0.206559	0.261658
H157	H	0.726259	-0.238159	-0.293825
H158	H	1.226259	0.261841	0.206175
C159	C	0.870022	-0.500889	-0.806540
C160	C	1.370022	-0.000889	-0.306540
H161	H	0.874683	-0.496597	-0.855597
H162	H	1.374683	0.003403	-0.355597
H163	H	0.823828	-0.488151	-0.792125
H164	H	1.323828	0.011849	-0.292125
H165	H	0.878796	-0.548143	-0.796730
H166	H	1.378796	-0.048143	-0.296730
C167	C	0.869985	-0.805981	-0.500795
C168	C	1.369985	-0.305981	-0.000795
H169	H	0.874646	-0.855035	-0.496515
H170	H	1.374646	-0.355035	0.003485
H171	H	0.878745	-0.796147	-0.548048
H172	H	1.378745	-0.296147	-0.048048
H173	H	0.823787	-0.791605	-0.488012
H174	H	1.323787	-0.291605	0.011988
C175	C	0.720925	-0.482071	-0.481702
C176	C	1.220925	0.017929	0.018298
H177	H	0.686380	-0.508581	-0.508145
H178	H	1.186380	-0.008581	-0.008145
H179	H	0.749329	-0.512856	-0.457099
H180	H	1.249329	-0.012856	0.042901
H181	H	0.749365	-0.457565	-0.512573
H182	H	1.249365	0.042435	-0.012573
C183	C	1.094486	-1.136768	-0.294119
C184	C	1.594486	-0.636768	0.205881
H185	H	1.123674	-1.104440	-0.267202
H186	H	1.623674	-0.604440	0.232798
H187	H	1.122723	-1.167714	-0.323449
H188	H	1.622723	-0.667714	0.176551
H189	H	1.067760	-1.163174	-0.263417
H190	H	1.567760	-0.663174	0.236583
C191	C	1.072847	-0.313885	-0.652905
C192	C	1.572847	0.186115	-0.152905
H193	H	1.099342	-0.289441	-0.685415
H194	H	1.599342	0.210559	-0.185415
H195	H	1.103467	-0.340986	-0.626544
H196	H	1.603467	0.159014	-0.126544
H197	H	1.048495	-0.280998	-0.621941
H198	H	1.548495	0.219002	-0.121941
C199	C	0.876376	-0.651642	-0.494831
C200	C	1.376376	-0.151642	0.005169
H201	H	0.847180	-0.683967	-0.521741
H202	H	1.347180	-0.183967	-0.021741
H203	H	0.903101	-0.625235	-0.525527
H204	H	1.403101	-0.125235	-0.025527
H205	H	0.848135	-0.620695	-0.465498
H206	H	1.348135	-0.120695	0.034502
C207	C	1.066429	-0.319796	-0.807232
C208	C	1.566429	0.180204	-0.307232
H209	H	1.095633	-0.292883	-0.774919
H210	H	1.595633	0.207117	-0.274919
H211	H	1.039704	-0.289102	-0.833604
H212	H	1.539704	0.210898	-0.333604
H213	H	1.094662	-0.349103	-0.838212
H214	H	1.594662	0.150897	-0.338212
H215	H	1.087073	-0.300745	-0.993549
H216	H	1.587073	0.199255	-0.493549
C217	C	1.100841	-0.982428	-0.288125
C218	C	1.600841	-0.482428	0.211875
H219	H	1.096160	-0.933372	-0.292386
H220	H	1.596160	-0.433372	0.207614
H221	H	1.147049	-0.996783	-0.300871
H222	H	1.647049	-0.496783	0.199129
H223	H	1.092043	-0.992278	-0.240880
H224	H	1.592043	-0.492278	0.259120
C225	C	0.898039	-0.475021	-1.136736
C226	C	1.398039	0.024979	-0.636736
H227	H	0.871529	-0.499455	-1.104229
H228	H	1.371529	0.000545	-0.604229
H229	H	0.922383	-0.507908	-1.167702
H230	H	1.422383	-0.007908	-0.667702
H231	H	0.867423	-0.447909	-1.163096
H232	H	1.367423	0.052091	-0.663096
H233	H	1.081523	-0.305846	-1.126882
H234	H	1.581523	0.194154	-0.626882
C235	C	0.876458	-0.495000	-0.652209
C236	C	1.376458	0.005000	-0.152209
H237	H	0.847268	-0.521930	-0.684522
H238	H	1.347268	-0.021930	-0.184522
H239	H	0.848221	-0.465714	-0.621221
H240	H	1.348221	0.034286	-0.121221
H241	H	0.903206	-0.525690	-0.625846
H242	H	1.403206	-0.025690	-0.125846
H243	H	1.053467	-0.796040	-0.331732
H244	H	1.553467	-0.296040	0.168268
H245	H	0.578633	-0.462699	-0.462394
H246	H	1.078633	0.037301	0.037606
C247	C	0.250515	-0.307095	-0.307274
C248	C	0.750515	0.192905	0.192726
H249	H	0.285056	-0.280570	-0.280840
H250	H	0.785056	0.219430	0.219160
H251	H	0.222074	-0.331593	-0.276403
H252	H	0.722074	0.168407	0.223597
H253	H	0.222112	-0.276314	-0.331889
H254	H	0.722112	0.223686	0.168111
C255	C	1.072780	-0.652250	-0.313858
C256	C	1.572780	-0.152250	0.186142
H257	H	1.099293	-0.684750	-0.289457
H258	H	1.599293	-0.184750	0.210543
H259	H	1.048434	-0.621315	-0.280942
H260	H	1.548434	-0.121315	0.219058
H261	H	1.103393	-0.625856	-0.340978
H262	H	1.603393	-0.125856	0.159022
H263	H	0.917388	-0.457207	-0.992957
H264	H	1.417388	0.042793	-0.492957
H265	H	0.392810	-0.326468	-0.326576
H266	H	0.892810	0.173532	0.173424
H267	H	0.911879	-1.125710	-0.462386
H268	H	1.411879	-0.625710	0.037614
