data_functionalizedCrystal
_audit_creation_method	'MofGen! by Chris Wilmer'
_symmetry_space_group_name_H-M	'P1'
_symmetry_Int_Tables_number	1
_symmetry_cell_setting	triclinic
loop_
_symmetry_equiv_pos_as_xyz
  x,y,z
_cell_length_a	12.827893
_cell_length_b	16.959453
_cell_length_c	12.827885
_cell_angle_alpha	89.966028
_cell_angle_beta	89.980919
_cell_angle_gamma	90.019959
loop_
_atom_site_label
_atom_site_type_symbol
_atom_site_fract_x
_atom_site_fract_y
_atom_site_fract_z
Zn1	Zn	1.597636	-0.314644	-0.590813
Zn2	Zn	2.097636	0.185356	-0.090813
Zn3	Zn	1.597516	-0.446843	-0.416060
Zn4	Zn	2.097516	0.053157	0.083940
Zn5	Zn	1.422878	-0.314682	-0.416087
Zn6	Zn	1.922878	0.185318	0.083913
Zn7	Zn	1.422849	-0.446784	-0.590761
Zn8	Zn	1.922849	0.053216	-0.090761
O9	O	1.510220	-0.380738	-0.503430
O10	O	2.010220	0.119262	-0.003430
O11	O	1.743856	-0.332189	-0.567642
O12	O	2.243856	0.167811	-0.067642
O13	O	1.574312	-0.429352	-0.269828
O14	O	2.074312	0.070648	0.230172
O15	O	1.446122	-0.204066	-0.439298
O16	O	1.946122	0.295934	0.060702
O17	O	1.743768	-0.429315	-0.439252
O18	O	2.243768	0.070685	0.060748
O19	O	1.574516	-0.204038	-0.567668
O20	O	2.074516	0.295962	-0.067668
O21	O	1.446006	-0.332254	-0.269847
O22	O	1.946006	0.167746	0.230153
O23	O	1.276638	-0.332197	-0.439247
O24	O	1.776638	0.167803	0.060753
O25	O	1.446073	-0.429215	-0.737004
O26	O	1.946073	0.070785	-0.237004
O27	O	1.276617	-0.429252	-0.567580
O28	O	1.776617	0.070748	-0.067580
O29	O	1.574488	-0.332132	-0.737042
O30	O	2.074488	0.167868	-0.237042
O31	O	1.574284	-0.557446	-0.439202
O32	O	2.074284	-0.057446	0.060798
O33	O	1.445957	-0.557403	-0.567554
O34	O	1.945957	-0.057403	-0.067554
C35	C	1.238710	-0.380723	-0.503411
C36	C	1.738710	0.119277	-0.003411
C37	C	1.122557	-0.380736	-0.503428
C38	C	1.622557	0.119264	-0.003428
C39	C	1.070729	-0.428723	-0.439812
C40	C	1.570729	0.071277	0.060188
C41	C	0.950678	-0.428737	-0.439828
C42	C	1.450678	0.071263	0.060172
C43	C	1.510133	-0.586105	-0.503392
C44	C	2.010133	-0.086105	-0.003392
C45	C	1.510191	-0.673961	-0.503411
C46	C	2.010191	-0.173961	-0.003411
C47	C	1.577160	-1.045364	-0.570399
C48	C	2.077160	-0.545364	-0.070399
C49	C	1.443571	-1.045510	-0.436617
C50	C	1.943571	-0.545510	0.063383
C51	C	1.443532	-0.962964	-0.436593
C52	C	1.943532	-0.462964	0.063407
C53	C	1.510307	-0.921614	-0.503474
C54	C	2.010307	-0.421614	-0.003474
C55	C	1.577121	-0.962810	-0.570379
C56	C	2.077121	-0.462810	-0.070379
C57	C	1.376712	-0.921762	-0.369697
C58	C	1.876712	-0.421762	0.130303
C59	C	1.376670	-0.839211	-0.369671
C60	C	1.876670	-0.339211	0.130329
C61	C	1.443451	-0.797860	-0.436547
C62	C	1.943451	-0.297860	0.063453
C63	C	1.510269	-0.839061	-0.503454
C64	C	2.010269	-0.339061	-0.003454
C65	C	1.577044	-0.797711	-0.570336
C66	C	2.077044	-0.297711	-0.070336
C67	C	1.643867	-0.838910	-0.637238
C68	C	2.143867	-0.338910	-0.137238
C69	C	1.643903	-0.921459	-0.637256
C70	C	2.143903	-0.421459	-0.137256
C71	C	1.443416	-0.715311	-0.436530
C72	C	1.943416	-0.215311	0.063470
C73	C	1.577005	-0.715157	-0.570316
C74	C	2.077005	-0.215157	-0.070316
C75	C	1.782790	-0.380754	-0.503450
C76	C	2.282790	0.119246	-0.003450
C77	C	1.898943	-0.380761	-0.503458
C78	C	2.398943	0.119239	-0.003458
C79	C	1.510291	-0.380662	-0.776001
C80	C	2.010291	0.119338	-0.276001
C81	C	1.510321	-0.380630	-0.892154
C82	C	2.010321	0.119370	-0.392154
C83	C	1.510336	-0.174570	-0.503492
C84	C	2.010336	0.325430	-0.003492
C85	C	1.510385	-0.086714	-0.503518
C86	C	2.010385	0.413286	-0.003518
C87	C	1.573872	-0.332581	-0.943958
C88	C	2.073872	0.167419	-0.443958
C89	C	1.573905	-0.332546	-1.064008
C90	C	2.073905	0.167454	-0.564008
C91	C	1.510209	-0.380757	-0.231920
C92	C	2.010209	0.119243	0.268080
C93	C	1.510381	-0.380567	-0.115768
C94	C	2.010381	0.119433	0.384232
H95	H	1.631386	-0.681495	-0.624775
H96	H	2.131386	-0.181495	-0.124775
Cl97	Cl	1.053854	-0.317323	-0.587544
Cl98	Cl	1.553854	0.182677	-0.087544
Cl99	Cl	0.967744	-0.317321	-0.587548
Cl100	Cl	1.467744	0.182679	-0.087548
H101	H	1.698231	-0.805233	-0.691698
H102	H	2.198231	-0.305233	-0.191698
Cl103	Cl	1.727896	-0.973257	-0.721358
Cl104	Cl	2.227896	-0.473257	-0.221358
H105	H	1.631569	-1.078912	-0.624866
H106	H	2.131569	-0.578912	-0.124866
H107	H	1.628317	-0.291412	-1.108558
H108	H	2.128317	0.208588	-0.608558
Cl109	Cl	1.359615	-1.097493	-0.352558
Cl110	Cl	1.859615	-0.597493	0.147442
Cl111	Cl	1.359415	-0.663521	-0.352433
Cl112	Cl	1.859415	-0.163521	0.147567
Cl113	Cl	1.292663	-0.787425	-0.285569
Cl114	Cl	1.792663	-0.287425	0.214431
H115	H	1.322345	-0.955435	-0.315249
H116	H	1.822345	-0.455435	0.184751
H117	H	1.628252	-0.291467	-0.899432
H118	H	2.128252	0.208533	-0.399432
Cl119	Cl	1.426377	-0.444089	-1.046999
Cl120	Cl	1.926377	0.055911	-0.546999
H121	H	1.455930	-0.421736	-0.936680
H122	H	1.955930	0.078264	-0.436680
H123	H	1.115233	-0.469799	-0.385340
H124	H	1.615233	0.030201	0.114660
H125	H	0.906108	-0.469819	-0.385362
H126	H	1.406108	0.030181	0.114638
