data_functionalizedCrystal
_audit_creation_method	'MofGen! by Chris Wilmer'
_symmetry_space_group_name_H-M	'P1'
_symmetry_Int_Tables_number	1
_symmetry_cell_setting	triclinic
loop_
_symmetry_equiv_pos_as_xyz
  x,y,z
_cell_length_a	10.654562
_cell_length_b	14.853567
_cell_length_c	9.730223
_cell_angle_alpha	90.002458
_cell_angle_beta	89.996961
_cell_angle_gamma	84.062517
loop_
_atom_site_label
_atom_site_type_symbol
_atom_site_fract_x
_atom_site_fract_y
_atom_site_fract_z
O1	O	1.666509	0.126677	-0.114368
O2	O	1.300907	0.138729	-0.114349
O3	O	1.493474	0.001525	-0.114363
O4	O	1.473942	0.263880	-0.114354
O5	O	1.493471	0.001529	0.114217
O6	O	1.300905	0.138732	0.114231
O7	O	1.666506	0.126680	0.114212
Zn8	Zn	1.483705	0.132707	0.150514
Zn9	Zn	1.483708	0.132702	-0.150650
O10	O	1.473940	0.263883	0.114226
C11	C	1.254117	0.137843	-0.000057
C12	C	1.114703	0.135188	-0.000051
C13	C	1.049183	0.133952	0.124537
C14	C	0.918187	0.131465	0.124514
C15	C	0.918240	0.131454	-0.124696
C16	C	1.049235	0.133935	-0.124671
C17	C	1.049151	0.133962	0.268417
C18	C	0.918155	0.131475	0.268394
C19	C	1.492588	-0.032066	-0.000077
C20	C	1.489936	-0.132164	-0.000089
C21	C	1.364336	-0.545375	-0.000056
C22	C	1.593110	-0.565423	-0.000068
C23	C	1.595603	-0.471376	-0.000076
C24	C	1.482462	-0.414324	-0.000072
C25	C	1.366826	-0.451318	-0.000060
C26	C	1.711237	-0.434374	-0.000074
C27	C	1.713735	-0.340322	-0.000081
C28	C	1.600592	-0.283267	-0.000087
C29	C	1.484952	-0.320268	-0.000077
C30	C	1.371810	-0.263215	-0.000073
C31	C	1.256169	-0.300213	-0.000072
C32	C	1.253683	-0.394264	-0.000067
C33	C	1.603077	-0.189217	-0.000093
C34	C	1.374300	-0.169159	-0.000077
C35	C	1.713296	0.127566	-0.000083
C36	C	1.852711	0.130220	-0.000098
C37	C	1.474826	0.297475	-0.000063
C38	C	1.477478	0.397573	-0.000060
N39	N	1.483712	0.132709	0.356050
N40	N	1.483711	0.132692	-0.356187
C41	C	1.569003	0.071976	0.427970
C42	C	1.568999	0.071965	0.571853
C43	C	1.398412	0.193428	0.571883
C44	C	1.398410	0.193434	0.428003
C45	C	1.667494	0.001853	0.427953
C46	C	1.667491	0.001843	0.571836
H47	H	1.096058	0.071659	0.323668
H48	H	0.864920	0.130434	-0.226158
C49	C	1.061934	-0.254147	0.117439
C50	C	1.131805	-0.237495	-0.000066
H51	H	0.985164	-0.215421	0.117443
H52	H	1.043893	-0.315446	0.117424
H53	H	1.109354	-0.242854	0.197141
H54	H	1.084389	-0.248795	-0.079768
H55	H	1.149842	-0.176182	-0.000064
H56	H	1.078042	0.199714	0.313063
C57	C	1.738594	-0.095079	0.117409
C58	C	1.730179	-0.148551	-0.000091
H59	H	1.817070	-0.069981	0.117410
H60	H	1.671580	-0.047644	0.117392
H61	H	1.732858	-0.131356	0.197114
H62	H	1.735906	-0.112272	-0.079796
H63	H	1.797212	-0.195993	-0.000086
C64	C	1.937621	-0.444752	-0.000076
C65	C	1.835597	-0.497084	-0.000080
H66	H	2.014397	-0.483472	-0.000075
H67	H	1.933838	-0.407653	-0.079779
H68	H	1.933827	-0.407649	0.079644
H69	H	1.839384	-0.534182	-0.079805
H70	H	1.839381	-0.534199	0.079631
C71	C	1.168559	-0.557223	0.117445
C72	C	1.237224	-0.586033	-0.000058
H73	H	1.090081	-0.582320	0.117436
H74	H	1.215143	-0.576764	0.197140
H75	H	1.153868	-0.493043	0.117435
H76	H	1.251923	-0.650213	-0.000042
H77	H	1.190630	-0.566498	-0.079773
H78	H	1.102578	0.134928	-0.226123
H79	H	1.646771	-0.067442	0.388898
H80	H	1.685224	-0.611881	-0.000060
H81	H	1.328949	0.242879	0.369447
C82	C	1.849255	-0.246200	-0.117609
C83	C	1.840842	-0.299656	-0.000097
H84	H	1.927724	-0.221091	-0.117616
H85	H	1.843530	-0.282483	-0.197297
H86	H	1.782225	-0.198764	-0.117593
H87	H	1.907867	-0.347096	-0.000118
H88	H	1.846580	-0.263371	0.079612
H89	H	1.763841	0.017292	0.610883
C90	C	1.227545	0.211829	0.733706
C91	C	1.304657	0.260177	0.650984
H92	H	1.169670	0.253039	0.782543
H93	H	1.182316	0.174010	0.677568
H94	H	1.278355	0.175659	0.797126
H95	H	1.253847	0.296342	0.587557
H96	H	1.349889	0.298011	0.707127
H97	H	0.889249	0.065725	0.313038
H98	H	0.871221	0.193782	0.323632
C99	C	1.180068	-0.123119	-0.117576
C100	C	1.249927	-0.106451	-0.000074
H101	H	1.103283	-0.084409	-0.117567
H102	H	1.227478	-0.111820	-0.197271
H103	H	1.162049	-0.184430	-0.117563
H104	H	1.267954	-0.045141	-0.000092
H105	H	1.202507	-0.117743	0.079642
C106	C	1.870920	0.050951	0.474863
C107	C	1.790279	0.031491	0.367690
H108	H	1.946724	0.069244	0.437655
H109	H	1.830769	0.098351	0.529807
H110	H	1.889973	-0.001552	0.529796
H111	H	1.771219	0.083997	0.312762
H112	H	1.830438	-0.015913	0.312723
H113	H	1.637658	-0.063642	0.616451
H114	H	1.159534	-0.424397	-0.000065
