data_functionalizedCrystal
_audit_creation_method	'MofGen! by Chris Wilmer'
_symmetry_space_group_name_H-M	'P1'
_symmetry_Int_Tables_number	1
_symmetry_cell_setting	triclinic
loop_
_symmetry_equiv_pos_as_xyz
  x,y,z
_cell_length_a	16.109301
_cell_length_b	16.109301
_cell_length_c	15.186229
_cell_angle_alpha	90.002431
_cell_angle_beta	90.011978
_cell_angle_gamma	83.461481
loop_
_atom_site_label
_atom_site_type_symbol
_atom_site_fract_x
_atom_site_fract_y
_atom_site_fract_z
O1	O	0.106874	1.103132	0.073176
O2	O	0.606874	1.603132	0.573176
O3	O	0.120173	0.861070	0.073190
O4	O	0.620173	1.361070	0.573190
O5	O	-0.007507	0.988751	0.073174
O6	O	0.492493	1.488751	0.573174
O7	O	0.234555	0.975451	0.073192
O8	O	0.734555	1.475451	0.573192
O9	O	-0.007525	0.988740	-0.073284
O10	O	0.492475	1.488740	0.426716
O11	O	0.120156	0.861059	-0.073267
O12	O	0.620156	1.361059	0.426733
O13	O	0.106856	1.103121	-0.073282
O14	O	0.606856	1.603121	0.426718
Zn15	Zn	0.113503	0.982088	-0.096528
Zn16	Zn	0.613503	1.482088	0.403472
Zn17	Zn	0.113527	0.982103	0.096436
Zn18	Zn	0.613527	1.482103	0.596436
O19	O	0.234537	0.975440	-0.073265
O20	O	0.734537	1.475440	0.426735
C21	C	0.119626	0.830090	-0.000037
C22	C	0.619626	1.330090	0.499963
C23	C	0.118011	0.737794	-0.000032
C24	C	0.618011	1.237794	0.499968
C25	C	0.190018	0.515522	-0.000036
C26	C	0.690018	1.015522	0.499964
C27	C	0.188494	0.428801	-0.000042
C28	C	0.688494	0.928801	0.499958
C29	C	0.037006	0.448676	-0.000050
C30	C	0.537006	0.948676	0.499950
C31	C	0.038530	0.535394	-0.000051
C32	C	0.538530	1.035394	0.499949
C33	C	0.115039	0.568815	-0.000039
C34	C	0.615039	1.068815	0.499961
C35	C	0.111990	0.395376	-0.000045
C36	C	0.611990	0.895376	0.499955
C37	C	0.110337	0.301350	-0.000051
C38	C	0.610337	0.801350	0.499949
C39	C	0.116693	0.662847	-0.000035
C40	C	0.616693	1.162847	0.499965
C41	C	-0.038491	0.988206	-0.000056
C42	C	0.461509	1.488206	0.499944
C43	C	-0.130786	0.986591	-0.000057
C44	C	0.369214	1.486591	0.499943
C45	C	-0.353059	1.058599	-0.000047
C46	C	0.146941	1.558599	0.499953
C47	C	-0.439779	1.057075	-0.000040
C48	C	0.060221	1.557075	0.499960
C49	C	-0.419905	0.905586	-0.000034
C50	C	0.080095	1.405586	0.499966
C51	C	-0.333186	0.907111	-0.000035
C52	C	0.166814	1.407111	0.499965
C53	C	-0.299766	0.983620	-0.000046
C54	C	0.200234	1.483620	0.499954
C55	C	-0.473205	0.980571	-0.000038
C56	C	0.026795	1.480571	0.499962
C57	C	-0.567231	0.978918	-0.000030
C58	C	-0.067231	1.478918	0.499970
C59	C	-0.205734	0.985273	-0.000052
C60	C	0.294266	1.485273	0.499948
C61	C	0.265521	0.975984	-0.000034
C62	C	0.765521	1.475984	0.499966
C63	C	0.357816	0.977600	-0.000027
C64	C	0.857816	1.477600	0.499973
C65	C	0.107404	1.134101	-0.000053
C66	C	0.607404	1.634101	0.499947
C67	C	0.109019	1.226397	-0.000052
C68	C	0.609019	1.726397	0.499948
N69	N	0.113486	0.982084	-0.228220
N70	N	0.613486	1.482084	0.271780
N71	N	0.113537	0.982113	0.228129
N72	N	0.613537	1.482113	0.728129
C73	C	0.057089	1.038744	0.546040
C74	C	0.557089	1.538744	1.046040
C75	C	0.057096	1.038748	0.453850
C76	C	0.557096	1.538748	0.953850
C77	C	0.169936	0.925448	0.453875
C78	C	0.669936	1.425448	0.953875
C79	C	0.169925	0.925440	0.546063
C80	C	0.669925	1.425440	1.046063
C81	C	0.113503	0.982093	0.592143
C82	C	0.613503	1.482093	1.092143
C83	C	0.113520	0.982104	0.407765
C84	C	0.613520	1.482104	0.907765
C85	C	0.113528	0.982108	0.307809
C86	C	0.613528	1.482108	0.807809
C87	C	0.113494	0.982088	0.692106
C88	C	0.613494	1.482088	1.192106
H89	H	-0.025285	0.421454	-0.000065
H90	H	0.474715	0.921454	0.499935
N91	N	-0.497254	1.137949	-0.000048
N92	N	0.002746	1.637949	0.499952
H93	H	-0.533689	1.140687	-0.054339
H94	H	-0.033689	1.640687	0.445661
H95	H	-0.533610	1.140653	0.054281
H96	H	-0.033610	1.640653	0.554281
N97	N	-0.042349	0.592875	-0.000052
N98	N	0.457651	1.092875	0.499948
H99	H	-0.045084	0.629301	0.054238
H100	H	0.454916	1.129301	0.554238
H101	H	-0.045052	0.629240	-0.054382
H102	H	0.454948	1.129240	0.445618
N103	N	-0.455952	0.823069	-0.000026
N104	N	0.044048	1.323069	0.499974
H105	H	-0.518975	0.833479	-0.000029
H106	H	-0.018975	1.333479	0.499971
H107	H	-0.436463	0.790259	-0.054319
H108	H	0.063537	1.290259	0.445681
N109	N	-0.275698	0.826237	-0.000028
N110	N	0.224302	1.326237	0.499972
H111	H	-0.310026	0.777538	-0.000027
H112	H	0.189974	1.277538	0.499973
H113	H	-0.239293	0.823569	-0.054320
H114	H	0.260707	1.323569	0.445680
H115	H	0.011146	1.084872	0.583556
H116	H	0.511146	1.584872	1.083556
N117	N	-0.317015	1.141117	-0.000055
N118	N	0.182985	1.641117	0.499945
H119	H	-0.281464	1.145130	0.054234
H120	H	0.218536	1.645130	0.554234
H121	H	-0.281534	1.145072	-0.054386
H122	H	0.218466	1.645072	0.445614
H123	H	0.011158	1.084876	0.416316
H124	H	0.511158	1.584876	0.916316
N125	N	0.230790	0.864347	0.404174
N126	N	0.730790	1.364347	0.904174
H127	H	0.222239	0.872948	0.338777
H128	H	0.722239	1.372948	0.838777
H129	H	0.289804	0.873811	0.420313
H130	H	0.789804	1.373811	0.920313
N131	N	0.230772	0.864328	0.595789
N132	N	0.730772	1.364328	1.095789
H133	H	0.289819	0.873763	0.579773
H134	H	0.789819	1.373763	1.079773
H135	H	0.222129	0.872946	0.661166
H136	H	0.722129	1.372946	1.161166
N137	N	0.272534	0.551571	-0.000023
N138	N	0.772534	1.051571	0.499977
H139	H	0.319801	0.504647	-0.000023
H140	H	0.819801	1.004647	0.499977
H141	H	0.276460	0.587118	-0.054315
H142	H	0.776460	1.087118	0.445685
N143	N	0.269378	0.371342	-0.000044
N144	N	0.769378	0.871342	0.499956
H145	H	0.272148	0.334913	0.054243
H146	H	0.772148	0.834913	0.554243
H147	H	0.272075	0.334979	-0.054377
H148	H	0.772075	0.834979	0.445623
