data_functionalizedCrystal
_audit_creation_method	'MofGen! by Chris Wilmer'
_symmetry_space_group_name_H-M	'P1'
_symmetry_Int_Tables_number	1
_symmetry_cell_setting	triclinic
loop_
_symmetry_equiv_pos_as_xyz
  x,y,z
_cell_length_a	12.827893
_cell_length_b	18.050589
_cell_length_c	12.827885
_cell_angle_alpha	90.029741
_cell_angle_beta	90.019462
_cell_angle_gamma	90.028191
loop_
_atom_site_label
_atom_site_type_symbol
_atom_site_fract_x
_atom_site_fract_y
_atom_site_fract_z
Zn1	Zn	1.597578	-0.295623	0.590850
Zn2	Zn	2.097578	0.204377	1.090850
Zn3	Zn	1.597433	-0.419831	0.416111
Zn4	Zn	2.097433	0.080169	0.916111
Zn5	Zn	1.422819	-0.295659	0.416124
Zn6	Zn	1.922819	0.204341	0.916124
Zn7	Zn	1.422766	-0.419775	0.590811
Zn8	Zn	1.922766	0.080225	1.090811
O9	O	1.510149	-0.357722	0.503474
O10	O	2.010149	0.142278	1.003474
O11	O	1.743795	-0.312107	0.567682
O12	O	2.243795	0.187893	1.067682
O13	O	1.574231	-0.403398	0.269877
O14	O	2.074231	0.096602	0.769877
O15	O	1.446085	-0.191730	0.439323
O16	O	1.946085	0.308270	0.939323
O17	O	1.743688	-0.403362	0.439302
O18	O	2.243688	0.096638	0.939302
O19	O	1.574479	-0.191703	0.567694
O20	O	2.074479	0.308297	1.067694
O21	O	1.445943	-0.312169	0.269886
O22	O	1.945943	0.187831	0.769886
O23	O	1.276576	-0.312116	0.439286
O24	O	1.776576	0.187884	0.939286
O25	O	1.445994	-0.403268	0.737053
O26	O	1.945994	0.096732	1.237053
O27	O	1.276537	-0.403303	0.567628
O28	O	1.776537	0.096697	1.067628
O29	O	1.574428	-0.312053	0.737081
O30	O	2.074428	0.187947	1.237081
O31	O	1.574180	-0.523748	0.439264
O32	O	2.074180	-0.023748	0.939264
O33	O	1.445853	-0.523707	0.567615
O34	O	1.945853	-0.023707	1.067615
C35	C	1.238639	-0.357708	0.503454
C36	C	1.738639	0.142292	1.003454
C37	C	1.122486	-0.357720	0.503471
C38	C	1.622486	0.142280	1.003471
C39	C	1.070710	-0.402912	0.566880
C40	C	1.570710	0.097088	1.066880
C41	C	0.950659	-0.402926	0.566899
C42	C	1.450659	0.097074	1.066899
C43	C	1.510023	-0.550674	0.503457
C44	C	2.010023	-0.050674	1.003457
C45	C	1.510065	-0.633220	0.503484
C46	C	2.010065	-0.133220	1.003484
C47	C	1.440349	-0.832675	0.573257
C48	C	1.940349	-0.332675	1.073257
C49	C	1.414872	-0.882123	0.477900
C50	C	1.914872	-0.382123	0.977900
C51	C	1.510167	-0.784350	0.503498
C52	C	2.010167	-0.284350	1.003498
C53	C	1.535696	-0.881984	0.598866
C54	C	2.035696	-0.381984	1.098866
C55	C	1.510264	-0.930335	0.503520
C56	C	2.010264	-0.430335	1.003520
C57	C	1.484640	-0.832711	0.408091
C58	C	1.984640	-0.332711	0.908091
C59	C	1.605508	-0.832568	0.529120
C60	C	2.105508	-0.332568	1.029120
C61	C	1.580067	-0.881993	0.433698
C62	C	2.080067	-0.381993	0.933698
C63	C	1.510109	-0.700252	0.503487
C64	C	2.010109	-0.200252	1.003487
C65	C	1.510323	-1.014432	0.503520
C66	C	2.010323	-0.514432	1.003520
C67	C	1.782719	-0.357737	0.503495
C68	C	2.282719	0.142263	1.003495
C69	C	1.898872	-0.357743	0.503504
C70	C	2.398872	0.142257	1.003504
C71	C	1.510221	-0.357650	0.776045
C72	C	2.010221	0.142350	1.276045
C73	C	1.510252	-0.357619	0.892198
C74	C	2.010252	0.142381	1.392198
C75	C	1.510304	-0.164016	0.503515
C76	C	2.010304	0.335984	1.003515
C77	C	1.510370	-0.081471	0.503532
C78	C	2.010370	0.418529	1.003532
C79	C	1.510137	-0.357740	0.231964
C80	C	2.010137	0.142260	0.731964
C81	C	1.510309	-0.357562	0.115812
C82	C	2.010309	0.142438	0.615812
C83	C	1.573842	-0.312444	1.064041
C84	C	2.073842	0.187556	1.564041
C85	C	1.573812	-0.312475	0.943991
C86	C	2.073812	0.187525	1.443991
H87	H	1.077937	-0.319035	0.449201
H88	H	1.577937	0.180965	0.949201
H89	H	1.628261	-0.273798	1.108595
H90	H	2.128261	0.226202	1.608595
H91	H	0.906133	-0.441619	0.621183
H92	H	1.406133	0.058381	1.121183
F93	F	1.309541	-0.910572	0.449575
F94	F	1.809541	-0.410572	0.949575
F95	F	1.363066	-0.804369	0.650258
F96	F	1.863066	-0.304369	1.150258
H97	H	1.462994	-0.811156	0.327426
H98	H	1.962994	-0.311156	0.827426
F99	F	0.957061	-0.307171	0.432535
F100	F	1.457061	0.192829	0.932535
F101	F	1.644905	-0.261981	0.885802
F102	F	2.144905	0.238019	1.385802
H103	H	1.686071	-0.810787	0.550818
H104	H	2.186071	-0.310787	1.050818
F105	F	1.657298	-0.910119	0.356516
F106	F	2.157298	-0.410119	0.856516
F107	F	1.439146	-0.408107	0.950380
F108	F	1.939146	0.091893	1.450380
F109	F	1.439187	-0.408085	1.057582
F110	F	1.939187	0.091915	1.557582
F111	F	1.128933	-0.453476	0.637820
F112	F	1.628933	0.046524	1.137820
F113	F	1.563866	-0.910278	0.704270
F114	F	2.063866	-0.410278	1.204270
