data_functionalizedCrystal
_audit_creation_method	'MofGen! by Chris Wilmer'
_symmetry_space_group_name_H-M	'P1'
_symmetry_Int_Tables_number	1
_symmetry_cell_setting	triclinic
loop_
_symmetry_equiv_pos_as_xyz
  x,y,z
_cell_length_a	14.044220
_cell_length_b	16.992694
_cell_length_c	16.053811
_cell_angle_alpha	92.751328
_cell_angle_beta	92.799878
_cell_angle_gamma	88.071450
loop_
_atom_site_label
_atom_site_type_symbol
_atom_site_fract_x
_atom_site_fract_y
_atom_site_fract_z
O1	O	0.198305	-1.057565	-0.069327
O2	O	0.698305	-0.557565	0.430673
O3	O	0.196087	-0.829126	-0.069352
O4	O	0.696087	-0.329126	0.430648
O5	O	0.058952	-0.939916	-0.069331
O6	O	0.558952	-0.439916	0.430669
O7	O	0.335440	-0.946774	-0.069347
O8	O	0.835440	-0.446774	0.430653
O9	O	0.066468	-0.933815	0.069526
O10	O	0.566468	-0.433815	0.569526
O11	O	0.203603	-0.823024	0.069506
O12	O	0.703603	-0.323024	0.569506
O13	O	0.205821	-1.051463	0.069531
O14	O	0.705821	-0.551463	0.569531
Zn15	Zn	0.205905	-0.936275	0.091565
Zn16	Zn	0.705905	-0.436275	0.591565
Zn17	Zn	0.196003	-0.944314	-0.091386
Zn18	Zn	0.696003	-0.444314	0.408614
O19	O	0.342956	-0.940673	0.069511
O20	O	0.842956	-0.440673	0.569511
C21	C	0.196993	-0.796663	0.000074
C22	C	0.696993	-0.296663	0.500074
C23	C	0.188484	-0.709024	0.000065
C24	C	0.688484	-0.209024	0.500065
C25	C	0.027168	-0.933863	0.000098
C26	C	0.527168	-0.433863	0.500098
C27	C	-0.078736	-0.924909	0.000098
C28	C	0.421264	-0.424909	0.500098
N29	N	0.212663	-0.930795	0.216425
N30	N	0.712663	-0.430795	0.716425
C31	C	-0.272638	-0.908540	0.000084
C32	C	0.227362	-0.408540	0.500084
C33	C	-0.325460	-0.972046	0.000088
C34	C	0.174540	-0.472046	0.500088
C35	C	-0.433354	-0.962938	0.000080
C36	C	0.066646	-0.462938	0.500080
C37	C	-0.164734	-0.917647	0.000091
C38	C	0.335266	-0.417647	0.500091
C39	C	0.374740	-0.946726	0.000080
C40	C	0.874740	-0.446726	0.500080
C41	C	0.480643	-0.955680	0.000074
C42	C	0.980643	-0.455680	0.500074
C43	C	0.204915	-1.083926	0.000103
C44	C	0.704915	-0.583926	0.500103
C45	C	0.213424	-1.171565	0.000107
C46	C	0.713424	-0.671565	0.500107
C47	C	0.270580	-0.664526	0.000061
C48	C	0.770580	-0.164526	0.500061
C49	C	0.262581	-0.582179	0.000073
C50	C	0.762581	-0.082179	0.500073
C51	C	0.172483	-0.544333	0.000083
C52	C	0.672483	-0.044333	0.500083
C53	C	0.090381	-0.588837	0.000090
C54	C	0.590381	-0.088837	0.500090
C55	C	0.098382	-0.671182	0.000084
C56	C	0.598382	-0.171182	0.500084
C57	C	0.139322	-0.298414	0.000107
C58	C	0.639322	0.201586	0.500107
C59	C	0.131327	-0.216063	0.000111
C60	C	0.631327	0.283937	0.500111
C61	C	0.303528	-0.209412	0.000096
C62	C	0.803528	0.290588	0.500096
C63	C	0.311521	-0.291759	0.000085
C64	C	0.811521	0.208241	0.500085
C65	C	0.229419	-0.336255	0.000096
C66	C	0.729419	0.163745	0.500096
N67	N	0.164304	-0.460161	0.000093
N68	N	0.664304	0.039839	0.500093
N69	N	0.237599	-0.420425	0.000092
N70	N	0.737599	0.079575	0.500092
C71	C	0.154336	-0.977956	0.260127
C72	C	0.654336	-0.477956	0.760127
C73	C	0.159073	-0.974130	0.347533
C74	C	0.659073	-0.474130	0.847533
C75	C	0.222142	-0.923147	0.391235
C76	C	0.722142	-0.423147	0.891235
C77	C	0.280472	-0.875980	0.347526
C78	C	0.780472	-0.375980	0.847526
C79	C	0.275730	-0.879802	0.260122
C80	C	0.775730	-0.379802	0.760122
C81	C	0.242830	-0.906450	0.652642
C82	C	0.742830	-0.406450	1.152642
C83	C	0.247570	-0.902633	0.740052
C84	C	0.747570	-0.402633	1.240052
C85	C	0.126169	-1.000783	0.740053
C86	C	0.626169	-0.500783	1.240053
C87	C	0.121436	-1.004604	0.652647
C88	C	0.621436	-0.504604	1.152647
C89	C	0.179762	-0.957434	0.608946
C90	C	0.679762	-0.457434	1.108946
N91	N	0.226988	-0.919237	0.480578
N92	N	0.726988	-0.419237	0.980578
N93	N	0.174911	-0.961340	0.519604
N94	N	0.674911	-0.461340	1.019604
N95	N	0.189243	-0.949794	0.783755
N96	N	0.689243	-0.449794	1.283755
H97	H	-0.289655	-1.033258	0.000039
H98	H	0.210345	-0.533258	0.500039
H99	H	0.298933	-0.861113	0.775630
H100	H	0.798933	-0.361113	1.275630
H101	H	0.331821	-0.834464	0.383114
H102	H	0.831821	-0.334464	0.883114
O103	O	-0.320057	-0.827462	0.000088
O104	O	0.179943	-0.327462	0.500088
H105	H	-0.398587	-0.832942	0.000095
H106	H	0.101413	-0.332942	0.500095
H107	H	0.343947	-0.695334	0.000052
H108	H	0.843947	-0.195334	0.500052
O109	O	0.351126	-0.534182	0.000069
O110	O	0.851126	-0.034182	0.500069
H111	H	0.415120	-0.574333	0.000051
H112	H	0.915120	-0.074333	0.500051
H113	H	0.384887	-0.322568	0.000067
H114	H	0.884887	0.177432	0.500067
O115	O	0.086302	-1.032935	0.212986
O116	O	0.586302	-0.532935	0.712986
H117	H	0.104034	-1.094504	0.229747
H118	H	0.604034	-0.594504	0.729747
O119	O	0.050768	-0.346396	0.000118
O120	O	0.550768	0.153604	0.500118
H121	H	0.047226	-0.386557	-0.056475
H122	H	0.547226	0.113443	0.443525
H123	H	0.370371	-0.173174	0.000089
H124	H	0.870371	0.326826	0.500089
H125	H	0.057955	-0.185251	0.000118
H126	H	0.557955	0.314749	0.500118
H127	H	0.017022	-0.558015	0.000110
H128	H	0.517022	-0.058015	0.500110
O129	O	0.305748	-0.855581	0.605518
O130	O	0.805748	-0.355581	1.105518
H131	H	0.291853	-0.866794	0.537398
H132	H	0.791853	-0.366794	1.037398
O133	O	0.338643	-0.828940	0.212979
O134	O	0.838643	-0.328940	0.712979
H135	H	0.383304	-0.792851	0.258050
H136	H	0.883304	-0.292851	0.758050
H137	H	0.031530	-0.707411	0.000086
H138	H	0.531530	-0.207411	0.500086
H139	H	0.111577	-1.012532	0.383115
H140	H	0.611577	-0.512532	0.883115
H141	H	0.070080	-1.046119	0.617066
H142	H	0.570080	-0.546119	1.117066
O143	O	0.063253	-1.051650	0.787185
O144	O	0.563253	-0.551650	1.287185
H145	H	0.077137	-1.040425	0.855305
H146	H	0.577137	-0.540425	1.355305
