data_functionalizedCrystal
_audit_creation_method	'MofGen! by Chris Wilmer'
_symmetry_space_group_name_H-M	'P1'
_symmetry_Int_Tables_number	1
_symmetry_cell_setting	triclinic
loop_
_symmetry_equiv_pos_as_xyz
  x,y,z
_cell_length_a	17.077402
_cell_length_b	21.295419
_cell_length_c	17.077396
_cell_angle_alpha	89.980408
_cell_angle_beta	89.972472
_cell_angle_gamma	90.038294
loop_
_atom_site_label
_atom_site_type_symbol
_atom_site_fract_x
_atom_site_fract_y
_atom_site_fract_z
Zn1	Zn	-0.312198	0.962355	-0.443850
Zn2	Zn	0.187802	1.462355	0.056150
Zn3	Zn	-0.443473	0.962280	-0.312586
Zn4	Zn	0.056527	1.462280	0.187414
Zn5	Zn	-0.312259	0.857088	-0.312598
Zn6	Zn	0.187741	1.357088	0.187402
Zn7	Zn	-0.443460	0.857061	-0.443810
Zn8	Zn	0.056540	1.357061	0.056190
O9	O	-0.377847	0.909696	-0.378211
O10	O	0.122153	1.409696	0.121789
O11	O	-0.329592	1.050435	-0.426450
O12	O	0.170408	1.550435	0.073550
O13	O	-0.426098	0.948305	-0.202741
O14	O	0.073902	1.448305	0.297259
O15	O	-0.202404	0.871095	-0.330030
O16	O	0.297596	1.371095	0.169970
O17	O	-0.426039	1.050379	-0.330011
O18	O	0.073961	1.550379	0.169989
O19	O	-0.202359	0.948434	-0.426461
O20	O	0.297641	1.448434	0.073539
O21	O	-0.329696	0.871021	-0.202749
O22	O	0.170304	1.371021	0.297251
O23	O	-0.329683	0.768995	-0.329991
O24	O	0.170317	1.268995	0.170009
O25	O	-0.426017	0.871049	-0.553662
O26	O	0.073983	1.371049	-0.053662
O27	O	-0.426076	0.768975	-0.426392
O28	O	0.073924	1.268975	0.073608
O29	O	-0.329579	0.948408	-0.553692
O30	O	0.170421	1.448408	-0.053692
O31	O	-0.553318	0.948280	-0.329971
O32	O	-0.053318	1.448280	0.170029
O33	O	-0.553308	0.870976	-0.426381
O34	O	-0.053308	1.370976	0.073619
C35	C	-0.377885	0.746144	-0.378189
C36	C	0.122115	1.246144	0.121811
C37	C	-0.377920	0.676176	-0.378198
C38	C	0.122080	1.176176	0.121802
C39	C	-0.327782	0.643361	-0.428491
C40	C	0.172218	1.143361	0.071509
C41	C	-0.327761	0.577619	-0.428494
C42	C	0.172239	1.077619	0.071506
C43	C	-0.377892	0.544694	-0.378212
C44	C	0.122108	1.044694	0.121788
C45	C	-0.428033	0.577517	-0.327909
C46	C	0.071967	1.077517	0.172091
C47	C	-0.428048	0.643258	-0.327902
C48	C	0.071952	1.143258	0.172098
N49	N	-0.446574	0.441426	-0.372084
N50	N	0.053426	0.941426	0.127916
N51	N	-0.446559	0.378974	-0.372096
N52	N	0.053441	0.878974	0.127904
C53	C	-0.377851	0.346619	-0.378230
C54	C	0.122149	0.846619	0.121770
N55	N	-0.309159	0.379075	-0.384367
N56	N	0.190841	0.879075	0.115633
N57	N	-0.309175	0.441532	-0.384360
N58	N	0.190825	0.941532	0.115640
C59	C	-0.377882	0.473408	-0.378214
C60	C	0.122118	0.973408	0.121786
C61	C	-0.327686	0.242518	-0.428529
C62	C	0.172314	0.742518	0.071471
C63	C	-0.327664	0.176775	-0.428527
C64	C	0.172336	0.676775	0.071473
C65	C	-0.427943	0.176674	-0.327945
C66	C	0.072057	0.676674	0.172055
C67	C	-0.427959	0.242417	-0.327944
C68	C	0.072041	0.742417	0.172056
C69	C	-0.377831	0.275335	-0.378240
C70	C	0.122169	0.775335	0.121760
C71	C	-0.581795	0.909634	-0.378188
C72	C	-0.081795	1.409634	0.121812
C73	C	-0.669045	0.909664	-0.378204
C74	C	-0.169045	1.409664	0.121796
C75	C	-0.709944	0.949913	-0.428456
C76	C	-0.209944	1.449913	0.071544
C77	C	-0.791925	0.949940	-0.428472
C78	C	-0.291925	1.449940	0.071528
C79	C	-0.833005	0.909720	-0.378233
C80	C	-0.333005	1.409720	0.121767
C81	C	-0.792099	0.869467	-0.327979
C82	C	-0.292099	1.369467	0.172021
C83	C	-0.710121	0.869438	-0.327967
C84	C	-0.210121	1.369438	0.172033
C85	C	-0.962969	0.869531	-0.328006
C86	C	-0.462969	1.369531	0.171994
C87	C	-1.044954	0.869561	-0.328017
C88	C	-0.544954	1.369561	0.171983
C89	C	-1.044774	0.950033	-0.428512
C90	C	-0.544774	1.450033	0.071488
C91	C	-0.962795	0.950004	-0.428500
C92	C	-0.462795	1.450004	0.071500
C93	C	-0.921896	0.909752	-0.378244
C94	C	-0.421896	1.409752	0.121756
C95	C	-0.173103	0.909776	-0.378251
C96	C	0.326897	1.409776	0.121749
C97	C	-0.085853	0.909810	-0.378269
C98	C	0.414147	1.409810	0.121731
C99	C	-0.377790	0.909734	-0.582955
C100	C	0.122210	1.409734	-0.082955
C101	C	-0.377765	0.909750	-0.670205
C102	C	0.122235	1.409750	-0.170205
C103	C	-0.377810	1.073886	-0.378233
C104	C	0.122190	1.573886	0.121767
C105	C	-0.377794	1.143854	-0.378243
C106	C	0.122206	1.643854	0.121757
C107	C	-0.327546	0.950033	-0.711212
C108	C	0.172454	1.450033	-0.211212
C109	C	-0.327520	0.950040	-0.793192
C110	C	0.172480	1.450040	-0.293192
C111	C	-0.377717	0.909768	-0.834165
C112	C	0.122283	1.409768	-0.334165
C113	C	-0.427939	0.869481	-0.793152
C114	C	0.072061	1.369481	-0.293152
C115	C	-0.427960	0.869471	-0.711173
C116	C	0.072040	1.369471	-0.211173
C117	C	-0.427891	0.869507	-0.964022
C118	C	0.072109	1.369507	-0.464022
C119	C	-0.427871	0.869518	-1.046007
C120	C	0.072129	1.369518	-0.546007
C121	C	-0.327451	0.950076	-1.046042
C122	C	0.172549	1.450076	-0.546042
C123	C	-0.327473	0.950066	-0.964063
C124	C	0.172527	1.450066	-0.464063
C125	C	-0.377695	0.909779	-0.923056
C126	C	0.122305	1.409779	-0.423056
C127	C	-0.377848	0.909694	-0.174263
C128	C	0.122152	1.409694	0.325737
C129	C	-0.377652	0.909800	-0.087014
C130	C	0.122348	1.409800	0.412986
H131	H	-0.468790	0.269135	-0.286993
H132	H	0.031210	0.769135	0.213007
H133	H	-0.286964	0.670159	-0.469446
H134	H	0.213036	1.170159	0.030554
N135	N	-0.665640	0.993297	-0.482639
N136	N	-0.165640	1.493297	0.017361
H137	H	-0.703992	1.018797	-0.514477
H138	H	-0.203992	1.518797	-0.014477
H139	H	-0.631639	0.967644	-0.518931
H140	H	-0.131639	1.467644	-0.018931
H141	H	-0.286831	0.150058	-0.469480
H142	H	0.213169	0.650058	0.030520
N143	N	-0.482015	0.141170	-0.273714
N144	N	0.017985	0.641170	0.226286
H145	H	-0.513783	0.171937	-0.241853
H146	H	-0.013783	0.671937	0.258147
H147	H	-0.450008	0.113904	-0.237446
H148	H	0.049992	0.613904	0.262554
H149	H	-0.825222	0.982719	-0.469386
H150	H	-0.325222	1.482719	0.030614
H151	H	-0.929348	0.982757	-0.469404
H152	H	-0.429348	1.482757	0.030596
N153	N	-1.088881	0.993452	-0.482715
N154	N	-0.588881	1.493452	0.017285
H155	H	-1.147047	0.987367	-0.475104
H156	H	-0.647047	1.487367	0.024896
H157	H	-1.074527	0.983627	-0.538764
H158	H	-0.574527	1.483627	-0.038764
N159	N	-0.482098	0.542010	-0.273670
N160	N	0.017902	1.042010	0.226330
H161	H	-0.474482	0.495383	-0.281306
H162	H	0.025518	0.995383	0.218694
H163	H	-0.538179	0.553468	-0.285783
H164	H	-0.038179	1.053468	0.214217
H165	H	-0.286672	0.982829	-0.677858
H166	H	0.213328	1.482829	-0.177858
H167	H	-0.929672	0.836751	-0.287086
H168	H	-0.429672	1.336751	0.212914
N169	N	-0.481978	0.826054	-1.090198
N170	N	0.018022	1.326054	-0.590198
H171	H	-0.474335	0.832171	-1.148353
H172	H	0.025665	1.332171	-0.648353
H173	H	-0.538053	0.835800	-1.075875
H174	H	-0.038053	1.335800	-0.575875
H175	H	-1.078399	0.836808	-0.287111
H176	H	-0.578399	1.336808	0.212889
N177	N	-0.836401	0.826088	-0.273786
N178	N	-0.336401	1.326088	0.226214
H179	H	-0.870440	0.796915	-0.305654
H180	H	-0.370440	1.296915	0.194346
H181	H	-0.870352	0.851749	-0.237455
H182	H	-0.370352	1.351749	0.262545
N183	N	-0.666004	0.826025	-0.273769
N184	N	-0.166004	1.326025	0.226231
H185	H	-0.704465	0.800550	-0.241943
H186	H	-0.204465	1.300550	0.258057
H187	H	-0.631975	0.851652	-0.237467
H188	H	-0.131975	1.351652	0.262533
H189	H	-0.468877	0.669976	-0.286946
H190	H	0.031123	1.169976	0.213054
H191	H	-0.286929	0.550895	-0.469448
H192	H	0.213071	1.050895	0.030552
H193	H	-0.286865	0.269322	-0.469478
H194	H	0.213135	0.769322	0.030522
N195	N	-0.273340	0.993475	-0.837422
N196	N	0.226660	1.493475	-0.337422
H197	H	-0.241542	1.018985	-0.799027
H198	H	0.258458	1.518985	-0.299027
H199	H	-0.305263	1.022601	-0.871446
H200	H	0.194737	1.522601	-0.371446
N201	N	-0.482086	0.826049	-0.837342
N202	N	0.017914	1.326049	-0.337342
H203	H	-0.513902	0.800528	-0.798922
H204	H	-0.013902	1.300528	-0.298922
H205	H	-0.450133	0.796934	-0.871358
H206	H	0.049867	1.296934	-0.371358
H207	H	-0.286557	0.982878	-1.079433
H208	H	0.213443	1.482878	-0.579433
H209	H	-0.286602	0.982863	-0.930705
H210	H	0.213398	1.482863	-0.430705
N211	N	-0.482055	0.826053	-0.919790
N212	N	0.017945	1.326053	-0.419790
H213	H	-0.513854	0.800543	-0.958184
H214	H	-0.013854	1.300543	-0.458184
H215	H	-0.518384	0.851659	-0.885774
H216	H	-0.018384	1.351659	-0.385774
H217	H	-0.468846	0.836662	-0.677786
H218	H	0.031154	1.336662	-0.177786
