data_functionalizedCrystal
_audit_creation_method	'MofGen! by Chris Wilmer'
_symmetry_space_group_name_H-M	'P1'
_symmetry_Int_Tables_number	1
_symmetry_cell_setting	triclinic
loop_
_symmetry_equiv_pos_as_xyz
  x,y,z
_cell_length_a	25.427154
_cell_length_b	25.426324
_cell_length_c	25.422586
_cell_angle_alpha	60.006367
_cell_angle_beta	60.012446
_cell_angle_gamma	59.992398
loop_
_atom_site_label
_atom_site_type_symbol
_atom_site_fract_x
_atom_site_fract_y
_atom_site_fract_z
O1	O	0.072968	-0.768436	0.642532
O2	O	0.027520	-0.598284	0.517710
O3	O	0.135268	-0.705940	0.517611
O4	O	-0.034780	-0.660780	0.642632
O5	O	0.171018	-0.670200	0.553260
O6	O	0.063270	-0.562544	0.553360
O7	O	0.108718	-0.732696	0.678182
Zn8	Zn	0.091670	-0.641945	0.621431
Zn9	Zn	0.044568	-0.689034	0.574461
O10	O	0.000970	-0.625039	0.678281
N11	N	0.123818	-0.609812	0.653490
N12	N	0.012426	-0.721173	0.542402
C13	C	0.168482	-0.466269	0.698103
C14	C	0.168494	-0.565177	0.698095
C15	C	0.193243	-0.540453	0.722807
C16	C	0.301113	-0.521853	0.665993
C17	C	0.368545	-0.544324	0.643486
C18	C	0.368579	-0.653434	0.685090
C19	C	0.301149	-0.630961	0.707599
C20	C	0.184722	-0.432539	0.631812
C21	C	0.162210	-0.365100	0.609357
C22	C	0.107225	-0.365129	0.719489
C23	C	0.129737	-0.432567	0.741943
C24	C	0.102194	-0.548896	0.714421
C25	C	0.079702	-0.571372	0.691949
C26	C	0.189805	-0.626409	0.636839
C27	C	0.212300	-0.603934	0.659303
C28	C	0.102289	-0.548918	0.830735
C29	C	0.079866	-0.571415	0.898171
C30	C	0.190015	-0.626466	0.898104
C31	C	0.212437	-0.603971	0.830666
C32	C	0.168573	-0.565195	0.796984
C33	C	0.267418	-0.565170	0.698047
C34	C	-0.130981	-0.765617	0.497386
C35	C	-0.032127	-0.765741	0.497606
C36	C	-0.056804	-0.790430	0.472789
C37	C	-0.075480	-0.898263	0.529507
C38	C	-0.053057	-0.965702	0.552014
C39	C	0.056052	-0.965829	0.510599
C40	C	0.033627	-0.898392	0.488091
C41	C	-0.164787	-0.781859	0.563659
C42	C	-0.232219	-0.759299	0.586018
C43	C	-0.232034	-0.704261	0.475827
C44	C	-0.164602	-0.726821	0.453469
C45	C	-0.048372	-0.699446	0.481299
C46	C	-0.025938	-0.677008	0.503867
C47	C	0.028987	-0.787155	0.559036
C48	C	0.006552	-0.809596	0.536475
C49	C	-0.048188	-0.699454	0.364860
C50	C	-0.025608	-0.677017	0.297425
C51	C	0.029406	-0.787170	0.297492
C52	C	0.006827	-0.809605	0.364929
C53	C	-0.031972	-0.765745	0.398611
C54	C	-0.032140	-0.864611	0.497548
N55	N	0.401319	-0.609788	0.653344
O56	O	0.621664	-0.620517	0.494685
O57	O	0.621901	-0.745740	0.664659
O58	O	0.621803	-0.745452	0.556857
O59	O	0.621762	-0.620805	0.602487
O60	O	0.514676	-0.709815	0.592658
O61	O	0.514774	-0.710104	0.700460
O62	O	0.514537	-0.584881	0.530485
Zn63	Zn	0.497647	-0.641834	0.621157
Zn64	Zn	0.638791	-0.688787	0.573988
O65	O	0.514635	-0.585169	0.638287
N66	N	0.735119	-0.720834	0.541794
N67	N	0.123794	-0.332357	0.653504
O68	O	-0.034774	-0.111885	0.642639
O69	O	0.135202	-0.111860	0.517412
O70	O	0.027364	-0.111888	0.517742
O71	O	0.073064	-0.111857	0.642310
O72	O	0.063120	-0.219026	0.553444
O73	O	0.170958	-0.218998	0.553115
O74	O	0.000983	-0.219022	0.678342
Zn75	Zn	0.091647	-0.236020	0.621397
Zn76	Zn	0.044537	-0.094862	0.574357
O77	O	0.108821	-0.218994	0.678013
N78	N	0.012383	0.001474	0.542251
N79	N	0.124036	-0.609854	0.930891
O80	O	0.113202	-0.768401	1.151342
O81	O	-0.011992	-0.598359	1.151385
O82	O	-0.011700	-0.706176	1.151343
O83	O	0.112910	-0.660584	1.151384
O84	O	0.023980	-0.670446	1.044212
O85	O	0.023689	-0.562630	1.044253
O86	O	0.148882	-0.732671	1.044211
Zn87	Zn	0.091951	-0.641977	1.027223
Zn88	Zn	0.044940	-0.689053	1.168373
O89	O	0.148590	-0.624854	1.044252
N90	N	0.012853	-0.721183	1.264704
C91	C	0.041135	-0.558973	0.518338
C92	C	0.174567	-0.692292	0.518215
C93	C	0.095103	-0.772007	0.677553
C94	C	-0.038330	-0.638687	0.677677
C95	C	0.568366	-0.745166	0.703974
C96	C	0.568246	-0.744810	0.570474
C97	C	0.568069	-0.585454	0.491172
C98	C	0.568192	-0.585812	0.624671
C99	C	0.174449	-0.165294	0.517975
C100	C	0.040949	-0.165460	0.518427
C101	C	-0.038309	-0.165456	0.677735
C102	C	0.095236	-0.165423	0.677328
C103	C	-0.011393	-0.559072	1.097824
C104	C	-0.011024	-0.692583	1.097752
C105	C	0.148283	-0.771958	1.097772
C106	C	0.147922	-0.638440	1.097820
H107	H	0.066565	-0.517338	0.803314
O108	O	0.568333	-0.792053	0.762237
C109	C	0.512980	-0.862580	0.856763
C110	C	0.512928	-0.809471	0.790801
H111	H	0.468197	-0.876688	0.879870
H112	H	0.512955	-0.843933	0.889289
H113	H	0.557860	-0.906471	0.849939
H114	H	0.468056	-0.765562	0.797564
H115	H	0.512987	-0.828170	0.758298
H116	H	-0.050155	-0.702322	1.097697
O117	O	0.568150	-0.791468	0.558837
C118	C	0.512657	-0.822229	0.530484
C119	C	0.512679	-0.769340	0.543661
H120	H	0.467820	-0.804353	0.518198
H121	H	0.512685	-0.867238	0.575145
H122	H	0.557483	-0.834238	0.488307
H123	H	0.467860	-0.757276	0.585817
H124	H	0.512685	-0.724364	0.498967
O125	O	0.029298	-0.165598	0.471794
C126	C	0.000914	-0.221134	0.441114
C127	C	0.014098	-0.221056	0.493974
H128	H	-0.011392	-0.265960	0.459031
H129	H	0.045577	-0.221178	0.396116
H130	H	-0.041251	-0.176289	0.429073
H131	H	0.056241	-0.265894	0.506070
H132	H	-0.030598	-0.220979	0.538938
O133	O	0.195198	-0.830220	1.097842
C134	C	0.265623	-0.924792	1.153348
C135	C	0.212506	-0.858817	1.153342
H136	H	0.279624	-0.947938	1.198221
H137	H	0.309579	-0.918056	1.108547
H138	H	0.246956	-0.957247	1.153300
H139	H	0.231113	-0.826328	1.153413
H140	H	0.168561	-0.865603	1.198139
H141	H	0.568183	-0.546658	0.634434
H142	H	0.567992	-0.546139	0.442358
H143	H	0.223163	-0.164989	0.478564
H144	H	-0.087123	-0.165464	0.717049
H145	H	0.223406	-0.701920	0.478955
O146	O	0.107026	-0.165453	0.723961
C147	C	0.183582	-0.165414	0.753379
C148	C	0.170319	-0.165389	0.700514
H149	H	0.234748	-0.165349	0.734438
H150	H	0.177896	-0.210268	0.797342
H151	H	0.147895	-0.120594	0.767484
H152	H	0.205993	-0.210179	0.686355
H153	H	0.175983	-0.120506	0.656587
H154	H	-0.050697	-0.510236	1.097837
O155	O	0.194568	-0.626691	1.097796
C156	C	0.224014	-0.550179	1.097859
C157	C	0.171137	-0.563393	1.097871
H158	H	0.205086	-0.499008	1.097933
H159	H	0.267970	-0.555895	1.053008
H160	H	0.238122	-0.585875	1.142677
H161	H	0.156975	-0.527709	1.053083
H162	H	0.127217	-0.557700	1.142751
O163	O	0.106688	-0.830268	0.724384
C164	C	0.112605	-0.887942	0.831705
C165	C	0.099483	-0.821921	0.778720
H166	H	0.106772	-0.881214	0.875653
H167	H	0.163785	-0.920333	0.812934
H168	H	0.076925	-0.911153	0.845765
H169	H	0.135123	-0.798654	0.764636
H170	H	0.048286	-0.789576	0.797519
O171	O	0.015458	-0.555620	0.930878
C172	C	-0.085542	-0.560786	0.951589
C173	C	-0.012615	-0.578702	0.914496
H174	H	-0.108259	-0.579451	0.938368
H175	H	-0.108326	-0.506181	0.938333
H176	H	-0.094024	-0.583502	1.005569
H177	H	-0.004075	-0.556029	0.860507
H178	H	0.010132	-0.633312	0.927805
O179	O	0.232713	-0.664138	0.930718
C180	C	0.344335	-0.716316	0.923525
C181	C	0.296048	-0.673661	0.886509
H182	H	0.395552	-0.724018	0.887798
H183	H	0.336651	-0.764859	0.955074
H184	H	0.336545	-0.691610	0.955113
H185	H	0.303810	-0.698310	0.854886
H186	H	0.303745	-0.625120	0.855000
O187	O	0.059555	-0.511230	0.752069
C188	C	-0.052029	-0.459041	0.804391
C189	C	-0.003810	-0.501689	0.761734
H190	H	-0.103270	-0.451326	0.812229
H191	H	-0.044329	-0.410504	0.779698
H192	H	-0.044180	-0.483761	0.852867
H193	H	-0.011630	-0.477026	0.713250
H194	H	-0.011522	-0.550224	0.786478
H195	H	0.060486	-0.822870	0.590677
O196	O	0.015304	-0.555484	0.707696
C197	C	-0.074032	-0.503625	0.669011
C198	C	-0.001097	-0.521566	0.651088
H199	H	-0.087312	-0.476211	0.623254
H200	H	-0.101509	-0.472031	0.700567
H201	H	-0.087263	-0.549400	0.696489
H202	H	0.012194	-0.475826	0.623587
H203	H	0.026340	-0.553185	0.619563
O204	O	0.232446	-0.664030	0.599146
C205	C	0.344032	-0.716283	0.546893
C206	C	0.295809	-0.673660	0.589575
H207	H	0.395271	-0.724093	0.539152
H208	H	0.336272	-0.691574	0.498372
H209	H	0.336246	-0.764777	0.571596
H210	H	0.303566	-0.625158	0.564928
H211	H	0.303581	-0.698419	0.638093
H212	H	0.266414	-0.617231	0.803190
H213	H	-0.087172	-0.629063	0.716934
O214	O	0.268386	-0.673030	0.738836
C215	C	0.192283	-0.718061	0.836817
C216	C	0.229357	-0.670405	0.801520
H217	H	0.160708	-0.715945	0.887498
H218	H	0.227947	-0.768963	0.839826
H219	H	0.160712	-0.704522	0.809233
H220	H	0.260928	-0.683884	0.829075
H221	H	0.193657	-0.619516	0.798504
O222	O	0.401251	-0.717368	0.694438
C223	C	0.394175	-0.823215	0.738033
C224	C	0.357095	-0.750831	0.727505
H225	H	0.358491	-0.850288	0.764756
H226	H	0.425760	-0.842244	0.767695
H227	H	0.425731	-0.830691	0.689393
H228	H	0.325504	-0.743299	0.776114
H229	H	0.325551	-0.731836	0.697813
H230	H	0.266286	-0.617183	0.646003
H231	H	0.273654	-0.468282	0.658214
O232	O	0.401247	-0.502205	0.612251
C233	C	0.421780	-0.408698	0.521382
C234	C	0.384716	-0.456363	0.556685
H235	H	0.408418	-0.371615	0.476458
H236	H	0.475778	-0.436021	0.506884
H237	H	0.408550	-0.383144	0.554702
H238	H	0.397892	-0.481930	0.523402
H239	H	0.330728	-0.429005	0.571194
O240	O	0.222325	-0.465179	0.589141
C241	C	0.274504	-0.458032	0.477533
C242	C	0.231903	-0.420988	0.525789
H243	H	0.282273	-0.422320	0.426303
H244	H	0.249807	-0.489591	0.485269
H245	H	0.323014	-0.489617	0.485308
H246	H	0.183386	-0.389368	0.518043
H247	H	0.256650	-0.389470	0.518041
H248	H	0.075686	-0.337687	0.755188
O249	O	0.114040	-0.465309	0.806349
C250	C	0.119219	-0.485938	0.907338
C251	C	0.137052	-0.448830	0.834408
H252	H	0.137805	-0.472617	0.930047
H253	H	0.141982	-0.539934	0.915894
H254	H	0.064622	-0.472699	0.930072
H255	H	0.191640	-0.462015	0.811626
H256	H	0.114243	-0.394842	0.825897
O257	O	-0.041485	-0.612610	0.264676
C258	C	-0.126907	-0.511547	0.243927
C259	C	-0.109015	-0.584479	0.281045
H260	H	-0.181505	-0.488779	0.257158
H261	H	-0.104158	-0.503000	0.189936
H262	H	-0.108296	-0.488861	0.257244
H263	H	-0.127622	-0.607213	0.267782
H264	H	-0.131754	-0.592980	0.335027
O265	O	-0.085776	-0.656826	0.397556
C266	C	-0.094408	-0.569587	0.418212
C267	C	-0.051775	-0.617829	0.381151
H268	H	-0.066940	-0.538037	0.404951
H269	H	-0.107737	-0.596983	0.472212
H270	H	-0.140133	-0.537994	0.404874
H271	H	-0.006022	-0.649434	0.394435
H272	H	-0.038497	-0.590393	0.327160
O273	O	0.067009	-0.829839	0.264850
C274	C	0.075614	-0.917039	0.244155
C275	C	0.032964	-0.868759	0.281173
H276	H	0.048100	-0.948509	0.257329
H277	H	0.121317	-0.948706	0.257527
H278	H	0.088985	-0.889608	0.190163
H279	H	0.019544	-0.896137	0.335173
H280	H	-0.012709	-0.837093	0.267748
H281	H	0.020039	-0.863588	0.392405
O282	O	-0.086027	-0.656904	0.443619
C283	C	-0.188622	-0.618229	0.431419
C284	C	-0.146038	-0.666455	0.474145
H285	H	-0.237155	-0.625924	0.456089
H286	H	-0.163905	-0.626022	0.382917
H287	H	-0.196347	-0.567000	0.423636
H288	H	-0.138299	-0.717702	0.481980
H289	H	-0.170775	-0.658605	0.522620
O290	O	0.029602	-0.500719	0.471485
C291	C	0.023604	-0.443046	0.364195
C292	C	0.036696	-0.509060	0.417194
H293	H	0.029321	-0.449766	0.320293
H294	H	0.059308	-0.419820	0.350042
H295	H	-0.027559	-0.410671	0.383037
H296	H	0.087840	-0.541484	0.398398
H297	H	0.000952	-0.532235	0.431340
O298	O	0.022416	-0.874016	0.552347
C299	C	0.079232	-0.980905	0.609476
C300	C	0.061325	-0.907968	0.591541
H301	H	0.110681	-1.008376	0.641178
H302	H	0.106783	-0.994243	0.563748
H303	H	0.033441	-0.994091	0.636817
H304	H	0.107082	-0.894730	0.564216
H305	H	0.033748	-0.894669	0.637292
O306	O	0.075814	-0.865801	0.457083
C307	C	0.186408	-0.873047	0.418348
C308	C	0.138700	-0.910036	0.453490
H309	H	0.237263	-0.908795	0.415419
H310	H	0.172890	-0.841486	0.445932
H311	H	0.184389	-0.841469	0.367631
H312	H	0.140694	-0.941649	0.504207
H313	H	0.152233	-0.941556	0.425857
O314	O	-0.041790	-0.612613	0.488132
C315	C	-0.093668	-0.523284	0.526826
C316	C	-0.075770	-0.596216	0.544740
H317	H	-0.121132	-0.510006	0.572583
H318	H	-0.125198	-0.495768	0.495197
H319	H	-0.047878	-0.510093	0.499429
H320	H	-0.121524	-0.609466	0.572160
H321	H	-0.044215	-0.623691	0.576338
H322	H	-0.137077	-0.713589	0.399501
H323	H	0.109606	-0.993335	0.502902
O324	O	-0.095258	-0.998293	0.583148
C325	C	-0.205867	-0.991052	0.621995
C326	C	-0.158138	-0.954061	0.586690
H327	H	-0.256714	-0.955306	0.624858
H328	H	-0.203878	-1.022552	0.672734
H329	H	-0.192331	-1.022691	0.594486
H330	H	-0.171641	-0.922386	0.614145
H331	H	-0.160135	-0.922601	0.535948
H332	H	-0.129033	-0.870764	0.537213
O333	O	-0.132196	-0.819608	0.606378
C334	C	-0.111699	-0.918864	0.693669
C335	C	-0.148659	-0.876169	0.645334
H336	H	-0.124986	-0.964609	0.725168
H337	H	-0.125006	-0.891444	0.725298
H338	H	-0.057700	-0.932165	0.666290
H339	H	-0.202667	-0.862857	0.672661
H340	H	-0.135299	-0.903614	0.613706
O341	O	-0.265088	-0.774967	0.650393
C342	C	-0.341350	-0.736148	0.739615
C343	C	-0.304157	-0.718312	0.666705
H344	H	-0.372956	-0.690353	0.752824
H345	H	-0.305763	-0.767721	0.767193
H346	H	-0.372900	-0.763581	0.752796
H347	H	-0.272606	-0.690856	0.653464
H348	H	-0.339779	-0.686769	0.639167
O349	O	-0.264598	-0.666566	0.433081
C350	C	-0.257302	-0.614408	0.321426
C351	C	-0.220345	-0.657091	0.369765
H352	H	-0.221539	-0.606746	0.270225
H353	H	-0.288839	-0.565850	0.329104
H354	H	-0.288895	-0.639070	0.329170
H355	H	-0.188717	-0.632486	0.362051
H356	H	-0.188849	-0.705647	0.362076
H357	H	0.175430	-0.337636	0.555374
