data_functionalizedCrystal
_audit_creation_method	'MofGen! by Chris Wilmer'
_symmetry_space_group_name_H-M	'P1'
_symmetry_Int_Tables_number	1
_symmetry_cell_setting	triclinic
loop_
_symmetry_equiv_pos_as_xyz
  x,y,z
_cell_length_a	9.065215
_cell_length_b	15.995292
_cell_length_c	8.140239
_cell_angle_alpha	89.999675
_cell_angle_beta	89.997810
_cell_angle_gamma	84.241657
loop_
_atom_site_label
_atom_site_type_symbol
_atom_site_fract_x
_atom_site_fract_y
_atom_site_fract_z
O1	O	1.957465	0.122762	-0.136581
O2	O	1.527938	0.132835	-0.136588
O3	O	1.754488	0.005996	-0.136587
O4	O	1.730915	0.249600	-0.136582
O5	O	1.754475	0.005995	0.136640
O6	O	1.527926	0.132833	0.136640
O7	O	1.957452	0.122760	0.136646
Zn8	Zn	1.742687	0.127796	0.180023
Zn9	Zn	1.742703	0.127798	-0.179965
O10	O	1.730903	0.249598	0.136645
C11	C	1.472969	0.131866	0.000025
C12	C	1.309195	0.128973	0.000022
C13	C	1.753522	-0.025207	0.000023
C14	C	1.750646	-0.118182	0.000010
C15	C	1.740072	-0.456001	0.000025
C16	C	1.903589	-0.431449	0.000638
C17	C	1.906697	-0.334750	0.000016
C18	C	1.745319	-0.288405	0.000019
C19	C	1.663575	-0.318124	-0.156003
C20	C	1.661606	-0.414930	-0.156128
C21	C	1.658253	-0.414814	0.154582
C22	C	1.664313	-0.318276	0.156638
C23	C	1.748275	-0.193686	0.000010
C24	C	1.737110	-0.550719	0.000023
C25	C	2.012422	0.123728	0.000030
C26	C	2.176196	0.126621	0.000022
C27	C	1.731869	0.280802	0.000032
C28	C	1.734745	0.373777	0.000034
N29	N	1.742687	0.127795	0.425706
N30	N	1.742716	0.127794	-0.425648
H31	H	1.966611	-0.458969	0.112528
H32	H	1.720350	-0.297633	-0.272116
H33	H	1.966271	-0.459991	-0.110623
H34	H	1.541715	-0.430389	-0.163195
C35	C	1.993189	-0.308382	0.151094
C36	C	2.133216	-0.262520	0.128076
C37	C	2.219718	-0.236156	0.279153
C38	C	2.166194	-0.255654	0.453248
C39	C	2.026160	-0.301518	0.476273
C40	C	1.939657	-0.327882	0.325196
H41	H	2.172844	-0.248085	-0.000807
H42	H	2.323381	-0.202204	0.262106
H43	H	2.230228	-0.236137	0.565084
H44	H	1.986531	-0.315953	0.605156
H45	H	1.835994	-0.361834	0.342242
C46	C	1.727351	-0.452449	0.314400
C47	C	1.891922	-0.445119	0.352628
C48	C	1.960995	-0.482751	0.512460
C49	C	1.865496	-0.527712	0.634064
C50	C	1.700916	-0.535044	0.595839
C51	C	1.631843	-0.497412	0.436007
H52	H	1.962624	-0.411835	0.262607
H53	H	2.082829	-0.477324	0.540756
H54	H	1.916628	-0.555570	0.752381
H55	H	1.630214	-0.568328	0.685860
H56	H	1.510009	-0.502839	0.407711
H57	H	1.546522	-0.286199	0.166063
H58	H	1.544822	-0.287157	-0.161802
H59	H	1.723835	-0.299260	0.272062
H60	H	1.971105	-0.315857	-0.112020
H61	H	1.537892	-0.429717	0.155635
H62	H	1.718229	-0.441317	-0.272759
