data_functionalizedCrystal
_audit_creation_method	'MofGen! by Chris Wilmer'
_symmetry_space_group_name_H-M	'P1'
_symmetry_Int_Tables_number	1
_symmetry_cell_setting	triclinic
loop_
_symmetry_equiv_pos_as_xyz
  x,y,z
_cell_length_a	12.827893
_cell_length_b	12.759399
_cell_length_c	12.759393
_cell_angle_alpha	89.969094
_cell_angle_beta	90.020760
_cell_angle_gamma	89.984913
loop_
_atom_site_label
_atom_site_type_symbol
_atom_site_fract_x
_atom_site_fract_y
_atom_site_fract_z
Zn1	Zn	1.597687	0.418216	0.594012
Zn2	Zn	2.097687	0.918216	1.094012
Zn3	Zn	1.597577	0.593932	0.418331
Zn4	Zn	2.097577	1.093932	0.918331
Zn5	Zn	1.422924	0.418267	0.418348
Zn6	Zn	1.922924	0.918267	0.918348
Zn7	Zn	1.422914	0.593854	0.593969
Zn8	Zn	1.922914	1.093854	1.093969
O9	O	1.510276	0.506067	0.506165
O10	O	2.010276	1.006067	1.006165
O11	O	1.743908	0.441537	0.570719
O12	O	2.243908	0.941537	1.070719
O13	O	1.574367	0.570684	0.271312
O14	O	2.074367	1.070684	0.771312
O15	O	1.446156	0.271240	0.441675
O16	O	1.946156	0.771240	0.941675
O17	O	1.743828	0.570634	0.441647
O18	O	2.243828	1.070634	0.941647
O19	O	1.574554	0.271202	0.570735
O20	O	2.074554	0.771202	1.070735
O21	O	1.446050	0.441624	0.271324
O22	O	1.946050	0.941624	0.771324
O23	O	1.276687	0.441548	0.441633
O24	O	1.776687	0.941548	0.941633
O25	O	1.446140	0.570501	0.740996
O26	O	1.946140	1.070501	1.240996
O27	O	1.276680	0.570550	0.570661
O28	O	1.776680	1.070550	1.070661
O29	O	1.574545	0.441461	0.741028
O30	O	2.074545	0.941461	1.241028
O31	O	1.574358	0.740943	0.441605
O32	O	2.074358	1.240943	0.941605
O33	O	1.446034	0.740885	0.570645
O34	O	1.946034	1.240885	1.070645
C35	C	1.238766	0.506047	0.506145
C36	C	1.738766	1.006047	1.006145
C37	C	1.122613	0.506064	0.506161
C38	C	1.622613	1.006064	1.006161
C39	C	1.510212	0.779035	0.506141
C40	C	2.010212	1.279035	1.006141
C41	C	1.510280	0.895811	0.506166
C42	C	2.010280	1.395811	1.006166
C43	C	1.510354	0.505966	0.780198
C44	C	2.010354	1.005966	1.280198
C45	C	1.510387	0.505923	0.896975
C46	C	2.010387	1.005923	1.396975
C47	C	1.070852	0.569998	0.569910
C48	C	1.570852	1.069998	1.069910
C49	C	0.950802	0.570017	0.569928
C50	C	1.450802	1.070017	1.069928
C51	C	1.782846	0.506088	0.506186
C52	C	2.282846	1.006088	1.006186
C53	C	1.898999	0.506097	0.506194
C54	C	2.398999	1.006097	1.006194
C55	C	1.510368	0.232034	0.506212
C56	C	2.010368	0.732034	1.006212
C57	C	1.510408	0.115257	0.506232
C58	C	2.010408	0.615257	1.006232
C59	C	1.577174	0.950668	0.439051
C60	C	2.077174	1.450668	0.939051
C61	C	1.577241	1.060392	0.439086
C62	C	2.077241	1.560392	0.939086
C63	C	1.443510	1.060393	0.573354
C64	C	1.943510	1.560393	1.073354
C65	C	1.443449	0.950671	0.573324
C66	C	1.943449	1.450671	1.073324
C67	C	1.510258	0.506092	0.233198
C68	C	2.010258	1.006092	0.733198
C69	C	1.510427	0.505839	0.116421
C70	C	2.010427	1.005839	0.616421
C71	C	1.577252	0.438722	0.951855
C72	C	2.077252	0.938722	1.451855
C73	C	1.577270	0.438676	1.061580
C74	C	2.077270	0.938676	1.561580
C75	C	1.443554	0.573044	1.061533
C76	C	1.943554	1.073044	1.561533
C77	C	1.443532	0.573083	0.951811
C78	C	1.943532	1.073083	1.451811
H79	H	1.115415	0.624717	0.624478
H80	H	1.615415	1.124717	1.124478
H81	H	1.631687	0.384033	0.907211
H82	H	2.131687	0.884033	1.407211
C83	C	0.890670	0.643966	0.643663
C84	C	1.390670	1.143966	1.143663
N85	N	0.845376	0.699666	0.699204
N86	N	1.345376	1.199666	1.199204
C87	C	1.650830	0.364751	1.121943
C88	C	2.150830	0.864751	1.621943
N89	N	1.706238	0.309068	1.167408
N90	N	2.206238	0.809068	1.667408
H91	H	0.943505	0.451362	0.451610
H92	H	1.443505	0.951362	0.951610
H93	H	1.078050	0.451337	0.451602
H94	H	1.578050	0.951337	0.951602
H95	H	1.631593	0.906004	0.384369
H96	H	2.131593	1.406004	0.884369
C97	C	1.369878	0.890325	0.647181
C98	C	1.869878	1.390325	1.147181
N99	N	1.314475	0.844872	0.702817
N100	N	1.814475	1.344872	1.202817
H101	H	1.389126	0.627725	1.106195
H102	H	1.889126	1.127725	1.606195
C103	C	1.650827	1.120730	0.365250
C104	C	2.150827	1.620730	0.865250
N105	N	1.706253	1.166176	0.309632
N106	N	2.206253	1.666176	0.809632
C107	C	1.369989	1.120748	0.647212
C108	C	1.869989	1.620748	1.147212
N109	N	1.314607	1.166207	0.702838
N110	N	1.814607	1.666207	1.202838
C111	C	1.369968	0.647011	0.891440
C112	C	1.869968	1.147011	1.391440
N113	N	1.314559	0.702688	0.845967
N114	N	1.814559	1.202688	1.345967
