data_functionalizedCrystal
_audit_creation_method	'MofGen! by Chris Wilmer'
_symmetry_space_group_name_H-M	'P1'
_symmetry_Int_Tables_number	1
_symmetry_cell_setting	triclinic
loop_
_symmetry_equiv_pos_as_xyz
  x,y,z
_cell_length_a	12.759399
_cell_length_b	12.759401
_cell_length_c	18.215399
_cell_angle_alpha	90.018101
_cell_angle_beta	89.975510
_cell_angle_gamma	89.988180
loop_
_atom_site_label
_atom_site_type_symbol
_atom_site_fract_x
_atom_site_fract_y
_atom_site_fract_z
Zn1	Zn	-0.418400	-1.606224	-0.416100
Zn2	Zn	-0.594098	-1.606119	-0.293041
Zn3	Zn	-0.418420	-1.430532	-0.293051
Zn4	Zn	-0.594024	-1.430510	-0.416069
O5	O	-0.506236	-1.518346	-0.354565
O6	O	-0.441730	-1.753231	-0.399784
O7	O	-0.570833	-1.582793	-0.190058
O8	O	-0.271396	-1.453890	-0.309390
O9	O	-0.570814	-1.753154	-0.309373
O10	O	-0.271382	-1.582971	-0.399794
O11	O	-0.441763	-1.453789	-0.190065
O12	O	-0.441692	-1.283508	-0.309361
O13	O	-0.570689	-1.453853	-0.519058
O14	O	-0.570708	-1.283491	-0.399742
O15	O	-0.441658	-1.582949	-0.519080
O16	O	-0.741109	-1.582771	-0.309344
O17	O	-0.741055	-1.453752	-0.399732
C18	C	-0.506195	-1.245379	-0.354550
C19	C	-0.506202	-1.128602	-0.354561
C20	C	-0.439124	-0.964043	-0.401713
C21	C	-0.439110	-1.073767	-0.401709
C22	C	-0.573320	-1.073707	-0.307417
C23	C	-0.573339	-0.963985	-0.307424
C24	C	-0.401708	-1.223770	-0.488537
C25	C	-0.334581	-1.278661	-0.535672
C26	C	-0.232094	-1.243061	-0.547098
C27	C	-0.196712	-1.152571	-0.511377
C28	C	-0.263834	-1.097686	-0.464237
C29	C	-0.366336	-1.133284	-0.452825
C30	C	-0.610730	-0.813980	-0.220596
C31	C	-0.677847	-0.759093	-0.173451
C32	C	-0.780336	-0.794691	-0.162018
C33	C	-0.815713	-0.885184	-0.197725
C34	C	-0.748596	-0.940072	-0.244870
C35	C	-0.646108	-0.904466	-0.256304
C36	C	-0.779203	-1.518276	-0.354550
C37	C	-0.895980	-1.518343	-0.354568
C38	C	-0.950942	-1.451227	-0.307474
C39	C	-1.060666	-1.451301	-0.307493
C40	C	-1.060455	-1.585610	-0.401706
C41	C	-0.950733	-1.585540	-0.401683
C42	C	-1.210738	-1.413928	-0.220709
C43	C	-1.265704	-1.346795	-0.173621
C44	C	-1.230191	-1.244267	-0.162252
C45	C	-1.139714	-1.208851	-0.197980
C46	C	-1.084753	-1.275978	-0.245073
C47	C	-1.120265	-1.378521	-0.256429
C48	C	-0.800660	-1.622903	-0.488468
C49	C	-0.745697	-1.690025	-0.535565
C50	C	-0.781208	-1.792555	-0.546942
C51	C	-0.871689	-1.827967	-0.511226
C52	C	-0.926651	-1.760844	-0.464129
C53	C	-0.891133	-1.658316	-0.452751
C54	C	-0.232202	-1.518445	-0.354596
C55	C	-0.115426	-1.518487	-0.354610
C56	C	-0.506163	-1.518410	-0.546518
C57	C	-0.506132	-1.518437	-0.628317
C58	C	-0.506262	-0.792379	-0.354577
C59	C	-0.506235	-0.909156	-0.354571
C60	C	-0.438883	-1.585682	-0.816524
C61	C	-0.438853	-1.585694	-0.893383
C62	C	-0.573219	-1.451267	-0.893348
C63	C	-0.573243	-1.451250	-0.816491
C64	C	-0.506077	-1.518463	-0.778081
C65	C	-0.506022	-1.518493	-0.931797
C66	C	-0.505989	-1.518506	-1.015130
C67	C	-0.506108	-1.518449	-0.694742
C68	C	-0.506232	-1.518343	-0.163359
C69	C	-0.505967	-1.518519	-0.081560
H70	H	-0.113252	-1.123600	-0.520677
O71	O	-0.373612	-1.650890	-0.930840
C72	C	-0.314051	-1.710526	-1.049256
C73	C	-0.387979	-1.636624	-1.006928
H74	H	-0.325657	-1.699034	-1.110781
H75	H	-0.229317	-1.692096	-1.034204
H76	H	-0.332501	-1.795224	-1.034111
H77	H	-0.369624	-1.551902	-1.022050
H78	H	-0.472691	-1.655145	-1.021984
O79	O	-0.166985	-1.296310	-0.592993
C80	C	-0.137007	-1.359478	-0.715905
C81	C	-0.210817	-1.299128	-0.664009
H82	H	-0.172427	-1.361795	-0.773329
H83	H	-0.057674	-1.318499	-0.718000
H84	H	-0.126306	-1.442892	-0.694784
H85	H	-0.221605	-1.215710	-0.685091
H86	H	-0.290107	-1.340190	-0.661918
H87	H	-0.771721	-1.539423	-0.479191
H88	H	-0.363398	-1.352338	-0.564756
H89	H	-0.672023	-1.661183	-0.564647
H90	H	-1.110814	-1.125358	-0.188726
H91	H	-1.105049	-1.640319	-0.440066
O92	O	-0.374096	-0.910666	-0.447550
C93	C	-0.360177	-0.786897	-0.546967
C94	C	-0.433936	-0.847258	-0.495087
H95	H	-0.408529	-0.735634	-0.585423
H96	H	-0.305201	-0.735439	-0.513292
H97	H	-0.312187	-0.844998	-0.580627
H98	H	-0.481994	-0.789233	-0.461415
H99	H	-0.488843	-0.898732	-0.528804
O100	O	-0.638572	-1.386097	-0.779061
C101	C	-0.780479	-1.371905	-0.692292
C102	C	-0.706553	-1.445806	-0.734623
H103	H	-0.835475	-1.420150	-0.656366
H104	H	-0.732303	-1.316996	-0.656261
H105	H	-0.828438	-1.323851	-0.732959
H106	H	-0.658578	-1.493928	-0.694009
H107	H	-0.754790	-1.500645	-0.770665
H108	H	-0.627905	-1.396546	-0.924631
H109	H	-0.384190	-1.640409	-0.785252
H110	H	-0.649183	-0.685149	-0.144629
H111	H	-0.235082	-1.023915	-0.435247
O112	O	-0.501291	-1.258375	-0.477578
C113	C	-0.668163	-1.299052	-0.532526
C114	C	-0.555408	-1.259863	-0.545043
H115	H	-0.711956	-1.300246	-0.587059
H116	H	-0.666003	-1.381551	-0.508559
H117	H	-0.710030	-1.244294	-0.492674
H118	H	-0.513476	-1.314544	-0.584908
H119	H	-0.557643	-1.177345	-0.568974
H120	H	-0.899167	-0.914172	-0.188414
H121	H	-0.834979	-0.749995	-0.123624
O122	O	-1.245087	-1.513596	-0.231673
C123	C	-1.205884	-1.697835	-0.222112
C124	C	-1.166857	-1.585016	-0.209638
H125	H	-1.142646	-1.755609	-0.204317
H126	H	-1.279959	-1.711690	-0.188473
H127	H	-1.223918	-1.709724	-0.282838
H128	H	-1.148762	-1.573048	-0.148932
H129	H	-1.092816	-1.571215	-0.243325
H130	H	-1.000330	-1.789684	-0.435052
O131	O	-0.897591	-1.385994	-0.261773
C132	C	-0.728654	-1.326407	-0.219948
C133	C	-0.788939	-1.400317	-0.271756
H134	H	-0.640798	-1.337977	-0.227990
H135	H	-0.750208	-1.241671	-0.232822
H136	H	-0.750338	-1.344910	-0.160631
H137	H	-0.767288	-1.381908	-0.331090
H138	H	-0.767380	-1.485031	-0.258818
H139	H	-1.011089	-1.247143	-0.274163
O140	O	-0.638447	-1.126852	-0.261515
C141	C	-0.689172	-1.160390	-0.136267
C142	C	-0.615367	-1.100124	-0.188170
H143	H	-0.670525	-1.138820	-0.076955
H144	H	-0.773932	-1.138799	-0.149031
H145	H	-0.677651	-1.248235	-0.144393
H146	H	-0.626795	-1.012265	-0.180072
H147	H	-0.530635	-1.121802	-0.175393
H148	H	-0.777409	-1.013757	-0.273944
H149	H	-0.527275	-0.784985	-0.229903
H150	H	-1.274953	-1.189607	-0.123912
H151	H	-1.339372	-1.375640	-0.144532
H152	H	-0.900651	-1.911428	-0.520537
O153	O	-0.727671	-1.857635	-0.592696
C154	C	-0.579717	-1.878251	-0.673686
C155	C	-0.640226	-1.804447	-0.621878
H156	H	-0.509018	-1.835271	-0.697306
H157	H	-0.552042	-1.949981	-0.641817
H158	H	-0.633350	-1.904126	-0.720331
H159	H	-0.586656	-1.778491	-0.575223
H160	H	-0.667915	-1.732771	-0.653799
