data_functionalizedCrystal
_audit_creation_method	'MofGen! by Chris Wilmer'
_symmetry_space_group_name_H-M	'P1'
_symmetry_Int_Tables_number	1
_symmetry_cell_setting	triclinic
loop_
_symmetry_equiv_pos_as_xyz
  x,y,z
_cell_length_a	12.759401
_cell_length_b	21.295416
_cell_length_c	21.295411
_cell_angle_alpha	90.019171
_cell_angle_beta	89.978649
_cell_angle_gamma	89.969508
loop_
_atom_site_label
_atom_site_type_symbol
_atom_site_fract_x
_atom_site_fract_y
_atom_site_fract_z
Zn1	Zn	1.606171	0.250678	-0.355868
Zn2	Zn	2.106171	0.750678	0.144132
Zn3	Zn	1.606008	0.355930	-0.250598
Zn4	Zn	2.106008	0.855930	0.249402
Zn5	Zn	1.430464	0.250679	-0.250619
Zn6	Zn	1.930464	0.750679	0.249381
Zn7	Zn	1.430413	0.355914	-0.355836
Zn8	Zn	1.930413	0.855914	0.144164
O9	O	1.518264	0.303300	-0.303230
O10	O	2.018264	0.803300	0.196770
O11	O	1.753170	0.264647	-0.341909
O12	O	2.253170	0.764647	0.158091
O13	O	1.582675	0.341975	-0.162512
O14	O	2.082675	0.841975	0.337488
O15	O	1.453861	0.162590	-0.264603
O16	O	1.953861	0.662590	0.235397
O17	O	1.753051	0.341975	-0.264567
O18	O	2.253051	0.841975	0.235433
O19	O	1.582952	0.162589	-0.341929
O20	O	2.082952	0.662589	0.158071
O21	O	1.453704	0.264648	-0.162527
O22	O	1.953704	0.764648	0.337473
O23	O	1.283436	0.264632	-0.264572
O24	O	1.783436	0.764632	0.235428
O25	O	1.453775	0.341947	-0.443930
O26	O	1.953775	0.841947	0.056070
O27	O	1.283399	0.341948	-0.341874
O28	O	1.783399	0.841948	0.158126
O29	O	1.582903	0.264631	-0.443953
O30	O	2.082903	0.764631	0.056047
O31	O	1.582626	0.444017	-0.264536
O32	O	2.082626	0.944017	0.235464
O33	O	1.453617	0.444005	-0.341854
O34	O	1.953617	0.944005	0.158146
C35	C	1.245297	0.303289	-0.303222
C36	C	1.745297	0.803289	0.196778
C37	C	1.128520	0.303299	-0.303233
C38	C	1.628520	0.803299	0.196767
C39	C	1.518127	0.466852	-0.303203
C40	C	2.018127	0.966852	0.196797
C41	C	1.518165	0.536820	-0.303212
C42	C	2.018165	1.036820	0.196788
C43	C	1.073666	0.343622	-0.343418
C44	C	1.573666	0.843622	0.156582
C45	C	0.963942	0.343629	-0.343425
C46	C	1.463942	0.843629	0.156575
C47	C	0.963936	0.262990	-0.263057
C48	C	1.463936	0.762990	0.236943
C49	C	1.073658	0.262980	-0.263054
C50	C	1.573658	0.762980	0.236946
C51	C	1.128529	0.383941	-0.383597
C52	C	1.628529	0.883941	0.116403
C53	C	1.073675	0.424267	-0.423785
C54	C	1.573675	0.924267	0.076215
C55	C	0.963951	0.424275	-0.423792
C56	C	1.463951	0.924275	0.076208
C57	C	0.909081	0.383957	-0.383611
C58	C	1.409081	0.883957	0.116389
C59	C	1.585400	0.569672	-0.262995
C60	C	2.085400	1.069672	0.237005
C61	C	1.585449	0.635414	-0.263012
C62	C	2.085449	1.135414	0.236988
C63	C	1.518245	0.668303	-0.303239
C64	C	2.018245	1.168303	0.196761
C65	C	1.451006	0.635443	-0.343464
C66	C	1.951006	1.135443	0.156536
C67	C	1.450966	0.569701	-0.343450
C68	C	1.950966	1.069701	0.156550
N69	N	1.426339	0.771569	-0.308040
N70	N	1.926339	1.271569	0.191960
N71	N	1.426380	0.834021	-0.308049
N72	N	1.926380	1.334021	0.191951
C73	C	1.518364	0.866377	-0.303284
C74	C	2.018364	1.366377	0.196716
N75	N	1.610307	0.833923	-0.298497
N76	N	2.110307	1.333923	0.201503
N77	N	1.610265	0.771466	-0.298484
N78	N	2.110265	1.271466	0.201516
C79	C	1.518282	0.739588	-0.303259
C80	C	2.018282	1.239588	0.196741
C81	C	1.585658	0.970515	-0.263083
C82	C	2.085658	1.470515	0.236917
C83	C	1.585710	1.036258	-0.263105
C84	C	2.085710	1.536258	0.236895
C85	C	1.451257	1.036285	-0.343553
C86	C	1.951257	1.536285	0.156447
C87	C	1.451215	0.970543	-0.343535
C88	C	1.951215	1.470543	0.156465
C89	C	1.518414	0.937661	-0.303297
C90	C	2.018414	1.437661	0.196703
C91	C	1.792297	0.303312	-0.303239
C92	C	2.292297	0.803312	0.196761
C93	C	1.909074	0.303318	-0.303243
C94	C	2.409074	0.803318	0.196757
C95	C	1.518351	0.303287	-0.467421
C96	C	2.018351	0.803287	0.032579
C97	C	1.518389	0.303281	-0.537389
C98	C	2.018389	0.803281	-0.037389
C99	C	1.518432	1.139110	-0.303283
C100	C	2.018432	1.639110	0.196717
C101	C	1.518506	1.069142	-0.303333
C102	C	2.018506	1.569142	0.196667
C103	C	1.585623	0.263021	-0.570269
C104	C	2.085623	0.763021	-0.070269
C105	C	1.585621	0.262994	-0.636012
C106	C	2.085621	0.762994	-0.136012
C107	C	1.518397	0.303238	-0.668871
C108	C	2.018397	0.803238	-0.168871
C109	C	1.451149	0.343501	-0.635983
C110	C	1.951149	0.843501	-0.135983
C111	C	1.451145	0.343523	-0.570242
C112	C	1.951145	0.843523	-0.070242
N113	N	1.510291	0.358306	-0.772089
N114	N	2.010291	0.858306	-0.272089
N115	N	1.510301	0.358283	-0.834541
N116	N	2.010301	0.858283	-0.334541
C117	C	1.518403	0.303174	-0.866946
C118	C	2.018403	0.803174	-0.366946
N119	N	1.526516	0.248087	-0.834541
N120	N	2.026516	0.748087	-0.334541
N121	N	1.526511	0.248110	-0.772084
N122	N	2.026511	0.748110	-0.272084
C123	C	1.518393	0.303219	-0.740157
C124	C	2.018393	0.803219	-0.240157
C125	C	1.585639	0.262881	-0.971112
C126	C	2.085639	0.762881	-0.471112
C127	C	1.585631	0.262853	-1.036856
C128	C	2.085631	0.762853	-0.536856
C129	C	1.451164	0.343366	-1.036826
C130	C	1.951164	0.843366	-0.536826
C131	C	1.451168	0.343388	-0.971084
C132	C	1.951168	0.843388	-0.471084
C133	C	1.518411	0.303147	-0.938231
C134	C	2.018411	0.803147	-0.438231
C135	C	1.518238	0.303268	-0.139679
C136	C	2.018238	0.803268	0.360321
C137	C	1.518404	0.303096	-0.069711
C138	C	2.018404	0.803096	0.430289
H139	H	1.118357	0.457089	-0.456502
H140	H	1.618357	0.957089	0.043498
O141	O	1.132825	0.219489	-0.219710
O142	O	1.632825	0.719489	0.280290
H143	H	1.218338	0.226251	-0.226465
H144	H	1.718338	0.726251	0.273535
H145	H	0.919252	0.230166	-0.230343
H146	H	1.419252	0.730166	0.269657
O147	O	1.378765	1.071750	-0.386938
O148	O	1.878765	1.571750	0.113062
H149	H	1.425777	1.101663	-0.418993
H150	H	1.925777	1.601663	0.081007
H151	H	1.640369	0.230206	-0.662788
H152	H	2.140369	0.730206	-0.162788
H153	H	0.819736	0.383961	-0.383625
H154	H	1.319736	0.883961	0.116375
H155	H	1.217872	0.383940	-0.383595
H156	H	1.717872	0.883940	0.116405
O157	O	1.378519	0.670909	-0.386853
O158	O	1.878519	1.170909	0.113147
H159	H	1.296066	0.658333	-0.376015
H160	H	1.796066	1.158333	0.123985
O161	O	1.658143	0.219614	-0.534838
O162	O	2.158143	0.719614	-0.034838
H163	H	1.646854	0.226395	-0.483599
H164	H	2.146854	0.726395	0.016401
H165	H	1.396412	0.376266	-0.662742
H166	H	1.896412	0.876266	-0.162742
H167	H	1.396425	0.376176	-0.944313
H168	H	1.896425	0.876176	-0.444313
H169	H	1.396461	0.943793	-0.376280
H170	H	1.896461	1.443793	0.123720
O171	O	1.378603	0.386934	-0.534772
O172	O	1.878603	0.886934	-0.034772
H173	H	1.331847	0.414911	-0.568663
H174	H	1.831847	0.914911	-0.068663
O175	O	1.658153	0.219478	-0.935668
O176	O	2.158153	0.719478	-0.435668
H177	H	1.640176	0.170066	-0.948274
H178	H	2.140176	0.670066	-0.448274
O179	O	0.904781	0.467833	-0.467067
O180	O	1.404781	0.967833	0.032933
H181	H	0.961367	0.495893	-0.494975
H182	H	1.461367	0.995893	0.005025
H183	H	1.640120	0.542902	-0.230233
H184	H	2.140120	1.042902	0.269767
O185	O	1.658169	0.935047	-0.219705
O186	O	2.158169	1.435047	0.280295
H187	H	1.646844	0.883813	-0.226450
H188	H	2.146844	1.383813	0.273550
H189	H	1.640204	0.662168	-0.230263
H190	H	2.140204	1.162168	0.269737
O191	O	1.658153	0.219428	-1.072325
O192	O	2.158153	0.719428	-0.572325
H193	H	1.704914	0.191456	-1.038432
H194	H	2.204914	0.691456	-0.538432
O195	O	1.378426	0.534262	-0.386816
O196	O	1.878426	1.034262	0.113184
H197	H	1.331693	0.568173	-0.414788
H198	H	1.831693	1.068173	0.085212
H199	H	1.640467	1.063005	-0.230357
H200	H	2.140467	1.563005	0.269643
O201	O	1.378653	0.386774	-1.072257
O202	O	1.878653	0.886774	-0.572257
H203	H	1.389953	0.379998	-1.123496
H204	H	1.889953	0.879998	-0.623496
