data_functionalizedCrystal
_audit_creation_method	'MofGen! by Chris Wilmer'
_symmetry_space_group_name_H-M	'P1'
_symmetry_Int_Tables_number	1
_symmetry_cell_setting	triclinic
loop_
_symmetry_equiv_pos_as_xyz
  x,y,z
_cell_length_a	8.559649
_cell_length_b	15.995350
_cell_length_c	7.681481
_cell_angle_alpha	84.260013
_cell_angle_beta	94.913240
_cell_angle_gamma	76.635520
loop_
_atom_site_label
_atom_site_type_symbol
_atom_site_fract_x
_atom_site_fract_y
_atom_site_fract_z
O1	O	2.105023	-0.019508	-0.146402
O2	O	1.639818	0.023734	-0.146408
O3	O	1.885137	-0.120592	-0.146403
O4	O	1.859704	0.124818	-0.146407
O5	O	1.915332	-0.138392	0.146455
O6	O	1.670013	0.005934	0.146450
O7	O	2.135218	-0.037308	0.146457
Zn8	Zn	1.907409	-0.018513	0.192951
Zn9	Zn	1.867627	0.004939	-0.192902
O10	O	1.889898	0.107018	0.146452
C11	C	1.595386	0.018111	0.000020
C12	C	1.418005	0.027866	0.000017
C13	C	1.899183	-0.160619	0.000023
C14	C	1.896030	-0.253366	0.000013
C15	C	1.884710	-0.590386	0.000019
C16	C	1.709930	-0.531678	-0.000641
C17	C	1.713151	-0.435230	0.000019
C18	C	1.890325	-0.423187	0.000015
C19	C	1.993741	-0.479970	0.167249
C20	C	1.989366	-0.576332	0.167389
C21	C	1.958639	-0.556680	-0.165646
C22	C	1.958369	-0.459598	-0.167856
C23	C	1.893508	-0.328694	0.000018
C24	C	1.881533	-0.684880	0.000027
C25	C	2.179650	-0.031685	0.000025
C26	C	2.357029	-0.041439	0.000016
C27	C	1.875853	0.147046	0.000022
C28	C	1.879005	0.239793	0.000020
N29	N	1.934572	-0.034520	0.456286
N30	N	1.840477	0.020939	-0.456237
H31	H	1.627735	-0.538430	-0.120568
H32	H	2.124547	-0.474592	0.173465
H33	H	1.939418	-0.598191	0.292403
H34	H	1.334498	0.094668	0.000007
H35	H	2.087336	-0.596656	-0.166773
H36	H	1.440525	-0.108235	0.000008
H37	H	1.633053	-0.395166	-0.119861
H38	H	1.652706	-0.554050	0.118616
N39	N	1.865678	-0.568817	-0.333553
H40	H	1.774690	-0.596293	-0.303925
H41	H	1.819706	-0.510676	-0.406122
N42	N	1.713221	0.095917	0.444176
H43	H	1.735048	0.152207	0.476161
H44	H	1.716354	0.094018	0.313471
N45	N	1.858115	-0.408119	-0.331731
H46	H	1.862292	-0.345396	-0.335072
H47	H	1.902505	-0.431902	-0.439179
N48	N	1.639235	-0.402171	0.159084
H49	H	1.604438	-0.450269	0.229052
H50	H	1.721651	-0.381741	0.235149
N51	N	2.160301	-0.630593	0.177448
H52	H	2.238159	-0.591867	0.181780
H53	H	2.184390	-0.673963	0.287062
N54	N	1.931490	-0.447295	0.332112
H55	H	1.836355	-0.395746	0.298852
H56	H	1.896468	-0.494786	0.403798
N57	N	2.128136	-0.449448	-0.181249
H58	H	2.163504	-0.420979	-0.078224
H59	H	2.203653	-0.508320	-0.179815
N60	N	2.061833	-0.109501	0.555888
H61	H	2.058760	-0.107680	0.686625
H62	H	2.039932	-0.165751	0.523763
