data_functionalizedCrystal
_audit_creation_method	'MofGen! by Chris Wilmer'
_symmetry_space_group_name_H-M	'P1'
_symmetry_Int_Tables_number	1
_symmetry_cell_setting	triclinic
loop_
_symmetry_equiv_pos_as_xyz
  x,y,z
_cell_length_a	19.188930
_cell_length_b	19.188905
_cell_length_c	9.730223
_cell_angle_alpha	89.989905
_cell_angle_beta	89.992125
_cell_angle_gamma	83.139668
loop_
_atom_site_label
_atom_site_type_symbol
_atom_site_fract_x
_atom_site_fract_y
_atom_site_fract_z
O1	O	0.087083	0.926155	-0.114532
O2	O	0.587083	1.426155	0.385468
O3	O	0.098835	0.722841	-0.114487
O4	O	0.598835	1.222841	0.385513
O5	O	-0.008697	0.830365	-0.114484
O6	O	0.491303	1.330365	0.385516
O7	O	0.194615	0.818631	-0.114535
O8	O	0.694615	1.318631	0.385465
O9	O	-0.008697	0.830358	0.114096
O10	O	0.491303	1.330358	0.614096
O11	O	0.098835	0.722834	0.114093
O12	O	0.598835	1.222834	0.614093
O13	O	0.087083	0.926148	0.114048
O14	O	0.587083	1.426148	0.614048
Zn15	Zn	0.092959	0.824490	0.150363
Zn16	Zn	0.592959	1.324490	0.650363
Zn17	Zn	0.092959	0.824499	-0.150801
Zn18	Zn	0.592959	1.324499	0.349199
O19	O	0.194615	0.818624	0.114045
O20	O	0.694615	1.318624	0.614045
C21	C	0.098458	0.696826	-0.000191
C22	C	0.598458	1.196826	0.499809
C23	C	0.097324	0.619321	-0.000172
C24	C	0.597324	1.119321	0.499828
C25	C	0.096779	0.582933	-0.124775
C26	C	0.596779	1.082933	0.375225
C27	C	0.095706	0.510109	-0.124792
C28	C	0.595706	1.010109	0.375208
C29	C	0.095164	0.473678	-0.000199
C30	C	0.595164	0.973678	0.499801
C31	C	0.095713	0.510075	0.124420
C32	C	0.595713	1.010075	0.624420
C33	C	0.096793	0.582896	0.124433
C34	C	0.596793	1.082896	0.624433
N35	N	0.053735	0.364655	0.092534
N36	N	0.553735	0.864655	0.592534
N37	N	0.052708	0.295478	0.092513
N38	N	0.552708	0.795478	0.592513
C39	C	0.091911	0.254272	-0.000231
C40	C	0.591911	0.754272	0.499769
N41	N	0.132172	0.284856	-0.092974
N42	N	0.632172	0.784856	0.407026
N43	N	0.133196	0.354040	-0.092957
N44	N	0.633196	0.854040	0.407043
C45	C	0.093993	0.394716	-0.000199
C46	C	0.593993	0.894716	0.499801
C47	C	0.090204	0.138920	-0.124861
C48	C	0.590204	0.638920	0.375139
C49	C	0.089135	0.066094	-0.124872
C50	C	0.589135	0.566094	0.375128
C51	C	0.089135	0.066062	0.124343
C52	C	0.589135	0.566062	0.624343
C53	C	0.090210	0.138885	0.124351
C54	C	0.590210	0.638885	0.624351
C55	C	0.090742	0.175310	-0.000255
C56	C	0.590742	0.675310	0.499745
C57	C	-0.034708	0.829982	-0.000190
C58	C	0.465292	1.329982	0.499810
C59	C	-0.112213	0.828841	-0.000178
C60	C	0.387787	1.328841	0.499822
C61	C	-0.157142	0.891933	-0.000185
C62	C	0.342858	1.391933	0.499815
C63	C	-0.229966	0.890861	-0.000207
C64	C	0.270034	1.390861	0.499793
C65	C	-0.257857	0.826694	-0.000194
C66	C	0.242143	1.326694	0.499806
C67	C	-0.212917	0.763594	-0.000194
C68	C	0.287083	1.263594	0.499806
C69	C	-0.140095	0.764668	-0.000186
C70	C	0.359905	1.264668	0.499814
N71	N	-0.365857	0.777644	0.077607
N72	N	0.134143	1.277644	0.577607
N73	N	-0.435036	0.776628	0.077603
N74	N	0.064964	1.276628	0.577603
C75	C	-0.477265	0.823456	-0.000221
C76	C	0.022735	1.323456	0.499779
N77	N	-0.447704	0.871348	-0.078022
N78	N	0.052296	1.371348	0.421978
N79	N	-0.378519	0.872365	-0.078011
N80	N	0.121481	1.372365	0.421989
C81	C	-0.336819	0.825523	-0.000203
C82	C	0.163181	1.325523	0.499797
C83	C	-0.601159	0.885390	-0.000254
C84	C	-0.101159	1.385390	0.499746
C85	C	-0.673984	0.884315	-0.000284
C86	C	-0.173984	1.384315	0.499716
C87	C	-0.656933	0.757047	-0.000257
C88	C	-0.156933	1.257047	0.499743
C89	C	-0.584110	0.758123	-0.000241
C90	C	-0.084110	1.258123	0.499759
C91	C	-0.556228	0.822296	-0.000232
C92	C	-0.056228	1.322296	0.499768
C93	C	0.220626	0.819007	-0.000252
C94	C	0.720626	1.319007	0.499748
C95	C	0.298131	0.820148	-0.000273
C96	C	0.798131	1.320148	0.499727
C97	C	0.087460	0.952163	-0.000251
C98	C	0.587460	1.452163	0.499749
C99	C	0.088594	1.029668	-0.000278
C100	C	0.588594	1.529668	0.499722
N101	N	0.092959	0.824489	0.355899
N102	N	0.592959	1.324489	0.855899
N103	N	0.092953	0.824505	-0.356338
N104	N	0.592953	1.324505	0.143662
C105	C	0.045355	0.872122	0.571711
C106	C	0.545355	1.372122	1.071711
C107	C	0.045359	0.872116	0.427828
C108	C	0.545359	1.372116	0.927828
C109	C	0.140562	0.776871	0.427861
C110	C	0.640562	1.276871	0.927861
C111	C	0.140561	0.776881	0.571741
C112	C	0.640561	1.276881	1.071741
C113	C	-0.002253	0.919746	0.643632
C114	C	0.497747	1.419746	1.143632
C115	C	-0.049855	0.967366	0.571679
C116	C	0.450145	1.467366	1.071679
C117	C	-0.049851	0.967360	0.427797
C118	C	0.450149	1.467360	0.927797
C119	C	-0.002244	0.919734	0.355866
C120	C	0.497756	1.419734	0.855866
H121	H	0.090649	0.168513	0.225816
H122	H	0.590649	0.668513	0.725816
H123	H	-0.266555	0.942239	-0.000218
H124	H	0.233445	1.442239	0.499782
H125	H	-0.578456	0.937644	-0.000253
H126	H	-0.078456	1.437644	0.499747
F127	F	-0.536291	0.690971	-0.000227
F128	F	-0.036291	1.190971	0.499773
F129	F	-0.686612	0.688755	-0.000250
F130	F	-0.186612	1.188755	0.499750
F131	F	-0.002263	0.919754	0.796764
F132	F	0.497737	1.419754	1.296764
H133	H	0.090644	0.168577	-0.226322
H134	H	0.590644	0.668577	0.273678
H135	H	-0.134445	0.944187	-0.000183
H136	H	0.365555	1.444187	0.499817
H137	H	-0.235631	0.711349	-0.000186
H138	H	0.264369	1.211349	0.499814
F139	F	0.095126	0.471374	-0.257416
F140	F	0.595126	0.971374	0.242584
F141	F	-0.002237	0.919737	0.202731
F142	F	0.497763	1.419737	0.702731
F143	F	-0.721802	0.951470	-0.000301
F144	F	-0.221802	1.451470	0.499699
F145	F	-0.100514	1.018055	0.648234
F146	F	0.399486	1.518055	1.148234
F147	F	0.191223	0.726203	0.648319
F148	F	0.691223	1.226203	1.148319
F149	F	0.095139	0.471301	0.257020
F150	F	0.595139	0.971301	0.757020
F151	F	0.191224	0.726186	0.351304
F152	F	0.691224	1.226186	0.851304
H153	H	0.097237	0.612523	0.225903
H154	H	0.597237	1.112523	0.725903
F155	F	0.088561	0.027366	-0.257499
F156	F	0.588561	0.527366	0.242501
H157	H	-0.088606	1.006138	0.369215
H158	H	0.411394	1.506138	0.869215
H159	H	0.097212	0.612585	-0.226239
H160	H	0.597212	1.112585	0.273761
H161	H	0.088697	0.036400	0.225789
H162	H	0.588697	0.536400	0.725789
H163	H	-0.103513	0.713289	-0.000179
H164	H	0.396487	1.213289	0.499821
