data_functionalizedCrystal
_audit_creation_method	'MofGen! by Chris Wilmer'
_symmetry_space_group_name_H-M	'P1'
_symmetry_Int_Tables_number	1
_symmetry_cell_setting	triclinic
loop_
_symmetry_equiv_pos_as_xyz
  x,y,z
_cell_length_a	25.639240
_cell_length_b	25.639242
_cell_length_c	25.639234
_cell_angle_alpha	89.986377
_cell_angle_beta	90.016087
_cell_angle_gamma	89.977011
loop_
_atom_site_label
_atom_site_type_symbol
_atom_site_fract_x
_atom_site_fract_y
_atom_site_fract_z
Zn1	Zn	-0.208329	-0.799237	0.295675
Zn2	Zn	0.125005	-0.465903	0.629008
Zn3	Zn	0.458338	-0.132570	0.962341
Zn4	Zn	-0.295751	-0.799174	0.208247
Zn5	Zn	0.037582	-0.465841	0.541580
Zn6	Zn	0.370916	-0.132507	0.874913
Zn7	Zn	-0.208318	-0.711817	0.208248
Zn8	Zn	0.125016	-0.378483	0.541582
Zn9	Zn	0.458349	-0.045150	0.874915
Zn10	Zn	-0.295721	-0.711768	0.295646
Zn11	Zn	0.037612	-0.378435	0.628979
Zn12	Zn	0.370946	-0.045102	0.962313
O13	O	-0.252030	-0.755499	0.251954
O14	O	0.081304	-0.422166	0.585287
O15	O	0.414637	-0.088832	0.918621
O16	O	-0.219943	-0.872394	0.284089
O17	O	0.113391	-0.539060	0.617422
O18	O	0.446724	-0.205727	0.950755
O19	O	-0.284161	-0.787580	0.135082
O20	O	0.049173	-0.454246	0.468415
O21	O	0.382506	-0.120913	0.801748
O22	O	-0.135154	-0.723460	0.219858
O23	O	0.198179	-0.390126	0.553192
O24	O	0.531513	-0.056793	0.886525
O25	O	-0.284172	-0.872347	0.219856
O26	O	0.049162	-0.539014	0.553189
O27	O	0.382495	-0.205681	0.886522
O28	O	-0.135162	-0.787687	0.284090
O29	O	0.198171	-0.454353	0.617423
O30	O	0.531505	-0.121020	0.950757
O31	O	-0.219924	-0.723399	0.135083
O32	O	0.113409	-0.390065	0.468416
O33	O	0.446743	-0.056732	0.801750
O34	O	-0.219895	-0.638645	0.219830
O35	O	0.113439	-0.305312	0.553164
O36	O	0.446772	0.028022	0.886497
O37	O	-0.284120	-0.723377	0.368815
O38	O	0.049213	-0.390044	0.702148
O39	O	0.382546	-0.056710	1.035482
O40	O	-0.284110	-0.638609	0.284041
O41	O	0.049224	-0.305276	0.617374
O42	O	0.382557	0.028057	0.950708
O43	O	-0.219914	-0.787640	0.368836
O44	O	0.113420	-0.454306	0.702170
O45	O	0.446753	-0.120973	1.035503
O46	O	-0.368912	-0.787533	0.219828
O47	O	-0.035579	-0.454200	0.553161
O48	O	0.297754	-0.120866	0.886495
O49	O	-0.368890	-0.723316	0.284040
O50	O	-0.035557	-0.389983	0.617373
O51	O	0.297776	-0.056650	0.950706
C52	C	-0.387872	-0.755427	0.251942
C53	C	-0.054539	-0.422093	0.585275
C54	C	0.278794	-0.088760	0.918609
C55	C	-0.445986	-0.755444	0.251954
C56	C	-0.112653	-0.422110	0.585288
C57	C	0.220680	-0.088777	0.918621
C58	C	-0.251998	-0.619656	0.251933
C59	C	0.081335	-0.286323	0.585266
C60	C	0.414669	0.047010	0.918600
C61	C	-0.251997	-0.561542	0.251937
C62	C	0.081336	-0.228209	0.585270
C63	C	0.414669	0.105124	0.918603
C64	C	-0.252015	-0.755510	0.388327
C65	C	0.081318	-0.422177	0.721660
C66	C	0.414652	-0.088843	1.054994
C67	C	-0.252009	-0.755515	0.446441
C68	C	0.081325	-0.422181	0.779774
C69	C	0.414658	-0.088848	1.113108
C70	C	-0.697133	-0.788939	0.285434
C71	C	-0.363799	-0.455606	0.618767
C72	C	-0.030466	-0.122272	0.952100
C73	C	-0.642528	-0.788923	0.285430
C74	C	-0.309195	-0.455590	0.618763
C75	C	0.024138	-0.122257	0.952096
O76	O	-0.614252	-0.817342	0.313878
O77	O	-0.280918	-0.484009	0.647211
O78	O	0.052415	-0.150675	0.980544
N79	N	-0.615260	-0.755501	0.251961
N80	N	-0.281927	-0.422167	0.585294
N81	N	0.051407	-0.088834	0.918627
C82	C	-0.642599	-0.722096	0.218490
C83	C	-0.309266	-0.388762	0.551823
C84	C	0.024068	-0.055429	0.885157
O85	O	-0.614391	-0.693666	0.190021
O86	O	-0.281058	-0.360333	0.523355
O87	O	0.052275	-0.027000	0.856688
C88	C	-0.697202	-0.722114	0.218492
C89	C	-0.363869	-0.388781	0.551825
C90	C	-0.030536	-0.055448	0.885158
C91	C	-0.724468	-0.755535	0.251966
C92	C	-0.391134	-0.422202	0.585300
C93	C	-0.057801	-0.088869	0.918633
C94	C	-0.724398	-0.822358	0.318905
C95	C	-0.391065	-0.489024	0.652239
C96	C	-0.057731	-0.155691	0.985572
C97	C	-0.778999	-0.822372	0.318910
C98	C	-0.445665	-0.489039	0.652243
C99	C	-0.112332	-0.155706	0.985577
C100	C	-0.806334	-0.788969	0.285443
C101	C	-0.473000	-0.455635	0.618776
C102	C	-0.139667	-0.122302	0.952109
C103	C	-0.779068	-0.755550	0.251971
C104	C	-0.445735	-0.422217	0.585304
C105	C	-0.112402	-0.088883	0.918638
C106	C	-0.724540	-0.688712	0.185018
C107	C	-0.391207	-0.355379	0.518352
C108	C	-0.057874	-0.022046	0.851685
C109	C	-0.779147	-0.688734	0.185023
C110	C	-0.445814	-0.355401	0.518356
C111	C	-0.112481	-0.022068	0.851689
C112	C	-0.806413	-0.722155	0.218498
C113	C	-0.473079	-0.388822	0.551831
C114	C	-0.139746	-0.055488	0.885164
C115	C	-0.861004	-0.722161	0.218508
C116	C	-0.527671	-0.388828	0.551842
C117	C	-0.194337	-0.055495	0.885175
N118	N	-0.888272	-0.755584	0.251977
N119	N	-0.554939	-0.422250	0.585311
N120	N	-0.221605	-0.088917	0.918644
C121	C	-0.860937	-0.788987	0.285444
C122	C	-0.527604	-0.455654	0.618778
C123	C	-0.194270	-0.122321	0.952111
C124	C	-0.527928	-0.722060	0.218488
C125	C	-0.194595	-0.388726	0.551822
C126	C	0.138738	-0.055393	0.885155
C127	C	-0.473326	-0.722038	0.218489
C128	C	-0.139993	-0.388704	0.551822
C129	C	0.193341	-0.055371	0.885155
C130	C	-0.473259	-0.788866	0.285428
C131	C	-0.139926	-0.455533	0.618761
C132	C	0.193407	-0.122199	0.952095
C133	C	-0.527863	-0.788885	0.285430
C134	C	-0.194529	-0.455552	0.618763
C135	C	0.138804	-0.122218	0.952096
C136	C	-0.555197	-0.755482	0.251957
C137	C	-0.221863	-0.422149	0.585290
C138	C	0.111470	-0.088815	0.918624
C139	C	-0.975602	-0.789016	0.285452
C140	C	-0.642269	-0.455683	0.618785
C141	C	-0.308935	-0.122349	0.952118
C142	C	-1.030208	-0.789026	0.285455
C143	C	-0.696874	-0.455693	0.618788
C144	C	-0.363541	-0.122360	0.952121
C145	C	-1.030270	-0.722200	0.218514
C146	C	-0.696936	-0.388867	0.551847
C147	C	-0.363603	-0.055533	0.885180
C148	C	-0.975669	-0.722187	0.218512
C149	C	-0.642336	-0.388854	0.551846
C150	C	-0.309002	-0.055521	0.885179
C151	C	-0.948337	-0.755600	0.251983
C152	C	-0.615003	-0.422266	0.585316
C153	C	-0.281670	-0.088933	0.918650
O154	O	-0.889315	-0.693759	0.190073
O155	O	-0.555982	-0.360425	0.523407
O156	O	-0.222649	-0.027092	0.856740
O157	O	-0.889151	-0.817417	0.313903
O158	O	-0.555818	-0.484084	0.647237
O159	O	-0.222485	-0.150750	0.980570
C160	C	-0.115657	-0.755586	0.251978
C161	C	0.217677	-0.422252	0.585311
C162	C	0.551010	-0.088919	0.918644
C163	C	-0.057543	-0.755623	0.251988
C164	C	0.275791	-0.422289	0.585321
C165	C	0.609124	-0.088956	0.918654
C166	C	-0.218634	-0.310381	0.285448
C167	C	0.114699	0.022952	0.618781
C168	C	0.448032	0.356286	0.952115
C169	C	-0.218631	-0.364985	0.285447
C170	C	0.114703	-0.031652	0.618780
C171	C	0.448036	0.301681	0.952113
O172	O	-0.190247	-0.393249	0.313943
O173	O	0.143086	-0.059916	0.647276
O174	O	0.476419	0.273418	0.980609
N175	N	-0.252015	-0.392268	0.251949
N176	N	0.081318	-0.058935	0.585283
N177	N	0.414652	0.274398	0.918616
C178	C	-0.285409	-0.364944	0.218455
C179	C	0.047924	-0.031611	0.551788
C180	C	0.381258	0.301722	0.885122
O181	O	-0.313805	-0.393165	0.189963
O182	O	0.019528	-0.059832	0.523296
O183	O	0.352862	0.273502	0.856630
C184	C	-0.285415	-0.310341	0.218459
C185	C	0.047918	0.022992	0.551793
C186	C	0.381252	0.356326	0.885126
C187	C	-0.252025	-0.283061	0.251955
C188	C	0.081308	0.050273	0.585288
C189	C	0.414642	0.383606	0.918622
C190	C	-0.185247	-0.283100	0.318942
C191	C	0.148086	0.050233	0.652275
C192	C	0.481419	0.383566	0.985608
C193	C	-0.185251	-0.228500	0.318942
C194	C	0.148083	0.104833	0.652276
C195	C	0.481416	0.438167	0.985609
C196	C	-0.218641	-0.201180	0.285449
C197	C	0.114692	0.132154	0.618783
C198	C	0.448026	0.465487	0.952116
C199	C	-0.252028	-0.228460	0.251956
C200	C	0.081305	0.104873	0.585289
C201	C	0.414639	0.438206	0.918622
C202	C	-0.318811	-0.283018	0.184968
C203	C	0.014522	0.050315	0.518301
C204	C	0.347855	0.383648	0.851635
C205	C	-0.318815	-0.228411	0.184975
C206	C	0.014518	0.104922	0.518309
C207	C	0.347852	0.438256	0.851642
C208	C	-0.285425	-0.201131	0.218471
C209	C	0.047909	0.132203	0.551805
C210	C	0.381242	0.465536	0.885138
C211	C	-0.285422	-0.146540	0.218463
C212	C	0.047912	0.186794	0.551797
C213	C	0.381245	0.520127	0.885130
N214	N	-0.252038	-0.119256	0.251961
N215	N	0.081296	0.214077	0.585294
N216	N	0.414629	0.547410	0.918627
C217	C	-0.218647	-0.146576	0.285454
C218	C	0.114686	0.186757	0.618787
C219	C	0.448020	0.520090	0.952120
C220	C	-0.285394	-0.479615	0.218449
C221	C	0.047939	-0.146282	0.551782
C222	C	0.381272	0.187052	0.885116
C223	C	-0.285386	-0.534217	0.218441
C224	C	0.047947	-0.200884	0.551775
C225	C	0.381281	0.132449	0.885108
C226	C	-0.218608	-0.534254	0.285434
C227	C	0.114725	-0.200921	0.618767
C228	C	0.448059	0.132412	0.952101
C229	C	-0.218614	-0.479651	0.285438
C230	C	0.114719	-0.146318	0.618772
C231	C	0.448052	0.187016	0.952105
C232	C	-0.252010	-0.452332	0.251946
C233	C	0.081323	-0.118999	0.585280
C234	C	0.414657	0.214335	0.918613
C235	C	-0.218656	-0.031911	0.285452
C236	C	0.114677	0.301422	0.618785
C237	C	0.448010	0.634755	0.952119
C238	C	-0.218661	0.022694	0.285448
C239	C	0.114672	0.356027	0.618781
C240	C	0.448006	0.689361	0.952115
C241	C	-0.285440	0.022726	0.218458
C242	C	0.047893	0.356060	0.551791
C243	C	0.381226	0.689393	0.885124
C244	C	-0.285434	-0.031874	0.218459
C245	C	0.047899	0.301459	0.551793
C246	C	0.381233	0.634792	0.885126
C247	C	-0.252040	-0.059192	0.251961
C248	C	0.081293	0.274141	0.585294
C249	C	0.414626	0.607475	0.918627
O250	O	-0.313792	-0.118241	0.189983
O251	O	0.019541	0.215092	0.523317
O252	O	0.352875	0.548426	0.856650
O253	O	-0.190261	-0.118349	0.313946
O254	O	0.143073	0.214984	0.647279
O255	O	0.476406	0.548317	0.980612
C256	C	-0.252056	0.108128	0.251968
C257	C	0.081278	0.441461	0.585301
C258	C	0.414611	0.774795	0.918635
C259	C	-0.252051	0.050014	0.251955
C260	C	0.081282	0.383347	0.585288
C261	C	0.414615	0.716681	0.918622
C262	C	-0.252007	-0.755518	0.116111
C263	C	0.081327	-0.422185	0.449445
C264	C	0.414660	-0.088851	0.782778
C265	C	-0.251866	-0.755614	0.057998
C266	C	0.081468	-0.422281	0.391331
C267	C	0.414801	-0.088948	0.724664
C268	C	-0.285375	-0.722088	0.697618
C269	C	0.047958	-0.388755	1.030951
C270	C	0.381291	-0.055421	1.364285
C271	C	-0.285387	-0.722079	0.643014
C272	C	0.047946	-0.388746	0.976347
C273	C	0.381280	-0.055412	1.309680
O274	O	-0.313809	-0.693608	0.614763
O275	O	0.019524	-0.360275	0.948096
O276	O	0.352858	-0.026942	1.281429
N277	N	-0.251966	-0.755535	0.615715
N278	N	0.081367	-0.422201	0.949048
N279	N	0.414700	-0.088868	1.282382
C280	C	-0.218528	-0.788998	0.643024
C281	C	0.114805	-0.455665	0.976357
C282	C	0.448139	-0.122331	1.309690
O283	O	-0.190102	-0.817454	0.614790
O284	O	0.143232	-0.484120	0.948123
O285	O	0.476565	-0.150787	1.281457
C286	C	-0.218514	-0.789004	0.697627
C287	C	0.114819	-0.455671	1.030960
C288	C	0.448153	-0.122338	1.364294
C289	C	-0.251941	-0.755550	0.724923
C290	C	0.081393	-0.422217	1.058256
C291	C	0.414726	-0.088883	1.391589
C292	C	-0.318799	-0.688636	0.724914
C293	C	0.014534	-0.355303	1.058247
C294	C	0.347868	-0.021969	1.391580
C295	C	-0.318788	-0.688646	0.779514
C296	C	0.014546	-0.355313	1.112848
C297	C	0.347879	-0.021979	1.446181
C298	C	-0.285353	-0.722108	0.806819
C299	C	0.047980	-0.388775	1.140152
C300	C	0.381314	-0.055441	1.473486
C301	C	-0.251929	-0.755560	0.779523
C302	C	0.081404	-0.422227	1.112857
C303	C	0.414737	-0.088893	1.446190
C304	C	-0.185073	-0.822465	0.724935
C305	C	0.148260	-0.489131	1.058268
C306	C	0.481593	-0.155798	1.391601
C307	C	-0.185062	-0.822468	0.779542
C308	C	0.148272	-0.489134	1.112875
C309	C	0.481605	-0.155801	1.446208
C310	C	-0.218488	-0.789013	0.806837
C311	C	0.114845	-0.455680	1.140171
C312	C	0.448178	-0.122347	1.473504
C313	C	-0.218483	-0.789032	0.861429
C314	C	0.114850	-0.455699	1.194762
C315	C	0.448183	-0.122365	1.528095
N316	N	-0.251904	-0.755576	0.888727
N317	N	0.081429	-0.422243	1.222061
N318	N	0.414763	-0.088909	1.555394
C319	C	-0.285339	-0.722114	0.861422
C320	C	0.047994	-0.388781	1.194756
C321	C	0.381328	-0.055448	1.528089
C322	C	-0.218559	-0.788982	0.528353
C323	C	0.114774	-0.455649	0.861686
C324	C	0.448107	-0.122315	1.195020
C325	C	-0.218576	-0.788979	0.473751
C326	C	0.114758	-0.455646	0.807084
C327	C	0.448091	-0.122312	1.140417
C328	C	-0.285434	-0.722059	0.473744
C329	C	0.047899	-0.388726	0.807078
C330	C	0.381233	-0.055392	1.140411
C331	C	-0.285420	-0.722065	0.528348
C332	C	0.047913	-0.388732	0.861681
C333	C	0.381247	-0.055398	1.195014
C334	C	-0.251980	-0.755526	0.555652
C335	C	0.081353	-0.422193	0.888985
C336	C	0.414687	-0.088860	1.222318
C337	C	-0.285313	-0.722138	0.976088
C338	C	0.048020	-0.388805	1.309421
C339	C	0.381354	-0.055471	1.642754
C340	C	-0.285300	-0.722153	1.030693
C341	C	0.048033	-0.388819	1.364026
C342	C	0.381366	-0.055486	1.697360
C343	C	-0.218440	-0.789070	1.030694
C344	C	0.114893	-0.455737	1.364028
C345	C	0.448227	-0.122404	1.697361
C346	C	-0.218454	-0.789058	0.976094
C347	C	0.114879	-0.455725	1.309427
C348	C	0.448212	-0.122391	1.642761
C349	C	-0.251893	-0.755588	0.948792
C350	C	0.081441	-0.422254	1.282125
C351	C	0.414774	-0.088921	1.615458
O352	O	-0.190075	-0.817487	0.889714
O353	O	0.143259	-0.484153	1.223048
O354	O	0.476592	-0.150820	1.556381
O355	O	-0.313755	-0.693659	0.889663
O356	O	0.019578	-0.360325	1.222996
O357	O	0.352911	-0.026992	1.556329
H358	H	-0.953354	-0.816224	0.312706
H359	H	-0.620021	-0.482890	0.646039
H360	H	-0.286688	-0.149557	0.979373
H361	H	-0.312624	0.044980	0.191186
H362	H	0.020709	0.378313	0.524520
H363	H	0.354043	0.711647	0.857853
H364	H	-0.191424	-0.457443	0.312713
H365	H	0.141909	-0.124110	0.646047
H366	H	0.475242	0.209224	0.979380
H367	H	-0.312537	-0.694879	0.953865
H368	H	0.020796	-0.361545	1.287198
H369	H	0.354130	-0.028212	1.620531
H370	H	-0.346012	-0.206171	0.157703
H371	H	-0.012679	0.127163	0.491036
H372	H	0.320655	0.460496	0.824370
H373	H	-0.312658	-0.694811	0.451503
H374	H	0.020676	-0.361478	0.784836
H375	H	0.354009	-0.028145	1.118170
N376	N	-0.182594	-0.563726	0.321562
N377	N	0.150739	-0.230393	0.654895
N378	N	0.484072	0.102940	0.988228
H379	H	-0.187662	-0.602456	0.316475
H380	H	0.145672	-0.269123	0.649808
H381	H	0.479005	0.064211	0.983142
H382	H	-0.190789	-0.554192	0.358889
H383	H	0.142544	-0.220858	0.692222
H384	H	0.475878	0.112475	1.025555
H385	H	-0.191464	-0.054147	0.312732
H386	H	0.141870	0.279187	0.646065
H387	H	0.475203	0.612520	0.979398
H388	H	-0.191220	-0.816316	1.052936
H389	H	0.142113	-0.482983	1.386269
H390	H	0.475447	-0.149649	1.719603
N391	N	-0.557260	-0.824937	0.321535
N392	N	-0.223927	-0.491604	0.654868
N393	N	0.109407	-0.158270	0.988201
H394	H	-0.579903	-0.849194	0.300315
H395	H	-0.246569	-0.515861	0.633648
H396	H	0.086764	-0.182527	0.966982
H397	H	-0.579893	-0.803646	0.345741
H398	H	-0.246560	-0.470313	0.679074
H399	H	0.086774	-0.136979	1.012408
H400	H	-0.801193	-0.849591	0.346165
H401	H	-0.467860	-0.516258	0.679498
H402	H	-0.134527	-0.182924	1.012831
N403	N	-0.321347	-0.686064	1.060137
N404	N	0.011986	-0.352730	1.393470
N405	N	0.345319	-0.019397	1.726803
H406	H	-0.345579	-0.707297	1.082792
H407	H	-0.012246	-0.373963	1.416126
H408	H	0.321088	-0.040630	1.749459
H409	H	-0.342493	-0.664868	1.034520
H410	H	-0.009159	-0.331535	1.367853
H411	H	0.324174	0.001798	1.701187
H412	H	-0.158063	-0.206293	0.346220
H413	H	0.175270	0.127040	0.679554
H414	H	0.508604	0.460374	1.012887
N415	N	-0.354838	-0.652561	0.808951
N416	N	-0.021505	-0.319228	1.142284
N417	N	0.311828	0.014106	1.475617
H418	H	-0.376017	-0.631363	0.783361
H419	H	-0.042683	-0.298030	1.116694
H420	H	0.290650	0.035303	1.450028
H421	H	-0.333545	-0.628380	0.831603
H422	H	-0.000211	-0.295047	1.164936
H423	H	0.333122	0.038287	1.498270
N424	N	-0.321391	-0.563638	0.182306
N425	N	0.011942	-0.230305	0.515639
N426	N	0.345276	0.103028	0.848972
H427	H	-0.342541	-0.538041	0.161089
H428	H	-0.009208	-0.204707	0.494423
H429	H	0.324125	0.128626	0.827756
H430	H	-0.345619	-0.586292	0.203542
H431	H	-0.012286	-0.252958	0.536875
H432	H	0.321048	0.080375	0.870209
H433	H	-0.450993	-0.816066	0.312678
H434	H	-0.117660	-0.482733	0.646012
H435	H	0.215674	-0.149399	0.979345
N436	N	-0.354854	-0.652533	0.695469
N437	N	-0.021521	-0.319199	1.028802
N438	N	0.311813	0.014134	1.362135
H439	H	-0.376019	-0.631342	0.721054
H440	H	-0.042686	-0.298009	1.054387
H441	H	0.290648	0.035324	1.387721
H442	H	-0.379067	-0.673787	0.672812
H443	H	-0.045733	-0.340454	1.006146
H444	H	0.287600	-0.007121	1.339479
N445	N	-0.808626	-0.652707	0.148916
N446	N	-0.475293	-0.319373	0.482250
N447	N	-0.141960	0.013960	0.815583
H448	H	-0.799147	-0.615341	0.156998
H449	H	-0.465813	-0.282007	0.490331
H450	H	-0.132480	0.051326	0.823664
H451	H	-0.847346	-0.657830	0.154011
H452	H	-0.514013	-0.324497	0.487345
H453	H	-0.180679	0.008836	0.820678
H454	H	-0.312618	-0.054087	0.191180
H455	H	0.020715	0.279246	0.524513
H456	H	0.354048	0.612579	0.857846
N457	N	-0.321467	-0.685972	0.557778
N458	N	0.011866	-0.352638	0.891112
N459	N	0.345199	-0.019305	1.224445
H460	H	-0.300206	-0.661756	0.580427
H461	H	0.033127	-0.328423	0.913760
H462	H	0.366460	0.004910	1.247094
H463	H	-0.345695	-0.707234	0.580408
H464	H	-0.012361	-0.373901	0.913742
H465	H	0.320972	-0.040568	1.247075
N466	N	-1.059613	-0.825080	0.321557
N467	N	-0.726280	-0.491747	0.654890
N468	N	-0.392947	-0.158413	0.988224
H469	H	-1.098353	-0.820023	0.316484
H470	H	-0.765019	-0.486690	0.649818
H471	H	-0.431686	-0.153356	0.983151
H472	H	-1.050060	-0.816914	0.358889
H473	H	-0.716726	-0.483580	0.692223
H474	H	-0.383393	-0.150247	1.025556
N475	N	-0.557404	-0.686022	0.182388
N476	N	-0.224071	-0.352689	0.515721
N477	N	0.109262	-0.019355	0.849054
H478	H	-0.580070	-0.661783	0.203612
H479	H	-0.246737	-0.328450	0.536945
H480	H	0.086597	0.004883	0.870278
H481	H	-0.580021	-0.707328	0.158182
H482	H	-0.246687	-0.373994	0.491516
H483	H	0.086646	-0.040661	0.824849
N484	N	-0.695141	-0.652671	0.148907
N485	N	-0.361808	-0.319338	0.482240
N486	N	-0.028475	0.013995	0.815573
H487	H	-0.672495	-0.628412	0.170120
H488	H	-0.339162	-0.295079	0.503454
H489	H	-0.005828	0.038254	0.836787
H490	H	-0.720784	-0.631555	0.127714
H491	H	-0.387451	-0.298222	0.461047
H492	H	-0.054118	0.035112	0.794380
H493	H	-0.702147	-0.849561	0.346158
H494	H	-0.368813	-0.516228	0.679492
H495	H	-0.035480	-0.182895	1.012825
H496	H	-0.191362	-0.816226	0.451531
H497	H	0.141972	-0.482893	0.784864
H498	H	0.475305	-0.149560	1.118198
N499	N	-0.182489	-0.825074	0.557801
N500	N	0.150844	-0.491741	0.891134
N501	N	0.484178	-0.158407	1.224467
H502	H	-0.161321	-0.846264	0.532218
H503	H	0.172012	-0.512931	0.865551
H504	H	0.505345	-0.179597	1.198884
H505	H	-0.203767	-0.849262	0.580459
H506	H	0.129566	-0.515929	0.913793
H507	H	0.462899	-0.182595	1.247126
H508	H	-0.312588	-0.457375	0.191171
H509	H	0.020745	-0.124042	0.524504
H510	H	0.354079	0.209291	0.857838
H511	H	-0.451130	-0.694818	0.191236
H512	H	-0.117797	-0.361484	0.524570
H513	H	0.215536	-0.028151	0.857903
N514	N	-0.946257	-0.686135	0.182416
N515	N	-0.612924	-0.352801	0.515750
N516	N	-0.279591	-0.019468	0.849083
H517	H	-0.971862	-0.664974	0.161218
H518	H	-0.638529	-0.331641	0.494551
H519	H	-0.305195	0.001693	0.827885
H520	H	-0.923598	-0.707428	0.158237
H521	H	-0.590265	-0.374094	0.491570
H522	H	-0.256932	-0.040761	0.824903
N523	N	-0.149020	-0.858548	0.695503
N524	N	0.184313	-0.525215	1.028836
N525	N	0.517647	-0.191881	1.362170
H526	H	-0.127838	-0.879741	0.721094
H527	H	0.205495	-0.546408	1.054427
H528	H	0.538828	-0.213075	1.387761
H529	H	-0.124823	-0.837278	0.672848
H530	H	0.208511	-0.503944	1.006182
H531	H	0.541844	-0.170611	1.339515
H532	H	-0.158057	-0.305339	0.346218
H533	H	0.175277	0.027995	0.679552
H534	H	0.508610	0.361328	1.012885
H535	H	-0.346001	-0.305221	0.157692
H536	H	-0.012668	0.028113	0.491025
H537	H	0.320665	0.361446	0.824359
H538	H	-1.052536	-0.695002	0.191267
H539	H	-0.719202	-0.361669	0.524600
H540	H	-0.385869	-0.028336	0.857934
H541	H	-0.191468	0.044903	0.312724
H542	H	0.141865	0.378237	0.646058
H543	H	0.475199	0.711570	0.979391
N544	N	-0.148990	-0.858555	0.808991
N545	N	0.184343	-0.525222	1.142324
N546	N	0.517677	-0.191889	1.475657
H547	H	-0.127818	-0.879744	0.783410
H548	H	0.205515	-0.546411	1.116743
H549	H	0.538848	-0.213077	1.450077
H550	H	-0.170269	-0.882745	0.831647
H551	H	0.163064	-0.549411	1.164981
H552	H	0.496398	-0.216078	1.498314
N553	N	-0.182409	-0.825146	0.946649
N554	N	0.150924	-0.491812	1.279983
N555	N	0.484257	-0.158479	1.613316
H556	H	-0.161229	-0.846347	0.972235
H557	H	0.172104	-0.513013	1.305568
H558	H	0.505438	-0.179680	1.638901
H559	H	-0.158211	-0.803874	0.923997
H560	H	0.175123	-0.470541	1.257330
H561	H	0.508456	-0.137208	1.590664
