data_functionalizedCrystal
_audit_creation_method	'MofGen! by Chris Wilmer'
_symmetry_space_group_name_H-M	'P1'
_symmetry_Int_Tables_number	1
_symmetry_cell_setting	triclinic
loop_
_symmetry_equiv_pos_as_xyz
  x,y,z
_cell_length_a	10.654549
_cell_length_b	16.992695
_cell_length_c	16.053802
_cell_angle_alpha	87.258926
_cell_angle_beta	92.607209
_cell_angle_gamma	87.577570
loop_
_atom_site_label
_atom_site_type_symbol
_atom_site_fract_x
_atom_site_fract_y
_atom_site_fract_z
O1	O	-1.682333	-0.106933	-0.069451
O2	O	-1.317762	-0.117427	-0.069448
O3	O	-1.498586	0.001970	-0.069443
O4	O	-1.501510	-0.226331	-0.069456
O5	O	-1.488630	-0.004575	0.069416
O6	O	-1.307806	-0.123972	0.069410
O7	O	-1.672378	-0.113478	0.069408
Zn8	Zn	-1.488511	-0.119764	0.091456
Zn9	Zn	-1.501628	-0.111141	-0.091496
O10	O	-1.491554	-0.232875	0.069403
C11	C	-1.489848	0.027931	-0.000014
C12	C	-1.478628	0.115036	-0.000014
C13	C	-1.265920	-0.119928	-0.000018
C14	C	-1.126277	-0.117621	-0.000017
C15	C	-1.724220	-0.110977	-0.000024
C16	C	-1.863863	-0.113284	-0.000030
C17	C	-0.848258	-0.256059	-0.000049
C18	C	-0.906058	-0.328532	-0.000050
C19	C	-1.037263	-0.330703	-0.000039
C20	C	-1.110672	-0.260395	-0.000030
C21	C	-1.052872	-0.187922	-0.000029
C22	C	-0.921663	-0.185758	-0.000037
C23	C	-1.068477	-0.045148	-0.000016
C24	C	-0.937272	-0.042975	-0.000021
C25	C	-1.141886	0.025161	-0.000007
C26	C	-1.084086	0.097635	-0.000001
C27	C	-0.952873	0.099804	-0.000011
C28	C	-0.879472	0.029497	-0.000021
C29	C	-1.500292	-0.258836	-0.000029
C30	C	-1.511512	-0.345941	-0.000034
N31	N	-1.479568	-0.125648	0.216316
C32	C	-1.586879	0.164687	-0.000014
C33	C	-1.576330	0.246531	-0.000021
C34	C	-1.457530	0.278723	-0.000023
C35	C	-1.349271	0.229066	-0.000026
C36	C	-1.359821	0.147224	-0.000024
C37	C	-1.413803	0.522560	-0.000035
C38	C	-1.403261	0.604408	-0.000034
C39	C	-1.630322	0.621868	-0.000031
C40	C	-1.640861	0.540023	-0.000024
C41	C	-1.532603	0.490373	-0.000031
N42	N	-1.446744	0.362381	-0.000029
N43	N	-1.543390	0.406717	-0.000032
N44	N	-1.510581	-0.105251	-0.216356
C45	C	-1.556541	-0.074863	0.260012
C46	C	-1.550297	-0.078987	0.347419
C47	C	-1.467087	-0.133900	0.391128
C48	C	-1.390106	-0.184688	0.347425
C49	C	-1.396344	-0.180560	0.260020
C50	C	-1.439838	-0.151910	0.652536
C51	C	-1.433608	-0.156036	0.739948
C52	C	-1.593799	-0.050333	0.739935
C53	C	-1.600034	-0.046213	0.652528
C54	C	-1.523049	-0.096998	0.608834
N55	N	-1.460706	-0.138118	0.480471
N56	N	-1.529424	-0.092776	0.519492
H57	H	-0.741423	-0.254299	-0.000043
Br58	Br	-1.654757	-0.010060	0.406724
H59	H	-1.664480	0.286954	-0.000020
H60	H	-1.248720	0.023388	-0.000003
Br61	Br	-1.277166	-0.259210	0.406741
Br62	Br	-1.777235	0.689252	-0.000022
Br63	Br	-1.288739	-0.263342	-0.000035
Br64	Br	-1.802099	0.496341	-0.000048
H65	H	-1.306513	0.630615	-0.000022
Br66	Br	-1.266880	0.455189	-0.000049
Br67	Br	-1.712968	0.028309	0.593208
Br68	Br	-1.188040	0.272755	-0.000043
Br69	Br	-1.698271	0.018587	0.799238
H70	H	-1.333663	-0.221914	0.224444
H71	H	-1.624305	-0.030150	0.224430
H72	H	-1.377155	-0.193263	0.616967
Br73	Br	-1.183716	0.193044	0.000004
Br74	Br	-0.806430	-0.423946	-0.000072
H75	H	-0.772637	0.031256	-0.000021
H76	H	-1.365845	-0.200756	0.775531
Br77	Br	-1.212904	0.079839	-0.000031
Br78	Br	-1.115712	-0.429059	-0.000049
Br79	Br	-1.748116	0.121006	0.000001
Br80	Br	-0.874442	0.198165	-0.000018
