data_functionalizedCrystal
_audit_creation_method	'MofGen! by Chris Wilmer'
_symmetry_space_group_name_H-M	'P1'
_symmetry_Int_Tables_number	1
_symmetry_cell_setting	triclinic
loop_
_symmetry_equiv_pos_as_xyz
  x,y,z
_cell_length_a	19.077105
_cell_length_b	12.759400
_cell_length_c	19.077271
_cell_angle_alpha	87.676208
_cell_angle_beta	89.892926
_cell_angle_gamma	87.711168
loop_
_atom_site_label
_atom_site_type_symbol
_atom_site_fract_x
_atom_site_fract_y
_atom_site_fract_z
Zn1	Zn	1.058325	-0.455436	-0.440443
Zn2	Zn	1.062985	-0.638460	-0.322940
Zn3	Zn	0.945542	-0.456023	-0.318234
Zn4	Zn	0.940806	-0.624299	-0.435695
O5	O	1.001915	-0.543555	-0.379328
O6	O	1.157276	-0.485395	-0.428813
O7	O	1.051338	-0.620431	-0.223983
O8	O	0.960535	-0.308925	-0.334463
O9	O	1.160699	-0.619862	-0.342484
O10	O	1.043396	-0.308494	-0.424249
O11	O	0.965053	-0.486396	-0.220525
O12	O	0.846581	-0.472665	-0.329859
O13	O	0.952463	-0.595727	-0.534658
O14	O	0.843102	-0.596296	-0.416157
O15	O	1.038804	-0.471664	-0.538146
O16	O	1.046746	-0.783602	-0.337880
O17	O	0.956981	-0.773198	-0.420720
C18	C	0.819345	-0.533008	-0.371982
C19	C	0.741240	-0.528521	-0.368856
C20	C	0.702756	-0.590887	-0.412248
C21	C	0.629368	-0.586656	-0.409314
C22	C	0.594466	-0.520065	-0.362984
C23	C	0.632956	-0.457692	-0.319591
C24	C	0.706342	-0.461918	-0.322529
C25	C	0.375177	-0.500508	-0.349391
C26	C	0.301785	-0.496289	-0.346455
C27	C	0.298203	-0.625253	-0.436179
C28	C	0.371591	-0.629477	-0.439109
C29	C	0.410074	-0.567100	-0.395719
N30	N	0.519452	-0.515741	-0.359983
N31	N	0.485086	-0.571419	-0.398724
C32	C	1.001873	-0.816521	-0.379312
C33	C	1.001919	-0.933299	-0.379331
C34	C	1.048707	-0.993543	-0.336248
C35	C	1.048750	-1.103268	-0.336271
C36	C	0.955210	-1.092495	-0.422463
C37	C	0.955171	-0.982772	-0.422442
C38	C	1.095455	-0.944070	-0.293136
C39	C	1.142247	-1.004315	-0.250049
C40	C	1.142289	-1.114040	-0.250072
C41	C	1.095540	-1.163520	-0.293183
C42	C	1.185197	-0.554143	-0.386703
C43	C	1.263301	-0.558655	-0.389846
C44	C	0.994585	-0.532051	-0.562612
C45	C	0.991462	-0.527148	-0.640716
C46	C	1.001974	-0.269523	-0.379361
C47	C	1.002000	-0.152747	-0.379375
C48	C	0.969061	-0.492071	-1.080169
C49	C	0.971999	-0.496674	-1.006782
C50	C	1.018388	-0.568765	-0.971887
C51	C	1.061847	-0.636251	-1.010384
C52	C	1.058912	-0.631643	-1.083770
C53	C	1.031986	-0.590026	-0.752599
C54	C	1.034916	-0.594632	-0.679208
C55	C	0.945069	-0.455052	-0.675610
C56	C	0.942135	-0.450454	-0.748998
C57	C	0.985596	-0.517937	-0.787489
N58	N	1.021391	-0.573474	-0.896874
N59	N	0.982597	-0.513222	-0.862501
C60	C	1.009256	-0.554940	-0.196759
C61	C	1.012515	-0.559555	-0.118661
H62	H	0.731168	-0.645117	-0.449972
H63	H	0.598038	-0.637442	-0.444647
H64	H	0.400003	-0.683705	-0.476834
O65	O	0.925142	-0.423874	-0.965263
H66	H	0.892390	-0.372974	-1.001856
O67	O	1.078846	-0.662841	-0.794099
H68	H	1.134566	-0.648922	-0.782229
O69	O	0.904788	-1.145865	-0.468953
H70	H	0.872250	-1.085538	-0.498913
H71	H	0.266862	-0.676035	-0.471506
H72	H	0.904357	-0.391754	-0.777403
O73	O	0.898204	-0.382262	-0.634092
H74	H	0.865453	-0.331362	-0.670685
H75	H	0.273370	-0.442050	-0.308732
O76	O	1.192680	-0.950956	-0.203565
H77	H	1.184791	-0.864537	-0.210785
O78	O	1.192753	-1.179024	-0.203604
H79	H	1.225247	-1.126184	-0.173620
O80	O	0.416686	-0.433246	-0.302591
H81	H	0.451543	-0.484366	-0.268133
H82	H	1.099621	-0.694946	-0.981968
H83	H	1.094298	-0.686594	-1.115110
H84	H	1.072708	-0.653320	-0.650800
H85	H	0.604532	-0.403467	-0.281872
H86	H	1.095424	-0.854727	-0.293110
O87	O	0.747856	-0.394665	-0.275721
H88	H	0.711259	-0.347660	-0.243004
H89	H	1.095583	-1.252866	-0.293204
H90	H	0.917073	-0.933720	-0.457525
O91	O	0.919030	-0.414311	-1.117805
H92	H	0.889314	-0.368151	-1.078707
