data_functionalizedCrystal
_audit_creation_method	'MofGen! by Chris Wilmer'
_symmetry_space_group_name_H-M	'P1'
_symmetry_Int_Tables_number	1
_symmetry_cell_setting	triclinic
loop_
_symmetry_equiv_pos_as_xyz
  x,y,z
_cell_length_a	21.606444
_cell_length_b	21.606444
_cell_length_c	21.606444
_cell_angle_alpha	60.001331
_cell_angle_beta	90.000833
_cell_angle_gamma	59.999875
loop_
_atom_site_label
_atom_site_type_symbol
_atom_site_fract_x
_atom_site_fract_y
_atom_site_fract_z
Zr1	Zr	0.596210	0.677477	-0.081222
O2	O	0.497381	0.806595	-0.180041
O3	O	0.626507	0.548358	-0.050932
O4	O	0.626499	0.677482	-0.180050
O5	O	0.497394	0.677467	0.050931
O6	O	0.728349	0.677487	-0.180054
O7	O	0.497389	0.677471	-0.050923
O8	O	0.728363	0.446508	0.050915
O9	O	0.497380	0.908446	-0.180038
O10	O	0.715437	0.601470	-0.038013
O11	O	0.639431	0.601463	0.038003
O12	O	0.639422	0.753490	-0.114018
O13	O	0.563417	0.753484	-0.038002
Zr14	Zr	0.758657	0.677477	0.081217
Zr15	Zr	0.758648	0.677484	-0.081228
Zr16	Zr	0.596218	0.677470	0.081223
Zr17	Zr	0.596208	0.839917	-0.081217
Zr18	Zr	0.758658	0.515036	0.081212
O19	O	0.728359	0.806595	0.050927
O20	O	0.728348	0.806605	-0.180050
O21	O	0.497393	0.806585	0.050935
O22	O	0.857486	0.548358	0.180036
O23	O	0.857474	0.548368	-0.050940
O24	O	0.626519	0.548348	0.180045
O25	O	0.857473	0.677487	-0.050936
O26	O	0.728367	0.677471	0.180045
O27	O	0.626518	0.677467	0.180049
O28	O	0.857478	0.677482	0.050918
O29	O	0.626497	0.908451	-0.180043
O30	O	0.728370	0.446502	0.180038
O31	O	0.857487	0.446508	0.180033
O32	O	0.857480	0.446513	0.050910
O33	O	0.497386	0.908440	-0.050916
O34	O	0.626503	0.908446	-0.050920
O35	O	0.715445	0.601463	0.114012
O36	O	0.791450	0.601470	0.037997
O37	O	0.715435	0.753490	-0.038008
O38	O	0.639430	0.753484	0.038008
C39	C	0.677435	0.474289	-0.000009
C40	C	0.677436	0.405329	-0.000011
C41	C	0.474247	0.677468	0.000005
C42	C	0.405288	0.677465	0.000007
C43	C	0.717109	0.372934	-0.039692
C44	C	0.717111	0.308134	-0.039687
C45	C	0.677437	0.275734	-0.000005
C46	C	0.637763	0.308131	0.039680
C47	C	0.637765	0.372925	0.039679
C48	C	0.637754	0.046822	0.039686
C49	C	0.637753	-0.017975	0.039683
C50	C	0.717100	-0.017969	-0.039679
C51	C	0.717102	0.046825	-0.039680
C52	C	0.677432	0.079213	0.000008
C53	C	0.677431	0.149475	0.000003
C54	C	0.677433	0.205477	-0.000004
C55	C	0.412568	0.598113	0.039678
C56	C	0.347770	0.598115	0.039679
C57	C	0.275694	0.677471	0.000004
C58	C	0.268416	0.756829	-0.039668
C59	C	0.333212	0.756826	-0.039664
C60	C	0.007098	0.756844	-0.039685
C61	C	-0.057700	0.756842	-0.039688
C62	C	0.021656	0.598134	0.039658
C63	C	0.086452	0.598130	0.039662
C64	C	0.079169	0.677488	-0.000007
C65	C	0.149430	0.677485	-0.000006
C66	C	0.205434	0.677475	-0.000002
C67	C	0.880619	0.677485	-0.000010
C68	C	0.949579	0.677488	-0.000012
C69	C	0.677423	0.677485	-0.203197
C70	C	0.677419	0.677488	-0.272160
C71	C	0.677431	0.880665	0.000004
C72	C	0.677430	0.949625	0.000006
C73	C	0.637740	0.756841	-0.344232
C74	C	0.637747	0.756838	-0.409027
C75	C	0.677429	0.677483	-0.401748
C76	C	0.717113	0.598124	-0.329668
C77	C	0.717110	0.598127	-0.264874
C78	C	0.717125	0.598109	-0.590971
C79	C	0.717122	0.598112	-0.655771
C80	C	0.637761	0.756820	-0.735123
C81	C	0.637759	0.756823	-0.670330
C82	C	0.677446	0.677465	-0.598256
C83	C	0.677440	0.677469	-0.527998
C84	C	0.677431	0.677478	-0.472004
C85	C	0.677444	0.677468	0.203192
C86	C	0.677447	0.677465	0.272154
C87	C	0.880621	0.474297	-0.000017
C88	C	0.949581	0.405340	-0.000021
C89	C	0.677446	0.474280	0.203185
C90	C	0.677450	0.405317	0.272146
C91	C	0.880632	0.474289	0.203178
C92	C	0.949595	0.405329	0.272136
C93	C	0.474235	0.880665	-0.203183
C94	C	0.405271	0.949625	-0.272141
C95	C	0.474245	0.880656	0.000011
C96	C	0.405285	0.949613	0.000016
C97	C	0.677421	0.880673	-0.203191
C98	C	0.677417	0.949637	-0.272151
C99	C	0.942288	0.372957	-0.039707
C100	C	1.007077	0.308174	-0.039726
C101	C	1.079159	0.275770	-0.000056
C102	C	1.086451	0.308159	0.039631
C103	C	1.021663	0.372946	0.039646
C104	C	0.717130	0.372931	0.344213
C105	C	0.717131	0.308142	0.409015
C106	C	0.677456	0.275735	0.401747
C107	C	0.637771	0.308128	0.329672
C108	C	0.637766	0.372920	0.264872
C109	C	1.021662	0.372948	0.264840
C110	C	1.086467	0.308161	0.329627
C111	C	1.079203	0.275753	0.401709
C112	C	1.007129	0.308140	0.409003
C113	C	0.942326	0.372930	0.344217
C114	C	0.333204	0.982014	-0.264845
C115	C	0.268399	1.046820	-0.329632
C116	C	0.275663	1.079232	-0.401714
C117	C	0.347738	1.046841	-0.409008
C118	C	0.412541	0.982040	-0.344222
C119	C	0.412579	0.982003	0.039695
C120	C	0.347790	1.046804	0.039696
C121	C	0.275707	1.079211	0.000024
C122	C	0.268415	1.046818	-0.039660
C123	C	0.333204	0.982022	-0.039666
C124	C	0.717099	0.982023	-0.264859
C125	C	0.717110	1.046812	-0.329648
C126	C	0.677433	1.079219	-0.401728
C127	C	0.637749	1.046827	-0.409019
C128	C	0.637744	0.982034	-0.344230
H129	H	0.749412	0.399314	-0.072009
H130	H	0.883601	0.399340	-0.072020
C131	C	0.760744	0.272504	-0.083341
C132	C	0.825113	0.174509	-0.040809
C133	C	0.868746	0.138879	-0.084466
C134	C	0.848010	0.201244	-0.170655
C135	C	0.783638	0.299245	-0.213192
C136	C	0.740005	0.334875	-0.169535
H137	H	0.840466	0.128338	0.022997
H138	H	0.916399	0.066332	-0.052978
H139	H	0.880310	0.174869	-0.202973
H140	H	0.768285	0.345417	-0.276998
H141	H	0.692352	0.407423	-0.201024
H142	H	0.677466	0.222977	0.454518
H143	H	0.327276	0.955627	-0.206158
C144	C	1.029693	0.408555	0.083312
C145	C	0.958439	0.479814	0.083341
C146	C	0.966476	0.515419	0.127010
C147	C	1.045768	0.479764	0.170649
C148	C	1.117028	0.408500	0.170621
C149	C	1.108991	0.372896	0.126952
H150	H	0.899737	0.506212	0.051036
H151	H	0.913724	0.568173	0.127031
H152	H	1.051717	0.506121	0.202975
H153	H	1.175730	0.382103	0.202926
H154	H	1.161743	0.320141	0.126932
H155	H	0.605444	-0.044354	0.071999
H156	H	-0.116390	0.821467	-0.071998
C157	C	0.189121	1.082460	-0.083288
C158	C	0.117863	1.153722	-0.083264
C159	C	0.038568	1.189358	-0.126884
C160	C	0.030530	1.153733	-0.170528
C161	C	0.101791	1.082467	-0.170553
C162	C	0.181086	1.046830	-0.126933
H163	H	0.123811	1.180098	-0.050955
H164	H	-0.014184	1.242114	-0.126865
H165	H	-0.028169	1.180113	-0.202818
H166	H	0.095843	1.056091	-0.202862
H167	H	0.233838	0.994074	-0.126952
H168	H	0.209720	1.073182	-0.323678
H169	H	1.145147	0.281798	0.323674
C170	C	0.863053	0.408536	0.352250
C171	C	0.791761	0.479799	0.280998
C172	C	0.712490	0.515402	0.289038
C173	C	0.704509	0.479742	0.368330
C174	C	0.775803	0.408475	0.439587
C175	C	0.855075	0.372872	0.431548
H176	H	0.797667	0.506200	0.222297
H177	H	0.659714	0.568158	0.236288
H178	H	0.645828	0.506097	0.374281
H179	H	0.769897	0.382074	0.498289
H180	H	0.907851	0.320116	0.484298
H181	H	0.605456	0.399280	0.206194
H182	H	1.001125	0.281810	-0.072044
C183	C	0.594132	0.272473	0.321685
C184	C	0.594149	0.201200	0.392969
C185	C	0.550514	0.165540	0.384985
C186	C	0.506862	0.201154	0.305716
C187	C	0.506843	0.272431	0.234427
C188	C	0.550479	0.308091	0.242411
H189	H	0.626464	0.174833	0.451654
H190	H	0.550527	0.112776	0.437759
H191	H	0.474560	0.174757	0.299806
H192	H	0.474528	0.298798	0.175742
H193	H	0.550465	0.360855	0.189637
C194	C	0.594110	0.082451	0.083334
C195	C	0.550464	0.046816	0.126975
C196	C	0.506816	0.082451	0.170623
C197	C	0.506814	0.153720	0.170631
C198	C	0.550462	0.189359	0.126988
C199	C	0.594110	0.153724	0.083340
H200	H	0.550464	-0.005945	0.126971
H201	H	0.474505	0.056068	0.202931
H202	H	0.474503	0.180099	0.202942
H203	H	0.550462	0.242120	0.126992
H204	H	0.626421	0.180107	0.051033
C205	C	0.760755	0.946377	-0.185575
C206	C	0.804411	0.982004	-0.177571
C207	C	0.848074	0.946358	-0.098290
C208	C	0.848082	0.875085	-0.027014
C209	C	0.804425	0.839455	-0.035016
C210	C	0.760761	0.875100	-0.114297
H211	H	0.804406	1.034768	-0.230335
H212	H	0.880392	0.972735	-0.092366
H213	H	0.880404	0.848698	0.031674
H214	H	0.804429	0.786691	0.017748
H215	H	0.728443	0.848724	-0.120221
C216	C	0.760794	0.272512	0.488291
C217	C	0.718269	0.281428	0.543756
C218	C	0.761932	0.245799	0.623030
C219	C	0.848120	0.201255	0.646839
C220	C	0.890650	0.192337	0.591372
C221	C	0.846987	0.227966	0.512098
H222	H	0.654463	0.314404	0.526133
H223	H	0.730448	0.252401	0.664090
H224	H	0.880442	0.174880	0.705522
H225	H	0.954456	0.159361	0.608996
H226	H	0.878471	0.221364	0.471039
H227	H	1.027591	0.399325	0.206153
H228	H	1.131977	0.222997	0.454456
H229	H	0.605464	0.281741	0.071994
C230	C	1.165746	0.272498	0.083275
C231	C	1.221206	0.281395	0.040735
C232	C	1.300504	0.245724	0.084385
C233	C	1.324341	0.201157	0.170575
C234	C	1.268880	0.192258	0.213120
C235	C	1.189582	0.227928	0.169470
H236	H	1.203562	0.314389	-0.023073
H237	H	1.341560	0.252312	0.052890
H238	H	1.383042	0.174751	0.202888
H239	H	1.286524	0.159264	0.276928
H240	H	1.148527	0.221341	0.200965
H241	H	0.327254	0.955652	-0.071975
H242	H	0.222959	1.131972	0.000034
C243	C	0.999151	0.272474	0.488299
C244	C	0.957520	0.334805	0.512158
C245	C	0.949547	0.299130	0.591456
C246	C	0.983203	0.201124	0.646895
C247	C	1.024836	0.138787	0.623038
C248	C	1.032810	0.174462	0.543740
H249	H	0.932603	0.407360	0.471117
H250	H	0.918727	0.345276	0.609116
H251	H	0.977300	0.174715	0.705597
H252	H	1.049753	0.066232	0.664079
H253	H	1.063630	0.128316	0.526079
H254	H	0.471252	0.533492	0.071990
H255	H	0.222890	1.131997	-0.454461
C256	C	0.355720	1.082496	-0.488302
C257	C	0.284433	1.153769	-0.559558
C258	C	0.292413	1.189422	-0.638853
C259	C	0.371680	1.153803	-0.646893
C260	C	0.442974	1.082526	-0.575636
C261	C	0.434994	1.046872	-0.496340
H262	H	0.225749	1.180140	-0.553608
H263	H	0.239636	1.242186	-0.691603
H264	H	0.377588	1.180195	-0.705593
H265	H	0.501658	1.056155	-0.581585
H266	H	0.487770	0.994109	-0.443590
H267	H	0.145137	0.533511	0.071967
H268	H	0.605446	1.073222	-0.467715
C269	C	0.760774	0.510815	-0.511698
C270	C	0.825146	0.488980	-0.456238
C271	C	0.868796	0.401680	-0.376961
C272	C	0.848076	0.336215	-0.353143
C273	C	0.783701	0.358048	-0.408603
C274	C	0.740050	0.445348	-0.487881
H275	H	0.840487	0.537443	-0.473869
H276	H	0.916451	0.385518	-0.335905
H277	H	0.880389	0.271590	-0.294457
H278	H	0.768359	0.309585	-0.390973
H279	H	0.692395	0.461510	-0.528936
H280	H	0.749406	0.073206	-0.071996
H281	H	0.749405	-0.044349	-0.071993
H282	H	0.605458	0.399302	0.071989
H283	H	0.605437	0.821455	-0.467709
H284	H	0.353704	0.533498	0.071984
C285	C	0.760756	0.510838	-0.185591
C286	C	0.760758	0.510838	-0.114319
C287	C	0.804409	0.423546	-0.035036
C288	C	0.848057	0.336255	-0.027024
C289	C	0.848056	0.336252	-0.098299
C290	C	0.804406	0.423544	-0.177582
H291	H	0.728446	0.575459	-0.120248
H292	H	0.804409	0.423549	0.017726
H293	H	0.880369	0.271636	0.031666
H294	H	0.880368	0.271631	-0.092370
H295	H	0.804405	0.423541	-0.230344
H296	H	0.027580	0.533516	0.071960
H297	H	0.001157	0.821463	-0.072000
H298	H	0.209726	0.821442	-0.071968
H299	H	0.605426	0.955672	-0.350178
H300	H	0.327280	0.821443	-0.071959
H301	H	0.471219	0.955669	-0.350172
C302	C	0.594108	0.844116	-0.678339
C303	C	0.614827	0.909584	-0.719980
C304	C	0.571178	0.996879	-0.727992
C305	C	0.506809	1.018707	-0.694363
C306	C	0.486087	0.953237	-0.652720
C307	C	0.529737	0.865942	-0.644708
H308	H	0.662479	0.893427	-0.744877
H309	H	0.586518	1.045344	-0.758820
H310	H	0.474498	1.083328	-0.700294
H311	H	0.438435	0.969394	-0.627823
H312	H	0.514396	0.817478	-0.613880
H313	H	0.605421	0.821462	-0.350168
H314	H	0.605448	0.821437	-0.793816
H315	H	0.749439	0.533487	-0.649836
H316	H	0.471266	0.955623	0.072006
H317	H	0.749427	0.533511	-0.323745
H318	H	1.131908	0.223015	-0.000073
H319	H	0.353742	1.073168	0.072014
H320	H	0.749438	0.399309	0.350145
H321	H	0.749424	1.073179	-0.323697
H322	H	0.677444	1.131978	-0.454477
