data_functionalizedCrystal
_audit_creation_method	'MofGen! by Chris Wilmer'
_symmetry_space_group_name_H-M	'P1'
_symmetry_Int_Tables_number	1
_symmetry_cell_setting	triclinic
loop_
_symmetry_equiv_pos_as_xyz
  x,y,z
_cell_length_a	6.817900
_cell_length_b	11.168121
_cell_length_c	11.102193
_cell_angle_alpha	91.985837
_cell_angle_beta	108.604059
_cell_angle_gamma	108.508496
loop_
_atom_site_label
_atom_site_type_symbol
_atom_site_fract_x
_atom_site_fract_y
_atom_site_fract_z
V1	V	-4.111009	-0.174714	-0.396268
O2	O	-4.070572	0.008386	-0.388714
O3	O	-4.087289	-0.346419	-0.393568
O4	O	-4.087791	-0.172030	-0.569089
O5	O	-4.070066	-0.167209	-0.211978
V6	V	-4.588176	-0.152812	-0.374224
O7	O	-4.386209	-0.222756	-0.444623
O8	O	-4.763172	-0.104770	-0.325869
O9	O	-4.388689	0.018893	-0.376924
O10	O	-4.746009	-0.335912	-0.381778
O11	O	-4.746515	-0.160317	-0.558515
O12	O	-4.388187	-0.155496	-0.201403
C13	C	-3.937478	-0.388277	-0.387320
C14	C	-3.999539	-0.528648	-0.386264
C15	C	-4.202064	-0.597341	-0.391822
C16	C	-4.266211	-0.742422	-0.390731
C17	C	-3.938117	-0.165825	-0.611213
C18	C	-4.000581	-0.164767	-0.752495
C19	C	-4.120240	-0.396044	-0.788836
C20	C	-4.209406	-0.511180	-0.873379
C21	C	-4.268095	-0.510179	-1.006125
C22	C	-4.237619	-0.394029	-1.054329
C23	C	-4.148453	-0.278893	-0.969786
C24	C	-4.089763	-0.279907	-0.837039
C25	C	-4.028810	-0.047620	-0.933446
C26	C	-3.970105	-0.048618	-0.800699
C27	C	-3.998334	0.068529	-0.981650
C28	C	-3.909152	0.183668	-0.897106
C29	C	-3.850459	0.182663	-0.764353
C30	C	-3.880939	0.066518	-0.716156
C31	C	-4.201842	0.060744	-0.383169
C32	C	-4.119021	0.201114	-0.384233
C33	C	-4.201202	-0.161705	-0.159273
C34	C	-4.117976	-0.162756	-0.017989
H35	H	-4.327967	-0.548744	-0.397394
H36	H	-3.777866	0.276421	-0.695524
H37	H	-4.340704	-0.603933	-1.074961
H38	H	-4.046142	0.069336	-1.089741
O39	O	-4.473037	-0.812962	-0.396223
C40	C	-4.460508	-0.872475	-0.285423
H41	H	-4.290353	-0.880814	-0.242903
H42	H	-4.592074	-0.971849	-0.312267
H43	H	-4.488967	-0.812888	-0.211505
O44	O	-3.824120	0.065697	-0.587192
C45	C	-3.946574	0.122760	-0.539039
H46	H	-4.003745	0.188861	-0.606981
H47	H	-3.838596	0.180286	-0.439914
H48	H	-4.096395	0.045278	-0.531283
O49	O	-3.912010	-0.728297	-0.378390
C50	C	-3.810286	-0.634507	-0.267988
H51	H	-3.942360	-0.614746	-0.236778
H52	H	-3.704410	-0.542838	-0.290875
H53	H	-3.701834	-0.670094	-0.187041
H54	H	-4.072427	-0.396870	-0.680748
O55	O	-3.849086	-0.586419	-0.379674
C56	C	-3.648305	-0.494374	-0.374682
H57	H	-3.681340	-0.408455	-0.417666
H58	H	-3.568602	-0.537696	-0.431947
H59	H	-3.532618	-0.462543	-0.270400
H60	H	-4.234219	-0.605747	-0.834117
H61	H	-4.285438	-0.393225	-1.162420
O62	O	-3.879612	0.296374	-0.944143
C63	C	-3.950608	0.272565	-1.079438
H64	H	-3.946137	0.175511	-1.110934
H65	H	-3.836720	0.350158	-1.114850
H66	H	-4.126369	0.272775	-1.121933
