data_functionalizedCrystal
_audit_creation_method	'MofGen! by Chris Wilmer'
_symmetry_space_group_name_H-M	'P1'
_symmetry_Int_Tables_number	1
_symmetry_cell_setting	triclinic
loop_
_symmetry_equiv_pos_as_xyz
  x,y,z
_cell_length_a	12.759401
_cell_length_b	12.759400
_cell_length_c	12.759393
_cell_angle_alpha	90.030452
_cell_angle_beta	89.979434
_cell_angle_gamma	89.987219
loop_
_atom_site_label
_atom_site_type_symbol
_atom_site_fract_x
_atom_site_fract_y
_atom_site_fract_z
Zn1	Zn	-1.606267	-0.418266	0.594010
Zn2	Zn	-1.106267	0.081734	1.094010
Zn3	Zn	-1.606159	-0.593981	0.418330
Zn4	Zn	-1.106159	-0.093981	0.918330
Zn5	Zn	-1.430566	-0.418311	0.418346
Zn6	Zn	-0.930566	0.081689	0.918346
Zn7	Zn	-1.430558	-0.593898	0.593969
Zn8	Zn	-0.930558	-0.093898	1.093969
O9	O	-1.518388	-0.506114	0.506164
O10	O	-1.018388	-0.006114	1.006164
O11	O	-1.753274	-0.441591	0.570716
O12	O	-1.253274	0.058409	1.070716
O13	O	-1.582824	-0.570732	0.271311
O14	O	-1.082824	-0.070732	0.771311
O15	O	-1.453922	-0.271284	0.441672
O16	O	-0.953922	0.228716	0.941672
O17	O	-1.753194	-0.570688	0.441645
O18	O	-1.253194	-0.070688	0.941645
O19	O	-1.583009	-0.271251	0.570732
O20	O	-1.083009	0.228749	1.070732
O21	O	-1.453817	-0.441669	0.271323
O22	O	-0.953817	0.058331	0.771323
O23	O	-1.283544	-0.441587	0.441632
O24	O	-0.783544	0.058413	0.941632
O25	O	-1.453909	-0.570546	0.740995
O26	O	-0.953909	-0.070546	1.240995
O27	O	-1.283538	-0.570590	0.570661
O28	O	-0.783538	-0.070590	1.070661
O29	O	-1.583001	-0.441510	0.741026
O30	O	-1.083001	0.058490	1.241026
O31	O	-1.582816	-0.740991	0.441605
O32	O	-1.082816	-0.240991	0.941605
O33	O	-1.453803	-0.740930	0.570646
O34	O	-0.953803	-0.240930	1.070646
C35	C	-1.245420	-0.506085	0.506145
C36	C	-0.745420	-0.006085	1.006145
C37	C	-1.128644	-0.506098	0.506161
C38	C	-0.628644	-0.006098	1.006161
C39	C	-1.073824	-0.438997	0.573472
C40	C	-0.573824	0.061003	1.073472
C41	C	-0.964100	-0.439003	0.573477
C42	C	-0.464100	0.060997	1.073477
C43	C	-0.964025	-0.573222	0.438859
C44	C	-0.464025	-0.073222	0.938859
C45	C	-1.073747	-0.573210	0.438849
C46	C	-0.573747	-0.073210	0.938849
C47	C	-1.518326	-0.779081	0.506142
C48	C	-1.018326	-0.279081	1.006142
C49	C	-1.518395	-0.895858	0.506168
C50	C	-1.018395	-0.395858	1.006168
C51	C	-0.792421	-0.506134	0.506180
C52	C	-0.292421	-0.006134	1.006180
C53	C	-0.909197	-0.506117	0.506176
C54	C	-0.409197	-0.006117	1.006176
C55	C	-1.585711	-1.060448	0.439084
C56	C	-1.085711	-0.560448	0.939084
C57	C	-1.585648	-0.950724	0.439051
C58	C	-1.085648	-0.450724	0.939051
C59	C	-1.451194	-0.950722	0.573314
C60	C	-0.951194	-0.450722	1.073314
C61	C	-1.451252	-1.060444	0.573341
C62	C	-0.951252	-0.560444	1.073341
C63	C	-1.518466	-0.506013	0.780197
C64	C	-1.018466	-0.006013	1.280197
C65	C	-1.518500	-0.505970	0.896974
C66	C	-1.018500	-0.005970	1.396974
C67	C	-1.518478	-0.232081	0.506209
C68	C	-1.018478	0.267919	1.006209
C69	C	-1.518517	-0.115304	0.506228
C70	C	-1.018517	0.384696	1.006228
C71	C	-1.518370	-0.506139	0.233196
C72	C	-1.018370	-0.006139	0.733196
C73	C	-1.518540	-0.505886	0.116420
C74	C	-1.018540	-0.005886	0.616420
C75	C	-1.585723	-0.438770	0.951853
C76	C	-1.085723	0.061230	1.451853
C77	C	-1.585741	-0.438725	1.061578
C78	C	-1.085741	0.061275	1.561578
C79	C	-1.451309	-0.573088	1.061533
C80	C	-0.951309	-0.073088	1.561533
C81	C	-1.451287	-0.573128	0.951811
C82	C	-0.951287	-0.073128	1.451811
H83	H	-0.919470	-0.384361	0.628286
H84	H	-0.419470	0.115639	1.128286
H85	H	-1.640450	-0.384083	0.907208
H86	H	-1.140450	0.115917	1.407208
C87	C	-1.659697	-0.364819	1.121946
C88	C	-1.159697	0.135181	1.621946
H89	H	-1.650082	-0.374406	1.195147
H90	H	-1.150082	0.125594	1.695147
H91	H	-1.730275	-0.380221	1.103969
H92	H	-1.230275	0.119779	1.603969
H93	H	-1.644346	-0.294226	1.103974
H94	H	-1.144346	0.205774	1.603974
H95	H	-1.396589	-0.627768	1.106195
H96	H	-0.896589	-0.127768	1.606195
H97	H	-1.396530	-1.105109	0.628020
H98	H	-0.896530	-0.605109	1.128020
H99	H	-0.919315	-0.627863	0.384057
H100	H	-0.419315	-0.127863	0.884057
H101	H	-1.118517	-0.384347	0.628278
H102	H	-0.618517	0.115653	1.128278
H103	H	-1.396538	-0.627849	0.907127
H104	H	-0.896538	-0.127849	1.407127
C105	C	-1.134053	-0.647029	0.364808
C106	C	-0.634053	-0.147029	0.864808
H107	H	-1.085646	-0.687010	0.324732
H108	H	-0.585646	-0.187010	0.824732
H109	H	-1.176841	-0.606779	0.319099
H110	H	-0.676841	-0.106779	0.819099
H111	H	-1.176867	-0.692851	0.404924
H112	H	-0.676867	-0.192851	0.904924
H113	H	-1.640482	-1.105112	0.384435
H114	H	-1.140482	-0.605112	0.884435
C115	C	-1.659567	-0.890387	0.365198
C116	C	-1.159567	-0.390387	0.865198
H117	H	-1.699638	-0.938778	0.325240
H118	H	-1.199638	-0.438778	0.825240
H119	H	-1.619383	-0.847651	0.319372
H120	H	-1.119383	-0.347651	0.819372
H121	H	-1.705301	-0.847519	0.405426
H122	H	-1.205301	-0.347519	0.905426
H123	H	-1.396430	-0.906043	0.627958
H124	H	-0.896430	-0.406043	1.127958
