data_functionalizedCrystal
_audit_creation_method	'MofGen! by Chris Wilmer'
_symmetry_space_group_name_H-M	'P1'
_symmetry_Int_Tables_number	1
_symmetry_cell_setting	triclinic
loop_
_symmetry_equiv_pos_as_xyz
  x,y,z
_cell_length_a	14.044191
_cell_length_b	19.188930
_cell_length_c	13.101039
_cell_angle_alpha	93.345801
_cell_angle_beta	86.337551
_cell_angle_gamma	88.168279
loop_
_atom_site_label
_atom_site_type_symbol
_atom_site_fract_x
_atom_site_fract_y
_atom_site_fract_z
O1	O	1.262238	0.164780	-0.085186
O2	O	0.986294	0.158702	-0.085198
O3	O	1.132228	0.060600	-0.085172
O4	O	1.116304	0.262881	-0.085213
O5	O	1.121757	0.067651	0.085256
O6	O	0.975824	0.165753	0.085229
O7	O	1.251767	0.171831	0.085242
Zn8	Zn	1.112133	0.169912	0.112295
Zn9	Zn	1.125929	0.160621	-0.112251
O10	O	1.105834	0.269933	0.085215
C11	C	0.945756	0.159568	0.000014
C12	C	0.840563	0.151637	0.000010
C13	C	0.590103	0.193385	0.000012
C14	C	0.647965	0.137150	0.000022
C15	C	0.755136	0.145213	0.000016
C16	C	0.482922	0.185324	0.000019
C17	C	1.126477	0.038081	0.000045
C18	C	1.124928	-0.039523	0.000054
C19	C	1.292306	0.170964	0.000027
C20	C	1.397499	0.178895	0.000024
C21	C	1.210558	-0.078919	0.000062
C22	C	1.209104	-0.151837	0.000046
C23	C	1.122015	-0.185356	0.000041
C24	C	1.036374	-0.145951	0.000027
C25	C	1.037831	-0.073034	0.000033
N26	N	1.051882	-0.295258	0.058038
N27	N	1.050504	-0.364526	0.058034
C28	C	1.117621	-0.405049	0.000020
N29	N	1.186182	-0.373687	-0.057977
N30	N	1.187562	-0.304413	-0.057969
C31	C	1.120426	-0.264421	0.000034
C32	C	1.201681	-0.523512	0.000010
C33	C	1.200224	-0.596432	-0.000013
C34	C	1.027491	-0.590543	-0.000022
C35	C	1.028951	-0.517625	-0.000009
C36	C	1.116048	-0.484114	0.000011
C37	C	1.111585	0.292451	-0.000004
C38	C	1.113134	0.370055	-0.000019
N39	N	1.102725	0.176252	0.265541
N40	N	1.135344	0.154275	-0.265498
C41	C	1.089925	0.184885	0.474582
C42	C	1.148141	0.145645	0.525468
C43	C	1.141019	0.150448	0.641785
C44	C	1.097046	0.180082	0.358254
H45	H	1.281479	-0.051639	0.000076
N46	N	0.631102	0.265173	-0.000019
H47	H	0.612782	0.288774	-0.063206
H48	H	0.605022	0.293961	0.063191
H49	H	0.617018	0.082947	-0.000039
N50	N	1.301465	-0.194338	0.000077
H51	H	1.287324	-0.245615	0.000074
H52	H	1.343329	-0.185489	-0.063092
N53	N	0.942442	-0.182097	0.000016
H54	H	0.954511	-0.234268	0.000017
H55	H	0.901099	-0.165459	0.063193
H56	H	1.034739	0.222085	0.518369
H57	H	1.203332	0.108443	0.481676
N58	N	0.945470	-0.030537	0.000023
H59	H	0.890076	-0.062832	0.000014
H60	H	0.938430	0.002449	0.063207
N61	N	1.295615	-0.487361	0.000028
H62	H	1.349643	-0.523386	0.000022
H63	H	1.303862	-0.459838	-0.063146
H64	H	0.956582	-0.617833	-0.000031
N65	N	1.292586	-0.638928	-0.000008
H66	H	1.347978	-0.606631	0.000009
H67	H	1.291854	-0.666705	0.063168
H68	H	0.959222	-0.485548	-0.000011
