data_functionalizedCrystal
_audit_creation_method	'MofGen! by Chris Wilmer'
_symmetry_space_group_name_H-M	'P1'
_symmetry_Int_Tables_number	1
_symmetry_cell_setting	triclinic
loop_
_symmetry_equiv_pos_as_xyz
  x,y,z
_cell_length_a	16.992694
_cell_length_b	14.519709
_cell_length_c	15.455313
_cell_angle_alpha	92.669068
_cell_angle_beta	87.142206
_cell_angle_gamma	87.174184
loop_
_atom_site_label
_atom_site_type_symbol
_atom_site_fract_x
_atom_site_fract_y
_atom_site_fract_z
O1	O	1.044092	0.191795	-0.072025
O2	O	0.815805	0.189648	-0.072051
O3	O	0.936001	0.056918	-0.072029
O4	O	0.923896	0.324525	-0.072046
O5	O	0.929127	0.064474	0.072232
O6	O	0.808932	0.197205	0.072210
O7	O	1.037219	0.199352	0.072236
Cu8	Cu	0.922447	0.198968	0.085395
Cu9	Cu	0.930576	0.190031	-0.085210
O10	O	0.917023	0.332082	0.072215
C11	C	0.783152	0.190666	0.000077
C12	C	0.696097	0.182430	0.000067
C13	C	0.645968	0.261890	0.000063
C14	C	0.564170	0.254147	0.000075
C15	C	0.532502	0.166943	0.000086
C16	C	0.582638	0.087478	0.000093
C17	C	0.664434	0.095222	0.000087
C18	C	0.288859	0.134847	0.000111
C19	C	0.207056	0.127109	0.000115
C20	C	0.188594	0.293779	0.000099
C21	C	0.270393	0.301515	0.000087
C22	C	0.320520	0.222050	0.000099
N23	N	0.448892	0.159027	0.000096
N24	N	0.404129	0.229968	0.000095
C25	C	0.932000	0.026296	0.000101
C26	C	0.930309	-0.076207	0.000102
C27	C	0.924087	-0.451550	0.000078
C28	C	0.925815	-0.347118	0.000085
C29	C	0.927198	-0.263882	0.000091
C30	C	0.928926	-0.159443	0.000096
C31	C	1.069872	0.198333	0.000107
C32	C	1.156927	0.206569	0.000111
C33	C	0.921024	0.362704	0.000082
C34	C	0.922715	0.465206	0.000076
N35	N	0.916736	0.205254	0.205390
N36	N	0.936294	0.183739	-0.205204
C37	C	0.967817	0.148889	0.250793
C38	C	0.963505	0.153651	0.341600
C39	C	0.908115	0.214784	0.387002
C40	C	0.857028	0.271151	0.341593
C41	C	0.861337	0.266383	0.250787
C42	C	0.889516	0.235339	0.658581
C43	C	0.885212	0.240104	0.749392
C44	C	0.991689	0.122602	0.749393
C45	C	0.995996	0.117844	0.658586
C46	C	0.944907	0.174208	0.613185
N47	N	0.903708	0.219655	0.479822
N48	N	0.949311	0.169331	0.520367
H49	H	0.705249	0.030517	0.000090
C50	C	1.019071	0.092424	0.390738
C51	C	1.068523	0.037893	0.331541
C52	C	1.119733	-0.018510	0.376775
H53	H	0.989233	0.053703	0.426179
H54	H	1.050116	0.129881	0.426129
H55	H	1.037482	0.000440	0.296166
H56	H	1.098378	0.076590	0.296099
H57	H	1.150777	0.018947	0.412165
H58	H	1.089888	-0.057225	0.412214
H59	H	1.153296	-0.055510	0.336617
H60	H	0.819740	0.312280	0.213821
C61	C	0.304927	0.396109	-0.000003
C62	C	0.387292	0.385881	-0.000049
C63	C	0.419134	0.472998	-0.000165
H64	H	0.285439	0.431822	0.050276
H65	H	0.290153	0.426425	-0.050344
H66	H	0.402060	0.355578	0.050287
H67	H	0.406803	0.350183	-0.050324
H68	H	0.404360	0.503314	-0.050506
H69	H	0.399640	0.508704	0.050115
H70	H	0.475022	0.466070	-0.000204
C71	C	0.134082	0.379967	-0.000040
C72	C	0.090093	0.376494	-0.074244
C73	C	0.039861	0.455872	-0.074392
H74	H	0.164560	0.433077	-0.000090
H75	H	0.099356	0.383048	0.050244
H76	H	0.124814	0.373423	-0.124514
H77	H	0.059598	0.323401	-0.074209
H78	H	0.005134	0.458953	-0.024108
H79	H	0.070345	0.508976	-0.074440
H80	H	0.010003	0.453523	-0.124733
C81	C	0.834011	0.296647	0.609452
C82	C	0.784599	0.351222	0.668652
C83	C	0.733464	0.407723	0.623423
H84	H	0.802928	0.259285	0.574038
H85	H	0.863930	0.335331	0.574035
H86	H	0.754684	0.312543	0.704054
H87	H	0.815661	0.388603	0.704068
H88	H	0.763382	0.446407	0.588006
H89	H	0.702386	0.370353	0.588010
H90	H	0.699937	0.444765	0.663583
C91	C	0.680192	0.356656	0.000095
C92	C	0.618778	0.424586	0.000118
C93	C	0.650271	0.511897	0.000162
H94	H	0.714093	0.360639	-0.050201
H95	H	0.709304	0.365826	0.050419
H96	H	0.589679	0.415418	-0.050202
H97	H	0.584871	0.420633	0.050410
H98	H	0.679383	0.521067	0.050486
H99	H	0.684172	0.515870	-0.050135
H100	H	0.608607	0.557998	0.000185
H101	H	1.041099	0.068065	0.621621
C102	C	0.172823	0.032345	0.000169
C103	C	0.234228	-0.035590	0.000200
C104	C	0.202721	-0.122892	0.000257
H105	H	0.143702	0.023096	-0.050124
H106	H	0.138925	0.028452	0.050496
H107	H	0.268112	-0.031700	-0.050122
H108	H	0.263354	-0.026372	0.050490
H109	H	0.168824	-0.126785	0.050584
H110	H	0.173601	-0.132131	-0.050037
H111	H	0.244379	-0.168996	0.000286
C112	C	1.047239	0.061354	0.798531
C113	C	1.096678	0.006809	0.739333
C114	C	1.147865	-0.049624	0.784565
H115	H	1.017384	0.022642	0.833964
H116	H	1.078293	0.098791	0.833928
H117	H	1.065627	-0.030625	0.703950
H118	H	1.126550	0.045496	0.703898
H119	H	1.178919	-0.012187	0.819963
H120	H	1.118003	-0.088329	0.819997
H121	H	1.181420	-0.086633	0.744407
C122	C	0.796846	0.337379	0.390998
C123	C	0.746319	0.287415	0.443164
C124	C	0.690877	0.348397	0.488695
H125	H	0.766957	0.370292	0.351052
H126	H	0.823403	0.379719	0.426459
H127	H	0.719764	0.245091	0.407706
H128	H	0.776185	0.254505	0.483126
H129	H	0.717434	0.390737	0.524157
H130	H	0.660994	0.381306	0.448743
H131	H	0.656593	0.314506	0.524101
H132	H	0.523358	0.318852	0.000071
H133	H	1.012925	0.099112	0.213832
H134	H	0.329663	0.070141	0.000121
H135	H	0.556847	0.016475	0.000114
H136	H	0.840105	0.289889	0.786355
