data_functionalizedCrystal
_audit_creation_method	'MofGen! by Chris Wilmer'
_symmetry_space_group_name_H-M	'P1'
_symmetry_Int_Tables_number	1
_symmetry_cell_setting	triclinic
loop_
_symmetry_equiv_pos_as_xyz
  x,y,z
_cell_length_a	19.288840
_cell_length_b	11.792254
_cell_length_c	18.366186
_cell_angle_alpha	89.993617
_cell_angle_beta	89.983729
_cell_angle_gamma	83.662307
loop_
_atom_site_label
_atom_site_type_symbol
_atom_site_fract_x
_atom_site_fract_y
_atom_site_fract_z
O1	O	0.922171	0.141446	-0.060672
O2	O	0.720017	0.160575	-0.060647
O3	O	0.825995	-0.014234	-0.060655
O4	O	0.816193	0.316255	-0.060664
O5	O	0.825977	-0.014243	0.060445
O6	O	0.719999	0.160566	0.060453
O7	O	0.922153	0.141437	0.060428
Zn8	Zn	0.821073	0.151000	0.079667
Zn9	Zn	0.821097	0.151012	-0.079886
O10	O	0.816175	0.316246	0.060436
C11	C	0.694128	0.159960	-0.000094
C12	C	0.617013	0.158126	-0.000084
C13	C	0.580814	0.157250	-0.066097
C14	C	0.508358	0.155515	-0.066106
C15	C	0.472104	0.154633	-0.000098
C16	C	0.508311	0.155515	0.065924
C17	C	0.580765	0.157262	0.065931
C18	C	0.362373	0.085385	0.050465
C19	C	0.289921	0.083631	0.050456
C20	C	0.248630	0.149250	-0.000117
C21	C	0.279801	0.216608	-0.050691
C22	C	0.352256	0.218355	-0.050684
C23	C	0.393539	0.152739	-0.000098
C24	C	0.133865	0.146494	-0.066144
C25	C	0.061406	0.144766	-0.066150
C26	C	0.061362	0.144755	0.065882
C27	C	0.133818	0.146495	0.065886
C28	C	0.170066	0.147359	-0.000129
C29	C	0.825369	-0.056520	-0.000105
C30	C	0.823521	-0.182505	-0.000105
C31	C	0.822019	-0.284818	-0.000108
C32	C	0.820141	-0.413176	-0.000114
C33	C	0.948042	0.142052	-0.000127
C34	C	1.025157	0.143886	-0.000141
C35	C	0.816802	0.358532	-0.000115
C36	C	0.818650	0.484517	-0.000120
N37	N	0.821062	0.150992	0.188559
N38	N	0.821114	0.151011	-0.188777
C39	C	0.868005	0.073624	0.226655
C40	C	0.868009	0.073619	0.302883
C41	C	0.821077	0.151001	0.341011
C42	C	0.774126	0.228375	0.302905
C43	C	0.774118	0.228370	0.226679
C44	C	0.812370	0.254413	0.461769
C45	C	0.812382	0.254419	0.537994
C46	C	0.821097	0.151015	0.576119
C47	C	0.829815	0.047601	0.538009
C48	C	0.829807	0.047596	0.461782
C49	C	0.821080	0.151014	0.423666
C50	C	0.868047	0.073636	0.696871
C51	C	0.868047	0.073629	0.773100
C52	C	0.774167	0.228395	0.773120
C53	C	0.774164	0.228391	0.696893
C54	C	0.821108	0.151013	0.658772
H55	H	0.395987	0.031947	0.091651
N56	N	0.803460	0.360051	0.576916
N57	N	0.753078	0.380905	0.619466
H58	H	0.746774	0.455512	0.646952
N59	N	0.170904	0.147413	-0.133566
N60	N	0.235595	0.148976	-0.133552
H61	H	0.261753	0.149631	-0.181169
H62	H	0.377632	0.273203	-0.091863
H63	H	0.735891	0.291373	0.195660
N64	N	0.024437	0.143887	-0.133591
N65	N	0.056813	0.144664	-0.192523
H66	H	0.030703	0.144045	-0.240156
N67	N	0.237624	0.283629	-0.102353
N68	N	0.172933	0.282066	-0.102353
H69	H	0.143142	0.329394	-0.138840
H70	H	0.478788	0.154800	0.119668
H71	H	0.836911	-0.036600	0.569048
N72	N	0.726185	0.307433	0.341837
N73	N	0.684275	0.376510	0.307809
H74	H	0.650412	0.432345	0.335303
H75	H	0.906271	0.010621	0.804119
N76	N	0.617746	0.158126	0.133366
N77	N	0.664275	0.079107	0.148101
H78	H	0.690395	0.079713	0.195728
H79	H	0.906227	0.010616	0.195620
N80	N	0.024326	0.143879	0.133302
N81	N	-0.040366	0.142333	0.133288
H82	H	-0.066527	0.141723	0.180906
H83	H	0.836903	-0.036607	0.430756
N84	N	0.170788	0.147381	0.133324
N85	N	0.138414	0.146595	0.192256
H86	H	0.164523	0.147222	0.239889
H87	H	0.735942	0.291396	0.665872
N88	N	0.726224	0.307421	0.812069
N89	N	0.726233	0.307411	0.880127
H90	H	0.692370	0.363222	0.907639
N91	N	0.617828	0.158133	-0.133534
N92	N	0.585493	0.157352	-0.192471
H93	H	0.611635	0.157978	-0.240099
N94	N	0.915981	-0.005388	0.341805
N95	N	0.959231	0.030467	0.384310
H96	H	0.993115	-0.025327	0.411795
H97	H	0.478879	0.154803	-0.119863
H98	H	0.264547	0.028779	0.091633
H99	H	0.906270	0.010626	0.665832
N100	N	0.803474	0.360056	0.422842
N101	N	0.795707	0.452378	0.456874
H102	H	0.789429	0.526987	0.429382
