data_functionalizedCrystal
_audit_creation_method	'MofGen! by Chris Wilmer'
_symmetry_space_group_name_H-M	'P1'
_symmetry_Int_Tables_number	1
_symmetry_cell_setting	triclinic
loop_
_symmetry_equiv_pos_as_xyz
  x,y,z
_cell_length_a	12.594516
_cell_length_b	12.594517
_cell_length_c	12.645323
_cell_angle_alpha	90.027778
_cell_angle_beta	89.974080
_cell_angle_gamma	89.988892
loop_
_atom_site_label
_atom_site_type_symbol
_atom_site_fract_x
_atom_site_fract_y
_atom_site_fract_z
Zn1	Zn	-0.423853	-1.627273	-0.599622
Zn2	Zn	-0.601863	-1.627162	-0.422365
Zn3	Zn	-0.423883	-1.449275	-0.422348
Zn4	Zn	-0.601775	-1.449259	-0.599562
O5	O	-0.512844	-1.538242	-0.510974
O6	O	-0.447491	-1.776204	-0.576141
O7	O	-0.578303	-1.603525	-0.274016
O8	O	-0.274933	-1.472940	-0.445882
O9	O	-0.578274	-1.776123	-0.445911
O10	O	-0.274911	-1.603715	-0.576125
O11	O	-0.447542	-1.472833	-0.274003
O12	O	-0.447457	-1.300327	-0.445824
O13	O	-0.578124	-1.472913	-0.747918
O14	O	-0.578153	-1.300316	-0.576022
O15	O	-0.447406	-1.603699	-0.747962
O16	O	-0.750797	-1.603510	-0.445853
O17	O	-0.750732	-1.472805	-0.576039
C18	C	-0.512799	-1.261702	-0.510915
C19	C	-0.512806	-1.143396	-0.510915
C20	C	-0.441632	-1.003355	-0.440250
C21	C	-0.415704	-1.074215	-0.536991
C22	C	-0.538686	-1.074108	-0.414184
C23	C	-0.486854	-1.003470	-0.607766
C24	C	-0.609881	-1.003357	-0.484895
C25	C	-0.583990	-1.074185	-0.581702
C26	C	-0.789384	-1.538173	-0.510964
C27	C	-0.907690	-1.538240	-0.510995
C28	C	-0.976947	-1.467143	-0.581753
C29	C	-1.047809	-1.441209	-0.485018
C30	C	-1.047626	-1.564272	-0.607747
C31	C	-0.976994	-1.512255	-0.414208
C32	C	-0.976805	-1.635363	-0.537003
C33	C	-1.047636	-1.609465	-0.440201
C34	C	-0.235223	-1.538342	-0.511008
C35	C	-0.116917	-1.538384	-0.511022
C36	C	-0.512752	-1.538317	-0.787480
C37	C	-0.512713	-1.538348	-0.905310
C38	C	-0.512869	-0.815863	-0.511013
C39	C	-0.512832	-0.934169	-0.510974
C40	C	-0.594930	-1.456076	-0.950164
C41	C	-0.594621	-1.455786	-1.072724
C42	C	-0.400360	-1.508355	-1.073207
C43	C	-0.400902	-1.507725	-0.950609
C44	C	-0.541726	-1.650890	-0.950513
C45	C	-0.544134	-1.650319	-1.073119
C46	C	-0.512858	-1.538230	-0.235545
C47	C	-0.512598	-1.538405	-0.117715
H48	H	-0.333617	-1.105319	-0.559043
H49	H	-0.644191	-1.105087	-0.641555
O50	O	-1.088500	-1.689188	-0.360868
H51	H	-1.058789	-1.769466	-0.381820
H52	H	-0.376353	-1.425473	-0.922002
O53	O	-0.705547	-1.480608	-0.911116
H54	H	-0.758214	-1.496333	-0.979709
O55	O	-0.935695	-1.744168	-0.566047
H56	H	-0.964018	-1.765585	-0.646378
O57	O	-0.704845	-1.480633	-1.112602
H58	H	-0.734136	-1.413370	-1.161199
H59	H	-0.626737	-1.672983	-1.102207
H60	H	-1.078652	-1.586231	-0.689558
H61	H	-0.337392	-1.566459	-1.102349
H62	H	-0.945907	-1.406911	-0.641504
H63	H	-0.575931	-1.373159	-0.919343
O64	O	-0.567668	-1.115210	-0.305793
H65	H	-0.568123	-1.203331	-0.306949
O66	O	-0.367225	-1.400618	-1.113846
H67	H	-0.354485	-1.346127	-1.046019
O68	O	-0.470600	-1.735857	-1.113674
H69	H	-0.430521	-1.774853	-1.045865
O70	O	-0.648349	-1.687200	-0.909585
H71	H	-0.681854	-1.625430	-0.856561
H72	H	-0.691941	-0.972211	-0.462827
O73	O	-0.457730	-0.962547	-0.716187
H74	H	-0.516484	-0.991575	-0.774857
H75	H	-0.575356	-1.372411	-1.102041
O76	O	-1.089125	-1.332500	-0.455874
H77	H	-1.060821	-1.273563	-0.514709
O78	O	-0.936082	-1.483033	-0.305808
H79	H	-0.847957	-1.483159	-0.306659
H80	H	-0.481839	-1.712183	-0.921514
O81	O	-0.361839	-0.962146	-0.361157
H82	H	-0.281331	-0.990526	-0.383040
O83	O	-0.316956	-1.583662	-0.911290
H84	H	-0.276147	-1.620666	-0.979844
