data_functionalizedCrystal
_audit_creation_method	'MofGen! by Chris Wilmer'
_symmetry_space_group_name_H-M	'P1'
_symmetry_Int_Tables_number	1
_symmetry_cell_setting	triclinic
loop_
_symmetry_equiv_pos_as_xyz
  x,y,z
_cell_length_a	16.109301
_cell_length_b	11.792254
_cell_length_c	15.186229
_cell_angle_alpha	89.996078
_cell_angle_beta	89.999006
_cell_angle_gamma	83.830091
loop_
_atom_site_label
_atom_site_type_symbol
_atom_site_fract_x
_atom_site_fract_y
_atom_site_fract_z
O1	O	1.103822	0.145886	-0.073181
O2	O	1.603822	0.645886	0.426819
O3	O	0.861846	0.164040	-0.073193
O4	O	1.361846	0.664040	0.426807
O5	O	0.988701	-0.010258	-0.073180
O6	O	1.488701	0.489742	0.426820
O7	O	0.976967	0.320184	-0.073193
O8	O	1.476967	0.820184	0.426807
O9	O	0.988692	-0.010260	0.073277
O10	O	1.488692	0.489740	0.573277
O11	O	0.861837	0.164038	0.073264
O12	O	1.361837	0.664038	0.573264
O13	O	1.103813	0.145883	0.073277
O14	O	1.603813	0.645883	0.573277
Zn15	Zn	0.982824	0.154960	0.096524
Zn16	Zn	1.482824	0.654960	0.596524
Zn17	Zn	0.982835	0.154963	-0.096440
Zn18	Zn	1.482835	0.654963	0.403560
O19	O	0.976959	0.320182	0.073264
O20	O	1.476959	0.820182	0.573264
C21	C	0.830863	0.163304	0.000034
C22	C	1.330863	0.663304	0.500034
C23	C	0.738558	0.161099	0.000030
C24	C	1.238558	0.661099	0.500030
C25	C	0.430015	0.257316	0.000041
C26	C	0.930015	0.757316	0.500041
C27	C	0.516746	0.259399	0.000036
C28	C	1.016746	0.759399	0.500036
C29	C	0.535639	0.052599	0.000032
C30	C	1.035639	0.552599	0.500032
C31	C	0.448910	0.050518	0.000031
C32	C	0.948910	0.550518	0.500031
C33	C	0.396100	0.152880	0.000040
C34	C	0.896100	0.652880	0.500040
C35	C	0.569559	0.157044	0.000036
C36	C	1.069559	0.657044	0.500036
C37	C	0.663596	0.159300	0.000030
C38	C	1.163596	0.659300	0.500030
C39	C	0.302058	0.150623	0.000044
C40	C	0.802058	0.650623	0.500044
C41	C	0.987957	-0.052543	0.000048
C42	C	1.487957	0.447457	0.500048
C43	C	0.985745	-0.178537	0.000047
C44	C	1.485745	0.321463	0.500047
C45	C	0.983947	-0.280858	0.000044
C46	C	1.483947	0.219142	0.500044
C47	C	0.981700	-0.409225	0.000036
C48	C	1.481700	0.090775	0.500036
C49	C	1.134796	0.146620	0.000048
C50	C	1.634796	0.646620	0.500048
C51	C	1.227102	0.148825	0.000047
C52	C	1.727102	0.648825	0.500047
C53	C	0.977702	0.362467	0.000034
C54	C	1.477702	0.862467	0.500034
C55	C	0.979915	0.488461	0.000029
C56	C	1.479915	0.988461	0.500029
N57	N	0.982822	0.154957	0.228216
N58	N	1.482822	0.654957	0.728216
N59	N	0.982843	0.154957	-0.228133
N60	N	1.482843	0.654957	0.271867
C61	C	1.039013	0.077804	0.453945
C62	C	1.539013	0.577804	0.953945
C63	C	1.039016	0.077801	0.546135
C64	C	1.539016	0.577801	1.046135
C65	C	0.926647	0.232114	0.546132
C66	C	1.426647	0.732114	1.046132
C67	C	0.926641	0.232111	0.453944
C68	C	1.426641	0.732111	0.953944
C69	C	0.982829	0.154957	0.407853
C70	C	1.482829	0.654957	0.907853
C71	C	0.982837	0.154958	0.592231
C72	C	1.482837	0.654958	1.092231
C73	C	0.982840	0.154955	0.692187
C74	C	1.482840	0.654955	1.192187
C75	C	0.982825	0.154957	0.307891
C76	C	1.482825	0.654957	0.807891
H77	H	0.544354	0.344441	0.000036
H78	H	1.044354	0.844441	0.500036
H79	H	1.084763	0.014979	0.416420
H80	H	1.584763	0.514979	0.916420
H81	H	0.421297	-0.034531	0.000027
H82	H	0.921297	0.465469	0.500027
N83	N	1.096408	-0.001022	0.593202
N84	N	1.596408	0.498978	1.093202
N85	N	1.146565	-0.069903	0.552035
N86	N	1.646565	0.430097	1.052035
H87	H	1.187100	-0.125579	0.585275
H88	H	1.687100	0.374421	1.085275
N89	N	0.589595	-0.051945	0.000022
N90	N	1.089595	0.448055	0.500022
N91	N	0.667030	-0.050075	0.000022
N92	N	1.167030	0.449925	0.500022
H93	H	0.705137	-0.123911	0.000016
H94	H	1.205137	0.376089	0.500016
N95	N	0.869235	0.310925	0.406870
N96	N	1.369235	0.810925	0.906870
N97	N	0.819076	0.379810	0.448031
N98	N	1.319076	0.879810	0.948031
H99	H	0.778532	0.435468	0.414785
H100	H	1.278532	0.935468	0.914785
H101	H	0.880901	0.294933	0.583669
H102	H	1.380901	0.794933	1.083669
H103	H	0.387020	0.340666	0.000048
H104	H	0.887020	0.840666	0.500048
