data_functionalizedCrystal
_audit_creation_method	'MofGen! by Chris Wilmer'
_symmetry_space_group_name_H-M	'P1'
_symmetry_Int_Tables_number	1
_symmetry_cell_setting	triclinic
loop_
_symmetry_equiv_pos_as_xyz
  x,y,z
_cell_length_a	10.654545
_cell_length_b	11.792241
_cell_length_c	9.730223
_cell_angle_alpha	90.004551
_cell_angle_beta	90.002833
_cell_angle_gamma	84.338247
loop_
_atom_site_label
_atom_site_type_symbol
_atom_site_fract_x
_atom_site_fract_y
_atom_site_fract_z
O1	O	1.667391	0.159395	0.114277
O2	O	2.167391	0.659395	0.614277
O3	O	1.301869	0.174589	0.114283
O4	O	1.801869	0.674589	0.614283
O5	O	1.493501	0.001842	0.114270
O6	O	1.993501	0.501842	0.614270
O7	O	1.475760	0.332142	0.114290
O8	O	1.975760	0.832142	0.614290
O9	O	1.493488	0.001837	-0.114310
O10	O	1.993488	0.501837	0.385690
O11	O	1.301857	0.174584	-0.114297
O12	O	1.801857	0.674584	0.385703
O13	O	1.667379	0.159390	-0.114303
O14	O	2.167379	0.659390	0.385697
Zn15	Zn	1.484616	0.166987	-0.150592
Zn16	Zn	1.984616	0.666987	0.349408
Zn17	Zn	1.484632	0.166993	0.150572
Zn18	Zn	1.984632	0.666993	0.650572
O19	O	1.475748	0.332138	-0.114290
O20	O	1.975748	0.832138	0.385710
C21	C	1.255068	0.173472	-0.000007
C22	C	1.755068	0.673472	0.499993
C23	C	1.115634	0.170138	-0.000005
C24	C	1.615634	0.670138	0.499995
C25	C	1.050127	0.168565	-0.124604
C26	C	1.550127	0.668565	0.375396
C27	C	0.919117	0.165413	-0.124605
C28	C	1.419117	0.665413	0.375395
C29	C	0.919131	0.165411	0.124606
C30	C	1.419131	0.665411	0.624606
C31	C	1.050140	0.168555	0.124604
C32	C	1.550140	0.668555	0.624604
C33	C	1.492380	-0.040454	-0.000020
C34	C	1.992380	0.459546	0.499980
C35	C	1.489045	-0.166475	-0.000018
C36	C	1.989045	0.333525	0.499982
C37	C	1.482911	-0.397202	0.000005
C38	C	1.982911	0.102798	0.500005
C39	C	1.486319	-0.268809	-0.000008
C40	C	1.986319	0.231191	0.499992
C41	C	1.714180	0.160507	-0.000011
C42	C	2.214180	0.660507	0.499989
C43	C	1.853614	0.163842	-0.000004
C44	C	2.353614	0.663842	0.499996
C45	C	1.476868	0.374433	0.000002
C46	C	1.976868	0.874433	0.500002
C47	C	1.480204	0.500455	0.000010
C48	C	1.980204	1.000455	0.500010
N49	N	1.484614	0.166982	-0.356129
N50	N	1.984614	0.666982	0.143871
C51	C	1.569497	0.090522	-0.428060
C52	C	2.069497	0.590522	0.071940
C53	C	1.569510	0.090522	-0.571943
C54	C	2.069510	0.590522	-0.071943
C55	C	1.399752	0.243452	-0.571950
C56	C	1.899752	0.743452	-0.071950
C57	C	1.399734	0.243446	-0.428070
C58	C	1.899734	0.743446	0.071930
N59	N	1.484644	0.166989	0.356108
N60	N	1.984644	0.666989	0.856108
H61	H	1.103449	0.169854	-0.226069
H62	H	1.603449	0.669854	0.273931
H63	H	0.865787	0.164133	-0.226066
H64	H	1.365787	0.664133	0.273934
Cl65	Cl	1.676222	-0.005605	-0.662367
Cl66	Cl	2.176222	0.494395	-0.162367
H67	H	1.103478	0.169832	0.226075
H68	H	1.603478	0.669832	0.726075
Cl69	Cl	1.676199	-0.005609	-0.337625
Cl70	Cl	2.176199	0.494391	0.162375
H71	H	1.330646	0.305709	-0.630539
H72	H	1.830646	0.805709	-0.130539
H73	H	0.865789	0.164123	0.226058
H74	H	1.365789	0.664123	0.726058
Cl75	Cl	1.293009	0.339569	-0.337633
Cl76	Cl	1.793009	0.839569	0.162367
