data_functionalizedCrystal
_audit_creation_method	'MofGen! by Chris Wilmer'
_symmetry_space_group_name_H-M	'P1'
_symmetry_Int_Tables_number	1
_symmetry_cell_setting	triclinic
loop_
_symmetry_equiv_pos_as_xyz
  x,y,z
_cell_length_a	14.908993
_cell_length_b	19.121063
_cell_length_c	14.908308
_cell_angle_alpha	84.445373
_cell_angle_beta	83.629285
_cell_angle_gamma	95.622943
loop_
_atom_site_label
_atom_site_type_symbol
_atom_site_fract_x
_atom_site_fract_y
_atom_site_fract_z
Zn1	Zn	1.340281	-0.239371	0.445940
Zn2	Zn	1.342455	-0.350224	0.301022
Zn3	Zn	1.197653	-0.239405	0.303321
Zn4	Zn	1.181586	-0.364638	0.461889
O5	O	1.265494	-0.298410	0.378043
O6	O	1.467585	-0.248030	0.419080
O7	O	1.330881	-0.329505	0.174316
O8	O	1.222387	-0.140598	0.316527
O9	O	1.469182	-0.329472	0.312609
O10	O	1.327176	-0.140573	0.421309
O11	O	1.224495	-0.248087	0.176005
O12	O	1.068507	-0.262064	0.331992
O13	O	1.195003	-0.354040	0.586784
O14	O	1.056702	-0.354072	0.448492
O15	O	1.311596	-0.262007	0.575066
O16	O	1.315301	-0.450938	0.328074
O17	O	1.197111	-0.461529	0.446263
C18	C	1.029671	-0.309637	0.392222
C19	C	0.928782	-0.314458	0.398311
C20	C	0.751440	-0.227581	0.288595
C21	C	0.656647	-0.232108	0.294313
C22	C	0.644401	-0.328043	0.415459
C23	C	0.739194	-0.323515	0.409741
C24	C	0.792711	-0.273282	0.346308
C25	C	0.887506	-0.268752	0.340596
C26	C	0.875258	-0.364689	0.461737
C27	C	0.780464	-0.369216	0.467454
C28	C	1.254722	-0.481852	0.388668
C29	C	1.250195	-0.560326	0.393238
C30	C	1.309646	-0.591657	0.333897
C31	C	1.305393	-0.665393	0.338200
C32	C	1.241685	-0.707797	0.401842
C33	C	1.182232	-0.676461	0.461190
C34	C	1.186489	-0.602727	0.456890
C35	C	1.225753	-0.930704	0.417906
C36	C	1.221499	-1.004443	0.422200
C37	C	1.344662	-0.993369	0.299210
C38	C	1.348910	-0.919634	0.294912
C39	C	1.289460	-0.888305	0.354263
C40	C	1.237335	-0.783166	0.406241
C41	C	1.293815	-0.812937	0.349868
C42	C	1.502238	-0.287139	0.363809
C43	C	1.603124	-0.282336	0.357743
C44	C	1.251265	-0.309628	0.614778
C45	C	1.245201	-0.314408	0.715661
C46	C	1.276331	-0.114251	0.367395
C47	C	1.280949	-0.035774	0.362858
C48	C	1.279723	-0.287182	0.142223
C49	C	1.285974	-0.282194	0.041319
C50	C	1.355214	-0.227541	0.893029
C51	C	1.349520	-0.232030	0.987817
C52	C	1.228115	-0.327871	1.000026
C53	C	1.233809	-0.323382	0.905238
C54	C	1.297362	-0.273216	0.851743
C55	C	1.303060	-0.268731	0.756953
C56	C	1.181651	-0.364569	0.769164
C57	C	1.175957	-0.369058	0.863952
H58	H	0.795015	-0.186671	0.236956
H59	H	1.353804	-0.690898	0.289877
Cl60	Cl	1.419400	-1.032759	0.224608
Cl61	Cl	1.157246	-0.836480	0.486245
H62	H	1.354809	-0.227884	0.713399
H63	H	1.400786	-0.885110	0.243090
Cl64	Cl	0.713178	-0.432371	0.547183
Cl65	Cl	0.604767	-0.174654	0.221754
Cl66	Cl	1.141391	-1.057751	0.502202
H67	H	1.406965	-0.186697	0.849472
H68	H	1.138079	-0.577219	0.505214
Cl69	Cl	0.577108	-0.391212	0.495164
H70	H	1.177345	-0.905202	0.466230
Cl71	Cl	1.373906	-0.759628	0.269868
Cl72	Cl	0.927145	-0.422132	0.534312
Cl73	Cl	1.389735	-0.538356	0.253880
H74	H	1.130363	-0.710992	0.513013
H75	H	1.396627	-0.194834	1.021428
H76	H	1.176374	-0.368714	1.043598
Cl77	Cl	1.096066	-0.432120	0.931211
Cl78	Cl	1.108928	-0.422000	0.717256
H79	H	0.931078	-0.227845	0.288950
