data_functionalizedCrystal
_audit_creation_method	'MofGen! by Chris Wilmer'
_symmetry_space_group_name_H-M	'P1'
_symmetry_Int_Tables_number	1
_symmetry_cell_setting	triclinic
loop_
_symmetry_equiv_pos_as_xyz
  x,y,z
_cell_length_a	19.188930
_cell_length_b	14.519709
_cell_length_c	13.596369
_cell_angle_alpha	90.006934
_cell_angle_beta	90.019208
_cell_angle_gamma	83.412462
loop_
_atom_site_label
_atom_site_type_symbol
_atom_site_fract_x
_atom_site_fract_y
_atom_site_fract_z
O1	O	-0.926555	-0.115137	-0.082110
O2	O	-0.426555	0.384863	0.417890
O3	O	-0.723299	-0.130636	-0.082043
O4	O	-0.223299	0.369364	0.417957
O5	O	-0.830316	0.011385	-0.082069
O6	O	-0.330316	0.511385	0.417931
O7	O	-0.819538	-0.257158	-0.082083
O8	O	-0.319538	0.242842	0.417917
O9	O	-0.830306	0.011393	0.081514
O10	O	-0.330306	0.511393	0.581514
O11	O	-0.723289	-0.130629	0.081540
O12	O	-0.223289	0.369371	0.581540
O13	O	-0.926545	-0.115130	0.081473
O14	O	-0.426545	0.384870	0.581473
Zn15	Zn	-0.824915	-0.122878	0.107479
Zn16	Zn	-0.324915	0.377122	0.607479
Zn17	Zn	-0.824929	-0.122888	-0.108049
Zn18	Zn	-0.324929	0.377112	0.391951
O19	O	-0.819528	-0.257151	0.081500
O20	O	-0.319528	0.242849	0.581500
C21	C	-0.829809	0.045746	-0.000277
C22	C	-0.329809	0.545746	0.499723
C23	C	-0.828304	0.148118	-0.000276
C24	C	-0.328304	0.648118	0.499724
C25	C	-0.697281	-0.130131	-0.000242
C26	C	-0.197281	0.369869	0.499758
C27	C	-0.619771	-0.128624	-0.000217
C28	C	-0.119771	0.371376	0.499783
C29	C	-0.952563	-0.115635	-0.000329
C30	C	-0.452563	0.384365	0.499671
C31	C	-1.030073	-0.117142	-0.000361
C32	C	-0.530073	0.382858	0.499639
C33	C	-0.575144	-0.211957	-0.000236
C34	C	-0.075144	0.288043	0.499764
C35	C	-0.502315	-0.210542	-0.000247
C36	C	-0.002315	0.289458	0.499753
C37	C	-0.474117	-0.125788	-0.000258
C38	C	0.025883	0.374212	0.499742
C39	C	-0.518754	-0.042444	-0.000232
C40	C	-0.018754	0.457556	0.499768
C41	C	-0.591581	-0.043861	-0.000212
C42	C	-0.091581	0.456139	0.499788
N43	N	-0.365910	-0.061007	-0.055968
N44	N	0.134090	0.438993	0.444032
N45	N	-0.296726	-0.059666	-0.055990
N46	N	0.203274	0.440334	0.444010
C47	C	-0.254693	-0.121511	-0.000318
C48	C	0.245307	0.378489	0.499682
N49	N	-0.284455	-0.184762	0.055365
N50	N	0.215545	0.315238	0.555365
N51	N	-0.353645	-0.186106	0.055382
N52	N	0.146355	0.313894	0.555382
C53	C	-0.395149	-0.124241	-0.000280
C54	C	0.104851	0.375759	0.499720
C55	C	-0.131096	-0.203315	-0.000348
C56	C	0.368904	0.296685	0.499652
C57	C	-0.058266	-0.201896	-0.000352
C58	C	0.441734	0.298104	0.499648
C59	C	-0.074706	-0.033796	-0.000348
C60	C	0.425294	0.466204	0.499652
C61	C	-0.147535	-0.035217	-0.000333
C62	C	0.352465	0.464783	0.499667
C63	C	-0.175725	-0.119980	-0.000338
C64	C	0.324275	0.380020	0.499662
C65	C	-0.820035	-0.291511	-0.000294
C66	C	-0.320035	0.208489	0.499706
C67	C	-0.821541	-0.393883	-0.000302
C68	C	-0.321541	0.106117	0.499698
N69	N	-0.824911	-0.122871	0.254571
N70	N	-0.324911	0.377129	0.754571
C71	C	-0.822762	0.522979	-0.000300
C72	C	-0.322762	1.022979	0.499700
C73	C	-0.824301	0.418681	-0.000293
C74	C	-0.324301	0.918681	0.499707
C75	C	-0.825533	0.335552	-0.000287
C76	C	-0.325533	0.835552	0.499713
C77	C	-0.827072	0.231247	-0.000282
C78	C	-0.327072	0.731247	0.499718
N79	N	-0.824939	-0.122888	-0.255140
N80	N	-0.324939	0.377112	0.244860
C81	C	-0.824928	-0.122889	0.655862
C82	C	-0.324928	0.377111	1.155862
C83	C	-0.824921	-0.122887	0.544210
C84	C	-0.324921	0.377113	1.044210
C85	C	-0.824920	-0.122880	0.455220
C86	C	-0.324920	0.377120	0.955220
C87	C	-0.824912	-0.122877	0.343561
C88	C	-0.324912	0.377123	0.843561
H89	H	-0.598091	-0.280978	-0.000242
H90	H	-0.098091	0.219022	0.499758
H91	H	-0.465973	-0.278404	-0.000261
H92	H	0.034027	0.221596	0.499739
F93	F	-0.161101	-0.293526	-0.000345
F94	F	0.338899	0.206474	0.499655
H95	H	-0.495790	0.026564	-0.000255
H96	H	0.004210	0.526564	0.499745
H97	H	-0.627917	0.024001	-0.000196
H98	H	-0.127917	0.524001	0.499804
F99	F	-0.010770	-0.290597	-0.000368
F100	F	0.489230	0.209403	0.499632
H101	H	-0.051748	0.035213	-0.000417
H102	H	0.448252	0.535213	0.499583
H103	H	-0.183871	0.032642	-0.000322
H104	H	0.316129	0.532642	0.499678
