data_functionalizedCrystal
_audit_creation_method	'MofGen! by Chris Wilmer'
_symmetry_space_group_name_H-M	'P1'
_symmetry_Int_Tables_number	1
_symmetry_cell_setting	triclinic
loop_
_symmetry_equiv_pos_as_xyz
  x,y,z
_cell_length_a	16.625548
_cell_length_b	19.121449
_cell_length_c	16.625539
_cell_angle_alpha	92.469138
_cell_angle_beta	90.020568
_cell_angle_gamma	87.586203
loop_
_atom_site_label
_atom_site_type_symbol
_atom_site_fract_x
_atom_site_fract_y
_atom_site_fract_z
Zn1	Zn	1.246350	-0.279588	0.442220
Zn2	Zn	1.251996	-0.397043	0.301636
Zn3	Zn	1.111513	-0.279615	0.307399
Zn4	Zn	1.117223	-0.397003	0.436428
O5	O	1.181771	-0.338312	0.371920
O6	O	1.359932	-0.295174	0.423583
O7	O	1.233334	-0.381494	0.189566
O8	O	1.124647	-0.181328	0.330119
O9	O	1.364080	-0.381468	0.320297
O10	O	1.223711	-0.181309	0.429171
O11	O	1.130122	-0.295220	0.193800
O12	O	0.999438	-0.295181	0.324503
O13	O	1.134379	-0.381400	0.550030
O14	O	1.003633	-0.381426	0.419299
O15	O	1.229248	-0.295135	0.554285
O16	O	1.238871	-0.495321	0.314680
O17	O	1.139854	-0.495291	0.413711
C18	C	0.972280	-0.338302	0.371898
C19	C	0.882659	-0.338315	0.371907
C20	C	1.190616	-0.520790	0.362959
C21	C	1.194474	-0.598855	0.359153
C22	C	0.554484	-0.338320	0.371941
C23	C	0.645792	-0.338316	0.371929
C24	C	0.718568	-0.338318	0.371924
C25	C	0.809883	-0.338314	0.371913
C26	C	1.144699	-0.635540	0.408882
C27	C	1.148327	-0.708890	0.405302
C28	C	1.201736	-0.745553	0.351996
C29	C	1.251514	-0.708863	0.302262
C30	C	1.247880	-0.635514	0.305838
C31	C	1.215283	-0.967019	0.338617
C32	C	1.218914	-1.040372	0.335046
C33	C	1.115726	-1.040394	0.438085
C34	C	1.112101	-0.967044	0.441661
C35	C	1.161875	-0.930360	0.391923
C36	C	1.205448	-0.820529	0.348338
C37	C	1.158159	-0.855386	0.395578
C38	C	1.392080	-0.338323	0.371943
C39	C	1.481702	-0.338327	0.371953
C40	C	1.181821	-0.338260	0.582232
C41	C	1.181842	-0.338238	0.671854
C42	C	1.172913	-0.155122	0.380934
C43	C	1.169138	-0.077057	0.384775
C44	C	1.181765	-0.338314	0.162429
C45	C	1.181890	-0.338138	0.072817
C46	C	1.181875	-0.338159	1.000034
C47	C	1.181864	-0.338183	0.908724
C48	C	1.181859	-0.338199	0.835947
C49	C	1.181847	-0.338222	0.744631
H50	H	1.101211	-0.605693	0.452293
H51	H	1.107787	-0.738756	0.445789
H52	H	1.068611	-0.937194	0.485066
O53	O	1.309120	-0.748417	0.244777
H54	H	1.294635	-0.734403	0.182161
H55	H	1.075201	-1.070270	0.478578
O56	O	1.276515	-1.079921	0.277544
H57	H	1.310511	-1.042091	0.243552
H58	H	1.255813	-0.937156	0.298120
O59	O	1.301571	-0.595941	0.252208
H60	H	1.339327	-0.633757	0.214546
O61	O	1.100550	-0.815850	0.453071
H62	H	1.134961	-0.782382	0.495760
H63	H	1.248934	-0.850389	0.304937
