data_functionalizedCrystal
_audit_creation_method	'MofGen! by Chris Wilmer'
_symmetry_space_group_name_H-M	'P1'
_symmetry_Int_Tables_number	1
_symmetry_cell_setting	triclinic
loop_
_symmetry_equiv_pos_as_xyz
  x,y,z
_cell_length_a	12.759401
_cell_length_b	12.759400
_cell_length_c	21.395355
_cell_angle_alpha	89.986153
_cell_angle_beta	89.978044
_cell_angle_gamma	90.014668
loop_
_atom_site_label
_atom_site_type_symbol
_atom_site_fract_x
_atom_site_fract_y
_atom_site_fract_z
Zn1	Zn	1.606285	-0.418388	-0.354238
Zn2	Zn	1.606171	-0.594053	-0.249469
Zn3	Zn	1.430578	-0.418389	-0.249480
Zn4	Zn	1.430576	-0.594026	-0.354214
O5	O	1.518402	-0.506214	-0.301850
O6	O	1.753291	-0.441702	-0.340346
O7	O	1.582831	-0.570762	-0.161793
O8	O	1.453935	-0.271368	-0.263391
O9	O	1.753207	-0.570762	-0.263373
O10	O	1.583026	-0.271367	-0.340356
O11	O	1.453824	-0.441702	-0.161801
O12	O	1.283557	-0.441676	-0.263367
O13	O	1.453931	-0.570716	-0.441895
O14	O	1.283555	-0.570716	-0.340315
O15	O	1.583024	-0.441676	-0.441913
O16	O	1.582829	-0.741070	-0.263350
O17	O	1.453820	-0.741051	-0.340305
C18	C	1.245435	-0.506194	-0.301840
C19	C	1.128658	-0.506210	-0.301851
C20	C	0.964110	-0.439144	-0.341998
C21	C	1.073835	-0.439129	-0.341992
C22	C	1.073753	-0.573318	-0.261717
C23	C	0.964031	-0.573337	-0.261726
C24	C	0.909292	-0.372051	-0.382138
C25	C	0.964190	-0.304944	-0.422273
C26	C	1.073914	-0.304930	-0.422267
C27	C	1.128740	-0.372022	-0.382127
C28	C	1.518340	-0.779181	-0.301837
C29	C	1.518410	-0.895958	-0.301853
C30	C	1.585659	-0.950796	-0.261826
C31	C	1.585724	-1.060520	-0.261846
C32	C	1.451280	-1.060559	-0.341920
C33	C	1.451222	-0.950837	-0.341903
C34	C	1.652847	-0.895917	-0.221776
C35	C	1.720101	-0.950754	-0.181746
C36	C	1.720166	-1.060478	-0.181765
C37	C	1.652976	-1.115365	-0.221815
C38	C	1.792436	-0.506235	-0.301861
C39	C	1.909212	-0.506244	-0.301866
C40	C	1.518490	-0.506193	-0.465274
C41	C	1.518527	-0.506184	-0.534915
C42	C	1.518494	-0.232181	-0.301877
C43	C	1.518533	-0.115404	-0.301889
C44	C	1.585743	-0.438990	-0.567638
C45	C	1.585741	-0.438945	-0.633074
C46	C	1.518535	-0.506112	-0.665784
C47	C	1.451306	-0.573311	-0.633052
C48	C	1.451302	-0.573347	-0.567618
C49	C	1.510218	-0.600711	-0.769454
C50	C	1.510229	-0.600677	-0.834887
C51	C	1.518542	-0.506001	-0.867604
C52	C	1.526864	-0.411356	-0.834881
C53	C	1.526860	-0.411392	-0.769447
C54	C	1.518531	-0.506080	-0.736736
C55	C	1.585759	-0.438752	-0.971280
C56	C	1.585751	-0.438705	-1.036717
C57	C	1.451321	-0.573081	-1.036694
C58	C	1.451324	-0.573119	-0.971259
C59	C	1.518549	-0.505956	-0.938556
C60	C	1.518376	-0.506159	-0.139063
C61	C	1.518542	-0.505872	-0.069422
H62	H	1.218085	-0.371997	-0.382121
H63	H	1.533635	-0.334262	-0.861518
N64	N	1.792573	-0.891556	-0.138559
H65	H	1.749875	-0.846094	-0.109493
H66	H	1.835176	-0.943012	-0.113249
H67	H	0.919544	-0.250326	-0.454958
H68	H	1.640484	-0.383982	-1.063359
H69	H	1.118401	-0.627941	-0.229036
N70	N	1.658244	-0.366467	-0.668375
H71	H	1.733303	-0.382805	-0.657004
H72	H	1.647958	-0.376670	-0.714778
H73	H	1.396562	-0.628063	-0.540975
N74	N	0.790949	-0.372077	-0.382143
H75	H	0.764491	-0.352670	-0.339182
H76	H	0.764629	-0.319405	-0.413688
H77	H	1.118610	-0.250295	-0.454951
H78	H	1.396462	-0.906188	-0.374497
N79	N	1.378809	-1.119762	-0.385105
H80	H	1.303741	-1.100732	-0.375330
H81	H	1.395164	-1.100600	-0.429862
N82	N	1.792699	-1.119634	-0.138597
H83	H	1.867748	-1.100469	-0.148359
H84	H	1.776312	-1.100570	-0.093836
H85	H	1.653042	-1.204709	-0.221832
N86	N	0.904810	-0.645712	-0.218444
H87	H	0.956184	-0.688207	-0.193011
H88	H	0.859261	-0.602884	-0.189497
N89	N	1.658245	-0.366540	-0.532375
H90	H	1.641949	-0.291469	-0.543761
H91	H	1.648019	-0.376836	-0.485966
N92	N	1.535823	-0.309313	-0.734158
H93	H	1.471821	-0.299475	-0.706996
H94	H	1.600599	-0.310808	-0.707058
N95	N	1.652770	-0.777573	-0.221752
H96	H	1.705535	-0.751127	-0.190307
H97	H	1.672004	-0.751169	-0.264758
H98	H	1.640492	-0.384059	-0.944652
H99	H	1.396590	-0.627760	-1.063326
N100	N	1.378810	-0.645576	-0.935959
H101	H	1.336227	-0.688114	-0.966608
H102	H	1.421537	-0.694222	-0.908814
N103	N	1.501256	-0.702750	-0.870181
H104	H	1.561984	-0.749784	-0.858805
H105	H	1.433210	-0.738407	-0.858769
H106	H	1.503168	-0.677788	-0.742821
H107	H	1.396583	-0.627996	-0.659689
