data_functionalizedCrystal
_audit_creation_method	'MofGen! by Chris Wilmer'
_symmetry_space_group_name_H-M	'P1'
_symmetry_Int_Tables_number	1
_symmetry_cell_setting	triclinic
loop_
_symmetry_equiv_pos_as_xyz
  x,y,z
_cell_length_a	11.792241
_cell_length_b	12.837942
_cell_length_c	11.892113
_cell_angle_alpha	86.039625
_cell_angle_beta	94.339465
_cell_angle_gamma	90.488822
loop_
_atom_site_label
_atom_site_type_symbol
_atom_site_fract_x
_atom_site_fract_y
_atom_site_fract_z
O1	O	1.528436	-0.148113	0.093892
O2	O	1.199583	-0.162767	0.093918
O3	O	1.356717	-0.004496	0.093899
O4	O	1.371302	-0.306384	0.093911
O5	O	1.342467	0.007413	-0.094108
O6	O	1.185333	-0.150858	-0.094089
O7	O	1.514186	-0.136204	-0.094115
Zn8	Zn	1.347497	-0.141640	-0.123952
Zn9	Zn	1.366272	-0.157331	0.123755
O10	O	1.357052	-0.294475	-0.094095
C11	C	1.150074	-0.155892	-0.000082
C12	C	1.023781	-0.153138	-0.000072
N13	N	1.334691	-0.130931	-0.293005
C14	C	1.344665	0.040107	-0.000104
C15	C	1.329972	0.155266	-0.000101
C16	C	0.792553	-0.148070	-0.000105
C17	C	0.921225	-0.150886	-0.000087
C18	C	1.563695	-0.143079	-0.000112
C19	C	1.689988	-0.145834	-0.000115
C20	C	1.369104	-0.339078	-0.000091
C21	C	1.383798	-0.454238	-0.000086
C22	C	1.506618	0.395231	-0.000091
C23	C	1.492818	0.503435	-0.000088
C24	C	1.288572	0.479878	-0.000084
C25	C	1.302372	0.371674	-0.000087
C26	C	1.411399	0.329356	-0.000092
C27	C	1.425198	0.221151	-0.000103
C28	C	1.220953	0.197596	-0.000091
C29	C	1.207153	0.305799	-0.000088
C30	C	1.468184	-0.242604	-0.529660
C31	C	1.459242	-0.235110	-0.648001
C32	C	1.307869	-0.108442	-0.648032
C33	C	1.316812	-0.115937	-0.529690
C34	C	1.396971	-0.183021	-0.470508
C35	C	1.405908	-0.190520	-0.352165
C36	C	1.254541	-0.063848	-0.352198
C37	C	1.245599	-0.056354	-0.470539
N38	N	1.379085	-0.168032	0.292809
H39	H	1.513972	0.186697	-0.000112
H40	H	1.242618	-0.053814	-0.696238
H41	H	1.118386	0.340270	-0.000079
H42	H	1.143418	0.143948	-0.000100
H43	H	1.533443	-0.297237	-0.481473
H44	H	1.180339	-0.001732	-0.518742
H45	H	1.196549	-0.015336	-0.304025
H46	H	1.471173	-0.245148	-0.303980
H47	H	1.595391	0.360776	-0.000107
H48	H	1.570356	0.557067	-0.000084
H49	H	1.517232	-0.283628	-0.696157
H50	H	1.199808	0.514352	-0.000067
