data_functionalizedCrystal
_audit_creation_method	'MofGen! by Chris Wilmer'
_symmetry_space_group_name_H-M	'P1'
_symmetry_Int_Tables_number	1
_symmetry_cell_setting	triclinic
loop_
_symmetry_equiv_pos_as_xyz
  x,y,z
_cell_length_a	10.654552
_cell_length_b	16.109298
_cell_length_c	15.186229
_cell_angle_alpha	90.001652
_cell_angle_beta	89.996278
_cell_angle_gamma	83.973119
loop_
_atom_site_label
_atom_site_type_symbol
_atom_site_fract_x
_atom_site_fract_y
_atom_site_fract_z
O1	O	1.666251	0.116784	-0.073225
O2	O	1.999584	0.450117	0.260108
O3	O	2.332918	0.783451	0.593442
O4	O	1.300622	0.127907	-0.073224
O5	O	1.633955	0.461240	0.260110
O6	O	1.967288	0.794574	0.593443
O7	O	1.493483	0.001374	-0.073231
O8	O	1.826816	0.334708	0.260103
O9	O	2.160149	0.668041	0.593436
O10	O	1.473390	0.243317	-0.073218
O11	O	1.806723	0.576650	0.260115
O12	O	2.140057	0.909984	0.593449
O13	O	1.493470	0.001372	0.073227
O14	O	1.826803	0.334706	0.406560
O15	O	2.160136	0.668039	0.739893
O16	O	1.300609	0.127905	0.073234
O17	O	1.633942	0.461239	0.406567
O18	O	1.967276	0.794572	0.739900
O19	O	1.666238	0.116782	0.073232
O20	O	1.999571	0.450115	0.406566
O21	O	2.332905	0.783449	0.739899
Zn22	Zn	1.483421	0.122343	0.096486
Zn23	Zn	1.816755	0.455677	0.429820
Zn24	Zn	2.150088	0.789010	0.763153
Zn25	Zn	1.483438	0.122346	-0.096478
Zn26	Zn	1.816772	0.455679	0.236856
Zn27	Zn	2.150105	0.789013	0.570189
O28	O	1.473377	0.243315	0.073239
O29	O	1.806711	0.576648	0.406573
O30	O	2.140044	0.909982	0.739906
C31	C	1.253829	0.127089	0.000005
C32	C	1.587162	0.460422	0.333338
C33	C	1.920495	0.793756	0.666671
C34	C	1.114419	0.124644	0.000005
C35	C	1.447752	0.457977	0.333338
C36	C	1.781085	0.791311	0.666671
C37	C	0.917919	0.121193	0.079833
C38	C	1.251252	0.454527	0.413166
C39	C	1.584586	0.787860	0.746500
C40	C	1.048908	0.123496	0.079838
C41	C	1.382242	0.456829	0.413171
C42	C	1.715575	0.790162	0.746504
C43	C	1.048931	0.123498	-0.079838
C44	C	1.382265	0.456832	0.253495
C45	C	1.715598	0.790165	0.586829
C46	C	0.917943	0.121202	-0.079842
C47	C	1.251277	0.454535	0.253491
C48	C	1.584610	0.787869	0.586825
C49	C	1.218266	0.175257	0.175759
C50	C	1.551600	0.508591	0.509093
C51	C	1.884933	0.841924	0.842426
C52	C	1.283751	0.176391	0.255600
C53	C	1.617085	0.509724	0.588934
C54	C	1.950418	0.843058	0.922267
C55	C	1.250871	0.127013	0.326085
C56	C	1.584204	0.460346	0.659418
C57	C	1.917537	0.793680	0.992752
C58	C	1.152511	0.076481	0.316732
C59	C	1.485844	0.409814	0.650066
C60	C	1.819178	0.743148	0.983399
C61	C	1.087034	0.075340	0.236890
C62	C	1.420368	0.408673	0.570223
C63	C	1.753701	0.742007	0.903557
C64	C	1.119909	0.124737	0.166408
C65	C	1.453243	0.458071	0.499742
C66	C	1.786576	0.791404	0.833075
C67	C	0.748584	0.069433	-0.175758
C68	C	1.081918	0.402767	0.157575
C69	C	1.415251	0.736100	0.490909
C70	C	0.683106	0.068286	-0.255601
C71	C	1.016440	0.401619	0.077732
C72	C	1.349773	0.734953	0.411065
C73	C	0.715985	0.117659	-0.326093
C74	C	1.049319	0.450992	0.007240
C75	C	1.382652	0.784326	0.340573
C76	C	0.814352	0.168179	-0.316749
C77	C	1.147685	0.501512	0.016584
C78	C	1.481018	0.834845	0.349917
C79	C	0.879830	0.169326	-0.236906
C80	C	1.213163	0.502659	0.096427
C81	C	1.546496	0.835992	0.429761
C82	C	0.846941	0.119954	-0.166414
C83	C	1.180274	0.453288	0.166920
C84	C	1.513608	0.786621	0.500253
C85	C	1.492663	-0.029607	-0.000005
C86	C	1.825996	0.303727	0.333328
C87	C	2.159330	0.637060	0.666661
C88	C	1.490225	-0.121916	-0.000016
C89	C	1.823558	0.211417	0.333318
C90	C	2.156892	0.544750	0.666651
C91	C	1.713031	0.117600	0.000002
C92	C	2.046365	0.450934	0.333335
C93	C	2.379698	0.784267	0.666669
C94	C	1.852441	0.120045	-0.000004
C95	C	2.185775	0.453379	0.333330
C96	C	2.519108	0.786712	0.666663
C97	C	1.482276	-0.421032	-0.079831
C98	C	1.815609	-0.087698	0.253502
C99	C	2.148942	0.245635	0.586835
C100	C	1.484584	-0.334298	-0.079837
C101	C	1.817917	-0.000965	0.253496
C102	C	2.151250	0.332369	0.586829
C103	C	1.484588	-0.334286	0.079838
C104	C	1.817921	-0.000952	0.413172
C105	C	2.151254	0.332381	0.746505
C106	C	1.482289	-0.421018	0.079844
C107	C	1.815622	-0.087685	0.413177
C108	C	2.148956	0.245648	0.746510
C109	C	1.481127	-0.464389	0.000006
C110	C	1.814460	-0.131055	0.333340
C111	C	2.147793	0.202278	0.666673
C112	C	1.485733	-0.290922	-0.000005
C113	C	1.819067	0.042411	0.333328
C114	C	2.152400	0.375745	0.666661
C115	C	1.488236	-0.196882	-0.000012
C116	C	1.821569	0.136452	0.333322
C117	C	2.154902	0.469785	0.666655
C118	C	1.478627	-0.558435	0.000012
C119	C	1.811960	-0.225102	0.333345
C120	C	2.145293	0.108231	0.666679
C121	C	1.474197	0.274296	0.000012
C122	C	1.807530	0.607629	0.333345
C123	C	2.140864	0.940962	0.666679
C124	C	1.476635	0.366606	0.000017
C125	C	1.809968	0.699939	0.333350
C126	C	2.143302	1.033272	0.666683
N127	N	1.483419	0.122341	0.228179
N128	N	1.816752	0.455675	0.561512
N129	N	2.150086	0.789008	0.894846
N130	N	1.483451	0.122341	-0.228170
N131	N	1.816784	0.455675	0.105163
N132	N	2.150117	0.789008	0.438496
C133	C	1.568847	0.066332	0.453899
C134	C	1.902180	0.399665	0.787232
C135	C	2.235514	0.732998	1.120565
C136	C	1.568851	0.066330	0.546088
C137	C	1.902184	0.399663	0.879422
C138	C	2.235518	0.732996	1.212755
C139	C	1.398014	0.178354	0.546103
C140	C	1.731347	0.511687	0.879437
C141	C	2.064681	0.845020	1.212770
C142	C	1.398005	0.178351	0.453916
C143	C	1.731338	0.511684	0.787249
C144	C	2.064672	0.845018	1.120582
C145	C	1.483428	0.122341	0.407816
C146	C	1.816762	0.455674	0.741149
C147	C	2.150095	0.789008	1.074482
C148	C	1.483441	0.122342	0.592193
C149	C	1.816775	0.455675	0.925526
C150	C	2.150108	0.789008	1.258860
C151	C	1.483445	0.122340	0.692149
C152	C	1.816778	0.455673	1.025483
C153	C	2.150112	0.789007	1.358816
C154	C	1.483424	0.122341	0.307853
C155	C	1.816757	0.455675	0.641186
C156	C	2.150090	0.789008	0.974520
H157	H	0.864589	0.120262	0.144842
H158	H	1.197922	0.453595	0.478176
H159	H	1.531256	0.786928	0.811509
H160	H	1.485521	-0.299001	-0.144849
H161	H	1.818855	0.034333	0.188484
H162	H	2.152188	0.367666	0.521818
H163	H	1.638402	0.020724	0.416366
H164	H	1.971736	0.354057	0.749700
H165	H	2.305069	0.687390	1.083033
H166	H	0.959923	0.210466	-0.229301
H167	H	1.293257	0.543800	0.104032
H168	H	1.626590	0.877133	0.437365
H169	H	1.481357	-0.456321	0.144861
H170	H	1.814690	-0.122987	0.478194
H171	H	2.148023	0.210346	0.811528
H172	H	1.481328	-0.456341	-0.144840
H173	H	1.814661	-0.123008	0.188493
H174	H	2.147995	0.210326	0.521827
H175	H	1.485532	-0.298963	0.144839
H176	H	1.818865	0.034371	0.478172
H177	H	2.152198	0.367704	0.811506
H178	H	0.841125	0.208381	-0.374150
H179	H	1.174458	0.541714	-0.040817
H180	H	1.507791	0.875048	0.292516
H181	H	1.638405	0.020721	0.583607
H182	H	1.971738	0.354054	0.916940
H183	H	2.305071	0.687388	1.250273
H184	H	1.328466	0.223957	0.583647
H185	H	1.661799	0.557290	0.916981
H186	H	1.995132	0.890624	1.250314
H187	H	1.006952	0.034197	0.229275
H188	H	1.340286	0.367531	0.562608
H189	H	1.673619	0.700864	0.895941
H190	H	1.125758	0.036267	0.374128
H191	H	1.459091	0.369601	0.707461
H192	H	1.792425	0.702934	1.040794
H193	H	1.304197	0.127938	0.391093
H194	H	1.637531	0.461271	0.724427
H195	H	1.970864	0.794604	1.057760
H196	H	1.328441	0.223961	0.416392
H197	H	1.661774	0.557294	0.749725
H198	H	1.995108	0.890627	1.083059
H199	H	1.245037	0.215477	0.118374
H200	H	1.578370	0.548810	0.451707
H201	H	1.911704	0.882143	0.785040
H202	H	1.102279	0.124439	-0.144840
H203	H	1.435613	0.457772	0.188494
H204	H	1.768946	0.791105	0.521827
H205	H	0.662667	0.116716	-0.391107
H206	H	0.996000	0.450049	-0.057774
H207	H	1.329334	0.783383	0.275559
H208	H	1.363835	0.217540	0.263210
H209	H	1.697168	0.550873	0.596543
H210	H	2.030501	0.884207	0.929876
H211	H	0.721794	0.029234	-0.118357
H212	H	1.055127	0.362567	0.214976
H213	H	1.388461	0.695900	0.548310
H214	H	0.603012	0.027146	-0.263206
H215	H	0.936346	0.360479	0.070128
H216	H	1.269679	0.693812	0.403461
