data_functionalizedCrystal
_audit_creation_method	'MofGen! by Chris Wilmer'
_symmetry_space_group_name_H-M	'P1'
_symmetry_Int_Tables_number	1
_symmetry_cell_setting	triclinic
loop_
_symmetry_equiv_pos_as_xyz
  x,y,z
_cell_length_a	21.295420
_cell_length_b	21.295417
_cell_length_c	12.759387
_cell_angle_alpha	90.037489
_cell_angle_beta	90.023050
_cell_angle_gamma	90.027953
loop_
_atom_site_label
_atom_site_type_symbol
_atom_site_fract_x
_atom_site_fract_y
_atom_site_fract_z
Zn1	Zn	0.962349	-0.250605	0.594027
Zn2	Zn	0.962256	-0.355888	0.418327
Zn3	Zn	0.857075	-0.250634	0.418356
Zn4	Zn	0.857043	-0.355837	0.593959
O5	O	0.909680	-0.303241	0.506167
O6	O	1.050426	-0.264581	0.570737
O7	O	0.948278	-0.341959	0.271310
O8	O	0.871092	-0.162541	0.441701
O9	O	1.050357	-0.341932	0.441651
O10	O	0.948436	-0.162520	0.570765
O11	O	0.871002	-0.264629	0.271331
O12	O	0.768981	-0.264580	0.441634
O13	O	0.871037	-0.341845	0.740989
O14	O	0.768958	-0.341873	0.570648
O15	O	0.948405	-0.264532	0.741039
O16	O	0.948246	-0.443971	0.441584
O17	O	0.870947	-0.443934	0.570620
C18	C	0.746129	-0.303224	0.506137
C19	C	0.676161	-0.303232	0.506149
C20	C	0.176707	-0.343562	0.573280
C21	C	0.242450	-0.343562	0.573269
C22	C	0.275321	-0.303255	0.506200
C23	C	0.242445	-0.262957	0.439119
C24	C	0.176704	-0.262963	0.439125
N25	N	0.378561	-0.248139	0.498300
N26	N	0.441013	-0.248136	0.498301
C27	C	0.473396	-0.303238	0.506178
N28	N	0.440969	-0.358344	0.514075
N29	N	0.378511	-0.358347	0.514079
C30	C	0.346607	-0.303245	0.506187
C31	C	0.577550	-0.343537	0.573238
C32	C	0.643294	-0.343538	0.573220
C33	C	0.643288	-0.262928	0.439075
C34	C	0.577545	-0.262932	0.439088
C35	C	0.544680	-0.303236	0.506175
C36	C	0.909600	-0.466793	0.506114
C37	C	0.909624	-0.536761	0.506127
C38	C	0.949874	-0.569560	0.573379
C39	C	0.949896	-0.635302	0.573405
C40	C	0.909675	-0.668243	0.506160
C41	C	0.869417	-0.635437	0.438903
C42	C	0.869391	-0.569696	0.438886
N43	N	0.904917	-0.771512	0.414213
N44	N	0.904945	-0.833963	0.414232
C45	C	0.909748	-0.866318	0.506207
N46	N	0.914535	-0.833862	0.598165
N47	N	0.914510	-0.771405	0.598146
C48	C	0.909697	-0.739529	0.506171
C49	C	0.950024	-0.970402	0.573493
C50	C	0.950042	-1.036146	0.573521
C51	C	0.869566	-1.036279	0.439010
C52	C	0.869545	-0.970537	0.438991
C53	C	0.909778	-0.937602	0.506232
C54	C	1.073871	-0.303259	0.506198
C55	C	1.143839	-0.303266	0.506212
C56	C	0.909728	-0.303179	0.780201
C57	C	0.909748	-0.303153	0.896978
C58	C	0.909778	-0.139051	0.506244
C59	C	0.909820	-0.069083	0.506276
C60	C	0.909669	-0.303257	0.233200
C61	C	0.909771	-0.303106	0.116424
C62	C	0.990317	-0.222652	0.897050
C63	C	1.030610	-0.182392	0.951947
C64	C	1.030625	-0.182369	1.061669
C65	C	0.990342	-0.222609	1.116496
C66	C	0.950049	-0.262869	1.061599
C67	C	0.950039	-0.262889	0.951875
C68	C	0.869478	-0.343366	1.061527
C69	C	0.869465	-0.343393	0.951805
C70	C	0.829195	-0.383606	1.116354
C71	C	0.788904	-0.423871	1.061457
C72	C	0.788891	-0.423892	0.951729
C73	C	0.829172	-0.383653	0.896908
H74	H	0.269214	-0.230140	0.384510
H75	H	0.982632	-0.542746	0.628132
Cl76	Cl	1.000504	-0.676543	0.657950
H77	H	0.149943	-0.230147	0.384509
H78	H	0.550790	-0.376355	0.627863
H79	H	0.149952	-0.376382	0.627904
Cl80	Cl	0.818849	-0.676848	0.354373
H81	H	0.990314	-0.222672	0.807709
Cl82	Cl	1.081234	-0.131792	0.883017
H83	H	0.670054	-0.376356	0.627832
H84	H	0.670052	-0.230112	0.384463
Cl85	Cl	0.738264	-0.474449	1.130387
Cl86	Cl	0.283778	-0.394222	0.657591
Cl87	Cl	0.536223	-0.212267	0.354777
Cl88	Cl	0.818942	-0.929302	0.354441
Cl89	Cl	0.819000	-1.077685	0.354475
Cl90	Cl	0.738230	-0.474505	0.882725
H91	H	0.982782	-0.943586	0.628247
H92	H	0.836614	-0.542990	0.384121
H93	H	0.982818	-1.062850	0.628290
H94	H	1.063431	-0.149582	1.106366
Cl95	Cl	0.990357	-0.222573	1.254433
Cl96	Cl	0.829214	-0.383578	1.254291
H97	H	0.829168	-0.383670	0.807567
