data_functionalizedCrystal
_audit_creation_method	'MofGen! by Chris Wilmer'
_symmetry_space_group_name_H-M	'P1'
_symmetry_Int_Tables_number	1
_symmetry_cell_setting	triclinic
loop_
_symmetry_equiv_pos_as_xyz
  x,y,z
_cell_length_a	17.077404
_cell_length_b	15.297327
_cell_length_c	17.077396
_cell_angle_alpha	99.646061
_cell_angle_beta	89.982756
_cell_angle_gamma	99.707136
loop_
_atom_site_label
_atom_site_type_symbol
_atom_site_fract_x
_atom_site_fract_y
_atom_site_fract_z
Zn1	Zn	1.145934	-0.359152	-0.497893
Zn2	Zn	1.123118	-0.510028	-0.389334
Zn3	Zn	1.014666	-0.359186	-0.366647
Zn4	Zn	0.991914	-0.509973	-0.520549
O5	O	1.068908	-0.434585	-0.443606
O6	O	1.252753	-0.379176	-0.483506
O7	O	1.108705	-0.490056	-0.276483
O8	O	1.051149	-0.232935	-0.365081
O9	O	1.235991	-0.490024	-0.403748
O10	O	1.147591	-0.232910	-0.461507
O11	O	1.029026	-0.379233	-0.259815
O12	O	0.901803	-0.379179	-0.387049
O13	O	1.012372	-0.489929	-0.627385
O14	O	0.885087	-0.489961	-0.500120
O15	O	1.125530	-0.379121	-0.610740
O16	O	1.086644	-0.636268	-0.425716
O17	O	0.990249	-0.636227	-0.522119
C18	C	0.864963	-0.434569	-0.443581
C19	C	0.777711	-0.434583	-0.443593
C20	C	0.728024	-0.492355	-0.502402
C21	C	0.646044	-0.492357	-0.502415
C22	C	0.613750	-0.434591	-0.443615
C23	C	0.663444	-0.376813	-0.384803
C24	C	0.745423	-0.376808	-0.384794
C25	C	0.492571	-0.376831	-0.384824
C26	C	0.410585	-0.376838	-0.384832
C27	C	0.393191	-0.492380	-0.502445
C28	C	0.475171	-0.492374	-0.502436
C29	C	0.524858	-0.434598	-0.443623
C30	C	1.033523	-0.668982	-0.478855
C31	C	1.018457	-0.769258	-0.493961
C32	C	1.176913	-1.051879	-0.335909
C33	C	1.191068	-0.957665	-0.321712
C34	C	1.147916	-0.910559	-0.364773
C35	C	1.090607	-0.957676	-0.422033
C36	C	1.076446	-1.051899	-0.436227
C37	C	1.047450	-0.910579	-0.465091
C38	C	0.990141	-0.957696	-0.522351
C39	C	0.975983	-1.051910	-0.536543
C40	C	1.019134	-1.099017	-0.493482
C41	C	1.061611	-0.816355	-0.450897
C42	C	0.961145	-0.816375	-0.551215
C43	C	0.946990	-0.910589	-0.565412
C44	C	1.273650	-0.434602	-0.443630
C45	C	1.360899	-0.434609	-0.443641
C46	C	1.068958	-0.434515	-0.648339
C47	C	1.068980	-0.434485	-0.735585
C48	C	1.104453	-0.199273	-0.408236
C49	C	1.119601	-0.098997	-0.393164
C50	C	1.027507	-0.376773	-0.767894
C51	C	1.027523	-0.376752	-0.849872
C52	C	1.069016	-0.434440	-0.899538
C53	C	1.110490	-0.492159	-0.867223
C54	C	1.110469	-0.492184	-0.785248
C55	C	1.110533	-0.492103	-1.038085
C56	C	1.110555	-0.492078	-1.120066
C57	C	1.027586	-0.376671	-1.102709
C58	C	1.027565	-0.376696	-1.020733
C59	C	1.069041	-0.434414	-0.988425
C60	C	1.068914	-0.434589	-0.239658
C61	C	1.069083	-0.434365	-0.152375
H62	H	0.785879	-0.329759	-0.336909
H63	H	1.108272	-0.778001	-0.404276
C64	C	0.913676	-0.764562	-0.598587
N65	N	0.877926	-0.725531	-0.634264
H66	H	1.144271	-0.539135	-0.907669
H67	H	0.993723	-0.329791	-0.727460
C68	C	0.981909	-0.313254	-0.885406
N69	N	0.947553	-0.265422	-0.912170
H70	H	0.993817	-0.329674	-1.129018
C71	C	1.156194	-0.555544	-1.174698
N72	N	1.190568	-0.603349	-1.215848
H73	H	1.212035	-1.090242	-0.300850
C74	C	1.163504	-0.806920	-0.349169
N75	N	1.175253	-0.728855	-0.337419
C76	C	0.338534	-0.555931	-0.567144
N77	N	0.297363	-0.603797	-0.615871
H78	H	1.144248	-0.539172	-0.758943
H79	H	0.384297	-0.329789	-0.336960
C80	C	1.156156	-0.555598	-1.002548
N81	N	1.190521	-0.603420	-0.975781
C82	C	0.591389	-0.555927	-0.567097
N83	N	0.550222	-0.603817	-0.615814
H84	H	0.754310	-0.539397	-0.550282
H85	H	0.501460	-0.539417	-0.550313
H86	H	0.533026	-0.329775	-0.336938
H87	H	0.993781	-0.329717	-0.980296
H88	H	0.637145	-0.329776	-0.336930
H89	H	1.237727	-0.919306	-0.275091
H90	H	0.900327	-0.948966	-0.612033
H91	H	1.007614	-1.175734	-0.505040
H92	H	0.929309	-1.090270	-0.583158
