data_functionalizedCrystal
_audit_creation_method	'MofGen! by Chris Wilmer'
_symmetry_space_group_name_H-M	'P1'
_symmetry_Int_Tables_number	1
_symmetry_cell_setting	triclinic
loop_
_symmetry_equiv_pos_as_xyz
  x,y,z
_cell_length_a	16.959455
_cell_length_b	16.625545
_cell_length_c	16.959447
_cell_angle_alpha	90.029927
_cell_angle_beta	90.014322
_cell_angle_gamma	90.022505
loop_
_atom_site_label
_atom_site_type_symbol
_atom_site_fract_x
_atom_site_fract_y
_atom_site_fract_z
Zn1	Zn	1.208354	-0.321051	0.446911
Zn2	Zn	1.708354	0.178949	0.946911
Zn3	Zn	1.208263	-0.455899	0.314733
Zn4	Zn	1.708263	0.044101	0.814733
Zn5	Zn	1.076182	-0.321077	0.314748
Zn6	Zn	1.576182	0.178923	0.814748
Zn7	Zn	1.076134	-0.455839	0.446872
Zn8	Zn	1.576134	0.044161	0.946872
O9	O	1.142233	-0.388466	0.380816
O10	O	1.642233	0.111534	0.880816
O11	O	1.318953	-0.338954	0.429387
O12	O	1.818953	0.161046	0.929387
O13	O	1.190725	-0.438050	0.204124
O14	O	1.690725	0.061950	0.704124
O15	O	1.093773	-0.208241	0.332303
O16	O	1.593773	0.291759	0.832303
O17	O	1.318886	-0.438026	0.332277
O18	O	1.818886	0.061974	0.832277
O19	O	1.190879	-0.208222	0.429402
O20	O	1.690879	0.291778	0.929402
O21	O	1.093685	-0.338997	0.204135
O22	O	1.593685	0.161003	0.704135
O23	O	0.965565	-0.338939	0.332265
O24	O	1.465565	0.161061	0.832265
O25	O	1.093691	-0.437923	0.557488
O26	O	1.593691	0.062077	1.057488
O27	O	0.965530	-0.437947	0.429335
O28	O	1.465530	0.062053	0.929335
O29	O	1.190832	-0.338895	0.557517
O30	O	1.690832	0.161105	1.057517
O31	O	1.190678	-0.568723	0.332239
O32	O	1.690678	-0.068723	0.832239
O33	O	1.093604	-0.568679	0.429321
O34	O	1.593604	-0.068679	0.929321
C35	C	0.936867	-0.388440	0.380798
C36	C	1.436867	0.111560	0.880798
C37	C	0.849010	-0.388448	0.380809
C38	C	1.349010	0.111552	0.880809
C39	C	0.477529	-0.336870	0.330377
C40	C	0.977529	0.163130	0.830377
C41	C	0.477541	-0.440129	0.431300
C42	C	0.977541	0.059871	0.931300
C43	C	0.560087	-0.440117	0.431295
C44	C	1.060087	0.059883	0.931295
C45	C	0.601358	-0.388482	0.380830
C46	C	1.101358	0.111518	0.880830
C47	C	0.560082	-0.336859	0.330369
C48	C	1.060082	0.163141	0.830369
C49	C	0.601368	-0.491746	0.481750
C50	C	1.101368	0.008254	0.981750
C51	C	0.683919	-0.491737	0.481746
C52	C	1.183919	0.008263	0.981746
C53	C	0.725191	-0.440097	0.431284
C54	C	1.225191	0.059903	0.931284
C55	C	0.683911	-0.388471	0.380822
C56	C	1.183911	0.111529	0.880822
C57	C	0.725182	-0.336836	0.330356
C58	C	1.225182	0.163164	0.830356
C59	C	0.683903	-0.285205	0.279897
C60	C	1.183903	0.214795	0.779897
C61	C	0.601355	-0.285219	0.279907
C62	C	1.101355	0.214781	0.779907
C63	C	0.807740	-0.440083	0.431275
C64	C	1.307740	0.059917	0.931275
C65	C	0.807735	-0.336824	0.330348
C66	C	1.307735	0.163176	0.830348
C67	C	1.142147	-0.597957	0.380791
C68	C	1.642147	-0.097957	0.880791
C69	C	1.142183	-0.687578	0.380807
C70	C	1.642183	-0.187578	0.880807
C71	C	1.142214	-0.760361	0.380823
C72	C	1.642214	-0.260361	0.880823
C73	C	1.142260	-0.851669	0.380840
C74	C	1.642260	-0.351669	0.880840
C75	C	1.142301	-0.924446	0.380850
C76	C	1.642301	-0.424446	0.880850
C77	C	1.142346	-1.015760	0.380866
C78	C	1.642346	-0.515760	0.880866
C79	C	1.348402	-0.388494	0.380835
C80	C	1.848402	0.111506	0.880835
C81	C	1.436258	-0.388505	0.380843
C82	C	1.936258	0.111495	0.880843
C83	C	1.142266	-0.388400	0.586984
C84	C	1.642266	0.111600	1.086984
C85	C	1.142280	-0.388371	0.674841
C86	C	1.642280	0.111629	1.174841
C87	C	1.142341	-0.178157	0.380858
C88	C	1.642341	0.321843	0.880858
C89	C	1.142387	-0.088536	0.380876
C90	C	1.642387	0.411464	0.880876
C91	C	1.142246	-0.388475	0.175450
C92	C	1.642246	0.111525	0.675450
C93	C	1.142385	-0.388276	0.087594
C94	C	1.642385	0.111724	0.587594
C95	C	1.091798	-0.439845	1.046304
C96	C	1.591798	0.060155	1.546304
C97	C	1.192952	-0.336727	1.046329
C98	C	1.692952	0.163273	1.546329
C99	C	1.192931	-0.336744	0.963783
C100	C	1.692931	0.163256	1.463783
C101	C	1.142343	-0.388313	0.922494
C102	C	1.642343	0.111687	1.422494
C103	C	1.091777	-0.439866	0.963751
C104	C	1.591777	0.060134	1.463751
C105	C	1.243502	-0.285199	0.922521
C106	C	1.743502	0.214801	1.422521
C107	C	1.243483	-0.285214	0.839970
C108	C	1.743483	0.214786	1.339970
C109	C	1.192891	-0.336780	0.798679
C110	C	1.692891	0.163220	1.298679
C111	C	1.142322	-0.388334	0.839941
C112	C	1.642322	0.111666	1.339941
C113	C	1.091735	-0.439903	0.798651
C114	C	1.591735	0.060097	1.298651
C115	C	1.041161	-0.491453	0.839911
C116	C	1.541161	0.008547	1.339911
C117	C	1.041185	-0.491431	0.922460
C118	C	1.541185	0.008569	1.422460
C119	C	1.192868	-0.336802	0.716130
C120	C	1.692868	0.163198	1.216130
C121	C	1.091714	-0.439923	0.716098
C122	C	1.591714	0.060077	1.216098
H123	H	0.567738	-0.243185	0.238825
H124	H	1.067738	0.256815	0.738825
H125	H	0.717516	-0.243167	0.238805
H126	H	1.217516	0.256833	0.738805
H127	H	1.284692	-0.243219	0.956144
H128	H	1.784692	0.256781	1.456144
H129	H	1.050620	-0.481814	1.079902
H130	H	1.550620	0.018186	1.579902
H131	H	1.000013	-0.533403	0.956061
H132	H	1.500013	-0.033403	1.456061
Cl133	Cl	0.859612	-0.271903	0.266906
Cl134	Cl	1.359612	0.228097	0.766906
Cl135	Cl	0.425657	-0.505055	0.494722
Cl136	Cl	0.925657	-0.005055	0.994722
H137	H	0.717521	-0.533777	0.522834
H138	H	1.217521	-0.033777	1.022834
H139	H	1.284663	-0.243239	0.806382
H140	H	1.784663	0.256761	1.306382
Cl141	Cl	1.256446	-0.272007	0.664264
Cl142	Cl	1.756446	0.227993	1.164264
H143	H	0.443916	-0.294831	0.289297
H144	H	0.943916	0.205169	0.789297
Cl145	Cl	1.256549	-0.271907	1.098237
Cl146	Cl	1.756549	0.228093	1.598237
H147	H	0.567760	-0.533790	0.522831
H148	H	1.067760	-0.033790	1.022831
H149	H	0.841345	-0.482122	0.472355
H150	H	1.341345	0.017878	0.972355
Cl151	Cl	1.028110	-0.504753	0.664198
Cl152	Cl	1.528110	-0.004753	1.164198
H153	H	0.999976	-0.533444	0.806283
H154	H	1.499976	-0.033444	1.306283
