data_functionalizedCrystal
_audit_creation_method	'MofGen! by Chris Wilmer'
_symmetry_space_group_name_H-M	'P1'
_symmetry_Int_Tables_number	1
_symmetry_cell_setting	triclinic
loop_
_symmetry_equiv_pos_as_xyz
  x,y,z
_cell_length_a	19.288867
_cell_length_b	9.130313
_cell_length_c	19.288865
_cell_angle_alpha	90.005079
_cell_angle_beta	83.136658
_cell_angle_gamma	90.001518
loop_
_atom_site_label
_atom_site_type_symbol
_atom_site_fract_x
_atom_site_fract_y
_atom_site_fract_z
O1	O	0.921346	0.121765	0.086650
O2	O	0.719086	0.121781	0.098337
O3	O	0.826061	0.121743	-0.008637
O4	O	0.814372	0.121802	0.193623
O5	O	0.826053	-0.121855	-0.008631
O6	O	0.719079	-0.121818	0.098343
O7	O	0.921339	-0.121834	0.086656
Cu8	Cu	0.820208	-0.144068	0.092500
Cu9	Cu	0.820217	0.144015	0.092493
O10	O	0.814364	-0.121796	0.193630
C11	C	0.693206	-0.000017	0.097964
C12	C	0.616102	-0.000012	0.096834
C13	C	0.060541	0.132755	0.088694
C14	C	0.132989	0.132761	0.089752
C15	C	0.169213	-0.000025	0.090287
C16	C	0.132987	-0.132825	0.089747
C17	C	0.060541	-0.132827	0.088683
C18	C	0.278537	-0.101743	0.132657
C19	C	0.350981	-0.101736	0.133726
C20	C	0.392659	-0.000024	0.093566
C21	C	0.361883	0.101705	0.052347
C22	C	0.289438	0.101703	0.051283
C23	C	0.247768	-0.000037	0.091440
C24	C	0.507433	0.132775	0.095247
C25	C	0.579883	0.132775	0.096300
C26	C	0.579878	-0.132815	0.096302
C27	C	0.507431	-0.132811	0.095243
C28	C	0.471213	-0.000012	0.094718
N29	N	0.820207	-0.346691	0.092505
C30	C	0.862199	-0.423348	0.134523
C31	C	0.862209	-0.576684	0.134510
C32	C	0.778230	-0.576695	0.050460
C33	C	0.778224	-0.423361	0.050469
C34	C	0.904182	-0.346678	0.176558
C35	C	0.946177	-0.423335	0.218580
C36	C	0.946187	-0.576672	0.218567
C37	C	0.904203	-0.653352	0.176532
C38	C	0.947219	-0.000033	0.087029
C39	C	1.024323	-0.000028	0.088159
C40	C	0.825681	-0.000060	-0.034510
C41	C	0.824552	-0.000073	-0.111614
N42	N	0.820223	0.346638	0.092482
C43	C	0.887320	-0.000085	-0.156310
C44	C	0.886259	-0.000062	-0.228757
C45	C	0.822427	-0.000056	-0.256505
C46	C	0.759651	-0.000035	-0.211799
C47	C	0.760713	-0.000044	-0.139354
C48	C	0.772245	-0.085379	-0.364790
C49	C	0.771185	-0.085380	-0.437235
C50	C	0.819147	-0.000023	-0.479951
C51	C	0.868181	0.085315	-0.450214
C52	C	0.869244	0.085307	-0.377769
C53	C	0.821268	-0.000046	-0.335059
C54	C	0.880769	-0.000008	-0.603202
C55	C	0.879706	0.000024	-0.675650
C56	C	0.753096	0.000036	-0.658691
C57	C	0.754161	0.000019	-0.586245
C58	C	0.818000	-0.000010	-0.558505
C59	C	0.814744	0.000011	0.219503
C60	C	0.815873	0.000033	0.296607
H61	H	0.376030	-0.184538	0.167306
H62	H	0.609371	0.240908	0.096731
Cl63	Cl	0.461895	-0.299749	0.094580
Cl64	Cl	0.904170	-0.153912	0.176579
Cl65	Cl	0.904225	-0.846120	0.176509
H66	H	0.609372	-0.240931	0.096736
H67	H	0.980363	-0.360892	0.252799
Cl68	Cl	0.226150	-0.229637	0.183140
H69	H	0.907236	0.154822	-0.484992
H70	H	0.031052	-0.240959	0.088249
Cl71	Cl	0.178525	-0.299756	0.090417
H72	H	0.744047	-0.639140	0.016238
H73	H	0.980386	-0.639082	0.252778
H74	H	0.937374	-0.000066	-0.265155
Cl75	Cl	0.725447	-0.326985	-0.002368
Cl76	Cl	0.711945	-0.192700	-0.311098
H77	H	0.939302	-0.000104	-0.133729
H78	H	0.909167	0.154795	-0.353561
Cl79	Cl	0.961022	-0.000053	-0.568326
Cl80	Cl	0.958622	0.000019	-0.731841
Cl81	Cl	0.672849	0.000053	-0.693567
Cl82	Cl	0.675248	0.000027	-0.530052
Cl83	Cl	0.015013	0.299702	0.088030
H84	H	0.731256	-0.154859	-0.461440
H85	H	0.707678	-0.000027	-0.234396
Cl86	Cl	0.681798	-0.000029	-0.083161
H87	H	0.162483	0.240892	0.090192
H88	H	0.264384	0.184531	0.017719
H89	H	0.477943	0.240908	0.094818
Cl90	Cl	0.414270	0.229586	0.001860
