data_functionalizedCrystal
_audit_creation_method	'MofGen! by Chris Wilmer'
_symmetry_space_group_name_H-M	'P1'
_symmetry_Int_Tables_number	1
_symmetry_cell_setting	triclinic
loop_
_symmetry_equiv_pos_as_xyz
  x,y,z
_cell_length_a	19.288864
_cell_length_b	15.995292
_cell_length_c	14.472311
_cell_angle_alpha	89.994868
_cell_angle_beta	89.981079
_cell_angle_gamma	83.302432
loop_
_atom_site_label
_atom_site_type_symbol
_atom_site_fract_x
_atom_site_fract_y
_atom_site_fract_z
O1	O	0.921602	0.104457	-0.077131
O2	O	1.421602	0.604457	0.422869
O3	O	0.719375	0.118548	-0.077067
O4	O	1.219375	0.618548	0.422933
O5	O	0.826037	-0.010409	-0.077102
O6	O	1.326037	0.489591	0.422898
O7	O	0.814939	0.233415	-0.077096
O8	O	1.314939	0.733415	0.422904
O9	O	0.826028	-0.010422	0.076580
O10	O	1.326028	0.489578	0.576580
O11	O	0.719365	0.118536	0.076615
O12	O	1.219365	0.618536	0.576615
O13	O	0.921592	0.104445	0.076551
O14	O	1.421592	0.604445	0.576551
Cu15	Cu	0.820478	0.111489	0.090615
Cu16	Cu	1.320478	0.611489	0.590615
Cu17	Cu	0.820489	0.111504	-0.091131
Cu18	Cu	1.320489	0.611504	0.408869
O19	O	0.814930	0.233402	0.076586
O20	O	1.314930	0.733402	0.576586
C21	C	0.693493	0.118089	-0.000218
C22	C	1.193493	0.618089	0.499782
C23	C	0.616386	0.116728	-0.000194
C24	C	1.116386	0.616728	0.499806
C25	C	0.825581	-0.041609	-0.000263
C26	C	1.325581	0.458391	0.499737
C27	C	0.824227	-0.134557	-0.000270
C28	C	1.324227	0.365443	0.499730
C29	C	0.571873	0.192394	-0.000206
C30	C	1.071873	0.692394	0.499794
C31	C	0.499423	0.191115	-0.000216
C32	C	0.999423	0.691115	0.499784
C33	C	0.471489	0.114166	-0.000233
C34	C	0.971489	0.614166	0.499767
C35	C	0.516011	0.038490	-0.000215
C36	C	1.016011	0.538490	0.499785
C37	C	0.588460	0.039771	-0.000195
C38	C	1.088460	0.539771	0.499805
C39	C	0.363083	0.053680	-0.054107
C40	C	0.863083	0.553680	0.445893
C41	C	0.290636	0.052402	-0.054132
C42	C	0.790636	0.552402	0.445868
C43	C	0.248034	0.110212	-0.000289
C44	C	0.748034	0.610212	0.499711
C45	C	0.277886	0.169314	0.053568
C46	C	0.777886	0.669314	0.553568
C47	C	0.350335	0.170595	0.053588
C48	C	0.850335	0.670595	0.553588
C49	C	0.392931	0.112769	-0.000253
C50	C	0.892931	0.612769	0.499747
C51	C	0.124961	0.184497	-0.000311
C52	C	0.624961	0.684497	0.499689
C53	C	0.052510	0.183216	-0.000316
C54	C	0.552510	0.683216	0.499684
C55	C	0.069101	0.030588	-0.000323
C56	C	0.569101	0.530588	0.499677
C57	C	0.141550	0.031872	-0.000309
C58	C	0.641550	0.531872	0.499691
C59	C	0.169476	0.108829	-0.000308
C60	C	0.669476	0.608829	0.499692
C61	C	0.819248	-0.472277	-0.000260
C62	C	1.319248	0.027723	0.499740
C63	C	0.896234	-0.449255	0.000059
C64	C	1.396234	0.050745	0.500059
C65	C	0.897698	-0.352585	-0.000291
C66	C	1.397698	0.147415	0.499709
C67	C	0.821719	-0.304730	-0.000264
C68	C	1.321719	0.195270	0.499736
C69	C	0.783235	-0.333679	-0.088009
C70	C	1.283235	0.166321	0.411991
C71	C	0.782308	-0.430466	-0.088079
C72	C	1.282308	0.069534	0.411921
C73	C	0.780725	-0.430331	0.086687
C74	C	1.280725	0.069669	0.586687
C75	C	0.783578	-0.333850	0.087842
C76	C	1.283578	0.166150	0.587842
C77	C	0.823111	-0.210039	-0.000270
C78	C	1.323111	0.289961	0.499730
C79	C	0.817854	-0.566967	-0.000260
C80	C	1.317854	-0.066967	0.499740
C81	C	0.947474	0.104905	-0.000300
C82	C	1.447474	0.604905	0.499700
C83	C	1.024581	0.106266	-0.000330
C84	C	1.524581	0.606266	0.499670
C85	C	0.815386	0.264602	-0.000255
C86	C	1.315386	0.764602	0.499745
C87	C	0.816740	0.357550	-0.000254
C88	C	1.316740	0.857550	0.499746
N89	N	0.820475	0.111478	0.218446
N90	N	1.320475	0.611478	0.718446
C91	C	0.820483	0.111488	0.406947
C92	C	1.320483	0.611488	0.906947
C93	C	0.877569	0.042509	0.446129
C94	C	1.377569	0.542509	0.946129
C95	C	0.877776	0.042691	0.553217
C96	C	1.377776	0.542691	1.053217
C97	C	0.820490	0.111497	0.592538
C98	C	1.320490	0.611497	1.092538
C99	C	0.836004	0.198914	0.553640
C100	C	1.336004	0.698914	1.053640
C101	C	0.836410	0.198504	0.446519
C102	C	1.336410	0.698504	0.946519
C103	C	0.747711	0.093839	0.446460
C104	C	1.247711	0.593839	0.946460
C105	C	0.748204	0.091857	0.553589
C106	C	1.248204	0.591857	1.053589
C107	C	0.820493	0.111508	0.697426
C108	C	1.320493	0.611508	1.197426
C109	C	0.820481	0.111484	0.302058
C110	C	1.320481	0.611484	0.802058
N111	N	0.820498	0.111508	0.781038
N112	N	1.320498	0.611508	1.281038
H113	H	0.594605	0.255058	-0.000207
H114	H	1.094605	0.755058	0.499793
C115	C	0.704173	-0.448956	0.087522
C116	C	1.204173	0.051044	0.587522
N117	N	0.646518	-0.462994	0.088147
N118	N	1.146518	0.037006	0.588147
H119	H	0.811600	-0.315395	0.152756
H120	H	1.311600	0.184605	0.652756
H121	H	0.927837	-0.333678	0.062606
H122	H	1.427837	0.166322	0.562606
C123	C	0.450449	0.274357	-0.000241
C124	C	0.950449	0.774357	0.499759
N125	N	0.413565	0.337055	-0.000264
N126	N	0.913565	0.837055	0.499736
H127	H	0.046358	-0.032066	-0.000394
H128	H	0.546358	0.467934	0.499606
C129	C	0.383171	0.235598	0.112839
C130	C	0.883171	0.735598	0.612839
N131	N	0.407903	0.284556	0.157472
N132	N	0.907903	0.784556	0.657472
C133	C	0.865346	-0.045088	0.588750
C134	C	1.365346	0.454912	1.088750
N135	N	0.855982	-0.111207	0.615508
N136	N	1.355982	0.388793	1.115508
H137	H	0.888460	0.214838	0.580446
H138	H	1.388460	0.714838	1.080446
H139	H	0.703757	0.138841	0.580353
H140	H	1.203757	0.638841	1.080353
C141	C	0.231029	0.232909	0.112804
C142	C	0.731029	0.732909	0.612804
N143	N	0.195733	0.280806	0.157419
N144	N	0.695733	0.780806	0.657419
H145	H	0.796282	0.251256	0.420598
H146	H	1.296282	0.751256	0.920598
H147	H	0.925904	-0.477369	0.062984
H148	H	1.425904	0.022631	0.562984
C149	C	0.936106	-0.488596	-0.084500
C150	C	1.436106	0.011404	0.415500
N151	N	0.966136	-0.518229	-0.148191
N152	N	1.466136	-0.018229	0.351809
H153	H	0.147699	0.247160	-0.000296
H154	H	0.647699	0.747160	0.499704
H155	H	0.624703	-0.021848	-0.000186
H156	H	1.124703	0.478152	0.499814
C157	C	0.003545	0.266459	-0.000316
C158	C	0.503545	0.766459	0.499684
N159	N	-0.033337	0.329160	-0.000314
N160	N	0.466663	0.829160	0.499686
C161	C	0.781313	0.269938	0.588050
C162	C	1.281313	0.769938	1.088050
N163	N	0.740119	0.323433	0.613970
N164	N	1.240119	0.823433	1.113970
C165	C	0.707704	-0.290336	-0.092399
C166	C	1.207704	0.209664	0.407601
N167	N	0.650815	-0.257687	-0.095704
N168	N	1.150815	0.242313	0.404296
C169	C	0.938663	-0.327864	-0.085442
C170	C	1.438663	0.172136	0.414558
N171	N	0.969518	-0.309246	-0.149582
N172	N	1.469518	0.190754	0.350418
C173	C	0.257806	-0.012616	-0.113369
C174	C	0.757806	0.487384	0.386631
N175	N	0.233080	-0.061592	-0.157984
N176	N	0.733080	0.438408	0.342016
H177	H	0.804965	-0.458517	0.153199
H178	H	1.304965	0.041483	0.653199
H179	H	0.177794	-0.029744	-0.000304
H180	H	0.677794	0.470256	0.499696
H181	H	0.397765	0.006602	-0.097958
H182	H	0.897765	0.506602	0.402042
C183	C	0.950126	0.057547	0.409755
C184	C	1.450126	0.557547	0.909755
N185	N	1.004776	0.068881	0.382364
N186	N	1.504776	0.568881	0.882364
C187	C	0.485283	-0.046155	-0.000234
C188	C	0.985283	0.453845	0.499766
N189	N	0.462138	-0.109912	-0.000245
N190	N	0.962138	0.390088	0.499755
C191	C	0.818335	-0.466826	-0.176708
C192	C	1.318335	0.033174	0.323292
N193	N	0.845476	-0.494209	-0.243463
N194	N	1.345476	0.005791	0.256537
C195	C	0.727469	0.009553	0.409987
C196	C	1.227469	0.509553	0.909987
N197	N	0.712230	-0.053935	0.382515
N198	N	1.212230	0.446065	0.882515
C199	C	0.708655	-0.289031	0.095028
C200	C	1.208655	0.210969	0.595028
N201	N	0.652219	-0.255275	0.100433
N202	N	1.152219	0.244725	0.600433
H203	H	0.931786	0.053976	0.578821
H204	H	1.431786	0.553976	1.078821
H205	H	0.809967	-0.313714	-0.153328
H206	H	1.309967	0.186286	0.346672
H207	H	0.868540	-0.022685	0.420361
H208	H	1.368540	0.477315	0.920361
C209	C	0.908097	0.219494	0.412731
C210	C	1.408097	0.719494	0.912731
N211	N	0.962094	0.235301	0.387287
N212	N	1.462094	0.735301	0.887287
C213	C	0.706054	-0.449837	-0.093451
C214	C	1.206054	0.050163	0.406549
N215	N	0.648620	-0.464424	-0.097506
N216	N	1.148620	0.035576	0.402494
H217	H	0.736424	0.027550	0.579013
H218	H	1.236424	0.527550	1.079013
H219	H	0.705233	0.144142	0.421122
H220	H	1.205233	0.644142	0.921122
