data_functionalizedCrystal
_audit_creation_method	'MofGen! by Chris Wilmer'
_symmetry_space_group_name_H-M	'P1'
_symmetry_Int_Tables_number	1
_symmetry_cell_setting	triclinic
loop_
_symmetry_equiv_pos_as_xyz
  x,y,z
_cell_length_a	10.967926
_cell_length_b	17.699083
_cell_length_c	16.776229
_cell_angle_alpha	89.998886
_cell_angle_beta	102.133492
_cell_angle_gamma	95.986157
loop_
_atom_site_label
_atom_site_type_symbol
_atom_site_fract_x
_atom_site_fract_y
_atom_site_fract_z
O1	O	-0.157798	1.005076	-0.087849
O2	O	-0.178328	0.784827	-0.090695
O3	O	0.013601	0.900030	-0.064315
O4	O	-0.349728	0.889874	-0.114228
O5	O	0.013613	0.900014	0.068263
O6	O	-0.178317	0.784812	0.041883
O7	O	-0.157787	1.005061	0.044729
Zn8	Zn	-0.168050	0.894934	0.064356
Zn9	Zn	-0.168065	0.894954	-0.110322
O10	O	-0.349716	0.889858	0.018350
C11	C	-0.177587	0.756618	-0.024308
C12	C	-0.175380	0.672586	-0.024015
C13	C	-0.288039	0.624677	-0.039491
C14	C	-0.285958	0.545721	-0.039195
C15	C	-0.171216	0.514675	-0.023428
C16	C	-0.058549	0.562590	-0.007948
C17	C	-0.060631	0.641544	-0.008239
C18	C	-0.050149	0.244173	-0.006774
C19	C	-0.048075	0.165212	-0.006487
C20	C	-0.275475	0.148350	-0.037731
C21	C	-0.277557	0.227305	-0.038021
C22	C	-0.164890	0.275213	-0.022537
C23	C	-0.167148	0.360826	-0.022857
C24	C	-0.168957	0.429063	-0.023114
C25	C	-0.396210	0.890606	-0.054325
C26	C	-0.534727	0.892821	-0.073354
C27	C	-0.596477	0.893800	-0.013158
C28	C	-0.739642	0.896088	-0.032823
C29	C	0.060095	0.899282	0.008358
C30	C	0.198612	0.897067	0.027381
C31	C	-0.158528	1.033270	-0.021659
C32	C	-0.160735	1.117302	-0.021958
N33	N	-0.168038	0.894925	0.183569
N34	N	-0.168067	0.894969	-0.229533
C35	C	-0.083087	0.945953	0.236962
C36	C	-0.083086	0.945957	0.320414
C37	C	-0.168043	0.894937	0.350471
C38	C	-0.252999	0.843904	0.297071
C39	C	-0.252993	0.843897	0.213622
C40	C	-0.253023	0.843932	0.633615
C41	C	-0.253025	0.843944	0.717071
C42	C	-0.083116	0.945992	0.740408
C43	C	-0.083110	0.945984	0.656958
C44	C	-0.168061	0.894949	0.603566
C45	C	-0.168059	0.894944	0.513078
C46	C	-0.168052	0.894945	0.440957
H47	H	-0.370991	0.252578	-0.050864
C48	C	0.086782	0.961527	0.437594
C49	C	0.010296	1.002053	0.379098
H50	H	0.144439	0.996162	0.473818
H51	H	0.036194	0.931151	0.467440
H52	H	0.131601	0.929793	0.411194
H53	H	-0.034531	1.033784	0.405498
H54	H	0.060890	1.032443	0.349249
H55	H	-0.322169	0.802359	0.321549
C56	C	0.079436	0.342737	-0.057130
C57	C	0.073694	0.296826	0.010235
H58	H	0.155894	0.375247	-0.046626
H59	H	0.075513	0.311583	-0.103891
H60	H	0.010804	0.372528	-0.066549
H61	H	0.142322	0.267031	0.019650
H62	H	0.077630	0.327984	0.057009
H63	H	-0.322210	0.802395	0.741541
H64	H	-0.543354	0.892940	0.052937
H65	H	0.031107	0.680552	0.004363
C66	C	-0.420984	0.743067	0.618941
C67	C	-0.346410	0.787841	0.574933
H68	H	-0.478645	0.708442	0.582708
H69	H	-0.369100	0.715581	0.658623
H70	H	-0.465800	0.774817	0.645326
H71	H	-0.301587	0.756091	0.548553
H72	H	-0.398301	0.815329	0.535236
H73	H	-0.792761	0.896938	-0.098923
H74	H	-0.322168	0.802344	0.170149
H75	H	-0.748272	0.896206	0.093480
H76	H	-0.587852	0.893670	-0.139449
C77	C	0.133036	0.989252	0.241014
C78	C	0.010334	1.002034	0.203952
H79	H	0.190720	1.023872	0.220640
H80	H	0.145151	0.996548	0.298347
H81	H	0.146457	0.938669	0.229177
H82	H	-0.003090	1.052616	0.215794
H83	H	-0.001786	0.994745	0.146606
C84	C	-0.512611	0.600070	-0.070338
C85	C	-0.414168	0.658799	-0.056821
H86	H	-0.590479	0.621135	-0.081030
H87	H	-0.507075	0.569626	-0.115805
H88	H	-0.507052	0.569627	-0.023337
H89	H	-0.419722	0.689239	-0.103825
H90	H	-0.419707	0.689256	-0.011349
H91	H	-0.013934	0.987532	0.632489
C92	C	0.133004	0.989323	0.795792
C93	C	0.010281	1.002083	0.799101
H94	H	0.190658	1.023954	0.832022
H95	H	0.146443	0.938750	0.811323
H96	H	0.145144	0.996623	0.741787
H97	H	-0.001862	0.994778	0.853105
H98	H	-0.003162	1.052668	0.783574
C99	C	-0.415538	0.447144	-0.125153
C100	C	-0.409797	0.493060	-0.056216
H101	H	-0.491994	0.414633	-0.135658
H102	H	-0.411619	0.478295	-0.170840
H103	H	-0.346903	0.417356	-0.115707
H104	H	-0.478428	0.522853	-0.065665
H105	H	-0.413728	0.461906	-0.010519
H106	H	-0.367213	0.109333	-0.050334
H107	H	0.034875	0.537306	0.004901
C108	C	0.176511	0.189808	0.024389
C109	C	0.078058	0.131085	0.010854
H110	H	0.254374	0.168737	0.035097
H111	H	0.170979	0.220251	-0.022602
H112	H	0.170959	0.220254	0.069860
H113	H	0.083605	0.100643	-0.034622
H114	H	0.083593	0.100629	0.057849
