data_functionalizedCrystal
_audit_creation_method	'MofGen! by Chris Wilmer'
_symmetry_space_group_name_H-M	'P1'
_symmetry_Int_Tables_number	1
_symmetry_cell_setting	triclinic
loop_
_symmetry_equiv_pos_as_xyz
  x,y,z
_cell_length_a	15.538191
_cell_length_b	19.188930
_cell_length_c	14.185569
_cell_angle_alpha	76.885558
_cell_angle_beta	97.875798
_cell_angle_gamma	65.208438
loop_
_atom_site_label
_atom_site_type_symbol
_atom_site_fract_x
_atom_site_fract_y
_atom_site_fract_z
O1	O	1.229395	-0.205739	-0.083403
O2	O	0.954801	-0.125034	-0.083413
O3	O	1.100027	-0.269037	-0.083388
O4	O	1.084169	-0.061735	-0.083427
O5	O	1.142929	-0.311574	0.083454
O6	O	0.997702	-0.167570	0.083429
O7	O	1.272296	-0.248275	0.083439
Cu8	Cu	1.138916	-0.211807	0.098668
Cu9	Cu	1.088181	-0.161503	-0.098642
O10	O	1.127070	-0.104272	0.083415
C11	C	0.941121	-0.137858	0.000007
C12	C	0.836443	-0.112707	0.000004
C13	C	1.120966	-0.316188	0.000036
C14	C	1.119427	-0.393308	0.000045
C15	C	0.549690	-0.362580	0.000037
C16	C	0.451326	-0.338928	0.000032
C17	C	0.428328	-0.205894	0.000006
C18	C	0.526694	-0.229535	0.000016
C19	C	0.587368	-0.307879	0.000031
C20	C	0.564371	-0.174835	0.000010
C21	C	0.662727	-0.198474	0.000015
C22	C	0.723406	-0.276813	0.000026
C23	C	0.685724	-0.331518	0.000035
C24	C	0.503694	-0.096489	-0.000011
C25	C	0.541372	-0.041789	-0.000017
C26	C	0.639731	-0.065429	-0.000005
C27	C	0.700410	-0.143769	0.000006
C28	C	0.677414	-0.010724	-0.000015
C29	C	0.775770	-0.034363	-0.000010
C30	C	0.798766	-0.167408	0.000011
C31	C	1.204639	-0.459636	0.000053
C32	C	1.203188	-0.532092	0.000037
C33	C	1.116524	-0.538221	0.000033
C34	C	1.031299	-0.471879	0.000019
C35	C	1.032751	-0.399423	0.000025
N36	N	1.064881	-0.644063	0.056810
N37	N	1.063508	-0.712897	0.056806
C38	C	1.112146	-0.756526	0.000012
N39	N	1.162225	-0.728730	-0.056765
N40	N	1.163601	-0.659893	-0.056757
C41	C	1.114941	-0.616785	0.000025
C42	C	1.195790	-0.901421	0.000001
C43	C	1.194333	-0.973876	-0.000021
C44	C	1.022445	-0.913663	-0.000028
C45	C	1.023901	-0.841208	-0.000016
C46	C	1.110577	-0.835093	0.000003
C47	C	1.285976	-0.235450	0.000017
C48	C	1.390652	-0.260600	0.000014
C49	C	1.106131	-0.057120	-0.000012
C50	C	1.107668	0.020001	-0.000027
N51	N	1.174608	-0.247190	0.237446
N52	N	1.052497	-0.126126	-0.237419
C53	C	0.947635	-0.022200	0.605057
C54	C	0.974678	-0.049000	0.710083
C55	C	1.103301	-0.176486	0.710066
C56	C	1.076267	-0.149699	0.605037
C57	C	0.998434	-0.072555	0.552541
C58	C	1.127065	-0.200053	0.552522
C59	C	1.100036	-0.173266	0.447503
C60	C	1.022208	-0.096124	0.394999
C61	C	0.971404	-0.045768	0.447522
C62	C	1.204902	-0.277194	0.605020
C63	C	1.255701	-0.327549	0.552505
C64	C	1.228667	-0.300764	0.447484
C65	C	1.150839	-0.223623	0.394980
C66	C	1.279470	-0.351121	0.394961
C67	C	1.252441	-0.324334	0.289942
C68	C	1.123810	-0.196836	0.289961
H69	H	0.848172	-0.231205	0.000028
H70	H	0.599096	-0.426377	0.000054
H71	H	1.275217	-0.454664	0.000065
H72	H	1.342849	-0.413929	0.437717
H73	H	0.423606	-0.077244	-0.000018
O74	O	1.301857	-0.373363	0.239077
C75	C	1.432330	-0.502630	0.250132
C76	C	1.376430	-0.447196	0.307861
H77	H	1.492647	-0.562330	0.305718
H78	H	1.379167	-0.514774	0.201004
H79	H	1.466600	-0.471794	0.200923
H80	H	1.342155	-0.477985	0.357124
H81	H	1.429635	-0.435052	0.356925
O82	O	1.279884	-0.895337	-0.000126
C83	C	1.359059	-0.826450	-0.086581
C84	C	1.263753	-0.833239	-0.086548
H85	H	1.346056	-0.776258	-0.156456
H86	H	1.381994	-0.811793	-0.016800
H87	H	1.419712	-0.886323	-0.086540
H88	H	1.203036	-0.773389	-0.086625
H89	H	1.240902	-0.847938	-0.156323
H90	H	0.627997	0.053066	-0.000036
H91	H	0.491957	0.022000	-0.000033
H92	H	0.806449	0.010177	-0.000006
O93	O	0.938188	-0.919521	-0.000211
C94	C	0.768592	-0.868142	-0.086628
C95	C	0.863958	-0.861433	-0.086552
H96	H	0.708546	-0.821174	-0.156417
H97	H	0.782115	-0.931293	-0.086699
H98	H	0.744498	-0.856892	-0.016774
H99	H	0.888103	-0.872645	-0.156395
H100	H	0.850381	-0.798281	-0.086429
H101	H	0.963359	-0.345415	0.000019
H102	H	0.908018	0.017047	0.404777
O103	O	1.178830	-0.251481	0.760959
C104	C	1.242805	-0.395191	0.793147
C105	C	1.157216	-0.310303	0.735431
H106	H	1.225351	-0.442773	0.772545
H107	H	1.312995	-0.399992	0.772466
H108	H	1.253405	-0.405650	0.877222
H109	H	1.146526	-0.299787	0.651343
H110	H	1.087073	-0.305543	0.756195
H111	H	1.226910	-0.299000	0.690534
H112	H	1.272579	-0.586105	0.000039
O113	O	0.941106	-0.776709	-0.000191
C114	C	0.820797	-0.637897	-0.086594
C115	C	0.914557	-0.710887	-0.086528
H116	H	0.799315	-0.584657	-0.156379
H117	H	0.758552	-0.654661	-0.086664
H118	H	0.835152	-0.620324	-0.016736
H119	H	0.900297	-0.728497	-0.156373
H120	H	0.976771	-0.694083	-0.086405
H121	H	1.060424	-0.134021	0.247216
H122	H	1.000204	-0.074314	0.309486
O123	O	0.872029	0.052774	0.554208
C124	C	0.747248	0.176390	0.565296
C125	C	0.832860	0.091514	0.623007
H126	H	0.715541	0.207729	0.620894
H127	H	0.775114	0.213605	0.516144
H128	H	0.687658	0.170647	0.516114
H129	H	0.892481	0.097181	0.672244
H130	H	0.804919	0.054330	0.672095
O131	O	1.331230	-0.402544	0.603398
C132	C	1.395204	-0.546254	0.635586
C133	C	1.309616	-0.461367	0.577871
H134	H	1.377750	-0.593836	0.614985
H135	H	1.465394	-0.551056	0.614905
H136	H	1.405804	-0.556713	0.719661
H137	H	1.298926	-0.450851	0.493782
H138	H	1.239473	-0.456606	0.598634
O139	O	0.818900	-0.299654	-0.000103
C140	C	0.931516	-0.275080	-0.086569
C141	C	0.823331	-0.249116	-0.086536
H142	H	0.935133	-0.234244	-0.156453
H143	H	0.971112	-0.269783	-0.016798
H144	H	0.968396	-0.340482	-0.086509
H145	H	0.786366	-0.183711	-0.086631
H146	H	0.783807	-0.254472	-0.156301
O147	O	0.744525	-0.407642	0.000005
C148	C	0.756983	-0.537129	0.000088
C149	C	0.690280	-0.450946	0.000103
H150	H	0.713159	-0.572170	0.000188
H151	H	0.785628	-0.533756	-0.069751
H152	H	0.821576	-0.569283	0.069895
H153	H	0.625640	-0.418742	-0.069657
H154	H	0.661712	-0.454376	0.069989
H155	H	0.960737	-0.476873	0.000014
H156	H	0.420654	-0.383478	0.000035
H157	H	0.933305	-0.007987	0.752836
O158	O	0.369379	-0.129740	-0.000184
C159	C	0.297455	0.013245	-0.086602
C160	C	0.364214	-0.072954	-0.086526
H161	H	0.293274	0.059181	-0.156391
H162	H	0.220649	0.020808	-0.086671
H163	H	0.329077	0.023560	-0.016748
H164	H	0.332680	-0.083328	-0.156368
H165	H	0.441012	-0.080475	-0.086405
H166	H	1.263724	-1.027882	-0.000020
