data_functionalizedCrystal
_audit_creation_method	'MofGen! by Chris Wilmer'
_symmetry_space_group_name_H-M	'P1'
_symmetry_Int_Tables_number	1
_symmetry_cell_setting	triclinic
loop_
_symmetry_equiv_pos_as_xyz
  x,y,z
_cell_length_a	15.995350
_cell_length_b	11.792241
_cell_length_c	10.268362
_cell_angle_alpha	90.005428
_cell_angle_beta	90.000938
_cell_angle_gamma	83.842895
loop_
_atom_site_label
_atom_site_type_symbol
_atom_site_fract_x
_atom_site_fract_y
_atom_site_fract_z
O1	O	-1.111650	-0.146296	-0.108190
O2	O	-0.867956	-0.164362	-0.108217
O3	O	-0.995717	0.009891	-0.108194
O4	O	-0.983889	-0.320549	-0.108214
O5	O	-0.995706	0.009898	0.108407
O6	O	-0.867945	-0.164355	0.108383
O7	O	-1.111638	-0.146289	0.108410
Cu8	Cu	-0.989791	-0.155321	0.128174
Cu9	Cu	-0.989804	-0.155330	-0.127981
O10	O	-0.983878	-0.320542	0.108387
C11	C	-0.836753	-0.163612	0.000080
C12	C	-0.743792	-0.161372	0.000070
C13	C	-0.994968	0.052179	0.000106
C14	C	-0.992745	0.178174	0.000104
C15	C	-1.142842	-0.147040	0.000110
C16	C	-1.235803	-0.149279	0.000112
C17	C	-0.406008	-0.153331	0.000097
C18	C	-0.452879	-0.029232	0.000588
C19	C	-0.549579	-0.031471	0.000090
C20	C	-0.573587	-0.157320	0.000084
C21	C	-0.532784	-0.218534	-0.123604
C22	C	-0.436134	-0.215417	-0.123698
C23	C	-0.435794	-0.217972	0.122617
C24	C	-0.532739	-0.217943	0.124243
C25	C	-0.668295	-0.159581	0.000073
C26	C	-0.311300	-0.151074	0.000100
C27	C	-0.984627	-0.362830	0.000084
C28	C	-0.986850	-0.488825	0.000077
N29	N	-0.989788	-0.155315	0.308340
C30	C	-0.988655	0.408852	0.000082
C31	C	-0.990927	0.280486	0.000094
N32	N	-0.989814	-0.155327	-0.308147
C33	C	-0.989800	-0.155328	0.574011
C34	C	-0.989790	-0.155324	0.426173
H35	H	-0.577785	0.016646	0.088756
H36	H	-0.560970	-0.176023	-0.215650
H37	H	-0.415070	-0.177398	0.216370
O38	O	-0.414140	-0.162278	-0.234118
C39	C	-0.413302	-0.162604	-0.468784
C40	C	-0.438268	-0.222886	-0.343838
H41	H	-0.432783	-0.211593	-0.557524
H42	H	-0.446275	-0.071989	-0.471196
H43	H	-0.342303	-0.159641	-0.470125
H44	H	-0.509254	-0.225934	-0.342415
H45	H	-0.405235	-0.313467	-0.341475
O46	O	-0.430363	0.029971	0.106304
C47	C	-0.317523	0.103913	0.223622
C48	C	-0.342919	0.036872	0.103822
H49	H	-0.246821	0.109493	0.221669
H50	H	-0.352216	0.193547	0.221827
H51	H	-0.334732	0.058255	0.316118
H52	H	-0.325713	0.082433	0.011263
H53	H	-0.308233	-0.052763	0.105731
H54	H	-0.559848	-0.173257	0.215747
O55	O	-0.429390	0.029746	-0.104679
C56	C	-0.473857	0.130882	-0.300904
C57	C	-0.500578	0.064141	-0.181731
H58	H	-0.531395	0.158688	-0.363247
H59	H	-0.444085	0.209345	-0.266840
H60	H	-0.426288	0.073944	-0.360901
H61	H	-0.548172	0.120985	-0.121683
H62	H	-0.530302	-0.014333	-0.215882
H63	H	-0.404299	-0.306528	-0.129316
H64	H	-0.577222	0.016965	-0.088723
O65	O	-0.550282	-0.328770	-0.129174
C66	C	-0.657790	-0.456771	-0.140836
C67	C	-0.638089	-0.331881	-0.134567
H68	H	-0.728780	-0.459328	-0.145170
H69	H	-0.627543	-0.499299	-0.231476
H70	H	-0.631622	-0.504154	-0.050401
H71	H	-0.664254	-0.284403	-0.224937
H72	H	-0.668320	-0.289440	-0.043869
O73	O	-0.551661	-0.327373	0.133332
C74	C	-0.616578	-0.465529	0.260711
C75	C	-0.595219	-0.341555	0.250584
H76	H	-0.651782	-0.477041	0.355516
H77	H	-0.657713	-0.485356	0.174748
H78	H	-0.555988	-0.525998	0.259400
H79	H	-0.655764	-0.281006	0.251932
H80	H	-0.554050	-0.321823	0.336543
O81	O	-0.398543	-0.327201	0.123567
C82	C	-0.418509	-0.526844	0.120753
C83	C	-0.460802	-0.403203	0.119648
H84	H	-0.468827	-0.588326	0.117613
H85	H	-0.375743	-0.541600	0.032190
H86	H	-0.379640	-0.542135	0.213379
H87	H	-0.499714	-0.387826	0.027082
H88	H	-0.503520	-0.388508	0.208273
