data_functionalizedCrystal
_audit_creation_method	'MofGen! by Chris Wilmer'
_symmetry_space_group_name_H-M	'P1'
_symmetry_Int_Tables_number	1
_symmetry_cell_setting	triclinic
loop_
_symmetry_equiv_pos_as_xyz
  x,y,z
_cell_length_a	19.805407
_cell_length_b	15.296598
_cell_length_c	19.805399
_cell_angle_alpha	99.708991
_cell_angle_beta	89.982197
_cell_angle_gamma	80.299152
loop_
_atom_site_label
_atom_site_type_symbol
_atom_site_fract_x
_atom_site_fract_y
_atom_site_fract_z
Zn1	Zn	0.988068	0.359337	-0.335999
Zn2	Zn	1.488068	0.859337	0.164001
Zn3	Zn	0.968384	0.510241	-0.203203
Zn4	Zn	1.468384	1.010241	0.296797
Zn5	Zn	0.874880	0.359355	-0.222825
Zn6	Zn	1.374880	0.859355	0.277175
Zn7	Zn	0.855255	0.510186	-0.316361
Zn8	Zn	1.355255	1.010186	0.183639
O9	O	0.921646	0.434779	-0.269597
O10	O	1.421646	0.934779	0.230403
O11	O	1.080171	0.379370	-0.318390
O12	O	1.580171	0.879370	0.181610
O13	O	0.955956	0.490256	-0.111086
O14	O	1.455956	0.990256	0.388914
O15	O	0.906345	0.233075	-0.254267
O16	O	1.406345	0.733075	0.245733
O17	O	1.065710	0.490239	-0.220826
O18	O	1.565710	0.990239	0.279174
O19	O	0.989504	0.233062	-0.337416
O20	O	1.489504	0.733062	0.162584
O21	O	0.887259	0.379400	-0.125501
O22	O	1.387259	0.879400	0.374499
O23	O	0.777562	0.379347	-0.235225
O24	O	1.277562	0.879347	0.264775
O25	O	0.872897	0.490145	-0.413686
O26	O	1.372897	0.990145	0.086314
O27	O	0.763143	0.490162	-0.303946
O28	O	1.263143	0.990162	0.196054
O29	O	0.970474	0.379317	-0.428114
O30	O	1.470474	0.879317	0.071886
O31	O	0.936926	0.636511	-0.201784
O32	O	1.436926	1.136511	0.298216
O33	O	0.853810	0.636470	-0.284920
O34	O	1.353810	1.136470	0.215080
C35	C	0.745794	0.434751	-0.269584
C36	C	1.245794	0.934751	0.230416
C37	C	0.670561	0.434761	-0.269592
C38	C	1.170561	0.934761	0.230408
C39	C	0.642734	0.377134	-0.320446
C40	C	1.142734	0.877134	0.179554
C41	C	0.572045	0.377138	-0.320448
C42	C	1.072045	0.877138	0.179552
C43	C	0.529183	0.434776	-0.269598
C44	C	1.029183	0.934776	0.230402
C45	C	0.557015	0.492405	-0.218739
C46	C	1.057015	0.992405	0.281261
C47	C	0.627703	0.492395	-0.218735
C48	C	1.127703	0.992395	0.281265
C49	C	0.271936	0.492446	-0.218754
C50	C	0.771936	0.992446	0.281246
C51	C	0.201243	0.492453	-0.218764
C52	C	0.701243	0.992453	0.281236
C53	C	0.216278	0.377189	-0.320468
C54	C	0.716278	0.877189	0.179532
C55	C	0.286967	0.377179	-0.320464
C56	C	0.786967	0.877179	0.179536
C57	C	0.314792	0.434805	-0.269603
C58	C	0.814792	0.934805	0.230397
C59	C	0.391442	0.434798	-0.269600
C60	C	0.891442	0.934798	0.230400
C61	C	0.452535	0.434788	-0.269603
C62	C	0.952535	0.934788	0.230397
C63	C	0.891121	0.669233	-0.239107
C64	C	1.391121	1.169233	0.260893
C65	C	0.878124	0.769533	-0.226086
C66	C	1.378124	1.269533	0.273914
C67	C	0.828745	0.816741	-0.176635
C68	C	1.328745	1.316741	0.323365
C69	C	0.816536	0.910978	-0.164405
C70	C	1.316536	1.410978	0.335595
C71	C	0.853702	0.958016	-0.201627
C72	C	1.353702	1.458016	0.298373
C73	C	0.903079	0.910807	-0.251081
C74	C	1.403079	1.410807	0.248919
C75	C	0.915293	0.816561	-0.263310
C76	C	1.415293	1.316561	0.236690
C77	C	0.940250	0.957836	-0.288301
C78	C	1.440250	1.457836	0.211699
C79	C	0.989628	0.910628	-0.337756
C80	C	1.489628	1.410628	0.162244
C81	C	1.001839	0.816391	-0.349982
C82	C	1.501839	1.316391	0.150018
C83	C	0.964673	0.769353	-0.312760
C84	C	1.464673	1.269353	0.187240
C85	C	0.928037	1.052082	-0.276073
C86	C	1.428037	1.552082	0.223927
C87	C	1.014585	1.051903	-0.362747
C88	C	1.514585	1.551903	0.137253
C89	C	1.026794	0.957666	-0.374978
C90	C	1.526794	1.457666	0.125022
C91	C	1.098185	0.434808	-0.269610
C92	C	1.598185	0.934808	0.230390
C93	C	1.173416	0.434821	-0.269616
C94	C	1.673416	0.934821	0.230384
C95	C	0.921692	0.434723	-0.446147
C96	C	1.421692	0.934723	0.053853
C97	C	0.921711	0.434698	-0.521382
C98	C	1.421711	0.934698	-0.021382
C99	C	0.952267	1.199411	-0.300227
C100	C	1.452267	1.699411	0.199773
C101	C	0.965206	1.099111	-0.313297
C102	C	1.465206	1.599111	0.186703
C103	C	0.972521	0.376987	-0.564240
C104	C	1.472521	0.876987	-0.064240
C105	C	0.972531	0.376961	-0.634932
C106	C	1.472531	0.876961	-0.134932
C107	C	0.921734	0.434651	-0.662764
C108	C	1.421734	0.934651	-0.162764
C109	C	0.870919	0.492365	-0.619901
C110	C	1.370919	0.992365	-0.119901
C111	C	0.870907	0.492386	-0.549211
C112	C	1.370907	0.992386	-0.049211
C113	C	0.870968	0.492281	-0.904985
C114	C	1.370968	0.992281	-0.404985
C115	C	0.870986	0.492257	-0.975680
C116	C	1.370986	0.992257	-0.475680
C117	C	0.972593	0.376856	-0.990707
C118	C	1.472593	0.876856	-0.490707
C119	C	0.972580	0.376877	-0.920017
C120	C	1.472580	0.876877	-0.420017
C121	C	0.921764	0.434587	-0.877160
C122	C	1.421764	0.934587	-0.377160
C123	C	0.921752	0.434613	-0.800508
C124	C	1.421752	0.934613	-0.300508
C125	C	0.921748	0.434630	-0.739414
C126	C	1.421748	0.934630	-0.239414
C127	C	0.921649	0.434771	-0.093742
C128	C	1.421649	0.934771	0.406258
C129	C	0.921794	0.434541	-0.018540
C130	C	1.421794	0.934541	0.481460
H131	H	0.166346	0.539391	-0.177353
H132	H	0.666346	1.039391	0.322647
Cl133	Cl	0.306910	0.564871	-0.154803
Cl134	Cl	0.806910	1.064871	0.345197
H135	H	1.013907	0.329969	-0.669825
H136	H	1.513907	0.829969	-0.169825
Cl137	Cl	0.340846	0.304722	-0.384394
Cl138	Cl	0.840846	0.804722	0.115606
Cl139	Cl	0.503132	0.564859	-0.154810
Cl140	Cl	1.003132	1.064859	0.345190
H141	H	1.066998	0.919217	-0.415244
H142	H	1.566998	1.419217	0.084756
H143	H	1.044850	1.090200	-0.393055
H144	H	1.544850	1.590200	0.106945
H145	H	1.013947	0.329903	-0.897360
H146	H	1.513947	0.829903	-0.397360
H147	H	0.974606	0.692618	-0.322720
H148	H	1.474606	1.192618	0.177280
H149	H	0.549392	0.330214	-0.361860
H150	H	1.049392	0.830214	0.138140
Cl151	Cl	1.036476	0.304302	-1.044589
Cl152	Cl	1.536476	0.804302	-0.544589
H153	H	0.650358	0.539321	-0.177323
H154	H	1.150358	1.039321	0.322677
Cl155	Cl	0.807057	0.564887	-0.654889
Cl156	Cl	1.307057	1.064887	-0.154889
Cl157	Cl	0.181293	0.304741	-0.384407
Cl158	Cl	0.681293	0.804741	0.115593
Cl159	Cl	1.063920	0.757045	-0.412147
Cl160	Cl	1.563920	1.257045	0.087853
H161	H	0.829526	0.539371	-0.514317
H162	H	1.329526	1.039371	-0.014317
Cl163	Cl	0.807121	0.564787	-1.010667
Cl164	Cl	1.307121	1.064787	-0.510667
Cl165	Cl	0.696611	0.304675	-0.384378
Cl166	Cl	1.196611	0.804675	0.115622
Cl167	Cl	0.807085	0.564831	-0.851117
Cl168	Cl	1.307085	1.064831	-0.351117
H169	H	0.798492	0.778437	-0.146330
H170	H	1.298492	1.278437	0.353670
Cl171	Cl	1.036387	0.304463	-0.529259
Cl172	Cl	1.536387	0.804463	-0.029259
H173	H	0.887833	1.090510	-0.235807
H174	H	1.387833	1.590510	0.264193
H175	H	0.843759	1.034748	-0.191666
H176	H	1.343759	1.534748	0.308334
H177	H	0.776334	0.949408	-0.124137
H178	H	1.276334	1.449408	0.375863
