data_functionalizedCrystal
_audit_creation_method	'MofGen! by Chris Wilmer'
_symmetry_space_group_name_H-M	'P1'
_symmetry_Int_Tables_number	1
_symmetry_cell_setting	triclinic
loop_
_symmetry_equiv_pos_as_xyz
  x,y,z
_cell_length_a	18.215405
_cell_length_b	11.169417
_cell_length_c	11.169409
_cell_angle_alpha	90.019824
_cell_angle_beta	89.960202
_cell_angle_gamma	89.974236
loop_
_atom_site_label
_atom_site_type_symbol
_atom_site_fract_x
_atom_site_fract_y
_atom_site_fract_z
Zn1	Zn	-0.292907	-1.834841	-0.678481
Zn2	Zn	0.040426	-1.501508	-0.345147
Zn3	Zn	0.373759	-1.168174	-0.011814
Zn4	Zn	-0.415999	-1.834679	-0.477771
Zn5	Zn	-0.082665	-1.501346	-0.144438
Zn6	Zn	0.250668	-1.168013	0.188895
Zn7	Zn	-0.292952	-1.634127	-0.477815
Zn8	Zn	0.040381	-1.300794	-0.144482
Zn9	Zn	0.373714	-0.967460	0.188852
Zn10	Zn	-0.415939	-1.634083	-0.678416
Zn11	Zn	-0.082605	-1.300750	-0.345083
Zn12	Zn	0.250728	-0.967417	-0.011749
O13	O	-0.354449	-1.734433	-0.578121
O14	O	-0.021116	-1.401099	-0.244787
O15	O	0.312217	-1.067766	0.088546
O16	O	-0.309242	-2.002769	-0.651865
O17	O	0.024091	-1.669436	-0.318531
O18	O	0.357425	-1.336103	0.014802
O19	O	-0.399720	-1.808026	-0.309827
O20	O	-0.066387	-1.474693	0.023506
O21	O	0.266947	-1.141360	0.356839
O22	O	-0.189962	-1.660838	-0.504479
O23	O	0.143371	-1.327505	-0.171145
O24	O	0.476705	-0.994171	0.162188
O25	O	-0.399677	-2.002651	-0.504404
O26	O	-0.066343	-1.669317	-0.171071
O27	O	0.266990	-1.335984	0.162262
O28	O	-0.189929	-1.808302	-0.651907
O29	O	0.143404	-1.474968	-0.318574
O30	O	0.476738	-1.141635	0.014760
O31	O	-0.309319	-1.660681	-0.309859
O32	O	0.024015	-1.327348	0.023474
O33	O	0.357348	-0.994014	0.356807
O34	O	-0.309260	-1.466171	-0.504416
O35	O	0.024073	-1.132838	-0.171083
O36	O	0.357406	-0.799505	0.162250
O37	O	-0.399574	-1.660764	-0.846375
O38	O	-0.066241	-1.327430	-0.513041
O39	O	0.267092	-0.994097	-0.179708
O40	O	-0.399618	-1.466140	-0.651797
O41	O	-0.066285	-1.132806	-0.318464
O42	O	0.267049	-0.799473	0.014869
O43	O	-0.309184	-1.808260	-0.846422
O44	O	0.024149	-1.474926	-0.513088
O45	O	0.357483	-1.141593	-0.179755
O46	O	-0.518975	-1.807984	-0.504342
O47	O	-0.185642	-1.474651	-0.171009
O48	O	0.147692	-1.141317	0.162325
O49	O	-0.518931	-1.660607	-0.651755
O50	O	-0.185598	-1.327274	-0.318422
O51	O	0.147736	-0.993940	0.014912
C52	C	-0.354438	-1.422608	-0.578105
C53	C	-0.021105	-1.089275	-0.244772
C54	C	0.312229	-0.755941	0.088561
C55	C	-0.354451	-1.289208	-0.578127
C56	C	-0.021118	-0.955875	-0.244794
C57	C	0.312216	-0.622541	0.088540
C58	C	-0.545656	-1.734306	-0.578063
C59	C	-0.212322	-1.400973	-0.244730
C60	C	0.121011	-1.067639	0.088604
C61	C	-0.627454	-1.734362	-0.578078
C62	C	-0.294121	-1.401028	-0.244745
C63	C	0.039212	-1.067695	0.088588
C64	C	-0.354368	-1.734525	-0.891163
C65	C	-0.021034	-1.401192	-0.557830
C66	C	0.312299	-1.067858	-0.224497
C67	C	-0.354333	-1.734564	-1.024563
C68	C	-0.020999	-1.401231	-0.691230
C69	C	0.312334	-1.067897	-0.357897
C70	C	-0.815647	-1.811281	-0.501462
C71	C	-0.482313	-1.477948	-0.168128
C72	C	-0.148980	-1.144614	0.165205
C73	C	-0.892506	-1.811335	-0.501491
C74	C	-0.559172	-1.478001	-0.168157
C75	C	-0.225839	-1.144668	0.165176
C76	C	-0.892500	-1.657738	-0.654866
C77	C	-0.559166	-1.324405	-0.321533
C78	C	-0.225833	-0.991071	0.011801
C79	C	-0.815642	-1.657691	-0.654842
C80	C	-0.482309	-1.324358	-0.321509
C81	C	-0.148976	-0.991025	0.011825
C82	C	-0.777218	-1.734461	-0.578133
C83	C	-0.443885	-1.401128	-0.244800
C84	C	-0.110551	-1.067794	0.088534
C85	C	-0.930934	-1.734561	-0.578186
C86	C	-0.597601	-1.401228	-0.244853
C87	C	-0.264267	-1.067895	0.088481
C88	C	-1.014268	-1.734619	-0.578218
C89	C	-0.680934	-1.401286	-0.244885
C90	C	-0.347601	-1.067952	0.088449
C91	C	-0.693879	-1.734405	-0.578102
C92	C	-0.360546	-1.401072	-0.244769
C93	C	-0.027212	-1.067739	0.088564
C94	C	-0.162496	-1.734593	-0.578205
C95	C	0.170837	-1.401259	-0.244872
C96	C	0.504170	-1.067926	0.088462
C97	C	-0.080697	-1.734661	-0.578241
C98	C	0.252636	-1.401327	-0.244907
C99	C	0.585969	-1.067994	0.088426
C100	C	-0.354461	-2.047475	-0.578137
C101	C	-0.021128	-1.714142	-0.244804
C102	C	0.312206	-1.380808	0.088530
C103	C	-0.354466	-2.180875	-0.578144
C104	C	-0.021133	-1.847542	-0.244810
C105	C	0.312201	-1.514208	0.088523
C106	C	-0.354478	-1.734410	-0.266296
C107	C	-0.021144	-1.401077	0.067037
C108	C	0.312189	-1.067743	0.400371
C109	C	-0.354305	-1.734603	-0.132897
C110	C	-0.020972	-1.401270	0.200437
C111	C	0.312362	-1.067937	0.533770
H112	H	-0.784363	-1.873793	-0.439002
H113	H	-0.451030	-1.540460	-0.105669
H114	H	-0.117697	-1.207127	0.227664
H115	H	-0.923794	-1.595233	-0.717318
H116	H	-0.590461	-1.261900	-0.383984
H117	H	-0.257128	-0.928566	-0.050651
H118	H	-0.923791	-1.873891	-0.439059
H119	H	-0.590458	-1.540558	-0.105726
H120	H	-0.257124	-1.207224	0.227608
N121	N	-0.774190	-1.574820	-0.737534
N122	N	-0.440857	-1.241487	-0.404200
N123	N	-0.107523	-0.908153	-0.070867
H124	H	-0.719671	-1.586444	-0.725879
H125	H	-0.386338	-1.253111	-0.392546
H126	H	-0.053004	-0.919777	-0.059212
H127	H	-0.787567	-1.593457	-0.823272
H128	H	-0.454233	-1.260124	-0.489938
H129	H	-0.120900	-0.926791	-0.156605
