data_functionalizedCrystal
_audit_creation_method	'MofGen! by Chris Wilmer'
_symmetry_space_group_name_H-M	'P1'
_symmetry_Int_Tables_number	1
_symmetry_cell_setting	triclinic
loop_
_symmetry_equiv_pos_as_xyz
  x,y,z
_cell_length_a	6.394989
_cell_length_b	17.699104
_cell_length_c	16.176319
_cell_angle_alpha	89.991696
_cell_angle_beta	90.003737
_cell_angle_gamma	95.105386
loop_
_atom_site_label
_atom_site_type_symbol
_atom_site_fract_x
_atom_site_fract_y
_atom_site_fract_z
O1	O	-0.264339	1.006766	-0.068758
O2	O	0.235661	1.506766	0.431242
O3	O	-0.298658	0.786740	-0.068755
O4	O	0.201342	1.286740	0.431245
O5	O	0.022581	0.899876	-0.068757
O6	O	0.522581	1.399876	0.431243
O7	O	-0.585578	0.893630	-0.068756
O8	O	-0.085578	1.393630	0.431244
O9	O	0.022601	0.899860	0.068736
O10	O	0.522601	1.399860	0.568736
O11	O	-0.298637	0.786724	0.068738
O12	O	0.201363	1.286724	0.568738
O13	O	-0.264319	1.006750	0.068735
O14	O	0.235681	1.506750	0.568735
Cu15	Cu	-0.281476	0.896736	0.081291
Cu16	Cu	0.218524	1.396736	0.581291
Cu17	Cu	-0.281500	0.896755	-0.081311
Cu18	Cu	0.218500	1.396755	0.418689
O19	O	-0.585558	0.893614	0.068737
O20	O	-0.085558	1.393614	0.568737
C21	C	-0.297411	0.758523	-0.000009
C22	C	0.202589	1.258523	0.499991
C23	C	-0.293699	0.674468	-0.000008
C24	C	0.206301	1.174468	0.499992
N25	N	-0.281458	0.896728	0.195656
N26	N	0.218542	1.396728	0.695656
C27	C	-0.461329	0.151308	-0.000016
C28	C	0.038671	0.651308	0.499984
C29	C	-0.464804	0.230287	-0.000018
C30	C	0.035196	0.730287	0.499982
C31	C	-0.276225	0.276980	-0.000019
C32	C	0.223775	0.776980	0.499981
C33	C	-0.084158	0.244690	-0.000025
C34	C	0.415842	0.744690	0.499975
C35	C	-0.080686	0.165712	-0.000028
C36	C	0.419314	0.665712	0.499972
C37	C	-0.098158	0.563199	-0.000012
C38	C	0.401842	1.063199	0.499988
C39	C	-0.101645	0.642182	-0.000006
C40	C	0.398355	1.142182	0.499994
C41	C	-0.482276	0.627773	-0.000002
C42	C	0.017724	1.127773	0.499998
C43	C	-0.478804	0.548796	-0.000005
C44	C	0.021196	1.048796	0.499995
C45	C	-0.286739	0.516513	-0.000016
C46	C	0.213261	1.016513	0.499984
C47	C	-0.282973	0.430874	-0.000015
C48	C	0.217027	0.930874	0.499985
C49	C	-0.279988	0.362617	-0.000014
C50	C	0.220012	0.862617	0.499986
C51	C	0.100407	0.898633	-0.000014
C52	C	0.600407	1.398633	0.499986
C53	C	0.336623	0.894859	-0.000015
C54	C	0.836623	1.394859	0.499985
C55	C	-0.265566	1.034968	-0.000014
C56	C	0.234434	1.534968	0.499986
C57	C	-0.269277	1.119023	-0.000020
C58	C	0.230723	1.619023	0.499980
N59	N	-0.281502	0.896769	-0.195676
N60	N	0.218498	1.396769	0.304324
C61	C	-0.139271	0.946840	0.238919
C62	C	0.360729	1.446840	0.738919
C63	C	-0.139269	0.946844	0.325466
C64	C	0.360731	1.446844	0.825466
C65	C	-0.281465	0.896739	0.368749
C66	C	0.218535	1.396739	0.868749
C67	C	-0.423658	0.846620	0.325479
C68	C	0.076342	1.346620	0.825479
C69	C	-0.423649	0.846613	0.238934
C70	C	0.076351	1.346613	0.738934
C71	C	-0.423698	0.846647	0.674507
C72	C	0.076302	1.346647	1.174507
C73	C	-0.423700	0.846659	0.761059
C74	C	0.076300	1.346659	1.261059
C75	C	-0.139318	0.946878	0.761040
C76	C	0.360682	1.446878	1.261040
C77	C	-0.139308	0.946871	0.674495
C78	C	0.360692	1.446871	1.174495
C79	C	-0.281493	0.896750	0.631233
C80	C	0.218507	1.396750	1.131233
C81	C	-0.281491	0.896746	0.537389
C82	C	0.218509	1.396746	1.037389
C83	C	-0.281479	0.896746	0.462591
C84	C	0.218521	1.396746	0.962591
H85	H	-0.614893	0.113295	-0.000010
H86	H	-0.114893	0.613295	0.499990
Cl87	Cl	-0.706252	0.270870	-0.000018
Cl88	Cl	-0.206252	0.770870	0.499982
H89	H	0.051929	0.680198	-0.000008
H90	H	0.551929	1.180198	0.499992
H91	H	-0.632365	0.510781	-0.000001
H92	H	-0.132365	1.010781	0.499999
H93	H	-0.638665	0.654067	0.000003
H94	H	-0.138665	1.154067	0.500003
H95	H	0.058233	0.536924	-0.000018
H96	H	0.558233	1.036924	0.499982
H97	H	0.069386	0.282714	-0.000030
H98	H	0.569386	0.782714	0.499970
Cl99	Cl	0.039491	1.009838	0.184517
Cl100	Cl	0.539491	1.509838	0.684517
Cl101	Cl	0.160761	0.125126	-0.000033
Cl102	Cl	0.660761	0.625126	0.499967
H103	H	-0.539429	0.805806	0.203709
H104	H	-0.039429	1.305806	0.703709
Cl105	Cl	0.039485	1.009843	0.379856
Cl106	Cl	0.539485	1.509843	0.879856
H107	H	-0.539430	0.805819	0.360724
H108	H	-0.039430	1.305819	0.860724
H109	H	-0.023526	0.987674	0.639257
H110	H	0.476474	1.487674	1.139257
Cl111	Cl	0.039441	1.009885	0.815431
Cl112	Cl	0.539441	1.509885	1.315431
H113	H	-0.539497	0.805854	0.796298
H114	H	-0.039497	1.305854	1.296298
Cl115	Cl	-0.602447	0.783643	0.620127
Cl116	Cl	-0.102447	1.283643	1.120127
