data_functionalizedCrystal
_audit_creation_method	'MofGen! by Chris Wilmer'
_symmetry_space_group_name_H-M	'P1'
_symmetry_Int_Tables_number	1
_symmetry_cell_setting	triclinic
loop_
_symmetry_equiv_pos_as_xyz
  x,y,z
_cell_length_a	12.645330
_cell_length_b	12.827893
_cell_length_c	12.827885
_cell_angle_alpha	89.978811
_cell_angle_beta	90.028978
_cell_angle_gamma	89.984099
loop_
_atom_site_label
_atom_site_type_symbol
_atom_site_fract_x
_atom_site_fract_y
_atom_site_fract_z
Zn1	Zn	-0.422039	-1.597653	0.590908
Zn2	Zn	-0.599339	-1.597540	0.416171
Zn3	Zn	-0.422085	-1.422894	0.416176
Zn4	Zn	-0.599255	-1.422873	0.590865
O5	O	-0.510679	-1.510240	0.503530
O6	O	-0.445574	-1.743874	0.567745
O7	O	-0.575881	-1.574335	0.269935
O8	O	-0.273731	-1.446133	0.439375
O9	O	-0.575836	-1.743791	0.439366
O10	O	-0.273697	-1.574527	0.567750
O11	O	-0.445653	-1.446023	0.269939
O12	O	-0.445571	-1.276655	0.439333
O13	O	-0.575692	-1.446096	0.737107
O14	O	-0.575737	-1.276639	0.567676
O15	O	-0.445492	-1.574506	0.737138
O16	O	-0.747675	-1.574314	0.439324
O17	O	-0.747613	-1.445986	0.567671
C18	C	-0.510651	-1.238730	0.503501
C19	C	-0.510664	-1.122577	0.503513
C20	C	-0.575033	-0.950707	0.439916
C21	C	-0.575021	-1.070757	0.439901
C22	C	-0.786109	-1.510164	0.503515
C23	C	-0.903939	-1.510227	0.503544
C24	C	-1.071508	-1.429829	0.584536
C25	C	-0.948949	-1.429418	0.584276
C26	C	-0.948540	-1.480414	0.393412
C27	C	-1.071139	-1.479923	0.393904
C28	C	-1.071030	-1.620929	0.531791
C29	C	-0.948423	-1.620251	0.534199
C30	C	-0.234174	-1.510345	0.503567
C31	C	-0.116344	-1.510390	0.503583
C32	C	-0.510578	-1.510311	0.776100
C33	C	-0.510534	-1.510341	0.892253
C34	C	-0.510701	-0.782810	0.503551
C35	C	-0.510687	-0.898963	0.503539
C36	C	-0.510704	-1.510229	0.232020
C37	C	-0.510449	-1.510401	0.115867
C38	C	-0.446095	-1.573890	0.944054
C39	C	-0.446048	-1.573923	1.064104
H40	H	-1.100915	-1.448310	0.666466
H41	H	-0.455586	-0.943540	0.557994
H42	H	-0.918790	-1.448070	0.665938
H43	H	-0.630125	-0.906130	0.385452
N44	N	-1.112429	-1.321953	0.560107
H45	H	-1.159885	-1.325040	0.496830
H46	H	-1.050867	-1.273963	0.545590
H47	H	-0.919713	-1.347469	0.565588
N48	N	-1.109154	-1.372894	0.362249
H49	H	-1.046271	-1.326475	0.348109
H50	H	-1.152989	-1.342027	0.420348
H51	H	-0.630115	-1.115256	0.385437
H52	H	-0.390956	-1.628268	0.899525
N53	N	-1.110443	-1.554267	0.311285
H54	H	-1.048125	-1.587208	0.274704
H55	H	-1.154799	-1.514846	0.258963
N56	N	-0.437681	-1.063661	0.575677
H57	H	-0.480864	-1.018391	0.624000
H58	H	-0.388562	-1.018423	0.533183
N59	N	-0.909933	-1.555667	0.311325
H60	H	-0.863046	-1.609938	0.344819
H61	H	-0.868447	-1.516380	0.256726
N62	N	-0.907993	-1.374495	0.361188
H63	H	-0.931489	-1.320581	0.413660
H64	H	-0.937140	-1.356097	0.290210
N65	N	-0.583555	-1.438295	0.951235
H66	H	-0.632627	-1.480793	0.996524
H67	H	-0.626496	-1.395889	0.900114
N68	N	-1.111875	-1.656962	0.636357
H69	H	-1.160175	-1.601988	0.666504
H70	H	-1.050336	-1.668850	0.685153
H71	H	-0.390882	-1.628332	1.108651
N72	N	-0.909807	-1.650043	0.641558
H73	H	-0.863687	-1.592519	0.670226
H74	H	-0.867516	-1.716688	0.637065
N75	N	-0.907831	-1.703953	0.461796
H76	H	-0.859819	-1.671593	0.407853
H77	H	-0.969504	-1.738780	0.425883
N78	N	-1.109428	-1.700437	0.453695
H79	H	-1.155948	-1.665086	0.400298
H80	H	-1.151251	-1.756196	0.490958
H81	H	-0.565625	-1.455996	1.071327
