data_functionalizedCrystal
_audit_creation_method	'MofGen! by Chris Wilmer'
_symmetry_space_group_name_H-M	'P1'
_symmetry_Int_Tables_number	1
_symmetry_cell_setting	triclinic
loop_
_symmetry_equiv_pos_as_xyz
  x,y,z
_cell_length_a	12.759401
_cell_length_b	11.169416
_cell_length_c	11.169409
_cell_angle_alpha	90.030874
_cell_angle_beta	89.978635
_cell_angle_gamma	89.988135
loop_
_atom_site_label
_atom_site_type_symbol
_atom_site_fract_x
_atom_site_fract_y
_atom_site_fract_z
Zn1	Zn	1.606303	0.477661	-0.678604
Zn2	Zn	1.606206	0.678402	-0.477926
Zn3	Zn	1.430600	0.477737	-0.477933
Zn4	Zn	1.430607	0.678306	-0.678566
O5	O	1.518429	0.578026	-0.578257
O6	O	1.753311	0.504298	-0.651997
O7	O	1.582868	0.651854	-0.309977
O8	O	1.453945	0.309777	-0.504572
O9	O	1.753240	0.651781	-0.504560
O10	O	1.583033	0.309721	-0.652004
O11	O	1.453851	0.504427	-0.309983
O12	O	1.283580	0.504334	-0.504534
O13	O	1.453956	0.651619	-0.846521
O14	O	1.283585	0.651692	-0.651938
O15	O	1.583039	0.504206	-0.846549
O16	O	1.582874	0.846339	-0.504523
O17	O	1.453862	0.846269	-0.651932
C18	C	1.245461	0.578012	-0.578234
C19	C	1.128685	0.578034	-0.578252
C20	C	1.518387	0.889851	-0.578248
C21	C	1.518465	1.023251	-0.578285
C22	C	1.518509	0.577893	-0.891300
C23	C	1.518544	0.577836	-1.024700
C24	C	1.073853	0.654880	-0.654884
C25	C	0.964129	0.654885	-0.654908
C26	C	0.964078	0.501194	-0.501657
C27	C	1.073800	0.501184	-0.501640
C28	C	0.814237	0.697942	-0.796403
C29	C	0.759401	0.774806	-0.873024
C30	C	0.795007	0.891931	-0.891248
C31	C	0.885446	0.932216	-0.832833
C32	C	0.940276	0.855358	-0.756202
C33	C	0.904672	0.738216	-0.738001
C34	C	1.223694	0.458140	-0.360144
C35	C	1.278526	0.381287	-0.283506
C36	C	1.242923	0.264160	-0.265270
C37	C	1.152480	0.223880	-0.323664
C38	C	1.097648	0.300733	-0.400302
C39	C	1.133259	0.417859	-0.418540
C40	C	1.792462	0.578042	-0.578282
C41	C	1.909239	0.578049	-0.578293
C42	C	1.518499	0.264984	-0.578293
C43	C	1.518529	0.131584	-0.578308
C44	C	1.518409	0.578073	-0.266433
C45	C	1.518578	0.577791	-0.133033
H46	H	1.118537	0.717453	-0.717270
C47	C	1.262868	0.586988	-0.380202
N48	N	1.292374	0.684037	-0.395303
H49	H	1.123478	0.128512	-0.308797
H50	H	1.287572	0.201591	-0.202854
H51	H	1.013910	0.888157	-0.708641
C52	C	0.924599	1.061070	-0.852873
N53	N	0.954091	1.158124	-0.867970
C54	C	1.378027	0.425595	-0.219286
N55	N	1.452975	0.458964	-0.170924
H56	H	1.024009	0.267923	-0.447858
H57	H	0.785245	0.602565	-0.781584
H58	H	0.685765	0.741995	-0.920587
H59	H	0.750352	0.954515	-0.953637
H60	H	0.919378	0.438628	-0.439280
