data_functionalizedCrystal
_audit_creation_method	'MofGen! by Chris Wilmer'
_symmetry_space_group_name_H-M	'P1'
_symmetry_Int_Tables_number	1
_symmetry_cell_setting	triclinic
loop_
_symmetry_equiv_pos_as_xyz
  x,y,z
_cell_length_a	17.699097
_cell_length_b	17.699092
_cell_length_c	16.776229
_cell_angle_alpha	90.000669
_cell_angle_beta	90.002398
_cell_angle_gamma	83.287399
loop_
_atom_site_label
_atom_site_type_symbol
_atom_site_fract_x
_atom_site_fract_y
_atom_site_fract_z
O1	O	1.004066	0.095757	0.066351
O2	O	0.783690	0.108199	0.066338
O3	O	0.900101	-0.008211	0.066343
O4	O	0.887655	0.212166	0.066346
O5	O	0.900103	-0.008211	-0.066233
O6	O	0.783692	0.108199	-0.066238
O7	O	1.004068	0.095757	-0.066225
Zn8	Zn	0.893880	0.101978	-0.087281
Zn9	Zn	0.893878	0.101978	0.087394
O10	O	0.887657	0.212166	-0.066230
C11	C	0.755494	0.107751	0.000048
C12	C	0.671476	0.106409	0.000043
C13	C	0.155757	0.098179	0.072343
C14	C	0.234701	0.099435	0.072339
C15	C	0.274168	0.100065	0.000068
C16	C	0.234688	0.099430	-0.072203
C17	C	0.155746	0.098169	-0.072199
C18	C	0.553052	0.104518	-0.072224
C19	C	0.631999	0.105782	-0.072224
C20	C	0.632007	0.105785	0.072313
C21	C	0.553065	0.104523	0.072318
C22	C	0.513592	0.103884	0.000047
C23	C	0.427992	0.102521	0.000052
C24	C	0.359766	0.101434	0.000062
C25	C	0.899655	-0.036408	0.000056
C26	C	0.898314	-0.120425	0.000060
C27	C	1.032264	0.096204	0.000067
C28	C	1.116282	0.097547	0.000077
C29	C	0.897684	-0.159893	0.072328
C30	C	0.896419	-0.238836	0.072329
C31	C	0.895789	-0.278311	0.000061
C32	C	0.896417	-0.238837	-0.072213
C33	C	0.897676	-0.159895	-0.072213
C34	C	0.891336	-0.557203	-0.072215
C35	C	0.890079	-0.636151	-0.072209
C36	C	0.890080	-0.636144	0.072328
C37	C	0.891339	-0.557201	0.072328
C38	C	0.891962	-0.517734	0.000054
C39	C	0.893332	-0.432135	0.000054
C40	C	0.894425	-0.363909	0.000060
C41	C	0.888103	0.240363	0.000059
C42	C	0.889444	0.324381	0.000060
N43	N	0.893888	0.101978	-0.206492
N44	N	0.893876	0.101972	0.206605
C45	C	0.939603	0.147925	0.751786
C46	C	0.939605	0.147922	0.668334
C47	C	0.893886	0.101975	0.626605
C48	C	0.848169	0.056023	0.668332
C49	C	0.848172	0.056022	0.751783
C50	C	0.848157	0.056022	0.331785
C51	C	0.848156	0.056028	0.248328
C52	C	0.939590	0.147922	0.248336
C53	C	0.939593	0.147922	0.331787
C54	C	0.893879	0.101967	0.373507
C55	C	0.893879	0.101969	0.463995
C56	C	0.893882	0.101976	0.536118
H57	H	0.520924	0.103987	-0.131072
H58	H	0.898202	-0.127759	0.131178
H59	H	0.520934	0.104014	0.131168
H60	H	0.976819	0.185339	0.365758
O61	O	0.670302	0.106533	0.142540
C62	C	0.642313	0.171741	0.186509
H63	H	0.614536	0.217189	0.144221
H64	H	0.598457	0.156199	0.231574
C65	C	0.742617	0.146756	0.282730
C66	C	0.708507	0.202578	0.230789
H67	H	0.783448	0.165776	0.310046
H68	H	0.761473	0.102821	0.253108
H69	H	0.706063	0.133809	0.320276
H70	H	0.745058	0.215516	0.193237
H71	H	0.689659	0.246515	0.260405
H72	H	0.810945	0.018607	0.785752
O73	O	0.895919	-0.277284	0.142473
C74	C	0.960726	-0.331621	0.146785
H75	H	0.982371	-0.346329	0.084031
H76	H	1.007098	-0.307288	0.182450
C77	C	0.913050	-0.385916	0.265163
C78	C	0.939632	-0.403985	0.188087
H79	H	0.900041	-0.430553	0.290643
H80	H	0.869390	-0.349307	0.262260
H81	H	0.951699	-0.365637	0.294873
H82	H	0.900981	-0.424254	0.158375
H83	H	0.983286	-0.440600	0.190986
H84	H	0.891856	-0.525065	0.131176
H85	H	0.266838	0.099946	0.131185
H86	H	0.810948	0.018608	0.634350
O87	O	0.889325	-0.674442	-0.142437
C88	C	0.824113	-0.646452	-0.186405
H89	H	0.778667	-0.618678	-0.144115
H90	H	0.839651	-0.602593	-0.231470
C91	C	0.849096	-0.746751	-0.282628
C92	C	0.793276	-0.712645	-0.230685
H93	H	0.830076	-0.787581	-0.309945
H94	H	0.893032	-0.765608	-0.253008
H95	H	0.862040	-0.710195	-0.320174
H96	H	0.780341	-0.749198	-0.193134
H97	H	0.749337	-0.693796	-0.260300
H98	H	0.889568	-0.668287	0.131176
O99	O	0.670356	0.106521	-0.142411
C100	C	0.707343	0.172765	-0.146735
H101	H	0.677478	0.218187	-0.105731
H102	H	0.769136	0.158911	-0.127315
C103	C	0.741296	0.146695	-0.283443
C104	C	0.704612	0.202486	-0.233086
H105	H	0.739615	0.165027	-0.336708
H106	H	0.716380	0.102064	-0.280529
H107	H	0.792788	0.135156	-0.267249
H108	H	0.653120	0.214018	-0.249274
H109	H	0.729520	0.247120	-0.236004
H110	H	0.976828	0.185345	0.785756
H111	H	0.123627	0.097672	0.131194
O112	O	0.273136	0.100077	-0.142337
C113	C	0.351280	0.101310	-0.126847
H114	H	0.358890	0.125435	-0.064737
H115	H	0.381733	0.040973	-0.130275
C116	C	0.375874	0.121944	-0.265480
C117	C	0.385221	0.151580	-0.189198
H118	H	0.396812	0.152950	-0.303943
H119	H	0.323227	0.121110	-0.275917
H120	H	0.401252	0.071664	-0.268325
H121	H	0.359835	0.201855	-0.186351
H122	H	0.437864	0.152423	-0.178762
O123	O	0.891819	-0.518827	-0.142401
C124	C	0.827035	-0.464463	-0.146740
H125	H	0.780853	-0.482169	-0.105731
H126	H	0.842803	-0.406594	-0.127337
C127	C	0.854075	-0.437585	-0.283456
C128	C	0.797351	-0.459335	-0.233093
H129	H	0.835766	-0.434419	-0.336723
H130	H	0.897723	-0.474209	-0.280533
H131	H	0.867210	-0.389363	-0.267277
H132	H	0.784225	-0.507561	-0.249266
H133	H	0.753701	-0.422719	-0.236021
H134	H	0.895899	-0.270983	-0.131055
H135	H	0.123605	0.097662	-0.131045
H136	H	0.976833	0.185335	0.634368
O137	O	0.898311	-0.121674	-0.142486
C138	C	0.897461	-0.173438	-0.206273
H139	H	0.920527	-0.232885	-0.185091
H140	H	0.836628	-0.173793	-0.228484
C141	C	0.919220	-0.076185	-0.300577
C142	C	0.947556	-0.149198	-0.274562
H143	H	0.950118	-0.061231	-0.342703
H144	H	0.919790	-0.041309	-0.257603
H145	H	0.868526	-0.076490	-0.319081
H146	H	0.998245	-0.148889	-0.256050
H147	H	0.946996	-0.184073	-0.317534
H148	H	0.810934	0.018603	0.365743
O149	O	0.983985	0.192488	0.207684
C150	C	0.974172	0.182651	0.125080
H151	H	0.952819	0.125297	0.113679
H152	H	0.930886	0.230102	0.101397
C153	C	1.076994	0.255729	0.096245
C154	C	1.050774	0.185282	0.082241
H155	H	1.124244	0.257356	0.069818
H156	H	1.083604	0.262359	0.151897
H157	H	1.040915	0.295264	0.076508
H158	H	1.086848	0.145750	0.101986
H159	H	1.044172	0.178646	0.026592
H160	H	0.810925	0.018610	0.214355
