data_functionalizedCrystal
_audit_creation_method	'MofGen! by Chris Wilmer'
_symmetry_space_group_name_H-M	'P1'
_symmetry_Int_Tables_number	1
_symmetry_cell_setting	triclinic
loop_
_symmetry_equiv_pos_as_xyz
  x,y,z
_cell_length_a	19.805407
_cell_length_b	19.805405
_cell_length_c	19.805398
_cell_angle_alpha	89.972363
_cell_angle_beta	89.983299
_cell_angle_gamma	90.028350
loop_
_atom_site_label
_atom_site_type_symbol
_atom_site_fract_x
_atom_site_fract_y
_atom_site_fract_z
Zn1	Zn	1.034711	-0.269455	-0.382727
Zn2	Zn	1.368044	0.063878	-0.049393
Zn3	Zn	1.701378	0.397212	0.283940
Zn4	Zn	1.034633	-0.382640	-0.269535
Zn5	Zn	1.367966	-0.049307	0.063798
Zn6	Zn	1.701300	0.284027	0.397132
Zn7	Zn	0.921533	-0.269474	-0.269550
Zn8	Zn	1.254866	0.063859	0.063784
Zn9	Zn	1.588200	0.397193	0.397117
Zn10	Zn	0.921489	-0.382611	-0.382680
Zn11	Zn	1.254822	-0.049278	-0.049347
Zn12	Zn	1.588156	0.284055	0.283987
O13	O	0.978091	-0.326045	-0.326123
O14	O	1.311425	0.007288	0.007210
O15	O	1.644758	0.340622	0.340544
O16	O	1.129417	-0.284473	-0.367725
O17	O	1.462750	0.048860	-0.034392
O18	O	1.796084	0.382193	0.298942
O19	O	1.019616	-0.367648	-0.174820
O20	O	1.352949	-0.034315	0.158513
O21	O	1.686283	0.299018	0.491846
O22	O	0.936597	-0.174755	-0.284588
O23	O	1.269930	0.158578	0.048745
O24	O	1.603264	0.491912	0.382078
O25	O	1.129360	-0.367630	-0.284564
O26	O	1.462693	-0.034296	0.048770
O27	O	1.796027	0.299037	0.382103
O28	O	1.019749	-0.174741	-0.367739
O29	O	1.353082	0.158592	-0.034406
O30	O	1.686415	0.491926	0.298928
O31	O	0.936522	-0.284506	-0.174831
O32	O	1.269855	0.048827	0.158502
O33	O	1.603188	0.382161	0.491836
O34	O	0.826811	-0.284478	-0.284543
O35	O	1.160144	0.048855	0.048790
O36	O	1.493477	0.382189	0.382123
O37	O	0.936522	-0.367581	-0.477403
O38	O	1.269856	-0.034247	-0.144070
O39	O	1.603189	0.299086	0.189264
O40	O	0.826778	-0.367599	-0.367660
O41	O	1.160112	-0.034266	-0.034326
O42	O	1.493445	0.299067	0.299007
O43	O	1.019706	-0.284445	-0.477437
O44	O	1.353039	0.048888	-0.144104
O45	O	1.686373	0.382221	0.189230
O46	O	1.019573	-0.477353	-0.284518
O47	O	1.352907	-0.144019	0.048815
O48	O	1.686240	0.189314	0.382148
O49	O	0.936447	-0.477332	-0.367646
O50	O	1.269780	-0.143998	-0.034312
O51	O	1.603114	0.189335	0.299021
C52	C	0.802235	-0.326038	-0.326098
C53	C	1.135569	0.007295	0.007235
C54	C	1.468902	0.340629	0.340568
C55	C	0.727003	-0.326051	-0.326104
C56	C	1.060337	0.007282	0.007229
C57	C	1.393670	0.340615	0.340563
C58	C	0.265246	-0.282826	-0.369517
C59	C	0.598579	0.050507	-0.036184
C60	C	0.931912	0.383840	0.297149
C61	C	0.335934	-0.282828	-0.369513
C62	C	0.669267	0.050506	-0.036179
C63	C	1.002601	0.383839	0.297154
C64	C	0.371242	-0.326055	-0.326145
C65	C	0.704575	0.007278	0.007189
C66	C	1.037908	0.340611	0.340522
C67	C	0.335857	-0.369290	-0.282784
C68	C	0.669191	-0.035956	0.050550
C69	C	1.002524	0.297377	0.383883
C70	C	0.265170	-0.369291	-0.282793
C71	C	0.598503	-0.035958	0.050541
C72	C	0.931837	0.297375	0.383874
C73	C	0.620931	-0.369284	-0.282748
C74	C	0.954264	-0.035951	0.050585
C75	C	1.287597	0.297382	0.383919
C76	C	0.691623	-0.369278	-0.282741
C77	C	1.024956	-0.035945	0.050592
C78	C	1.358289	0.297389	0.383926
C79	C	0.691695	-0.282821	-0.369468
C80	C	1.025028	0.050513	-0.036135
C81	C	1.358361	0.383846	0.297199
C82	C	0.621007	-0.282822	-0.369477
C83	C	0.954341	0.050511	-0.036143
C84	C	1.287674	0.383844	0.297190
C85	C	0.585629	-0.326059	-0.326119
C86	C	0.918962	0.007275	0.007215
C87	C	1.252296	0.340608	0.340548
C88	C	0.508981	-0.326058	-0.326125
C89	C	0.842314	0.007275	0.007208
C90	C	1.175647	0.340609	0.340541
C91	C	0.447889	-0.326053	-0.326134
C92	C	0.781222	0.007280	0.007199
C93	C	1.114556	0.340613	0.340533
C94	C	0.978015	-0.501901	-0.326090
C95	C	1.311349	-0.168568	0.007243
C96	C	1.644682	0.164766	0.340577
C97	C	0.978045	-0.577133	-0.326099
C98	C	1.311378	-0.243800	0.007235
C99	C	1.644711	0.089534	0.340568
C100	C	1.021371	-0.612466	-0.282860
C101	C	1.354704	-0.279132	0.050474
C102	C	1.688037	0.054201	0.383807
C103	C	1.021399	-0.683154	-0.282875
C104	C	1.354733	-0.349821	0.050459
C105	C	1.688066	-0.016488	0.383792
C106	C	0.978098	-0.718509	-0.326126
C107	C	1.311432	-0.385175	0.007208
C108	C	1.644765	-0.051842	0.340541
C109	C	0.934770	-0.683171	-0.369370
C110	C	1.268104	-0.349838	-0.036036
C111	C	1.601437	-0.016504	0.297297
C112	C	0.934746	-0.612484	-0.369357
C113	C	1.268079	-0.279151	-0.036024
C114	C	1.601412	0.054183	0.297309
C115	C	0.934870	-0.968244	-0.369420
C116	C	1.268204	-0.634911	-0.036086
C117	C	1.601537	-0.301578	0.297247
C118	C	0.934897	-1.038936	-0.369427
C119	C	1.268230	-0.705603	-0.036094
C120	C	1.601564	-0.372270	0.297240
C121	C	1.021524	-1.038915	-0.282937
C122	C	1.354857	-0.705581	0.050396
C123	C	1.688191	-0.372248	0.383730
C124	C	1.021499	-0.968227	-0.282925
C125	C	1.354833	-0.634894	0.050409
C126	C	1.688166	-0.301561	0.383742
C127	C	0.978174	-0.932896	-0.326171
C128	C	1.311508	-0.599563	0.007163
C129	C	1.644841	-0.266229	0.340496
C130	C	0.978144	-0.856248	-0.326155
C131	C	1.311478	-0.522914	0.007178
C132	C	1.644811	-0.189581	0.340512
C133	C	0.978124	-0.795156	-0.326139
C134	C	1.311457	-0.461822	0.007195
C135	C	1.644791	-0.128489	0.340528
C136	C	1.154634	-0.326053	-0.326148
C137	C	1.487968	0.007281	0.007186
C138	C	1.821301	0.340614	0.340519
C139	C	1.229866	-0.326056	-0.326158
C140	C	1.563200	0.007278	0.007175
C141	C	1.896533	0.340611	0.340508
C142	C	0.978118	-0.326008	-0.502666
C143	C	1.311451	0.007326	-0.169332
C144	C	1.644785	0.340659	0.164001
C145	C	0.978129	-0.325992	-0.577898
C146	C	1.311463	0.007342	-0.244564
C147	C	1.644796	0.340675	0.088769
C148	C	0.978186	-0.149502	-0.326171
C149	C	1.311520	0.183831	0.007163
C150	C	1.644853	0.517164	0.340496
C151	C	0.978227	-0.074270	-0.326191
C152	C	1.311560	0.259063	0.007142
C153	C	1.644893	0.592396	0.340476
C154	C	1.021525	-0.282583	-1.039708
C155	C	1.354858	0.050750	-0.706374
C156	C	1.688191	0.384084	-0.373041
C157	C	1.021514	-0.282604	-0.969019
C158	C	1.354847	0.050729	-0.635686
C159	C	1.688181	0.384063	-0.302353
C160	C	0.978199	-0.325897	-0.933660
C161	C	1.311532	0.007436	-0.600326
C162	C	1.644865	0.340769	-0.266993
C163	C	0.934896	-0.369178	-0.968992
C164	C	1.268229	-0.035845	-0.635659
C165	C	1.601563	0.297489	-0.302325
C166	C	0.934911	-0.369160	-1.039679
C167	C	1.268244	-0.035827	-0.706346
C168	C	1.601577	0.297507	-0.373013
C169	C	0.934837	-0.369251	-0.683919
C170	C	1.268171	-0.035918	-0.350585
C171	C	1.601504	0.297415	-0.017252
C172	C	0.934825	-0.369264	-0.613226
C173	C	1.268158	-0.035931	-0.279893
C174	C	1.601491	0.297402	0.053440
C175	C	1.021441	-0.282695	-0.613259
C176	C	1.354774	0.050638	-0.279925
C177	C	1.688107	0.383972	0.053408
C178	C	1.021455	-0.282677	-0.683946
C179	C	1.354789	0.050656	-0.350613
C180	C	1.688122	0.383989	-0.017279
C181	C	0.978155	-0.325960	-0.719272
C182	C	1.311489	0.007373	-0.385939
C183	C	1.644822	0.340707	-0.052605
C184	C	0.978168	-0.325938	-0.795921
C185	C	1.311502	0.007395	-0.462587
C186	C	1.644835	0.340729	-0.129254
C187	C	0.978182	-0.325917	-0.857012
C188	C	1.311515	0.007417	-0.523679
C189	C	1.644849	0.340750	-0.190346
C190	C	0.978104	-0.326034	-0.150267
C191	C	1.311437	0.007300	0.183066
C192	C	1.644771	0.340633	0.516400
C193	C	0.978224	-0.325859	-0.075035
C194	C	1.311557	0.007474	0.258298
C195	C	1.644891	0.340808	0.591631
H196	H	0.236365	-0.404494	-0.247486
H197	H	0.569698	-0.071161	0.085847
H198	H	0.903032	0.262172	0.419180
H199	H	0.899631	-0.404431	-0.940196
H200	H	1.232964	-0.071098	-0.606863
H201	H	1.566298	0.262235	-0.273530
H202	H	1.056679	-0.711919	-0.247665
H203	H	1.390013	-0.378586	0.085669
H204	H	1.723346	-0.045252	0.419002
H205	H	1.056757	-0.939444	-0.247704
H206	H	1.390090	-0.606111	0.085630
H207	H	1.723423	-0.272777	0.418963
H208	H	1.056776	-0.247366	-0.940259
H209	H	1.390109	0.085967	-0.606926
H210	H	1.723442	0.419300	-0.273592
H211	H	0.899651	-0.404400	-1.068442
H212	H	1.232985	-0.071067	-0.735109
H213	H	1.566318	0.262266	-0.401775
H214	H	1.056804	-1.067690	-0.247726
H215	H	1.390137	-0.734357	0.085607
H216	H	1.723471	-0.401023	0.418940
H217	H	0.592263	-0.247620	-0.404789
H218	H	0.925597	0.085714	-0.071456
H219	H	1.258930	0.419047	0.261878
H220	H	0.899548	-0.404519	-0.584438
H221	H	1.232881	-0.071186	-0.251105
H222	H	1.566214	0.262148	0.082228
Br223	Br	1.080248	-0.223926	-0.731931
Br224	Br	1.413582	0.109407	-0.398597
Br225	Br	1.746915	0.442741	-0.065264
H226	H	0.899637	-1.067720	-0.404652
H227	H	1.232970	-0.734387	-0.071319
H228	H	1.566303	-0.401053	0.262014
H229	H	1.056628	-0.583685	-0.247637
H230	H	1.389962	-0.250352	0.085697
H231	H	1.723295	0.082982	0.419030
H232	H	0.899592	-0.939483	-0.404631
H233	H	1.232926	-0.606150	-0.071297
H234	H	1.566259	-0.272816	0.262036
H235	H	0.236503	-0.247621	-0.404829
H236	H	0.569837	0.085712	-0.071495
H237	H	0.903170	0.419045	0.261838
Br238	Br	0.876009	-0.731151	-0.428074
Br239	Br	1.209343	-0.397818	-0.094741
Br240	Br	1.542676	-0.064484	0.238593
H241	H	0.899466	-0.583717	-0.404568
H242	H	1.232799	-0.250383	-0.071235
H243	H	1.566133	0.082950	0.262099
Br244	Br	1.080304	-0.223815	-1.087689
Br245	Br	1.413637	0.109518	-0.754356
Br246	Br	1.746970	0.442852	-0.421023
Br247	Br	0.876078	-0.427997	-0.731853
Br248	Br	1.209411	-0.094664	-0.398519
Br249	Br	1.542745	0.238669	-0.065186
Br250	Br	1.080203	-0.223949	-0.565312
Br251	Br	1.413536	0.109384	-0.231979
Br252	Br	1.746869	0.442717	0.101354
Br253	Br	0.739712	-0.224143	-0.428314
Br254	Br	1.073045	0.109190	-0.094981
Br255	Br	1.406378	0.442524	0.238352
H256	H	0.720368	-0.404482	-0.247424
H257	H	1.053701	-0.071149	0.085909
H258	H	1.387035	0.262185	0.419242
Br259	Br	0.383947	-0.224162	-0.428365
Br260	Br	0.717280	0.109171	-0.095032
Br261	Br	1.050614	0.442505	0.238301
H262	H	0.592134	-0.404488	-0.247441
H263	H	0.925467	-0.071155	0.085892
H264	H	1.258801	0.262179	0.419226
H265	H	0.364610	-0.404489	-0.247475
H266	H	0.697944	-0.071156	0.085858
H267	H	1.031277	0.262178	0.419191
