data_functionalizedCrystal
_audit_creation_method	'MofGen! by Chris Wilmer'
_symmetry_space_group_name_H-M	'P1'
_symmetry_Int_Tables_number	1
_symmetry_cell_setting	triclinic
loop_
_symmetry_equiv_pos_as_xyz
  x,y,z
_cell_length_a	13.262402
_cell_length_b	13.339070
_cell_length_c	16.176319
_cell_angle_alpha	89.996815
_cell_angle_beta	105.910929
_cell_angle_gamma	99.431904
loop_
_atom_site_label
_atom_site_type_symbol
_atom_site_fract_x
_atom_site_fract_y
_atom_site_fract_z
O1	O	1.432363	0.136447	0.253340
O2	O	1.932363	0.636447	0.753340
O3	O	1.131108	0.151277	0.185598
O4	O	1.631108	0.651277	0.685598
O5	O	1.247161	-0.003547	0.211697
O6	O	1.747161	0.496453	0.711697
O7	O	1.316310	0.291272	0.227241
O8	O	1.816310	0.791272	0.727241
O9	O	1.247136	-0.003557	0.349184
O10	O	1.747136	0.496443	0.849184
O11	O	1.131083	0.151267	0.323086
O12	O	1.631083	0.651267	0.823086
O13	O	1.432337	0.136437	0.390828
O14	O	1.932337	0.636437	0.890828
Cu15	Cu	1.281708	0.143851	0.369510
Cu16	Cu	1.781708	0.643851	0.869510
Cu17	Cu	1.281738	0.143863	0.206915
Cu18	Cu	1.781738	0.643863	0.706915
O19	O	1.316285	0.291262	0.364729
O20	O	1.816285	0.791262	0.864729
C21	C	1.091751	0.150440	0.245495
C22	C	1.591751	0.650440	0.745495
C23	C	0.974512	0.147950	0.219131
C24	C	1.474512	0.647950	0.719131
C25	C	1.235468	-0.041291	0.277813
C26	C	1.735468	0.458709	0.777813
C27	C	1.200651	-0.153740	0.269980
C28	C	1.700651	0.346260	0.769980
C29	C	0.919445	0.146783	0.131799
C30	C	1.419445	0.646783	0.631799
C31	C	0.809295	0.144453	0.107031
C32	C	1.309295	0.644453	0.607031
C33	C	0.754199	0.143280	0.169593
C34	C	1.254199	0.643280	0.669593
C35	C	0.809265	0.144439	0.256927
C36	C	1.309265	0.644439	0.756927
C37	C	0.919427	0.146778	0.281697
C38	C	1.419427	0.646778	0.781697
C39	C	0.754181	0.143275	0.319491
C40	C	1.254181	0.643275	0.819491
C41	C	0.809247	0.144434	0.406825
C42	C	1.309247	0.644434	0.906825
C43	C	0.919398	0.146772	0.431592
C44	C	1.419398	0.646772	0.931592
C45	C	0.974494	0.147944	0.369030
C46	C	1.474494	0.647944	0.869030
C47	C	0.644019	0.140936	0.294721
C48	C	1.144019	0.640936	0.794721
C49	C	0.644000	0.140931	0.444619
C50	C	1.144000	0.640931	0.944619
C51	C	0.754151	0.143261	0.469387
C52	C	1.254151	0.643261	0.969387
C53	C	1.471369	-0.517389	0.330856
C54	C	1.971369	-0.017389	0.830856
C55	C	1.504085	-0.411739	0.338221
C56	C	2.004085	0.088261	0.838221
C57	C	1.428229	-0.347234	0.321161
C58	C	1.928229	0.152766	0.821161
C59	C	1.319652	-0.388390	0.296736
C60	C	1.819652	0.111610	0.796736
C61	C	1.286934	-0.494051	0.289378
C62	C	1.786934	0.005949	0.789378
C63	C	1.243793	-0.323896	0.279682
C64	C	1.743793	0.176104	0.779682
C65	C	1.135217	-0.365052	0.255257
C66	C	1.635217	0.134948	0.755257
C67	C	1.102504	-0.470703	0.247899
C68	C	1.602504	0.029297	0.747899
C69	C	1.178359	-0.535208	0.264959
C70	C	1.678359	-0.035208	0.764959
C71	C	1.276512	-0.218234	0.287041
C72	C	1.776512	0.281766	0.787041
C73	C	1.092077	-0.194896	0.245562
C74	C	1.592077	0.305104	0.745562
C75	C	1.059361	-0.300547	0.238198
C76	C	1.559361	0.199453	0.738198
C77	C	1.471695	0.137274	0.330929
C78	C	1.971695	0.637274	0.830929
C79	C	1.588934	0.139765	0.357287
C80	C	2.088934	0.639765	0.857287
C81	C	1.327978	0.329005	0.298611
C82	C	1.827978	0.829005	0.798611
C83	C	1.362795	0.441454	0.306438
C84	C	1.862795	0.941454	0.806438
N85	N	1.281695	0.143842	0.483873
N86	N	1.781695	0.643842	0.983873
N87	N	1.281757	0.143864	0.092554
N88	N	1.781757	0.643864	0.592554
C89	C	1.333113	0.075314	0.538700
C90	C	1.833113	0.575314	1.038700
C91	C	1.333118	0.075313	0.625248
C92	C	1.833118	0.575313	1.125248
C93	C	1.281711	0.143846	0.656969
C94	C	1.781711	0.643846	1.156969
C95	C	1.230286	0.212377	0.602134
C96	C	1.730286	0.712377	1.102134
C97	C	1.230275	0.212373	0.515586
C98	C	1.730275	0.712373	1.015586
C99	C	1.230327	0.212396	0.951171
C100	C	1.730327	0.712396	1.451171
C101	C	1.230345	0.212398	1.037727
C102	C	1.730345	0.712398	1.537727
C103	C	1.333170	0.075337	1.060834
C104	C	1.833170	0.575337	1.560834
C105	C	1.333159	0.075332	0.974286
C106	C	1.833159	0.575332	1.474286
C107	C	1.281730	0.143860	0.919457
C108	C	1.781730	0.643860	1.419457
C109	C	1.281724	0.143859	0.825612
C110	C	1.781724	0.643859	1.325612
C111	C	1.281723	0.143853	0.750814
C112	C	1.781723	0.643853	1.250814
H113	H	0.599195	0.139994	0.223613
H114	H	1.099195	0.639994	0.723613
H115	H	1.151727	-0.621238	0.258961
H116	H	1.651727	-0.121238	0.758961
H117	H	1.374985	0.019512	0.669889
H118	H	1.874985	0.519512	1.169889
H119	H	0.764469	0.143510	0.035924
H120	H	1.264469	0.643510	0.535924
H121	H	1.454873	-0.261209	0.327159
H122	H	1.954873	0.238791	0.827159
H123	H	0.964315	0.147746	0.080871
H124	H	1.464315	0.647746	0.580871
H125	H	0.599142	0.139979	0.495563
H126	H	1.099142	0.639979	0.995563
H127	H	1.064186	0.149835	0.389191
H128	H	1.564186	0.649835	0.889191
H129	H	1.188404	0.268174	0.470944
H130	H	1.688404	0.768174	0.970944
H131	H	0.964231	0.147725	0.502705
H132	H	1.464231	0.647725	1.002705
H133	H	1.364916	-0.184736	0.306928
H134	H	1.864916	0.315264	0.806928
H135	H	1.375024	0.019530	0.948464
H136	H	1.875024	0.519530	1.448464
H137	H	1.375042	0.019535	1.105484
H138	H	1.875042	0.519535	1.605484
H139	H	1.188480	0.268207	1.063550
H140	H	1.688480	0.768207	1.563550
H141	H	1.188455	0.268195	0.906537
H142	H	1.688455	0.768195	1.406537
H143	H	1.188423	0.268174	0.627964
H144	H	1.688423	0.768174	1.127964
H145	H	1.030308	-0.142376	0.231675
H146	H	1.530308	0.357624	0.731675
H147	H	0.664510	0.141383	0.149422
H148	H	1.164510	0.641383	0.649422
H149	H	0.799001	0.144206	0.540496
H150	H	1.299001	0.644206	1.040496
H151	H	1.014094	-0.504209	0.228017
H152	H	1.514094	-0.004209	0.728017
H153	H	1.592487	-0.378237	0.358108
H154	H	2.092487	0.121763	0.858108
H155	H	1.533119	-0.569918	0.344750
H156	H	2.033119	-0.069918	0.844750
H157	H	0.970956	-0.334072	0.218311
H158	H	1.470956	0.165928	0.718311
H159	H	1.374980	0.019511	0.512881
H160	H	1.874980	0.519511	1.012881
