data_functionalizedCrystal
_audit_creation_method	'MofGen! by Chris Wilmer'
_symmetry_space_group_name_H-M	'P1'
_symmetry_Int_Tables_number	1
_symmetry_cell_setting	triclinic
loop_
_symmetry_equiv_pos_as_xyz
  x,y,z
_cell_length_a	14.519709
_cell_length_b	13.339070
_cell_length_c	12.996460
_cell_angle_alpha	90.002942
_cell_angle_beta	89.999398
_cell_angle_gamma	99.654720
loop_
_atom_site_label
_atom_site_type_symbol
_atom_site_fract_x
_atom_site_fract_y
_atom_site_fract_z
O1	O	-1.257617	-0.132664	0.085426
O2	O	-0.993115	-0.148288	0.085456
O3	O	-1.095010	0.006843	0.085441
O4	O	-1.155722	-0.287794	0.085440
O5	O	-1.094994	0.006834	-0.085692
O6	O	-0.993099	-0.148297	-0.085678
O7	O	-1.257601	-0.132673	-0.085708
Cu8	Cu	-1.125349	-0.140485	-0.101319
Cu9	Cu	-1.125367	-0.140475	0.101067
O10	O	-1.155706	-0.287803	-0.085693
C11	C	-1.084746	0.044546	-0.000123
C12	C	-1.054177	0.156903	-0.000115
C13	C	-0.958562	-0.147564	-0.000107
C14	C	-0.855625	-0.145382	-0.000095
C15	C	-1.292154	-0.133396	-0.000143
C16	C	-1.395091	-0.135578	-0.000148
C17	C	-0.478686	-0.137349	-0.000141
C18	C	-0.583562	-0.139580	-0.000128
C19	C	-0.667153	-0.141365	-0.000117
C20	C	-0.772035	-0.143597	-0.000106
C21	C	-1.165970	-0.325506	-0.000127
C22	C	-1.196539	-0.437863	-0.000128
N23	N	-1.125342	-0.140492	-0.243666
C24	C	-1.291868	0.521266	-0.000143
C25	C	-1.320592	0.415701	-0.000156
C26	C	-1.253991	0.350997	-0.000146
C27	C	-1.158660	0.391867	-0.000123
C28	C	-1.129933	0.497442	-0.000118
C29	C	-1.092056	0.327173	-0.000120
C30	C	-0.996725	0.368043	-0.000097
C31	C	-0.968003	0.473608	-0.000092
C32	C	-1.034604	0.538312	-0.000102
C33	C	-1.120783	0.221598	-0.000125
C34	C	-0.958848	0.197774	-0.000100
C35	C	-0.930124	0.303338	-0.000087
C36	C	-1.125347	-0.140495	-0.336772
C37	C	-1.125354	-0.140488	-0.453577
C38	C	-1.125362	-0.140477	-0.546675
C39	C	-1.125371	-0.140471	-0.663488
N40	N	-1.125379	-0.140460	0.243414
H41	H	-1.198402	0.188332	-0.000144
H42	H	-0.890378	0.506880	-0.000081
H43	H	-1.346085	0.573957	-0.000160
H44	H	-0.904615	0.145091	-0.000096
H45	H	-0.852504	0.336630	-0.000069
Br46	Br	-1.292975	0.207728	-0.000160
Br47	Br	-1.449964	0.360241	-0.000166
Br48	Br	-0.995624	0.681586	0.000055
