data_functionalizedCrystal
_audit_creation_method	'MofGen! by Chris Wilmer'
_symmetry_space_group_name_H-M	'P1'
_symmetry_Int_Tables_number	1
_symmetry_cell_setting	triclinic
loop_
_symmetry_equiv_pos_as_xyz
  x,y,z
_cell_length_a	10.723023
_cell_length_b	14.519731
_cell_length_c	9.198806
_cell_angle_alpha	89.995832
_cell_angle_beta	89.996513
_cell_angle_gamma	84.078200
loop_
_atom_site_label
_atom_site_type_symbol
_atom_site_fract_x
_atom_site_fract_y
_atom_site_fract_z
O1	O	1.655992	0.129343	-0.120881
O2	O	1.292725	0.141724	-0.120888
O3	O	1.483976	0.001346	-0.120871
O4	O	1.464741	0.269722	-0.120898
O5	O	1.483961	0.001345	0.120914
O6	O	1.292710	0.141724	0.120897
O7	O	1.655977	0.129342	0.120904
Cu8	Cu	1.474342	0.135533	0.142977
Cu9	Cu	1.474360	0.135534	-0.142961
O10	O	1.464726	0.269721	0.120887
C11	C	1.246226	0.140823	0.000004
C12	C	1.107697	0.138128	0.000002
C13	C	1.483067	-0.033019	0.000022
C14	C	1.480367	-0.135413	0.000023
C15	C	1.045928	0.136926	0.125253
C16	C	0.902751	0.134140	0.125254
C17	C	1.478172	-0.218568	0.000019
C18	C	1.475430	-0.322891	0.000008
C19	C	1.473254	-0.406041	-0.000001
C20	C	1.470512	-0.510370	-0.000010
C21	C	1.702476	0.130243	0.000009
C22	C	1.841005	0.132939	0.000001
C23	C	1.465635	0.304085	-0.000009
C24	C	1.468336	0.406479	-0.000019
N25	N	1.474339	0.135532	0.344091
N26	N	1.474373	0.135527	-0.344075
C27	C	1.554642	0.076331	0.416295
C28	C	1.554661	0.076328	0.583708
H29	H	0.849630	0.133112	0.232485
H30	H	1.405623	0.186218	0.593842
H31	H	1.623375	0.025645	0.354175
N32	N	1.645744	0.009192	0.665941
H33	H	1.632849	0.018708	0.773878
H34	H	1.630949	-0.056297	0.639425
N35	N	1.383286	0.202670	0.426367
H36	H	1.329691	0.242177	0.355182
H37	H	1.327953	0.167071	0.489531
H38	H	1.099045	0.137954	0.232484
H39	H	0.894116	0.133978	-0.107236
N40	N	1.037348	0.136751	-0.142042
H41	H	0.973355	0.192768	-0.147844
H42	H	1.098322	0.137901	-0.225548
