data_functionalizedCrystal
_audit_creation_method	'MofGen! by Chris Wilmer'
_symmetry_space_group_name_H-M	'P1'
_symmetry_Int_Tables_number	1
_symmetry_cell_setting	triclinic
loop_
_symmetry_equiv_pos_as_xyz
  x,y,z
_cell_length_a	10.489741
_cell_length_b	23.532407
_cell_length_c	8.965430
_cell_angle_alpha	89.995773
_cell_angle_beta	89.998843
_cell_angle_gamma	83.693926
loop_
_atom_site_label
_atom_site_type_symbol
_atom_site_fract_x
_atom_site_fract_y
_atom_site_fract_z
O1	O	1.691383	0.080340	-0.123964
O2	O	1.319936	0.087881	-0.123989
O3	O	1.516860	0.001253	-0.123949
O4	O	1.494458	0.166968	-0.124005
O5	O	1.516844	0.001259	0.124130
O6	O	1.319920	0.087887	0.124090
O7	O	1.691366	0.080346	0.124115
Cu8	Cu	1.505641	0.084117	0.146754
Cu9	Cu	1.505661	0.084110	-0.146628
O10	O	1.494442	0.166974	0.124074
C11	C	1.272415	0.087315	0.000048
C12	C	1.130842	0.085611	0.000039
C13	C	1.064535	0.030491	0.000072
C14	C	0.971550	0.056526	-0.122250
C15	C	0.971568	0.056545	0.122337
C16	C	1.039723	0.111668	-0.122383
C17	C	1.039750	0.111679	0.122313
C18	C	0.946792	0.137754	-0.000039
C19	C	1.516282	-0.019964	0.000095
C20	C	1.514566	-0.083192	0.000106
C21	C	1.620344	-0.481594	0.000031
C22	C	1.618751	-0.541005	0.000020
O23	O	1.716808	-0.577100	-0.000029
N24	N	1.501680	-0.564407	0.000013
C25	C	1.386194	-0.528395	0.000003
O26	O	1.286470	-0.553755	-0.000006
C27	C	1.387789	-0.468985	0.000003
C28	C	1.504868	-0.445587	0.000025
C29	C	1.737414	-0.458195	0.000051
C30	C	1.739007	-0.398788	0.000066
C31	C	1.623530	-0.362781	0.000060
C32	C	1.506460	-0.386180	0.000039
C33	C	1.272305	-0.432974	-0.000018
C34	C	1.273909	-0.373561	-0.000018
C35	C	1.390988	-0.350162	0.000004
C36	C	1.392576	-0.290766	0.000048
N37	N	1.509648	-0.267364	0.000054
C38	C	1.625125	-0.303371	0.000060
C39	C	1.382854	-0.653160	-0.000002
C40	C	1.381258	-0.712568	0.000008
C41	C	1.613816	-0.725174	0.000023
C42	C	1.615410	-0.665765	0.000023
C43	C	1.499926	-0.629758	0.000005
C44	C	1.628461	-0.178612	0.000092
C45	C	1.630043	-0.119200	0.000112
C46	C	1.397486	-0.106599	0.000090
C47	C	1.395903	-0.166006	0.000077
C48	C	1.511401	-0.202012	0.000073
O49	O	1.294571	-0.254636	0.000090
O50	O	1.724833	-0.278003	0.000049
C51	C	1.738887	0.080912	0.000075
C52	C	1.880460	0.082616	0.000073
C53	C	1.495021	0.188191	0.000028
C54	C	1.496736	0.251419	0.000006
N55	N	1.505637	0.084121	0.353103
N56	N	1.505676	0.084101	-0.352977
C57	C	1.414538	0.124171	0.450390
C58	C	1.529652	0.135693	0.549807
C59	C	1.390572	0.072603	0.549813
C60	C	1.620808	0.095670	0.450331
C61	C	1.481652	0.032557	0.450328
C62	C	1.596850	0.044059	0.549701
H63	H	1.070014	0.134985	0.225718
H64	H	1.115731	-0.014820	-0.000066
H65	H	0.941318	0.033202	-0.225650
H66	H	1.461303	-0.011027	0.406598
N67	N	1.861974	-0.497027	0.000060
H68	H	1.936367	-0.473180	0.000074
H69	H	1.866374	-0.521951	0.092031
N70	N	1.699023	-0.000814	0.607124
H71	H	1.657817	-0.029624	0.669158
H72	H	1.745665	-0.020826	0.520050
N73	N	1.079525	0.142533	-0.259526
H74	H	1.175550	0.143479	-0.258716
H75	H	1.054062	0.121849	-0.351714
H76	H	1.293247	0.062871	0.593516
N77	N	1.556548	0.193442	0.607699
H78	H	1.557191	0.192894	0.720343
H79	H	1.642786	0.202416	0.569851
N80	N	1.312583	0.169074	0.392636
H81	H	1.353817	0.197424	0.329087
H82	H	1.248766	0.150159	0.330711
N83	N	1.749759	0.108629	0.392709
H84	H	1.748937	0.108573	0.280059
H85	H	1.768026	0.147430	0.429882
H86	H	0.941358	0.033215	0.225751
N87	N	1.269625	-0.191244	0.000065
H88	H	1.263787	-0.215604	-0.091909
H89	H	1.263847	-0.215591	0.092077
H90	H	1.707843	-0.754503	0.000022
N91	N	0.879313	0.197834	-0.000136
H92	H	0.904063	0.218570	-0.092575
H93	H	0.783472	0.196308	0.000803
N94	N	1.254973	-0.737795	0.000001
H95	H	1.249123	-0.762157	-0.091967
H96	H	1.249187	-0.762138	0.092020
H97	H	1.288807	-0.623845	-0.000004
N98	N	1.149336	-0.334733	-0.000011
H99	H	1.144805	-0.309810	0.091961
H100	H	1.144875	-0.309831	-0.092025
H101	H	1.722510	-0.207922	0.000082
N102	N	1.756325	-0.093963	0.000144
H103	H	1.829234	-0.125792	0.000142
H104	H	1.762064	-0.069583	-0.091814
H105	H	1.834344	-0.379743	0.000077
H106	H	1.176967	-0.452014	-0.000045
H107	H	1.710746	-0.646718	0.000040
N108	N	1.272941	-0.067757	0.000124
H109	H	1.291726	-0.026572	0.000140
H110	H	1.221877	-0.075376	-0.091842
