data_functionalizedCrystal
_audit_creation_method	'MofGen! by Chris Wilmer'
_symmetry_space_group_name_H-M	'P1'
_symmetry_Int_Tables_number	1
_symmetry_cell_setting	triclinic
loop_
_symmetry_equiv_pos_as_xyz
  x,y,z
_cell_length_a	11.169417
_cell_length_b	13.897448
_cell_length_c	11.169409
_cell_angle_alpha	89.964482
_cell_angle_beta	89.979436
_cell_angle_gamma	90.018571
loop_
_atom_site_label
_atom_site_type_symbol
_atom_site_fract_x
_atom_site_fract_y
_atom_site_fract_z
Zn1	Zn	1.834910	-0.383915	-0.678516
Zn2	Zn	2.334910	0.116085	-0.178516
Zn3	Zn	1.834771	-0.545250	-0.477821
Zn4	Zn	2.334771	-0.045250	0.022179
Zn5	Zn	1.634193	-0.383973	-0.477850
Zn6	Zn	2.134193	0.116027	0.022150
Zn7	Zn	1.634177	-0.545172	-0.678466
Zn8	Zn	2.134177	-0.045172	-0.178466
O9	O	1.734513	-0.464578	-0.578163
O10	O	2.234513	0.035422	-0.078163
O11	O	2.002841	-0.405324	-0.651902
O12	O	2.502841	0.094676	-0.151902
O13	O	1.808112	-0.523914	-0.309875
O14	O	2.308112	-0.023914	0.190125
O15	O	1.660883	-0.248984	-0.504502
O16	O	2.160883	0.251016	-0.004502
O17	O	2.002739	-0.523857	-0.504453
O18	O	2.502739	-0.023857	-0.004453
O19	O	1.808349	-0.248941	-0.651930
O20	O	2.308349	0.251059	-0.151930
O21	O	1.660749	-0.405424	-0.309896
O22	O	2.160749	0.094576	0.190104
O23	O	1.466241	-0.405348	-0.504454
O24	O	1.966241	0.094652	-0.004454
O25	O	1.660857	-0.523723	-0.846423
O26	O	2.160857	-0.023723	-0.346423
O27	O	1.466230	-0.523780	-0.651845
O28	O	1.966230	-0.023780	-0.151845
O29	O	1.808334	-0.405249	-0.846459
O30	O	2.308334	0.094751	-0.346459
O31	O	1.808097	-0.680222	-0.504404
O32	O	2.308097	-0.180222	-0.004404
O33	O	1.660722	-0.680164	-0.651817
O34	O	2.160722	-0.180164	-0.151817
C35	C	1.422688	-0.464563	-0.578148
C36	C	1.922688	0.035437	-0.078148
C37	C	1.289288	-0.464580	-0.578170
C38	C	1.789288	0.035420	-0.078170
C39	C	1.734425	-0.715192	-0.578129
C40	C	2.234425	-0.215192	-0.078129
C41	C	1.734497	-0.822406	-0.578154
C42	C	2.234497	-0.322406	-0.078154
C43	C	1.734624	-1.018701	-0.578229
C44	C	2.234624	-0.518701	-0.078229
C45	C	1.734550	-0.909468	-0.578191
C46	C	2.234550	-0.409468	-0.078191
C47	C	2.047555	-0.464593	-0.578180
C48	C	2.547555	0.035407	-0.078180
C49	C	2.180955	-0.464600	-0.578186
C50	C	2.680955	0.035400	-0.078186
C51	C	1.734609	-0.464471	-0.891206
C52	C	2.234609	0.035529	-0.391206
C53	C	1.734650	-0.464425	-1.024606
C54	C	2.234650	0.035575	-0.524606
C55	C	1.734633	-0.212985	-0.578224
C56	C	2.234633	0.287015	-0.078224
C57	C	1.734685	-0.105771	-0.578251
C58	C	2.234685	0.394229	-0.078251
C59	C	1.734486	-0.464614	-0.266339
C60	C	2.234486	0.035386	0.233661
C61	C	1.734678	-0.464388	-0.132939
C62	C	2.234678	0.035612	0.367061
