data_functionalizedCrystal
_audit_creation_method	'MofGen! by Chris Wilmer'
_symmetry_space_group_name_H-M	'P1'
_symmetry_Int_Tables_number	1
_symmetry_cell_setting	triclinic
loop_
_symmetry_equiv_pos_as_xyz
  x,y,z
_cell_length_a	18.215407
_cell_length_b	16.959453
_cell_length_c	18.215399
_cell_angle_alpha	90.028024
_cell_angle_beta	90.017813
_cell_angle_gamma	90.014501
loop_
_atom_site_label
_atom_site_type_symbol
_atom_site_fract_x
_atom_site_fract_y
_atom_site_fract_z
Zn1	Zn	1.125097	-0.314805	0.416076
Zn2	Zn	1.458430	0.018528	0.749409
Zn3	Zn	1.791764	0.351861	1.082742
Zn4	Zn	1.125016	-0.446991	0.293009
Zn5	Zn	1.458349	-0.113657	0.626343
Zn6	Zn	1.791683	0.219676	0.959676
Zn7	Zn	1.002030	-0.314818	0.293027
Zn8	Zn	1.335363	0.018516	0.626361
Zn9	Zn	1.668696	0.351849	0.959694
Zn10	Zn	1.002006	-0.446933	0.416039
Zn11	Zn	1.335339	-0.113600	0.749372
Zn12	Zn	1.668673	0.219734	1.082705
O13	O	1.063537	-0.380887	0.354538
O14	O	1.396870	-0.047553	0.687871
O15	O	1.730204	0.285780	1.021204
O16	O	1.228070	-0.332359	0.399759
O17	O	1.561404	0.000974	0.733092
O18	O	1.894737	0.334308	1.066425
O19	O	1.108677	-0.429487	0.190027
O20	O	1.442011	-0.096154	0.523361
O21	O	1.775344	0.237180	0.856694
O22	O	1.018398	-0.204205	0.309373
O23	O	1.351732	0.129128	0.642707
O24	O	1.685065	0.462462	0.976040
O25	O	1.228011	-0.429475	0.309342
O26	O	1.561344	-0.096142	0.642676
O27	O	1.894678	0.237191	0.976009
O28	O	1.108816	-0.204196	0.399776
O29	O	1.442149	0.129137	0.733110
O30	O	1.775482	0.462471	1.066443
O31	O	1.018320	-0.332380	0.190041
O32	O	1.351653	0.000953	0.523374
O33	O	1.684987	0.334287	0.856707
O34	O	0.899042	-0.332324	0.309337
O35	O	1.232375	0.001009	0.642671
O36	O	1.565709	0.334343	0.976004
O37	O	1.018358	-0.429377	0.519028
O38	O	1.351692	-0.096044	0.852361
O39	O	1.685025	0.237290	1.185694
O40	O	0.899025	-0.429389	0.399713
O41	O	1.232358	-0.096055	0.733046
O42	O	1.565691	0.237278	1.066380
O43	O	1.108793	-0.332303	0.519055
O44	O	1.442126	0.001030	0.852388
O45	O	1.775459	0.334363	1.185722
O46	O	1.108655	-0.557594	0.309306
O47	O	1.441988	-0.224261	0.642640
O48	O	1.775321	0.109073	0.975973
O49	O	1.018280	-0.557552	0.399695
O50	O	1.351613	-0.224218	0.733029
O51	O	1.684946	0.109115	1.066362
C52	C	0.872331	-0.380852	0.354523
C53	C	1.205664	-0.047519	0.687857
C54	C	1.538997	0.285815	1.021190
C55	C	0.790532	-0.380856	0.354535
C56	C	1.123865	-0.047523	0.687868
C57	C	1.457199	0.285811	1.021201
C58	C	0.525500	-0.330416	0.401693
C59	C	0.858833	0.002918	0.735026
C60	C	1.192166	0.336251	1.068359
C61	C	0.602358	-0.330403	0.401690
C62	C	0.935692	0.002930	0.735024
C63	C	1.269025	0.336264	1.068357
C64	C	0.602316	-0.431383	0.307399
C65	C	0.935649	-0.098050	0.640732
C66	C	1.268982	0.235283	0.974066
C67	C	0.525458	-0.431399	0.307406
C68	C	0.858792	-0.098066	0.640739
C69	C	1.192125	0.235267	0.974072
C70	C	0.487052	-0.380911	0.354551
C71	C	0.820386	-0.047578	0.687885
C72	C	1.153719	0.285755	1.021218
C73	C	0.640768	-0.380882	0.354542
C74	C	0.974102	-0.047549	0.687876
C75	C	1.307435	0.285784	1.021209
C76	C	0.724102	-0.380869	0.354540
C77	C	1.057435	-0.047535	0.687873
C78	C	1.390769	0.285798	1.021206
C79	C	0.403713	-0.380926	0.354555
C80	C	0.737047	-0.047592	0.687889
C81	C	1.070380	0.285741	1.021222
C82	C	1.063476	-0.586253	0.354511
C83	C	1.396809	-0.252920	0.687844
C84	C	1.730142	0.080414	1.021178
C85	C	1.063517	-0.674110	0.354524
C86	C	1.396850	-0.340776	0.687857
C87	C	1.730183	-0.007443	1.021191
C88	C	1.110678	-1.045522	0.401699
C89	C	1.444011	-0.712189	0.735033
C90	C	1.777344	-0.378855	1.068366
C91	C	1.016602	-1.045648	0.307485
C92	C	1.349935	-0.712315	0.640819
C93	C	1.683269	-0.378982	0.974152
C94	C	1.016575	-0.963102	0.307468
C95	C	1.349908	-0.629769	0.640802
C96	C	1.683242	-0.296436	0.974135
C97	C	1.063599	-0.921763	0.354569
C98	C	1.396932	-0.588429	0.687902
C99	C	1.730266	-0.255096	1.021235
C100	C	1.110650	-0.962968	0.401686
C101	C	1.443983	-0.629635	0.735019
C102	C	1.777317	-0.296302	1.068352
C103	C	0.969519	-0.921890	0.260358
C104	C	1.302853	-0.588557	0.593691
C105	C	1.636186	-0.255224	0.927024
C106	C	0.969489	-0.839339	0.260339
C107	C	1.302823	-0.506006	0.593673
C108	C	1.636156	-0.172673	0.927006
C109	C	1.016518	-0.797998	0.307436
C110	C	1.349851	-0.464665	0.640770
C111	C	1.683184	-0.131331	0.974103
C112	C	1.063571	-0.839209	0.354555
C113	C	1.396905	-0.505876	0.687888
C114	C	1.730238	-0.172542	1.021221
C115	C	1.110595	-0.797869	0.401655
C116	C	1.443929	-0.464536	0.734988
C117	C	1.777262	-0.131202	1.068321
C118	C	1.157653	-0.839079	0.448770
C119	C	1.490987	-0.505745	0.782103
C120	C	1.824320	-0.172412	1.115437
C121	C	1.157678	-0.921627	0.448783
C122	C	1.491012	-0.588294	0.782116
C123	C	1.824345	-0.254960	1.115449
C124	C	1.016493	-0.715450	0.307424
C125	C	1.349826	-0.382116	0.640757
C126	C	1.683159	-0.048783	0.974090
C127	C	1.110568	-0.715316	0.401641
C128	C	1.443901	-0.381982	0.734974
C129	C	1.777235	-0.048649	1.068308
C130	C	1.255490	-0.380922	0.354553
C131	C	1.588823	-0.047589	0.687886
C132	C	1.922157	0.285744	1.021219
C133	C	1.337289	-0.380937	0.354559
C134	C	1.670622	-0.047604	0.687892
C135	C	2.003956	0.285729	1.021226
C136	C	1.063582	-0.380832	0.546491
C137	C	1.396915	-0.047499	0.879824
C138	C	1.730249	0.285834	1.213157
C139	C	1.063601	-0.380809	0.628290
C140	C	1.396934	-0.047476	0.961623
C141	C	1.730268	0.285858	1.294956
C142	C	1.063619	-0.174719	0.354581
C143	C	1.396952	0.158615	0.687914
C144	C	1.730285	0.491948	1.021248
C145	C	1.063654	-0.086862	0.354599
C146	C	1.396987	0.246471	0.687933
C147	C	1.730320	0.579805	1.021266
C148	C	1.063535	-0.380884	0.163332
C149	C	1.396868	-0.047551	0.496665
C150	C	1.730201	0.285783	0.829998
C151	C	1.063658	-0.380685	0.081533
C152	C	1.396992	-0.047351	0.414866
C153	C	1.730325	0.285982	0.748200
C154	C	1.110707	-0.330215	0.816499
C155	C	1.444040	0.003118	1.149833
C156	C	1.777374	0.336451	1.483166
C157	C	1.110716	-0.330192	0.893358
C158	C	1.444049	0.003141	1.226691
C159	C	1.777383	0.336474	1.560025
C160	C	1.016547	-0.431280	0.893318
C161	C	1.349880	-0.097947	1.226652
C162	C	1.683214	0.235386	1.559985
C163	C	1.016535	-0.431299	0.816461
C164	C	1.349868	-0.097965	1.149794
C165	C	1.683202	0.235368	1.483128
C166	C	1.063619	-0.380768	0.778053
C167	C	1.396953	-0.047434	1.111387
C168	C	1.730286	0.285899	1.444720
C169	C	1.063640	-0.380726	0.931769
C170	C	1.396973	-0.047393	1.265103
C171	C	1.730307	0.285941	1.598436
C172	C	1.063649	-0.380701	1.015103
C173	C	1.396982	-0.047368	1.348437
C174	C	1.730316	0.285965	1.681770
C175	C	1.063609	-0.380791	0.694714
C176	C	1.396943	-0.047458	1.028048
C177	C	1.730276	0.285876	1.361381
H178	H	0.494232	-0.289305	0.440082
H179	H	0.827565	0.044029	0.773415
H180	H	1.160899	0.377362	1.106748
H181	H	0.978175	-0.681900	0.269067
H182	H	1.311509	-0.348567	0.602400
H183	H	1.644842	-0.015234	0.935733
H184	H	1.149058	-0.289027	0.924657
H185	H	1.482392	0.044307	1.257991
H186	H	1.815725	0.377640	1.591324
H187	H	0.978214	-0.472423	0.924599
H188	H	1.311548	-0.139089	1.257932
H189	H	1.644881	0.194244	1.591266
H190	H	0.978185	-0.472464	0.785157
H191	H	1.311518	-0.139130	1.118491
H192	H	1.644852	0.194203	1.451824
H193	H	0.494154	-0.472523	0.269017
H194	H	0.827487	-0.139190	0.602350
H195	H	1.160820	0.194143	0.935684
H196	H	1.149044	-0.289067	0.785230
H197	H	1.482378	0.044266	1.118563
H198	H	1.815711	0.377599	1.451897
H199	H	0.633595	-0.472487	0.269013
H200	H	0.966928	-0.139154	0.602347
H201	H	1.300262	0.194179	0.935680
H202	H	0.633659	-0.289285	0.440078
H203	H	0.966992	0.044048	0.773412
H204	H	1.300326	0.377381	1.106745
H205	H	1.148864	-0.681662	0.439993
H206	H	1.482197	-0.348328	0.773326
H207	H	1.815530	-0.014995	1.106660
H208	H	1.195990	-0.955187	0.487142
H209	H	1.529323	-0.621854	0.820475
H210	H	1.862657	-0.288521	1.153808
H211	H	1.195938	-0.805410	0.487123
H212	H	1.529271	-0.472077	0.820456
H213	H	1.862604	-0.138743	1.153789
H214	H	1.148993	-1.079078	0.440057
H215	H	1.482326	-0.745745	0.773391
H216	H	1.815660	-0.412412	1.106724
H217	H	0.931233	-0.955555	0.222013
H218	H	1.264566	-0.622222	0.555347
H219	H	1.597899	-0.288889	0.888680
H220	H	0.978314	-1.079312	0.269142
H221	H	1.311648	-0.745979	0.602475
H222	H	1.644981	-0.412645	0.935808
H223	H	0.931173	-0.805792	0.221975
H224	H	1.264507	-0.472458	0.555309
H225	H	1.597840	-0.139125	0.888642
