data_functionalizedCrystal
_audit_creation_method	'MofGen! by Chris Wilmer'
_symmetry_space_group_name_H-M	'P1'
_symmetry_Int_Tables_number	1
_symmetry_cell_setting	triclinic
loop_
_symmetry_equiv_pos_as_xyz
  x,y,z
_cell_length_a	27.440280
_cell_length_b	27.440280
_cell_length_c	17.917603
_cell_angle_alpha	63.034592
_cell_angle_beta	89.997815
_cell_angle_gamma	60.000166
loop_
_atom_site_label
_atom_site_type_symbol
_atom_site_fract_x
_atom_site_fract_y
_atom_site_fract_z
Zr1	Zr	0.472352	0.527764	-0.093882
O2	O	0.397937	0.622646	-0.208086
O3	O	0.495155	0.428181	-0.058873
O4	O	0.499598	0.520974	-0.208093
O5	O	0.390001	0.536849	0.058843
O6	O	0.579800	0.520966	-0.208097
O7	O	0.393495	0.529853	-0.058866
O8	O	0.571853	0.354976	0.058830
O9	O	0.397947	0.702839	-0.208084
O10	O	0.564746	0.470876	-0.043944
O11	O	0.502284	0.476103	0.043904
O12	O	0.507514	0.585355	-0.131783
O13	O	0.445053	0.590582	-0.043936
Zr14	Zr	0.594693	0.538909	0.093843
Zr15	Zr	0.600265	0.527752	-0.093888
Zr16	Zr	0.466780	0.538922	0.093850
Zr17	Zr	0.472369	0.655662	-0.093879
Zr18	Zr	0.594677	0.411011	0.093841
O19	O	0.571890	0.638492	0.058835
O20	O	0.579813	0.622628	-0.208095
O21	O	0.390014	0.638510	0.058844
O22	O	0.669108	0.444027	0.208047
O23	O	0.677031	0.428163	-0.058883
O24	O	0.487232	0.444045	0.208057
O25	O	0.677044	0.529825	-0.058881
O26	O	0.567447	0.545699	0.208054
O27	O	0.487245	0.545707	0.208059
O28	O	0.673551	0.536820	0.058827
O29	O	0.499621	0.702829	-0.208090
O30	O	0.567424	0.363845	0.208051
O31	O	0.669098	0.363834	0.208046
O32	O	0.673527	0.354966	0.058824
O33	O	0.393518	0.711707	-0.058863
O34	O	0.495192	0.711697	-0.058868
O35	O	0.559531	0.481318	0.131745
O36	O	0.621992	0.476091	0.043897
O37	O	0.564761	0.590570	-0.043942
O38	O	0.502300	0.595797	0.043906
C39	C	0.533502	0.373356	-0.000022
C40	C	0.533495	0.319060	-0.000023
C41	C	0.373523	0.533353	-0.000011
C42	C	0.319220	0.533358	-0.000008
C43	C	0.566143	-0.020410	-0.045867
C44	C	0.566149	-0.071433	-0.045865
O45	O	0.593895	-0.100158	-0.084836
N46	N	0.533544	-0.094221	-0.000011
C47	C	0.500936	-0.065987	0.045851
O48	O	0.473205	-0.090056	0.084854
C49	C	0.500935	-0.014968	0.045853
C50	C	0.533537	0.007822	-0.000011
C51	C	0.598743	0.002380	-0.091727
C52	C	0.598737	0.053401	-0.091730
C53	C	0.566130	0.081632	-0.045874
C54	C	0.533531	0.058843	-0.000015
C55	C	0.468331	0.013262	0.091719
C56	C	0.468333	0.064285	0.091718
C57	C	0.500935	0.087074	0.045854
C58	C	0.500918	0.138096	0.045838
N59	N	0.533523	0.160884	-0.000016
C60	C	0.566129	0.132652	-0.045872
C61	C	0.500943	-0.173133	0.045844
C62	C	0.500941	-0.224148	0.045837
C63	C	0.566154	-0.229592	-0.045877
C64	C	0.566153	-0.178572	-0.045875
C65	C	0.533548	-0.150345	-0.000010
C66	C	0.566113	0.239801	-0.045877
C67	C	0.566101	0.290828	-0.045879
C68	C	0.500891	0.296265	0.045839
C69	C	0.500899	0.245244	0.045838
C70	C	0.533515	0.217011	-0.000022
O71	O	0.473188	0.166850	0.084792
O72	O	0.593862	0.156721	-0.084859
C73	C	-0.015552	0.529467	-0.064867
C74	C	-0.066570	0.529462	-0.064868
O75	O	-0.091309	0.526160	-0.119999
N76	N	-0.094013	0.533317	-0.000022
C77	C	-0.070432	0.537171	0.064833
O78	O	-0.098458	0.540449	0.119990
C79	C	-0.019412	0.537171	0.064837
C80	C	0.008025	0.533323	-0.000018
C81	C	0.011885	0.525618	-0.129716
C82	C	0.062899	0.525624	-0.129716
C83	C	0.086475	0.529480	-0.064868
C84	C	0.059038	0.533329	-0.000018
C85	C	0.004170	0.541020	0.129695
C86	C	0.055194	0.541019	0.129693
C87	C	0.082630	0.537171	0.064838
C88	C	0.133629	0.537190	0.064830
N89	N	0.161071	0.533335	-0.000015
C90	C	0.137495	0.529480	-0.064864
C91	C	-0.177575	0.537169	0.064822
C92	C	-0.228596	0.537174	0.064816
C93	C	-0.224730	0.529464	-0.064884
C94	C	-0.173711	0.529464	-0.064881
C95	C	-0.150132	0.533314	-0.000023
C96	C	0.244627	0.529494	-0.064860
C97	C	0.295644	0.529503	-0.064857
C98	C	0.291775	0.537209	0.064846
C99	C	0.240761	0.537204	0.064840
C100	C	0.217190	0.533343	-0.000017
O101	O	0.158402	0.540488	0.119935
O102	O	0.165531	0.526194	-0.120005
C103	C	0.693522	0.533320	-0.000028
C104	C	0.747825	0.533315	-0.000031
C105	C	0.540493	0.519381	-0.234843
C106	C	0.542858	0.514644	-0.314540
C107	C	0.533543	0.693317	-0.000016
C108	C	0.533550	0.747613	-0.000016
C109	C	0.547192	0.505992	-0.460472
C110	C	0.519855	0.560678	-0.539569
C111	C	0.522266	0.555864	-0.620771
C112	C	0.544781	0.510805	-0.379261
C113	C	0.526552	0.547293	0.234804
C114	C	0.524187	0.552029	0.314501
C115	C	0.693502	0.373340	-0.000031
C116	C	0.747797	0.319038	-0.000034
C117	C	0.526532	0.387312	0.234801
C118	C	0.524159	0.337752	0.314497
C119	C	0.686532	0.387296	0.234793
C120	C	0.738462	0.337731	0.314486
C121	C	0.380514	0.679377	-0.234831
C122	C	0.328584	0.728942	-0.314524
C123	C	0.373543	0.693333	-0.000008
C124	C	0.319248	0.747635	-0.000004
C125	C	0.540513	0.679361	-0.234840
C126	C	0.542886	0.728921	-0.314536
C127	C	0.743413	0.290815	-0.045896
C128	C	0.794425	0.239799	-0.045917
C129	C	0.849821	0.217004	-0.000071
C130	C	0.854204	0.245232	0.045792
C131	C	0.803192	0.296251	0.045808
C132	C	0.552927	0.317201	0.397784
C133	C	0.550695	0.270642	0.472674
C134	C	0.519699	0.244632	0.464275
C135	C	0.490928	0.265188	0.380980
C136	C	0.493156	0.311749	0.306092
C137	C	0.795458	0.311726	0.306055
C138	C	0.844257	0.265161	0.380928
C139	C	0.836058	0.244599	0.464231
C140	C	0.779055	0.270608	0.472660
C141	C	0.730258	0.317175	0.397788
C142	C	0.271587	0.754953	-0.306094
C143	C	0.222788	0.801534	-0.380966
C144	C	0.230987	0.822099	-0.464269
C145	C	0.287990	0.796087	-0.472699
C146	C	0.336787	0.749510	-0.397827
C147	C	0.323632	0.775863	0.045850
C148	C	0.272621	0.826891	0.045850
C149	C	0.217225	0.849688	0.000001
C150	C	0.212842	0.821458	-0.045858
C151	C	0.263853	0.770433	-0.045863
C152	C	0.573887	0.754917	-0.306110
C153	C	0.576128	0.801477	-0.380985
C154	C	0.547364	0.822043	-0.464286
C155	C	0.516361	0.796043	-0.472711
C156	C	0.514124	0.749480	-0.397836
H157	H	0.592650	0.309383	-0.083230
C158	C	0.808022	0.327283	0.096271
H159	H	0.848320	0.306392	0.123578
H160	H	0.790600	0.373099	0.056710
H161	H	0.788134	0.321490	0.139675
H162	H	-0.250936	0.540318	0.117619
H163	H	0.790845	0.216822	-0.083265
H164	H	0.264900	0.738211	-0.238271
C165	C	0.602031	-0.260663	-0.096303
H166	H	0.597367	-0.294318	-0.089721
H167	H	0.588405	-0.227632	-0.156631
H168	H	0.642461	-0.279223	-0.073645
H169	H	0.574127	0.253912	0.540488
H170	H	-0.158383	0.540310	0.117636
H171	H	0.474342	0.319262	0.083171
H172	H	0.492942	0.812795	-0.540544
C173	C	0.667565	0.345768	0.407073
H174	H	0.669676	0.326843	0.467410
H175	H	0.647167	0.392313	0.379773
H176	H	0.647177	0.335773	0.379778
C177	C	0.325824	0.525264	-0.136196
H178	H	0.304477	0.522959	-0.174810
H179	H	0.326692	0.563333	-0.168229
H180	H	0.364923	0.486871	-0.109553
H181	H	0.572404	0.455563	-0.453740
H182	H	-0.018161	0.544154	0.182506
C183	C	0.081123	0.545263	0.201032
H184	H	0.057470	0.547561	0.239647
H185	H	0.120061	0.507199	0.233064
H186	H	0.081823	0.583661	0.174390
H187	H	0.517889	0.206719	0.525261
C188	C	0.605534	0.732299	-0.214488
H189	H	0.624321	0.754450	-0.220206
H190	H	0.577647	0.742514	-0.183365
H191	H	0.634171	0.685978	-0.183376
C192	C	0.610224	0.830077	-0.371703
H193	H	0.627023	0.811166	-0.311367
H194	H	0.640607	0.820089	-0.398996
H195	H	0.584068	0.876625	-0.399007
C196	C	0.160092	0.830138	-0.371684
H197	H	0.132200	0.860829	-0.428201
H198	H	0.154692	0.795360	-0.340575
H199	H	0.154704	0.851883	-0.340557
C200	C	0.461517	0.334347	0.214480
H201	H	0.467277	0.365805	0.171075
H202	H	0.477139	0.297323	0.207927
H203	H	0.420607	0.353865	0.207917
C204	C	0.384560	0.750795	0.096289
H205	H	0.379857	0.774925	0.123588
H206	H	0.404468	0.705208	0.139683
H207	H	0.406939	0.756803	0.056704
H208	H	0.494638	0.611111	-0.546302
H209	H	0.625298	-0.020604	-0.129067
H210	H	0.218417	0.540347	0.117643
H211	H	0.875797	0.206680	0.525189
C212	C	0.549823	0.873267	-0.546641
H213	H	0.572403	0.885805	-0.529684
H214	H	0.567554	0.854538	-0.580526
H215	H	0.511026	0.911069	-0.580511
H216	H	0.465691	0.244003	0.374156
C217	C	0.259026	0.739379	-0.096294
H218	H	0.297337	0.705726	-0.089739
H219	H	0.237147	0.720833	-0.073642
H220	H	0.239621	0.772423	-0.156623
H221	H	0.191248	0.860025	-0.525228
H222	H	0.772388	0.253859	0.540495
C223	C	0.480010	0.720899	-0.407111
H224	H	0.482795	0.690220	-0.350593
H225	H	0.439838	0.755690	-0.438228
H226	H	0.496360	0.699143	-0.438228
H227	H	0.698313	0.309374	-0.083241
H228	H	0.891353	0.175461	-0.000090
C229	C	0.804485	0.334341	0.214430
H230	H	0.767264	0.365797	0.171037
H231	H	0.825880	0.353854	0.207862
H232	H	0.825878	0.297321	0.207860
H233	H	0.899313	0.226665	0.083119
H234	H	0.175694	0.891236	0.000013
C235	C	0.587021	0.345809	0.407034
H236	H	0.584237	0.376481	0.350510
H237	H	0.570668	0.367564	0.438145
H238	H	0.627200	0.311026	0.438150
H239	H	0.294659	0.812837	-0.540533
C240	C	0.399480	0.720895	-0.407111
H241	H	0.397369	0.739812	-0.467448
H242	H	0.419886	0.730867	-0.379810
H243	H	0.419860	0.674349	-0.379819
C244	C	0.601984	0.208756	-0.096327
H245	H	0.621392	0.229646	-0.123643
H246	H	0.630377	0.162942	-0.056758
H247	H	0.576306	0.214542	-0.139723
C248	C	0.906952	0.236553	0.371640
H249	H	0.904841	0.255462	0.311304
H250	H	0.927351	0.246537	0.398931
H251	H	0.927338	0.190005	0.398945
H252	H	0.276201	0.849869	0.083198
C253	C	0.151906	0.846535	-0.096281
H254	H	0.122158	0.880960	-0.089696
H255	H	0.149212	0.862855	-0.156610
H256	H	0.146750	0.811256	-0.073624
H257	H	0.625286	0.071951	-0.129074
H258	H	0.592700	-0.160020	-0.083221
H259	H	0.225441	0.526349	-0.117672
C260	C	0.465074	-0.249208	0.096276
H261	H	0.469740	-0.283636	0.089710
H262	H	0.478706	-0.265521	0.156600
H263	H	0.424642	-0.213925	0.073625
H264	H	0.441784	-0.005285	0.129068
H265	H	0.441780	0.087266	0.129066
C266	C	0.465066	-0.142078	0.096284
H267	H	0.445646	-0.162956	0.123583
H268	H	0.490735	-0.147857	0.139679
H269	H	0.436674	-0.096262	0.056700
H270	H	0.474345	0.226695	0.083172
C271	C	0.093078	0.521381	-0.201050
H272	H	0.071727	0.519078	-0.239661
H273	H	0.093949	0.559448	-0.233086
H274	H	0.132175	0.482986	-0.174407
H275	H	-0.007305	0.522476	-0.182524
H276	H	-0.151374	0.526330	-0.117691
H277	H	0.310978	0.540351	0.117643
C278	C	-0.250663	0.525206	-0.136205
H279	H	-0.284972	0.525748	-0.126905
H280	H	-0.260626	0.561846	-0.192192
H281	H	-0.222388	0.485385	-0.133500
