data_functionalizedCrystal
_audit_creation_method	'MofGen! by Chris Wilmer'
_symmetry_space_group_name_H-M	'P1'
_symmetry_Int_Tables_number	1
_symmetry_cell_setting	triclinic
loop_
_symmetry_equiv_pos_as_xyz
  x,y,z
_cell_length_a	19.288864
_cell_length_b	14.971486
_cell_length_c	13.448316
_cell_angle_alpha	90.006811
_cell_angle_beta	90.020610
_cell_angle_gamma	83.375187
loop_
_atom_site_label
_atom_site_type_symbol
_atom_site_fract_x
_atom_site_fract_y
_atom_site_fract_z
O1	O	-0.921714	-0.111582	-0.083011
O2	O	-0.719503	-0.126634	-0.082943
O3	O	-0.826028	0.011122	-0.082972
O4	O	-0.815189	-0.249337	-0.082983
O5	O	-0.826015	0.011130	0.082412
O6	O	-0.719489	-0.126625	0.082440
O7	O	-0.921701	-0.111573	0.082372
Cu8	Cu	-0.820594	-0.119098	0.097507
Cu9	Cu	-0.820610	-0.119108	-0.098078
O10	O	-0.815175	-0.249329	0.082401
C11	C	-0.693618	-0.126145	-0.000243
C12	C	-0.616510	-0.124691	-0.000217
C13	C	-0.825537	0.044448	-0.000280
C14	C	-0.824084	0.143737	-0.000281
C15	C	-0.947586	-0.112062	-0.000330
C16	C	-1.024694	-0.113516	-0.000363
C17	C	-0.572077	-0.205520	-0.000236
C18	C	-0.499625	-0.204154	-0.000246
C19	C	-0.471610	-0.121955	-0.000258
C20	C	-0.516052	-0.041116	-0.000234
C21	C	-0.588502	-0.042484	-0.000213
C22	C	-0.363142	-0.057340	-0.058231
C23	C	-0.290693	-0.055975	-0.058258
C24	C	-0.248150	-0.117732	-0.000318
C25	C	-0.278064	-0.180868	0.057635
C26	C	-0.350514	-0.182236	0.057656
C27	C	-0.393051	-0.120462	-0.000281
C28	C	-0.125157	-0.197085	-0.000348
C29	C	-0.052704	-0.195715	-0.000353
C30	C	-0.069133	-0.032675	-0.000350
C31	C	-0.141584	-0.034046	-0.000335
C32	C	-0.169591	-0.116254	-0.000339
C33	C	-0.815667	-0.282655	-0.000293
C34	C	-0.817119	-0.381944	-0.000299
N35	N	-0.820588	-0.119091	0.235072
C36	C	-0.886665	0.201301	-0.000301
C37	C	-0.885296	0.294593	-0.000311
C38	C	-0.821345	0.330320	-0.000293
C39	C	-0.758759	0.272749	-0.000275
C40	C	-0.760129	0.179458	-0.000273
C41	C	-0.755909	0.467196	-0.000278
C42	C	-0.754538	0.560492	-0.000279
C43	C	-0.881075	0.582330	-0.000316
C44	C	-0.882445	0.489040	-0.000313
C45	C	-0.819859	0.431475	-0.000294
N46	N	-0.820621	-0.119109	-0.235643
C47	C	-0.867772	-0.058118	0.287099
C48	C	-0.867776	-0.058117	0.391203
C49	C	-0.820599	-0.119094	0.443276
C50	C	-0.773410	-0.180070	0.391241
C51	C	-0.773403	-0.180066	0.287140
C52	C	-0.773429	-0.180076	0.608221
C53	C	-0.773437	-0.180082	0.712330
C54	C	-0.867803	-0.058127	0.712284
C55	C	-0.867796	-0.058123	0.608183
C56	C	-0.820607	-0.119100	0.556155
H57	H	-0.594875	-0.272460	-0.000240
H58	H	-0.706689	0.301844	-0.000267
H59	H	-0.463441	-0.269976	-0.000259
F60	F	-0.917994	0.006778	0.446574
H61	H	-0.704944	0.420328	-0.000265
H62	H	-0.934519	0.459955	-0.000321
H63	H	-0.374867	-0.233641	0.104847
F64	F	-0.258862	0.011212	-0.119945
F65	F	-0.232793	-0.246599	0.119302
H66	H	-0.735020	-0.229735	0.754723
H67	H	-0.936256	0.341458	-0.000325
H68	H	-0.906225	-0.008477	0.754651
F69	F	-0.723203	-0.244974	0.552854
F70	F	-0.693522	0.118195	-0.000254
H71	H	-0.932035	0.629204	-0.000334
F72	F	-0.723196	-0.244964	0.446663
H73	H	-0.702464	0.589577	-0.000248
F74	F	-0.723181	-0.244960	0.231770
F75	F	-0.635793	0.043549	-0.000193
F76	F	-0.917989	0.006780	0.231688
H77	H	-0.147961	-0.264023	-0.000336
F78	F	-0.918010	0.006770	0.552761
F79	F	-0.039322	0.054808	-0.000353
H80	H	-0.016527	-0.261539	-0.000362
H81	H	-0.177762	0.031773	-0.000325
H82	H	-0.397775	-0.007049	-0.105418
F83	F	-0.954731	0.163287	-0.000310
F84	F	-0.486235	0.046366	-0.000242
