data_functionalizedCrystal
_audit_creation_method	'MofGen! by Chris Wilmer'
_symmetry_space_group_name_H-M	'P1'
_symmetry_Int_Tables_number	1
_symmetry_cell_setting	triclinic
loop_
_symmetry_equiv_pos_as_xyz
  x,y,z
_cell_length_a	6.817900
_cell_length_b	10.992421
_cell_length_c	10.992743
_cell_angle_alpha	91.824027
_cell_angle_beta	108.770538
_cell_angle_gamma	108.764763
loop_
_atom_site_label
_atom_site_type_symbol
_atom_site_fract_x
_atom_site_fract_y
_atom_site_fract_z
V1	V	-4.114295	-0.177721	-0.400571
O2	O	-4.072422	0.008581	-0.392964
O3	O	-4.091873	-0.352430	-0.397814
O4	O	-4.091907	-0.174970	-0.575282
O5	O	-4.072388	-0.170108	-0.214267
V6	V	-4.591186	-0.155440	-0.378290
O7	O	-4.390101	-0.226598	-0.449447
O8	O	-4.765577	-0.106563	-0.329414
O9	O	-4.390401	0.019270	-0.381047
O10	O	-4.750456	-0.341742	-0.385897
O11	O	-4.750490	-0.163052	-0.564594
O12	O	-4.390367	-0.158191	-0.203579
C13	C	-3.942352	-0.395021	-0.391490
C14	C	-4.005480	-0.537848	-0.390400
C15	C	-3.873143	-0.733136	-0.381614
C16	C	-3.807061	-0.584492	-0.382239
C17	C	-4.076075	-0.576495	-0.270585
C18	C	-4.140311	-0.725039	-0.269317
C19	C	-4.271845	-0.763596	-0.514930
C20	C	-4.202791	-0.615083	-0.517530
C21	C	-3.942394	-0.168651	-0.617867
C22	C	-4.005545	-0.167557	-0.760694
C23	C	-4.317984	-0.174249	-0.971787
C24	C	-4.252199	-0.174894	-0.823154
C25	C	-3.855212	-0.040045	-0.791481
C26	C	-3.922274	-0.038864	-0.940124
C27	C	-4.044619	-0.284157	-0.978370
C28	C	-3.983944	-0.287059	-0.830156
C29	C	-4.203264	0.061854	-0.387367
C30	C	-4.119376	0.204679	-0.388466
C31	C	-4.203222	-0.164514	-0.160987
C32	C	-4.119308	-0.165601	-0.018159
H33	H	-4.352574	-0.584874	-0.530911
O34	O	-4.373695	-0.779178	-0.269023
H35	H	-4.373164	-0.824955	-0.180421
H36	H	-3.935475	-0.522267	-0.176468
O37	O	-3.848717	-0.277365	-1.017398
H38	H	-3.804690	-0.190027	-1.064908
O39	O	-4.137007	-0.583345	-0.634650
H40	H	-4.250413	-0.540097	-0.699178
H41	H	-3.968498	0.050797	-0.963222
O42	O	-4.510081	-0.818049	-0.523260
H43	H	-4.519975	-0.867480	-0.437803
H44	H	-3.847330	-0.779548	-0.466695
O45	O	-4.405953	-0.296372	-0.797170
H46	H	-4.528103	-0.355174	-0.890897
H47	H	-4.265517	-0.813104	-0.605591
H48	H	-4.277971	-0.089697	-0.776916
H49	H	-4.466781	-0.265406	-1.024414
O50	O	-4.394776	-0.061455	-1.007185
H51	H	-4.292051	0.000741	-1.057660
O52	O	-3.752234	-0.289806	-0.774866
H53	H	-3.742785	-0.375288	-0.826022
O54	O	-3.723335	-0.023580	-0.978933
H55	H	-3.579694	-0.017049	-0.891546
O56	O	-3.993510	-0.748258	-0.143316
H57	H	-4.097193	-0.802338	-0.089081
O58	O	-4.268961	-0.536436	-0.272389
H59	H	-4.316663	-0.488436	-0.358906
H60	H	-3.749948	-0.558719	-0.467851
H61	H	-3.757340	-0.753705	-0.290412
H62	H	-3.673597	-0.030031	-0.749616
O63	O	-3.872326	0.077550	-0.726924
H64	H	-3.987720	0.045490	-0.672874
O65	O	-4.224840	-0.410814	-1.050643
H66	H	-4.263025	-0.411444	-1.156781
O67	O	-4.132382	-0.411922	-0.806077
H68	H	-4.221177	-0.388982	-0.744889
H69	H	-3.658370	-0.532059	-0.290961
