data_functionalizedCrystal
_audit_creation_method	'MofGen! by Chris Wilmer'
_symmetry_space_group_name_H-M	'P1'
_symmetry_Int_Tables_number	1
_symmetry_cell_setting	triclinic
loop_
_symmetry_equiv_pos_as_xyz
  x,y,z
_cell_length_a	11.792241
_cell_length_b	16.992695
_cell_length_c	16.053802
_cell_angle_alpha	92.741074
_cell_angle_beta	87.405349
_cell_angle_gamma	87.430819
loop_
_atom_site_label
_atom_site_type_symbol
_atom_site_fract_x
_atom_site_fract_y
_atom_site_fract_z
O1	O	1.520188	0.104234	-0.069348
O2	O	1.190755	0.115313	-0.069368
O3	O	1.354150	-0.004375	-0.069352
O4	O	1.356793	0.223921	-0.069365
O5	O	1.345154	0.002186	0.069506
O6	O	1.181759	0.121873	0.069490
O7	O	1.511192	0.110794	0.069510
Zn8	Zn	1.345047	0.117375	0.091547
Zn9	Zn	1.356900	0.108732	-0.091405
O10	O	1.347796	0.230482	0.069493
C11	C	1.346255	-0.030321	0.000077
C12	C	1.336117	-0.117409	0.000076
C13	C	1.143909	0.117897	0.000059
C14	C	1.017725	0.115813	0.000051
C15	C	1.433934	-0.167233	0.000083
C16	C	1.424402	-0.249061	0.000074
C17	C	1.317051	-0.281062	0.000065
C18	C	1.219227	-0.231231	0.000056
C19	C	1.228760	-0.149406	0.000059
C20	C	1.277540	-0.524828	0.000051
C21	C	1.268013	-0.606660	0.000051
C22	C	1.473190	-0.624484	0.000068
C23	C	1.482713	-0.542656	0.000076
C24	C	1.384889	-0.492833	0.000062
N25	N	1.307305	-0.364703	0.000059
N26	N	1.394636	-0.409194	0.000062
C27	C	0.786698	0.111984	0.000076
C28	C	0.915258	0.114112	0.000062
C29	C	1.558038	0.108210	0.000081
C30	C	1.684222	0.110293	0.000083
C31	C	1.355692	0.256428	0.000063
C32	C	1.365831	0.343515	0.000058
N33	N	1.336966	0.123274	0.216406
N34	N	1.364989	0.102827	-0.216264
C35	C	1.406520	0.072365	0.260107
C36	C	1.400878	0.076499	0.347513
C37	C	1.325688	0.131546	0.391217
C38	C	1.256126	0.182457	0.347510
C39	C	1.261763	0.178319	0.260105
C40	C	1.301064	0.149600	0.652624
C41	C	1.295435	0.153735	0.740035
C42	C	1.440186	0.047776	0.740032
C43	C	1.445821	0.043646	0.652626
C44	C	1.376256	0.094554	0.608926
N45	N	1.319922	0.135774	0.480560
N46	N	1.382016	0.090321	0.519585
H47	H	1.521350	-0.141184	0.000096
C48	C	1.253136	0.280301	0.161788
C49	C	1.185312	0.234280	0.212063
H50	H	1.205932	0.314844	0.132126
H51	H	1.300744	0.310352	0.195874
H52	H	1.298719	0.246915	0.123256
H53	H	1.139735	0.267666	0.250599
H54	H	1.137685	0.204227	0.177974
C55	C	1.549022	-0.031960	0.268893
C56	C	1.489170	0.011853	0.212072
H57	H	1.600040	-0.069323	0.239238
H58	H	1.590624	0.002495	0.302970
H59	H	1.496990	-0.058778	0.302996
H60	H	1.541202	0.038676	0.177972
H61	H	1.447566	-0.022606	0.177980
C62	C	1.409528	-0.025497	0.445810
C63	C	1.477342	0.020538	0.395543
H64	H	1.456740	-0.060050	0.475454
H65	H	1.363953	0.007873	0.484347
H66	H	1.361914	-0.055545	0.411712
H67	H	1.524951	0.050591	0.429641
H68	H	1.522937	-0.012836	0.357000
C69	C	1.448802	-0.054211	0.838336
C70	C	1.516636	-0.008188	0.788069
H71	H	1.496000	-0.088766	0.867988
H72	H	1.403230	-0.020833	0.876868
H73	H	1.401185	-0.084255	0.804238
H74	H	1.564248	0.021861	0.822168
H75	H	1.562228	-0.041570	0.749533
C76	C	1.162301	-0.724181	0.000052
C77	C	1.150005	-0.641839	0.000042
H78	H	1.089451	-0.745897	0.000054
H79	H	1.206022	-0.743534	-0.048364
H80	H	1.199755	-0.738954	0.048482
H81	H	1.112559	-0.627065	-0.048392
H82	H	1.106267	-0.622478	0.048463
H83	H	1.244423	0.191053	0.617051
H84	H	1.234203	0.198565	0.775614
C85	C	1.588323	-0.060684	0.661406
C86	C	1.528466	-0.016868	0.604589
H87	H	1.639341	-0.098044	0.631748
H88	H	1.629925	-0.026229	0.695484
H89	H	1.536294	-0.087503	0.695510
H90	H	1.580495	0.009956	0.570489
H91	H	1.486862	-0.051328	0.570497
H92	H	1.149107	-0.108839	0.000053
H93	H	1.194899	0.227275	0.383098
H94	H	1.504056	-0.289625	0.000082
C95	C	1.684564	-0.568496	0.000091
C96	C	1.600717	-0.507483	0.000087
H97	H	1.757414	-0.546780	0.000097
H98	H	1.673437	-0.597757	0.048508
H99	H	1.679716	-0.602324	-0.048339
H100	H	1.605560	-0.473658	0.048520
H101	H	1.611848	-0.478209	-0.048334
H102	H	1.197883	-0.484272	0.000041
H103	H	1.131820	-0.257293	0.000043
C104	C	1.549684	-0.757832	0.000063
C105	C	1.580714	-0.679252	0.000071
H106	H	1.616070	-0.791641	0.000057
H107	H	1.502847	-0.765293	0.048482
H108	H	1.509105	-0.769854	-0.048365
H109	H	1.621286	-0.667227	0.048502
H110	H	1.627570	-0.671787	-0.048352
