data_functionalizedCrystal
_audit_creation_method	'MofGen! by Chris Wilmer'
_symmetry_space_group_name_H-M	'P1'
_symmetry_Int_Tables_number	1
_symmetry_cell_setting	triclinic
loop_
_symmetry_equiv_pos_as_xyz
  x,y,z
_cell_length_a	19.188930
_cell_length_b	14.044220
_cell_length_c	13.101039
_cell_angle_alpha	86.332523
_cell_angle_beta	86.639939
_cell_angle_gamma	91.833172
loop_
_atom_site_label
_atom_site_type_symbol
_atom_site_fract_x
_atom_site_fract_y
_atom_site_fract_z
O1	O	0.937307	-0.113041	-0.085551
O2	O	1.187307	0.136959	0.164449
O3	O	1.437307	0.386959	0.414449
O4	O	1.687307	0.636959	0.664449
O5	O	0.735021	-0.128972	-0.085481
O6	O	0.985021	0.121028	0.164519
O7	O	1.235021	0.371028	0.414519
O8	O	1.485021	0.621028	0.664519
O9	O	0.833127	0.016965	-0.085505
O10	O	1.083127	0.266965	0.164495
O11	O	1.333127	0.516965	0.414495
O12	O	1.583127	0.766965	0.664495
O13	O	0.839201	-0.258978	-0.085527
O14	O	1.089201	-0.008978	0.164473
O15	O	1.339201	0.241022	0.414473
O16	O	1.589201	0.491022	0.664473
O17	O	0.826089	0.006477	0.084927
O18	O	1.076089	0.256477	0.334927
O19	O	1.326089	0.506477	0.584927
O20	O	1.576089	0.756477	0.834927
O21	O	0.727983	-0.139460	0.084950
O22	O	0.977983	0.110540	0.334950
O23	O	1.227983	0.360540	0.584950
O24	O	1.477983	0.610540	0.834950
O25	O	0.930269	-0.123529	0.084881
O26	O	1.180269	0.126471	0.334881
O27	O	1.430269	0.376471	0.584881
O28	O	1.680269	0.626471	0.834881
Zn29	Zn	0.828009	-0.133160	0.111975
Zn30	Zn	1.078009	0.116840	0.361975
Zn31	Zn	1.328009	0.366840	0.611975
Zn32	Zn	1.578009	0.616840	0.861975
Zn33	Zn	0.837282	-0.119341	-0.112576
Zn34	Zn	1.087282	0.130659	0.137424
Zn35	Zn	1.337282	0.380659	0.387424
Zn36	Zn	1.587282	0.630659	0.637424
O37	O	0.832163	-0.269466	0.084904
O38	O	1.082163	-0.019466	0.334904
O39	O	1.332163	0.230534	0.584904
O40	O	1.582163	0.480534	0.834904
C41	C	0.705457	-0.133701	-0.000256
C42	C	0.955457	0.116299	0.249744
C43	C	1.205457	0.366299	0.499744
C44	C	1.455457	0.616299	0.749744
C45	C	0.627852	-0.132154	-0.000229
C46	C	0.877852	0.117846	0.249771
C47	C	1.127852	0.367846	0.499771
C48	C	1.377852	0.617846	0.749771
N49	N	0.821685	-0.142590	0.265225
N50	N	1.071685	0.107410	0.515225
N51	N	1.321685	0.357410	0.765225
N52	N	1.571685	0.607410	1.015225
C53	C	0.826950	0.047024	-0.000288
C54	C	1.076950	0.297024	0.249712
C55	C	1.326950	0.547024	0.499712
C56	C	1.576950	0.797024	0.749712
C57	C	0.819021	0.152217	-0.000284
C58	C	1.069021	0.402217	0.249716
C59	C	1.319021	0.652217	0.499716
C60	C	1.569021	0.902217	0.749716
C61	C	0.588454	-0.217783	-0.000252
C62	C	0.838454	0.032217	0.249748
C63	C	1.088454	0.282217	0.499748
C64	C	1.338454	0.532217	0.749748
C65	C	0.515537	-0.216328	-0.000263
C66	C	0.765537	0.033672	0.249737
C67	C	1.015537	0.283672	0.499737
C68	C	1.265537	0.533672	0.749737
C69	C	0.482021	-0.129238	-0.000272
C70	C	0.732021	0.120762	0.249728
C71	C	0.982021	0.370762	0.499728
C72	C	1.232021	0.620762	0.749728
C73	C	0.521427	-0.043598	-0.000243
C74	C	0.771427	0.206402	0.249757
C75	C	1.021427	0.456402	0.499757
C76	C	1.271427	0.706402	0.749757
C77	C	0.594343	-0.045056	-0.000222
C78	C	0.844343	0.204944	0.249778
C79	C	1.094343	0.454944	0.499778
C80	C	1.344343	0.704944	0.749778
N81	N	0.372142	-0.059097	-0.058313
N82	N	0.622142	0.190903	0.191687
N83	N	0.872142	0.440903	0.441687
N84	N	1.122142	0.690903	0.691687
N85	N	0.302875	-0.057717	-0.058336
N86	N	0.552875	0.192283	0.191664
N87	N	0.802875	0.442283	0.441664
N88	N	1.052875	0.692283	0.691664
C89	C	0.262331	-0.124839	-0.000335
C90	C	0.512331	0.125161	0.249665
C91	C	0.762331	0.375161	0.499665
C92	C	1.012331	0.625161	0.749665
N93	N	0.293671	-0.193406	0.057677
N94	N	0.543671	0.056594	0.307677
N95	N	0.793671	0.306594	0.557677
N96	N	1.043671	0.556594	0.807677
N97	N	0.362944	-0.194788	0.057695
N98	N	0.612944	0.055212	0.307695
N99	N	0.862944	0.305212	0.557695
N100	N	1.112944	0.555212	0.807695
C101	C	0.402957	-0.127647	-0.000295
C102	C	0.652957	0.122353	0.249705
C103	C	0.902957	0.372353	0.499705
C104	C	1.152957	0.622353	0.749705
C105	C	0.143869	-0.208896	-0.000368
C106	C	0.393869	0.041104	0.249632
C107	C	0.643869	0.291104	0.499632
C108	C	0.893869	0.541104	0.749632
C109	C	0.070950	-0.207437	-0.000373
C110	C	0.320950	0.042563	0.249627
C111	C	0.570950	0.292563	0.499627
C112	C	0.820950	0.542563	0.749627
C113	C	0.076842	-0.034705	-0.000363
C114	C	0.326842	0.215295	0.249637
C115	C	0.576842	0.465295	0.499637
C116	C	0.826842	0.715295	0.749637
C117	C	0.149759	-0.036166	-0.000348
C118	C	0.399759	0.213834	0.249652
C119	C	0.649759	0.463834	0.499652
C120	C	0.899759	0.713834	0.749652
C121	C	0.183268	-0.123264	-0.000355
C122	C	0.433268	0.126736	0.249645
C123	C	0.683268	0.376736	0.499645
C124	C	0.933268	0.626736	0.749645
C125	C	0.959833	-0.118800	-0.000346
C126	C	1.209833	0.131200	0.249654
C127	C	1.459833	0.381200	0.499654
C128	C	1.709833	0.631200	0.749654
C129	C	1.037439	-0.120346	-0.000380
C130	C	1.287439	0.129654	0.249620
C131	C	1.537439	0.379654	0.499620
C132	C	1.787439	0.629654	0.749620
C133	C	0.838340	-0.299525	-0.000315
C134	C	1.088340	-0.049525	0.249685
C135	C	1.338340	0.200475	0.499685
C136	C	1.588340	0.450475	0.749685
C137	C	0.846269	-0.404717	-0.000326
C138	C	1.096269	-0.154717	0.249674
C139	C	1.346269	0.095283	0.499674
C140	C	1.596269	0.345283	0.749674
C141	C	0.804526	0.344819	-0.000293
C142	C	1.054526	0.594819	0.249707
C143	C	1.304526	0.844819	0.499707
C144	C	1.554526	1.094819	0.749707
C145	C	0.860762	0.402686	-0.000316
C146	C	1.110762	0.652686	0.249684
C147	C	1.360762	0.902686	0.499684
C148	C	1.610762	1.152686	0.749684
C149	C	0.852696	0.509857	-0.000321
C150	C	1.102696	0.759857	0.249679
C151	C	1.352696	1.009857	0.499679
C152	C	1.602696	1.259857	0.749679
C153	C	0.812590	0.237638	-0.000288
C154	C	1.062590	0.487638	0.249712
C155	C	1.312590	0.737638	0.499712
C156	C	1.562590	0.987638	0.749712
N157	N	0.843610	-0.109904	-0.265826
N158	N	1.093610	0.140096	-0.015826
N159	N	1.343610	0.390096	0.234174
N160	N	1.593610	0.640096	0.484174
C161	C	0.813083	-0.155429	0.474270
C162	C	1.063083	0.094571	0.724270
C163	C	1.313083	0.344571	0.974270
C164	C	1.563083	0.594571	1.224270
C165	C	0.852211	-0.097068	0.525136
C166	C	1.102211	0.152932	0.775136
C167	C	1.352211	0.402932	1.025136
C168	C	1.602211	0.652932	1.275136
C169	C	0.847424	-0.104212	0.641456
C170	C	1.097424	0.145788	0.891456
C171	C	1.347424	0.395788	1.141456
C172	C	1.597424	0.645788	1.391456
C173	C	0.817868	-0.148286	0.357940
C174	C	1.067868	0.101714	0.607940
C175	C	1.317868	0.351714	0.857940
C176	C	1.567868	0.601714	1.107940
H177	H	0.615733	-0.288704	-0.000260
H178	H	0.865733	-0.038704	0.249740
H179	H	1.115733	0.211296	0.499740
H180	H	1.365733	0.461296	0.749740
H181	H	0.038873	-0.277170	-0.000386
H182	H	0.288873	-0.027170	0.249614
H183	H	0.538873	0.222830	0.499614
H184	H	0.788873	0.472830	0.749614
H185	H	0.626420	0.024675	-0.000204
H186	H	0.876420	0.274675	0.249796
H187	H	1.126420	0.524675	0.499796
H188	H	1.376420	0.774675	0.749796
Br189	Br	0.462058	-0.332546	-0.000289
Br190	Br	0.712058	-0.082546	0.249711
Br191	Br	0.962058	0.167454	0.499711
Br192	Br	1.212058	0.417454	0.749711
H193	H	0.171153	-0.279817	-0.000359
H194	H	0.421153	-0.029817	0.249641
H195	H	0.671153	0.220183	0.499641
H196	H	0.921153	0.470183	0.749641
Br197	Br	0.914356	-0.005248	0.452122
Br198	Br	1.164356	0.244752	0.702122
Br199	Br	1.414356	0.494752	0.952122
Br200	Br	1.664356	0.744752	1.202122
Br201	Br	0.751262	-0.247645	0.547285
Br202	Br	1.001262	0.002355	0.797285
Br203	Br	1.251262	0.252355	1.047285
Br204	Br	1.501262	0.502355	1.297285
H205	H	0.914967	0.371745	-0.000403
H206	H	1.164967	0.621745	0.249597
H207	H	1.414967	0.871745	0.499597
H208	H	1.664967	1.121745	0.749597
H209	H	0.049557	0.036210	-0.000434
H210	H	0.299557	0.286210	0.249566
H211	H	0.549557	0.536210	0.499566
H212	H	0.799557	0.786210	0.749566
Br213	Br	0.203231	0.080051	-0.000319
Br214	Br	0.453231	0.330051	0.249681
Br215	Br	0.703231	0.580051	0.499681
Br216	Br	0.953231	0.830051	0.749681
Br217	Br	0.475943	0.074596	-0.000245
Br218	Br	0.725943	0.324596	0.249755
Br219	Br	0.975943	0.574596	0.499755
Br220	Br	1.225943	0.824596	0.749755
H221	H	0.750328	0.375762	-0.000277
H222	H	1.000328	0.625762	0.249723
H223	H	1.250328	0.875762	0.499723
H224	H	1.500328	1.125762	0.749723
