data_functionalizedCrystal
_audit_creation_method	'MofGen! by Chris Wilmer'
_symmetry_space_group_name_H-M	'P1'
_symmetry_Int_Tables_number	1
_symmetry_cell_setting	triclinic
loop_
_symmetry_equiv_pos_as_xyz
  x,y,z
_cell_length_a	10.489741
_cell_length_b	9.565339
_cell_length_c	14.044220
_cell_angle_alpha	90.000736
_cell_angle_beta	88.864026
_cell_angle_gamma	90.000900
loop_
_atom_site_label
_atom_site_type_symbol
_atom_site_fract_x
_atom_site_fract_y
_atom_site_fract_z
O1	O	1.707627	0.116177	0.133829
O2	O	2.207627	0.616177	0.633829
O3	O	1.337705	0.116199	0.146392
O4	O	1.837705	0.616199	0.646392
O5	O	1.517113	0.116175	0.002088
O6	O	2.017113	0.616175	0.502088
O7	O	1.528218	0.116202	0.278133
O8	O	2.028218	0.616202	0.778133
O9	O	1.517099	-0.116345	0.002097
O10	O	2.017099	0.383655	0.502097
O11	O	1.337690	-0.116321	0.146401
O12	O	1.837690	0.383679	0.646401
O13	O	1.707612	-0.116343	0.133838
O14	O	2.207612	0.383657	0.633838
Zn15	Zn	1.522649	-0.153249	0.140121
Zn16	Zn	2.022649	0.346751	0.640121
Zn17	Zn	1.522668	0.153106	0.140109
Zn18	Zn	2.022668	0.653106	0.640109
O19	O	1.528204	-0.116318	0.278142
O20	O	2.028204	0.383682	0.778142
C21	C	1.290070	-0.000058	0.145447
C22	C	1.790070	0.499942	0.645447
C23	C	1.148152	-0.000050	0.142609
C24	C	1.648152	0.499950	0.642609
C25	C	1.070700	-0.000072	0.050792
C26	C	1.570700	0.499928	0.550792
C27	C	0.982979	0.114574	0.094161
C28	C	1.482979	0.614574	0.594161
C29	C	0.983001	-0.114673	0.094192
C30	C	1.483001	0.385327	0.594192
C31	C	1.062301	0.114691	0.186015
C32	C	1.562301	0.614691	0.686015
C33	C	1.062331	-0.114659	0.186033
C34	C	1.562331	0.385341	0.686033
C35	C	0.974645	0.000015	0.229468
C36	C	1.474645	0.500015	0.729468
N37	N	1.522645	-0.362329	0.140128
N38	N	2.022645	0.137671	0.640128
C39	C	1.439645	-0.453521	0.206841
C40	C	1.939645	0.046479	0.706841
C41	C	1.557089	-0.546704	0.226036
C42	C	2.057089	-0.046704	0.726036
C43	C	1.405252	-0.546700	0.120941
C44	C	1.905252	-0.046700	0.620941
C45	C	1.640152	-0.453461	0.159366
C46	C	2.140152	0.046539	0.659366
C47	C	1.488235	-0.453449	0.054234
C48	C	1.988235	0.046551	0.554234
C49	C	1.605758	-0.546590	0.073392
C50	C	2.105758	-0.046590	0.573392
C51	C	1.755247	-0.000082	0.134782
C52	C	2.255247	0.499918	0.634782
C53	C	1.897165	-0.000081	0.137621
C54	C	2.397165	0.499919	0.637621
C55	C	1.512245	-0.000086	-0.033255
C56	C	2.012245	0.499914	0.466745
C57	C	1.497745	-0.000086	-0.138580
C58	C	1.997745	0.499914	0.361420
N59	N	1.522681	0.362185	0.140094
N60	N	2.022681	0.862185	0.640094
C61	C	1.471237	-0.000065	-0.331422
C62	C	1.971237	0.499935	0.168578
C63	C	1.574075	-0.000067	-0.388354
C64	C	2.074075	0.499933	0.111646
C65	C	1.559325	-0.000055	-0.495658
C66	C	2.059325	0.499945	0.004342
C67	C	1.485985	-0.000077	-0.224108
C68	C	1.985985	0.499923	0.275892
C69	C	1.533072	-0.000055	0.313485
C70	C	2.033072	0.499945	0.813485
C71	C	1.547572	-0.000045	0.418810
C72	C	2.047572	0.499955	0.918810
H73	H	0.948075	-0.211598	0.055329
H74	H	1.448075	0.288402	0.555329
Br75	Br	1.805702	-0.385496	0.186528
Br76	Br	2.305702	0.114504	0.686528
H77	H	1.097072	0.211724	0.224830
H78	H	1.597072	0.711724	0.724830
Br79	Br	0.924734	0.276118	0.029409
Br80	Br	1.424734	0.776118	0.529409
Br81	Br	0.905035	0.000122	0.355402
Br82	Br	1.405035	0.500122	0.855402
H83	H	1.372125	-0.000055	-0.363268
H84	H	1.872125	0.499945	0.136732
Br85	Br	1.120634	-0.276206	0.250741
Br86	Br	1.620634	0.223794	0.750741
Br87	Br	1.322780	-0.385401	0.300955
Br88	Br	1.822780	0.114599	0.800955
H89	H	1.673194	0.000021	-0.356506
H90	H	2.173194	0.500021	0.143494
H91	H	1.586217	-0.587666	0.298660
H92	H	2.086217	-0.087666	0.798660
H93	H	1.459073	-0.412455	-0.018368
H94	H	1.959073	0.087545	0.481632
Br95	Br	1.140694	0.000097	-0.075029
Br96	Br	1.640694	0.500097	0.424971
H97	H	1.676047	-0.587198	0.016957
H98	H	2.176047	-0.087198	0.516957
H99	H	1.305960	-0.587660	0.104729
H100	H	1.805960	-0.087660	0.604729
