data_functionalizedCrystal
_audit_creation_method	'MofGen! by Chris Wilmer'
_symmetry_space_group_name_H-M	'P1'
_symmetry_Int_Tables_number	1
_symmetry_cell_setting	triclinic
loop_
_symmetry_equiv_pos_as_xyz
  x,y,z
_cell_length_a	10.489741
_cell_length_b	10.489716
_cell_length_c	8.965430
_cell_angle_alpha	90.004464
_cell_angle_beta	89.998843
_cell_angle_gamma	84.534155
loop_
_atom_site_label
_atom_site_type_symbol
_atom_site_fract_x
_atom_site_fract_y
_atom_site_fract_z
O1	O	1.694038	0.179960	-0.123932
O2	O	1.322840	0.196853	-0.123954
O3	O	1.516902	0.002807	-0.123948
O4	O	1.499976	0.374007	-0.123938
O5	O	1.516885	0.002820	0.124131
O6	O	1.322824	0.196866	0.124125
O7	O	1.694021	0.179973	0.124146
Cu8	Cu	1.508421	0.188421	0.146787
Cu9	Cu	1.508440	0.188406	-0.146595
O10	O	1.499960	0.374020	0.124140
C11	C	1.275301	0.195584	0.000082
C12	C	1.133672	0.191767	0.000073
C13	C	1.065542	0.068301	0.000084
C14	C	0.973418	0.126618	-0.122227
C15	C	0.973436	0.126661	0.122359
C16	C	1.043413	0.250135	-0.122339
C17	C	1.043440	0.250160	0.122357
C18	C	0.951344	0.308568	0.000016
C19	C	1.515622	-0.044719	0.000087
C20	C	1.511817	-0.186350	0.000073
C21	C	1.630822	-0.284024	0.000093
C22	C	1.567945	-0.361391	-0.122222
C23	C	1.567901	-0.361342	0.122364
C24	C	1.448990	-0.261851	-0.122344
C25	C	1.448964	-0.261797	0.122352
C26	C	1.386000	-0.339115	0.000007
C27	C	1.741561	0.181243	0.000107
C28	C	1.883190	0.185060	0.000106
C29	C	1.501240	0.421545	0.000102
C30	C	1.505044	0.563176	0.000106
N31	N	1.508417	0.188431	0.353136
N32	N	1.508455	0.188386	-0.352944
C33	C	1.418642	0.278141	0.450439
C34	C	1.534136	0.303952	0.549861
C35	C	1.392971	0.162631	0.549842
C36	C	1.623970	0.214300	0.450369
C37	C	1.482728	0.072928	0.450341
C38	C	1.598306	0.098691	0.549718
H39	H	0.942416	0.074372	-0.225637
H40	H	1.721638	0.236219	0.406858
H41	H	1.734335	-0.259347	-0.000025
H42	H	1.674325	0.022803	0.593036
H43	H	1.460939	-0.024699	0.406594
H44	H	1.618156	-0.404809	0.225770
H45	H	1.074475	0.302364	0.225772
H46	H	1.618188	-0.404891	-0.225628
O47	O	1.389327	-0.210180	-0.245974
C48	C	1.476776	-0.146028	-0.330625
H49	H	1.578671	-0.186714	-0.302882
H50	H	1.457804	-0.160018	-0.454475
H51	H	1.464568	-0.039481	-0.302970
H52	H	1.398765	-0.218274	0.225761
H53	H	1.555890	0.401610	0.593573
O54	O	0.936432	0.064144	0.245570
C55	C	0.873579	-0.042758	0.201661
H56	H	0.904901	-0.072728	0.084014
H57	H	0.899425	-0.125437	0.281986
H58	H	0.765589	-0.016555	0.203478
H59	H	1.074243	0.302330	-0.225860
O60	O	1.328294	0.368892	0.398487
C61	C	1.355876	0.490491	0.449230
H62	H	1.462126	0.487867	0.477105
H63	H	1.330961	0.564672	0.358310
H64	H	1.296847	0.517265	0.553303
H65	H	1.282408	-0.363546	-0.000065
H66	H	1.295325	0.140830	0.593541
H67	H	1.115241	-0.033196	-0.000072
H68	H	0.901911	0.410172	-0.000048
