data_functionalizedCrystal
_audit_creation_method	'MofGen! by Chris Wilmer'
_symmetry_space_group_name_H-M	'P1'
_symmetry_Int_Tables_number	1
_symmetry_cell_setting	triclinic
loop_
_symmetry_equiv_pos_as_xyz
  x,y,z
_cell_length_a	12.645323
_cell_length_b	13.032831
_cell_length_c	13.032721
_cell_angle_alpha	90.902885
_cell_angle_beta	82.846736
_cell_angle_gamma	97.193809
loop_
_atom_site_label
_atom_site_type_symbol
_atom_site_fract_x
_atom_site_fract_y
_atom_site_fract_z
Zn1	Zn	-0.873412	-1.520297	0.609399
Zn2	Zn	-0.373412	-1.020297	1.109399
Zn3	Zn	-0.715465	-1.498329	0.781373
Zn4	Zn	-0.215465	-0.998329	1.281373
Zn5	Zn	-0.671226	-1.348302	0.587562
Zn6	Zn	-0.171226	-0.848302	1.087562
Zn7	Zn	-0.867753	-1.326445	0.759446
Zn8	Zn	-0.367753	-0.826445	1.259446
O9	O	-0.781964	-1.423343	0.684445
O10	O	-0.281964	-0.923343	1.184445
O11	O	-0.873343	-1.661297	0.650528
O12	O	-0.373343	-1.161297	1.150528
O13	O	-0.561248	-1.478382	0.755701
O14	O	-0.061248	-0.978382	1.255701
O15	O	-0.681901	-1.389459	0.446553
O16	O	-0.181901	-0.889459	0.946553
O17	O	-0.757300	-1.645158	0.776876
O18	O	-0.257300	-1.145158	1.276876
O19	O	-0.830447	-1.515822	0.462597
O20	O	-0.330447	-1.015822	0.962597
O21	O	-0.528746	-1.368158	0.613309
O22	O	-0.028746	-0.868158	1.113309
O23	O	-0.676413	-1.201488	0.592047
O24	O	-0.176413	-0.701488	1.092047
O25	O	-1.016852	-1.352206	0.739505
O26	O	-0.516852	-0.852206	1.239505
O27	O	-0.820800	-1.185430	0.718330
O28	O	-0.320800	-0.685430	1.218330
O29	O	-1.021010	-1.494628	0.629266
O30	O	-0.521010	-0.994628	1.129266
O31	O	-0.751812	-1.457187	0.922371
O32	O	-0.251812	-0.957187	1.422371
O33	O	-0.863697	-1.330904	0.906261
O34	O	-0.363697	-0.830904	1.406261
C35	C	-0.743193	-1.156143	0.650440
C36	C	-0.243193	-0.656143	1.150440
C37	C	-0.726634	-1.041831	0.635917
C38	C	-0.226634	-0.541831	1.135917
C39	C	-1.058472	-1.423429	0.684375
C40	C	-0.558472	-0.923429	1.184375
C41	C	-1.176303	-1.423466	0.684346
C42	C	-0.676303	-0.923466	1.184346
C43	C	-0.811968	-1.389318	0.951633
C44	C	-0.311968	-0.889318	1.451633
C45	C	-0.824853	-1.374856	1.065948
C46	C	-0.324853	-0.874856	1.565948
C47	C	-1.341173	-1.333670	0.753291
C48	C	-0.841173	-0.833670	1.253291
C49	C	-1.218687	-1.333829	0.753709
C50	C	-0.718687	-0.833829	1.253709
C51	C	-1.239838	-1.528091	0.727541
C52	C	-0.739838	-1.028091	1.227541
C53	C	-1.362429	-1.527591	0.727981
C54	C	-0.862429	-1.027591	1.227981
C55	C	-1.327256	-1.409716	0.571893
C56	C	-0.827256	-0.909716	1.071893
C57	C	-1.204373	-1.407216	0.572238
C58	C	-0.704373	-0.907216	1.072238
C59	C	-0.506533	-1.423326	0.684448
C60	C	-0.006533	-0.923326	1.184448
C61	C	-0.388699	-1.423526	0.684214
C62	C	0.111301	-0.923526	1.184214
C63	C	-0.820888	-1.691586	0.718584
C64	C	-0.320888	-1.191586	1.218584
C65	C	-0.837475	-1.805895	0.733132
C66	C	-0.337475	-1.305895	1.233132
C67	C	-0.790606	-0.982936	0.692025
C68	C	-0.290606	-0.482936	1.192025
C69	C	-0.773494	-0.864788	0.677016
C70	C	-0.273494	-0.364788	1.177016
C71	C	-0.751870	-1.457529	0.416218
C72	C	-0.251870	-0.957529	0.916218
C73	C	-0.739046	-1.472097	0.301916
C74	C	-0.239046	-0.972097	0.801916
C75	C	-0.775295	-1.430946	1.124857
C76	C	-0.275295	-0.930946	1.624857
C77	C	-0.788611	-1.416000	1.243009
C78	C	-0.288611	-0.916000	1.743009
H79	H	-1.174867	-1.255813	0.725084
H80	H	-0.674867	-0.755813	1.225084
Cl81	Cl	-1.412421	-1.633268	0.654764
Cl82	Cl	-0.912421	-1.133268	1.154764
H83	H	-0.840906	-1.356914	1.280042
H84	H	-0.340906	-0.856914	1.780042
Cl85	Cl	-1.211452	-1.549440	0.853735
Cl86	Cl	-0.711452	-1.049440	1.353735
H87	H	-0.686761	-1.531191	1.264885
H88	H	-0.186761	-1.031191	1.764885
Cl89	Cl	-0.905589	-1.283635	1.123122
Cl90	Cl	-0.405589	-0.783635	1.623122
Cl91	Cl	-0.941618	-0.863077	0.824443
Cl92	Cl	-0.441618	-0.363077	1.324443
H93	H	-1.356914	-1.255393	0.724812
H94	H	-0.856914	-0.755393	1.224812
Cl95	Cl	-1.406773	-1.345775	0.880576
Cl96	Cl	-0.906773	-0.845775	1.380576
H97	H	-0.858047	-1.019983	0.751169
H98	H	-0.358047	-0.519983	1.251169
H99	H	-0.659200	-1.004785	0.576766
H100	H	-0.159200	-0.504785	1.076766
Cl101	Cl	-1.198829	-1.633304	0.653257
Cl102	Cl	-0.698829	-1.133304	1.153257
Cl103	Cl	-1.191508	-1.346231	0.881823
Cl104	Cl	-0.691508	-0.846231	1.381823
H105	H	-1.403375	-1.540908	0.810499
H106	H	-0.903375	-1.040908	1.310499
H107	H	-1.343891	-1.335480	0.535208
H108	H	-0.843891	-0.835480	1.035208
Cl109	Cl	-1.158389	-1.502588	0.486864
Cl110	Cl	-0.658389	-1.002588	0.986864
Cl111	Cl	-1.137761	-1.288439	0.522334
Cl112	Cl	-0.637761	-0.788439	1.022334
Cl113	Cl	-0.694574	-1.522179	1.067685
Cl114	Cl	-0.194574	-1.022179	1.567685
Cl115	Cl	-0.669371	-0.807606	0.585684
Cl116	Cl	-0.169371	-0.307606	1.085684
Cl117	Cl	-1.374815	-1.511018	0.492172
Cl118	Cl	-0.874815	-1.011018	0.992172
