data_functionalizedCrystal
_audit_creation_method	'MofGen! by Chris Wilmer'
_symmetry_space_group_name_H-M	'P1'
_symmetry_Int_Tables_number	1
_symmetry_cell_setting	triclinic
loop_
_symmetry_equiv_pos_as_xyz
  x,y,z
_cell_length_a	19.188905
_cell_length_b	19.188930
_cell_length_c	18.266242
_cell_angle_alpha	89.988525
_cell_angle_beta	89.983837
_cell_angle_gamma	83.139668
loop_
_atom_site_label
_atom_site_type_symbol
_atom_site_fract_x
_atom_site_fract_y
_atom_site_fract_z
O1	O	0.926160	0.087085	-0.061010
O2	O	0.722847	0.098838	-0.060986
O3	O	0.830371	-0.008694	-0.060984
O4	O	0.818636	0.194618	-0.061011
O5	O	0.830353	-0.008700	0.060778
O6	O	0.722828	0.098833	0.060776
O7	O	0.926142	0.087080	0.060752
Zn8	Zn	0.824482	0.092955	0.080097
Zn9	Zn	0.824506	0.092963	-0.080330
O10	O	0.818618	0.194612	0.060751
C11	C	0.696826	0.098458	-0.000102
C12	C	0.619321	0.097324	-0.000092
C13	C	0.582939	0.096782	-0.066466
C14	C	0.510115	0.095709	-0.066475
C15	C	0.473678	0.095164	-0.000106
C16	C	0.510068	0.095709	0.066277
C17	C	0.582890	0.096789	0.066284
N18	N	0.364651	0.053733	0.049292
N19	N	0.295474	0.052705	0.049280
C20	C	0.254272	0.091911	-0.000123
N21	N	0.284861	0.132174	-0.049526
N22	N	0.354045	0.133199	-0.049517
C23	C	0.394716	0.093993	-0.000106
C24	C	0.138926	0.090207	-0.066512
C25	C	0.066100	0.089138	-0.066518
C26	C	0.066056	0.089132	0.066236
C27	C	0.138879	0.090207	0.066240
C28	C	0.175310	0.090742	-0.000136
C29	C	0.829982	-0.034708	-0.000101
C30	C	0.828841	-0.112213	-0.000095
C31	C	0.891933	-0.157142	-0.000099
C32	C	0.890861	-0.229966	-0.000110
C33	C	0.826694	-0.257857	-0.000103
C34	C	0.763594	-0.212917	-0.000103
C35	C	0.764668	-0.140095	-0.000099
N36	N	0.777640	-0.365859	0.041341
N37	N	0.776624	-0.435038	0.041338
C38	C	0.823456	-0.477265	-0.000118
N39	N	0.871352	-0.447702	-0.041561
N40	N	0.872369	-0.378517	-0.041556
C41	C	0.825523	-0.336819	-0.000108
C42	C	0.885390	-0.601159	-0.000135
C43	C	0.884315	-0.673984	-0.000151
C44	C	0.757047	-0.656933	-0.000137
C45	C	0.758123	-0.584110	-0.000128
C46	C	0.822296	-0.556228	-0.000124
C47	C	0.952163	0.087460	-0.000134
C48	C	1.029668	0.088594	-0.000148
C49	C	0.819007	0.220626	-0.000134
C50	C	0.820148	0.298131	-0.000145
N51	N	0.824471	0.092950	0.189583
N52	N	0.824523	0.092962	-0.189817
C53	C	0.872098	0.045358	0.227893
C54	C	0.872103	0.045355	0.304538
C55	C	0.824487	0.092956	0.342870
C56	C	0.776851	0.140551	0.304552
C57	C	0.776843	0.140549	0.227908
N58	N	0.815411	0.154764	0.463195
N59	N	0.815423	0.154764	0.536003
C60	C	0.824506	0.092966	0.573793
N61	N	0.833592	0.031165	0.536024
N62	N	0.833584	0.031165	0.463209
C63	C	0.824490	0.092963	0.425977
C64	C	0.872141	0.045366	0.695210
C65	C	0.872141	0.045362	0.771856
C66	C	0.776892	0.140565	0.771868
C67	C	0.776889	0.140563	0.695223
C68	C	0.824517	0.092964	0.656898
H69	H	0.168502	0.090644	0.120290
C70	C	1.017623	-0.181316	-0.000110
C71	C	0.962471	-0.126495	-0.000102
H72	H	1.061169	-0.162392	-0.000117
H73	H	1.014549	-0.209371	0.042348
H74	H	1.014559	-0.209357	-0.042575
H75	H	0.965532	-0.098457	0.042366
H76	H	0.965547	-0.098428	-0.042564
C77	C	0.939180	-0.793183	-0.000177
C78	C	0.953671	-0.723375	-0.000163
H79	H	0.981998	-0.823674	-0.000190
H80	H	0.912856	-0.801625	0.042282
H81	H	0.912865	-0.801593	-0.042640
H82	H	0.979981	-0.714963	0.042304
H83	H	0.980005	-0.714929	-0.042626
H84	H	0.711349	-0.235631	-0.000099
C85	C	0.963500	-0.321745	-0.062704
C86	C	0.960215	-0.279365	-0.000110
H87	H	1.006318	-0.352236	-0.062704
H88	H	0.925133	-0.348769	-0.062701
H89	H	0.961288	-0.292967	-0.105160
H90	H	0.962422	-0.308143	0.042346
H91	H	0.998593	-0.252338	-0.000107
H92	H	0.480487	0.095269	-0.120527
C93	C	0.703262	-0.464910	-0.000119
C94	C	0.688770	-0.534718	-0.000119
H95	H	0.660444	-0.434418	-0.000120
H96	H	0.729570	-0.456491	0.042338
H97	H	0.729592	-0.456477	-0.042584
H98	H	0.662445	-0.543152	0.042350
H99	H	0.662451	-0.543141	-0.042580
C100	C	0.597348	0.157125	-0.179625
C101	C	0.622981	0.097378	-0.139426
H102	H	0.622073	0.157494	-0.224665
H103	H	0.548777	0.156398	-0.189124
H104	H	0.603822	0.198003	-0.152351
H105	H	0.616503	0.056499	-0.166698
H106	H	0.671564	0.098099	-0.129930
H107	H	0.910879	0.006599	0.196691
C108	C	0.681805	0.155949	0.390786
C109	C	0.724511	0.192875	0.346686
H110	H	0.649494	0.188252	0.416800
H111	H	0.656779	0.126955	0.360905
H112	H	0.710181	0.127605	0.424569
H113	H	0.696136	0.221215	0.312899
H114	H	0.749539	0.221881	0.376569
C115	C	0.682696	0.234652	0.235620
C116	C	0.724492	0.192871	0.185794
H117	H	0.650382	0.266957	0.209618
H118	H	0.657674	0.205654	0.265527
H119	H	0.711689	0.259691	0.265500
H120	H	0.695500	0.167828	0.155917
H121	H	0.749516	0.221873	0.155875
C122	C	0.398419	0.094037	0.125210
C123	C	0.470020	0.095105	0.139232
H124	H	0.373698	0.093661	0.170251
H125	H	0.381040	0.134565	0.097937
H126	H	0.391962	0.053152	0.097940
H127	H	0.476478	0.135993	0.166497
H128	H	0.487404	0.054573	0.166516
H129	H	0.713289	-0.103513	-0.000096
C130	C	0.887644	-0.049648	0.608963
C131	C	0.924510	-0.006908	0.653045
H132	H	0.919983	-0.081902	0.582923
H133	H	0.858697	-0.074739	0.638859
H134	H	0.859257	-0.021288	0.575203
H135	H	0.952894	-0.035268	0.686810
H136	H	0.953469	0.018185	0.623147
C137	C	0.966256	-0.048745	0.296835
C138	C	0.924456	-0.006964	0.346660
H139	H	0.998577	-0.081042	0.322840
H140	H	0.937271	-0.073787	0.266960
H141	H	0.991276	-0.019740	0.266923
H142	H	0.899431	-0.035969	0.376568
H143	H	0.953444	0.018079	0.376547
H144	H	0.937644	-0.578456	-0.000135
H145	H	0.612511	0.097231	0.120336
C146	C	0.966303	-0.048725	0.764141
C147	C	0.924500	-0.006953	0.813969
H148	H	0.998631	-0.081019	0.790142
H149	H	0.937322	-0.073772	0.734267
H150	H	0.991316	-0.019714	0.734228
H151	H	0.899482	-0.035964	0.843878
H152	H	0.953485	0.018095	0.843856
H153	H	0.036389	0.088692	0.120275
H154	H	0.168589	0.090650	-0.120559
C155	C	0.682749	0.234669	0.702936
C156	C	0.724542	0.192886	0.653108
H157	H	0.650434	0.266974	0.676934
H158	H	0.657728	0.205671	0.732845
H159	H	0.711744	0.259708	0.732814
H160	H	0.695548	0.167843	0.623234
H161	H	0.749565	0.221887	0.623187
C162	C	0.698892	-0.760990	-0.000138
C163	C	0.686512	-0.687582	-0.000131
H164	H	0.655344	-0.779911	-0.000133
H165	H	0.724864	-0.776410	-0.042600
H166	H	0.724854	-0.776431	0.042323
H167	H	0.660554	-0.672141	-0.042595
H168	H	0.660529	-0.672156	0.042335
H169	H	0.738119	0.179319	0.803078
C170	C	0.073466	0.089233	-0.197737
C171	C	0.026107	0.088540	-0.139483
H172	H	0.048774	0.088858	-0.242782
H173	H	0.096412	0.130357	-0.194985
H174	H	0.107325	0.048944	-0.194956
H175	H	-0.007750	0.128832	-0.142260
H176	H	0.003150	0.047411	-0.142236
