data_functionalizedCrystal
_audit_creation_method	'MofGen! by Chris Wilmer'
_symmetry_space_group_name_H-M	'P1'
_symmetry_Int_Tables_number	1
_symmetry_cell_setting	triclinic
loop_
_symmetry_equiv_pos_as_xyz
  x,y,z
_cell_length_a	18.101398
_cell_length_b	18.101395
_cell_length_c	19.076919
_cell_angle_alpha	92.272317
_cell_angle_beta	92.290393
_cell_angle_gamma	90.026661
loop_
_atom_site_label
_atom_site_type_symbol
_atom_site_fract_x
_atom_site_fract_y
_atom_site_fract_z
Zn1	Zn	1.115288	-0.311748	-0.397786
Zn2	Zn	1.615288	0.188252	0.102214
Zn3	Zn	1.120164	-0.430617	-0.280094
Zn4	Zn	1.620164	0.069383	0.219906
Zn5	Zn	0.996426	-0.306785	-0.280123
Zn6	Zn	1.496426	0.193215	0.219877
Zn7	Zn	0.991398	-0.435542	-0.397769
Zn8	Zn	1.491398	0.064458	0.102231
O9	O	1.055819	-0.371173	-0.338943
O10	O	1.555819	0.128827	0.161057
O11	O	1.219568	-0.327532	-0.382169
O12	O	1.719568	0.172468	0.117831
O13	O	1.107895	-0.410053	-0.181608
O14	O	1.607895	0.089947	0.318392
O15	O	1.012257	-0.203812	-0.295751
O16	O	1.512257	0.296188	0.204249
O17	O	1.223150	-0.414864	-0.295701
O18	O	1.723150	0.085136	0.204299
O19	O	1.099584	-0.207457	-0.382197
O20	O	1.599584	0.292543	0.117803
O21	O	1.016985	-0.319074	-0.181630
O22	O	1.516985	0.180926	0.318370
O23	O	0.892126	-0.323849	-0.295734
O24	O	1.392126	0.176151	0.204266
O25	O	1.003688	-0.423258	-0.496261
O26	O	1.503688	0.076742	0.003739
O27	O	0.888432	-0.418446	-0.382168
O28	O	1.388432	0.081554	0.117832
O29	O	1.094709	-0.332307	-0.496274
O30	O	1.594709	0.167693	0.003726
O31	O	1.103020	-0.534902	-0.295684
O32	O	1.603020	-0.034902	0.204316
O33	O	1.008416	-0.538520	-0.382140
O34	O	1.508416	-0.038520	0.117860
C35	C	0.863408	-0.371144	-0.338953
C36	C	1.363408	0.128856	0.161047
C37	C	0.781093	-0.371151	-0.338974
C38	C	1.281093	0.128849	0.161026
C39	C	1.055721	-0.563583	-0.338922
C40	C	1.555721	-0.063583	0.161078
C41	C	1.055746	-0.645897	-0.338937
C42	C	1.555746	-0.145897	0.161063
C43	C	0.482003	-0.371193	-0.338944
C44	C	0.982003	0.128807	0.161056
C45	C	0.511041	-0.430976	-0.393058
C46	C	1.011041	0.069024	0.106942
C47	C	0.596650	-0.430805	-0.393280
C48	C	1.096650	0.069195	0.106720
C49	C	0.630385	-0.371172	-0.338959
C50	C	1.130385	0.128828	0.161041
C51	C	0.598473	-0.294027	-0.359226
C52	C	1.098473	0.205973	0.140774
C53	C	0.512812	-0.294389	-0.359611
C54	C	1.012812	0.205611	0.140389
C55	C	0.516704	-0.387862	-0.264433
C56	C	1.016704	0.112138	0.235567
C57	C	0.602337	-0.389590	-0.264831
C58	C	1.102337	0.110410	0.235169
C59	C	0.714245	-0.371156	-0.338966
C60	C	1.214245	0.128844	0.161034
C61	C	0.398144	-0.371204	-0.338939
C62	C	0.898144	0.128796	0.161061
C63	C	1.055907	-0.944990	-0.338975
C64	C	1.555907	-0.444990	0.161025
C65	C	0.996511	-0.915978	-0.393505
C66	C	1.496511	-0.415978	0.106495
C67	C	0.996247	-0.830353	-0.393335
C68	C	1.496247	-0.330353	0.106665
C69	C	1.055827	-0.796607	-0.338957
C70	C	1.555827	-0.296607	0.161043
C71	C	1.037836	-0.824618	-0.264784
C72	C	1.537836	-0.324618	0.235216
C73	C	1.037454	-0.910277	-0.265110
C74	C	1.537454	-0.410277	0.234890
C75	C	1.133445	-0.914143	-0.357964
C76	C	1.633445	-0.414143	0.142036
C77	C	1.132915	-0.828561	-0.359591
C78	C	1.632915	-0.328561	0.140409
C79	C	1.055783	-0.712746	-0.338942
C80	C	1.555783	-0.212746	0.161058
C81	C	1.055949	-1.028850	-0.338985
C82	C	1.555949	-0.528850	0.161015
C83	C	1.248981	-0.371202	-0.338934
C84	C	1.748981	0.128798	0.161066
C85	C	1.331296	-0.371215	-0.338930
C86	C	1.831296	0.128785	0.161070
C87	C	1.048094	-0.378885	-0.522519
C88	C	1.548094	0.121115	-0.022519
C89	C	1.044801	-0.382172	-0.600748
C90	C	1.544801	0.117828	-0.100748
C91	C	1.055937	-0.178013	-0.338979
C92	C	1.555937	0.321987	0.161021
C93	C	1.055988	-0.095699	-0.338995
C94	C	1.555988	0.404301	0.161005
C95	C	1.090642	-0.336365	-0.637507
C96	C	1.590642	0.163635	-0.137507
C97	C	1.087540	-0.339450	-0.711012
C98	C	1.587540	0.160550	-0.211012
C99	C	1.038600	-0.388347	-0.747755
C100	C	1.538600	0.111653	-0.247755
C101	C	0.992754	-0.434156	-0.710990
C102	C	1.492754	0.065844	-0.210990
C103	C	0.995853	-0.431066	-0.637487
C104	C	1.495853	0.068934	-0.137487
C105	C	1.024246	-0.402661	-0.967585
C106	C	1.524246	0.097339	-0.467585
C107	C	1.021152	-0.405749	-1.041093
C108	C	1.521152	0.094251	-0.541093
C109	C	1.115937	-0.311042	-1.041110
C110	C	1.615937	0.188958	-0.541110
C111	C	1.119035	-0.307960	-0.967605
C112	C	1.619035	0.192040	-0.467605
C113	C	1.073187	-0.353766	-0.930847
C114	C	1.573187	0.146234	-0.430847
N115	N	1.035429	-0.391503	-0.822888
N116	N	1.535429	0.108497	-0.322888
N117	N	1.076354	-0.350605	-0.855715
N118	N	1.576354	0.149395	-0.355715
C119	C	1.063557	-0.363437	-0.156082
C120	C	1.563557	0.136563	0.343918
C121	C	1.066993	-0.359942	-0.077853
C122	C	1.566993	0.140058	0.422147
H123	H	0.618182	-0.488111	-0.380578
H124	H	1.118182	0.011889	0.119422
F125	F	0.963492	-0.935582	-0.244083
F126	F	1.463492	-0.435582	0.255917
F127	F	0.627204	-0.234404	-0.309320
F128	F	1.127204	0.265596	0.190680
H129	H	0.981868	-0.802536	-0.248408
H130	H	1.481868	-0.302536	0.251592
H131	H	0.952904	-0.473966	-0.740912
H132	H	1.452904	0.026034	-0.240912
F133	F	0.492454	-0.330897	-0.211732
F134	F	0.992454	0.169103	0.288268
H135	H	0.495870	-0.442989	-0.246015
H136	H	0.995870	0.057011	0.253985
H137	H	1.146539	-0.810508	-0.414178
H138	H	1.646539	-0.310508	0.085822
H139	H	1.124870	-0.302151	-0.740938
H140	H	1.624870	0.197849	-0.240938
F141	F	1.092782	-0.795691	-0.210229
F142	F	1.592782	-0.295691	0.289771
H143	H	0.986924	-0.439971	-0.937665
H144	H	1.486924	0.060029	-0.437665
F145	F	0.620398	-0.416716	-0.465441
F146	F	1.120398	0.083284	0.034559
F147	F	1.171124	-0.255918	-0.928506
F148	F	1.671124	0.244082	-0.428506
H149	H	1.079009	-0.929220	-0.223096
H150	H	1.579009	-0.429220	0.276904
H151	H	1.153263	-0.273748	-1.071047
H152	H	1.653263	0.226252	-0.571047
F153	F	1.142735	-0.284326	-0.598409
F154	F	1.642735	0.215674	-0.098409
H155	H	1.177658	-0.932716	-0.318248
H156	H	1.677658	-0.432716	0.181752
H157	H	0.939321	-0.937034	-0.381086
H158	H	1.439321	-0.437034	0.118914
H159	H	0.981297	-0.445568	-1.071008
H160	H	1.481297	0.054432	-0.571008
H161	H	0.490957	-0.488476	-0.380498
H162	H	0.990957	0.011524	0.119502
F163	F	0.479877	-0.417100	-0.464800
F164	F	0.979877	0.082900	0.035200
H165	H	0.490546	-0.279882	-0.414082
H166	H	0.990546	0.220118	0.085918
F167	F	0.487809	-0.234416	-0.310343
F168	F	0.987809	0.265584	0.189657
H169	H	1.179257	-0.805594	-0.322768
H170	H	1.679257	-0.305594	0.177232
F171	F	1.155684	-0.945249	-0.427454
F172	F	1.655684	-0.445249	0.072546
H173	H	0.958517	-0.468360	-0.607558
H174	H	1.458517	0.031640	-0.107558
H175	H	0.617658	-0.279192	-0.413105
H176	H	1.117658	0.220808	0.086895
H177	H	1.007265	-0.938861	-0.448682
H178	H	1.507265	-0.438861	0.051318
F179	F	0.629710	-0.463774	-0.244855
F180	F	1.129710	0.036226	0.255145
F181	F	0.632653	-0.336478	-0.209300
F182	F	1.132653	0.163522	0.290700
F183	F	1.010482	-0.805861	-0.465222
F184	F	1.510482	-0.305861	0.034778
H185	H	0.938711	-0.809393	-0.380757
H186	H	1.438711	-0.309393	0.119243
