data_functionalizedCrystal
_audit_creation_method	'MofGen! by Chris Wilmer'
_symmetry_space_group_name_H-M	'P1'
_symmetry_Int_Tables_number	1
_symmetry_cell_setting	triclinic
loop_
_symmetry_equiv_pos_as_xyz
  x,y,z
_cell_length_a	21.295418
_cell_length_b	29.839131
_cell_length_c	29.839126
_cell_angle_alpha	89.978002
_cell_angle_beta	89.954791
_cell_angle_gamma	90.057233
loop_
_atom_site_label
_atom_site_type_symbol
_atom_site_fract_x
_atom_site_fract_y
_atom_site_fract_z
Zn1	Zn	0.962317	-0.178708	-0.254239
Zn2	Zn	1.462317	0.321292	0.245761
Zn3	Zn	0.962197	-0.253825	-0.179109
Zn4	Zn	1.462197	0.246175	0.320891
Zn5	Zn	0.857038	-0.178731	-0.179096
Zn6	Zn	1.357038	0.321269	0.320904
Zn7	Zn	0.856990	-0.253832	-0.254185
Zn8	Zn	1.356990	0.246168	0.245815
O9	O	0.909635	-0.216274	-0.216657
O10	O	1.409635	0.283726	0.283343
O11	O	1.050391	-0.188660	-0.244300
O12	O	1.550391	0.311340	0.255700
O13	O	0.948217	-0.243871	-0.116240
O14	O	1.448217	0.256129	0.383760
O15	O	0.871074	-0.115861	-0.189081
O16	O	1.371074	0.384139	0.310919
O17	O	1.050302	-0.243848	-0.189103
O18	O	1.550302	0.256152	0.310897
O19	O	0.948422	-0.115844	-0.244288
O20	O	1.448422	0.384156	0.255712
O21	O	0.870957	-0.188699	-0.116230
O22	O	1.370957	0.311301	0.383770
O23	O	0.768942	-0.188706	-0.189028
O24	O	1.268942	0.311294	0.310972
O25	O	0.870992	-0.243860	-0.317059
O26	O	1.370992	0.256140	0.182941
O27	O	0.768907	-0.243882	-0.244196
O28	O	1.268907	0.256118	0.255804
O29	O	0.948376	-0.188666	-0.317099
O30	O	1.448376	0.311334	0.182901
O31	O	0.948171	-0.316693	-0.189050
O32	O	1.448171	0.183307	0.310950
O33	O	0.870875	-0.316698	-0.244208
O34	O	1.370875	0.183302	0.255792
C35	C	0.746084	-0.216298	-0.216605
C36	C	1.246084	0.283702	0.283395
C37	C	0.676116	-0.216319	-0.216594
C38	C	1.176116	0.283681	0.283406
C39	C	0.643247	-0.245087	-0.245276
C40	C	1.143247	0.254913	0.254724
C41	C	0.577505	-0.245076	-0.245297
C42	C	1.077505	0.254924	0.254703
C43	C	0.544633	-0.216301	-0.216626
C44	C	1.044633	0.283699	0.283374
C45	C	0.577510	-0.187527	-0.187941
C46	C	1.077510	0.312473	0.312059
C47	C	0.643251	-0.187536	-0.187925
C48	C	1.143251	0.312464	0.312075
N49	N	0.441357	-0.212786	-0.177333
N50	N	0.941357	0.287214	0.322667
N51	N	0.378905	-0.212780	-0.177349
N52	N	0.878905	0.287220	0.322651
C53	C	0.346558	-0.216272	-0.216674
C54	C	0.846558	0.283728	0.283326
N55	N	0.379022	-0.219779	-0.255982
N56	N	0.879022	0.280221	0.244018
N57	N	0.441480	-0.219787	-0.255964
N58	N	0.941480	0.280213	0.244036
C59	C	0.473348	-0.216288	-0.216641
C60	C	0.973348	0.283712	0.283359
C61	C	0.242404	-0.245030	-0.245381
C62	C	0.742404	0.254970	0.254619
C63	C	0.176661	-0.245016	-0.245402
C64	C	0.676661	0.254984	0.254598
C65	C	0.176667	-0.187470	-0.188042
C66	C	0.676667	0.312530	0.311958
C67	C	0.242409	-0.187482	-0.188025
C68	C	0.742409	0.312518	0.311975
C69	C	0.275274	-0.216264	-0.216694
C70	C	0.775274	0.283736	0.283306
C71	C	0.909522	-0.332997	-0.216635
C72	C	1.409522	0.167003	0.283365
C73	C	0.909531	-0.382931	-0.216640
C74	C	1.409531	0.117069	0.283360
C75	C	0.949956	-0.692559	-0.187978
C76	C	1.449956	-0.192559	0.312022
C77	C	0.950034	-0.880232	-0.187996
C78	C	1.450034	-0.380232	0.312004
O79	O	0.984315	-0.904484	-0.163609
O80	O	1.484315	-0.404484	0.336391
N81	N	0.909766	-0.903716	-0.216691
N82	N	1.409766	-0.403716	0.283309
C83	C	0.869479	-0.880279	-0.245386
C84	C	1.369479	-0.380279	0.254614
O85	O	0.835235	-0.904559	-0.269797
O86	O	1.335235	-0.404559	0.230203
C87	C	0.869405	-0.692607	-0.245370
C88	C	1.369405	-0.192607	0.254630
C89	C	0.909671	-0.669125	-0.216670
C90	C	1.409671	-0.169125	0.283330
C91	C	0.990220	-0.669078	-0.159280
C92	C	1.490220	-0.169078	0.340720
C93	C	0.990197	-0.622162	-0.159275
C94	C	1.490197	-0.122162	0.340725
C95	C	0.949912	-0.598728	-0.187967
C96	C	1.449912	-0.098728	0.312033
C97	C	0.909648	-0.622210	-0.216664
C98	C	1.409648	-0.122210	0.283336
C99	C	0.829121	-0.669170	-0.274067
C100	C	1.329121	-0.169170	0.225933
C101	C	0.829107	-0.622249	-0.274062
C102	C	1.329107	-0.122249	0.225938
C103	C	0.869373	-0.598768	-0.245361
C104	C	1.369373	-0.098768	0.254639
C105	C	0.869341	-0.551860	-0.245350
C106	C	1.369341	-0.051860	0.254650
N107	N	0.909609	-0.528376	-0.216655
N108	N	1.409609	-0.028376	0.283345
C109	C	0.949894	-0.551810	-0.187963
C110	C	1.449894	-0.051810	0.312037
C111	C	0.869519	-0.978809	-0.245391
C112	C	1.369519	-0.478809	0.254609
C113	C	0.869537	-1.025727	-0.245395
C114	C	1.369537	-0.525727	0.254605
C115	C	0.950093	-1.025677	-0.188005
C116	C	1.450093	-0.525677	0.311995
C117	C	0.950072	-0.978759	-0.188000
C118	C	1.450072	-0.478759	0.312000
C119	C	0.909787	-0.955325	-0.216696
C120	C	1.409787	-0.455325	0.283304
C121	C	0.949844	-0.453285	-0.187953
C122	C	1.449844	0.046715	0.312047
C123	C	0.949816	-0.406365	-0.187948
C124	C	1.449816	0.093635	0.312052
C125	C	0.869263	-0.406419	-0.245339
C126	C	1.369263	0.093581	0.254661
C127	C	0.869288	-0.453334	-0.245343
C128	C	1.369288	0.046666	0.254657
C129	C	0.909583	-0.476766	-0.216648
C130	C	1.409583	0.023234	0.283352
O131	O	0.835082	-0.527579	-0.269728
O132	O	1.335082	-0.027579	0.230272
O133	O	0.984143	-0.527522	-0.163563
O134	O	1.484143	-0.027522	0.336437
C135	C	0.949978	-0.739475	-0.187984
C136	C	1.449978	-0.239475	0.312016
C137	C	0.909715	-0.762956	-0.216682
C138	C	1.409715	-0.262956	0.283318
C139	C	0.869430	-0.739522	-0.245373
C140	C	1.369430	-0.239522	0.254627
C141	C	0.909733	-0.809874	-0.216685
C142	C	1.409733	-0.309874	0.283315
C143	C	0.950018	-0.833308	-0.187993
C144	C	1.450018	-0.333308	0.312007
C145	C	0.990286	-0.809824	-0.159298
C146	C	1.490286	-0.309824	0.340702
C147	C	0.990264	-0.762909	-0.159292
C148	C	1.490264	-0.262909	0.340708
C149	C	0.829162	-0.763006	-0.274069
C150	C	1.329162	-0.263006	0.225931
C151	C	0.829187	-0.809921	-0.274072
C152	C	1.329187	-0.309921	0.225928
C153	C	0.869472	-0.833355	-0.245380
C154	C	1.369472	-0.333355	0.254620
C155	C	1.073826	-0.216251	-0.216709
C156	C	1.573826	0.283749	0.283291
C157	C	1.143794	-0.216241	-0.216731
C158	C	1.643794	0.283759	0.283269
C159	C	0.909692	-0.216261	-0.333835
C160	C	1.409692	0.283739	0.166165
C161	C	0.909716	-0.216256	-0.383770
C162	C	1.409716	0.283744	0.116230
C163	C	0.909767	-0.099096	-0.216689
C164	C	1.409767	0.400904	0.283311
C165	C	0.909823	-0.049161	-0.216703
C166	C	1.409823	0.450839	0.283297
C167	C	0.949937	-0.244924	-0.740365
C168	C	1.449937	0.255076	-0.240365
C169	C	0.949938	-0.244955	-0.552692
C170	C	1.449938	0.255045	-0.052692
O171	O	0.984129	-0.269400	-0.528434
O172	O	1.484129	0.230600	-0.028434
N173	N	0.909713	-0.216234	-0.529215
N174	N	1.409713	0.283766	-0.029215
C175	C	0.869482	-0.187505	-0.552659
C176	C	1.369482	0.312495	-0.052659
O177	O	0.835264	-0.163080	-0.528384
O178	O	1.335264	0.336920	-0.028384
C179	C	0.869479	-0.187477	-0.740331
C180	C	1.369479	0.312523	-0.240331
C181	C	0.909710	-0.216196	-0.763806
C182	C	1.409710	0.283804	-0.263806
C183	C	0.990165	-0.273641	-0.763839
C184	C	1.490165	0.226359	-0.263839
C185	C	0.990167	-0.273631	-0.810755
C186	C	1.490167	0.226369	-0.310755
C187	C	0.949940	-0.244904	-0.834196
C188	C	1.449940	0.255096	-0.334196
C189	C	0.909712	-0.216186	-0.810721
C190	C	1.409712	0.283814	-0.310721
C191	C	0.829245	-0.158751	-0.763775
C192	C	1.329245	0.341249	-0.263775
C193	C	0.829247	-0.158747	-0.810696
C194	C	1.329247	0.341253	-0.310696
C195	C	0.869478	-0.187466	-0.834170
C196	C	1.369478	0.312534	-0.334170
C197	C	0.869488	-0.187449	-0.881078
C198	C	1.369488	0.312551	-0.381078
N199	N	0.909712	-0.216170	-0.904555
N200	N	1.409712	0.283830	-0.404555
C201	C	0.949939	-0.244897	-0.881114
C202	C	1.449939	0.255103	-0.381114
C203	C	0.869488	-0.187522	-0.454129
C204	C	1.369488	0.312478	0.045871
C205	C	0.869490	-0.187528	-0.407211
C206	C	1.369490	0.312472	0.092789
C207	C	0.949944	-0.244979	-0.407247
C208	C	1.449944	0.255021	0.092753
C209	C	0.949945	-0.244969	-0.454165
C210	C	1.449945	0.255031	0.045835
C211	C	0.909713	-0.216243	-0.477605
C212	C	1.409713	0.283757	0.022395
C213	C	0.949940	-0.244874	-0.979640
C214	C	1.449940	0.255126	-0.479640
C215	C	0.949940	-0.244861	-1.026559
C216	C	1.449940	0.255139	-0.526559
C217	C	0.869483	-0.187412	-1.026519
C218	C	1.369483	0.312588	-0.526519
C219	C	0.869485	-0.187424	-0.979604
C220	C	1.369485	0.312576	-0.479604
C221	C	0.909715	-0.216159	-0.956165
C222	C	1.409715	0.283841	-0.456165
O223	O	0.835310	-0.163020	-0.905365
O224	O	1.335310	0.336980	-0.405365
O225	O	0.984142	-0.269326	-0.905397
O226	O	1.484142	0.230674	-0.405397
C227	C	0.949935	-0.244933	-0.693449
C228	C	1.449935	0.255067	-0.193449
C229	C	0.909707	-0.216216	-0.669975
C230	C	1.409707	0.283784	-0.169975
C231	C	0.869481	-0.187488	-0.693416
C232	C	1.369481	0.312512	-0.193416
C233	C	0.909709	-0.216222	-0.623057
C234	C	1.409709	0.283778	-0.123057
C235	C	0.949935	-0.244950	-0.599616
C236	C	1.449935	0.255050	-0.099616
C237	C	0.990159	-0.273671	-0.623093
C238	C	1.490159	0.226329	-0.123093
C239	C	0.990161	-0.273661	-0.670008
C240	C	1.490161	0.226339	-0.170008
C241	C	0.829256	-0.158768	-0.669939
C242	C	1.329256	0.341232	-0.169939
C243	C	0.829258	-0.158779	-0.623024
C244	C	1.329258	0.341221	-0.123024
C245	C	0.869484	-0.187507	-0.599583
C246	C	1.369484	0.312493	-0.099583
C247	C	0.909615	-0.216254	-0.099934
C248	C	1.409615	0.283746	0.400066
C249	C	0.909713	-0.216133	-0.050000
C250	C	1.409713	0.283867	0.450000
H251	H	0.670001	-0.268524	-0.268621
H252	H	1.170001	0.231476	0.231379
N253	N	0.678698	-0.156506	-0.156983
N254	N	1.178698	0.343494	0.343017
H255	H	0.705909	-0.174736	-0.136122
H256	H	1.205909	0.325264	0.363878
H257	H	0.706003	-0.135723	-0.175302
H258	H	1.206003	0.364277	0.324698
H259	H	0.982699	-0.268369	-0.388153
H260	H	1.482699	0.231631	0.111847
N261	N	1.033550	-0.304653	-0.597805
N262	N	1.533550	0.195347	-0.097805
H263	H	1.027364	-0.300351	-0.564522
H264	H	1.527364	0.199649	-0.064522
H265	H	1.023788	-0.336736	-0.606048
H266	H	1.523788	0.163264	-0.106048
N267	N	0.277855	-0.276070	-0.276304
N268	N	0.777855	0.223930	0.223696
H269	H	0.324490	-0.271713	-0.271938
H270	H	0.824490	0.228287	0.228062
H271	H	0.266295	-0.308142	-0.269254
H272	H	0.766295	0.191858	0.230746
N273	N	0.141220	-0.156436	-0.157116
N274	N	0.641220	0.343564	0.342884
H275	H	0.172021	-0.138214	-0.138941
H276	H	0.672021	0.361786	0.361059
H277	H	0.114008	-0.135668	-0.175448
H278	H	0.614008	0.364332	0.324552
H279	H	0.149900	-0.268442	-0.268761
H280	H	0.649900	0.231558	0.231239
H281	H	0.796498	-0.135388	-0.603915
H282	H	1.296498	0.364612	-0.103915
H283	H	0.796497	-0.135375	-0.689020
H284	H	1.296497	0.364625	-0.189020
N285	N	0.785687	-0.694489	-0.305021
N286	N	1.285687	-0.194489	0.194979
H287	H	0.760170	-0.672518	-0.323194
H288	H	1.260170	-0.172518	0.176806
H289	H	0.811303	-0.713922	-0.325838
H290	H	1.311303	-0.213922	0.174162
H291	H	0.982703	-0.268270	-0.960561
H292	H	1.482703	0.231730	-0.460561
H293	H	0.836724	-0.164128	-0.473209
H294	H	1.336724	0.335872	0.026791
H295	H	0.836742	-1.044842	-0.268761
H296	H	1.336742	-0.544842	0.231239
N297	N	0.277866	-0.156450	-0.157092
N298	N	0.777866	0.343550	0.342908
H299	H	0.247068	-0.138217	-0.138933
H300	H	0.747068	0.361783	0.361067
H301	H	0.305082	-0.174706	-0.136260
H302	H	0.805082	0.325294	0.363740
N303	N	0.993249	-0.381039	-0.156993
N304	N	1.493249	0.118961	0.343007
H305	H	1.018775	-0.403006	-0.138820
H306	H	1.518775	0.096994	0.361180
H307	H	1.022359	-0.361536	-0.175305
H308	H	1.522359	0.138464	0.324695
N309	N	0.785651	-0.596973	-0.305008
N310	N	1.285651	-0.096973	0.194992
H311	H	0.811209	-0.577472	-0.325849
H312	H	1.311209	-0.077472	0.174151
H313	H	0.760155	-0.618997	-0.323158
H314	H	1.260155	-0.118997	0.176842
H315	H	0.836713	-0.959733	-0.268760
H316	H	1.336713	-0.459733	0.231240
N317	N	1.033637	-0.596841	-0.128325
N318	N	1.533637	-0.096841	0.371675
H319	H	1.062788	-0.577341	-0.146610
H320	H	1.562788	-0.077341	0.353390
H321	H	1.008025	-0.577432	-0.107483
H322	H	1.508025	-0.077432	0.392517
H323	H	0.982658	-0.472357	-0.164588
H324	H	1.482658	0.027643	0.335412
N325	N	1.033675	-0.694348	-0.128332
N326	N	1.533675	-0.194348	0.371668
H327	H	1.059175	-0.672347	-0.110155
H328	H	1.559175	-0.172347	0.389845
H329	H	1.008073	-0.713846	-0.107518
H330	H	1.508073	-0.213846	0.392482
H331	H	0.836502	-0.472454	-0.268714
H332	H	1.336502	0.027546	0.231286
H333	H	0.796483	-0.135365	-0.744670
H334	H	1.296483	0.364635	-0.244670
N335	N	0.825809	-0.381139	-0.276282
N336	N	1.325809	0.118861	0.223718
H337	H	0.831910	-0.347855	-0.271921
H338	H	1.331910	0.152145	0.228079
H339	H	0.835590	-0.389313	-0.308377
H340	H	1.335590	0.110687	0.191623
N341	N	0.993331	-0.275838	-1.051881
N342	N	1.493331	0.224162	-0.551881
H343	H	1.038315	-0.268856	-1.043741
H344	H	1.538315	0.231144	-0.543741
H345	H	0.983464	-0.307928	-1.043694
H346	H	1.483464	0.192072	-0.543694
H347	H	0.836736	-0.164137	-0.388102
H348	H	1.336736	0.335863	0.111898
N349	N	0.785849	-0.127764	-0.835978
N350	N	1.285849	0.372236	-0.335978
H351	H	0.760366	-0.109574	-0.813984
H352	H	1.260366	0.390426	-0.313984
H353	H	0.811492	-0.106963	-0.855462
H354	H	1.311492	0.393037	-0.355462
H355	H	0.982861	-0.959643	-0.164630
H356	H	1.482861	-0.459643	0.335370
N357	N	1.033698	-0.737585	-0.128339
N358	N	1.533698	-0.237585	0.371661
H359	H	1.059220	-0.759556	-0.110168
H360	H	1.559220	-0.259556	0.389832
H361	H	1.062811	-0.718085	-0.146651
H362	H	1.562811	-0.218085	0.353349
H363	H	1.023087	-0.828912	-0.135935
H364	H	1.523087	-0.328912	0.364065
H365	H	0.836733	-0.164032	-0.960490
H366	H	1.336733	0.335968	-0.460490
N367	N	0.993333	-0.275952	-0.479478
N368	N	1.493333	0.224048	0.020522
H369	H	0.967729	-0.296774	-0.498922
H370	H	1.467729	0.203226	0.001078
H371	H	1.022520	-0.257660	-0.498941
H372	H	1.522520	0.242340	0.001059
H373	H	0.550741	-0.164098	-0.164598
H374	H	1.050741	0.335902	0.335402
N375	N	0.542043	-0.276105	-0.276235
N376	N	1.042043	0.223895	0.223765
H377	H	0.572838	-0.294339	-0.294394
H378	H	1.072838	0.205661	0.205606
H379	H	0.514703	-0.296863	-0.257913
H380	H	1.014703	0.203137	0.242087
H381	H	0.836733	-0.164022	-1.045613
H382	H	1.336733	0.335978	-0.545613
H383	H	0.982896	-1.044765	-0.164643
H384	H	1.482896	-0.544765	0.335357
H385	H	0.796392	-0.829036	-0.297443
H386	H	1.296392	-0.329036	0.202557
N387	N	0.785707	-0.737734	-0.305015
N388	N	1.285707	-0.237734	0.194985
H389	H	0.760203	-0.759734	-0.323191
H390	H	1.260203	-0.259734	0.176809
H391	H	0.756577	-0.718307	-0.286698
H392	H	1.256577	-0.218307	0.213302
H393	H	1.022925	-0.297019	-0.829864
H394	H	1.522925	0.202981	-0.329864
H395	H	1.022923	-0.297037	-0.744759
H396	H	1.522923	0.202963	-0.244759
N397	N	1.033554	-0.304637	-0.695324
N398	N	1.533554	0.195363	-0.195324
H399	H	1.059032	-0.322836	-0.673349
H400	H	1.559032	0.177164	-0.173349
H401	H	1.007910	-0.325431	-0.714771
H402	H	1.507910	0.174569	-0.214771
