data_functionalizedCrystal
_audit_creation_method	'MofGen! by Chris Wilmer'
_symmetry_space_group_name_H-M	'P1'
_symmetry_Int_Tables_number	1
_symmetry_cell_setting	triclinic
loop_
_symmetry_equiv_pos_as_xyz
  x,y,z
_cell_length_a	12.811445
_cell_length_b	11.792254
_cell_length_c	11.295483
_cell_angle_alpha	94.123239
_cell_angle_beta	80.460739
_cell_angle_gamma	84.121730
loop_
_atom_site_label
_atom_site_type_symbol
_atom_site_fract_x
_atom_site_fract_y
_atom_site_fract_z
O1	O	1.411391	0.133589	-0.251431
O2	O	1.103543	0.152758	-0.218191
O3	O	1.264930	-0.022072	-0.235608
O4	O	1.250004	0.308418	-0.234014
O5	O	1.250755	-0.006740	-0.036028
O6	O	1.089368	0.168090	-0.018611
O7	O	1.397216	0.148921	-0.051850
Cu8	Cu	1.241998	0.159905	-0.017007
Cu9	Cu	1.258761	0.141773	-0.253034
O10	O	1.235829	0.323750	-0.034433
C11	C	1.057045	0.159819	-0.114145
C12	C	0.939611	0.158001	-0.101465
C13	C	0.734391	0.137890	-0.295243
C14	C	0.624052	0.136182	-0.283334
C15	C	0.608591	0.152885	-0.065740
C16	C	0.718930	0.154593	-0.077649
C17	C	0.781827	0.147093	-0.192404
C18	C	0.892169	0.148793	-0.204312
C19	C	0.876705	0.165504	0.013282
C20	C	0.766366	0.163796	0.025190
C21	C	1.256902	-0.056687	-0.135717
C22	C	1.254088	-0.182671	-0.135414
C23	C	1.251801	-0.284985	-0.135171
C24	C	1.248943	-0.413343	-0.134874
C25	C	1.443715	0.141860	-0.155899
C26	C	1.561149	0.143677	-0.168586
C27	C	1.243857	0.358365	-0.134327
C28	C	1.246672	0.484349	-0.134638
N29	N	1.230215	0.172658	0.149001
N30	N	1.270553	0.129012	-0.419043
C31	C	1.355373	0.037150	0.384783
C32	C	1.346476	0.046795	0.510407
C33	C	1.203520	0.201587	0.525875
C34	C	1.212417	0.191942	0.400251
C35	C	1.288347	0.109722	0.329709
C36	C	1.297248	0.100083	0.204083
C37	C	1.154287	0.254868	0.219554
C38	C	1.145391	0.264513	0.345177
H39	H	0.585435	0.128690	-0.367077
H40	H	1.401054	-0.012301	0.555244
H41	H	1.083567	0.331453	0.402627
H42	H	0.785604	0.131777	-0.388682
C43	C	1.380769	0.009637	0.126489
N44	N	1.443676	-0.058493	0.068048
C45	C	0.961353	0.140545	-0.330544
N46	N	1.013460	0.134337	-0.425626
H47	H	1.417205	-0.029789	0.327346
C48	C	0.928895	0.175607	0.126412
N49	N	0.968207	0.183206	0.211619
H50	H	0.557361	0.159001	0.027689
H51	H	1.141692	0.268521	0.583327
H52	H	0.715140	0.169906	0.118621
H53	H	1.099713	0.313964	0.174699
