data_functionalizedCrystal
_audit_creation_method	'MofGen! by Chris Wilmer'
_symmetry_space_group_name_H-M	'P1'
_symmetry_Int_Tables_number	1
_symmetry_cell_setting	triclinic
loop_
_symmetry_equiv_pos_as_xyz
  x,y,z
_cell_length_a	16.974800
_cell_length_b	10.489741
_cell_length_c	16.053802
_cell_angle_alpha	92.592148
_cell_angle_beta	91.074188
_cell_angle_gamma	83.963381
loop_
_atom_site_label
_atom_site_type_symbol
_atom_site_fract_x
_atom_site_fract_y
_atom_site_fract_z
O1	O	1.050000	0.162593	0.001544
O2	O	0.820649	0.182119	-0.013960
O3	O	0.940543	-0.013302	-0.005850
O4	O	0.930106	0.358013	-0.006566
O5	O	0.933944	-0.002590	0.132562
O6	O	0.814050	0.192831	0.124452
O7	O	1.043401	0.173305	0.139957
Zn8	Zn	0.927677	0.184769	0.154181
Zn9	Zn	0.936373	0.170655	-0.028184
O10	O	0.923507	0.368725	0.131847
C11	C	0.787981	0.186536	0.053261
C12	C	0.700473	0.183723	0.047345
C13	C	0.655768	0.188238	0.120017
C14	C	0.573546	0.185575	0.114461
C15	C	0.536029	0.178406	0.036233
C16	C	0.580740	0.173888	-0.036444
C17	C	0.662961	0.176541	-0.030887
C18	C	0.290510	0.169835	0.011524
C19	C	0.208282	0.167185	0.005972
C20	C	0.201094	0.178870	0.156878
C21	C	0.283317	0.181531	0.162428
C22	C	0.328021	0.177006	0.089751
N23	N	0.451984	0.175688	0.030552
N24	N	0.412065	0.179714	0.095433
C25	C	0.936455	-0.055468	0.063302
C26	C	0.934097	-0.197071	0.063141
C27	C	0.857812	-0.264336	0.057978
C28	C	0.890594	-0.351590	0.128659
C29	C	0.897119	-0.362126	-0.007804
C30	C	0.966908	-0.282456	0.133880
C31	C	0.973425	-0.292987	-0.002644
C32	C	1.006262	-0.380214	0.068057
C33	C	1.076069	0.168888	0.072734
C34	C	1.163578	0.171700	0.078644
C35	C	0.927595	0.410892	0.062692
C36	C	0.929953	0.552494	0.062848
N37	N	0.921749	0.194400	0.278640
N38	N	0.942307	0.161014	-0.152643
C39	C	0.972783	0.111278	0.325786
C40	C	0.968643	0.118028	0.412913
C41	C	0.913473	0.207906	0.452892
C42	C	0.862433	0.291031	0.405739
C43	C	0.866570	0.284275	0.318614
C44	C	0.895404	0.237383	0.713079
C45	C	0.891273	0.244135	0.800211
C46	C	0.997482	0.071129	0.807378
C47	C	1.001617	0.064386	0.720251
C48	C	0.950575	0.147507	0.673106
N49	N	0.909242	0.214810	0.541949
N50	N	0.954803	0.140596	0.584050
H51	H	0.537152	0.189230	0.173638
Cl52	Cl	0.702923	0.197258	0.218366
H53	H	0.996404	-0.247524	0.193821
H54	H	0.795087	-0.213959	0.053807
H55	H	0.313858	0.187363	0.226130
Cl56	Cl	0.793071	0.404017	0.455997
Cl57	Cl	0.346698	0.164148	-0.079843
H58	H	0.855565	-0.377766	0.184173
H59	H	0.164688	0.182553	0.216047
Cl60	Cl	0.831242	0.341880	0.653817
Cl61	Cl	0.533579	0.164828	-0.134789
H62	H	1.008427	-0.266778	-0.058163
Cl63	Cl	0.821910	0.357139	0.850465
H64	H	0.825012	0.351960	0.280228
H65	H	1.069038	-0.430355	0.072338
Cl66	Cl	1.070976	-0.048604	0.669991
H67	H	0.699359	0.172867	-0.090064
Cl68	Cl	0.161119	0.158176	-0.092379
H69	H	0.867583	-0.397185	-0.067687
H70	H	1.017712	0.038095	0.293241
Cl71	Cl	1.061643	-0.033364	0.866649
H72	H	1.010199	0.050342	0.451299
