data_functionalizedCrystal
_audit_creation_method	'MofGen! by Chris Wilmer'
_symmetry_space_group_name_H-M	'P1'
_symmetry_Int_Tables_number	1
_symmetry_cell_setting	triclinic
loop_
_symmetry_equiv_pos_as_xyz
  x,y,z
_cell_length_a	11.169417
_cell_length_b	12.827892
_cell_length_c	12.827885
_cell_angle_alpha	89.970214
_cell_angle_beta	89.982092
_cell_angle_gamma	90.016270
loop_
_atom_site_label
_atom_site_type_symbol
_atom_site_fract_x
_atom_site_fract_y
_atom_site_fract_z
Zn1	Zn	1.834897	-0.415958	-0.590811
Zn2	Zn	1.834776	-0.590735	-0.416071
Zn3	Zn	1.634190	-0.416012	-0.416088
Zn4	Zn	1.634173	-0.590660	-0.590775
O5	O	1.734509	-0.503341	-0.503436
O6	O	2.002831	-0.439151	-0.567639
O7	O	1.808124	-0.567612	-0.269837
O8	O	1.660872	-0.269768	-0.439288
O9	O	2.002742	-0.567560	-0.439258
O10	O	1.808331	-0.269729	-0.567656
O11	O	1.660754	-0.439243	-0.269850
O12	O	1.466238	-0.439170	-0.439253
O13	O	1.660843	-0.567432	-0.737016
O14	O	1.466226	-0.567484	-0.567595
O15	O	1.808315	-0.439079	-0.737042
O16	O	1.808108	-0.736961	-0.439224
O17	O	1.660726	-0.736906	-0.567578
C18	C	1.422684	-0.503325	-0.503423
C19	C	1.289284	-0.503344	-0.503442
C20	C	1.734434	-0.774851	-0.503418
C21	C	1.734512	-0.891004	-0.503445
C22	C	1.807528	-0.942782	-0.440002
C23	C	1.807610	-1.062832	-0.440028
C24	C	2.047551	-0.503358	-0.503450
C25	C	2.180951	-0.503365	-0.503456
C26	C	1.734591	-0.503241	-0.776007
C27	C	1.734626	-0.503198	-0.892160
C28	C	1.734617	-0.230771	-0.503478
C29	C	1.734663	-0.114618	-0.503495
C30	C	1.807607	-0.439673	-0.943957
C31	C	1.807645	-0.439627	-1.064008
C32	C	1.734497	-0.503366	-0.231926
C33	C	1.734695	-0.503114	-0.115774
H34	H	1.869984	-0.898236	-0.385669
Cl35	Cl	1.638225	-0.587096	-1.047013
H36	H	1.870057	-0.385316	-0.899427
Cl37	Cl	1.638094	-0.959774	-0.587345
Cl38	Cl	1.904124	-0.355659	-1.132776
H39	H	1.870118	-1.107359	-0.385709
Cl40	Cl	1.638135	-1.045884	-0.587357
H41	H	1.672164	-0.557544	-0.936691
