data_functionalizedCrystal
_audit_creation_method	'MofGen! by Chris Wilmer'
_symmetry_space_group_name_H-M	'P1'
_symmetry_Int_Tables_number	1
_symmetry_cell_setting	triclinic
loop_
_symmetry_equiv_pos_as_xyz
  x,y,z
_cell_length_a	10.654550
_cell_length_b	15.944551
_cell_length_c	9.730223
_cell_angle_alpha	89.997716
_cell_angle_beta	89.996251
_cell_angle_gamma	83.991820
loop_
_atom_site_label
_atom_site_type_symbol
_atom_site_fract_x
_atom_site_fract_y
_atom_site_fract_z
O1	O	1.666308	0.117973	-0.114406
O2	O	1.300684	0.129213	-0.114384
O3	O	1.493480	0.001376	-0.114384
O4	O	1.473511	0.245810	-0.114407
O5	O	1.493478	0.001379	0.114196
O6	O	1.300681	0.129216	0.114196
O7	O	1.666305	0.117976	0.114174
Zn8	Zn	1.483493	0.123597	0.150477
Zn9	Zn	1.483496	0.123592	-0.150687
O10	O	1.473509	0.245813	0.114173
C11	C	1.253895	0.128389	-0.000092
C12	C	1.114484	0.125920	-0.000083
C13	C	1.034024	0.201188	-0.000110
C14	C	0.903034	0.198863	-0.000134
C15	C	0.932975	0.045995	-0.000108
C16	C	1.063963	0.048321	-0.000075
C17	C	1.084545	0.278788	-0.000118
C18	C	1.004084	0.354062	-0.000147
C19	C	0.873094	0.351737	-0.000170
C20	C	0.822564	0.274137	-0.000165
C21	C	1.492650	-0.029921	-0.000093
C22	C	1.490165	-0.123182	-0.000092
C23	C	1.364720	-0.338765	-0.000104
C24	C	1.422971	-0.399443	0.112596
C25	C	1.485668	-0.293934	-0.000103
C26	C	1.423002	-0.399430	-0.112765
C27	C	1.481317	-0.458872	-0.000119
C28	C	1.543953	-0.353384	0.112691
C29	C	1.543967	-0.353364	-0.112772
C30	C	1.602306	-0.414024	-0.000045
C31	C	1.488172	-0.198917	-0.000092
C32	C	1.478822	-0.553887	-0.000119
C33	C	1.713094	0.118800	-0.000122
C34	C	1.852505	0.121269	-0.000140
C35	C	1.474339	0.277110	-0.000120
C36	C	1.476824	0.370371	-0.000130
N37	N	1.483500	0.123599	0.356013
N38	N	1.483499	0.123583	-0.356224
C39	C	1.568892	0.067012	0.427939
C40	C	1.568889	0.067002	0.571822
C41	C	1.398098	0.180173	0.571840
C42	C	1.398096	0.180178	0.427959
C43	C	1.654296	0.010433	0.355993
C44	C	1.739696	-0.046158	0.427920
C45	C	1.739693	-0.046168	0.571803
C46	C	1.654290	0.010412	0.643759
H47	H	1.264327	-0.306038	0.000015
H48	H	0.715901	0.272250	-0.000163
C49	C	1.436428	-0.482048	0.319416
C50	C	1.353918	-0.426996	0.241226
H51	H	1.393792	-0.499051	0.398825
H52	H	1.464439	-0.530250	0.265973
H53	H	1.507002	-0.454172	0.346497
H54	H	1.283348	-0.454874	0.214137
H55	H	1.325888	-0.378786	0.294679
H56	H	1.371831	-0.419804	-0.208051
H57	H	1.595065	-0.333096	0.208074
C58	C	1.080412	-0.103017	-0.000085
C59	C	1.152414	-0.034415	-0.000063
H60	H	1.135021	-0.154094	-0.000084
H61	H	1.028684	-0.100749	0.079610
H62	H	1.028714	-0.100739	-0.079812
H63	H	1.204106	-0.036689	0.079670
H64	H	1.204164	-0.036684	-0.079766
H65	H	1.654309	0.010437	0.238836
H66	H	1.654286	0.010393	0.760918
C67	C	1.229290	0.292053	0.442418
C68	C	1.304240	0.242384	0.348887
H69	H	1.171351	0.330458	0.393598
H70	H	1.184119	0.256807	0.498534
H71	H	1.281574	0.322589	0.498537
H72	H	1.251957	0.211843	0.292774
H73	H	1.349414	0.277635	0.292747
H74	H	1.191203	0.280689	-0.000105
C75	C	1.815519	-0.096439	0.792352
C76	C	1.833554	-0.108375	0.650869
H77	H	1.873465	-0.134847	0.841158
H78	H	1.829156	-0.040302	0.815930
H79	H	1.731708	-0.106090	0.815920
H80	H	1.917363	-0.098718	0.627299
H81	H	1.819927	-0.164525	0.627281
H82	H	1.045235	0.417241	-0.000140
C83	C	1.800955	-0.434775	0.118126
C84	C	1.737944	-0.458014	0.000030
H85	H	1.884687	-0.461938	0.118178
H86	H	1.803256	-0.375387	0.118873
H87	H	1.757663	-0.451253	0.197421
H88	H	1.781231	-0.441529	-0.079265
H89	H	1.735650	-0.517414	-0.000730
C90	C	1.813413	-0.191115	0.383664
C91	C	1.833561	-0.108370	0.348862
H92	H	1.871358	-0.229527	0.334860
H93	H	1.825617	-0.199197	0.479642
H94	H	1.729601	-0.200742	0.360068
H95	H	1.917370	-0.098741	0.372467
H96	H	1.821367	-0.100285	0.252862
C97	C	1.227209	0.197328	0.733676
C98	C	1.304238	0.242367	0.650937
H99	H	1.169271	0.235728	0.782512
H100	H	1.182036	0.162095	0.677550
H101	H	1.278082	0.163627	0.797097
H102	H	1.253365	0.276064	0.587509
H103	H	1.349414	0.277616	0.707068
C104	C	1.531098	-0.269521	-0.318237
C105	C	1.612968	-0.325779	-0.241405
H106	H	1.573694	-0.252486	-0.397652
H107	H	1.459638	-0.296473	-0.345284
H108	H	1.504455	-0.221442	-0.263885
H109	H	1.639603	-0.373861	-0.295754
H110	H	1.684451	-0.298827	-0.214360
C111	C	0.745470	-0.025444	-0.000167
C112	C	0.877434	-0.039299	-0.000122
H113	H	0.711186	-0.078103	-0.000188
H114	H	0.717837	0.005573	0.079532
H115	H	0.717891	0.005582	-0.079890
H116	H	0.905013	-0.070320	0.079607
H117	H	0.905078	-0.070329	-0.079829
H118	H	0.807585	0.413029	-0.000180
