data_functionalizedCrystal
_audit_creation_method	'MofGen! by Chris Wilmer'
_symmetry_space_group_name_H-M	'P1'
_symmetry_Int_Tables_number	1
_symmetry_cell_setting	triclinic
loop_
_symmetry_equiv_pos_as_xyz
  x,y,z
_cell_length_a	23.196402
_cell_length_b	27.440280
_cell_length_c	23.196401
_cell_angle_alpha	90.017084
_cell_angle_beta	60.007472
_cell_angle_gamma	59.999414
loop_
_atom_site_label
_atom_site_type_symbol
_atom_site_fract_x
_atom_site_fract_y
_atom_site_fract_z
Zr1	Zr	0.630943	0.469501	-0.075575
O2	O	0.751222	0.391666	-0.167636
O3	O	0.510672	0.493359	-0.047355
O4	O	0.630941	0.493338	-0.167623
O5	O	0.630952	0.391706	0.047504
O6	O	0.630930	0.573540	-0.167611
O7	O	0.630953	0.391687	-0.047368
O8	O	0.415791	0.573579	0.047527
O9	O	0.846090	0.391668	-0.167635
O10	O	0.560130	0.563391	-0.035309
O11	O	0.560137	0.503551	0.035484
O12	O	0.701738	0.503526	-0.106117
O13	O	0.701745	0.443686	-0.035324
Zr14	Zr	0.630923	0.597445	0.075753
Zr15	Zr	0.630925	0.597415	-0.075556
Zr16	Zr	0.630940	0.469531	0.075734
Zr17	Zr	0.782247	0.469504	-0.075573
Zr18	Zr	0.479618	0.597442	0.075750
O19	O	0.751193	0.573587	0.047532
O20	O	0.751197	0.573543	-0.167609
O21	O	0.751218	0.391709	0.047505
O22	O	0.510643	0.675280	0.167814
O23	O	0.510647	0.675237	-0.047328
O24	O	0.510669	0.493403	0.167787
O25	O	0.630914	0.675239	-0.047326
O26	O	0.630924	0.573608	0.167801
O27	O	0.630936	0.493405	0.167789
O28	O	0.630912	0.675259	0.047546
O29	O	0.846076	0.493343	-0.167620
O30	O	0.415789	0.573603	0.167798
O31	O	0.415775	0.675278	0.167813
O32	O	0.415777	0.675254	0.047542
O33	O	0.846089	0.391692	-0.047364
O34	O	0.846074	0.493367	-0.047349
O35	O	0.560127	0.563420	0.106294
O36	O	0.560120	0.623260	0.035502
O37	O	0.701728	0.563395	-0.035306
O38	O	0.701736	0.503555	0.035486
C39	C	0.441674	0.533469	0.000086
C40	C	0.377441	0.533467	0.000085
C41	C	-0.033134	0.489289	-0.052183
C42	C	0.027223	0.489284	-0.052183
C43	C	0.005134	0.533478	0.000089
C44	C	-0.077322	0.577672	0.052374
C45	C	-0.137677	0.577672	0.052376
C46	C	0.060705	0.587411	0.016384
C47	C	0.121061	0.587411	0.016378
C48	C	0.191287	0.533477	0.000086
C49	C	0.201158	0.479539	-0.016214
C50	C	0.140803	0.479540	-0.016212
C51	C	0.070573	0.533482	0.000092
C52	C	0.339178	0.489279	-0.052192
C53	C	0.399535	0.489273	-0.052187
C54	C	0.294987	0.577666	0.052366
C55	C	0.234633	0.577666	0.052364
C56	C	0.256734	0.533473	0.000081
C57	C	0.630955	0.373472	0.000065
C58	C	0.630962	0.319169	0.000057
C59	C	0.557001	0.013720	0.037069
C60	C	0.556997	-0.037298	0.037076
O61	O	0.494132	-0.037110	0.068531
N62	N	0.630914	-0.094064	0.000114
C63	C	0.704840	-0.099811	-0.036851
O64	O	0.767712	-0.152779	-0.068288
C65	C	0.704844	-0.048793	-0.036852
C66	C	0.630922	0.007972	0.000106
C67	C	0.483085	0.070483	0.074025
C68	C	0.483090	0.121498	0.074018
C69	C	0.557011	0.115750	0.037054
C70	C	0.630927	0.058987	0.000098
C71	C	0.778770	-0.054540	-0.073812
C72	C	0.778767	-0.003516	-0.073811
C73	C	0.704845	0.053249	-0.036852
C74	C	0.704852	0.104254	-0.036872
N75	N	0.630935	0.161020	0.000089
C76	C	0.557014	0.166768	0.037053
C77	C	0.704827	-0.206949	-0.036843
C78	C	0.704824	-0.257967	-0.036846
C79	C	0.556980	-0.195450	0.037082
C80	C	0.556984	-0.144433	0.037080
C81	C	0.630910	-0.150184	0.000119
C82	C	0.557030	0.273900	0.037034
C83	C	0.557041	0.324917	0.037021
C84	C	0.704885	0.262396	-0.036904
C85	C	0.704874	0.211384	-0.036894
C86	C	0.630940	0.217140	0.000080
O87	O	0.767685	0.104112	-0.068310
O88	O	0.494153	0.219738	0.068493
C89	C	0.820191	0.533477	0.000092
C90	C	0.884424	0.533479	0.000093
C91	C	0.630936	0.533435	-0.189176
C92	C	0.630937	0.533422	-0.253410
C93	C	0.630910	0.693474	0.000113
C94	C	0.630903	0.747777	0.000121
C95	C	0.704852	0.502175	-0.320544
C96	C	0.704853	0.502191	-0.380900
C97	C	0.630934	0.533444	-0.374116
C98	C	0.557009	0.564697	-0.306970
C99	C	0.557010	0.564686	-0.246617
C100	C	0.574306	0.529004	-0.441435
C101	C	0.574308	0.529011	-0.501789
C102	C	0.630928	0.533482	-0.560264
C103	C	0.687560	0.537933	-0.558385
C104	C	0.687561	0.537922	-0.498032
C105	C	0.630925	0.533460	-0.439555
C106	C	0.704850	0.502250	-0.692845
C107	C	0.704848	0.502270	-0.753200
C108	C	0.557002	0.564772	-0.679268
C109	C	0.557006	0.564757	-0.618915
C110	C	0.630932	0.533493	-0.625709
C111	C	0.630930	0.533511	0.189353
C112	C	0.630929	0.533524	0.253588
C113	C	0.441652	0.693470	0.000110
C114	C	0.377411	0.747771	0.000117
C115	C	0.441671	0.533507	0.189350
C116	C	0.377437	0.533518	0.253584
C117	C	0.441649	0.693508	0.189374
C118	C	0.377407	0.747822	0.253616
C119	C	0.820217	0.373438	-0.189196
C120	C	0.884458	0.319123	-0.253438
C121	C	0.820214	0.373476	0.000068
C122	C	0.884454	0.319175	0.000061
C123	C	0.820194	0.533439	-0.189173
C124	C	0.884428	0.533427	-0.253406
C125	C	0.347248	0.742021	-0.036849
C126	C	0.286896	0.793038	-0.036856
C127	C	0.256704	0.849805	0.000106
C128	C	0.286873	0.855554	0.037073
C129	C	0.347228	0.804537	0.037076
C130	C	0.347267	0.564775	0.320717
C131	C	0.286921	0.564783	0.381077
C132	C	0.256742	0.533539	0.374303
C133	C	0.286918	0.502279	0.307162
C134	C	0.347267	0.502267	0.246804
C135	C	0.347235	0.804570	0.246831
C136	C	0.286882	0.855609	0.307187
C137	C	0.256698	0.849899	0.374327
C138	C	0.286876	0.793145	0.381110
C139	C	0.347232	0.742108	0.320755
C140	C	0.914637	0.262375	-0.246653
C141	C	0.975009	0.211336	-0.307010
C142	C	1.005196	0.217047	-0.374149
C143	C	0.975014	0.273800	-0.380932
C144	C	0.914648	0.324838	-0.320577
C145	C	0.914623	0.324925	0.037020
C146	C	0.974992	0.273908	0.037011
C147	C	1.005186	0.217141	0.000046
C148	C	0.975015	0.211392	-0.036917
C149	C	0.914651	0.262408	-0.036912
C150	C	0.914588	0.564678	-0.246609
C151	C	0.974935	0.564679	-0.306957
C152	C	1.005124	0.533425	-0.374103
C153	C	0.974958	0.502174	-0.380899
C154	C	0.914608	0.502177	-0.320551
H155	H	0.003524	0.631335	0.029655
H156	H	0.765030	-0.211640	-0.066945
H157	H	0.999547	0.476728	-0.435576
H158	H	0.890017	0.590129	-0.191941
H159	H	0.466666	0.453286	-0.094757
H160	H	0.528199	0.525383	-0.503314
C161	C	0.253706	0.467920	0.299719
H162	H	0.213437	0.472414	0.345285
H163	H	0.297026	0.426809	0.274637
H164	H	0.230146	0.483355	0.274653
C165	C	-0.008827	0.440673	-0.109682
H166	H	-0.056579	0.447002	-0.102197
H167	H	0.022547	0.402532	-0.107520
H168	H	0.022536	0.442500	-0.154804
H169	H	0.999548	0.278601	0.067114
C170	C	0.881420	0.387362	0.077685
H171	H	0.908046	0.383471	0.099687
H172	H	0.824438	0.408570	0.112664
H173	H	0.891311	0.408559	0.045784
H174	H	0.262282	0.901780	0.067166
C175	C	-0.228367	0.626283	0.109878
H176	H	-0.261147	0.619952	0.102394
H177	H	-0.239959	0.664427	0.107722
H178	H	-0.239948	0.624451	0.154997
H179	H	0.999489	0.590127	-0.301410
H180	H	0.371823	0.476816	0.192143
H181	H	0.999608	0.165166	-0.067012
C182	C	0.475668	-0.189134	0.077751
H183	H	0.486259	-0.227650	0.072463
H184	H	0.445286	-0.167941	0.059509
H185	H	0.445303	-0.167924	0.126378
H186	H	0.262359	0.590241	0.435740
H187	H	0.371779	0.809228	0.067181
H188	H	1.054265	0.533428	-0.423236
C189	C	0.380429	0.810863	0.172985
H190	H	0.353815	0.851973	0.177599
H191	H	0.370539	0.792257	0.147899
H192	H	0.437416	0.792252	0.147905
H193	H	0.890059	0.476726	-0.326095
C194	C	1.008191	0.148915	-0.299536
H195	H	0.981553	0.152829	-0.250904
H196	H	1.065172	0.127705	-0.321533
H197	H	0.998302	0.127706	-0.321549
H198	H	0.207602	0.533553	0.423456
C199	C	0.881451	0.256083	-0.172808
H200	H	0.908086	0.214972	-0.177421
H201	H	0.824469	0.274686	-0.147718
H202	H	0.891346	0.274696	-0.147730
C203	C	0.190302	0.906044	0.440712
H204	H	0.176653	0.940657	0.427049
H205	H	0.210073	0.906062	0.468022
H206	H	0.143204	0.906057	0.468012
H207	H	1.054338	0.175605	0.000048
C208	C	0.881447	0.387258	-0.328049
H209	H	0.908068	0.383343	-0.376680
H210	H	0.891324	0.408478	-0.306040
H211	H	0.824463	0.408457	-0.306047
H212	H	0.094360	0.453291	-0.094745
C213	C	1.071594	0.160903	-0.440536
H214	H	1.085258	0.172427	-0.481497
H215	H	1.051812	0.137822	-0.440536
H216	H	1.118685	0.137828	-0.440534
C217	C	0.151654	0.420215	-0.034129
H218	H	0.202116	0.388091	-0.043827
H219	H	0.151261	0.415108	-0.074408
H220	H	0.108278	0.420843	0.004808
H221	H	0.262292	0.788505	0.435784
C222	C	0.881459	0.256079	-0.077559
H223	H	0.841186	0.294589	-0.072269
H224	H	0.857927	0.234877	-0.059306
H225	H	0.924794	0.234869	-0.126187
C226	C	0.253689	0.918031	0.299713
H227	H	0.280302	0.914117	0.251082
H228	H	0.263581	0.939244	0.321713
H229	H	0.196703	0.939237	0.321724
H230	H	0.371791	0.695903	0.326289
H231	H	0.371833	0.590218	0.326247
C232	C	0.475700	0.599072	-0.299507
H233	H	0.486286	0.594599	-0.345067
H234	H	0.445322	0.640178	-0.274411
H235	H	0.445334	0.583639	-0.274447
C236	C	1.008219	0.280074	-0.454788
H237	H	1.048485	0.241547	-0.489756
H238	H	1.031763	0.301273	-0.460092
H239	H	0.964888	0.301263	-0.460084
C240	C	0.401767	0.076813	0.114688
H241	H	0.412337	0.038304	0.109407
H242	H	0.371399	0.098011	0.096437
H243	H	0.371398	0.098028	0.163314
H244	H	0.258339	0.435621	-0.029482
C245	C	-0.101625	0.626285	0.109872
H246	H	-0.159372	0.652601	0.141011
H247	H	-0.080260	0.648108	0.088408
H248	H	-0.080247	0.608133	0.135684
H249	H	0.357175	0.453293	-0.094763
H250	H	0.167504	0.613653	0.094930
C251	C	0.270683	0.626276	0.109867
H252	H	0.318435	0.619948	0.102378
H253	H	0.239318	0.624449	0.154983
H254	H	0.239311	0.664422	0.107705
H255	H	0.207558	0.891341	0.000099
H256	H	0.496843	0.371138	0.067119
C257	C	0.110200	0.646739	0.034306
H258	H	0.059727	0.678861	0.044022
H259	H	0.153566	0.646123	-0.004620
H260	H	0.110590	0.651841	0.074590
C261	C	0.401775	0.183934	0.114681
H262	H	0.357756	0.180041	0.136698
H263	H	0.398693	0.205132	0.082786
H264	H	0.398702	0.205142	0.149659
H265	H	0.496826	0.278596	0.067142
H266	H	0.496790	-0.098215	0.067181
H267	H	0.765019	-0.304184	-0.066951
C268	C	0.860085	-0.116972	-0.114462
H269	H	0.904103	-0.113078	-0.136465
H270	H	0.863173	-0.138191	-0.149439
H271	H	0.863155	-0.138160	-0.082553
H272	H	0.733671	0.541548	-0.496505
C273	C	0.860088	-0.009846	-0.114473
H274	H	0.904107	-0.050961	-0.136485
H275	H	0.863164	0.008767	-0.082577
H276	H	0.863165	0.008743	-0.149455
H277	H	0.765067	0.165162	-0.066998
H278	H	0.765049	0.476720	-0.326082
C279	C	0.786164	0.467812	-0.454756
H280	H	0.830191	0.449187	-0.450157
H281	H	0.789241	0.494778	-0.479825
H282	H	0.789227	0.438250	-0.479844
H283	H	0.765069	0.257726	-0.067001
H284	H	0.496816	0.590198	-0.564251
C285	C	0.749833	0.542864	-0.622696
H286	H	0.741715	0.542244	-0.658905
H287	H	0.803503	0.510196	-0.639654
H288	H	0.742684	0.579207	-0.609202
H289	H	0.765046	0.476794	-0.698377
H290	H	0.496816	0.590220	-0.673744
C291	C	0.512023	0.524083	-0.377117
H292	H	0.478306	0.521424	-0.386884
H293	H	0.479269	0.558396	-0.337180
H294	H	0.540078	0.489384	-0.367618
C295	C	0.475699	0.599053	-0.172766
H296	H	0.431674	0.617667	-0.177367
H297	H	0.472622	0.628613	-0.147663
H298	H	0.472633	0.572074	-0.147710
C299	C	0.380454	0.679583	-0.077512
H300	H	0.420716	0.650017	-0.072217
H301	H	0.404003	0.675099	-0.126134
H302	H	0.337123	0.675111	-0.059261
C303	C	0.786158	0.467896	-0.827051
H304	H	0.775571	0.472385	-0.862024
H305	H	0.816528	0.426787	-0.832365
H306	H	0.816532	0.483320	-0.832331
H307	H	0.262340	0.788345	-0.066958
