data_functionalizedCrystal
_audit_creation_method	'MofGen! by Chris Wilmer'
_symmetry_space_group_name_H-M	'P1'
_symmetry_Int_Tables_number	1
_symmetry_cell_setting	triclinic
loop_
_symmetry_equiv_pos_as_xyz
  x,y,z
_cell_length_a	12.759401
_cell_length_b	25.639240
_cell_length_c	25.639233
_cell_angle_alpha	90.013728
_cell_angle_beta	90.010331
_cell_angle_gamma	90.032485
loop_
_atom_site_label
_atom_site_type_symbol
_atom_site_fract_x
_atom_site_fract_y
_atom_site_fract_z
Zn1	Zn	1.606043	-0.208208	0.295595
Zn2	Zn	2.106043	0.291792	0.795595
Zn3	Zn	1.605909	-0.295627	0.208167
Zn4	Zn	2.105909	0.204373	0.708167
Zn5	Zn	1.430370	-0.208208	0.208178
Zn6	Zn	1.930370	0.291792	0.708178
Zn7	Zn	1.430280	-0.295615	0.295575
Zn8	Zn	1.930280	0.204385	0.795575
O9	O	1.518150	-0.251915	0.251879
O10	O	2.018150	0.248085	0.751879
O11	O	1.753046	-0.219810	0.284002
O12	O	2.253046	0.280190	0.784002
O13	O	1.582605	-0.284036	0.135004
O14	O	2.082605	0.215964	0.635004
O15	O	1.453767	-0.135043	0.219786
O16	O	1.953767	0.364957	0.719786
O17	O	1.752948	-0.284036	0.219769
O18	O	2.252948	0.215964	0.719769
O19	O	1.582833	-0.135043	0.284012
O20	O	2.082833	0.364957	0.784012
O21	O	1.453638	-0.219810	0.135011
O22	O	1.953638	0.280190	0.635011
O23	O	1.283337	-0.219798	0.219767
O24	O	1.783337	0.280202	0.719767
O25	O	1.453614	-0.284016	0.368743
O26	O	1.953614	0.215984	0.868743
O27	O	1.283271	-0.284016	0.283978
O28	O	1.783271	0.215984	0.783978
O29	O	1.582746	-0.219798	0.368758
O30	O	2.082746	0.280202	0.868758
O31	O	1.582518	-0.368791	0.219750
O32	O	2.082518	0.131209	0.719750
O33	O	1.453484	-0.368782	0.283968
O34	O	1.953484	0.131218	0.783968
C35	C	1.245183	-0.251906	0.251872
C36	C	1.745183	0.248094	0.751872
C37	C	1.128406	-0.251915	0.251881
C38	C	1.628406	0.248085	0.751881
C39	C	1.073596	-0.218532	0.285378
C40	C	1.573596	0.281468	0.785378
C41	C	0.963872	-0.218538	0.285382
C42	C	1.463872	0.281462	0.785382
C43	C	0.963778	-0.285312	0.218389
C44	C	1.463778	0.214688	0.718389
C45	C	1.073500	-0.285303	0.218383
C46	C	1.573500	0.214697	0.718383
C47	C	1.518005	-0.387757	0.251867
C48	C	2.018005	0.112243	0.751867
C49	C	1.518039	-0.445871	0.251879
C50	C	2.018039	0.054129	0.751879
C51	C	1.585349	-0.697014	0.285355
C52	C	2.085349	-0.197014	0.785355
C53	C	1.585318	-0.642409	0.285351
C54	C	2.085318	-0.142409	0.785351
O55	O	1.642426	-0.614129	0.313797
O56	O	2.142426	-0.114129	0.813797
N57	N	1.518154	-0.615145	0.251886
N58	N	2.018154	-0.115145	0.751886
C59	C	1.451026	-0.642488	0.218418
C60	C	1.951026	-0.142488	0.718418
O61	O	1.393896	-0.614284	0.189952
O62	O	1.893896	-0.114284	0.689952
C63	C	1.451064	-0.697092	0.218420
C64	C	1.951064	-0.197092	0.718420
C65	C	1.518224	-0.724353	0.251891
C66	C	2.018224	-0.224353	0.751891
C67	C	1.652504	-0.724275	0.318824
C68	C	2.152504	-0.224275	0.818824
C69	C	1.652534	-0.778875	0.318828
C70	C	2.152534	-0.278875	0.818828
C71	C	1.585409	-0.806215	0.285364
C72	C	2.085409	-0.306215	0.785364
C73	C	1.518254	-0.778953	0.251896
C74	C	2.018254	-0.278953	0.751896
C75	C	1.383941	-0.724434	0.184950
C76	C	1.883941	-0.224434	0.684950
C77	C	1.383985	-0.779041	0.184954
C78	C	1.883985	-0.279041	0.684954
C79	C	1.451145	-0.806302	0.218426
C80	C	1.951145	-0.306302	0.718426
C81	C	1.451158	-0.860893	0.218437
C82	C	1.951158	-0.360893	0.718437
N83	N	1.518321	-0.888157	0.251902
N84	N	2.018321	-0.388157	0.751902
C85	C	1.585447	-0.860818	0.285366
C86	C	2.085447	-0.360818	0.785366
C87	C	1.450953	-0.527818	0.218416
C88	C	1.950953	-0.027818	0.718416
C89	C	1.450910	-0.473215	0.218417
C90	C	1.950910	0.026785	0.718417
C91	C	1.585203	-0.473140	0.285350
C92	C	2.085203	0.026860	0.785350
C93	C	1.585240	-0.527744	0.285351
C94	C	2.085240	-0.027744	0.785351
C95	C	1.518116	-0.555082	0.251882
C96	C	2.018116	-0.055082	0.751882
C97	C	1.585504	-0.975483	0.285373
C98	C	2.085504	-0.475483	0.785373
C99	C	1.585525	-1.030088	0.285376
C100	C	2.085525	-0.530088	0.785376
C101	C	1.451236	-1.030159	0.218442
C102	C	1.951236	-0.530159	0.718442
C103	C	1.451210	-0.975558	0.218441
C104	C	1.951210	-0.475558	0.718441
C105	C	1.518353	-0.948222	0.251908
C106	C	2.018353	-0.448222	0.751908
O107	O	1.394082	-0.889208	0.190004
O108	O	1.894082	-0.389208	0.690004
O109	O	1.642576	-0.889029	0.313822
O110	O	2.142576	-0.389029	0.813822
C111	C	1.792184	-0.251924	0.251887
C112	C	2.292184	0.248076	0.751887
C113	C	1.908960	-0.251928	0.251890
C114	C	2.408960	0.248072	0.751890
C115	C	1.518184	-0.251906	0.388252
C116	C	2.018184	0.248094	0.888252
C117	C	1.518199	-0.251902	0.446366
C118	C	2.018199	0.248098	0.946366
C119	C	1.518325	-0.115542	0.251902
C120	C	2.018325	0.384458	0.751902
C121	C	1.518399	-0.057428	0.251912
C122	C	2.018399	0.442572	0.751912
C123	C	1.518177	-0.251886	0.116036
C124	C	2.018177	0.248114	0.616036
C125	C	1.518366	-0.251743	0.057923
C126	C	2.018366	0.248257	0.557923
C127	C	1.585523	-0.218364	0.806743
C128	C	2.085523	0.281636	1.306743
C129	C	1.585536	-0.218350	0.861347
C130	C	2.085536	0.281650	1.361347
O131	O	1.642693	-0.189897	0.889595
O132	O	2.142693	0.310103	1.389595
N133	N	1.518315	-0.251779	0.888649
N134	N	2.018315	0.248221	1.388649
C135	C	1.451068	-0.285221	0.861343
C136	C	1.951068	0.214779	1.361343
O137	O	1.393892	-0.313654	0.889580
O138	O	1.893892	0.186346	1.389580
C139	C	1.451051	-0.285233	0.806740
C140	C	1.951051	0.214767	1.306740
C141	C	1.518284	-0.251805	0.779441
C142	C	2.018284	0.248195	1.279441
C143	C	1.652750	-0.184939	0.779443
C144	C	2.152750	0.315061	1.279443
C145	C	1.652738	-0.184954	0.724843
C146	C	2.152738	0.315046	1.224843
C147	C	1.585499	-0.218395	0.697541
C148	C	2.085499	0.281605	1.197541
C149	C	1.518272	-0.251820	0.724840
C150	C	2.018272	0.248180	1.224840
C151	C	1.383800	-0.318672	0.779436
C152	C	1.883800	0.181328	1.279436
C153	C	1.383788	-0.318680	0.724829
C154	C	1.883788	0.181320	1.224829
C155	C	1.451021	-0.285252	0.697530
C156	C	1.951021	0.214748	1.197530
C157	C	1.451022	-0.285276	0.642938
C158	C	1.951022	0.214724	1.142938
N159	N	1.518243	-0.251847	0.615637
N160	N	2.018243	0.248153	1.115637
C161	C	1.585482	-0.218406	0.642938
C162	C	2.085482	0.281594	1.142938
C163	C	1.451109	-0.285194	0.976014
C164	C	1.951109	0.214806	1.476014
C165	C	1.451131	-0.285186	1.030616
C166	C	1.951131	0.214814	1.530616
C167	C	1.585598	-0.218313	1.030616
C168	C	2.085598	0.281687	1.530616
C169	C	1.585580	-0.218325	0.976013
C170	C	2.085580	0.281675	1.476013
C171	C	1.518330	-0.251765	0.948712
C172	C	2.018330	0.248235	1.448712
C173	C	1.585453	-0.218441	0.528273
C174	C	2.085453	0.281559	1.028273
C175	C	1.585438	-0.218461	0.473668
C176	C	2.085438	0.281539	0.973668
C177	C	1.450968	-0.285331	0.473673
C178	C	1.950968	0.214669	0.973673
C179	C	1.450986	-0.285314	0.528273
C180	C	1.950986	0.214686	1.028273
C181	C	1.518232	-0.251864	0.555572
C182	C	2.018232	0.248136	1.055572
O183	O	1.393891	-0.313713	0.614656
O184	O	1.893891	0.186287	1.114656
O185	O	1.642639	-0.189974	0.614695
O186	O	2.142639	0.310026	1.114695
H187	H	1.640213	-1.052282	0.312636
H188	H	2.140213	-0.552282	0.812636
H189	H	1.329051	-0.345892	0.801653
H190	H	1.829051	0.154108	1.301653
C191	C	1.133990	-0.181802	0.322220
C192	C	1.633990	0.318198	0.822220
H193	H	1.085628	-0.161919	0.342167
H194	H	1.585628	0.338081	0.842167
H195	H	1.176790	-0.201832	0.344965
H196	H	1.676790	0.298168	0.844965
H197	H	1.176798	-0.158986	0.302253
H198	H	1.676798	0.341014	0.802253
C199	C	0.903378	-0.322041	0.181549
C200	C	1.403378	0.177959	0.681549
H201	H	0.830181	-0.317270	0.186353
H202	H	1.330181	0.182730	0.686353
H203	H	0.921344	-0.314337	0.146431
H204	H	1.421344	0.185663	0.646431
H205	H	0.921338	-0.357182	0.189143
H206	H	1.421338	0.142818	0.689143
H207	H	1.396394	-0.312412	1.052839
H208	H	1.896394	0.187588	1.552839
H209	H	1.396210	-0.451023	0.191167
H210	H	1.896210	0.048977	0.691167
C211	C	1.133801	-0.322025	0.181535
C212	C	1.633801	0.177975	0.681535
H213	H	1.207010	-0.317233	0.186326
H214	H	1.707010	0.182767	0.686326
H215	H	1.115798	-0.357168	0.189124
H216	H	1.615798	0.142832	0.689124
H217	H	1.115806	-0.314317	0.146418
H218	H	1.615806	0.185683	0.646418
C219	C	1.659126	-0.557726	0.322165
C220	C	2.159126	-0.057726	0.822165
H221	H	1.699099	-0.533619	0.342090
H222	H	2.199099	-0.033619	0.842090
H223	H	1.618929	-0.579042	0.344930
H224	H	2.118929	-0.079042	0.844930
H225	H	1.704953	-0.579008	0.302180
H226	H	2.204953	-0.079008	0.802180
H227	H	0.919250	-0.191354	0.312658
H228	H	1.419250	0.308646	0.812658
H229	H	1.640179	-0.953232	0.312625
H230	H	2.140179	-0.453232	0.812625
H231	H	1.707231	-0.801067	0.346080
H232	H	2.207231	-0.301067	0.846080
H233	H	1.396283	-0.550073	0.191163
H234	H	1.896283	-0.050073	0.691163
C235	C	1.659563	-0.181530	1.060655
C236	C	2.159563	0.318470	1.560655
H237	H	1.649934	-0.186311	1.097084
H238	H	2.149934	0.313689	1.597084
H239	H	1.730141	-0.189187	1.051709
H240	H	2.230141	0.310813	1.551709
H241	H	1.644228	-0.146399	1.051710
H242	H	2.144228	0.353601	1.551710
C243	C	1.310141	-0.809110	0.148140
C244	C	1.810141	-0.309110	0.648140
H245	H	1.270137	-0.785050	0.128211
H246	H	1.770137	-0.285050	0.628211
H247	H	1.350369	-0.830402	0.125378
H248	H	1.850369	-0.330402	0.625378
H249	H	1.264341	-0.830422	0.168125
H250	H	1.764341	-0.330422	0.668125
H251	H	1.707171	-0.702020	0.346074
H252	H	2.207171	-0.202020	0.846074
H253	H	1.329254	-0.702245	0.157694
H254	H	1.829254	-0.202245	0.657694
C255	C	1.659049	-0.443060	0.322156
C256	C	2.159049	0.056940	0.822156
H257	H	1.649411	-0.406637	0.317354
H258	H	2.149411	0.093363	0.817354
H259	H	1.643640	-0.452001	0.357281
H260	H	2.143640	0.047999	0.857281
H261	H	1.729659	-0.451979	0.314529
H262	H	2.229659	0.048021	0.814529
H263	H	1.640207	-0.191202	0.550493
H264	H	2.140207	0.308798	1.050493
H265	H	1.396345	-0.312428	0.953789
H266	H	1.896345	0.187572	1.453789
C267	C	1.377327	-0.945570	0.181628
C268	C	1.877327	-0.445570	0.681628
H269	H	1.337356	-0.969675	0.161699
H270	H	1.837356	-0.469675	0.661699
H271	H	1.331514	-0.924280	0.201606
H272	H	1.831514	-0.424280	0.701606
H273	H	1.417542	-0.924263	0.158858
H274	H	1.917542	-0.424263	0.658858
H275	H	1.396581	-1.052428	0.191198
H276	H	1.896581	-0.552428	0.691198
H277	H	1.640191	-0.191240	0.451443
H278	H	2.140191	0.308760	0.951443
H279	H	1.707485	-0.157733	0.702621
H280	H	2.207485	0.342267	1.202621
H281	H	1.707504	-0.157705	0.801667
H282	H	2.207504	0.342295	1.301667
C283	C	1.659524	-0.181549	0.945989
C284	C	2.159524	0.318451	1.445989
H285	H	1.699563	-0.161631	0.970074
H286	H	2.199563	0.338369	1.470074
H287	H	1.705272	-0.201550	0.924685
H288	H	2.205272	0.298450	1.424685
H289	H	1.619348	-0.158768	0.924692
H290	H	2.119348	0.341232	1.424692
H291	H	1.329012	-0.345906	0.702603
H292	H	1.829012	0.154094	1.202603
H293	H	1.396249	-0.312538	0.550501
H294	H	1.896249	0.187462	1.050501
C295	C	1.377005	-0.322110	0.443634
C296	C	1.877005	0.177890	0.943634
H297	H	1.386624	-0.317324	0.407205
H298	H	1.886624	0.182676	0.907205
H299	H	1.392325	-0.357241	0.452579
H300	H	1.892325	0.142759	0.952579
H301	H	1.306424	-0.314446	0.452580
H302	H	1.806424	0.185554	0.952580
