data_functionalizedCrystal
_audit_creation_method	'MofGen! by Chris Wilmer'
_symmetry_space_group_name_H-M	'P1'
_symmetry_Int_Tables_number	1
_symmetry_cell_setting	triclinic
loop_
_symmetry_equiv_pos_as_xyz
  x,y,z
_cell_length_a	27.732048
_cell_length_b	27.732048
_cell_length_c	26.809956
_cell_angle_alpha	89.999364
_cell_angle_beta	89.996742
_cell_angle_gamma	82.642655
loop_
_atom_site_label
_atom_site_type_symbol
_atom_site_fract_x
_atom_site_fract_y
_atom_site_fract_z
O1	O	0.640931	0.057510	-0.041421
O2	O	0.500138	0.066256	-0.041436
O3	O	0.574907	-0.008514	-0.041419
O4	O	0.566162	0.132280	-0.041439
O5	O	0.574893	-0.008502	0.041541
O6	O	0.500123	0.066267	0.041523
O7	O	0.640917	0.057522	0.041539
Zn8	Zn	0.570518	0.061896	0.054702
Zn9	Zn	0.570536	0.061881	-0.054600
O10	O	0.566147	0.132291	0.041521
C11	C	0.574716	-0.026515	0.000062
C12	C	0.574164	-0.080170	0.000066
C13	C	0.482124	0.066078	0.000041
C14	C	0.428469	0.065525	0.000036
C15	C	0.614867	-0.418985	0.000045
C16	C	0.612816	-0.620645	0.000038
O17	O	0.650037	-0.651900	0.000021
N18	N	0.568481	-0.639768	0.000034
C19	C	0.524656	-0.608474	0.000028
O20	O	0.486899	-0.629367	0.000019
C21	C	0.526707	-0.406815	0.000031
C22	C	0.571045	-0.387694	0.000041
C23	C	0.659202	-0.399864	0.000054
C24	C	0.659714	-0.349452	0.000059
C25	C	0.615892	-0.318161	0.000054
C26	C	0.571557	-0.337282	0.000045
C27	C	0.482882	-0.375521	0.000022
C28	C	0.483399	-0.325104	0.000021
C29	C	0.527737	-0.305983	0.000031
C30	C	0.528247	-0.255580	0.000045
N31	N	0.572583	-0.236456	0.000050
C32	C	0.616405	-0.267747	0.000054
C33	C	0.523582	-0.714348	0.000027
C34	C	0.523069	-0.764762	0.000027
C35	C	0.611230	-0.776930	0.000036
C36	C	0.611742	-0.726514	0.000040
C37	C	0.567917	-0.695224	0.000031
C38	C	0.617477	-0.161878	0.000064
C39	C	0.617986	-0.111461	0.000071
C40	C	0.529825	-0.099298	0.000059
C41	C	0.529316	-0.149710	0.000055
C42	C	0.573147	-0.180999	0.000056
O43	O	0.491047	-0.224296	0.000057
O44	O	0.654156	-0.246844	0.000053
C45	C	0.614355	-0.469397	0.000041
C46	C	0.570021	-0.488518	0.000032
C47	C	0.526198	-0.457228	0.000027
C48	C	0.569508	-0.538933	0.000032
C49	C	0.613330	-0.570223	0.000036
C50	C	0.657665	-0.551100	0.000041
C51	C	0.658177	-0.500688	0.000045
C52	C	0.481863	-0.476351	0.000023
C53	C	0.481355	-0.526764	0.000019
C54	C	0.525177	-0.558054	0.000023
C55	C	0.089654	0.106229	0.000051
C56	C	-0.112006	0.104178	0.000056
O57	O	-0.143262	0.141398	0.000073
N58	N	-0.131130	0.059843	0.000062
C59	C	-0.099835	0.016017	0.000069
O60	O	-0.120728	-0.021740	0.000079
C61	C	0.101824	0.018068	0.000068
C62	C	0.120944	0.062407	0.000057
C63	C	0.108775	0.150563	0.000042
C64	C	0.159187	0.151076	0.000038
C65	C	0.190477	0.107253	0.000044
C66	C	0.171356	0.062919	0.000054
C67	C	0.133117	-0.025757	0.000079
C68	C	0.183535	-0.025240	0.000080
C69	C	0.202655	0.019098	0.000069
C70	C	0.253059	0.019609	0.000056
N71	N	0.272183	0.063944	0.000050
C72	C	0.240892	0.107766	0.000044
C73	C	-0.205709	0.014943	0.000069
C74	C	-0.256124	0.014430	0.000068
C75	C	-0.268291	0.102591	0.000056
C76	C	-0.217876	0.103104	0.000053
C77	C	-0.186585	0.059278	0.000063
C78	C	0.346761	0.108839	0.000036
C79	C	0.397178	0.109347	0.000030
C80	C	0.409341	0.021186	0.000044
C81	C	0.358929	0.020678	0.000048
C82	C	0.327639	0.064508	0.000045
O83	O	0.284343	-0.017592	0.000045
O84	O	0.261794	0.145518	0.000045
C85	C	0.039242	0.105716	0.000055
C86	C	0.020120	0.061382	0.000065
C87	C	0.051411	0.017560	0.000071
C88	C	-0.030294	0.060869	0.000065
C89	C	-0.061585	0.104691	0.000059
C90	C	-0.042461	0.149026	0.000053
C91	C	0.007951	0.149539	0.000049
C92	C	0.032287	-0.026775	0.000077
C93	C	-0.018125	-0.027284	0.000080
C94	C	-0.049416	0.016538	0.000074
C95	C	0.658931	0.057699	0.000060
C96	C	0.712586	0.058252	0.000062
C97	C	0.566338	0.150292	0.000039
C98	C	0.566891	0.203947	0.000031
N99	N	0.570509	0.061906	0.129298
N100	N	0.570549	0.061867	-0.129196
C101	C	0.603640	0.028781	0.473932
C102	C	0.603652	0.028774	0.682810
O103	O	0.631801	0.000613	0.709820
N104	N	0.570539	0.061870	0.708925
C105	C	0.537419	0.094969	0.682818
O106	O	0.509252	0.123116	0.709824
C107	C	0.537406	0.094974	0.473941
C108	C	0.570524	0.061878	0.447829
C109	C	0.636755	-0.004312	0.447819
C110	C	0.636754	-0.004308	0.395603
C111	C	0.603637	0.028789	0.369500
C112	C	0.570522	0.061882	0.395612
C113	C	0.504284	0.128070	0.447835
C114	C	0.504283	0.128067	0.395613
C115	C	0.537401	0.094972	0.369500
C116	C	0.537405	0.094983	0.317293
N117	N	0.570517	0.061887	0.291177
C118	C	0.603633	0.028790	0.317281
C119	C	0.537429	0.094965	0.792481
C120	C	0.537433	0.094964	0.844700
C121	C	0.603665	0.028768	0.844689
C122	C	0.603663	0.028772	0.792469
C123	C	0.570542	0.061868	0.766366
C124	C	0.603628	0.028801	0.207623
C125	C	0.603625	0.028809	0.155402
C126	C	0.537392	0.095003	0.155418
C127	C	0.537396	0.094997	0.207635
C128	C	0.570516	0.061892	0.233735
O129	O	0.509266	0.123126	0.290250
O130	O	0.631789	0.000640	0.290266
C131	C	0.603642	0.028777	0.526149
C132	C	0.570527	0.061870	0.552261
C133	C	0.537410	0.094968	0.526158
C134	C	0.570531	0.061870	0.604480
C135	C	0.603647	0.028773	0.630584
C136	C	0.636759	-0.004324	0.604468
C137	C	0.636758	-0.004320	0.552252
C138	C	0.504298	0.128064	0.552273
C139	C	0.504303	0.128058	0.604489
C140	C	0.537419	0.094961	0.630593
H141	H	0.653168	-0.187348	0.000063
N142	N	0.028564	0.197364	0.000043
H143	H	0.049208	0.199550	0.030795
H144	H	0.049186	0.199515	-0.030732
H145	H	-0.033688	-0.063392	0.000085
H146	H	0.647846	-0.710950	0.000047
N147	N	0.672470	-0.040007	0.367441
H148	H	0.706734	-0.034677	0.376529
H149	H	0.667116	-0.074259	0.376544
H150	H	0.445246	-0.542327	0.000015
H151	H	0.486964	-0.780325	0.000028
N152	N	0.501675	0.130699	0.127259
H153	H	0.506700	0.125675	0.090217
H154	H	0.467428	0.125347	0.136389
N155	N	0.468576	0.163754	0.632649
H156	H	0.473597	0.158732	0.669692
H157	H	0.473898	0.198010	0.623523
H158	H	0.663722	-0.031266	0.469068
H159	H	0.117558	-0.061861	0.000088
N160	N	0.217283	-0.072510	0.000094
H161	H	0.197517	-0.100672	0.000101
H162	H	0.238467	-0.074226	-0.030660
N163	N	0.501686	0.130699	0.235803
H164	H	0.480709	0.151668	0.211340
H165	H	0.480454	0.112340	0.257468
N166	N	0.468575	0.163761	0.524123
H167	H	0.447601	0.184723	0.548595
H168	H	0.486916	0.185008	0.502456
N169	N	-0.276744	-0.033391	0.000070
H170	H	-0.249267	-0.061072	0.000076
H171	H	-0.297398	-0.035522	0.030825
H172	H	0.630630	0.001820	0.865951
N173	N	0.672470	-0.040021	0.524088
H174	H	0.693735	-0.021700	0.502420
H175	H	0.693414	-0.060979	0.548584
N176	N	0.658496	-0.810684	0.000043
H177	H	0.651439	-0.845521	0.000041
H178	H	0.677838	-0.804531	-0.030711
H179	H	0.510471	0.121919	0.865958
N180	N	0.672481	-0.040020	0.632628
H181	H	0.667453	-0.034996	0.669670
H182	H	0.667155	-0.074274	0.623502
H183	H	0.321291	0.144530	0.000035
N184	N	-0.171963	-0.032329	0.000082
H185	H	-0.191733	-0.060489	0.000085
H186	H	-0.150777	-0.034045	-0.030671
N187	N	0.481495	-0.170333	0.000048
H188	H	0.479322	-0.190975	-0.030709
H189	H	0.479339	-0.190959	0.030818
N190	N	0.476311	-0.680600	0.000021
H191	H	0.456955	-0.686717	-0.030732
H192	H	0.456988	-0.686733	0.030794
N193	N	0.665809	-0.090838	0.000084
H194	H	0.693491	-0.118313	0.000085
H195	H	0.667949	-0.070183	-0.030667
H196	H	0.434827	-0.014492	0.000047
N197	N	0.707536	-0.328832	0.000068
H198	H	0.735215	-0.356310	0.000069
H199	H	0.709676	-0.308181	-0.030686
H200	H	0.694889	-0.425336	0.000056
N201	N	0.435060	-0.396136	0.000018
H202	H	0.407381	-0.368657	0.000014
H203	H	0.432927	-0.416788	-0.030736
N204	N	0.338302	-0.027142	0.000049
H205	H	0.365776	-0.054825	0.000050
H206	H	0.317651	-0.029272	0.030807
H207	H	0.630597	0.001843	0.228868
H208	H	0.174750	0.187180	0.000029
N209	N	0.704932	-0.584852	0.000042
H210	H	0.724290	-0.578744	0.030798
H211	H	0.697836	-0.619675	0.000019
N212	N	0.436129	-0.291355	0.000010
H213	H	0.407967	-0.311122	0.000003
H214	H	0.434412	-0.270174	0.030765
N215	N	0.482561	-0.065544	0.000067
H216	H	0.489618	-0.030706	0.000073
H217	H	0.463222	-0.071690	-0.030687
N218	N	0.501705	0.130671	0.764337
H219	H	0.520011	0.151949	0.742670
H220	H	0.480443	0.112317	0.742704
H221	H	-0.067947	0.184708	0.000046
N222	N	0.705998	-0.480067	0.000050
H223	H	0.708175	-0.459423	0.030804
H224	H	0.733650	-0.507570	0.000033
N225	N	0.434595	-0.442606	0.000018
H226	H	0.406435	-0.462375	0.000014
H227	H	0.432881	-0.421426	0.030774
H228	H	0.083302	0.186251	0.000038
H229	H	0.412743	0.145454	0.000021
H230	H	-0.202311	0.139207	0.000047
H231	H	0.057760	-0.062462	0.000083
H232	H	-0.293777	0.138273	0.000051
N233	N	0.468556	0.163763	0.367459
H234	H	0.447579	0.184726	0.391929
H235	H	0.486896	0.185010	0.345792
H236	H	0.630595	0.001859	0.134142
H237	H	0.630630	0.001822	0.771211
H238	H	0.477317	0.155019	0.469089
