data_functionalizedCrystal
_audit_creation_method	'MofGen! by Chris Wilmer'
_symmetry_space_group_name_H-M	'P1'
_symmetry_Int_Tables_number	1
_symmetry_cell_setting	triclinic
loop_
_symmetry_equiv_pos_as_xyz
  x,y,z
_cell_length_a	18.215407
_cell_length_b	14.908520
_cell_length_c	18.215398
_cell_angle_alpha	93.271864
_cell_angle_beta	89.980536
_cell_angle_gamma	93.321174
loop_
_atom_site_label
_atom_site_type_symbol
_atom_site_fract_x
_atom_site_fract_y
_atom_site_fract_z
Zn1	Zn	1.108174	-0.359182	-0.433018
Zn2	Zn	1.358174	-0.109182	-0.183018
Zn3	Zn	1.608174	0.140818	0.066982
Zn4	Zn	1.858174	0.390818	0.316982
Zn5	Zn	1.100987	-0.510045	-0.317051
Zn6	Zn	1.350987	-0.260045	-0.067051
Zn7	Zn	1.600987	-0.010045	0.182949
Zn8	Zn	1.850987	0.239955	0.432949
Zn9	Zn	0.985106	-0.359205	-0.309967
Zn10	Zn	1.235106	-0.109205	-0.059967
Zn11	Zn	1.485106	0.140795	0.190033
Zn12	Zn	1.735106	0.390795	0.440033
Zn13	Zn	0.977978	-0.510001	-0.440074
Zn14	Zn	1.227978	-0.260001	-0.190074
Zn15	Zn	1.477978	-0.010001	0.059926
Zn16	Zn	1.727978	0.239999	0.309926
O17	O	1.043061	-0.434608	-0.375028
O18	O	1.293061	-0.184608	-0.125028
O19	O	1.543061	0.065392	0.124972
O20	O	1.793061	0.315392	0.374972
O21	O	1.210204	-0.379203	-0.417647
O22	O	1.460204	-0.129203	-0.167647
O23	O	1.710204	0.120797	0.082353
O24	O	1.960204	0.370797	0.332353
O25	O	1.085590	-0.490063	-0.213129
O26	O	1.335590	-0.240063	0.036871
O27	O	1.585590	0.009937	0.286871
O28	O	1.835590	0.259937	0.536871
O29	O	1.007422	-0.232956	-0.320372
O30	O	1.257422	0.017044	-0.070372
O31	O	1.507422	0.267044	0.179628
O32	O	1.757422	0.517044	0.429628
O33	O	1.204924	-0.490041	-0.332447
O34	O	1.454924	-0.240041	-0.082447
O35	O	1.704924	0.009959	0.167553
O36	O	1.954924	0.259959	0.417553
O37	O	1.097840	-0.232939	-0.410777
O38	O	1.347840	0.017061	-0.160777
O39	O	1.597840	0.267061	0.089223
O40	O	1.847840	0.517061	0.339223
O41	O	1.000453	-0.379242	-0.207924
O42	O	1.250453	-0.129242	0.042076
O43	O	1.500453	0.120758	0.292076
O44	O	1.750453	0.370758	0.542076
O45	O	0.881177	-0.379199	-0.327214
O46	O	1.131177	-0.129199	-0.077214
O47	O	1.381177	0.120801	0.172786
O48	O	1.631177	0.370801	0.422786
O49	O	0.995273	-0.489967	-0.542121
O50	O	1.245273	-0.239967	-0.292121
O51	O	1.495273	0.010033	-0.042121
O52	O	1.745273	0.260033	0.207879
O53	O	0.875940	-0.489989	-0.422803
O54	O	1.125940	-0.239989	-0.172803
O55	O	1.375940	0.010011	0.077197
O56	O	1.625940	0.260011	0.327197
O57	O	1.090928	-0.379160	-0.536937
O58	O	1.340928	-0.129160	-0.286937
O59	O	1.590928	0.120840	-0.036937
O60	O	1.840928	0.370840	0.213063
O61	O	1.078678	-0.636284	-0.339289
O62	O	1.328678	-0.386284	-0.089289
O63	O	1.578678	-0.136284	0.160711
O64	O	1.828678	0.113716	0.410711
O65	O	0.988304	-0.636252	-0.429673
O66	O	1.238304	-0.386252	-0.179673
O67	O	1.488304	-0.136252	0.070327
O68	O	1.738304	0.113748	0.320327
C69	C	0.851855	-0.434593	-0.375006
C70	C	1.101855	-0.184593	-0.125006
C71	C	1.351855	0.065407	0.124994
C72	C	1.601855	0.315407	0.374994
C73	C	0.770056	-0.434608	-0.375015
C74	C	1.020056	-0.184608	-0.125015
C75	C	1.270056	0.065392	0.124985
C76	C	1.520056	0.315392	0.374985
C77	C	0.579150	-0.492386	-0.424734
C78	C	0.829150	-0.242386	-0.174734
C79	C	1.079150	0.007614	0.075266
C80	C	1.329150	0.257614	0.325266
C81	C	0.502291	-0.492389	-0.424743
C82	C	0.752291	-0.242389	-0.174743
C83	C	1.002291	0.007611	0.075257
C84	C	1.252291	0.257611	0.325257
C85	C	0.507723	-0.376846	-0.325339
C86	C	0.757723	-0.126846	-0.075339
C87	C	1.007723	0.123154	0.174661
C88	C	1.257723	0.373154	0.424661
C89	C	0.584581	-0.376839	-0.325333
C90	C	0.834581	-0.126839	-0.075333
C91	C	1.084581	0.123161	0.174667
C92	C	1.334581	0.373161	0.424667
C93	C	0.620292	-0.434615	-0.375030
C94	C	0.870292	-0.184615	-0.125030
C95	C	1.120292	0.065385	0.124970
C96	C	1.370292	0.315385	0.374970
C97	C	0.466576	-0.434624	-0.375045
C98	C	0.716576	-0.184624	-0.125045
C99	C	0.966576	0.065376	0.124955
C100	C	1.216576	0.315376	0.374955
C101	C	0.383242	-0.434627	-0.375054
C102	C	0.633242	-0.184627	-0.125054
C103	C	0.883242	0.065373	0.124946
C104	C	1.133242	0.315373	0.374946
C105	C	0.703631	-0.434611	-0.375021
C106	C	0.953631	-0.184611	-0.125021
C107	C	1.203631	0.065389	0.124979
C108	C	1.453631	0.315389	0.374979
C109	C	1.031958	-0.669002	-0.386031
C110	C	1.281958	-0.419002	-0.136031
C111	C	1.531958	-0.169002	0.113969
C112	C	1.781958	0.080998	0.363969
C113	C	1.027275	-0.769277	-0.390763
C114	C	1.277275	-0.519277	-0.140763
C115	C	1.527275	-0.269277	0.109237
C116	C	1.777275	-0.019277	0.359237
C117	C	1.112679	-0.957676	-0.305614
C118	C	1.362679	-0.707676	-0.055614
C119	C	1.612679	-0.457676	0.194386
C120	C	1.862679	-0.207676	0.444386
C121	C	1.108281	-1.051893	-0.310057
C122	C	1.358281	-0.801893	-0.060057
C123	C	1.608281	-0.551893	0.189943
C124	C	1.858281	-0.301893	0.439943
C125	C	1.014087	-1.051930	-0.404098
C126	C	1.264087	-0.801930	-0.154098
C127	C	1.514087	-0.551930	0.095902
C128	C	1.764087	-0.301930	0.345902
C129	C	1.018484	-0.957713	-0.399654
C130	C	1.268484	-0.707713	-0.149654
C131	C	1.518484	-0.457713	0.100346
C132	C	1.768484	-0.207713	0.350346
C133	C	1.067781	-0.910589	-0.350409
C134	C	1.317781	-0.660589	-0.100409
C135	C	1.567781	-0.410589	0.149591
C136	C	1.817781	-0.160589	0.399591
C137	C	1.072174	-0.816371	-0.345963
C138	C	1.322174	-0.566371	-0.095963
C139	C	1.572174	-0.316371	0.154037
C140	C	1.822174	-0.066371	0.404037
C141	C	0.977984	-0.816409	-0.440006
C142	C	1.227984	-0.566409	-0.190006
C143	C	1.477984	-0.316409	0.059994
C144	C	1.727984	-0.066409	0.309994
C145	C	0.973587	-0.910626	-0.444450
C146	C	1.223587	-0.660626	-0.194450
C147	C	1.473587	-0.410626	0.055550
C148	C	1.723587	-0.160626	0.305550
C149	C	1.235013	-0.434624	-0.375050
C150	C	1.485013	-0.184624	-0.125050
C151	C	1.735013	0.065376	0.124950
C152	C	1.985013	0.315376	0.374950
C153	C	1.316812	-0.434631	-0.375060
C154	C	1.566812	-0.184631	-0.125060
C155	C	1.816812	0.065369	0.124940
C156	C	2.066812	0.315369	0.374940
C157	C	1.043107	-0.434556	-0.566978
C158	C	1.293107	-0.184556	-0.316978
C159	C	1.543107	0.065444	-0.066978
C160	C	1.793107	0.315444	0.183022
C161	C	1.043127	-0.434534	-0.648776
C162	C	1.293127	-0.184534	-0.398776
C163	C	1.543127	0.065466	-0.148776
C164	C	1.793127	0.315466	0.101224
C165	C	1.054228	-0.199299	-0.363997
C166	C	1.304228	0.050701	-0.113997
C167	C	1.554228	0.300701	0.136003
C168	C	1.804228	0.550701	0.386003
C169	C	1.058986	-0.099024	-0.359297
C170	C	1.308986	0.150976	-0.109297
C171	C	1.558986	0.400976	0.140703
C172	C	1.808986	0.650976	0.390703
C173	C	1.087496	-0.492127	-0.916543
C174	C	1.337496	-0.242127	-0.666543
C175	C	1.587496	0.007873	-0.416543
C176	C	1.837496	0.257873	-0.166543
C177	C	1.087484	-0.492159	-0.839686
C178	C	1.337484	-0.242159	-0.589686
C179	C	1.587484	0.007841	-0.339686
C180	C	1.837484	0.257841	-0.089686
C181	C	0.998821	-0.376767	-0.834250
C182	C	1.248821	-0.126767	-0.584250
C183	C	1.498821	0.123233	-0.334250
C184	C	1.748821	0.373233	-0.084250
C185	C	0.998830	-0.376740	-0.911106
C186	C	1.248830	-0.126740	-0.661106
C187	C	1.498830	0.123260	-0.411106
C188	C	1.748830	0.373260	-0.161106
C189	C	1.043172	-0.434420	-0.952251
C190	C	1.293172	-0.184420	-0.702251
C191	C	1.543172	0.065580	-0.452251
C192	C	1.793172	0.315580	-0.202251
C193	C	1.043150	-0.434477	-0.798537
C194	C	1.293150	-0.184477	-0.548537
C195	C	1.543150	0.065523	-0.298537
C196	C	1.793150	0.315523	-0.048537
C197	C	1.043136	-0.434510	-0.715205
C198	C	1.293136	-0.184510	-0.465205
C199	C	1.543136	0.065490	-0.215205
C200	C	1.793136	0.315490	0.034795
C201	C	1.043185	-0.434388	-1.035588
C202	C	1.293185	-0.184388	-0.785588
C203	C	1.543185	0.065612	-0.535588
C204	C	1.793185	0.315612	-0.285588
C205	C	1.043061	-0.434595	-0.183821
C206	C	1.293061	-0.184595	0.066179
C207	C	1.543061	0.065405	0.316179
C208	C	1.793061	0.315405	0.566179
C209	C	1.043196	-0.434362	-0.102011
C210	C	1.293196	-0.184362	0.147989
C211	C	1.543196	0.065638	0.397989
C212	C	1.793196	0.315638	0.647989
H213	H	0.478638	-0.329809	-0.284876
H214	H	0.728638	-0.079809	-0.034876
H215	H	0.978638	0.170191	0.215124
H216	H	1.228638	0.420191	0.465124
Cl217	Cl	0.943097	-0.304239	-0.782519
Cl218	Cl	1.193097	-0.054239	-0.532519
Cl219	Cl	1.443097	0.195761	-0.282519
Cl220	Cl	1.693097	0.445761	-0.032519
H221	H	0.973957	-1.090314	-0.444195
H222	H	1.223957	-0.840314	-0.194195
H223	H	1.473957	-0.590314	0.055805
H224	H	1.723957	-0.340314	0.305805
H225	H	0.618080	-0.329789	-0.284858
H226	H	0.868080	-0.079789	-0.034858
H227	H	1.118080	0.170211	0.215142
H228	H	1.368080	0.420211	0.465142
Cl229	Cl	0.943092	-0.304201	-0.955999
Cl230	Cl	1.193092	-0.054201	-0.705999
Cl231	Cl	1.443092	0.195799	-0.455999
Cl232	Cl	1.693092	0.445799	-0.205999
Cl233	Cl	0.921528	-0.757209	-0.496314
Cl234	Cl	1.171528	-0.507209	-0.246314
Cl235	Cl	1.421528	-0.257209	0.003686
Cl236	Cl	1.671528	-0.007209	0.253686
H237	H	1.123602	-0.539094	-0.950041
H238	H	1.373602	-0.289094	-0.700041
H239	H	1.623602	-0.039094	-0.450041
H240	H	1.873602	0.210906	-0.200041
H241	H	0.608224	-0.539429	-0.465202
H242	H	0.858224	-0.289429	-0.215202
H243	H	1.108224	-0.039429	0.034798
H244	H	1.358224	0.210571	0.284798
Cl245	Cl	0.450573	-0.565018	-0.487232
Cl246	Cl	0.700573	-0.315018	-0.237232
Cl247	Cl	0.950573	-0.065018	0.012768
Cl248	Cl	1.200573	0.184982	0.262768
Cl249	Cl	1.143207	-0.564710	-0.794800
Cl250	Cl	1.393207	-0.314710	-0.544800
Cl251	Cl	1.643207	-0.064710	-0.294800
Cl252	Cl	1.893207	0.185290	-0.044800
Cl253	Cl	0.911620	-0.969876	-0.506355
Cl254	Cl	1.161620	-0.719876	-0.256355
Cl255	Cl	1.411620	-0.469876	-0.006355
Cl256	Cl	1.661620	-0.219876	0.243645
H257	H	1.112312	-0.778003	-0.305863
H258	H	1.362312	-0.528003	-0.055863
H259	H	1.612312	-0.278003	0.194137
H260	H	1.862312	-0.028003	0.444137
H261	H	1.144843	-1.090228	-0.273581
H262	H	1.394843	-0.840228	-0.023581
H263	H	1.644843	-0.590228	0.226419
H264	H	1.894843	-0.340228	0.476419
Cl265	Cl	1.174639	-0.898432	-0.243698
Cl266	Cl	1.424639	-0.648432	0.006302
Cl267	Cl	1.674639	-0.398432	0.256302
Cl268	Cl	1.924639	-0.148432	0.506302
