data_functionalizedCrystal
_audit_creation_method	'MofGen! by Chris Wilmer'
_symmetry_space_group_name_H-M	'P1'
_symmetry_Int_Tables_number	1
_symmetry_cell_setting	triclinic
loop_
_symmetry_equiv_pos_as_xyz
  x,y,z
_cell_length_a	10.654562
_cell_length_b	10.654550
_cell_length_c	18.366186
_cell_angle_alpha	89.994973
_cell_angle_beta	89.988154
_cell_angle_gamma	84.487503
loop_
_atom_site_label
_atom_site_type_symbol
_atom_site_fract_x
_atom_site_fract_y
_atom_site_fract_z
O1	O	1.667840	0.176477	-0.060596
O2	O	1.302364	0.193266	-0.060586
O3	O	1.493505	0.002132	-0.060588
O4	O	1.476699	0.367610	-0.060593
O5	O	1.493472	0.002123	0.060511
O6	O	1.302331	0.193256	0.060513
O7	O	1.667807	0.176467	0.060504
Zn8	Zn	1.485064	0.184860	0.079736
Zn9	Zn	1.485107	0.184873	-0.079818
O10	O	1.476666	0.367600	0.060506
C11	C	1.255549	0.192025	-0.000035
C12	C	1.116107	0.188327	-0.000032
C13	C	1.050558	0.186596	0.065974
C14	C	0.919536	0.183131	0.065962
C15	C	0.919622	0.183133	-0.066068
C16	C	1.050643	0.186589	-0.066055
C17	C	1.050507	0.186601	0.142200
C18	C	0.919485	0.183136	0.142188
C19	C	1.492254	-0.044671	-0.000040
C20	C	1.488563	-0.184114	-0.000042
C21	C	1.601103	-0.263595	-0.000043
C22	C	1.597627	-0.394615	-0.000048
C23	C	1.369059	-0.366662	-0.000048
C24	C	1.372537	-0.235644	-0.000049
C25	C	1.733066	-0.279734	-0.000039
C26	C	1.729589	-0.410755	-0.000044
C27	C	1.714621	0.177708	-0.000049
C28	C	1.854064	0.181406	-0.000057
C29	C	1.477916	0.414403	-0.000045
C30	C	1.481608	0.553847	-0.000047
N31	N	1.485043	0.184850	0.188627
N32	N	1.485137	0.184873	-0.188709
C33	C	1.569709	0.100259	0.226726
C34	C	1.569717	0.100253	0.302954
C35	C	1.485071	0.184861	0.341079
C36	C	1.400390	0.269459	0.302971
C37	C	1.400376	0.269454	0.226744
C38	C	1.469613	0.299099	0.461838
C39	C	1.469636	0.299106	0.538063
C40	C	1.485107	0.184877	0.576187
C41	C	1.500582	0.070637	0.538076
C42	C	1.500568	0.070631	0.461850
C43	C	1.485076	0.184876	0.423734
C44	C	1.569786	0.100272	0.696941
C45	C	1.569785	0.100265	0.773171
C46	C	1.400464	0.269482	0.773186
C47	C	1.400459	0.269478	0.696958
C48	C	1.485126	0.184875	0.658840
H49	H	0.889890	0.091540	0.165842
Cl50	Cl	1.812773	-0.234387	-0.078279
H51	H	1.513165	-0.022387	0.430823
H52	H	1.274594	-0.408635	-0.000054
H53	H	1.775073	-0.244110	0.052248
H54	H	1.080075	0.278195	0.165850
Cl55	Cl	1.294043	0.375837	0.821110
Cl56	Cl	0.837317	0.180934	-0.149063
H57	H	1.769484	-0.456392	-0.052333
Cl58	Cl	1.676223	-0.006095	0.821070
H59	H	1.331521	0.338366	0.665935
H60	H	1.331429	0.338340	0.195723
H61	H	0.873191	0.269930	0.171450
H62	H	1.280895	-0.170935	-0.000058
H63	H	1.779297	-0.452517	0.050633
Cl64	Cl	1.676139	-0.006104	0.178807
Cl65	Cl	1.676165	-0.006099	0.350858
H66	H	1.457043	0.392127	0.569087
H67	H	1.513180	-0.022379	0.569115
H68	H	1.638724	0.031379	0.665905
H69	H	1.331468	0.338346	0.334016
Cl70	Cl	1.133047	0.188736	-0.149037
Cl71	Cl	1.450279	0.442720	0.413920
H72	H	1.096759	0.099805	0.171473
