data_functionalizedCrystal
_audit_creation_method	'MofGen! by Chris Wilmer'
_symmetry_space_group_name_H-M	'P1'
_symmetry_Int_Tables_number	1
_symmetry_cell_setting	triclinic
loop_
_symmetry_equiv_pos_as_xyz
  x,y,z
_cell_length_a	14.044220
_cell_length_b	15.538191
_cell_length_c	14.750779
_cell_angle_alpha	82.430615
_cell_angle_beta	103.820493
_cell_angle_gamma	70.230486
loop_
_atom_site_label
_atom_site_type_symbol
_atom_site_fract_x
_atom_site_fract_y
_atom_site_fract_z
O1	O	1.154971	0.238882	-0.079714
O2	O	0.881734	0.230923	-0.079739
O3	O	1.071539	0.102242	-0.079726
O4	O	0.965166	0.367563	-0.079727
O5	O	1.125193	0.065870	0.079928
O6	O	0.935388	0.194551	0.079915
O7	O	1.208625	0.202510	0.079940
Zn8	Zn	1.080525	0.192755	0.105276
Zn9	Zn	1.009834	0.240677	-0.105075
O10	O	1.018820	0.331191	0.079927
C11	C	1.109494	0.049896	0.000099
C12	C	1.142643	-0.051890	0.000092
C13	C	0.874445	0.209251	0.000085
C14	C	0.772794	0.198854	0.000075
C15	C	0.813296	-0.367353	0.000083
C16	C	0.844471	-0.463001	0.000088
C17	C	1.019819	-0.470713	0.000103
C18	C	0.988657	-0.375063	0.000094
C19	C	0.885395	-0.323391	0.000085
C20	C	1.060756	-0.331101	0.000095
C21	C	1.029598	-0.235461	0.000091
C22	C	0.926341	-0.183783	0.000085
C23	C	0.854237	-0.227751	0.000080
C24	C	1.164020	-0.382777	0.000111
C25	C	1.236119	-0.338815	0.000113
C26	C	1.204959	-0.243171	0.000101
C27	C	1.101702	-0.191493	0.000095
C28	C	1.277063	-0.199203	0.000106
C29	C	1.245905	-0.103563	0.000101
C30	C	1.070544	-0.095853	0.000091
C31	C	0.586680	0.179836	0.000095
C32	C	0.503671	0.253594	0.000098
C33	C	0.400111	0.243013	0.000109
C34	C	0.690251	0.190416	0.000084
C35	C	1.215913	0.224182	0.000114
C36	C	1.317562	0.234581	0.000118
C37	C	0.980864	0.383537	0.000101
C38	C	0.947713	0.485325	0.000101
N39	N	1.128777	0.160050	0.248835
N40	N	0.961591	0.273376	-0.248634
C41	C	0.826844	0.364677	0.600633
C42	C	0.860661	0.341766	0.701135
C43	C	1.028743	0.227867	0.701108
C44	C	0.994939	0.250766	0.600605
C45	C	0.893989	0.319172	0.550375
C46	C	1.062083	0.205260	0.550347
C47	C	1.028283	0.228161	0.449852
C48	C	0.927338	0.296566	0.399616
C49	C	0.860189	0.342072	0.449881
C50	C	1.163035	0.136859	0.600579
C51	C	1.230180	0.091354	0.550321
C52	C	1.196377	0.114249	0.449824
C53	C	1.095433	0.182655	0.399588
C54	C	1.263527	0.068743	0.399559
C55	C	1.229727	0.091644	0.299065
C56	C	1.061633	0.205555	0.299093
H57	H	0.986455	-0.053776	0.000076
C58	C	0.950557	0.280766	0.243835
N59	N	0.866892	0.337401	0.202214
H60	H	1.312376	0.035659	0.591229
H61	H	1.189383	-0.460651	0.000106
H62	H	0.777981	0.397769	0.408982
H63	H	1.361143	-0.241291	0.000123
C64	C	1.325216	-0.055200	0.000098
N65	N	1.384956	-0.018774	0.000097
H66	H	0.899822	0.315214	0.317787
H67	H	0.510381	0.324687	0.000094
C68	C	0.577612	0.083801	0.000093
N69	N	0.570769	0.011468	0.000086
C70	C	0.715769	0.439888	0.545375
N71	N	0.632104	0.496523	0.503754
H72	H	0.805975	0.378829	0.742050
C73	C	1.133405	-0.527563	0.000112
N74	N	1.218958	-0.570381	0.000116
C75	C	1.303588	0.041583	0.243778
N76	N	1.359223	0.003877	0.202136
C77	C	1.374571	-0.006498	0.454826
N78	N	1.458211	-0.063172	0.496452
C79	C	1.139784	0.152619	0.756372
N80	N	1.223420	0.095937	0.797996
H81	H	1.190553	0.118220	0.682408
H82	H	0.900976	-0.105908	0.000086
H83	H	1.320197	-0.380900	0.000124
C84	C	0.699701	-0.310508	0.000072
N85	N	0.614147	-0.267693	0.000068
C86	C	0.740642	-0.170905	0.000069
N87	N	0.655087	-0.128090	0.000065
H88	H	0.785756	-0.498794	0.000101
