data_functionalizedCrystal
_audit_creation_method	'MofGen! by Chris Wilmer'
_symmetry_space_group_name_H-M	'P1'
_symmetry_Int_Tables_number	1
_symmetry_cell_setting	triclinic
loop_
_symmetry_equiv_pos_as_xyz
  x,y,z
_cell_length_a	10.654550
_cell_length_b	14.044220
_cell_length_c	9.730223
_cell_angle_alpha	89.997406
_cell_angle_beta	89.996251
_cell_angle_gamma	88.836890
loop_
_atom_site_label
_atom_site_type_symbol
_atom_site_fract_x
_atom_site_fract_y
_atom_site_fract_z
O1	O	1.681222	0.133227	-0.114408
O2	O	1.317019	0.145921	-0.114387
O3	O	1.493654	0.001554	-0.114384
O4	O	1.504587	0.277595	-0.114411
O5	O	1.493652	0.001557	0.114196
O6	O	1.317017	0.145925	0.114193
O7	O	1.681220	0.133231	0.114172
Zn8	Zn	1.499118	0.139578	0.150474
Zn9	Zn	1.499121	0.139574	-0.150689
O10	O	1.504585	0.277598	0.114169
C11	C	1.270127	0.144991	-0.000094
C12	C	1.130403	0.142202	-0.000085
C13	C	1.059459	0.227203	-0.000114
C14	C	0.928175	0.224578	-0.000137
C15	C	0.938790	0.051942	-0.000109
C16	C	1.070072	0.054569	-0.000076
C17	C	1.053329	0.326873	-0.000136
C18	C	0.922045	0.324247	-0.000159
C19	C	1.488867	-0.033790	-0.000093
C20	C	1.474592	-0.139110	-0.000090
C21	C	1.448493	-0.331943	-0.000108
C22	C	1.549741	-0.388911	-0.000119
C23	C	1.535219	-0.496210	-0.000129
C24	C	1.463013	-0.224634	-0.000098
C25	C	1.728113	0.134161	-0.000124
C26	C	1.867836	0.136950	-0.000142
C27	C	1.509372	0.312942	-0.000125
C28	C	1.523648	0.418262	-0.000137
N29	N	1.499126	0.139581	0.356011
N30	N	1.499123	0.139563	-0.356226
C31	C	1.577364	0.075677	0.427938
C32	C	1.577359	0.075666	0.571821
C33	C	1.420876	0.203470	0.571837
C34	C	1.420875	0.203477	0.427956
C35	C	1.667713	0.001893	0.427931
C36	C	1.667708	0.001881	0.571814
H37	H	0.889652	-0.019406	-0.000123
H38	H	1.127830	-0.014647	-0.000033
H39	H	0.879400	0.354370	0.098522
H40	H	1.357165	0.255492	0.630430
C41	C	1.098254	0.379543	0.129079
H42	H	1.027641	0.399412	0.182208
H43	H	1.144477	0.433666	0.102500
H44	H	1.150345	0.338034	0.182258
H45	H	0.884087	0.361800	-0.095831
H46	H	1.761218	0.024996	0.383296
C47	C	1.617158	-0.091197	0.632109
H48	H	1.594654	-0.132641	0.559397
H49	H	1.545419	-0.077267	0.687069
H50	H	1.680235	-0.121114	0.687045
H51	H	1.350913	-0.363754	-0.000106
C52	C	1.105816	0.369752	-0.133445
H53	H	1.038343	0.387034	-0.192831
H54	H	1.158842	0.324032	-0.177724
H55	H	1.152629	0.424659	-0.112021
C56	C	1.334822	0.273773	0.348834
H57	H	1.346023	0.264626	0.252839
H58	H	1.355559	0.337175	0.372422
H59	H	1.249788	0.262877	0.372413
C60	C	1.681573	-0.345941	-0.000096
H61	H	1.674169	-0.278415	-0.000072
H62	H	1.725957	-0.366433	-0.079801
H63	H	1.725917	-0.366453	0.079631
H64	H	1.638943	-0.071017	0.388885
C65	C	1.800284	0.023839	0.624568
H66	H	1.854807	0.032887	0.548626
H67	H	1.830826	-0.027883	0.678798
H68	H	1.797005	0.080077	0.678810
