data_functionalizedCrystal
_audit_creation_method	'MofGen! by Chris Wilmer'
_symmetry_space_group_name_H-M	'P1'
_symmetry_Int_Tables_number	1
_symmetry_cell_setting	triclinic
loop_
_symmetry_equiv_pos_as_xyz
  x,y,z
_cell_length_a	12.759401
_cell_length_b	12.759400
_cell_length_c	12.759393
_cell_angle_alpha	89.969510
_cell_angle_beta	89.980324
_cell_angle_gamma	90.015111
loop_
_atom_site_label
_atom_site_type_symbol
_atom_site_fract_x
_atom_site_fract_y
_atom_site_fract_z
Zn1	Zn	1.606266	-0.418204	-0.593985
Zn2	Zn	1.606158	-0.593919	-0.418305
Zn3	Zn	1.430565	-0.418256	-0.418324
Zn4	Zn	1.430557	-0.593842	-0.593946
O5	O	1.518387	-0.506055	-0.506140
O6	O	1.753273	-0.441523	-0.570689
O7	O	1.582823	-0.570671	-0.271286
O8	O	1.453921	-0.271228	-0.441650
O9	O	1.753193	-0.570620	-0.441618
O10	O	1.583008	-0.271189	-0.570707
O11	O	1.453816	-0.441612	-0.271300
O12	O	1.283543	-0.441538	-0.441612
O13	O	1.453908	-0.570489	-0.740972
O14	O	1.283537	-0.570540	-0.570641
O15	O	1.583000	-0.441448	-0.741001
O16	O	1.582815	-0.740930	-0.441580
O17	O	1.453802	-0.740874	-0.570623
C18	C	1.245419	-0.506037	-0.506125
C19	C	1.128643	-0.506055	-0.506144
C20	C	1.073823	-0.438955	-0.573455
C21	C	0.964099	-0.438966	-0.573462
C22	C	0.964024	-0.573185	-0.438844
C23	C	1.073746	-0.573168	-0.438832
C24	C	1.518324	-0.779023	-0.506118
C25	C	1.518394	-0.895799	-0.506144
C26	C	1.585645	-0.950656	-0.439025
C27	C	1.585710	-1.060380	-0.439058
C28	C	1.451262	-1.060381	-0.573330
C29	C	1.451204	-0.950659	-0.573302
C30	C	1.652835	-0.895796	-0.371867
C31	C	1.720091	-0.950652	-0.304743
C32	C	1.720156	-1.060376	-0.304775
C33	C	1.652964	-1.115244	-0.371932
C34	C	1.792420	-0.506074	-0.506155
C35	C	1.909196	-0.506082	-0.506162
C36	C	1.518465	-0.505954	-0.780173
C37	C	1.518499	-0.505911	-0.896950
C38	C	1.518478	-0.232022	-0.506185
C39	C	1.518517	-0.115245	-0.506204
C40	C	1.585722	-0.438709	-0.951829
C41	C	1.585740	-0.438664	-1.061553
C42	C	1.451308	-0.573032	-1.061510
C43	C	1.451285	-0.573072	-0.951788
C44	C	1.518369	-0.506080	-0.233172
C45	C	1.518539	-0.505827	-0.116396
H46	H	1.652787	-0.806453	-0.371830
C47	C	1.378166	-0.645866	-0.892143
C48	C	1.310819	-0.586390	-0.829174
C49	C	1.243439	-0.653404	-0.774225
H50	H	1.418209	-0.691681	-0.849250
H51	H	1.338083	-0.685845	-0.940482
H52	H	1.350897	-0.546429	-0.780840
H53	H	1.270753	-0.540578	-0.872040
H54	H	1.203357	-0.693383	-0.822564
H55	H	1.283491	-0.699216	-0.731338
H56	H	1.197730	-0.613059	-0.731501
C57	C	1.378256	-0.891221	-0.646345
C58	C	1.401085	-0.917830	-0.750318
C59	C	1.333905	-0.863104	-0.817641
H60	H	1.387787	-0.818003	-0.636852
H61	H	1.307660	-0.909284	-0.630986
H62	H	1.471664	-0.899760	-0.765672
H63	H	1.391547	-0.991038	-0.759845
H64	H	1.263309	-0.881167	-0.802281
H65	H	1.343441	-0.789889	-0.808138
H66	H	1.349379	-0.881158	-0.888193
C67	C	0.904476	-0.645928	-0.365600
C68	C	0.931098	-0.622907	-0.261684
C69	C	0.876256	-0.689892	-0.194184
H70	H	0.922416	-0.716570	-0.380714
H71	H	0.831267	-0.636324	-0.375176
H72	H	1.004290	-0.632519	-0.252112
H73	H	0.913155	-0.552277	-0.246537
H74	H	0.803047	-0.680288	-0.203761
H75	H	0.894200	-0.760530	-0.209308
H76	H	0.894304	-0.674275	-0.123670
H77	H	1.118517	-0.384304	-0.628261
C78	C	1.133462	-0.645912	-0.365789
C79	C	1.241301	-0.631509	-0.380167
C80	C	1.296344	-0.698485	-0.312890
H81	H	1.115610	-0.716567	-0.380976
H82	H	1.115513	-0.630444	-0.295204
H83	H	1.259243	-0.646984	-0.450736
H84	H	1.259185	-0.560867	-0.364972
H85	H	1.278395	-0.683017	-0.242304
H86	H	1.278483	-0.769137	-0.328083
H87	H	1.369518	-0.688715	-0.322629
C88	C	0.904770	-0.366077	-0.646661
C89	C	0.976335	-0.307321	-0.705621
C90	C	0.921721	-0.240171	-0.773075
H91	H	0.861953	-0.320161	-0.606675
H92	H	0.862004	-0.406306	-0.692427
H93	H	1.019083	-0.267095	-0.659861
H94	H	1.019154	-0.353209	-0.745628
H95	H	0.878955	-0.280400	-0.818841
H96	H	0.878905	-0.194263	-0.733080
H97	H	0.970269	-0.200305	-0.813094
C98	C	1.658609	-0.365736	-1.121324
C99	C	1.644223	-0.380047	-1.229153
C100	C	1.711320	-0.312868	-1.284246
H101	H	1.729235	-0.381056	-1.103482
H102	H	1.643241	-0.295130	-1.103406
H103	H	1.659598	-0.450637	-1.247064
H104	H	1.573611	-0.364720	-1.247026
H105	H	1.695952	-0.242262	-1.266328
H106	H	1.781942	-0.328193	-1.266395
H107	H	1.701561	-0.322562	-1.357413
C108	C	1.792979	-0.891221	-0.231664
C109	C	1.770186	-0.918038	-0.127705
C110	C	1.837319	-0.863323	-0.060356
H111	H	1.783375	-0.818002	-0.241112
H112	H	1.863591	-0.909152	-0.247041
H113	H	1.699591	-0.900100	-0.112334
H114	H	1.779796	-0.991248	-0.118224
H115	H	1.907930	-0.881254	-0.075732
H116	H	1.827709	-0.790107	-0.069813
H117	H	1.821869	-0.881518	0.010187
H118	H	1.396587	-0.627714	-1.106173
H119	H	1.774926	-1.105038	-0.250127
H120	H	1.653031	-1.204589	-0.371961
C121	C	1.378479	-1.120083	-0.646292
C122	C	1.437964	-1.182997	-0.713679
C123	C	1.370948	-1.238018	-0.780895
H124	H	1.338392	-1.071818	-0.686364
H125	H	1.332763	-1.163013	-0.606100
H126	H	1.483661	-1.140071	-0.753868
H127	H	1.478048	-1.231281	-0.673636
H128	H	1.325232	-1.280948	-0.740702
H129	H	1.330864	-1.189746	-0.820959
H130	H	1.411298	-1.280719	-0.826618
C131	C	1.658556	-0.365609	-0.892347
C132	C	1.635696	-0.261649	-0.919035
C133	C	1.702758	-0.194274	-0.864255
H134	H	1.729183	-0.380842	-0.910292
H135	H	1.648911	-0.375183	-0.819129
H136	H	1.645350	-0.252080	-0.992236
H137	H	1.565081	-0.246383	-0.901086
H138	H	1.693113	-0.203848	-0.791038
H139	H	1.773381	-0.209517	-0.882205
H140	H	1.687250	-0.123730	-0.882348
