data_functionalizedCrystal
_audit_creation_method	'MofGen! by Chris Wilmer'
_symmetry_space_group_name_H-M	'P1'
_symmetry_Int_Tables_number	1
_symmetry_cell_setting	triclinic
loop_
_symmetry_equiv_pos_as_xyz
  x,y,z
_cell_length_a	21.395362
_cell_length_b	19.076808
_cell_length_c	21.395355
_cell_angle_alpha	87.682564
_cell_angle_beta	89.956060
_cell_angle_gamma	92.338508
loop_
_atom_site_label
_atom_site_type_symbol
_atom_site_fract_x
_atom_site_fract_y
_atom_site_fract_z
Zn1	Zn	0.947868	-0.280001	-0.344563
Zn2	Zn	0.943570	-0.397688	-0.235573
Zn3	Zn	0.843081	-0.280034	-0.239763
Zn4	Zn	0.838852	-0.397702	-0.340278
O5	O	0.893343	-0.338856	-0.290044
O6	O	1.034976	-0.295593	-0.330146
O7	O	0.930212	-0.382088	-0.148451
O8	O	0.860550	-0.181533	-0.257213
O9	O	1.031819	-0.382056	-0.250071
O10	O	0.937536	-0.181508	-0.334209
O11	O	0.856383	-0.295648	-0.151529
O12	O	0.754842	-0.295662	-0.253057
O13	O	0.853341	-0.382081	-0.428524
O14	O	0.751734	-0.382113	-0.326904
O15	O	0.933435	-0.295607	-0.431673
O16	O	0.926111	-0.496186	-0.245916
O17	O	0.849174	-0.496197	-0.322841
C18	C	0.730554	-0.338893	-0.289970
C19	C	0.660911	-0.338926	-0.289953
C20	C	0.886734	-0.521731	-0.283472
C21	C	0.883964	-0.599965	-0.280682
C22	C	0.626594	-0.384001	-0.328343
C23	C	0.561159	-0.383983	-0.328372
C24	C	0.530044	-0.338899	-0.289999
C25	C	0.564369	-0.293816	-0.251606
C26	C	0.629803	-0.293829	-0.251583
C27	C	0.426522	-0.333229	-0.233796
C28	C	0.361089	-0.333220	-0.233818
C29	C	0.328225	-0.338853	-0.290069
C30	C	0.360801	-0.344510	-0.346301
C31	C	0.426235	-0.344523	-0.346278
C32	C	0.459092	-0.338879	-0.290019
C33	C	0.222956	-0.383911	-0.328494
C34	C	0.157520	-0.383889	-0.328524
C35	C	0.160731	-0.293725	-0.251752
C36	C	0.226166	-0.293744	-0.251728
C37	C	0.257274	-0.338841	-0.290098
C38	C	0.922715	-0.636647	-0.319491
C39	C	0.920110	-0.710157	-0.316870
C40	C	0.878757	-0.746983	-0.275436
C41	C	0.840001	-0.710296	-0.236625
C42	C	0.842604	-0.636788	-0.239250
C43	C	0.866676	-0.966837	-0.263287
C44	C	0.864078	-1.040351	-0.260664
C45	C	0.944186	-1.040206	-0.340910
C46	C	0.946787	-0.966696	-0.343528
C47	C	0.908030	-0.930016	-0.304720
N48	N	0.876094	-0.822122	-0.272755
N49	N	0.910689	-0.854879	-0.307405
C50	C	1.056767	-0.338819	-0.290119
C51	C	1.126409	-0.338803	-0.290151
C52	C	0.893395	-0.338842	-0.453468
C53	C	0.893418	-0.338836	-0.523110
C54	C	0.899994	-0.155267	-0.296656
C55	C	0.902829	-0.077033	-0.299473
C56	C	0.935121	-0.293807	-0.557464
C57	C	0.935121	-0.293776	-0.622900
C58	C	0.893424	-0.338788	-0.653980
C59	C	0.851713	-0.383820	-0.619618
C60	C	0.851710	-0.383844	-0.554183
C61	C	0.886187	-0.402166	-0.755375
C62	C	0.886194	-0.402143	-0.820809
C63	C	0.893431	-0.338713	-0.855803
C64	C	0.900673	-0.275304	-0.825356
C65	C	0.900670	-0.275328	-0.759921
C66	C	0.893423	-0.338766	-0.724933
C67	C	0.935136	-0.293648	-0.961111
C68	C	0.935132	-0.293616	-1.026549
C69	C	0.851728	-0.383666	-1.023265
C70	C	0.851729	-0.383691	-0.957829
C71	C	0.893436	-0.338683	-0.926756
C72	C	0.893328	-0.338819	-0.127258
C73	C	0.893434	-0.338627	-0.057624
H74	H	0.651919	-0.420721	-0.359588
H75	H	0.334045	-0.349095	-0.392106
F76	F	0.985430	-1.079249	-0.382211
H77	H	0.539031	-0.257107	-0.220364
F78	F	0.801359	-0.597749	-0.197945
H79	H	0.969082	-0.257156	-0.532168
H80	H	0.806328	-0.740287	-0.202892
F81	F	0.878498	-0.469683	-0.718138
F82	F	0.908374	-0.207846	-0.727519
H83	H	0.453274	-0.328639	-0.187987
H84	H	0.657744	-0.257122	-0.220321
H85	H	0.817771	-0.420308	-1.048570
F86	F	0.256066	-0.431903	-0.369333
H87	H	0.880301	-0.453775	-0.845594
H88	H	0.817762	-0.420466	-0.644928
H89	H	0.951670	-0.740020	-0.348467
F90	F	0.990801	-0.927508	-0.387628
H91	H	0.956393	-0.606668	-0.353228
H92	H	0.830399	-1.070333	-0.226924
H93	H	0.817747	-0.420511	-0.526213
H94	H	0.969079	-0.257104	-0.650876
H95	H	0.334570	-0.328619	-0.188031
H96	H	0.835119	-0.936978	-0.231687
H97	H	0.817773	-0.420363	-0.929858
F98	F	0.908377	-0.207793	-0.862594
F99	F	0.524629	-0.431959	-0.369234
F100	F	0.979522	-0.245744	-0.928038
H101	H	0.452756	-0.349127	-0.392063
F102	F	0.120998	-0.431862	-0.369390
H103	H	0.135398	-0.257014	-0.220511
F104	F	0.262690	-0.245771	-0.210866
F105	F	0.979528	-0.245695	-1.063110
