data_functionalizedCrystal
_audit_creation_method	'MofGen! by Chris Wilmer'
_symmetry_space_group_name_H-M	'P1'
_symmetry_Int_Tables_number	1
_symmetry_cell_setting	triclinic
loop_
_symmetry_equiv_pos_as_xyz
  x,y,z
_cell_length_a	9.065215
_cell_length_b	8.559649
_cell_length_c	7.540329
_cell_angle_alpha	89.998238
_cell_angle_beta	89.997574
_cell_angle_gamma	77.396681
loop_
_atom_site_label
_atom_site_type_symbol
_atom_site_fract_x
_atom_site_fract_y
_atom_site_fract_z
O1	O	1.931011	0.233881	-0.147453
O2	O	1.499315	0.253072	-0.147460
O3	O	1.753196	0.011424	-0.147454
O4	O	1.677130	0.475528	-0.147459
O5	O	1.753183	0.011421	0.147511
O6	O	1.499301	0.253068	0.147505
O7	O	1.930998	0.233878	0.147512
Cu8	Cu	1.715149	0.243473	0.174441
Cu9	Cu	1.715164	0.243477	-0.174389
O10	O	1.677117	0.475525	0.147506
C11	C	1.444553	0.251227	0.000022
C12	C	1.281402	0.245715	0.000019
C13	C	1.758954	-0.048024	0.000026
C14	C	1.776112	-0.225156	0.000016
C15	C	1.985760	0.235723	0.000027
C16	C	2.148910	0.241234	0.000018
C17	C	1.671359	0.534973	0.000023
C18	C	1.654200	0.712105	0.000021
N19	N	1.715149	0.243469	0.419790
N20	N	1.715177	0.243468	-0.419737
H21	H	1.536699	-0.206097	0.000025
H22	H	1.893621	-0.306962	0.000032
