data_functionalizedCrystal
_audit_creation_method	'MofGen! by Chris Wilmer'
_symmetry_space_group_name_H-M	'P1'
_symmetry_Int_Tables_number	1
_symmetry_cell_setting	triclinic
loop_
_symmetry_equiv_pos_as_xyz
  x,y,z
_cell_length_a	29.839131
_cell_length_b	12.759401
_cell_length_c	12.759393
_cell_angle_alpha	90.020588
_cell_angle_beta	89.962110
_cell_angle_gamma	89.960491
loop_
_atom_site_label
_atom_site_type_symbol
_atom_site_fract_x
_atom_site_fract_y
_atom_site_fract_z
Zn1	Zn	-0.178850	-1.606060	-0.593994
Zn2	Zn	-0.253988	-1.605873	-0.418294
Zn3	Zn	-0.178871	-1.430362	-0.418327
Zn4	Zn	-0.253951	-1.430269	-0.593929
O5	O	-0.216415	-1.518141	-0.506136
O6	O	-0.188824	-1.753056	-0.570700
O7	O	-0.244048	-1.582551	-0.271278
O8	O	-0.116001	-1.453787	-0.441670
O9	O	-0.244028	-1.752919	-0.441615
O10	O	-0.115985	-1.582871	-0.570731
O11	O	-0.188859	-1.453605	-0.271301
O12	O	-0.188823	-1.283329	-0.441607
O13	O	-0.243964	-1.453628	-0.740959
O14	O	-0.243984	-1.283260	-0.570622
O15	O	-0.188788	-1.582781	-0.741006
O16	O	-0.316850	-1.582461	-0.441552
O17	O	-0.316823	-1.453446	-0.570591
C18	C	-0.216402	-1.245174	-0.506112
C19	C	-0.216408	-1.128397	-0.506126
C20	C	-0.245179	-0.963802	-0.573213
C21	C	-0.245175	-1.073526	-0.573199
C22	C	-0.187647	-1.073538	-0.439057
C23	C	-0.187653	-0.963816	-0.439067
C24	C	-0.273944	-0.908937	-0.640298
C25	C	-0.302706	-0.963788	-0.707366
C26	C	-0.302702	-1.073512	-0.707351
C27	C	-0.273936	-1.128385	-0.640268
C28	C	-0.333137	-1.517951	-0.506084
C29	C	-0.383072	-1.517966	-0.506097
C30	C	-0.692717	-1.585441	-0.439044
C31	C	-0.880390	-1.585571	-0.439085
O32	O	-0.904656	-1.642790	-0.382034
N33	N	-0.903857	-1.518359	-0.506215
C34	C	-0.880403	-1.451114	-0.573345
O35	O	-0.904669	-1.393957	-0.630452
C36	C	-0.692731	-1.450991	-0.573309
C37	C	-0.669266	-1.518200	-0.506167
C38	C	-0.669252	-1.652646	-0.371908
C39	C	-0.622337	-1.652609	-0.371894
C40	C	-0.598886	-1.585367	-0.439017
C41	C	-0.622351	-1.518163	-0.506153
C42	C	-0.669277	-1.383752	-0.640444
C43	C	-0.622356	-1.383729	-0.640430
C44	C	-0.598892	-1.450938	-0.573288
C45	C	-0.551984	-1.450884	-0.573262
N46	N	-0.528517	-1.518096	-0.506132
C47	C	-0.551968	-1.585338	-0.439009
C48	C	-0.978933	-1.451183	-0.573358
C49	C	-1.025851	-1.451212	-0.573366
C50	C	-1.025835	-1.585670	-0.439107
C51	C	-0.978916	-1.585635	-0.439094
C52	C	-0.955466	-1.518395	-0.506228
C53	C	-0.453442	-1.585254	-0.438985
C54	C	-0.406523	-1.585208	-0.438974
C55	C	-0.406543	-1.450754	-0.573237
C56	C	-0.453458	-1.450796	-0.573244
C57	C	-0.476907	-1.518054	-0.506115
O58	O	-0.527689	-1.393703	-0.630291
O59	O	-0.527694	-1.642503	-0.381927
C60	C	-0.739632	-1.585479	-0.439058
C61	C	-0.763097	-1.518274	-0.506194
C62	C	-0.739646	-1.451033	-0.573316
C63	C	-0.810015	-1.518304	-0.506202
C64	C	-0.833466	-1.585545	-0.439079
C65	C	-0.809999	-1.652757	-0.371949
C66	C	-0.763083	-1.652720	-0.371935
C67	C	-0.763113	-1.383820	-0.640447
C68	C	-0.810029	-1.383862	-0.640454
C69	C	-0.833479	-1.451104	-0.573331
C70	C	-0.099236	-1.518360	-0.506211
C71	C	-0.049302	-1.518454	-0.506243
C72	C	-0.216370	-1.518215	-0.780170
C73	C	-0.216350	-1.518246	-0.896946
C74	C	-0.216424	-0.792174	-0.506156
C75	C	-0.216419	-0.908951	-0.506152
C76	C	-0.187617	-1.585505	-0.951835
C77	C	-0.187601	-1.585530	-1.061559
C78	C	-0.245055	-1.451034	-1.061497
C79	C	-0.245068	-1.451004	-0.951774
C80	C	-0.158899	-1.652747	-0.897006
C81	C	-0.130164	-1.720013	-0.951895
C82	C	-0.130147	-1.720038	-1.061619
C83	C	-0.158866	-1.652797	-1.116455
C84	C	-0.216428	-1.518128	-0.233169
C85	C	-0.216320	-1.518301	-0.116393
H86	H	-0.164232	-0.919155	-0.384465
N87	N	-0.953610	-1.658127	-0.366681
H88	H	-0.975590	-1.700724	-0.324163
H89	H	-0.934112	-1.706716	-0.409488
N90	N	-0.158919	-1.652710	-0.778663
H91	H	-0.167188	-1.724756	-0.752232
H92	H	-0.128097	-1.633409	-0.752334
H93	H	-0.326124	-1.118169	-0.761954
H94	H	-0.158846	-1.652811	-1.205800
N95	N	-0.273935	-1.246730	-0.640239
H96	H	-0.296521	-1.273155	-0.692898
H97	H	-0.243110	-1.273131	-0.659646
H98	H	-0.164226	-1.118225	-0.384443
N99	N	-0.276058	-1.378461	-0.892564
H100	H	-0.294251	-1.335874	-0.943945
H101	H	-0.296855	-1.421177	-0.847024
H102	H	-0.688341	-1.707408	-0.317248
N103	N	-0.276034	-1.378530	-1.120639
H104	H	-0.294239	-1.335916	-1.069217
H105	H	-0.257740	-1.329957	-1.166178
N106	N	-0.381215	-1.657703	-0.366556
H107	H	-0.403193	-1.700308	-0.324043
H108	H	-0.361714	-1.706284	-0.409364
H109	H	-1.044937	-1.640421	-0.384453
H110	H	-1.044952	-1.396474	-0.628030
N111	N	-0.478729	-1.657796	-0.366584
H112	H	-0.456740	-1.700357	-0.324056
H113	H	-0.498230	-1.615073	-0.317927
H114	H	-0.106779	-1.774751	-0.907240
H115	H	-0.603266	-1.328975	-0.695102
H116	H	-0.959843	-1.396425	-0.628028
N117	N	-0.273951	-0.790593	-0.640307
H118	H	-0.296538	-0.764157	-0.692976
H119	H	-0.282164	-0.764210	-0.568167
N120	N	-0.694578	-1.311256	-0.712857
H121	H	-0.672596	-1.268664	-0.755373
H122	H	-0.714011	-1.354005	-0.761525
H123	H	-0.603235	-1.707339	-0.317224
H124	H	-0.387442	-1.396003	-0.627884
N125	N	-0.333736	-0.904612	-0.779706
H126	H	-0.329375	-0.826779	-0.769541
H127	H	-0.326781	-0.923837	-0.854768
H128	H	-0.472564	-1.396072	-0.627920
N129	N	-0.737778	-1.725217	-0.299523
H130	H	-0.759759	-1.767816	-0.257012
H131	H	-0.718279	-1.773803	-0.342331
N132	N	-0.099158	-1.792588	-1.120819
H133	H	-0.103505	-1.782405	-1.198648
H134	H	-0.067074	-1.776299	-1.101664
H135	H	-0.829100	-1.707505	-0.317292
H136	H	-0.829129	-1.329123	-0.695129
H137	H	-0.744023	-1.329065	-0.695108
