data_functionalizedCrystal
_audit_creation_method	'MofGen! by Chris Wilmer'
_symmetry_space_group_name_H-M	'P1'
_symmetry_Int_Tables_number	1
_symmetry_cell_setting	triclinic
loop_
_symmetry_equiv_pos_as_xyz
  x,y,z
_cell_length_a	15.995350
_cell_length_b	9.730223
_cell_length_c	10.654551
_cell_angle_alpha	90.002469
_cell_angle_beta	83.988868
_cell_angle_gamma	89.997045
loop_
_atom_site_label
_atom_site_type_symbol
_atom_site_fract_x
_atom_site_fract_y
_atom_site_fract_z
O1	O	1.111921	0.114165	0.161875
O2	O	0.868262	0.114192	0.181864
O3	O	0.995693	0.114178	-0.010943
O4	O	0.984490	0.114178	0.354682
O5	O	0.995692	-0.114402	-0.010953
O6	O	0.868260	-0.114388	0.181854
O7	O	1.111920	-0.114415	0.161865
Zn8	Zn	0.990090	-0.150694	0.171858
Zn9	Zn	0.990092	0.150470	0.171871
O10	O	0.984488	-0.114402	0.354672
C11	C	0.837062	-0.000094	0.181033
C12	C	0.744097	-0.000084	0.178555
N13	N	0.990094	-0.356230	0.171849
C14	C	0.994870	-0.000108	-0.057735
C15	C	0.992408	-0.000099	-0.197146
C16	C	0.406298	-0.000112	0.169658
C17	C	0.452934	-0.000622	0.032344
C18	C	0.549639	-0.000097	0.034822
C19	C	0.573884	-0.000099	0.174071
C20	C	0.533191	0.130426	0.241804
C21	C	0.436535	0.130526	0.238355
C22	C	0.436211	-0.129413	0.241181
C23	C	0.533156	-0.131128	0.241148
C24	C	0.668596	-0.000087	0.176573
C25	C	0.311585	-0.000115	0.167160
C26	C	1.143120	-0.000126	0.162696
C27	C	1.236085	-0.000128	0.165174
N28	N	0.990094	0.356007	0.171870
C29	C	1.046626	0.427927	0.086660
C30	C	1.046629	0.571810	0.086652
C31	C	0.933559	0.571840	0.257068
C32	C	0.933561	0.427960	0.257081
C33	C	1.103159	0.355974	0.001449
C34	C	1.159696	0.427894	-0.083768
C35	C	1.159698	0.571777	-0.083776
C36	C	1.103164	0.643740	0.001433
C37	C	0.991254	0.124498	-0.262638
C38	C	0.988934	0.124492	-0.393628
C39	C	0.988925	-0.124719	-0.393624
C40	C	0.991239	-0.124711	-0.262635
C41	C	0.992423	0.249110	-0.197149
C42	C	0.991270	0.373717	-0.262641
C43	C	0.988950	0.373711	-0.393631
C44	C	0.987782	0.249098	-0.459129
C45	C	0.985312	-0.000112	0.401464
C46	C	0.987774	-0.000112	0.540875
H47	H	0.434092	-0.094227	-0.022547
H48	H	0.992212	0.475172	-0.209302
N49	N	0.568954	-0.259041	0.175660
H50	H	0.556543	-0.258216	0.084648
H51	H	0.631774	-0.261548	0.179326
H52	H	0.887528	0.369402	0.326468
N53	N	0.987680	-0.259111	-0.464270
H54	H	1.039896	-0.313585	-0.451647
H55	H	0.936237	-0.313474	-0.431264
N56	N	0.426572	0.122669	-0.040048
H57	H	0.400028	0.090794	-0.116920
H58	H	0.384573	0.178813	0.015802
N59	N	0.586138	0.124050	-0.036170
H60	H	0.539397	0.178653	-0.069190
H61	H	0.616327	0.183430	0.022433
N62	N	0.394924	-0.130611	0.375285
H63	H	0.410873	-0.044537	0.420107
H64	H	0.331862	-0.134239	0.374722
N65	N	0.570408	0.259107	0.179509
H66	H	0.613618	0.233152	0.107427
H67	H	0.524341	0.315037	0.146180
H68	H	1.205738	0.630333	-0.153155
N69	N	0.408676	-0.260474	0.181719
H70	H	0.345330	-0.262317	0.185480
H71	H	0.433777	-0.264702	0.090789
H72	H	0.549111	-0.139013	0.342693
N73	N	1.220677	0.350288	-0.175657
H74	H	1.212098	0.248226	-0.162725
H75	H	1.210605	0.375428	-0.264804
N76	N	1.103154	0.200788	0.001467
H77	H	1.090585	0.166120	-0.083917
H78	H	1.160122	0.166235	0.020000
H79	H	1.103177	0.760899	0.001428
H80	H	0.887531	0.630441	0.326441
H81	H	0.994314	0.249129	-0.090491
N82	N	0.987752	0.508098	-0.464282
H83	H	0.988862	0.587034	-0.402918
H84	H	1.038624	0.513448	-0.528784
H85	H	0.985881	0.249103	-0.565788
N86	N	0.992486	-0.259087	-0.191976
H87	H	0.940269	-0.313558	-0.204587
H88	H	1.043928	-0.313466	-0.224977
N89	N	0.586883	-0.124038	-0.035702
H90	H	0.573088	-0.120646	-0.126012
H91	H	0.649905	-0.123870	-0.034134
N92	N	0.411892	0.259757	0.172931
H93	H	0.429267	0.342784	0.220834
H94	H	0.440923	0.261835	0.084088
H95	H	0.547910	0.135278	0.344107
N96	N	0.394586	0.138317	0.371888
H97	H	0.438906	0.141684	0.432730
H98	H	0.358741	0.223853	0.381981
