data_functionalizedCrystal
_audit_creation_method	'MofGen! by Chris Wilmer'
_symmetry_space_group_name_H-M	'P1'
_symmetry_Int_Tables_number	1
_symmetry_cell_setting	triclinic
loop_
_symmetry_equiv_pos_as_xyz
  x,y,z
_cell_length_a	25.639233
_cell_length_b	18.050591
_cell_length_c	18.050589
_cell_angle_alpha	90.024227
_cell_angle_beta	90.012314
_cell_angle_gamma	90.019409
loop_
_atom_site_label
_atom_site_type_symbol
_atom_site_fract_x
_atom_site_fract_y
_atom_site_fract_z
Zn1	Zn	-0.295727	-1.135281	0.295829
Zn2	Zn	0.204273	-0.635281	0.795829
Zn3	Zn	-0.208301	-1.135195	0.419999
Zn4	Zn	0.291699	-0.635195	0.919999
Zn5	Zn	-0.208295	-1.011104	0.295819
Zn6	Zn	0.291705	-0.511104	0.795819
Zn7	Zn	-0.295695	-1.011049	0.419973
Zn8	Zn	0.204305	-0.511049	0.919973
O9	O	-0.252005	-1.073157	0.357905
O10	O	0.247995	-0.573157	0.857905
O11	O	-0.284146	-1.239195	0.312316
O12	O	0.215854	-0.739195	0.812316
O13	O	-0.135135	-1.118722	0.403534
O14	O	0.364865	-0.618722	0.903534
O15	O	-0.219904	-1.027635	0.191896
O16	O	0.280096	-0.527635	0.691896
O17	O	-0.219914	-1.239131	0.403543
O18	O	0.280086	-0.739131	0.903543
O19	O	-0.284140	-1.118868	0.191903
O20	O	0.215860	-0.618868	0.691903
O21	O	-0.135131	-1.027552	0.312299
O22	O	0.364869	-0.527552	0.812299
O23	O	-0.219874	-0.907172	0.312273
O24	O	0.280126	-0.407172	0.812273
O25	O	-0.368865	-1.027541	0.403498
O26	O	0.131135	-0.527541	0.903498
O27	O	-0.284086	-0.907131	0.403489
O28	O	0.215914	-0.407131	0.903489
O29	O	-0.368888	-1.118815	0.312290
O30	O	0.131112	-0.618815	0.812290
O31	O	-0.219884	-1.118668	0.523921
O32	O	0.280116	-0.618668	1.023921
O33	O	-0.284092	-1.027458	0.523901
O34	O	0.215908	-0.527458	1.023901
C35	C	-0.251976	-0.880205	0.357877
C36	C	0.248024	-0.380205	0.857877
C37	C	-0.251976	-0.797659	0.357884
C38	C	0.248024	-0.297659	0.857884
C39	C	-0.251996	-1.073068	0.550857
C40	C	0.248004	-0.573068	1.050857
C41	C	-0.252010	-1.073097	0.633403
C42	C	0.247990	-0.573097	1.133403
C43	C	-0.388378	-1.073181	0.357892
C44	C	0.111622	-0.573181	0.857892
C45	C	-0.446492	-1.073192	0.357887
C46	C	0.053508	-0.573192	0.857887
C47	C	-0.806873	-1.120778	0.310253
C48	C	-0.306873	-0.620778	0.810253
C49	C	-0.861477	-1.120787	0.310233
C50	C	-0.361477	-0.620787	0.810233
O51	O	-0.889729	-1.161186	0.269821
O52	O	-0.389729	-0.661186	0.769821
N53	N	-0.888775	-1.073273	0.357712
N54	N	-0.388775	-0.573273	0.857712
C55	C	-0.861465	-1.025742	0.405210
C56	C	-0.361465	-0.525742	0.905210
O57	O	-0.889697	-0.985329	0.445593
O58	O	-0.389697	-0.485329	0.945593
C59	C	-0.806861	-1.025730	0.405227
C60	C	-0.306861	-0.525730	0.905227
C61	C	-0.779567	-1.073252	0.357749
C62	C	-0.279567	-0.573252	0.857749
C63	C	-0.779578	-1.168295	0.262779
C64	C	-0.279578	-0.668295	0.762779
C65	C	-0.724978	-1.168287	0.262801
C66	C	-0.224978	-0.668287	0.762801
C67	C	-0.697672	-1.120761	0.310297
C68	C	-0.197672	-0.620761	0.810297
C69	C	-0.724966	-1.073243	0.357771
C70	C	-0.224966	-0.573243	0.857771
C71	C	-0.779553	-0.978195	0.452720
C72	C	-0.279553	-0.478195	0.952720
C73	C	-0.724946	-0.978187	0.452732
C74	C	-0.224946	-0.478187	0.952732
C75	C	-0.697651	-1.025709	0.405255
C76	C	-0.197651	-0.525709	0.905255
C77	C	-0.643060	-1.025709	0.405288
C78	C	-0.143060	-0.525709	0.905288
N79	N	-0.615762	-1.073223	0.357809
N80	N	-0.115762	-0.573223	0.857809
C81	C	-0.643068	-1.120749	0.310313
C82	C	-0.143068	-0.620749	0.810313
C83	C	-0.976136	-1.025771	0.405172
C84	C	-0.476136	-0.525771	0.905172
C85	C	-1.030738	-1.025786	0.405160
C86	C	-0.530738	-0.525786	0.905160
C87	C	-1.030747	-1.120830	0.310181
C88	C	-0.530747	-0.620830	0.810181
C89	C	-0.976143	-1.120818	0.310197
C90	C	-0.476143	-0.620818	0.810197
C91	C	-0.948838	-1.073284	0.357692
C92	C	-0.448838	-0.573284	0.857692
C93	C	-0.528403	-1.120728	0.310363
C94	C	-0.028403	-0.620728	0.810363
C95	C	-0.473798	-1.120717	0.310391
C96	C	0.026202	-0.620717	0.810391
C97	C	-0.473794	-1.025671	0.405366
C98	C	0.026206	-0.525671	0.905366
C99	C	-0.528395	-1.025684	0.405341
C100	C	-0.028395	-0.525684	0.905341
C101	C	-0.555698	-1.073215	0.357833
C102	C	-0.055698	-0.573215	0.857833
O103	O	-0.614773	-0.985328	0.445678
O104	O	-0.114773	-0.485328	0.945678
O105	O	-0.614829	-1.161149	0.269930
O106	O	-0.114829	-0.661149	0.769930
C107	C	-0.116162	-1.073176	0.357865
C108	C	0.383838	-0.573176	0.857865
C109	C	-0.058049	-1.073310	0.357661
C110	C	0.441951	-0.573310	0.857661
C111	C	-0.252034	-1.266863	0.357933
C112	C	0.247966	-0.766863	0.857933
C113	C	-0.252047	-1.349409	0.357945
C114	C	0.247953	-0.849409	0.857945
C115	C	-0.217138	-0.598209	0.308223
C116	C	0.282862	-0.098209	0.808223
C117	C	-0.204275	-0.548790	0.375957
C118	C	0.295725	-0.048790	0.875957
C119	C	-0.252000	-0.646529	0.357906
C120	C	0.248000	-0.146529	0.857906
C121	C	-0.264861	-0.548867	0.290196
C122	C	0.235139	-0.048867	0.790196
C123	C	-0.252021	-0.500544	0.357922
C124	C	0.247979	-0.000544	0.857922
C125	C	-0.239112	-0.598197	0.425676
C126	C	0.260888	-0.098197	0.925676
C127	C	-0.299721	-0.598278	0.339868
C128	C	0.200279	-0.098278	0.839868
C129	C	-0.286876	-0.548881	0.407649
C130	C	0.213124	-0.048881	0.907649
C131	C	-0.251986	-0.730627	0.357896
C132	C	0.248014	-0.230627	0.857896
C133	C	-0.252035	-0.416447	0.357940
C134	C	0.247965	0.083553	0.857940
C135	C	-0.252025	-1.073268	0.164200
C136	C	0.247975	-0.573268	0.664200
C137	C	-0.252034	-1.073315	0.081654
C138	C	0.247966	-0.573315	0.581654
C139	C	-0.286914	-1.023546	0.832870
C140	C	0.213086	-0.523546	1.332870
C141	C	-0.239203	-1.005450	0.882296
C142	C	0.260797	-0.505450	1.382296
C143	C	-0.252017	-1.073170	0.784533
C144	C	0.247983	-0.573170	1.284533
C145	C	-0.299733	-1.091303	0.882189
C146	C	0.200267	-0.591303	1.382189
C147	C	-0.252028	-1.073239	0.930518
C148	C	0.247972	-0.573239	1.430518
C149	C	-0.204280	-1.055039	0.832872
C150	C	0.295720	-0.555039	1.332872
C151	C	-0.264843	-1.140923	0.832761
C152	C	0.235157	-0.640923	1.332761
C153	C	-0.217099	-1.122853	0.882165
C154	C	0.282901	-0.622853	1.382165
C155	C	-0.252011	-1.073129	0.700435
C156	C	0.247989	-0.573129	1.200435
C157	C	-0.252028	-1.073281	1.014615
C158	C	0.247972	-0.573281	1.514615
H159	H	-0.451577	-1.159418	0.271728
H160	H	0.048423	-0.659418	0.771728
H161	H	-0.953907	-0.987062	0.443852
H162	H	-0.453907	-0.487062	0.943852
Br163	Br	-0.336034	-0.953503	0.796791
Br164	Br	0.163966	-0.453503	1.296791
H165	H	-0.163927	-0.527054	0.391225
H166	H	0.336073	-0.027054	0.891225
H167	H	-0.340082	-1.106612	0.903852
H168	H	0.159918	-0.606612	1.403852
H169	H	-0.228197	-0.619776	0.482961
H170	H	0.271803	-0.119776	0.982961
Br171	Br	-0.565449	-1.185229	0.245882
Br172	Br	-0.065449	-0.685229	0.745882
H173	H	-0.340056	-0.620032	0.324579
H174	H	0.159944	-0.120032	0.824579
H175	H	-0.702759	-1.206983	0.224139
H176	H	-0.202759	-0.706983	0.724139
Br177	Br	-0.336031	-0.513006	0.477765
Br178	Br	0.163969	-0.013006	0.977765
H179	H	-0.275713	-0.527158	0.232935
H180	H	0.224287	-0.027158	0.732935
H181	H	-1.052989	-1.159527	0.271506
H182	H	-0.552989	-0.659527	0.771506
H183	H	-0.275704	-1.198174	0.810989
H184	H	0.224296	-0.698174	1.310989
Br185	Br	-0.221121	-0.910002	0.918558
Br186	Br	0.278879	-0.410002	1.418558
H187	H	-0.702717	-0.939470	0.491401
H188	H	-0.202717	-0.439470	0.991401
H189	H	-0.163920	-1.039663	0.811299
H190	H	0.336080	-0.539663	1.311299
H191	H	-0.187558	-1.164848	0.903673
H192	H	0.312442	-0.664848	1.403673
H193	H	-0.187624	-0.619868	0.266253
H194	H	0.312376	-0.119868	0.766253
H195	H	-0.801805	-1.206997	0.224098
H196	H	-0.301805	-0.706997	0.724098
Br197	Br	-0.939106	-1.185314	0.245762
Br198	Br	-0.439106	-0.685314	0.745762
H199	H	-1.052956	-0.987097	0.443829
H200	H	-0.552956	-0.487097	0.943829
Br201	Br	-0.436725	-0.961174	0.469821
Br202	Br	0.063275	-0.461174	0.969821
Br203	Br	-0.565439	-0.961195	0.469781
Br204	Br	-0.065439	-0.461195	0.969781
Br205	Br	-0.816581	-0.913701	0.517163
Br206	Br	-0.316581	-0.413701	1.017163
