data_functionalizedCrystal
_audit_creation_method	'MofGen! by Chris Wilmer'
_symmetry_space_group_name_H-M	'P1'
_symmetry_Int_Tables_number	1
_symmetry_cell_setting	triclinic
loop_
_symmetry_equiv_pos_as_xyz
  x,y,z
_cell_length_a	6.817900
_cell_length_b	7.190334
_cell_length_c	15.301126
_cell_angle_alpha	89.708258
_cell_angle_beta	75.822425
_cell_angle_gamma	119.388224
loop_
_atom_site_label
_atom_site_type_symbol
_atom_site_fract_x
_atom_site_fract_y
_atom_site_fract_z
V1	V	4.226574	0.665641	-0.123319
O2	O	4.206512	0.652303	0.007406
O3	O	4.180352	0.661730	-0.245945
O4	O	4.263664	0.955658	-0.120773
O5	O	4.122624	0.356341	-0.118632
V6	V	4.698842	0.628569	-0.107760
O7	O	4.512521	0.746964	-0.157450
O8	O	4.863093	0.547247	-0.073629
O9	O	4.521858	0.632480	0.014866
O10	O	4.836301	0.641907	-0.238485
O11	O	4.920190	0.937869	-0.112447
O12	O	4.438546	0.338552	-0.110306
C13	C	4.023116	0.651395	-0.275858
C14	C	4.067180	0.650131	-0.376102
C15	C	4.273262	0.660199	-0.427766
C16	C	4.314660	0.659023	-0.521956
C17	C	4.149965	0.647764	-0.564479
C18	C	3.943869	0.637702	-0.512809
C19	C	3.902482	0.638893	-0.418621
C20	C	4.030143	0.635215	-0.709125
C21	C	4.071530	0.634019	-0.803318
C22	C	4.442321	0.655345	-0.812460
C23	C	4.400934	0.656536	-0.718273
C24	C	4.194838	0.646470	-0.666608
C25	C	4.129399	1.026326	-0.116185
C26	C	4.243119	1.267876	-0.114889
C27	C	4.342434	0.642809	0.044775
C28	C	4.277612	0.644088	0.145017
H29	H	3.862330	0.627034	-0.667063
H30	H	4.610117	0.663511	-0.854528
C31	C	4.451771	0.671973	-0.381523
C32	C	4.346142	0.488844	-0.315980
C33	C	4.510528	0.499608	-0.273374
H34	H	4.506269	0.797741	-0.352860
H35	H	4.580427	0.677692	-0.425751
H36	H	4.217528	0.483146	-0.271759
H37	H	4.291655	0.363049	-0.344620
H38	H	4.639184	0.505327	-0.317601
H39	H	4.565016	0.625382	-0.244715
H40	H	4.438889	0.375350	-0.228904
C41	C	4.538549	0.670330	-0.578130
C42	C	4.665927	0.854690	-0.644220
C43	C	4.872193	0.865170	-0.695979
H44	H	4.499797	0.545454	-0.607175
H45	H	4.630844	0.677297	-0.539360
H46	H	4.573650	0.847704	-0.682985
H47	H	4.704740	0.979597	-0.615200
H48	H	4.964488	0.872138	-0.657209
H49	H	4.833418	0.740286	-0.725018
H50	H	4.958655	0.990267	-0.740821
H51	H	3.937450	0.624915	-0.837942
H52	H	3.734676	0.630703	-0.376557
H53	H	4.535040	0.665692	-0.683652
H54	H	3.809781	0.628547	-0.547439
