data_functionalizedCrystal
_audit_creation_method	'MofGen! by Chris Wilmer'
_symmetry_space_group_name_H-M	'P1'
_symmetry_Int_Tables_number	1
_symmetry_cell_setting	triclinic
loop_
_symmetry_equiv_pos_as_xyz
  x,y,z
_cell_length_a	18.215407
_cell_length_b	16.625546
_cell_length_c	18.215399
_cell_angle_alpha	89.968415
_cell_angle_beta	89.983176
_cell_angle_gamma	90.022916
loop_
_atom_site_label
_atom_site_type_symbol
_atom_site_fract_x
_atom_site_fract_y
_atom_site_fract_z
Zn1	Zn	1.125062	-0.320981	-0.416110
Zn2	Zn	1.124983	-0.455827	-0.293041
Zn3	Zn	1.002001	-0.321013	-0.293057
Zn4	Zn	1.001966	-0.455776	-0.416066
O5	O	1.063503	-0.388399	-0.354568
O6	O	1.228036	-0.338876	-0.399796
O7	O	1.108650	-0.437978	-0.190059
O8	O	1.018374	-0.208176	-0.309405
O9	O	1.227977	-0.437947	-0.309378
O10	O	1.108786	-0.208153	-0.399812
O11	O	1.018297	-0.338931	-0.190070
O12	O	0.899013	-0.338882	-0.309363
O13	O	1.018314	-0.437861	-0.519056
O14	O	0.898987	-0.437892	-0.399737
O15	O	1.108752	-0.338827	-0.519088
O16	O	1.108616	-0.568653	-0.309335
O17	O	1.018236	-0.568616	-0.399721
C18	C	0.872297	-0.388386	-0.354547
C19	C	0.790498	-0.388399	-0.354556
C20	C	0.602310	-0.440035	-0.401554
C21	C	0.525451	-0.440037	-0.401563
C22	C	0.525449	-0.336779	-0.307598
C23	C	0.602306	-0.336773	-0.307593
C24	C	0.640734	-0.388405	-0.354570
C25	C	0.487018	-0.388414	-0.354584
C26	C	0.403685	-0.388416	-0.354594
C27	C	0.724073	-0.388402	-0.354562
C28	C	1.063434	-0.597890	-0.354537
C29	C	1.063471	-0.687511	-0.354549
C30	C	1.063599	-1.015687	-0.354625
C31	C	1.063561	-0.924379	-0.354606
C32	C	1.063535	-0.851602	-0.354587
C33	C	1.063498	-0.760288	-0.354568
C34	C	1.255456	-0.388414	-0.354590
C35	C	1.337255	-0.388420	-0.354599
C36	C	1.063538	-0.388335	-0.546521
C37	C	1.063553	-0.388308	-0.628320
C38	C	1.063593	-0.178091	-0.354615
C39	C	1.063631	-0.088469	-0.354635
C40	C	1.016545	-0.336699	-0.816521
C41	C	1.016558	-0.336683	-0.893380
C42	C	1.110648	-0.439820	-0.893357
C43	C	1.110631	-0.439840	-0.816500
C44	C	1.063581	-0.388275	-0.778084
C45	C	1.063611	-0.388239	-0.931800
C46	C	1.063625	-0.388221	-1.015134
C47	C	1.063565	-0.388293	-0.694745
C48	C	1.063511	-0.388405	-0.163362
C49	C	1.063639	-0.388206	-0.081563
H50	H	0.633592	-0.294725	-0.269333
O51	O	0.970970	-0.286545	-0.930802
C52	C	1.012895	-0.234446	-0.975270
H53	H	1.068659	-0.262881	-0.986780
H54	H	1.020996	-0.174698	-0.945673
C55	C	0.903932	-0.184913	-1.034140
C56	C	0.972420	-0.219840	-1.048282
H57	H	0.878964	-0.175900	-1.079177
H58	H	0.875685	-0.220011	-1.004180
H59	H	0.910693	-0.135127	-1.009474
H60	H	0.965658	-0.269630	-1.072939
H61	H	1.000664	-0.184750	-1.078249
H62	H	1.148935	-0.481842	-0.785203
H63	H	0.494151	-0.294743	-0.269350
H64	H	0.633596	-0.482075	-0.439808
O65	O	0.970732	-0.286704	-0.779236
C66	C	0.897383	-0.304310	-0.798021
H67	H	0.893652	-0.368719	-0.819130
H68	H	0.878171	-0.261071	-0.842645
C69	C	0.852838	-0.215839	-0.703820
C70	C	0.848254	-0.294950	-0.729741
H71	H	0.822532	-0.210062	-0.661703
H72	H	0.902254	-0.203974	-0.691165
H73	H	0.836830	-0.179815	-0.741012
H74	H	0.864271	-0.330971	-0.692551
H75	H	0.798839	-0.306820	-0.742388
O76	O	0.488239	-0.490268	-0.447225
C77	C	0.538642	-0.535820	-0.488698
H78	H	0.593415	-0.538567	-0.458544
H79	H	0.546848	-0.506368	-0.544638
C80	C	0.441350	-0.618276	-0.536205
C81	C	0.508622	-0.621657	-0.499166
H82	H	0.422831	-0.671223	-0.542666
H83	H	0.407392	-0.587585	-0.508267
H84	H	0.448197	-0.593729	-0.582818
H85	H	0.501771	-0.646194	-0.452551
H86	H	0.542578	-0.652354	-0.527097
O87	O	1.156330	-0.489828	-0.930789
C88	C	1.146248	-0.478766	-1.006869
H89	H	1.122174	-0.416537	-1.017382
H90	H	1.107044	-0.526585	-1.028663
C91	C	1.250285	-0.562579	-1.033418
C92	C	1.220722	-0.486145	-1.046331
H93	H	1.296223	-0.567135	-1.057761
H94	H	1.257076	-0.570035	-0.982162
H95	H	1.217607	-0.602420	-1.051580
H96	H	1.253395	-0.446307	-1.028161
H97	H	1.213938	-0.478683	-1.097585
