data_functionalizedCrystal
_audit_creation_method	'MofGen! by Chris Wilmer'
_symmetry_space_group_name_H-M	'P1'
_symmetry_Int_Tables_number	1
_symmetry_cell_setting	triclinic
loop_
_symmetry_equiv_pos_as_xyz
  x,y,z
_cell_length_a	19.188930
_cell_length_b	19.188924
_cell_length_c	16.053802
_cell_angle_alpha	92.554672
_cell_angle_beta	87.413631
_cell_angle_gamma	83.143372
loop_
_atom_site_label
_atom_site_type_symbol
_atom_site_fract_x
_atom_site_fract_y
_atom_site_fract_z
O1	O	0.929109	0.084208	-0.069702
O2	O	0.725795	0.095944	-0.069645
O3	O	0.833321	-0.011580	-0.069666
O4	O	0.821583	0.191732	-0.069682
O5	O	0.827403	-0.005686	0.069194
O6	O	0.719876	0.101838	0.069215
O7	O	0.923190	0.090102	0.069158
Zn8	Zn	0.820594	0.096906	0.091233
Zn9	Zn	0.828392	0.089140	-0.091721
O10	O	0.815664	0.197626	0.069178
C11	C	0.696824	0.098512	-0.000208
C12	C	0.619319	0.097372	-0.000186
C13	C	0.574394	0.160462	-0.000204
C14	C	0.501571	0.159390	-0.000213
C15	C	0.473676	0.095224	-0.000221
C16	C	0.518610	0.032125	-0.000198
C17	C	0.591432	0.033199	-0.000181
N18	N	0.367713	0.044169	-0.047511
N19	N	0.298535	0.043153	-0.047529
C20	C	0.254270	0.091983	-0.000272
N21	N	0.281795	0.141878	0.046994
N22	N	0.350979	0.142897	0.047009
C23	C	0.394714	0.094052	-0.000239
C24	C	0.130381	0.153916	-0.000299
C25	C	0.057556	0.152841	-0.000303
C26	C	0.074598	0.025574	-0.000296
C27	C	0.147421	0.026650	-0.000283
C28	C	0.175308	0.090823	-0.000289
C29	C	0.829983	-0.034644	-0.000235
C30	C	0.828844	-0.112148	-0.000232
C31	C	0.831538	-0.151760	-0.075925
C32	C	0.830459	-0.224583	-0.075931
C33	C	0.826698	-0.257793	-0.000240
C34	C	0.823999	-0.218172	0.075463
C35	C	0.825072	-0.145349	0.075467
N36	N	0.862345	-0.375066	0.056084
N37	N	0.861328	-0.444244	0.056075
C38	C	0.823464	-0.477203	-0.000247
N39	N	0.786666	-0.438371	-0.056573
N40	N	0.787687	-0.369186	-0.056567
C41	C	0.825534	-0.336756	-0.000236
C42	C	0.824988	-0.595777	-0.075951
C43	C	0.823903	-0.668601	-0.075954
C44	C	0.817451	-0.662189	0.075441
C45	C	0.818528	-0.589366	0.075442
C46	C	0.822300	-0.556165	-0.000257
C47	C	0.952161	0.087534	-0.000281
C48	C	1.029667	0.088674	-0.000309
C49	C	0.819003	0.220690	-0.000255
C50	C	0.820142	0.298194	-0.000263
N51	N	0.815277	0.102205	0.216095
N52	N	0.833714	0.083835	-0.216582
C53	C	0.861046	0.056470	0.259780
C54	C	0.857334	0.060184	0.347187
C55	C	0.807855	0.109637	0.390908
C56	C	0.762081	0.155374	0.347216
C57	C	0.765790	0.151657	0.259811
C58	C	0.791650	0.125855	0.652321
C59	C	0.787945	0.129571	0.739733
C60	C	0.883197	0.034379	0.739698
C61	C	0.886905	0.030669	0.652290
C62	C	0.841129	0.076404	0.608606
N63	N	0.804060	0.113435	0.480252
N64	N	0.844921	0.072601	0.519263
H65	H	0.153087	0.206169	-0.000291
O66	O	0.940272	-0.022678	0.605145
H67	H	0.993957	-0.013204	0.621900
O68	O	0.932563	-0.014954	0.786811
H69	H	0.921670	-0.004068	0.854935
O70	O	0.453107	0.227443	-0.000230
H71	H	0.397785	0.215913	-0.000234
H72	H	0.826094	-0.700852	-0.137595
H73	H	0.495895	-0.020120	-0.000216
H74	H	0.822875	-0.113097	0.137107
O75	O	0.829040	-0.559962	-0.157595
H76	H	0.877265	-0.533314	-0.161237
H77	H	0.894602	0.022942	0.382756
H78	H	0.184000	-0.024725	-0.000273
O79	O	0.835589	-0.115946	-0.157567
H80	H	0.837271	-0.155729	-0.210202
O81	O	0.833369	-0.267317	-0.157576
H82	H	0.785455	-0.294275	-0.161192
O83	O	0.639894	-0.034850	-0.000165
H84	H	0.608267	-0.079652	-0.000174
H85	H	0.020978	0.204219	-0.000313
O86	O	0.819943	-0.253990	0.157100
H87	H	0.818243	-0.214207	0.209737
O88	O	0.914410	0.003128	0.212625
H89	H	0.945607	-0.028055	0.257690
H90	H	0.747651	0.169844	0.775326
H91	H	0.754378	0.163096	0.616760
O92	O	0.044524	-0.043638	-0.000304
H93	H	-0.013661	-0.033787	-0.000323
O94	O	0.813400	-0.697997	0.157084
H95	H	0.813112	-0.755291	0.144366
O96	O	0.815640	-0.546637	0.157082
H97	H	0.812852	-0.581963	0.209716
O98	O	0.708715	0.208717	0.394366
H99	H	0.713829	0.203626	0.462484
O100	O	0.716427	0.200979	0.212678
H101	H	0.724440	0.256103	0.229421
O102	O	0.604474	0.229674	-0.000186
H103	H	0.560995	0.273366	-0.000188
