data_functionalizedCrystal
_audit_creation_method	'MofGen! by Chris Wilmer'
_symmetry_space_group_name_H-M	'P1'
_symmetry_Int_Tables_number	1
_symmetry_cell_setting	triclinic
loop_
_symmetry_equiv_pos_as_xyz
  x,y,z
_cell_length_a	6.817900
_cell_length_b	12.840946
_cell_length_c	11.102295
_cell_angle_alpha	82.596968
_cell_angle_beta	70.616099
_cell_angle_gamma	88.344365
loop_
_atom_site_label
_atom_site_type_symbol
_atom_site_fract_x
_atom_site_fract_y
_atom_site_fract_z
V1	V	-3.926388	0.283509	0.178852
O2	O	-3.887456	0.320307	-0.005495
O3	O	-3.905863	0.240989	0.351653
O4	O	-3.821769	0.425671	0.177461
O5	O	-3.972132	0.134346	0.169902
V6	V	-4.413689	0.270598	0.156642
O7	O	-4.179359	0.311831	0.227573
O8	O	-4.610914	0.242276	0.107921
O9	O	-4.211007	0.313118	-0.016159
O10	O	-4.570017	0.233800	0.340988
O11	O	-4.485341	0.419761	0.165591
O12	O	-4.295101	0.128435	0.158032
C13	C	-3.759464	0.226045	0.393735
C14	C	-3.823594	0.192228	0.535010
C15	C	-4.034808	0.180036	0.607883
C16	C	-4.095094	0.148276	0.740630
C17	C	-3.944163	0.128702	0.800501
C18	C	-3.732931	0.140898	0.727618
C19	C	-3.672648	0.172665	0.594875
C20	C	-3.652205	0.461626	0.171531
C21	C	-3.648057	0.579757	0.171535
C22	C	-4.111043	-0.025659	0.164012
C23	C	-4.128039	0.092476	0.163984
V24	V	-3.909364	0.769668	0.178889
O25	O	-3.944506	0.922958	0.169955
O26	O	-3.814877	0.622811	0.177482
O27	O	-3.887302	0.770777	0.351690
O28	O	-3.871579	0.773969	-0.005459
V29	V	-4.394723	0.812290	0.156689
O30	O	-4.164272	0.742780	0.227611
O31	O	-4.589222	0.861863	0.107975
O32	O	-4.266397	0.947900	0.158091
O33	O	-4.476772	0.664915	0.165625
O34	O	-4.549699	0.813905	0.341039
O35	O	-4.193971	0.799935	-0.016116
C36	C	-4.020750	0.328057	-0.058235
C37	C	-3.935856	0.361881	-0.199508
C38	C	-3.740453	0.768500	0.393763
C39	C	-3.803250	0.772548	0.535039
C40	C	-4.004752	0.785247	-0.058203
C41	C	-3.921230	0.780163	-0.199480
C42	C	-4.013820	0.778373	0.607935
C43	C	-4.072812	0.782184	0.740676
C44	C	-3.710641	0.774340	0.727613
C45	C	-3.651652	0.770536	0.594873
C46	C	-4.069628	0.374075	-0.272381
C47	C	-3.989884	0.405840	-0.405127
C48	C	-3.776368	0.425417	-0.464997
C49	C	-3.642587	0.413218	-0.392115
C50	C	-3.722330	0.381446	-0.259373
H51	H	-4.267098	0.138348	0.799953
C52	C	-3.566929	0.119354	0.793486
H53	H	-3.633102	0.098678	0.882976
H54	H	-3.486154	0.181305	0.781243
H55	H	-3.479138	0.064762	0.756887
C56	C	-4.180569	0.780593	0.542119
H57	H	-4.314425	0.784616	0.604548
H58	H	-4.172792	0.718445	0.502786
H59	H	-4.157381	0.840106	0.478432
H60	H	-3.500655	0.182584	0.535550
H61	H	-4.244273	0.786929	0.800023
C62	C	-3.543904	0.772114	0.793438
H63	H	-3.609193	0.775203	0.882936
H64	H	-3.452125	0.830704	0.756827
H65	H	-3.467546	0.709043	0.781175
C66	C	-3.420016	0.764126	0.514676
H67	H	-3.406600	0.762160	0.427050
H68	H	-3.362975	0.702311	0.545918
H69	H	-3.347579	0.823973	0.521567
C70	C	-4.200858	0.201561	0.542050
H71	H	-4.335276	0.189756	0.604479
H72	H	-4.181365	0.155837	0.478368
H73	H	-4.188405	0.272383	0.502713
C74	C	-3.688679	0.460374	-0.611009
H75	H	-3.798947	0.464841	-0.645824
H76	H	-3.590529	0.410663	-0.650827
H77	H	-3.622500	0.527203	-0.626454
C78	C	-4.304493	0.352538	-0.206550
H79	H	-4.372714	0.364342	-0.268979
H80	H	-4.358827	0.398254	-0.142860
H81	H	-4.326833	0.281712	-0.167222
C82	C	-4.137067	0.419264	-0.485270
H83	H	-4.275649	0.403071	-0.430591
H84	H	-4.097233	0.373236	-0.549498
H85	H	-4.129147	0.489782	-0.525145
H86	H	-3.993277	0.102836	0.908590
H87	H	-3.468736	0.429161	-0.440882
H88	H	-3.613384	0.371529	-0.200048
