data_functionalizedCrystal
_audit_creation_method	'MofGen! by Chris Wilmer'
_symmetry_space_group_name_H-M	'P1'
_symmetry_Int_Tables_number	1
_symmetry_cell_setting	triclinic
loop_
_symmetry_equiv_pos_as_xyz
  x,y,z
_cell_length_a	18.215407
_cell_length_b	10.685194
_cell_length_c	18.215399
_cell_angle_alpha	94.396576
_cell_angle_beta	90.019833
_cell_angle_gamma	94.377432
loop_
_atom_site_label
_atom_site_type_symbol
_atom_site_fract_x
_atom_site_fract_y
_atom_site_fract_z
Zn1	Zn	1.102699	-0.502407	0.393658
Zn2	Zn	1.436033	-0.169074	0.726992
Zn3	Zn	1.769366	0.164260	1.060325
Zn4	Zn	1.093210	-0.713450	0.261159
Zn5	Zn	1.426543	-0.380116	0.594492
Zn6	Zn	1.759877	-0.046783	0.927825
Zn7	Zn	0.979630	-0.502448	0.270604
Zn8	Zn	1.312963	-0.169115	0.603937
Zn9	Zn	1.646297	0.164218	0.937271
Zn10	Zn	0.970203	-0.713379	0.384187
Zn11	Zn	1.303536	-0.380046	0.717520
Zn12	Zn	1.636870	-0.046713	1.050853
O13	O	1.036436	-0.607921	0.327402
O14	O	1.369769	-0.274588	0.660735
O15	O	1.703102	0.058746	0.994069
O16	O	1.204424	-0.530414	0.376093
O17	O	1.537758	-0.197081	0.709427
O18	O	1.871091	0.136252	1.042760
O19	O	1.078117	-0.685507	0.159425
O20	O	1.411450	-0.352173	0.492759
O21	O	1.744784	-0.018840	0.826092
O22	O	1.003872	-0.325846	0.294844
O23	O	1.337205	0.007488	0.628178
O24	O	1.670539	0.340821	0.961511
O25	O	1.197452	-0.685467	0.278746
O26	O	1.530786	-0.352133	0.612079
O27	O	1.864119	-0.018800	0.945413
O28	O	1.094291	-0.325815	0.385252
O29	O	1.427624	0.007518	0.718585
O30	O	1.760957	0.340851	1.051919
O31	O	0.994671	-0.530485	0.166365
O32	O	1.328004	-0.197152	0.499698
O33	O	1.661337	0.136182	0.833031
O34	O	0.875396	-0.530417	0.285660
O35	O	1.208729	-0.197083	0.618993
O36	O	1.542063	0.136250	0.952327
O37	O	0.987805	-0.685347	0.488430
O38	O	1.321138	-0.352013	0.821763
O39	O	1.654472	-0.018680	1.155096
O40	O	0.868470	-0.685387	0.369109
O41	O	1.201803	-0.352053	0.702442
O42	O	1.535137	-0.018720	1.035775
O43	O	1.085150	-0.530346	0.495388
O44	O	1.418483	-0.197013	0.828722
O45	O	1.751816	0.136320	1.162055
O46	O	1.068976	-0.890038	0.269562
O47	O	1.402309	-0.556704	0.602895
O48	O	1.735643	-0.223371	0.936228
O49	O	0.978604	-0.889986	0.359950
O50	O	1.311937	-0.556653	0.693283
O51	O	1.645270	-0.223319	1.026617
C52	C	0.845230	-0.607900	0.327382
C53	C	1.178564	-0.274566	0.660715
C54	C	1.511897	0.058767	0.994049
C55	C	0.763430	-0.607921	0.327389
C56	C	1.096764	-0.274587	0.660723
C57	C	1.430097	0.058746	0.994056
C58	C	0.571644	-0.688740	0.370776
C59	C	0.904977	-0.355407	0.704110
C60	C	1.238310	-0.022074	1.037443
C61	C	0.494785	-0.688744	0.370785
C62	C	0.828118	-0.355411	0.704119
C63	C	1.161452	-0.022078	1.037452
C64	C	0.501978	-0.527125	0.284043
C65	C	0.835312	-0.193791	0.617376
C66	C	1.168645	0.139542	0.950709
C67	C	0.578836	-0.527115	0.284038
C68	C	0.912170	-0.193782	0.617372
C69	C	1.245503	0.139551	0.950705
C70	C	0.613667	-0.607930	0.327404
C71	C	0.947000	-0.274597	0.660737
C72	C	1.280333	0.058736	0.994070
C73	C	0.459950	-0.607944	0.327417
C74	C	0.793283	-0.274610	0.660750
C75	C	1.126617	0.058723	0.994084
C76	C	0.376616	-0.607947	0.327427
C77	C	0.709949	-0.274614	0.660760
C78	C	1.043283	0.058719	0.994093
C79	C	0.697006	-0.607925	0.327395
C80	C	1.030339	-0.274592	0.660729
C81	C	1.363672	0.058741	0.994062
C82	C	1.021757	-0.935802	0.312719
C83	C	1.355090	-0.602468	0.646052
C84	C	1.688424	-0.269135	0.979386
C85	C	1.015545	-1.076070	0.306462
C86	C	1.348878	-0.742737	0.639796
C87	C	1.682212	-0.409404	0.973129
C88	C	1.228387	-0.607944	0.327423
C89	C	1.561721	-0.274610	0.660756
C90	C	1.895054	0.058723	0.994089
C91	C	1.310186	-0.607953	0.327431
C92	C	1.643519	-0.274620	0.660765
C93	C	1.976853	0.058713	0.994098
C94	C	1.036484	-0.607834	0.519359
C95	C	1.369818	-0.274501	0.852692
C96	C	1.703151	0.058833	1.186026
C97	C	1.036505	-0.607797	0.601159
C98	C	1.369838	-0.274464	0.934493
C99	C	1.703172	0.058870	1.267826
C100	C	1.051191	-0.278760	0.342158
C101	C	1.384525	0.054573	0.675492
C102	C	1.717858	0.387906	1.008825
C103	C	1.057480	-0.138492	0.348447
C104	C	1.390813	0.194842	0.681780
C105	C	1.724146	0.528175	1.015113
C106	C	1.036433	-0.607917	0.136196
C107	C	1.369767	-0.274583	0.469529
C108	C	1.703100	0.058750	0.802863
C109	C	1.036571	-0.607598	0.054412
C110	C	1.369904	-0.274265	0.387745
C111	C	1.703238	0.059068	0.721078
C112	C	1.087213	-0.527013	0.792982
C113	C	1.420546	-0.193680	1.126315
C114	C	1.753879	0.139654	1.459648
C115	C	1.087223	-0.526976	0.869842
C116	C	1.420556	-0.193643	1.203175
C117	C	1.753890	0.139691	1.536509
C118	C	0.985858	-0.688386	0.862584
C119	C	1.319192	-0.355053	1.195917
C120	C	1.652525	-0.021719	1.529251
C121	C	0.985845	-0.688416	0.785725
C122	C	1.319178	-0.355082	1.119059
C123	C	1.652512	-0.021749	1.452392
C124	C	1.036526	-0.607731	0.750926
C125	C	1.369860	-0.274397	1.084259
C126	C	1.703193	0.058936	1.417593
C127	C	1.036550	-0.607665	0.904645
C128	C	1.369883	-0.274331	1.237978
C129	C	1.703217	0.059002	1.571312
C130	C	1.036561	-0.607625	0.987981
C131	C	1.369894	-0.274292	1.321314
C132	C	1.703228	0.059041	1.654647
C133	C	1.036515	-0.607768	0.667585
C134	C	1.369848	-0.274435	1.000919
C135	C	1.703181	0.058899	1.334252
H136	H	0.460573	-0.754546	0.406105
H137	H	0.793906	-0.421213	0.739438
H138	H	1.127240	-0.087880	1.072772
H139	H	0.473610	-0.461330	0.248735
H140	H	0.806943	-0.127996	0.582068
H141	H	1.140277	0.205337	0.915402
H142	H	1.128479	-0.461311	0.764651
H143	H	1.461812	-0.127977	1.097984
H144	H	1.795145	0.205356	1.431317
F145	F	0.623563	-0.441095	0.237877
F146	F	0.956896	-0.107761	0.571210
F147	F	1.290230	0.225572	0.904543
F148	F	0.962394	-1.146483	0.253223
F149	F	1.295727	-0.813149	0.586556
F150	F	1.629060	-0.479816	0.919889
F151	F	0.931925	-0.774256	0.899626
F152	F	1.265259	-0.440923	1.232960
F153	F	1.598592	-0.107590	1.566293
F154	F	0.931891	-0.774325	0.740964
F155	F	1.265225	-0.440992	1.074298
F156	F	1.598558	-0.107659	1.407631
F157	F	1.141175	-0.441073	0.914597
F158	F	1.474508	-0.107740	1.247930
F159	F	1.807842	0.225594	1.581264
F160	F	1.110620	-1.068085	0.401691
F161	F	1.443954	-0.734751	0.735024
F162	F	1.777287	-0.401418	1.068358
H163	H	0.600000	-0.754542	0.406089
H164	H	0.933334	-0.421209	0.739423
H165	H	1.266667	-0.087876	1.072756
