data_functionalizedCrystal
_audit_creation_method	'MofGen! by Chris Wilmer'
_symmetry_space_group_name_H-M	'P1'
_symmetry_Int_Tables_number	1
_symmetry_cell_setting	triclinic
loop_
_symmetry_equiv_pos_as_xyz
  x,y,z
_cell_length_a	14.044220
_cell_length_b	14.044190
_cell_length_c	13.101018
_cell_angle_alpha	86.339369
_cell_angle_beta	93.664297
_cell_angle_gamma	93.190328
loop_
_atom_site_label
_atom_site_type_symbol
_atom_site_fract_x
_atom_site_fract_y
_atom_site_fract_z
O1	O	1.281981	0.225353	0.085126
O2	O	1.781981	0.725353	0.585126
O3	O	1.005311	0.217046	0.085151
O4	O	1.505311	0.717046	0.585151
O5	O	1.139489	0.082864	0.085119
O6	O	1.639489	0.582864	0.585119
O7	O	1.147804	0.359534	0.085158
O8	O	1.647804	0.859534	0.585158
O9	O	1.129850	0.092500	-0.085309
O10	O	1.629850	0.592500	0.414691
O11	O	0.995673	0.226681	-0.085277
O12	O	1.495673	0.726681	0.414723
O13	O	1.272343	0.234988	-0.085302
O14	O	1.772343	0.734988	0.414698
Zn15	Zn	1.132478	0.232365	-0.112349
Zn16	Zn	1.632478	0.732365	0.387651
Zn17	Zn	1.145177	0.219669	0.112197
Zn18	Zn	1.645177	0.719669	0.612197
O19	O	1.138165	0.369170	-0.085270
O20	O	1.638165	0.869170	0.414730
C21	C	0.964870	0.218228	-0.000060
C22	C	1.464870	0.718228	0.499940
C23	C	0.858728	0.207382	-0.000051
C24	C	1.358728	0.707382	0.499949
C25	C	0.664388	0.187557	-0.000075
C26	C	1.164388	0.687557	0.499925
C27	C	0.613261	0.264472	-0.000068
C28	C	1.113261	0.764472	0.499932
C29	C	0.505123	0.253441	-0.000081
C30	C	1.005123	0.753441	0.499919
C31	C	0.772535	0.198587	-0.000062
C32	C	1.272535	0.698587	0.499938
C33	C	1.131033	0.052060	-0.000098
C34	C	1.631033	0.552060	0.499902
C35	C	1.120185	-0.054083	-0.000106
C36	C	1.620185	0.445917	0.499894
C37	C	1.177288	-0.299543	-0.000071
C38	C	1.677288	0.200457	0.499929
C39	C	1.100371	-0.248418	-0.000071
C40	C	1.600371	0.251582	0.499929
C41	C	1.111398	-0.140280	-0.000091
C42	C	1.611398	0.359720	0.499909
C43	C	1.166262	-0.407691	-0.000052
C44	C	1.666262	0.092309	0.499948
C45	C	1.312784	0.233806	-0.000089
C46	C	1.812784	0.733806	0.499911
C47	C	1.418927	0.244651	-0.000091
C48	C	1.918927	0.744651	0.499909
C49	C	1.146621	0.399974	-0.000051
C50	C	1.646621	0.899974	0.499949
C51	C	1.157470	0.506116	-0.000036
C52	C	1.657470	1.006116	0.499964
N53	N	1.123818	0.241029	-0.265596
N54	N	1.623818	0.741029	0.234404
C55	C	1.165620	0.199206	-0.525515
C56	C	1.665620	0.699206	-0.025515
C57	C	1.112044	0.252818	-0.474630
C58	C	1.612044	0.752818	0.025370
C59	C	1.118597	0.246257	-0.358312
C60	C	1.618597	0.746257	0.141688
C61	C	1.159069	0.205766	-0.641843
C62	C	1.659069	0.705766	-0.141843
N63	N	1.153843	0.210998	0.265444
N64	N	1.653843	0.710998	0.765444
H65	H	0.650703	0.338605	-0.000052
H66	H	1.150703	0.838605	0.499948
C67	C	1.000221	-0.299001	-0.000061
C68	C	1.500221	0.200999	0.499939
N69	N	0.924791	-0.337104	-0.000058
N70	N	1.424791	0.162896	0.499942
H71	H	1.061255	0.303645	-0.518422
H72	H	1.561255	0.803645	-0.018422
C73	C	1.234222	0.130538	-0.466356
C74	C	1.734222	0.630538	0.033644
N75	N	1.285891	0.078817	-0.421786
N76	N	1.785891	0.578817	0.078214
H77	H	1.251413	-0.262101	-0.000088
H78	H	1.751413	0.237899	0.499912
C79	C	0.613808	0.087413	-0.000086
C80	C	1.113808	0.587413	0.499914
N81	N	0.575701	0.011985	-0.000090
N82	N	1.075701	0.511985	0.499910
