data_functionalizedCrystal
_audit_creation_method	'MofGen! by Chris Wilmer'
_symmetry_space_group_name_H-M	'P1'
_symmetry_Int_Tables_number	1
_symmetry_cell_setting	triclinic
loop_
_symmetry_equiv_pos_as_xyz
  x,y,z
_cell_length_a	18.760492
_cell_length_b	14.628931
_cell_length_c	14.628931
_cell_angle_alpha	90.000000
_cell_angle_beta	59.999477
_cell_angle_gamma	59.998755
loop_
_atom_site_label
_atom_site_type_symbol
_atom_site_fract_x
_atom_site_fract_y
_atom_site_fract_z
Zr1	Zr	0.780249	0.880581	-0.119986
O2	O	0.928960	0.734614	-0.265951
O3	O	0.631538	0.925333	-0.075237
O4	O	0.780249	0.925326	-0.265947
O5	O	0.780249	0.734621	0.075191
O6	O	0.780249	1.075758	-0.265947
O7	O	0.780249	0.734621	-0.075241
O8	O	0.514232	1.075770	0.075198
O9	O	1.046266	0.734609	-0.265955
O10	O	0.692705	1.056679	-0.056156
O11	O	0.692705	0.944413	0.056110
O12	O	0.867794	0.944405	-0.168426
O13	O	0.867794	0.832140	-0.056161
Zr14	Zr	0.780250	1.120502	0.119935
Zr15	Zr	0.780250	1.120503	-0.119986
Zr16	Zr	0.780250	0.880581	0.119935
Zr17	Zr	0.967339	0.880573	-0.119992
Zr18	Zr	0.593160	1.120511	0.119941
O19	O	0.928962	1.075751	0.075185
O20	O	0.928961	1.075751	-0.265952
O21	O	0.928961	0.734614	0.075186
O22	O	0.631539	1.266469	0.265900
O23	O	0.631539	1.266470	-0.075237
O24	O	0.631539	0.925332	0.265900
O25	O	0.780250	1.266463	-0.075242
O26	O	0.780251	1.075757	0.265895
O27	O	0.780250	0.925326	0.265896
O28	O	0.780251	1.266463	0.075190
O29	O	1.046267	0.925314	-0.265955
O30	O	0.514233	1.075769	0.265904
O31	O	0.514233	1.266475	0.265903
O32	O	0.514233	1.266475	0.075198
O33	O	1.046267	0.734609	-0.075249
O34	O	1.046267	0.925314	-0.075250
O35	O	0.692706	1.056678	0.168375
O36	O	0.692706	1.168944	0.056110
O37	O	0.867794	1.056671	-0.056161
O38	O	0.867794	0.944405	0.056104
C39	C	0.546229	1.000552	-0.000018
C40	C	0.466804	1.000556	-0.000016
C41	C	0.780249	0.700437	-0.000025
C42	C	0.780249	0.598584	-0.000025
C43	C	0.066372	1.083412	0.082847
C44	C	0.195642	0.917650	-0.082912
C45	C	0.270261	0.917655	-0.082911
C46	C	0.242938	1.000539	-0.000028
C47	C	0.140996	1.083417	0.082853
C48	C	0.372207	0.834772	-0.165784
C49	C	0.446833	0.834773	-0.165786
C50	C	0.419511	0.917662	-0.082907
C51	C	0.317562	1.000545	-0.000023
C52	C	0.290239	1.083429	0.082860
C53	C	0.188290	1.166317	0.165740
C54	C	0.113674	1.166307	0.165732
C55	C	0.494127	0.917672	-0.082899
C56	C	0.364862	1.083435	0.082866
C57	C	0.693395	0.503604	0.055668
C58	C	0.693393	0.608875	0.055669
C59	C	1.014271	1.000531	-0.000033
C60	C	1.093695	1.000528	-0.000035
C61	C	0.780249	1.000542	-0.300130
C62	C	0.780249	1.000542	-0.401983
C63	C	0.780250	1.300647	-0.000026
C64	C	0.780251	1.402500	-0.000026
C65	C	0.867104	0.944847	-0.503086
C66	C	0.867106	0.944846	-0.608358
C67	C	0.780250	1.000541	0.300079
C68	C	0.780251	1.000541	0.401932
C69	C	0.546229	1.300657	-0.000019
C70	C	0.466805	1.402514	-0.000017
C71	C	0.546229	1.000552	0.300086
C72	C	0.466805	1.000555	0.401942
C73	C	0.546230	1.300657	0.300086
C74	C	0.466806	1.402513	0.401941
C75	C	1.014269	0.700427	-0.300137
C76	C	1.093693	0.598571	-0.401992
C77	C	1.014270	0.700427	-0.000032
C78	C	1.093694	0.598570	-0.000035
C79	C	1.014270	1.000532	-0.300138
C80	C	1.093694	1.000528	-0.401993
C81	C	0.429506	1.391745	-0.058627
C82	C	0.354889	1.487441	-0.058647
C83	C	0.317567	1.593904	-0.000050
C84	C	0.354873	1.604670	0.058562
C85	C	0.429494	1.508976	0.058575
C86	C	0.429507	1.059158	0.508385
C87	C	0.354890	1.059157	0.604098
C88	C	0.317567	1.000559	0.593365
C89	C	0.354873	0.941949	0.486910
C90	C	0.429494	0.941944	0.391200
C91	C	0.429508	1.508957	0.391172
C92	C	0.354891	1.604671	0.486866
C93	C	0.317568	1.593938	0.593329
C94	C	0.354874	1.487483	0.604096
C95	C	0.429495	1.391771	0.508403
C96	C	1.131001	0.492126	-0.391223
C97	C	1.205641	0.396412	-0.486918
C98	C	1.242967	0.407145	-0.593380
C99	C	1.205657	0.513601	-0.604147
C100	C	1.131023	0.609312	-0.508454
C101	C	1.131001	0.609339	0.058566
C102	C	1.205639	0.513643	0.058559
C103	C	1.242964	0.407180	-0.000041
C104	C	1.205654	0.396413	-0.058649
C105	C	1.131023	0.492108	-0.058649
C106	C	1.130993	1.059138	-0.391224
C107	C	1.205611	1.059157	-0.486919
C108	C	1.242934	1.000558	-0.593381
C109	C	1.205627	0.941947	-0.604148
C110	C	1.131006	0.941936	-0.508454
H111	H	0.342602	1.150932	0.150357
H112	H	0.324474	1.691365	0.106270
Cl113	Cl	0.223754	1.714196	-0.000075
Cl114	Cl	1.252523	0.527204	0.132249
H115	H	1.100650	0.483325	-0.106365
Cl116	Cl	0.981915	0.871233	-0.516411
H117	H	0.459852	0.894226	0.304532
H118	H	1.303739	0.329202	-0.671291
H119	H	1.100617	0.696018	0.106293
Cl120	Cl	0.665434	1.074159	-0.464164
Cl121	Cl	1.252583	0.262565	-0.132308
H122	H	1.303695	1.000577	-0.671292
Cl123	Cl	0.895061	0.389174	-0.073653
H124	H	1.100617	1.106855	-0.304545
H125	H	0.256807	1.671882	0.671240
H126	H	0.459885	1.517718	0.304493
H127	H	1.100648	0.695982	-0.517236
Cl128	Cl	0.665438	1.074170	-0.388659
Cl129	Cl	1.336785	0.286887	-0.000028
Cl130	Cl	1.252501	1.132837	-0.473357
Cl131	Cl	1.252567	0.868274	-0.737996
Cl132	Cl	0.153953	1.270502	0.269938
Cl133	Cl	1.084134	0.868235	-0.522012
H134	H	0.217881	0.850164	-0.150386
H135	H	0.030664	1.233791	0.233208
Cl136	Cl	0.476414	1.257917	-0.132307
Cl137	Cl	0.476368	1.522533	0.132274
H138	H	0.324524	1.691343	0.478080
H139	H	0.324473	0.894240	0.478188
Cl140	Cl	-0.061785	1.187610	0.187032
H141	H	0.619033	0.695609	0.103355
Cl142	Cl	0.406548	0.730571	-0.269961
H143	H	0.941466	0.897157	-0.695090
Cl144	Cl	0.307942	1.474009	0.737944
H145	H	0.529837	0.767283	-0.233275
H146	H	0.324523	1.478653	-0.106376
H147	H	0.577129	0.850170	-0.150363
H148	H	0.459854	1.305103	0.517187
H149	H	0.459887	1.106876	0.517146
H150	H	0.619036	0.512227	0.103344
Cl151	Cl	1.252526	0.262597	-0.473356
Cl152	Cl	0.895065	0.464679	-0.073641
H153	H	1.100614	0.483366	-0.304544
H154	H	0.324524	1.106889	0.690769
Cl155	Cl	1.252588	0.527075	-0.737995
H156	H	0.256806	1.000572	0.671308
