data_functionalizedCrystal
_audit_creation_method	'MofGen! by Chris Wilmer'
_symmetry_space_group_name_H-M	'P1'
_symmetry_Int_Tables_number	1
_symmetry_cell_setting	triclinic
loop_
_symmetry_equiv_pos_as_xyz
  x,y,z
_cell_length_a	6.817900
_cell_length_b	12.714941
_cell_length_c	9.514072
_cell_angle_alpha	86.187149
_cell_angle_beta	118.843421
_cell_angle_gamma	81.101177
loop_
_atom_site_label
_atom_site_type_symbol
_atom_site_fract_x
_atom_site_fract_y
_atom_site_fract_z
V1	V	-4.062191	0.333094	-0.225493
O2	O	-3.961990	0.325894	0.007461
O3	O	-4.097177	0.331642	-0.443868
O4	O	-3.991050	0.477990	-0.223505
O5	O	-4.068851	0.178532	-0.214428
V6	V	-4.537960	0.314507	-0.197454
O7	O	-4.340457	0.373866	-0.286998
O8	O	-4.709892	0.273734	-0.135948
O9	O	-4.279767	0.315958	0.020921
O10	O	-4.755558	0.321706	-0.430407
O11	O	-4.648697	0.469068	-0.208519
O12	O	-4.385894	0.169610	-0.199441
C13	C	-3.963199	0.326600	-0.497057
C14	C	-4.072940	0.326379	-0.675591
C15	C	-4.212467	0.134314	-0.206991
C16	C	-4.168032	0.015853	-0.207163
C17	C	-3.743768	-0.195845	-0.223587
C18	C	-3.702009	-0.307148	-0.223751
C19	C	-4.042746	-0.318061	-0.207641
C20	C	-4.084504	-0.206757	-0.207478
C21	C	-3.935009	-0.145652	-0.215454
C22	C	-3.976779	-0.034346	-0.215302
C23	C	-4.317504	-0.045262	-0.199181
C24	C	-4.275746	-0.156565	-0.199344
C25	C	-3.827822	0.513281	-0.215960
C26	C	-3.851493	0.631740	-0.215780
C27	C	-4.077091	0.320997	0.074102
C28	C	-3.946588	0.321225	0.252634
H29	H	-4.265097	0.330660	-0.750743
H30	H	-3.622051	-0.146091	-0.230093
H31	H	-3.754439	0.316929	-0.672219
O32	O	-3.831563	0.025104	-0.222822
C33	C	-3.573097	0.142057	-0.091996
C34	C	-3.737543	0.074799	-0.083301
H35	H	-3.496999	0.182235	0.020807
H36	H	-3.671101	0.206612	-0.205283
H37	H	-3.429318	0.087047	-0.097909
H38	H	-3.881356	0.129723	-0.077327
H39	H	-3.639377	0.010234	0.029968
O40	O	-3.516515	-0.355979	-0.231922
C41	C	-3.379500	-0.460195	-0.381563
C42	C	-3.589758	-0.404978	-0.372455
H43	H	-3.438644	-0.499806	-0.495192
H44	H	-3.264320	-0.524214	-0.269112
H45	H	-3.279869	-0.397367	-0.387175
H46	H	-3.689569	-0.467727	-0.366895
H47	H	-3.704773	-0.340939	-0.484903
O48	O	-4.187793	-0.377408	-0.199599
C49	C	-4.358590	-0.435723	-0.045992
C50	C	-4.194217	-0.368493	-0.054875
H51	H	-4.363875	-0.428520	0.070991
H52	H	-4.295915	-0.523925	-0.047388
H53	H	-4.537813	-0.404432	-0.155081
H54	H	-4.014949	-0.399690	0.054190
H55	H	-4.257085	-0.280301	-0.053557
O56	O	-4.420805	-0.215909	-0.191314
C57	C	-4.591644	-0.274220	-0.037735
C58	C	-4.427248	-0.206997	-0.046597
H59	H	-4.596943	-0.267020	0.079243
H60	H	-4.528980	-0.362422	-0.039138
H61	H	-4.770859	-0.242921	-0.146830
H62	H	-4.247987	-0.238201	0.062474
H63	H	-4.490103	-0.118805	-0.045273
H64	H	-4.473238	-0.004383	-0.192568
