data_functionalizedCrystal
_audit_creation_method	'MofGen! by Chris Wilmer'
_symmetry_space_group_name_H-M	'P1'
_symmetry_Int_Tables_number	1
_symmetry_cell_setting	triclinic
loop_
_symmetry_equiv_pos_as_xyz
  x,y,z
_cell_length_a	14.446369
_cell_length_b	18.760492
_cell_length_c	18.760490
_cell_angle_alpha	90.016060
_cell_angle_beta	60.025577
_cell_angle_gamma	59.996212
loop_
_atom_site_label
_atom_site_type_symbol
_atom_site_fract_x
_atom_site_fract_y
_atom_site_fract_z
Zr1	Zr	1.013611	-0.093498	0.686551
O2	O	1.206668	-0.207335	0.572765
O3	O	0.820510	-0.058597	0.721432
O4	O	1.013629	-0.207311	0.721440
O5	O	1.013550	0.058682	0.572752
O6	O	1.013692	-0.207297	0.838718
O7	O	1.013550	-0.058621	0.572757
O8	O	0.668238	0.058725	0.838704
O9	O	1.359004	-0.207340	0.572766
O10	O	0.899998	-0.043707	0.823833
O11	O	0.899951	0.043824	0.736306
O12	O	1.127324	-0.131267	0.736315
O13	O	1.127277	-0.043736	0.648787
Zr14	Zr	1.013712	0.093607	0.873589
Zr15	Zr	1.013711	-0.093477	0.873597
Zr16	Zr	1.013611	0.093586	0.686543
Zr17	Zr	1.256569	-0.093507	0.686553
Zr18	Zr	0.770754	0.093616	0.873587
O19	O	1.206812	0.058706	0.838708
O20	O	1.206811	-0.207304	0.838720
O21	O	1.206669	0.058675	0.572753
O22	O	0.820654	0.207444	0.987375
O23	O	0.820653	-0.058566	0.987387
O24	O	0.820511	0.207413	0.721421
O25	O	1.013772	-0.058573	0.987388
O26	O	1.013693	0.207420	0.838700
O27	O	1.013630	0.207406	0.721422
O28	O	1.013773	0.058730	0.987383
O29	O	1.359084	-0.207323	0.721442
O30	O	0.668238	0.207432	0.838698
O31	O	0.668318	0.207449	0.987374
O32	O	0.668318	0.058742	0.987381
O33	O	1.359004	-0.058633	0.572759
O34	O	1.359084	-0.058616	0.721436
O35	O	0.899998	0.131376	0.823825
O36	O	0.900045	0.043845	0.911353
O37	O	1.127371	-0.043715	0.823835
O38	O	1.127324	0.043816	0.736307
C39	C	0.709758	0.000065	0.780068
C40	C	0.606616	0.000069	0.780067
C41	C	1.013535	0.000027	0.546104
C42	C	1.013493	0.000018	0.466699
C43	C	1.013661	-0.233959	0.780080
C44	C	1.013661	-0.313382	0.780084
C45	C	0.459577	0.055528	0.725128
C46	C	0.567196	0.055304	0.724829
C47	C	0.655590	-0.095065	0.739803
C48	C	0.548357	-0.094777	0.739390
C49	C	0.373209	0.038926	0.875310
C50	C	0.479360	0.040867	0.875170
C51	C	1.317564	0.000044	0.780072
C52	C	1.420706	0.000040	0.780073
C53	C	0.894995	-0.603490	0.825745
C54	C	1.132327	-0.694900	0.734374
C55	C	1.132329	-0.620279	0.734380
C56	C	1.013662	-0.537260	0.780068
C57	C	0.894993	-0.528861	0.825750
C58	C	1.250996	-0.628671	0.688691
C59	C	1.251002	-0.554048	0.688694
C60	C	1.132334	-0.471027	0.734388
C61	C	1.013660	-0.462631	0.780073
C62	C	0.894993	-0.379612	0.825761
C63	C	0.776318	-0.371214	0.871451
C64	C	0.776325	-0.445840	0.871443
C65	C	1.132327	-0.396401	0.734396
C66	C	0.894992	-0.304983	0.825766
C67	C	1.013662	0.234068	0.780060
C68	C	1.013662	0.313491	0.780057
C69	C	1.013795	-0.064543	0.130714
C70	C	1.013795	0.064710	0.130824
C71	C	1.013730	0.064695	0.205471
C72	C	1.013696	0.000062	0.242743
C73	C	1.013726	-0.064557	0.205369
C74	C	1.013686	0.129319	0.242855
C75	C	1.013620	0.129307	0.317507
C76	C	1.013595	0.064670	0.354777
C77	C	1.013627	0.000047	0.317397
C78	C	1.013592	-0.064586	0.354670
C79	C	1.013634	-0.129213	0.317288
C80	C	1.013701	-0.129195	0.242638
C81	C	1.013527	0.064652	0.429426
C82	C	1.013523	-0.064601	0.429324
C83	C	1.013787	0.000082	1.014036
C84	C	1.013830	0.000091	1.093442
C85	C	0.709884	0.000092	1.014034
C86	C	0.606784	0.000105	1.093439
C87	C	0.709758	0.234079	0.780058
C88	C	0.606616	0.313505	0.780054
C89	C	0.709884	0.234106	1.014024
C90	C	0.606785	0.313541	1.093425
C91	C	1.317438	-0.233997	0.546117
C92	C	1.420537	-0.313432	0.466715
C93	C	1.317439	0.000017	0.546107
C94	C	1.420538	0.000004	0.466701
C95	C	1.317564	-0.233970	0.780082
C96	C	1.420706	-0.313396	0.780086
C97	C	0.558343	-0.045598	1.085044
C98	C	0.461484	-0.045603	1.159646
C99	C	0.413061	0.000100	1.242643
C100	C	0.461511	0.045804	1.251036
C101	C	0.558376	0.045804	1.176434
C102	C	0.558204	0.396513	0.825736
C103	C	0.461305	0.471149	0.825729
C104	C	0.412813	0.462775	0.780044
C105	C	0.461234	0.379758	0.734356
C106	C	0.558138	0.305124	0.734358
C107	C	0.558393	0.305154	1.176409
C108	C	0.461534	0.379785	1.251023
C109	C	0.413062	0.462801	1.242650
C110	C	0.461463	0.471187	1.159657
C111	C	0.558327	0.396557	1.085046
C112	C	1.468941	-0.305045	0.383731
C113	C	1.565830	-0.379676	0.309117
C114	C	1.614308	-0.462692	0.317490
C115	C	1.565900	-0.471078	0.400483
C116	C	1.469019	-0.396448	0.475094
C117	C	1.468989	0.045699	0.475096
C118	C	1.565875	0.045684	0.400494
C119	C	1.614302	-0.000022	0.317498
C120	C	1.565847	-0.045723	0.309104
C121	C	1.468969	-0.045712	0.383706
C122	C	1.469167	-0.304994	0.825780
C123	C	1.566067	-0.379616	0.825801
C124	C	1.614511	-0.462639	0.780123
C125	C	1.566040	-0.471039	0.734427
C126	C	1.469135	-0.396418	0.734412
H127	H	0.530501	0.125357	0.751838
H128	H	1.605311	0.082902	0.407345
Cl129	Cl	1.408061	-0.103157	0.373137
Cl130	Cl	1.408018	-0.200690	0.373182
Cl131	Cl	1.013490	-0.145864	0.476171
H132	H	1.605497	-0.538646	0.697237
Cl133	Cl	1.408137	0.103160	0.579426
Cl134	Cl	1.408286	-0.200631	0.883214
Cl135	Cl	1.736090	-0.000024	0.223720
Cl136	Cl	0.291285	0.556614	1.336457
H137	H	0.421983	0.538789	1.152853
Cl138	Cl	1.408171	-0.407007	0.579414
Cl139	Cl	1.626661	-0.369114	0.204795
Cl140	Cl	1.736100	-0.556505	0.223683
Cl141	Cl	1.626734	-0.103173	0.204759
Cl142	Cl	0.400589	-0.103060	1.149074
Cl143	Cl	1.626990	-0.369035	0.883246
H144	H	0.597844	0.237564	1.183243
H145	H	1.013834	-0.117163	0.100274
Cl146	Cl	0.619143	0.407116	0.980726
Cl147	Cl	0.619252	0.103272	1.187004
H148	H	0.422071	0.083014	1.318622
Cl149	Cl	0.627143	-0.266841	0.928878
Cl150	Cl	0.228545	0.145439	0.927232
H151	H	0.597543	0.237538	0.697161
H152	H	1.347635	-0.560895	0.651492
Cl153	Cl	0.704253	0.013672	0.616370
Cl154	Cl	0.619142	0.407063	0.883178
H155	H	1.693417	-0.523393	0.780142
H156	H	0.798372	-0.596657	0.862947
Cl157	Cl	1.626851	-0.575448	0.410994
Cl158	Cl	1.408236	-0.406996	0.676952
H159	H	0.370723	0.125755	0.751994
H160	H	0.333908	0.523554	0.780049
Cl161	Cl	0.514642	0.014298	0.617323
H162	H	0.589017	-0.125906	0.669309
Cl163	Cl	0.400448	0.575502	0.883174
H164	H	0.526408	-0.138367	0.776825
Cl165	Cl	0.400256	0.369246	0.676929
Cl166	Cl	0.400700	0.369223	1.355346
H167	H	0.684396	-0.138196	0.777900
H168	H	1.013597	-0.181835	0.347647
H169	H	1.013588	0.181929	0.347938
Cl170	Cl	0.798046	-0.143457	0.632636
H171	H	0.439775	0.110953	0.905250
Cl172	Cl	0.512588	-0.015039	0.943703
H173	H	0.347256	-0.001297	0.916440
H174	H	0.679706	-0.439012	0.908642
Cl175	Cl	0.745801	-0.200618	0.883211
Cl176	Cl	0.619203	-0.103065	0.980714
Cl177	Cl	1.013717	0.210574	0.196006
Cl178	Cl	1.281499	-0.799264	0.676929
Cl179	Cl	1.400166	-0.733037	0.631243
H180	H	1.228951	-0.403241	0.697188
H181	H	1.013733	-0.181811	0.212198
H182	H	1.013814	0.117336	0.100478
H183	H	0.334187	0.000094	1.303381
Cl184	Cl	1.013463	0.145895	0.476420
