data_functionalizedCrystal
_audit_creation_method	'MofGen! by Chris Wilmer'
_symmetry_space_group_name_H-M	'P1'
_symmetry_Int_Tables_number	1
_symmetry_cell_setting	triclinic
loop_
_symmetry_equiv_pos_as_xyz
  x,y,z
_cell_length_a	16.959455
_cell_length_b	16.959454
_cell_length_c	16.959447
_cell_angle_alpha	89.973264
_cell_angle_beta	90.014322
_cell_angle_gamma	89.982978
loop_
_atom_site_label
_atom_site_type_symbol
_atom_site_fract_x
_atom_site_fract_y
_atom_site_fract_z
Zn1	Zn	1.208384	0.314730	0.446928
Zn2	Zn	1.208306	0.446923	0.314758
Zn3	Zn	1.076212	0.314755	0.314766
Zn4	Zn	1.076177	0.446864	0.446897
O5	O	1.142270	0.380818	0.380837
O6	O	1.318984	0.332280	0.429406
O7	O	1.190766	0.429426	0.204148
O8	O	1.093792	0.204141	0.332314
O9	O	1.318927	0.429402	0.332301
O10	O	1.190898	0.204123	0.429413
O11	O	1.093717	0.332323	0.204154
O12	O	0.965597	0.332265	0.332283
O13	O	1.093732	0.429301	0.557512
O14	O	0.965571	0.429325	0.429359
O15	O	1.190864	0.332223	0.557535
O16	O	1.190732	0.557526	0.332270
O17	O	1.093657	0.557482	0.429352
C18	C	0.936904	0.380792	0.380819
C19	C	0.849047	0.380800	0.380830
C20	C	1.142204	0.586184	0.380824
C21	C	1.142248	0.674041	0.380844
C22	C	0.477560	0.330238	0.330395
C23	C	0.477582	0.431463	0.431324
C24	C	0.560128	0.431452	0.431320
C25	C	0.601394	0.380834	0.380851
C26	C	0.560114	0.330226	0.330387
C27	C	0.601414	0.482064	0.481777
C28	C	0.683965	0.482055	0.481773
C29	C	0.725233	0.431432	0.431308
C30	C	0.683948	0.380822	0.380843
C31	C	0.725213	0.330204	0.330374
C32	C	0.683930	0.279589	0.279913
C33	C	0.601381	0.279603	0.279922
C34	C	0.807781	0.431418	0.431299
C35	C	0.807767	0.330193	0.330366
C36	C	1.142303	0.380753	0.587006
C37	C	1.142317	0.380725	0.674862
C38	C	1.348438	0.380845	0.380856
C39	C	1.436295	0.380856	0.380864
C40	C	1.142358	0.174650	0.380868
C41	C	1.142395	0.086793	0.380881
C42	C	1.091796	1.045524	0.431382
C43	C	1.192963	1.045509	0.330373
C44	C	1.192936	0.962963	0.330365
C45	C	1.142337	0.921694	0.380867
C46	C	1.091765	0.962970	0.431375
C47	C	1.243501	0.921680	0.279852
C48	C	1.243475	0.839130	0.279842
C49	C	1.192879	0.797859	0.330348
C50	C	1.142306	0.839140	0.380859
C51	C	1.091707	0.797871	0.431360
C52	C	1.041137	0.839151	0.481876
C53	C	1.041170	0.921699	0.481881
C54	C	1.192847	0.715310	0.330343
C55	C	1.091676	0.715317	0.431353
C56	C	1.142283	0.380826	0.175471
C57	C	1.142422	0.380631	0.087615
C58	C	1.091839	0.431185	1.046328
C59	C	1.192983	0.330097	1.046348
C60	C	1.192962	0.330114	0.963802
C61	C	1.142380	0.380668	0.922515
C62	C	1.091818	0.431205	0.963775
C63	C	1.243529	0.279584	0.922536
C64	C	1.243510	0.279599	0.839985
C65	C	1.192923	0.330149	0.798697
C66	C	1.142359	0.380688	0.839962
C67	C	1.091776	0.431242	0.798675
C68	C	1.041207	0.481777	0.839938
C69	C	1.041231	0.481756	0.922487
C70	C	1.192899	0.330171	0.716149
C71	C	1.091755	0.431262	0.716122
H72	H	0.841360	0.288968	0.289273
H73	H	0.567810	0.523280	0.522860
O74	O	1.292675	0.799156	0.230755
C75	C	1.392995	0.807861	0.130538
C76	C	1.337326	0.853230	0.186099
H77	H	1.429098	0.851559	0.094407
H78	H	1.434341	0.769192	0.166827
H79	H	1.356710	0.769234	0.089205
H80	H	1.373548	0.891899	0.227443
H81	H	1.295978	0.891848	0.149760
H82	H	0.717539	0.238379	0.238818
O83	O	0.992156	0.961887	0.530980
C84	C	0.981485	1.055011	0.637717
C85	C	1.037082	1.009558	0.582154
H86	H	1.017786	1.093552	0.679116
H87	H	0.940207	1.093756	0.601429
H88	H	0.945296	1.011325	0.673777
H89	H	1.073322	1.053187	0.546082
H90	H	1.078307	0.970801	0.618486
O91	O	0.561157	0.230511	0.230938
C92	C	0.433974	0.185623	0.186271
C93	C	0.479433	0.241275	0.241767
H94	H	0.367892	0.194295	0.195019
H95	H	0.450116	0.199412	0.122488
H96	H	0.450268	0.121913	0.200259
H97	H	0.463163	0.305004	0.227850
H98	H	0.463287	0.227418	0.305533
H99	H	0.717571	0.523268	0.522863
H100	H	0.443944	0.289026	0.289313
H101	H	0.443979	0.472679	0.472409
H102	H	1.234154	1.079115	0.289252
H103	H	1.000026	0.522942	0.806312
O104	O	1.042700	1.085740	0.480376
C105	C	0.997944	1.212913	0.525199
C106	C	1.053573	1.167466	0.469661
H107	H	1.006727	1.278996	0.516567
H108	H	0.934194	1.196793	0.511257
H109	H	1.011768	1.196585	0.588936
H110	H	1.039819	1.183770	0.405905
H111	H	1.117307	1.183590	0.483671
H112	H	1.000063	0.522901	0.956091
O113	O	1.042793	0.480248	1.086528
C114	C	0.997953	0.524984	1.213686
C115	C	1.053550	0.469394	1.168258
H116	H	1.006619	0.516216	1.279772
H117	H	1.011803	0.588743	1.197501
H118	H	0.934229	0.511106	1.197405
H119	H	1.117293	0.483200	1.184514
H120	H	1.039632	0.405651	1.184446
O121	O	0.847761	0.480603	0.480385
C122	C	0.839067	0.581047	0.580456
C123	C	0.793693	0.525371	0.524914
H124	H	0.795372	0.617268	0.616460
H125	H	0.877710	0.544842	0.621901
H126	H	0.877720	0.622290	0.544079
H127	H	0.754997	0.484117	0.561227
H128	H	0.755100	0.561625	0.483467
O129	O	1.292696	0.230613	0.799863
C130	C	1.399335	0.219976	0.706601
C131	C	1.343706	0.275550	0.752010
H132	H	1.440579	0.256285	0.667888
H133	H	1.435549	0.183846	0.750247
H134	H	1.363013	0.178643	0.668010
H135	H	1.379966	0.316931	0.790602
H136	H	1.307489	0.311625	0.708322
H137	H	1.050475	0.681721	0.472480
O138	O	0.992060	0.798936	0.530905
C139	C	0.947147	0.671762	0.575609
C140	C	1.002777	0.717210	0.520059
H141	H	0.955780	0.605678	0.566847
H142	H	0.960994	0.687879	0.639378
H143	H	0.883434	0.688091	0.561684
H144	H	1.066509	0.700906	0.533912
H145	H	0.988862	0.701089	0.456306
H146	H	1.284690	0.955288	0.238731
H147	H	1.050557	0.472422	0.682512
H148	H	1.234016	0.681704	0.289211
O149	O	1.242005	0.280912	1.086487
C150	C	1.252713	0.174215	1.179759
C151	C	1.197103	0.229858	1.134332
H152	H	1.216432	0.132935	1.218465
H153	H	1.288834	0.138039	1.136126
H154	H	1.294052	0.210522	1.218359
H155	H	1.155715	0.193611	1.095731
H156	H	1.161037	0.266036	1.178007
H157	H	1.284715	0.238430	0.956158
O158	O	1.241907	0.281051	0.675978
C159	C	1.252569	0.174326	0.582838
C160	C	1.196977	0.229920	0.628267
H161	H	1.216264	0.132962	0.544266
H162	H	1.293856	0.210592	0.544128
H163	H	1.288747	0.138231	0.626541
H164	H	1.160747	0.266027	0.584622
H165	H	1.155741	0.193609	0.666990
