data_functionalizedCrystal
_audit_creation_method	'MofGen! by Chris Wilmer'
_symmetry_space_group_name_H-M	'P1'
_symmetry_Int_Tables_number	1
_symmetry_cell_setting	triclinic
loop_
_symmetry_equiv_pos_as_xyz
  x,y,z
_cell_length_a	19.188940
_cell_length_b	10.654541
_cell_length_c	9.730217
_cell_angle_alpha	90.000068
_cell_angle_beta	89.996322
_cell_angle_gamma	96.183679
loop_
_atom_site_label
_atom_site_type_symbol
_atom_site_fract_x
_atom_site_fract_y
_atom_site_fract_z
O1	O	0.098052	-1.665770	-0.114249
O2	O	0.107397	-1.300094	-0.114262
O3	O	0.001138	-1.493478	-0.114245
O4	O	0.204311	-1.472385	-0.114266
O5	O	0.001137	-1.493472	0.114336
O6	O	0.107396	-1.300088	0.114319
O7	O	0.098051	-1.665764	0.114331
Zn8	Zn	0.102723	-1.482925	0.150617
Zn9	Zn	0.102725	-1.482933	-0.150547
O10	O	0.204310	-1.472379	0.114314
C11	C	0.106710	-1.253307	0.000027
C12	C	0.104659	-1.113907	0.000023
C13	C	-0.024878	-1.492790	0.000045
C14	C	-0.102395	-1.490734	0.000044
C15	C	0.098738	-1.712550	0.000039
C16	C	0.100789	-1.851951	0.000034
C17	C	-0.655751	-1.476099	0.124611
C18	C	-0.582914	-1.478018	0.124618
C19	C	-0.546487	-1.478986	0.000021
C20	C	-0.582902	-1.478004	-0.124593
C21	C	-0.655736	-1.476073	-0.124598
N22	N	-0.436976	-1.553480	-0.092717
N23	N	-0.367786	-1.555317	-0.092705
C24	C	-0.327040	-1.484802	0.000026
N25	N	-0.358098	-1.412396	0.092765
N26	N	-0.427295	-1.410565	0.092756
C27	C	-0.467510	-1.481080	0.000011
C28	C	-0.211656	-1.487856	0.124641
C29	C	-0.138817	-1.489767	0.124643
C30	C	-0.138807	-1.489766	-0.124572
C31	C	-0.211644	-1.487842	-0.124571
C32	C	-0.248064	-1.486894	0.000039
C33	C	0.230326	-1.473068	0.000021
C34	C	0.307843	-1.475124	0.000013
N35	N	0.102722	-1.482929	0.356153
C36	C	0.231720	-1.083255	-0.000008
C37	C	0.294283	-1.002441	-0.000029
C38	C	0.292351	-0.871464	-0.000030
C39	C	0.227849	-0.821299	-0.000006
C40	C	0.165285	-0.902114	0.000015
C41	C	0.167224	-1.033092	0.000012
C42	C	0.038226	-0.932765	0.000055
C43	C	0.040156	-1.063743	0.000047
C44	C	-0.026277	-0.882601	0.000079
C45	C	-0.088842	-0.963415	0.000090
C46	C	-0.086907	-1.094400	0.000090
C47	C	-0.022407	-1.144557	0.000067
N48	N	0.102720	-1.482939	-0.356084
C49	C	0.008658	-1.654240	0.356159
C50	C	-0.038372	-1.739904	0.428102
C51	C	-0.038373	-1.739917	0.571981
C52	C	0.008661	-1.654254	0.643922
C53	C	0.055691	-1.568590	0.571979
C54	C	0.055688	-1.568589	0.428096
C55	C	0.149751	-1.397275	0.571973
C56	C	0.149755	-1.397266	0.428094
C57	C	0.196784	-1.311612	0.643914
C58	C	0.243818	-1.225952	0.571971
C59	C	0.243817	-1.225944	0.428082
C60	C	0.196785	-1.311602	0.356151
H61	H	-0.685400	-1.475325	0.226078
H62	H	-0.141355	-0.922560	0.000108
O63	O	-0.250913	-1.486801	-0.258966
H64	H	-0.307678	-1.485285	-0.238037
O65	O	0.225761	-0.680032	0.000017
H66	H	0.252668	-0.638869	-0.093155
H67	H	0.233299	-1.189902	-0.000037
O68	O	0.294550	-1.133574	0.649553
H69	H	0.264846	-1.072712	0.715119
O70	O	-0.099550	-1.490833	0.259043
H71	H	-0.107732	-1.404907	0.318813
O72	O	0.363853	-1.056542	-0.000058
H73	H	0.354690	-1.161195	-0.000067
O74	O	-0.028367	-0.741333	0.000082
H75	H	0.025972	-0.693563	0.000051
H76	H	-0.241310	-1.487073	0.226106
O77	O	-0.543634	-1.479088	0.259010
H78	H	-0.581197	-1.478114	0.345656
O79	O	0.359827	-0.784288	-0.000055
H80	H	0.405005	-0.841167	-0.000078
H81	H	0.008659	-1.654248	0.239004
H82	H	0.196783	-1.311607	0.238996
O83	O	-0.089120	-1.832262	0.350514
H84	H	-0.081224	-1.817861	0.238378
H85	H	-0.553238	-1.478788	-0.226041
H86	H	-0.685378	-1.475277	-0.226063
H87	H	0.196779	-1.311621	0.761068
H88	H	0.008652	-1.654259	0.761076
H89	H	-0.109148	-1.490539	-0.226022
H90	H	0.282112	-1.156181	0.369514
H91	H	-0.020826	-1.251203	0.000051
O92	O	-0.154387	-1.181565	0.000114
H93	H	-0.199559	-1.124672	0.000123
H94	H	-0.076671	-1.809667	0.630557
