data_functionalizedCrystal
_audit_creation_method	'MofGen! by Chris Wilmer'
_symmetry_space_group_name_H-M	'P1'
_symmetry_Int_Tables_number	1
_symmetry_cell_setting	triclinic
loop_
_symmetry_equiv_pos_as_xyz
  x,y,z
_cell_length_a	16.120530
_cell_length_b	12.645330
_cell_length_c	16.120297
_cell_angle_alpha	92.876762
_cell_angle_beta	90.128140
_cell_angle_gamma	87.113442
loop_
_atom_site_label
_atom_site_type_symbol
_atom_site_fract_x
_atom_site_fract_y
_atom_site_fract_z
Zn1	Zn	1.247482	-0.537081	-0.534595
Zn2	Zn	1.747482	-0.037081	-0.034595
Zn3	Zn	1.254445	-0.705843	-0.395547
Zn4	Zn	1.754445	-0.205843	0.104453
Zn5	Zn	1.115471	-0.519167	-0.388512
Zn6	Zn	1.615471	-0.019167	0.111488
Zn7	Zn	1.108402	-0.704866	-0.527517
Zn8	Zn	1.608402	-0.204866	-0.027517
O9	O	1.181450	-0.616739	-0.461543
O10	O	1.681450	-0.116739	0.038457
O11	O	1.364772	-0.567373	-0.522057
O12	O	1.864772	-0.067373	-0.022057
O13	O	1.241883	-0.673991	-0.278248
O14	O	1.741883	-0.173991	0.221752
O15	O	1.133026	-0.373200	-0.407909
O16	O	1.633026	0.126800	0.092091
O17	O	1.369888	-0.691362	-0.419899
O18	O	1.869888	-0.191362	0.080101
O19	O	1.230014	-0.386361	-0.515235
O20	O	1.730014	0.113639	-0.015235
O21	O	1.139779	-0.536842	-0.273080
O22	O	1.639779	-0.036842	0.226920
O23	O	0.998166	-0.535895	-0.401045
O24	O	1.498166	-0.035895	0.098955
O25	O	1.120978	-0.689698	-0.644821
O26	O	1.620978	-0.189698	-0.144821
O27	O	0.992972	-0.672327	-0.503171
O28	O	1.492972	-0.172327	-0.003171
O29	O	1.223160	-0.566427	-0.650022
O30	O	1.723160	-0.066427	-0.150022
O31	O	1.235028	-0.854056	-0.413035
O32	O	1.735028	-0.354056	0.086965
O33	O	1.127731	-0.853339	-0.509992
O34	O	1.627731	-0.353339	-0.009992
C35	C	0.965397	-0.602062	-0.450577
C36	C	1.465397	-0.102062	0.049423
C37	C	0.872967	-0.595810	-0.445905
C38	C	1.372967	-0.095810	0.054095
C39	C	0.703737	-0.584371	-0.437383
C40	C	1.203737	-0.084371	0.062617
C41	C	0.660000	-0.649190	-0.485763
C42	C	1.160000	-0.149190	0.014237
C43	C	0.565835	-0.642825	-0.481022
C44	C	1.065835	-0.142825	0.018978
C45	C	0.797911	-0.590734	-0.442124
C46	C	1.297911	-0.090734	0.057876
C47	C	1.181390	-0.892164	-0.461528
C48	C	1.681390	-0.392164	0.038472
C49	C	1.181439	-1.009999	-0.461554
C50	C	1.681439	-0.509999	0.038446
C51	C	1.114193	-1.177186	-0.522761
C52	C	1.614193	-0.677186	-0.022761
C53	C	1.113876	-1.054592	-0.522537
C54	C	1.613876	-0.554592	-0.022537
C55	C	1.162161	-1.047614	-0.372717
C56	C	1.662161	-0.547614	0.127283
C57	C	1.161751	-1.170210	-0.373088
C58	C	1.661751	-0.670210	0.126912
C59	C	1.268390	-1.184441	-0.488492
C60	C	1.768390	-0.684441	0.011508
C61	C	1.267753	-1.061915	-0.490381
C62	C	1.767753	-0.561915	0.009619
C63	C	1.398347	-0.631475	-0.472552
C64	C	1.898347	-0.131475	0.027448
C65	C	1.490775	-0.637754	-0.477244
C66	C	1.990775	-0.137754	0.022756
C67	C	1.170504	-0.629952	-0.678438
C68	C	1.670504	-0.129952	-0.178438
C69	C	1.165839	-0.635582	-0.770865
C70	C	1.665839	-0.135582	-0.270865
C71	C	1.181532	-0.340242	-0.461577
C72	C	1.681532	0.159758	0.038423
C73	C	1.181567	-0.222415	-0.461592
C74	C	1.681567	0.277585	0.038408
C75	C	1.157292	-0.645836	-0.940091
C76	C	1.657292	-0.145836	-0.440091
C77	C	1.205771	-0.587337	-0.983855
C78	C	1.705771	-0.087337	-0.483855
C79	C	1.201016	-0.593042	-1.078018
C80	C	1.701016	-0.093042	-0.578018
C81	C	1.162047	-0.640132	-0.845919
C82	C	1.662047	-0.140132	-0.345919
C83	C	1.192401	-0.603505	-0.245494
C84	C	1.692401	-0.103505	0.254506
C85	C	1.197227	-0.597587	-0.153075
C86	C	1.697227	-0.097587	0.346925
H87	H	1.125592	-1.211590	-0.588700
H88	H	1.625592	-0.711590	-0.088700
N89	N	0.704074	-0.729046	-0.545334
N90	N	1.204074	-0.229046	-0.045334
H91	H	0.661764	-0.771422	-0.576959
H92	H	1.161764	-0.271422	-0.076959
H93	H	0.738193	-0.690718	-0.585658
H94	H	1.238193	-0.190718	-0.085658
N95	N	1.129161	-1.021252	-0.609607
N96	N	1.629161	-0.521252	-0.109607
H97	H	1.080347	-0.975109	-0.628229
H98	H	1.580347	-0.475109	-0.128229
H99	H	1.181230	-0.980113	-0.610388
H100	H	1.681230	-0.480113	-0.110388
H101	H	0.670462	-0.524103	-0.392405
H102	H	1.170462	-0.024103	0.107595
N103	N	1.287122	-1.030121	-0.577004
N104	N	1.787122	-0.530121	-0.077004
H105	H	1.340315	-0.991157	-0.576171
H106	H	1.840315	-0.491157	-0.076171
H107	H	1.293797	-1.095650	-0.615339
H108	H	1.793797	-0.595650	-0.115339
H109	H	1.050134	-1.202791	-0.504798
H110	H	1.550134	-0.702791	-0.004798
H111	H	1.049419	-1.020022	-0.504364
H112	H	1.549419	-0.520022	-0.004364
N113	N	1.077860	-1.200905	-0.343586
N114	N	1.577860	-0.700905	0.156414
H115	H	1.041493	-1.134828	-0.330463
H116	H	1.541493	-0.634828	0.169537
H117	H	1.050952	-1.245913	-0.388573
H118	H	1.550952	-0.745913	0.111427
N119	N	1.265486	-0.515332	-0.939812
N120	N	1.765486	-0.015332	-0.439812
H121	H	1.324148	-0.536736	-0.957901
H122	H	1.824148	-0.036736	-0.457901
H123	H	1.251785	-0.439628	-0.954228
H124	H	1.751785	0.060372	-0.454228
N125	N	1.097584	-0.717833	-0.984139
N126	N	1.597584	-0.217833	-0.484139
H127	H	1.129580	-0.771389	-1.021901
H128	H	1.629580	-0.271389	-0.521901
H129	H	1.065896	-0.756014	-0.941770
H130	H	1.565896	-0.256014	-0.441770
N131	N	1.079170	-0.999799	-0.342808
N132	N	1.579170	-0.499799	0.157192
H133	H	1.067321	-1.024478	-0.285598
H134	H	1.567321	-0.524478	0.214402
H135	H	1.080488	-0.919939	-0.340452
H136	H	1.580488	-0.419939	0.159548
H137	H	1.208935	-1.199856	-0.325719
H138	H	1.708935	-0.699856	0.174281
N139	N	1.337282	-1.022302	-0.436141
N140	N	1.837282	-0.522302	0.063859
H141	H	1.313708	-0.969911	-0.391913
H142	H	1.813708	-0.469911	0.108087
H143	H	1.366445	-1.084101	-0.408968
H144	H	1.866445	-0.584101	0.091032
N145	N	1.225357	-1.009058	-0.310431
N146	N	1.725357	-0.509058	0.189569
H147	H	1.267191	-0.966734	-0.339270
H148	H	1.767191	-0.466734	0.160730
H149	H	1.196298	-0.962786	-0.265401
H150	H	1.696298	-0.462786	0.234599
N151	N	1.292850	-1.232364	-0.573140
N152	N	1.792850	-0.732364	-0.073140
H153	H	1.348733	-1.206962	-0.589177
H154	H	1.848733	-0.706962	-0.089177
H155	H	1.296238	-1.312201	-0.571497
H156	H	1.796238	-0.812201	-0.071497
N157	N	1.334811	-1.223315	-0.429553
N158	N	1.834811	-0.723315	0.070447
H159	H	1.308836	-1.265320	-0.385639
H160	H	1.808836	-0.765320	0.114361
H161	H	1.377678	-1.269965	-0.461452
H162	H	1.877678	-0.769965	0.038548
