data_functionalizedCrystal
_audit_creation_method	'MofGen! by Chris Wilmer'
_symmetry_space_group_name_H-M	'P1'
_symmetry_Int_Tables_number	1
_symmetry_cell_setting	triclinic
loop_
_symmetry_equiv_pos_as_xyz
  x,y,z
_cell_length_a	11.792241
_cell_length_b	10.967819
_cell_length_c	9.482900
_cell_angle_alpha	68.706355
_cell_angle_beta	80.596456
_cell_angle_gamma	95.541128
loop_
_atom_site_label
_atom_site_type_symbol
_atom_site_fract_x
_atom_site_fract_y
_atom_site_fract_z
O1	O	-0.077850	1.746071	-0.558334
O2	O	0.422150	2.246071	-0.058334
O3	O	-0.106896	1.367715	-0.463543
O4	O	0.393104	1.867715	0.036457
O5	O	0.073114	1.566076	-0.513248
O6	O	0.573114	2.066076	-0.013248
O7	O	-0.257861	1.547710	-0.508629
O8	O	0.242139	2.047710	-0.008629
O9	O	0.036408	1.525786	-0.261359
O10	O	0.536408	2.025786	0.238641
O11	O	-0.143603	1.327425	-0.211655
O12	O	0.356397	1.827425	0.288345
O13	O	-0.114556	1.705780	-0.306445
O14	O	0.385444	2.205780	0.193555
Cu15	Cu	-0.132431	1.512924	-0.236051
Cu16	Cu	0.367569	2.012924	0.263949
Cu17	Cu	-0.089022	1.560572	-0.533938
Cu18	Cu	0.410978	2.060572	-0.033938
O19	O	-0.294567	1.507419	-0.256741
O20	O	0.205433	2.007419	0.243259
C21	C	-0.125909	1.299132	-0.325464
C22	C	0.374091	1.799132	0.174536
C23	C	-0.127858	1.154803	-0.289305
C24	C	0.372142	1.654803	0.210695
C25	C	-0.111735	0.962166	-0.366328
C26	C	0.388265	1.462166	0.133672
C27	C	-0.109713	1.111338	-0.403690
C28	C	0.390287	1.611338	0.096310
C29	C	-0.318466	1.528718	-0.382972
C30	C	0.181534	2.028718	0.117028
C31	C	-0.444361	1.532169	-0.383830
C32	C	0.055639	2.032169	0.116170
C33	C	-0.674850	1.538524	-0.385459
C34	C	-0.174850	2.038524	0.114541
C35	C	-0.546589	1.534993	-0.384554
C36	C	-0.046589	2.034993	0.115446
C37	C	0.097013	1.544778	-0.387020
C38	C	0.597013	2.044778	0.112980
C39	C	0.222911	1.541328	-0.386172
C40	C	0.722911	2.041328	0.113828
C41	C	-0.095544	1.774364	-0.444528
C42	C	0.404456	2.274364	0.055472
C43	C	-0.093592	1.918695	-0.480696
C44	C	0.406408	2.418695	0.019304
N45	N	-0.162962	1.479420	-0.026535
N46	N	0.337038	1.979420	0.473465
N47	N	-0.058481	1.594086	-0.743456
N48	N	0.441519	2.094086	-0.243456
C49	C	-0.098021	1.550681	0.027808
C50	C	0.401979	2.050681	0.527808
C51	C	-0.123432	1.522815	0.202208
C52	C	0.376568	2.022815	0.702208
H53	H	-0.128771	0.888946	-0.240752
H54	H	0.371229	1.388946	0.259248
H55	H	-0.237369	1.397776	0.056053
H56	H	0.262631	1.897776	0.556053
H57	H	-0.197843	1.441165	0.284792
H58	H	0.302157	1.941165	0.784792
F59	F	-0.071341	1.014391	-0.644837
F60	F	0.428659	1.514391	-0.144837
F61	F	0.038603	1.701021	0.148555
F62	F	0.538603	2.201021	0.648555
F63	F	-0.087461	1.207030	-0.567839
F64	F	0.412539	1.707030	-0.067839
H65	H	-0.144896	1.081587	-0.163720
H66	H	0.355104	1.581587	0.336280
F67	F	-0.000566	1.657158	-0.080076
F68	F	0.499434	2.157158	0.419924
