data_functionalizedCrystal
_audit_creation_method	'MofGen! by Chris Wilmer'
_symmetry_space_group_name_H-M	'P1'
_symmetry_Int_Tables_number	1
_symmetry_cell_setting	triclinic
loop_
_symmetry_equiv_pos_as_xyz
  x,y,z
_cell_length_a	15.944551
_cell_length_b	15.021413
_cell_length_c	9.065215
_cell_angle_alpha	89.994965
_cell_angle_beta	84.256718
_cell_angle_gamma	90.002826
loop_
_atom_site_label
_atom_site_type_symbol
_atom_site_fract_x
_atom_site_fract_y
_atom_site_fract_z
O1	O	1.115969	0.073937	0.190252
O2	O	0.871597	0.073959	0.213711
O3	O	0.998835	0.073944	-0.012779
O4	O	0.988731	0.073952	0.416742
O5	O	0.998815	-0.074120	-0.012747
O6	O	0.871577	-0.074105	0.213743
O7	O	1.115949	-0.074127	0.190285
Zn8	Zn	0.993760	-0.097624	0.202019
Zn9	Zn	0.993786	0.097457	0.201976
O10	O	0.988710	-0.074112	0.416775
C11	C	0.840286	-0.000070	0.212753
C12	C	0.747017	-0.000062	0.209834
C13	C	0.531045	-0.000082	0.062466
C14	C	0.470553	0.072923	0.130882
C15	C	0.576252	-0.000072	0.204552
C16	C	0.470556	-0.073057	0.130948
C17	C	0.411300	-0.000087	0.199439
C18	C	0.516988	0.072993	0.273007
C19	C	0.516997	-0.073053	0.273053
C20	C	0.456523	-0.000030	0.341573
C21	C	0.671276	-0.000063	0.207493
C22	C	0.316277	-0.000089	0.196509
N23	N	0.993747	-0.230762	0.202047
C24	C	0.934903	-0.470438	0.306727
C25	C	1.011020	-0.529779	0.335368
C26	C	0.993769	-0.412369	0.202010
C27	C	0.917672	-0.529770	0.173402
C28	C	0.993782	-0.587793	0.201978
C29	C	1.069925	-0.470403	0.230718
C30	C	0.976526	-0.470389	0.068694
C31	C	1.052698	-0.529703	0.097278
C32	C	0.993760	-0.311312	0.202033
C33	C	0.993800	-0.688848	0.201955
C34	C	1.147260	-0.000096	0.191242
C35	C	1.240528	-0.000098	0.194162
C36	C	0.997855	-0.000087	-0.067727
C37	C	0.994953	-0.000084	-0.231502
N38	N	0.993805	0.230594	0.201937
C39	C	0.989691	-0.000079	0.471723
C40	C	0.992593	-0.000076	0.635498
H41	H	0.537574	-0.134774	0.333113
H42	H	1.025616	-0.555865	0.448097
H43	H	0.424258	0.000013	0.459614
O44	O	0.445973	0.146621	0.059424
C45	C	0.390799	0.197516	0.157183
H46	H	0.401913	0.181197	0.276491
H47	H	0.403054	0.271354	0.135393
H48	H	0.322815	0.181155	0.138718
H49	H	1.102540	-0.555561	0.008704
H50	H	1.134299	-0.444435	0.255036
H51	H	0.563485	0.000006	-0.055454
H52	H	0.885173	-0.444417	0.395354
H53	H	0.537439	0.134780	0.333045
H54	H	0.961907	-0.444282	-0.043999
H55	H	0.450006	-0.134775	0.070839
H56	H	0.853313	-0.555850	0.149220
