data_functionalizedCrystal
_audit_creation_method	'MofGen! by Chris Wilmer'
_symmetry_space_group_name_H-M	'P1'
_symmetry_Int_Tables_number	1
_symmetry_cell_setting	triclinic
loop_
_symmetry_equiv_pos_as_xyz
  x,y,z
_cell_length_a	14.971486
_cell_length_b	14.971486
_cell_length_c	13.448316
_cell_angle_alpha	89.988024
_cell_angle_beta	90.006165
_cell_angle_gamma	83.614129
loop_
_atom_site_label
_atom_site_type_symbol
_atom_site_fract_x
_atom_site_fract_y
_atom_site_fract_z
O1	O	-1.186936	-0.116573	0.082578
O2	O	-0.853603	0.216761	0.415911
O3	O	-0.520270	0.550094	0.749245
O4	O	-0.926536	-0.130532	0.082605
O5	O	-0.593203	0.202802	0.415938
O6	O	-0.259869	0.536135	0.749272
O7	O	-1.063716	0.006648	0.082584
O8	O	-0.730382	0.339981	0.415917
O9	O	-0.397049	0.673315	0.749250
O10	O	-1.049757	-0.253752	0.082599
O11	O	-0.716423	0.079581	0.415933
O12	O	-0.383090	0.412914	0.749266
O13	O	-1.063721	0.006672	-0.082800
O14	O	-0.730387	0.340006	0.250533
O15	O	-0.397054	0.673339	0.583867
O16	O	-0.926541	-0.130507	-0.082779
O17	O	-0.593208	0.202826	0.250555
O18	O	-0.259875	0.536160	0.583888
O19	O	-1.186941	-0.116548	-0.082806
O20	O	-0.853608	0.216785	0.250527
O21	O	-0.520275	0.550118	0.583861
Cu22	Cu	-1.056742	-0.123526	-0.097893
Cu23	Cu	-0.723408	0.209808	0.235440
Cu24	Cu	-0.390075	0.543141	0.568774
Cu25	Cu	-1.056736	-0.123554	0.097692
Cu26	Cu	-0.723402	0.209779	0.431026
Cu27	Cu	-0.390069	0.543112	0.764359
O28	O	-1.049762	-0.253728	-0.082784
O29	O	-0.716429	0.079605	0.250549
O30	O	-0.383095	0.412939	0.583882
C31	C	-0.893214	-0.129895	-0.000083
C32	C	-0.559881	0.203438	0.333250
C33	C	-0.226547	0.536772	0.666583
C34	C	-0.793917	-0.128024	-0.000073
C35	C	-0.460583	0.205309	0.333260
C36	C	-0.127250	0.538642	0.666593
C37	C	-1.063094	0.039985	-0.000108
C38	C	-0.729761	0.373318	0.333226
C39	C	-0.396427	0.706652	0.666559
C40	C	-1.061223	0.139282	-0.000107
C41	C	-0.727890	0.472615	0.333227
C42	C	-0.394556	0.805949	0.666560
C43	C	-1.220263	-0.117185	-0.000115
C44	C	-0.886930	0.216149	0.333218
C45	C	-0.553597	0.549482	0.666552
C46	C	-1.319561	-0.119056	-0.000119
C47	C	-0.986227	0.214278	0.333215
C48	C	-0.652894	0.547611	0.666548
C49	C	-0.736692	-0.208614	-0.000070
C50	C	-0.403358	0.124720	0.333264
C51	C	-0.070025	0.458053	0.666597
C52	C	-0.643392	-0.206850	-0.000085
C53	C	-0.310059	0.126483	0.333249
C54	C	0.023275	0.459816	0.666582
C55	C	-0.607320	-0.124497	-0.000096
C56	C	-0.273986	0.208836	0.333237
C57	C	0.059347	0.542169	0.666571
C58	C	-0.664552	-0.043902	-0.000102
C59	C	-0.331219	0.289432	0.333231
C60	C	0.002114	0.622765	0.666564
C61	C	-0.757850	-0.045666	-0.000095
C62	C	-0.424517	0.287667	0.333239
C63	C	-0.091183	0.621001	0.666572
C64	C	-0.470090	-0.040231	-0.000116
C65	C	-0.136757	0.293103	0.333217
C66	C	0.196577	0.626436	0.666550
C67	C	-0.376786	-0.038466	-0.000122
C68	C	-0.043453	0.294867	0.333211
C69	C	0.289881	0.628200	0.666544
C70	C	-0.355632	-0.201415	-0.000106
C71	C	-0.022299	0.131918	0.333227
C72	C	0.311035	0.465251	0.666560
C73	C	-0.448930	-0.203179	-0.000099
C74	C	-0.115596	0.130154	0.333235
C75	C	0.217737	0.463487	0.666568
C76	C	-0.506156	-0.122584	-0.000103
C77	C	-0.172822	0.210750	0.333230
C78	C	0.160511	0.544083	0.666564
C79	C	-1.050384	-0.287065	-0.000091
C80	C	-0.717050	0.046269	0.333243
C81	C	-0.383717	0.379602	0.666576
C82	C	-1.052254	-0.386362	-0.000085
C83	C	-0.718921	-0.053028	0.333248
C84	C	-0.385588	0.280305	0.666581
N85	N	-1.056753	-0.123505	-0.235457
N86	N	-0.723419	0.209829	0.097876
N87	N	-0.390086	0.543162	0.431209
C88	C	-1.141812	0.196507	-0.000116
C89	C	-0.808479	0.529841	0.333217
C90	C	-0.475146	0.863174	0.666551
C91	C	-1.140049	0.289807	-0.000106
C92	C	-0.806716	0.623140	0.333228
C93	C	-0.473383	0.956473	0.666561
C94	C	-1.057696	0.325879	-0.000093
C95	C	-0.724363	0.659212	0.333240
C96	C	-0.391029	0.992546	0.666573
C97	C	-0.977101	0.268646	-0.000081
C98	C	-0.643767	0.601980	0.333252
C99	C	-0.310434	0.935313	0.666585
C100	C	-0.978865	0.175349	-0.000084
C101	C	-0.645531	0.508682	0.333249
C102	C	-0.312198	0.842015	0.666582
C103	C	-0.973430	0.463109	-0.000077
C104	C	-0.640096	0.796442	0.333256
C105	C	-0.306763	1.129776	0.666589
C106	C	-0.971665	0.556413	-0.000076
C107	C	-0.638332	0.889746	0.333257
C108	C	-0.304998	1.223080	0.666591
C109	C	-1.134614	0.577567	-0.000099
C110	C	-0.801281	0.910900	0.333235
C111	C	-0.467947	1.244233	0.666568
C112	C	-1.136378	0.484269	-0.000102
C113	C	-0.803045	0.817603	0.333232
C114	C	-0.469712	1.150936	0.666565
C115	C	-1.055782	0.427043	-0.000091
C116	C	-0.722449	0.760376	0.333242
C117	C	-0.389116	1.093710	0.666575
N118	N	-1.056732	-0.123568	0.235257
N119	N	-0.723399	0.209765	0.568590
N120	N	-0.390065	0.543099	0.901923
C121	C	-1.002546	-0.069110	0.287292
C122	C	-0.669213	0.264224	0.620625
C123	C	-0.335879	0.597557	0.953958
C124	C	-1.002553	-0.069093	0.391395
C125	C	-0.669220	0.264241	0.724728
C126	C	-0.335887	0.597574	1.058061
C127	C	-1.056743	-0.123539	0.443461
C128	C	-0.723409	0.209794	0.776795
C129	C	-0.390076	0.543127	1.110128
C130	C	-1.110935	-0.178000	0.391419
C131	C	-0.777602	0.155333	0.724752
C132	C	-0.444268	0.488667	1.058086
C133	C	-1.110932	-0.178012	0.287318
C134	C	-0.777598	0.155322	0.620651
C135	C	-0.444265	0.488655	0.953984
C136	C	-1.110936	-0.177973	0.608399
C137	C	-0.777603	0.155360	0.941733
C138	C	-0.444270	0.488693	1.275066
C139	C	-1.110939	-0.177963	0.712508
C140	C	-0.777605	0.155370	1.045841
C141	C	-0.444272	0.488704	1.379174
C142	C	-1.002558	-0.069054	0.712476
C143	C	-0.669225	0.264279	1.045810
C144	C	-0.335891	0.597612	1.379143
C145	C	-1.002555	-0.069066	0.608375
C146	C	-0.669221	0.264267	0.941708
C147	C	-0.335888	0.597601	1.275042
C148	C	-1.056746	-0.123528	0.556340
C149	C	-0.723413	0.209805	0.889673
C150	C	-0.390079	0.543139	1.223007
H151	H	-0.766054	-0.275675	-0.000060
H152	H	-0.432720	0.057658	0.333273
H153	H	-0.099387	0.390992	0.666607
Cl154	Cl	-0.934402	-0.000656	0.456806
Cl155	Cl	-0.601069	0.332678	0.790139
Cl156	Cl	-0.267736	0.666011	1.123472
H157	H	-0.596802	-0.272474	-0.000081
H158	H	-0.263469	0.060859	0.333253
H159	H	0.069864	0.394192	0.666586
H160	H	-0.958432	-0.024711	0.754848
H161	H	-0.625098	0.308622	1.088181
H162	H	-0.291765	0.641955	1.421515
H163	H	-1.155061	-0.222301	0.754897
H164	H	-0.821728	0.111032	1.088231
H165	H	-0.488395	0.444365	1.421564
Cl166	Cl	-1.245348	0.151169	-0.000141
Cl167	Cl	-0.912015	0.484503	0.333192
Cl168	Cl	-0.578682	0.817836	0.666525
Cl169	Cl	-0.934423	-0.000625	0.542921
Cl170	Cl	-0.601089	0.332708	0.876254
Cl171	Cl	-0.267756	0.666041	1.209588
Cl172	Cl	-1.179058	-0.246472	0.221902
Cl173	Cl	-0.845725	0.086861	0.555236
Cl174	Cl	-0.512392	0.420194	0.888569
H175	H	-1.200238	0.624165	-0.000104
H176	H	-0.866905	0.957499	0.333230
H177	H	-0.533572	1.290832	0.666563
H178	H	-0.904606	0.585780	-0.000082
H179	H	-0.571273	0.919113	0.333251
H180	H	-0.237939	1.252446	0.666584
Cl181	Cl	-0.872107	0.391168	-0.000064
Cl182	Cl	-0.538774	0.724502	0.333269
Cl183	Cl	-0.205441	1.057835	0.666603
Cl184	Cl	-0.934414	-0.000663	0.221847
Cl185	Cl	-0.601080	0.332671	0.555180
Cl186	Cl	-0.267747	0.666004	0.888513
Cl187	Cl	-1.241366	0.361744	-0.000120
Cl188	Cl	-0.908033	0.695077	0.333213
Cl189	Cl	-0.574700	1.028411	0.666547
Cl190	Cl	-1.239910	0.438922	-0.000112
Cl191	Cl	-0.906576	0.772256	0.333221
Cl192	Cl	-0.573243	1.105589	0.666555
Cl193	Cl	-0.873570	0.313995	-0.000054
Cl194	Cl	-0.540237	0.647328	0.333280
Cl195	Cl	-0.206903	0.980661	0.666613
H196	H	-0.478296	-0.270239	-0.000080
H197	H	-0.144963	0.063095	0.333253
H198	H	0.188370	0.396428	0.666587
H199	H	-1.155067	-0.222320	0.566036
H200	H	-0.821733	0.111013	0.899369
H201	H	-0.488400	0.444347	1.232702
Cl202	Cl	-0.283691	-0.302736	-0.000103
Cl203	Cl	0.049642	0.030597	0.333230
Cl204	Cl	0.382976	0.363931	0.666564
Cl205	Cl	-0.331439	0.065065	-0.000170
Cl206	Cl	0.001894	0.398398	0.333164
Cl207	Cl	0.335228	0.731732	0.666497
Cl208	Cl	-1.179064	-0.246443	0.456874
Cl209	Cl	-0.845730	0.086890	0.790208
Cl210	Cl	-0.512397	0.420223	1.123541
H211	H	-0.913240	0.128756	-0.000077
H212	H	-0.579907	0.462089	0.333257
H213	H	-0.246574	0.795423	0.666590
H214	H	-0.516682	0.025399	-0.000121
H215	H	-0.183348	0.358732	0.333212
H216	H	0.149985	0.692066	0.666545
Cl217	Cl	-0.829791	0.055651	-0.000103
Cl218	Cl	-0.496458	0.388984	0.333230
Cl219	Cl	-0.163125	0.722317	0.666563
Cl220	Cl	-0.619204	0.059629	-0.000123
Cl221	Cl	-0.285871	0.392962	0.333211
Cl222	Cl	0.047462	0.726295	0.666544
