data_functionalizedCrystal
_audit_creation_method	'MofGen! by Chris Wilmer'
_symmetry_space_group_name_H-M	'P1'
_symmetry_Int_Tables_number	1
_symmetry_cell_setting	triclinic
loop_
_symmetry_equiv_pos_as_xyz
  x,y,z
_cell_length_a	12.759401
_cell_length_b	16.625545
_cell_length_c	12.759393
_cell_angle_alpha	89.966096
_cell_angle_beta	89.980903
_cell_angle_gamma	90.025541
loop_
_atom_site_label
_atom_site_type_symbol
_atom_site_fract_x
_atom_site_fract_y
_atom_site_fract_z
Zn1	Zn	1.606176	-0.320954	-0.593981
Zn2	Zn	1.606037	-0.455811	-0.418294
Zn3	Zn	1.430478	-0.320996	-0.418319
Zn4	Zn	1.430433	-0.455749	-0.593934
O5	O	1.518281	-0.388378	-0.506132
O6	O	1.753179	-0.338852	-0.570685
O7	O	1.582709	-0.437971	-0.271276
O8	O	1.453862	-0.208158	-0.441651
O9	O	1.753077	-0.437931	-0.441609
O10	O	1.582946	-0.208128	-0.570709
O11	O	1.453727	-0.338923	-0.271294
O12	O	1.283451	-0.338863	-0.441605
O13	O	1.453786	-0.437824	-0.740961
O14	O	1.283418	-0.437865	-0.570628
O15	O	1.582903	-0.338792	-0.740996
O16	O	1.582666	-0.568635	-0.441563
O17	O	1.453651	-0.568589	-0.570605
C18	C	1.245314	-0.388362	-0.506115
C19	C	1.128537	-0.388375	-0.506132
C20	C	0.963999	-0.336888	-0.573455
C21	C	1.073723	-0.336877	-0.573446
C22	C	1.073622	-0.439893	-0.438831
C23	C	0.963900	-0.439908	-0.438847
C24	C	0.909190	-0.285381	-0.640766
C25	C	0.964097	-0.233864	-0.708068
C26	C	1.073821	-0.233853	-0.708059
C27	C	1.128638	-0.285359	-0.640747
C28	C	1.518167	-0.597869	-0.506099
C29	C	1.518214	-0.687490	-0.506120
C30	C	1.518255	-0.760272	-0.506141
C31	C	1.518316	-0.851580	-0.506164
C32	C	1.518371	-0.924357	-0.506177
C33	C	1.518431	-1.015671	-0.506199
C34	C	1.792314	-0.388394	-0.506150
C35	C	1.909091	-0.388401	-0.506157
C36	C	1.518355	-0.388296	-0.780165
C37	C	1.518386	-0.388262	-0.896942
C38	C	1.518424	-0.178069	-0.506188
C39	C	1.518485	-0.088448	-0.506212
C40	C	1.585627	-0.336690	-0.951824
C41	C	1.585652	-0.336661	-1.061548
C42	C	1.451192	-0.439782	-1.061499
C43	C	1.451163	-0.439806	-0.951777
C44	C	1.652850	-0.285146	-0.896989
C45	C	1.720097	-0.233571	-0.951871
C46	C	1.720122	-0.233542	-1.061595
C47	C	1.652900	-0.285088	-1.116438
C48	C	1.518268	-0.388401	-0.233164
C49	C	1.518441	-0.388208	-0.116388
H50	H	1.118524	-0.191910	-0.762867
H51	H	1.652913	-0.285050	-1.205783
Br52	Br	0.760279	-0.285388	-0.640776
H53	H	1.396463	-0.481747	-1.106160
Br54	Br	1.652826	-0.285188	-0.748079
H55	H	0.919193	-0.481855	-0.384049
Br56	Br	1.359902	-0.509793	-0.877287
H57	H	0.919458	-0.191934	-0.762877
H58	H	1.217983	-0.285340	-0.640737
Br59	Br	1.148015	-0.509788	-0.347484
Br60	Br	1.811384	-0.163550	-1.136076
Br61	Br	1.811301	-0.163604	-0.877447
