data_functionalizedCrystal
_audit_creation_method	'MofGen! by Chris Wilmer'
_symmetry_space_group_name_H-M	'P1'
_symmetry_Int_Tables_number	1
_symmetry_cell_setting	triclinic
loop_
_symmetry_equiv_pos_as_xyz
  x,y,z
_cell_length_a	14.908520
_cell_length_b	12.759401
_cell_length_c	12.759393
_cell_angle_alpha	90.019596
_cell_angle_beta	86.736394
_cell_angle_gamma	93.320814
loop_
_atom_site_label
_atom_site_type_symbol
_atom_site_fract_x
_atom_site_fract_y
_atom_site_fract_z
Zn1	Zn	-0.359107	1.582078	0.618084
Zn2	Zn	0.140893	2.082078	1.118084
Zn3	Zn	-0.509991	1.571806	0.452531
Zn4	Zn	-0.009991	2.071806	0.952531
Zn5	Zn	-0.359152	1.406374	0.442426
Zn6	Zn	0.140848	1.906374	0.942426
Zn7	Zn	-0.509925	1.396210	0.628168
Zn8	Zn	-0.009925	1.896210	1.128168
O9	O	-0.434544	1.489117	0.535302
O10	O	0.065456	1.989117	1.035302
O11	O	-0.379131	1.727736	0.596132
O12	O	0.120869	2.227736	1.096132
O13	O	-0.490029	1.549816	0.304173
O14	O	0.009971	2.049816	0.804173
O15	O	-0.232902	1.438234	0.457279
O16	O	0.267098	1.938234	0.957279
O17	O	-0.489985	1.720189	0.474501
O18	O	0.010015	2.220189	0.974501
O19	O	-0.232869	1.567323	0.586334
O20	O	0.267131	2.067323	1.086334
O21	O	-0.379208	1.428274	0.296749
O22	O	0.120792	1.928274	0.796749
O23	O	-0.379143	1.258005	0.467057
O24	O	0.120857	1.758005	0.967057
O25	O	-0.489872	1.420911	0.773848
O26	O	0.010128	1.920911	1.273848
O27	O	-0.489915	1.250538	0.603520
O28	O	0.010085	1.750538	1.103520
O29	O	-0.379067	1.557468	0.766440
O30	O	0.120933	2.057468	1.266440
O31	O	-0.636227	1.539961	0.484278
O32	O	-0.136227	2.039961	0.984278
O33	O	-0.636178	1.410951	0.613318
O34	O	-0.136178	1.910951	1.113318
C35	C	-0.434528	1.216151	0.535287
C36	C	0.065472	1.716151	1.035287
C37	C	-0.434543	1.099373	0.535307
C38	C	0.065457	1.599373	1.035307
C39	C	-0.492323	0.930913	0.606271
C40	C	0.007677	1.430913	1.106271
C41	C	-0.492313	1.040638	0.606260
C42	C	0.007687	1.540638	1.106260
C43	C	-0.376785	1.048379	0.464353
C44	C	0.123215	1.548379	0.964353
C45	C	-0.376800	0.938655	0.464361
C46	C	0.123200	1.438655	0.964361
C47	C	-0.668936	1.473267	0.551012
C48	C	-0.168936	1.973267	1.051012
C49	C	-0.769210	1.466582	0.557768
C50	C	-0.269210	1.966582	1.057768
C51	C	-0.957625	1.588497	0.436202
C52	C	-0.457625	2.088497	0.936202
C53	C	-1.051841	1.582220	0.442546
C54	C	-0.551841	2.082220	0.942546
C55	C	-1.051861	1.447757	0.576805
C56	C	-0.551861	1.947757	1.076805
C57	C	-0.957644	1.454034	0.570461
C58	C	-0.457644	1.954034	1.070461
C59	C	-0.910530	1.524405	0.500155
C60	C	-0.410530	2.024405	1.000155
C61	C	-0.816312	1.530677	0.493807
C62	C	-0.316312	2.030677	0.993807
C63	C	-0.816333	1.396219	0.628070
C64	C	-0.316333	1.896219	1.128070
C65	C	-0.910549	1.389942	0.634414
C66	C	-0.410549	1.889942	1.134414
C67	C	-0.199236	1.505058	0.519555
C68	C	0.300764	2.005058	1.019555
C69	C	-0.098962	1.511851	0.512844
C70	C	0.401038	2.011851	1.012844
C71	C	-0.434457	1.489202	0.809330
C72	C	0.065543	1.989202	1.309330
C73	C	-0.434420	1.489238	0.926104
C74	C	0.065580	1.989238	1.426104
C75	C	-0.434561	1.763149	0.535319
C76	C	0.065439	2.263149	1.035319
C77	C	-0.434568	1.879926	0.535326
C78	C	0.065432	2.379926	1.035326
C79	C	-0.434565	1.489098	0.262336
C80	C	0.065435	1.989098	0.762336
C81	C	-0.434348	1.489283	0.145546
C82	C	0.065652	1.989283	0.645546
C83	C	-0.376715	1.560348	0.977110
C84	C	0.123285	2.060348	1.477110
C85	C	-0.376676	1.560369	1.086831
C86	C	0.123324	2.060369	1.586831
C87	C	-0.492056	1.418165	1.094533
C88	C	0.007944	1.918165	1.594533
C89	C	-0.492089	1.418140	0.984813
C90	C	0.007911	1.918140	1.484813
H91	H	-0.539362	0.883098	0.664055
H92	H	-0.039362	1.383098	1.164055
H93	H	-0.329755	1.618238	0.929312
H94	H	0.170245	2.118238	1.429312
H95	H	-0.539079	1.360226	0.943283
H96	H	-0.039079	1.860226	1.443283
H97	H	-0.539344	1.082146	0.664030
H98	H	-0.039344	1.582146	1.164030
H99	H	-0.948923	1.332651	0.691657
H100	H	-0.448923	1.832651	1.191657
H101	H	-0.329751	1.096210	0.406578
H102	H	0.170249	1.596210	0.906578
H103	H	-0.329768	0.897141	0.406583
H104	H	0.170232	1.397141	0.906583
Cl105	Cl	-1.111105	1.359311	0.665194
Cl106	Cl	-0.611105	1.859311	1.165194
Cl107	Cl	-0.564555	1.328795	1.168345
Cl108	Cl	-0.064555	1.828795	1.668345
H109	H	-0.777952	1.587974	0.436558
H110	H	-0.277952	2.087974	0.936558
H111	H	-0.919264	1.645789	0.378949
H112	H	-0.419264	2.145789	0.878949
H113	H	-0.329685	1.618272	1.128355
H114	H	0.170315	2.118272	1.628355
Cl115	Cl	-0.757122	1.315628	0.708460
Cl116	Cl	-0.257122	1.815628	1.208460
Cl117	Cl	-1.111044	1.662798	0.362145
Cl118	Cl	-0.611044	2.162798	0.862145
