data_functionalizedCrystal
_audit_creation_method	'MofGen! by Chris Wilmer'
_symmetry_space_group_name_H-M	'P1'
_symmetry_Int_Tables_number	1
_symmetry_cell_setting	triclinic
loop_
_symmetry_equiv_pos_as_xyz
  x,y,z
_cell_length_a	6.817900
_cell_length_b	10.992421
_cell_length_c	10.992410
_cell_angle_alpha	91.831025
_cell_angle_beta	108.764651
_cell_angle_gamma	108.764763
loop_
_atom_site_label
_atom_site_type_symbol
_atom_site_fract_x
_atom_site_fract_y
_atom_site_fract_z
V1	V	-4.114248	-0.177761	-0.400575
O2	O	-4.072376	0.008542	-0.392968
O3	O	-4.091827	-0.352470	-0.397818
O4	O	-4.091840	-0.175026	-0.575288
O5	O	-4.072363	-0.170129	-0.214270
V6	V	-4.591142	-0.155477	-0.378294
O7	O	-4.390048	-0.226642	-0.449452
O8	O	-4.765539	-0.106595	-0.329417
O9	O	-4.390356	0.019232	-0.381051
O10	O	-4.750411	-0.341780	-0.385901
O11	O	-4.750424	-0.163108	-0.564599
O12	O	-4.390343	-0.158211	-0.203581
C13	C	-3.942307	-0.395060	-0.391494
C14	C	-4.005435	-0.537887	-0.390404
C15	C	-3.942322	-0.168712	-0.617873
C16	C	-4.005457	-0.167632	-0.760702
C17	C	-3.873099	-0.733174	-0.381618
C18	C	-3.807017	-0.584530	-0.382242
C19	C	-4.076044	-0.576522	-0.270588
C20	C	-4.140279	-0.725065	-0.269320
C21	C	-4.271785	-0.763647	-0.514935
C22	C	-4.202731	-0.615133	-0.517535
C23	C	-3.872580	-0.157795	-0.955826
C24	C	-3.807029	-0.159451	-0.807343
C25	C	-4.203473	-0.294312	-0.837793
C26	C	-4.267786	-0.293192	-0.986360
C27	C	-4.145552	-0.047893	-0.948352
C28	C	-4.074843	-0.047293	-0.799340
C29	C	-4.203219	0.061816	-0.387371
C30	C	-4.119331	0.204641	-0.388470
C31	C	-4.203203	-0.164530	-0.160989
C32	C	-4.119306	-0.165603	-0.018159
H33	H	-3.749893	-0.558765	-0.467855
H34	H	-3.847276	-0.779594	-0.466700
H35	H	-3.931589	0.046420	-0.746991
H36	H	-3.757306	-0.753734	-0.290415
N37	N	-4.263396	-0.829219	-0.635037
H38	H	-4.416593	-0.890146	-0.689530
H39	H	-4.160587	-0.880090	-0.608576
N40	N	-3.889821	-0.504684	-0.145917
H41	H	-3.843847	-0.569320	-0.090683
H42	H	-3.941375	-0.449521	-0.096874
N43	N	-4.401174	-0.575158	-0.535268
H44	H	-4.439473	-0.539440	-0.619861
H45	H	-4.365705	-0.506135	-0.460744
N46	N	-4.137835	-0.583507	-0.634963
H47	H	-3.981295	-0.519408	-0.605946
H48	H	-4.241533	-0.544323	-0.693461
H49	H	-3.658336	-0.532087	-0.290964
H50	H	-4.029479	-0.742580	-0.174188
H51	H	-4.157711	-0.383659	-0.812179
H52	H	-4.451634	-0.804764	-0.521215
H53	H	-4.316491	-0.765948	-0.269130
N54	N	-4.009246	0.079537	-0.975330
H55	H	-3.929096	0.062249	-1.033085
H56	H	-3.897913	0.134202	-0.890644
H57	H	-3.755376	-0.066081	-0.974664
N58	N	-4.268948	-0.536479	-0.272405
H59	H	-4.312527	-0.492801	-0.351102
H60	H	-4.224997	-0.473964	-0.190909
N61	N	-3.610378	-0.038801	-0.736686
H62	H	-3.565589	0.015939	-0.801938
H63	H	-3.482952	-0.064620	-0.683439
N64	N	-3.839525	-0.269824	-1.019370
H65	H	-3.983676	-0.325610	-1.088359
H66	H	-3.788780	-0.323744	-0.951619
N67	N	-3.731227	-0.273017	-0.774474
H68	H	-3.855294	-0.356665	-0.822325
H69	H	-3.688209	-0.274461	-0.677757
N70	N	-4.247185	-0.411248	-1.047652
H71	H	-4.196491	-0.463525	-0.978097
H72	H	-4.135737	-0.382569	-1.092707
H73	H	-4.449788	-0.304208	-1.028990
H74	H	-4.216956	-0.045805	-0.766828
H75	H	-4.324536	-0.052498	-0.989193
H76	H	-4.353848	-0.304874	-0.808989
