data_functionalizedCrystal
_audit_creation_method	'MofGen! by Chris Wilmer'
_symmetry_space_group_name_H-M	'P1'
_symmetry_Int_Tables_number	1
_symmetry_cell_setting	triclinic
loop_
_symmetry_equiv_pos_as_xyz
  x,y,z
_cell_length_a	10.967819
_cell_length_b	15.944551
_cell_length_c	9.482900
_cell_angle_alpha	99.334197
_cell_angle_beta	68.706355
_cell_angle_gamma	84.118117
loop_
_atom_site_label
_atom_site_type_symbol
_atom_site_fract_x
_atom_site_fract_y
_atom_site_fract_z
O1	O	1.745529	0.057625	-0.558208
O2	O	1.366971	0.079126	-0.463371
O3	O	1.566585	-0.054120	-0.513366
O4	O	1.545915	0.190871	-0.508213
O5	O	1.526039	-0.026950	-0.261418
O6	O	1.326425	0.106296	-0.211423
O7	O	1.704983	0.084796	-0.306261
Cu8	Cu	1.512002	0.098027	-0.235837
Cu9	Cu	1.559952	0.065895	-0.533794
O10	O	1.505368	0.218042	-0.256266
C11	C	1.298255	0.093199	-0.325261
C12	C	1.153912	0.094642	-0.289099
C13	C	0.961388	0.082708	-0.366148
C14	C	1.110574	0.081211	-0.403514
C15	C	1.545454	-0.071810	-0.387177
C16	C	1.542881	-0.165001	-0.386531
C17	C	1.413002	-0.377066	-0.354013
C18	C	1.453323	-0.425984	-0.244898
C19	C	1.538227	-0.335628	-0.385376
C20	C	1.493328	-0.452756	-0.493306
C21	C	1.533724	-0.500446	-0.384266
C22	C	1.578566	-0.383308	-0.276167
C23	C	1.618572	-0.410085	-0.524682
C24	C	1.658979	-0.458984	-0.415559
C25	C	1.540818	-0.240680	-0.386014
C26	C	1.531142	-0.595391	-0.383619
C27	C	1.773699	0.070722	-0.444374
C28	C	1.918044	0.069278	-0.480545
C29	C	1.526500	0.235732	-0.382458
C30	C	1.529075	0.328921	-0.383114
N31	N	1.478285	0.120626	-0.026272
N32	N	1.593679	0.043289	-0.743362
C33	C	1.549998	0.072556	0.027966
C34	C	1.521955	0.091366	0.202407
H35	H	1.309037	-0.341508	-0.327849
O36	O	0.873885	0.097594	-0.216332
C37	C	0.808804	0.026250	-0.192266
H38	H	0.872578	-0.033595	-0.282969
H39	H	0.708699	0.039794	-0.202757
C40	C	0.708465	0.084362	0.082121
C41	C	0.786798	0.010859	-0.029275
H42	H	0.694884	0.074870	0.182663
H43	H	0.752306	0.132430	0.065908
H44	H	0.625052	0.095642	0.073359
H45	H	0.870214	-0.000413	-0.020524
H46	H	0.742970	-0.037212	-0.013057
H47	H	1.183907	0.068610	-0.529125
O48	O	1.380188	0.186241	0.072566
C49	C	1.285061	0.152953	0.184436
H50	H	1.332801	0.088595	0.195121
H51	H	1.198671	0.142907	0.147528
C52	C	1.174724	0.296142	0.328935
C53	C	1.233363	0.217100	0.342068
H54	H	1.142829	0.335713	0.426169
H55	H	1.238809	0.318570	0.253564
H56	H	1.102741	0.287759	0.298173
H57	H	1.305355	0.225483	0.372810
H58	H	1.169289	0.194676	0.417449
O59	O	1.066422	0.109523	-0.139272
C60	C	1.001350	0.038174	-0.115212
H61	H	1.065122	-0.021665	-0.205929
H62	H	0.901238	0.051719	-0.125683
C63	C	0.901036	0.096270	0.159182
C64	C	0.979367	0.022773	0.047768
H65	H	0.887469	0.086771	0.259717
H66	H	0.944871	0.144341	0.142973
H67	H	0.817617	0.107550	0.150435
H68	H	1.062789	0.011501	0.056503
H69	H	0.935545	-0.025301	0.063983
H70	H	0.991380	0.056678	-0.606148
O71	O	1.701705	-0.400967	-0.665899
C72	C	1.656397	-0.436492	-0.779999
H73	H	1.545600	-0.437767	-0.723680
H74	H	1.712870	-0.505078	-0.837643
C75	C	1.816368	-0.379361	-0.972021
C76	C	1.680283	-0.380920	-0.902850
H77	H	1.831107	-0.345084	-1.047806
H78	H	1.846897	-0.355429	-0.895152
H79	H	1.863413	-0.436519	-1.020045
H80	H	1.633243	-0.323764	-0.854811
H81	H	1.649746	-0.404840	-0.979715
H82	H	1.763003	-0.494373	-0.441552
O83	O	1.369787	-0.435059	-0.103838
C84	C	1.240221	-0.392895	-0.071780
H85	H	1.229499	-0.387036	-0.185106
H86	H	1.221561	-0.325732	0.003548
C87	C	1.151550	-0.452675	0.153757
C88	C	1.138377	-0.445485	0.014567
H89	H	1.088727	-0.485112	0.207026
H90	H	1.238842	-0.481080	0.132164
H91	H	1.136003	-0.396702	0.216512
H92	H	1.153941	-0.501456	-0.048193
H93	H	1.051086	-0.417091	0.036152
O94	O	1.450319	-0.488744	-0.602880
C95	C	1.421351	-0.425312	-0.679289
H96	H	1.479020	-0.370862	-0.667280
H97	H	1.310239	-0.398413	-0.625114
C98	C	1.391075	-0.532791	-0.866909
C99	C	1.461913	-0.465917	-0.852170
H100	H	1.416089	-0.557837	-0.973548
H101	H	1.410586	-0.575526	-0.815428
H102	H	1.298486	-0.510365	-0.821753
H103	H	1.554498	-0.488345	-0.897307
H104	H	1.442419	-0.423186	-0.903662
H105	H	1.614568	-0.353117	-0.184287
H106	H	1.632151	0.017473	-0.054738
H107	H	1.439788	0.146446	0.285111
O108	O	1.691402	-0.022607	0.158052
C109	C	1.635936	-0.082617	0.084167
H110	H	1.538224	-0.049256	0.085866
H111	H	1.616740	-0.137766	0.147819
C112	C	1.853282	-0.159712	-0.086906
C113	C	1.733275	-0.118735	-0.084831
H114	H	1.913326	-0.181995	-0.191150
H115	H	1.890652	-0.119284	-0.037126
H116	H	1.837267	-0.205664	-0.033855
H117	H	1.749289	-0.072778	-0.137864
H118	H	1.695910	-0.159156	-0.134625
