data_functionalizedCrystal
_audit_creation_method	'MofGen! by Chris Wilmer'
_symmetry_space_group_name_H-M	'P1'
_symmetry_Int_Tables_number	1
_symmetry_cell_setting	triclinic
loop_
_symmetry_equiv_pos_as_xyz
  x,y,z
_cell_length_a	21.395362
_cell_length_b	19.805405
_cell_length_c	21.395355
_cell_angle_alpha	89.980090
_cell_angle_beta	89.956060
_cell_angle_gamma	90.042288
loop_
_atom_site_label
_atom_site_type_symbol
_atom_site_fract_x
_atom_site_fract_y
_atom_site_fract_z
Zn1	Zn	0.957878	-0.269255	-0.354580
Zn2	Zn	1.457878	0.230745	0.145420
Zn3	Zn	0.957789	-0.382425	-0.249800
Zn4	Zn	1.457789	0.117575	0.250200
Zn5	Zn	0.853093	-0.269286	-0.249781
Zn6	Zn	1.353093	0.230714	0.250219
Zn7	Zn	0.853070	-0.382438	-0.354504
Zn8	Zn	1.353070	0.117562	0.145496
O9	O	0.905458	-0.325851	-0.302166
O10	O	1.405458	0.174149	0.197834
O11	O	1.045544	-0.284248	-0.340720
O12	O	1.545544	0.215752	0.159280
O13	O	0.943873	-0.367424	-0.162119
O14	O	1.443873	0.132576	0.337881
O15	O	0.867040	-0.174565	-0.263706
O16	O	1.367040	0.325435	0.236294
O17	O	1.045478	-0.367393	-0.263738
O18	O	1.545478	0.132607	0.236262
O19	O	0.944025	-0.174542	-0.340701
O20	O	1.444025	0.325458	0.159299
O21	O	0.866953	-0.284302	-0.162105
O22	O	1.366953	0.215698	0.337895
O23	O	0.765412	-0.284315	-0.263633
O24	O	1.265412	0.215685	0.236367
O25	O	0.867001	-0.367417	-0.442192
O26	O	1.367001	0.132583	0.057808
O27	O	0.765395	-0.367448	-0.340573
O28	O	1.265395	0.132552	0.159427
O29	O	0.944003	-0.284261	-0.442247
O30	O	1.444003	0.215739	0.057753
O31	O	0.943850	-0.477143	-0.263665
O32	O	1.443850	0.022857	0.236335
O33	O	0.866914	-0.477153	-0.340591
O34	O	1.366914	0.022847	0.159409
C35	C	0.742670	-0.325887	-0.302093
C36	C	1.242670	0.174113	0.197907
C37	C	0.673029	-0.325918	-0.302077
C38	C	1.173029	0.174082	0.197923
C39	C	0.640323	-0.369263	-0.342080
C40	C	1.140323	0.130737	0.157920
C41	C	0.574888	-0.369246	-0.342108
C42	C	1.074888	0.130754	0.157892
C43	C	0.542160	-0.325892	-0.302122
C44	C	1.042160	0.174108	0.197878
C45	C	0.574874	-0.282539	-0.262116
C46	C	1.074874	0.217461	0.237884
C47	C	0.640308	-0.282553	-0.262094
C48	C	1.140308	0.217447	0.237906
C49	C	0.438435	-0.320440	-0.245717
C50	C	0.938435	0.179560	0.254283
C51	C	0.373002	-0.320431	-0.245738
C52	C	0.873002	0.179569	0.254262
C53	C	0.340340	-0.325848	-0.302191
C54	C	0.840340	0.174152	0.197809
C55	C	0.373118	-0.331287	-0.358624
C56	C	0.873118	0.168713	0.141376
C57	C	0.438552	-0.331301	-0.358602
C58	C	0.938552	0.168699	0.141398
C59	C	0.471208	-0.325873	-0.302142
C60	C	0.971208	0.174127	0.197858
C61	C	0.236682	-0.369177	-0.342227
C62	C	0.736682	0.130823	0.157773
C63	C	0.171245	-0.369156	-0.342256
C64	C	0.671245	0.130844	0.157744
C65	C	0.171232	-0.282452	-0.262259
C66	C	0.671232	0.217548	0.237741
C67	C	0.236668	-0.282470	-0.262236
C68	C	0.736668	0.217530	0.237764
C69	C	0.269388	-0.325836	-0.302219
C70	C	0.769388	0.174164	0.197781
C71	C	0.905387	-0.501707	-0.302136
C72	C	1.405387	-0.001707	0.197864
C73	C	0.905414	-0.576939	-0.302144
C74	C	1.405414	-0.076939	0.197856
C75	C	0.945514	-0.612255	-0.262130
C76	C	1.445514	-0.112255	0.237870
C77	C	0.945540	-0.682944	-0.262144
C78	C	1.445540	-0.182944	0.237856
C79	C	0.905464	-0.718315	-0.302169
C80	C	1.405464	-0.218315	0.197831
C81	C	0.865362	-0.682993	-0.342187
C82	C	1.365362	-0.182993	0.157813
C83	C	0.865339	-0.612306	-0.342175
C84	C	1.365339	-0.112306	0.157825
C85	C	0.865455	-0.968067	-0.342233
C86	C	1.365455	-0.468067	0.157767
C87	C	0.865480	-1.038759	-0.342240
C88	C	1.365480	-0.538759	0.157760
C89	C	0.945656	-1.038704	-0.262202
C90	C	1.445656	-0.538704	0.237798
C91	C	0.945633	-0.968017	-0.262191
C92	C	1.445633	-0.468017	0.237809
C93	C	0.905534	-0.932702	-0.302210
C94	C	1.405534	-0.432702	0.197790
C95	C	0.905507	-0.856053	-0.302196
C96	C	1.405507	-0.356053	0.197804
C97	C	0.905488	-0.794962	-0.302181
C98	C	1.405488	-0.294962	0.197819
C99	C	1.068881	-0.325816	-0.302239
C100	C	1.568881	0.174184	0.197761
C101	C	1.138522	-0.325800	-0.302271
C102	C	1.638522	0.174200	0.197729
C103	C	0.905510	-0.325837	-0.465589
C104	C	1.405510	0.174163	0.034411
C105	C	0.905532	-0.325831	-0.535231
C106	C	1.405532	0.174169	-0.035231
C107	C	0.905545	-0.149308	-0.302210
C108	C	1.405545	0.350692	0.197790
C109	C	0.905583	-0.074076	-0.302229
C110	C	1.405583	0.425924	0.197771
C111	C	0.945625	-0.282530	-0.567974
C112	C	1.445625	0.217470	-0.067974
C113	C	0.945624	-0.282501	-0.633409
C114	C	1.445624	0.217499	-0.133409
C115	C	0.905537	-0.325785	-0.666099
C116	C	1.405537	0.174215	-0.166099
C117	C	0.865436	-0.369089	-0.633348
C118	C	1.365436	0.130911	-0.133348
C119	C	0.865433	-0.369112	-0.567914
C120	C	1.365433	0.130888	-0.067914
C121	C	0.900565	-0.386731	-0.769762
C122	C	1.400565	0.113269	-0.269762
C123	C	0.900572	-0.386709	-0.835195
C124	C	1.400572	0.113291	-0.335195
C125	C	0.905540	-0.325714	-0.867920
C126	C	1.405540	0.174286	-0.367920
C127	C	0.910516	-0.264738	-0.835204
C128	C	1.410516	0.235262	-0.335204
C129	C	0.910513	-0.264762	-0.769770
C130	C	1.410513	0.235238	-0.269770
C131	C	0.905534	-0.325765	-0.737051
C132	C	1.405534	0.174235	-0.237051
C133	C	0.945635	-0.282378	-0.971615
C134	C	1.445635	0.217622	-0.471615
C135	C	0.945630	-0.282347	-1.037052
C136	C	1.445630	0.217653	-0.537052
C137	C	0.865444	-0.368941	-1.036990
C138	C	1.365444	0.131059	-0.536990
C139	C	0.865446	-0.368966	-0.971555
C140	C	1.365446	0.131034	-0.471555
C141	C	0.905545	-0.325685	-0.938871
C142	C	1.405545	0.174315	-0.438871
C143	C	0.905442	-0.325816	-0.139378
C144	C	1.405442	0.174184	0.360622
C145	C	0.905541	-0.325631	-0.069738
C146	C	1.405541	0.174369	0.430262
H147	H	0.263324	-0.404485	-0.374787
H148	H	0.763324	0.095515	0.125213
C149	C	0.272645	-0.234793	-0.218224
C150	C	0.772645	0.265207	0.281776
N151	N	0.299743	-0.198880	-0.185072
N152	N	0.799743	0.301120	0.314928
C153	C	0.989714	-0.929113	-0.218155
C154	C	1.489714	-0.429113	0.281845
N155	N	1.022918	-0.899812	-0.184986
N156	N	1.522918	-0.399812	0.315014
H157	H	0.832802	-0.404230	-0.944895
H158	H	1.332802	0.095770	-0.444895
C159	C	0.821393	-1.077665	-0.386275
C160	C	1.321393	-0.577665	0.113725
N161	N	0.788189	-1.106969	-0.419441
N162	N	1.288189	-0.606969	0.080559
H163	H	0.346319	-0.316007	-0.199786
H164	H	0.846319	0.183993	0.300214
C165	C	0.989649	-0.721789	-0.218122
C166	C	1.489649	-0.221789	0.281878
N167	N	1.022873	-0.751046	-0.184962
N168	N	1.522873	-0.251046	0.315038
H169	H	0.832798	-0.404177	-1.063606
H170	H	1.332798	0.095823	-0.563606
C171	C	0.895099	-0.453783	-0.871175
C172	C	1.395099	0.046217	-0.371175
N173	N	0.890975	-0.504304	-0.898275
N174	N	1.390975	-0.004304	-0.398275
H175	H	0.914563	-0.215070	-0.861848
H176	H	1.414563	0.284930	-0.361848
C177	C	0.915977	-0.197690	-0.733785
C178	C	1.415977	0.302310	-0.233785
N179	N	0.920088	-0.147169	-0.706682
N180	N	1.420088	0.352831	-0.206682
C181	C	0.821377	-0.929229	-0.386288
C182	C	1.321377	-0.429229	0.113712
N183	N	0.788187	-0.899974	-0.419485
N184	N	1.288187	-0.399974	0.080515
H185	H	0.978308	-1.067466	-0.229618
H186	H	1.478308	-0.567466	0.270382
C187	C	0.821276	-0.721904	-0.386212
C188	C	1.321276	-0.221904	0.113788
N189	N	0.788066	-0.751210	-0.419370
N190	N	1.288066	-0.251210	0.080630
C191	C	0.895111	-0.453836	-0.733770
C192	C	1.395111	0.046164	-0.233770
N193	N	0.891007	-0.504379	-0.706662
N194	N	1.391007	-0.004379	-0.206662
C195	C	0.821227	-0.573459	-0.386194
C196	C	1.321227	-0.073459	0.113806
N197	N	0.788002	-0.544199	-0.419351
N198	N	1.288002	-0.044199	0.080649
H199	H	0.832794	-0.404329	-0.659969
H200	H	1.332794	0.095671	-0.159969
H201	H	0.978276	-0.247287	-0.541367
H202	H	1.478276	0.252713	-0.041367
C203	C	0.337194	-0.337244	-0.420728
C204	C	0.837194	0.162756	0.079272
N205	N	0.310133	-0.341730	-0.467503
N206	N	0.810133	0.158270	0.032497
H207	H	0.666960	-0.404574	-0.374638
H208	H	1.166960	0.095426	0.125362
H209	H	0.978282	-0.247132	-0.945003
H210	H	1.478282	0.252868	-0.445003
C211	C	0.989735	-0.234869	-0.669434
C212	C	1.489735	0.265131	-0.169434
N213	N	1.022962	-0.198994	-0.696565
N214	N	1.522962	0.301006	-0.196565
H215	H	0.832782	-0.404372	-0.541255
H216	H	1.332782	0.095628	-0.041255
C217	C	0.538904	-0.416933	-0.386113
C218	C	1.038904	0.083067	0.113887
N219	N	0.511804	-0.452851	-0.419257
N220	N	1.011804	0.047149	0.080743
H221	H	0.465238	-0.335727	-0.404552
H222	H	0.965238	0.164273	0.095448
C223	C	0.135269	-0.416846	-0.386259
C224	C	0.635269	0.083154	0.113741
N225	N	0.108171	-0.452771	-0.419400
N226	N	0.608171	0.047229	0.080600
H227	H	0.666936	-0.247254	-0.229519
H228	H	1.166936	0.252746	0.270481
H229	H	0.978277	-0.247083	-1.063710
H230	H	1.478277	0.252917	-0.563710
H231	H	0.465024	-0.316026	-0.199743
H232	H	0.965024	0.183974	0.300257
C233	C	0.135236	-0.234762	-0.218275
C234	C	0.635236	0.265238	0.281725
N235	N	0.108120	-0.198839	-0.185145
N236	N	0.608120	0.301161	0.314855
H237	H	0.548223	-0.247239	-0.229561
H238	H	1.048223	0.252761	0.270439
H239	H	0.978146	-0.583461	-0.229535
H240	H	1.478146	-0.083461	0.270465
