data_functionalizedCrystal
_audit_creation_method	'MofGen! by Chris Wilmer'
_symmetry_space_group_name_H-M	'P1'
_symmetry_Int_Tables_number	1
_symmetry_cell_setting	triclinic
loop_
_symmetry_equiv_pos_as_xyz
  x,y,z
_cell_length_a	34.408637
_cell_length_b	34.407814
_cell_length_c	34.404193
_cell_angle_alpha	60.004510
_cell_angle_beta	60.009006
_cell_angle_gamma	59.994604
loop_
_atom_site_label
_atom_site_type_symbol
_atom_site_fract_x
_atom_site_fract_y
_atom_site_fract_z
O1	O	0.053973	-0.567860	0.474801
O2	O	0.553973	-0.067860	0.974801
O3	O	0.020377	-0.442124	0.382567
O4	O	0.520377	0.057876	0.882567
O5	O	0.100004	-0.521670	0.382483
O6	O	0.600004	-0.021670	0.882483
O7	O	-0.025653	-0.488314	0.474886
O8	O	0.474347	0.011686	0.974886
O9	O	0.126426	-0.495253	0.408816
O10	O	0.626426	0.004747	0.908816
O11	O	0.046800	-0.415707	0.408900
O12	O	0.546800	0.084293	0.908900
O13	O	0.080396	-0.541443	0.501134
O14	O	0.580396	-0.041443	1.001134
Zn15	Zn	0.067793	-0.474381	0.459198
Zn16	Zn	0.567793	0.025619	0.959198
Zn17	Zn	0.032980	-0.509186	0.424503
Zn18	Zn	0.532980	-0.009186	0.924503
O19	O	0.000769	-0.461897	0.501219
O20	O	0.500769	0.038103	1.001219
N21	N	0.091552	-0.450631	0.482879
N22	N	0.591552	0.049369	0.982879
N23	N	0.009225	-0.532940	0.400823
N24	N	0.509225	-0.032940	0.900823
C25	C	0.142848	-0.268847	0.534081
C26	C	0.642848	0.231153	1.034081
C27	C	0.142979	-0.399386	0.664559
C28	C	0.642979	0.100614	1.164559
C29	C	0.142862	-0.399365	0.534081
C30	C	0.642862	0.100635	1.034081
C31	C	0.273409	-0.399338	0.533986
C32	C	0.773409	0.100662	1.033986
C33	C	0.157225	-0.311914	0.548422
C34	C	0.657225	0.188086	1.048422
C35	C	0.157300	-0.385019	0.621491
C36	C	0.657300	0.114981	1.121491
C37	C	0.230339	-0.384991	0.548370
C38	C	0.730339	0.115009	1.048370
C39	C	0.157235	-0.385007	0.548422
C40	C	0.657235	0.114993	1.048422
C41	C	0.124548	-0.214028	0.515827
C42	C	0.624548	0.285972	1.015827
C43	C	0.124571	-0.417639	0.515827
C44	C	0.624571	0.082361	1.015827
C45	C	0.175526	-0.366733	0.566676
C46	C	0.675526	0.133267	1.066676
C47	C	0.353121	-0.385580	0.491988
C48	C	0.853121	0.114420	0.991988
C49	C	0.402952	-0.402180	0.475348
C50	C	0.902952	0.097820	0.975348
C51	C	0.402981	-0.482812	0.506096
C52	C	0.902981	0.017188	1.006096
C53	C	0.353151	-0.466211	0.522737
C54	C	0.853151	0.033789	1.022737
C55	C	0.136544	-0.189099	0.466839
C56	C	0.636544	0.310901	0.966839
C57	C	0.119905	-0.139265	0.450247
C58	C	0.619905	0.360735	0.950247
C59	C	0.079280	-0.139291	0.531632
C60	C	0.579280	0.360709	1.031632
C61	C	0.095918	-0.189125	0.548224
C62	C	0.595918	0.310875	1.048224
C63	C	0.075577	-0.405615	0.527900
C64	C	0.575577	0.094385	1.027900
C65	C	0.058953	-0.422228	0.511301
C66	C	0.558953	0.077772	1.011301
C67	C	0.140315	-0.462889	0.470566
C68	C	0.640315	0.037111	0.970566
C69	C	0.156941	-0.446276	0.487159
C70	C	0.656941	0.053724	0.987159
C71	C	0.075772	-0.405653	0.744326
C72	C	0.575772	0.094347	1.244326
C73	C	0.059206	-0.422280	0.794159
C74	C	0.559206	0.077720	1.294159
C75	C	0.140607	-0.462951	0.794094
C76	C	0.640607	0.037049	1.294094
C77	C	0.157172	-0.446325	0.744260
C78	C	0.657172	0.053675	1.244260
C79	C	0.124753	-0.417674	0.719377
C80	C	0.624753	0.082326	1.219377
C81	C	0.328223	-0.417595	0.515681
C82	C	0.828223	0.082405	1.015681
C83	C	-0.172390	-0.583988	0.349141
C84	C	0.327610	-0.083988	0.849141
C85	C	-0.041751	-0.584138	0.218783
C86	C	0.458249	-0.084138	0.718783
C87	C	-0.041941	-0.584130	0.349402
C88	C	0.458059	-0.084130	0.849402
C89	C	-0.041957	-0.714607	0.349338
C90	C	0.458043	-0.214607	0.849338
C91	C	-0.129326	-0.598388	0.334853
C92	C	0.370674	-0.098388	0.834853
C93	C	-0.056165	-0.598473	0.261852
C94	C	0.443835	-0.098473	0.761852
C95	C	-0.056282	-0.671535	0.334962
C96	C	0.443718	-0.171535	0.834962
C97	C	-0.056272	-0.598469	0.334999
C98	C	0.443728	-0.098469	0.834999
C99	C	-0.227205	-0.565659	0.367327
C100	C	0.272795	-0.065659	0.867327
C101	C	-0.023703	-0.565882	0.367734
C102	C	0.476297	-0.065882	0.867734
C103	C	-0.074511	-0.616717	0.316667
C104	C	0.425489	-0.116717	0.816667
C105	C	-0.055754	-0.794298	0.391257
C106	C	0.444246	-0.294298	0.891257
C107	C	-0.039181	-0.844132	0.407888
C108	C	0.460819	-0.344132	0.907888
C109	C	0.041447	-0.844215	0.377269
C110	C	0.541447	-0.344215	0.877269
C111	C	0.024873	-0.794381	0.360637
C112	C	0.524873	-0.294381	0.860637
C113	C	-0.252183	-0.577666	0.416302
C114	C	0.247817	-0.077666	0.916302
C115	C	-0.302014	-0.561001	0.432833
C116	C	0.197986	-0.061001	0.932833
C117	C	-0.301886	-0.520329	0.351410
C118	C	0.198114	-0.020329	0.851410
C119	C	-0.252055	-0.536994	0.334880
C120	C	0.247945	-0.036994	0.834880
C121	C	-0.035709	-0.516892	0.355682
C122	C	0.464291	-0.016892	0.855682
C123	C	-0.019129	-0.500308	0.372353
C124	C	0.480871	-0.000308	0.872353
C125	C	0.021465	-0.581700	0.413115
C126	C	0.521465	-0.081700	0.913115
C127	C	0.004884	-0.598286	0.396450
C128	C	0.504884	-0.098286	0.896450
C129	C	-0.035389	-0.516907	0.139026
C130	C	0.464611	-0.016907	0.639026
C131	C	-0.018707	-0.500324	0.089193
C132	C	0.481293	-0.000324	0.589193
C133	C	0.021949	-0.581721	0.089240
C134	C	0.521949	-0.081721	0.589240
C135	C	0.005268	-0.598303	0.139074
C136	C	0.505268	-0.098303	0.639074
C137	C	-0.023402	-0.565894	0.163965
C138	C	0.476598	-0.065894	0.663965
C139	C	-0.023728	-0.769425	0.367633
C140	C	0.476272	-0.269425	0.867633
N141	N	0.427173	-0.450553	0.482630
N142	N	0.927173	0.049447	0.982630
O143	O	0.589997	-0.458460	0.365361
O144	O	1.089997	0.041540	0.865361
O145	O	0.590185	-0.550997	0.490963
O146	O	1.090185	-0.050997	0.990963
O147	O	0.590104	-0.550786	0.411309
O148	O	1.090104	-0.050786	0.911309
O149	O	0.590077	-0.458671	0.445016
O150	O	1.090077	0.041329	0.945016
O151	O	0.510940	-0.524462	0.437777
O152	O	1.010940	-0.024462	0.937777
O153	O	0.511020	-0.524674	0.517432
O154	O	1.011020	-0.024674	1.017432
O155	O	0.510832	-0.432136	0.391830
O156	O	1.010832	0.067864	0.891830
Zn157	Zn	0.498357	-0.474225	0.458833
Zn158	Zn	0.998357	0.025775	0.958833
Zn159	Zn	0.602660	-0.508908	0.423960
Zn160	Zn	1.102660	-0.008908	0.923960
O161	O	0.510913	-0.432348	0.471484
O162	O	1.010913	0.067652	0.971484
N163	N	0.673844	-0.532580	0.400158
N164	N	1.173844	-0.032580	0.900158
N165	N	0.091520	-0.115070	0.482873
N166	N	0.591520	0.384930	0.982873
O167	O	-0.025663	0.047841	0.474857
O168	O	0.474337	0.547841	0.974857
O169	O	0.099940	0.047877	0.382299
O170	O	0.599940	0.547877	0.882299
O171	O	0.020247	0.047844	0.382560
O172	O	0.520247	0.547844	0.882560
O173	O	0.054030	0.047874	0.474596
O174	O	0.554030	0.547874	0.974596
O175	O	0.046674	-0.031326	0.408942
O176	O	0.546674	0.468674	0.908942
O177	O	0.126367	-0.031293	0.408680
O178	O	0.626367	0.468707	0.908680
O179	O	0.000764	-0.031329	0.501238
O180	O	0.500764	0.468671	1.001238
Zn181	Zn	0.067761	-0.043881	0.459148
Zn182	Zn	0.567761	0.456119	0.959148
Zn183	Zn	0.032943	0.060429	0.424389
Zn184	Zn	0.532943	0.560429	0.924389
O185	O	0.080457	-0.031296	0.500977
O186	O	0.580457	0.468704	1.000977
N187	N	0.009178	0.131618	0.400665
N188	N	0.509178	0.631618	0.900665
N189	N	0.091852	-0.450680	0.818332
N190	N	0.591852	0.049320	1.318332
O191	O	0.083862	-0.567845	0.981235
O192	O	0.583862	-0.067845	1.481235
O193	O	-0.008657	-0.442198	0.981276
O194	O	0.491343	0.057802	1.481276
O195	O	-0.008441	-0.521875	0.981252
O196	O	0.491559	-0.021875	1.481252
O197	O	0.083646	-0.488168	0.981258
O198	O	0.583646	0.011832	1.481258
O199	O	0.017919	-0.495468	0.902085
O200	O	0.517919	0.004532	1.402085
O201	O	0.017703	-0.415791	0.902109
O202	O	0.517703	0.084209	1.402109
O203	O	0.110222	-0.541438	0.902067
O204	O	0.610222	-0.041438	1.402067
Zn205	Zn	0.068148	-0.474422	0.889518
Zn206	Zn	0.568148	0.025578	1.389518
Zn207	Zn	0.033417	-0.509214	0.993825
Zn208	Zn	0.533417	-0.009214	1.493825
O209	O	0.110006	-0.461761	0.902091
O210	O	0.610006	0.038239	1.402091
N211	N	0.009712	-0.532961	1.065011
N212	N	0.509712	-0.032961	1.565011
C213	C	0.030439	-0.413071	0.383027
C214	C	0.530439	0.086929	0.883027
C215	C	0.129046	-0.511580	0.382922
C216	C	0.629046	-0.011580	0.882922
C217	C	0.070334	-0.570496	0.500675
C218	C	0.570334	-0.070496	1.000675
C219	C	-0.028274	-0.471987	0.500780
C220	C	0.471726	0.028013	1.000780
C221	C	0.550625	-0.550579	0.520021
C222	C	1.050625	-0.050579	1.020021
C223	C	0.550527	-0.550317	0.421379
C224	C	1.050527	-0.050317	0.921379
C225	C	0.550389	-0.432554	0.362773
C226	C	1.050389	0.067446	0.862773
C227	C	0.550491	-0.432816	0.461414
C228	C	1.050491	0.067184	0.961414
C229	C	0.128944	0.008394	0.382712
C230	C	0.628944	0.508394	0.882712
C231	C	0.030287	0.008256	0.383068
C232	C	0.530287	0.508256	0.883068
C233	C	-0.028273	0.008252	0.500793
C234	C	0.471727	0.508252	1.000793
C235	C	0.070417	0.008292	0.500470
C236	C	0.570417	0.508292	1.000470
C237	C	-0.008218	-0.413165	0.941698
C238	C	0.491782	0.086835	1.441698
C239	C	-0.007945	-0.511830	0.941653
C240	C	0.492055	-0.011830	1.441653
C241	C	0.109783	-0.570471	0.941646
C242	C	0.609783	-0.070471	1.441646
C243	C	0.109516	-0.471800	0.941673
C244	C	0.609516	0.028200	1.441673
H245	H	0.019320	-0.412483	0.814467
H246	H	0.519320	0.087517	1.314467
O247	O	-0.046252	-0.521359	0.941598
O248	O	0.453748	-0.021359	1.441598
H249	H	-0.032626	-0.558185	0.941570
H250	H	0.467374	-0.058185	1.441570
O251	O	0.550689	-0.589061	0.567805
O252	O	1.050689	-0.089061	1.067805
H253	H	0.582971	-0.620639	0.562873
H254	H	1.082971	-0.120639	1.062873
O255	O	0.148260	-0.618271	0.941639
O256	O	0.648260	-0.118271	1.441639
H257	H	0.134801	-0.641620	0.941639
H258	H	0.634801	-0.141620	1.441639
H259	H	-0.231954	-0.601008	0.442726
H260	H	0.268046	-0.101008	0.942726
H261	H	-0.028474	-0.460433	0.068892
H262	H	0.471526	0.039567	0.568892
H263	H	0.023050	0.008252	0.354152
H264	H	0.523050	0.508252	0.854152
H265	H	0.550485	-0.403881	0.468626
H266	H	1.050485	0.096119	0.968626
O267	O	0.147842	-0.462251	0.941667
O268	O	0.647842	0.037749	1.441667
H269	H	0.134224	-0.425418	0.941674
H270	H	0.634224	0.074582	1.441674
O271	O	0.020931	-0.365228	0.344653
O272	O	0.520931	0.134772	0.844653
H273	H	0.046624	-0.348549	0.334530
H274	H	0.546624	0.151451	0.834530
H275	H	0.159856	-0.209371	0.440456
H276	H	0.659856	0.290629	0.940456
O277	O	0.079997	0.008294	0.538778
O278	O	0.579997	0.508294	1.038778
H279	H	0.116828	0.008301	0.525143
H280	H	0.616828	0.508301	1.025143
O281	O	0.040806	-0.374748	0.717489
O282	O	0.540806	0.125252	1.217489
H283	H	0.003963	-0.369185	0.743210
H284	H	0.503963	0.130815	1.243210
H285	H	0.167007	-0.486271	0.814352
H286	H	0.667007	0.013729	1.314352
O287	O	0.210005	-0.459284	0.717351
O288	O	0.710005	0.040716	1.217351
H289	H	0.226351	-0.498573	0.726900
H290	H	0.726351	0.001427	1.226900
O291	O	0.550323	-0.394069	0.314991
O292	O	1.050323	0.105931	0.814991
H293	H	0.550314	-0.407533	0.291647
H294	H	1.050314	0.092467	0.791647
O295	O	-0.046699	-0.365369	0.941717
O296	O	0.453301	0.134631	1.441717
H297	H	-0.033243	-0.342024	0.941727
H298	H	0.466757	0.157976	1.441727
O299	O	0.550544	-0.588648	0.411824
O300	O	1.050544	-0.088648	0.911824
H301	H	0.582842	-0.620243	0.415939
H302	H	1.082842	-0.120243	0.915939
O303	O	0.040662	-0.374734	0.558823
O304	O	0.540662	0.125266	1.058823
H305	H	0.017937	-0.341818	0.539067
H306	H	0.517937	0.158182	1.039067
O307	O	0.006110	-0.409264	0.524312
O308	O	0.506110	0.090736	1.024312
H309	H	-0.010184	-0.422687	0.563603
H310	H	0.489816	0.077313	1.063603
O311	O	0.175230	-0.493777	0.439646
O312	O	0.675230	0.006223	0.939646
H313	H	0.212091	-0.499345	0.434039
H314	H	0.712091	0.000655	0.934039
H315	H	0.196836	-0.456064	0.477324
H316	H	0.696836	0.043936	0.977324
O317	O	0.176622	0.008704	0.344120
O318	O	0.676622	0.508704	0.844120
H319	H	0.199958	0.008792	0.357534
H320	H	0.699958	0.508792	0.857534
O321	O	0.079841	-0.618339	0.539049
O322	O	0.579841	-0.118339	1.039049
H323	H	0.047669	-0.618465	0.571387
H324	H	0.547669	-0.118465	1.071387
O325	O	0.176852	-0.520990	0.344486
O326	O	0.676852	-0.020990	0.844486
H327	H	0.183587	-0.551316	0.335811
H328	H	0.683587	-0.051316	0.835811
O329	O	0.326296	-0.500741	0.548285
O330	O	0.826296	-0.000741	1.048285
H331	H	0.352006	-0.537334	0.550386
H332	H	0.852006	-0.037334	1.050386
O333	O	0.429871	-0.535247	0.513709
O334	O	0.929871	-0.035247	1.013709
H335	H	0.404185	-0.554723	0.532986
H336	H	0.904185	-0.054723	1.032986
H337	H	-0.064365	-0.464880	0.529794
H338	H	0.435635	0.035120	1.029794
O339	O	-0.066306	-0.481947	0.165867
O340	O	0.433694	0.018053	0.665867
H341	H	-0.099184	-0.459216	0.156235
H342	H	0.400816	0.040784	0.656235
O343	O	0.429813	-0.367651	0.449791
O344	O	0.929813	0.132349	0.949791
H345	H	0.404108	-0.331055	0.447676
H346	H	0.904108	0.168945	0.947676
O347	O	0.326232	-0.333144	0.484385
O348	O	0.826232	0.166856	0.984385
H349	H	0.335767	-0.312865	0.445661
H350	H	0.835767	0.187135	0.945661
O351	O	0.132846	-0.112374	0.397408
O352	O	0.632846	0.387626	0.897408
H353	H	0.119433	-0.121943	0.381097
H354	H	0.619433	0.378057	0.881097
O355	O	0.048403	-0.112427	0.566572
O356	O	0.548403	0.387573	1.066572
H357	H	0.042860	-0.138135	0.603425
H358	H	0.542860	0.361865	1.103425
O359	O	0.082910	-0.215982	0.601068
O360	O	0.582910	0.284018	1.101068
H361	H	0.096296	-0.206427	0.617417
H362	H	0.596296	0.293573	1.117417
O363	O	0.052866	-0.616675	0.062391
O364	O	0.552866	-0.116675	0.562391
H365	H	0.058400	-0.653525	0.088105
H366	H	0.558400	-0.153525	0.588105
O367	O	0.018196	-0.651143	0.165975
O368	O	0.518196	-0.151143	0.665975
H369	H	0.040929	-0.670890	0.140293
H370	H	0.540929	-0.170890	0.640293
O371	O	-0.076054	0.008249	0.539283
O372	O	0.423946	0.508249	1.039283
H373	H	-0.099418	0.008244	0.525842
H374	H	0.400582	0.508244	1.025842
H375	H	-0.058984	-0.490504	0.332300
H376	H	0.441016	0.009496	0.832300
H377	H	0.044746	-0.608091	0.436494
H378	H	0.544746	-0.108091	0.936494
O379	O	-0.031992	-0.447476	0.359322
O380	O	0.468008	0.052524	0.859322
H381	H	-0.018485	-0.431223	0.320033
H382	H	0.481515	0.068777	0.820033
O383	O	0.017837	-0.651126	0.409438
O384	O	0.517837	-0.151126	0.909438
H385	H	0.004384	-0.667432	0.448725
H386	H	0.504384	-0.167432	0.948725
O387	O	0.059416	-0.767553	0.335160
O388	O	0.559416	-0.267553	0.835160
H389	H	0.095994	-0.793283	0.333098
H390	H	0.595994	-0.293283	0.833098
H391	H	-0.065262	-0.864385	0.427124
H392	H	0.434738	-0.364385	0.927124
O393	O	0.093867	-0.871135	0.369726
O394	O	0.593867	-0.371135	0.869726
H395	H	0.113354	-0.845466	0.350501
H396	H	0.613354	-0.345466	0.850501
H397	H	-0.095331	-0.773979	0.396956
H398	H	0.404669	-0.273979	0.896956
H399	H	-0.322352	-0.570775	0.472713
H400	H	0.177648	-0.070775	0.972713
O401	O	-0.328692	-0.489412	0.316416
O402	O	0.171308	0.010588	0.816416
H403	H	-0.302950	-0.483865	0.279582
H404	H	0.197050	0.016135	0.779582
H405	H	-0.231721	-0.527215	0.295000
H406	H	0.268279	-0.027215	0.795000
