data_functionalizedCrystal
_audit_creation_method	'MofGen! by Chris Wilmer'
_symmetry_space_group_name_H-M	'P1'
_symmetry_Int_Tables_number	1
_symmetry_cell_setting	triclinic
loop_
_symmetry_equiv_pos_as_xyz
  x,y,z
_cell_length_a	14.908571
_cell_length_b	12.759394
_cell_length_c	14.908308
_cell_angle_alpha	93.268403
_cell_angle_beta	90.175053
_cell_angle_gamma	86.711101
loop_
_atom_site_label
_atom_site_type_symbol
_atom_site_fract_x
_atom_site_fract_y
_atom_site_fract_z
Zn1	Zn	1.345341	-0.548282	-0.587592
Zn2	Zn	1.353935	-0.714462	-0.437236
Zn3	Zn	1.203654	-0.528102	-0.428590
Zn4	Zn	1.194963	-0.713213	-0.578887
O5	O	1.274473	-0.626015	-0.508076
O6	O	1.472308	-0.579294	-0.574908
O7	O	1.341234	-0.681818	-0.310264
O8	O	1.222490	-0.383762	-0.449706
O9	O	1.478622	-0.701385	-0.464442
O10	O	1.326587	-0.398588	-0.566525
O11	O	1.230824	-0.544900	-0.303912
O12	O	1.076675	-0.543690	-0.441266
O13	O	1.207676	-0.699258	-0.705867
O14	O	1.070289	-0.679690	-0.551688
O15	O	1.318159	-0.578083	-0.712262
O16	O	1.332806	-0.861313	-0.456001
O17	O	1.216010	-0.860396	-0.560072
C18	C	1.040856	-0.609365	-0.494595
C19	C	0.940913	-0.602270	-0.488849
C20	C	0.746516	-0.730752	-0.592880
C21	C	0.652610	-0.724088	-0.587484
C22	C	0.659192	-0.582274	-0.472666
C23	C	0.753098	-0.588938	-0.478062
C24	C	0.796757	-0.663180	-0.538170
C25	C	0.890665	-0.669848	-0.543561
C26	C	0.897246	-0.528030	-0.428748
C27	C	0.803340	-0.521366	-0.423352
C28	C	1.274420	-0.898977	-0.508051
C29	C	1.274478	-1.015759	-0.508075
C30	C	1.396180	-1.016672	-0.399798
C31	C	1.457053	-1.071992	-0.345671
C32	C	1.457105	-1.181719	-0.345698
C33	C	1.396278	-1.236129	-0.399860
C34	C	1.335404	-1.180809	-0.453987
C35	C	1.335358	-1.071079	-0.453952
C36	C	1.213709	-1.179897	-0.562269
C37	C	1.213651	-1.070169	-0.562238
C38	C	1.152882	-1.234306	-0.616431
C39	C	1.092002	-1.178986	-0.670555
C40	C	1.091953	-1.069252	-0.670524
C41	C	1.152778	-1.014849	-0.616365
C42	C	1.509002	-0.642730	-0.521611
C43	C	1.608945	-0.649853	-0.527378
C44	C	1.260989	-0.640782	-0.742602
C45	C	1.255243	-0.647075	-0.842543
C46	C	1.274549	-0.351989	-0.508122
C47	C	1.274582	-0.235216	-0.508142
C48	C	1.359488	-0.532697	-1.037003
C49	C	1.354092	-0.538606	-1.130907
C50	C	1.239051	-0.664798	-1.124254
C51	C	1.244447	-0.658888	-1.030351
C52	C	1.304669	-0.592837	-0.986729
C53	C	1.310069	-0.586934	-0.892824
C54	C	1.195024	-0.713118	-0.886173
C55	C	1.189627	-0.719028	-0.980077
C56	C	1.287956	-0.611232	-0.274466
C57	C	1.293877	-0.604656	-0.174536
H58	H	1.506580	-1.027682	-0.301574
O59	O	1.153005	-1.340909	-0.616611
C60	C	1.171108	-1.505369	-0.704215
C61	C	1.171017	-1.384654	-0.704133
H62	H	1.185651	-1.540772	-0.774972
H63	H	1.225089	-1.535625	-0.656280
H64	H	1.102581	-1.529075	-0.681456
H65	H	1.239505	-1.360857	-0.726912
H66	H	1.116990	-1.354464	-0.752047
H67	H	1.190021	-0.718573	-1.159788
O68	O	1.516328	-1.235521	-0.293258
C69	C	1.638444	-1.367233	-0.288298
C70	C	1.571436	-1.306363	-0.347790
H71	H	1.683003	-1.424538	-0.332361
H72	H	1.681976	-1.309552	-0.249607
H73	H	1.599909	-1.412723	-0.238867
H74	H	1.609898	-1.260870	-0.397272
H75	H	1.527904	-1.364096	-0.386418
H76	H	0.623629	-0.521823	-0.423735
H77	H	1.396332	-1.325475	-0.399886
O78	O	1.368584	-0.522684	-0.850587
C79	C	1.482151	-0.398184	-0.867103
C80	C	1.415909	-0.470889	-0.915045
H81	H	1.520445	-0.356305	-0.919196
H82	H	1.443449	-0.337480	-0.820793
H83	H	1.531649	-0.447009	-0.825819
H84	H	1.366396	-0.422152	-0.956378
H85	H	1.454671	-0.531597	-0.961302
H86	H	1.042486	-1.223296	-0.714653
H87	H	1.042386	-1.024217	-0.714605
H88	H	1.152738	-0.925503	-0.616329
O89	O	0.761030	-0.449303	-0.364848
C90	C	0.741002	-0.386417	-0.210314
C91	C	0.788994	-0.468074	-0.276476
H92	H	0.763579	-0.401577	-0.138850
H93	H	0.758584	-0.304019	-0.227209
H94	H	0.665257	-0.393247	-0.215905
H95	H	0.864749	-0.461340	-0.270921
H96	H	0.771339	-0.550438	-0.259562
O97	O	0.933221	-0.741932	-0.601872
C98	C	1.074966	-0.815004	-0.661117
C99	C	1.026891	-0.733340	-0.595021
H100	H	1.150705	-0.808071	-0.655614
H101	H	1.057474	-0.897409	-0.644153
H102	H	1.052297	-0.799939	-0.732572
H103	H	1.049534	-0.748307	-0.523544
H104	H	1.044384	-0.650962	-0.612063
H105	H	0.938162	-0.473010	-0.384197
O106	O	0.788787	-0.802898	-0.651339
C107	C	0.772354	-0.942905	-0.764608
C108	C	0.724369	-0.861232	-0.698457
H109	H	0.720294	-0.990105	-0.802707
H110	H	0.813598	-0.900892	-0.814280
H111	H	0.818709	-0.998234	-0.725757
H112	H	0.677969	-0.805880	-0.737232
H113	H	0.683182	-0.903314	-0.648785
O114	O	1.407251	-0.480223	-1.179878
C115	C	1.449959	-0.433441	-1.327490
C116	C	1.389690	-0.499605	-1.272140
H117	H	1.435796	-0.449104	-1.402095
H118	H	1.435241	-0.346423	-1.308193
H119	H	1.523514	-0.455872	-1.313153
H120	H	1.316116	-0.477266	-1.286448
H121	H	1.404486	-0.586607	-1.291445
O122	O	1.418008	-0.468455	-0.994764
C123	C	1.531593	-0.343975	-1.011271
C124	C	1.465343	-0.416666	-1.059218
H125	H	1.569894	-0.302100	-1.063362
H126	H	1.492895	-0.283266	-0.964962
H127	H	1.581082	-0.392808	-0.969986
H128	H	1.415838	-0.367919	-1.100551
H129	H	1.504100	-0.477378	-1.105475
H130	H	1.140595	-0.772803	-1.015607
H131	H	0.611707	-0.779110	-0.632037
O132	O	1.141724	-0.771640	-0.837473
C133	C	1.026999	-0.897366	-0.840785
C134	C	1.087321	-0.831170	-0.896047
H135	H	0.982986	-0.945496	-0.888119
H136	H	1.070744	-0.952546	-0.799217
H137	H	0.982564	-0.842996	-0.794096
H138	H	1.131766	-0.885459	-0.942787
H139	H	1.043523	-0.775979	-0.937556
H140	H	1.396133	-0.927325	-0.399758
