data_functionalizedCrystal
_audit_creation_method	'MofGen! by Chris Wilmer'
_symmetry_space_group_name_H-M	'P1'
_symmetry_Int_Tables_number	1
_symmetry_cell_setting	triclinic
loop_
_symmetry_equiv_pos_as_xyz
  x,y,z
_cell_length_a	16.992694
_cell_length_b	16.974959
_cell_length_c	9.130313
_cell_angle_alpha	93.645936
_cell_angle_beta	90.002155
_cell_angle_gamma	87.028296
loop_
_atom_site_label
_atom_site_type_symbol
_atom_site_fract_x
_atom_site_fract_y
_atom_site_fract_z
O1	O	1.040221	0.167645	-0.101772
O2	O	0.811938	0.165805	-0.102032
O3	O	0.932435	0.052027	-0.115468
O4	O	0.919723	0.281423	-0.088336
O5	O	0.932427	0.052023	0.128130
O6	O	0.811929	0.165801	0.141566
O7	O	1.040213	0.167641	0.141827
Cu8	Cu	0.926070	0.166721	0.163939
Cu9	Cu	0.926080	0.166725	-0.124144
O10	O	0.919715	0.281419	0.155263
C11	C	0.931945	0.022536	0.002839
C12	C	0.930487	-0.065330	-0.007564
C13	C	0.782723	0.163437	0.019481
C14	C	0.695686	0.156378	0.018629
C15	C	0.922350	-0.559927	-0.080537
C16	C	0.923713	-0.477367	-0.070732
C17	C	0.924383	-0.436105	0.066956
C18	C	0.923699	-0.477408	0.194848
C19	C	0.922342	-0.559967	0.185042
C20	C	0.928446	-0.189192	0.110522
C21	C	0.929801	-0.106627	0.120318
C22	C	0.929815	-0.106591	-0.145263
C23	C	0.928454	-0.189152	-0.155057
C24	C	0.927774	-0.230448	-0.027165
N25	N	0.925774	-0.351715	0.076981
N26	N	0.926389	-0.314837	-0.037192
C27	C	0.645377	0.224492	0.026687
C28	C	0.563597	0.217854	0.025922
C29	C	0.532128	0.143102	0.017089
C30	C	0.582444	0.074983	0.009035
C31	C	0.664222	0.081621	0.009811
C32	C	0.288558	0.115588	0.013874
C33	C	0.206773	0.108954	0.013095
C34	C	0.187933	0.251826	0.029984
C35	C	0.269713	0.258458	0.030750
C36	C	0.320022	0.190339	0.022704
N37	N	0.448536	0.136315	0.016302
N38	N	0.403612	0.197127	0.023501
C39	C	1.069427	0.170009	0.020310
C40	C	1.156464	0.177068	0.021152
C41	C	0.920206	0.310910	0.036952
C42	C	0.921664	0.398776	0.047345
N43	N	0.926069	0.166717	0.366561
N44	N	0.926088	0.166723	-0.326767
C45	C	0.979444	0.116360	0.437266
C46	C	0.979451	0.116360	0.590603
C47	C	0.872708	0.217083	0.602517
C48	C	0.872697	0.217078	0.449182
H49	H	0.924273	-0.443746	-0.174868
O50	O	0.930529	-0.062124	0.268836
H51	H	0.984556	-0.028167	0.279218
O52	O	0.921604	-0.604520	0.322964
H53	H	0.868445	-0.585032	0.388940
H54	H	1.022902	0.075352	0.369999
H55	H	1.022912	0.075353	0.648166
H56	H	0.670992	0.285363	0.033879
O57	O	0.718488	0.008156	0.001131
H58	H	0.756201	0.007762	-0.098195
H59	H	0.522638	0.273320	0.032482
O60	O	0.303656	0.339084	0.040314
H61	H	0.254933	0.385334	0.045812
H62	H	0.924250	-0.443807	0.306956
H63	H	0.829230	0.258085	0.391611
H64	H	0.921797	-0.593516	-0.192658
O65	O	0.927731	-0.233650	-0.303569
H66	H	0.926664	-0.297996	-0.288902
O67	O	0.133674	0.325296	0.038693
H68	H	0.071521	0.308125	0.036688
H69	H	0.181155	0.048079	0.005900
O70	O	0.815157	0.271411	0.691635
H71	H	0.754046	0.257439	0.660584
O72	O	0.548508	-0.005646	-0.000480
H73	H	0.511701	-0.012094	-0.100531
O74	O	0.930556	-0.062053	-0.283200
H75	H	0.931618	0.002287	-0.253257
O76	O	0.927704	-0.233729	0.248455
H77	H	0.928388	-0.191163	0.345840
H78	H	0.329510	0.060120	0.007323
