data_functionalizedCrystal
_audit_creation_method	'MofGen! by Chris Wilmer'
_symmetry_space_group_name_H-M	'P1'
_symmetry_Int_Tables_number	1
_symmetry_cell_setting	triclinic
loop_
_symmetry_equiv_pos_as_xyz
  x,y,z
_cell_length_a	8.597340
_cell_length_b	8.559649
_cell_length_c	7.540329
_cell_angle_alpha	89.998238
_cell_angle_beta	97.699141
_cell_angle_gamma	77.625043
loop_
_atom_site_label
_atom_site_type_symbol
_atom_site_fract_x
_atom_site_fract_y
_atom_site_fract_z
O1	O	2.053713	0.238039	0.166353
O2	O	2.553713	0.738039	0.666353
O3	O	1.594585	0.256300	0.096192
O4	O	2.094585	0.756300	0.596192
O5	O	1.864599	0.015199	0.137456
O6	O	2.364599	0.515199	0.637456
O7	O	1.783700	0.479140	0.125089
O8	O	2.283700	0.979140	0.625089
O9	O	1.864585	0.015196	0.432419
O10	O	2.364585	0.515196	0.932419
O11	O	1.594571	0.256297	0.391155
O12	O	2.094571	0.756297	0.891155
O13	O	2.053699	0.238036	0.461316
O14	O	2.553699	0.738036	0.961316
Cu15	Cu	1.824134	0.247166	0.453168
Cu16	Cu	2.324134	0.747166	0.953168
Cu17	Cu	1.824150	0.247170	0.104340
Cu18	Cu	2.324150	0.747170	0.604340
O19	O	1.783686	0.479136	0.420052
O20	O	2.283686	0.979136	0.920052
C21	C	1.536344	0.254337	0.234774
C22	C	2.036344	0.754337	0.734774
C23	C	1.362826	0.248475	0.208258
C24	C	1.862826	0.748475	0.708258
C25	C	1.870723	-0.044236	0.285871
C26	C	2.370723	0.455764	0.785871
C27	C	1.888972	-0.221331	0.288650
C28	C	2.388972	0.278669	0.788650
C29	C	2.111941	0.239999	0.322730
C30	C	2.611941	0.739999	0.822730
C31	C	2.285458	0.245861	0.349235
C32	C	2.785458	0.745861	0.849235
C33	C	1.777562	0.538572	0.271633
C34	C	2.277562	1.038572	0.771633
C35	C	1.759313	0.715667	0.268843
C36	C	2.259313	1.215667	0.768843
N37	N	1.824134	0.247163	0.698516
N38	N	2.324134	0.747163	1.198516
N39	N	1.824164	0.247161	-0.141006
N40	N	2.324164	0.747161	0.358994
H41	H	1.296311	0.246226	0.067259
H42	H	1.796311	0.746226	0.567259
C43	C	2.076295	-0.428108	0.165653
C44	C	2.576295	0.071892	0.665653
C45	C	2.057692	-0.331407	0.314434
C46	C	2.557692	0.168593	0.814434
H47	H	2.180458	-0.496055	0.181569
H48	H	2.680458	0.003945	0.681569
H49	H	1.997412	-0.491357	0.153623
H50	H	2.497412	0.008643	0.653623
H51	H	2.063656	-0.362487	0.060867
H52	H	2.563656	0.137513	0.560867
H53	H	2.070320	-0.397029	0.419218
H54	H	2.570320	0.102971	0.919218
H55	H	2.136598	-0.268152	0.326484
H56	H	2.636598	0.231848	0.826484
H57	H	1.351969	0.248098	0.490225
H58	H	1.851969	0.748098	0.990225
H59	H	1.634346	-0.202788	0.249752
H60	H	2.134346	0.297212	0.749752
