data_functionalizedCrystal
_audit_creation_method	'MofGen! by Chris Wilmer'
_symmetry_space_group_name_H-M	'P1'
_symmetry_Int_Tables_number	1
_symmetry_cell_setting	triclinic
loop_
_symmetry_equiv_pos_as_xyz
  x,y,z
_cell_length_a	12.759395
_cell_length_b	18.050589
_cell_length_c	18.050582
_cell_angle_alpha	89.981795
_cell_angle_beta	89.987476
_cell_angle_gamma	90.029758
loop_
_atom_site_label
_atom_site_type_symbol
_atom_site_fract_x
_atom_site_fract_y
_atom_site_fract_z
Zn1	Zn	1.606087	-0.295676	-0.419888
Zn2	Zn	1.605961	-0.419860	-0.295707
Zn3	Zn	1.430410	-0.295691	-0.295717
Zn4	Zn	1.430336	-0.419832	-0.419861
O5	O	1.518199	-0.357765	-0.357793
O6	O	1.753091	-0.312155	-0.403422
O7	O	1.582652	-0.403406	-0.191784
O8	O	1.453797	-0.191765	-0.312204
O9	O	1.752999	-0.403391	-0.312187
O10	O	1.582867	-0.191754	-0.403431
O11	O	1.453675	-0.312180	-0.191791
O12	O	1.283379	-0.312154	-0.312178
O13	O	1.453672	-0.403345	-0.523789
O14	O	1.283325	-0.403359	-0.403386
O15	O	1.582796	-0.312128	-0.523809
O16	O	1.582580	-0.523780	-0.312161
O17	O	1.453550	-0.523760	-0.403376
C18	C	1.245231	-0.357756	-0.357780
C19	C	1.128454	-0.357770	-0.357792
C20	C	1.128437	-0.452896	-0.452614
C21	C	1.073567	-0.500465	-0.500026
C22	C	0.963845	-0.500474	-0.500035
C23	C	0.908991	-0.452907	-0.452628
C24	C	0.963861	-0.405338	-0.405216
C25	C	1.073585	-0.405336	-0.405210
C26	C	0.963878	-0.310210	-0.310399
C27	C	1.073600	-0.310203	-0.310385
C28	C	0.909024	-0.262643	-0.262992
C29	C	0.963893	-0.215076	-0.215574
C30	C	1.073622	-0.215070	-0.215567
C31	C	1.128470	-0.262634	-0.262973
C32	C	1.518072	-0.550717	-0.357781
C33	C	1.518114	-0.633263	-0.357800
C34	C	1.448016	-0.832729	-0.407386
C35	C	1.422413	-0.882164	-0.339619
C36	C	1.518217	-0.784393	-0.357810
C37	C	1.543871	-0.882040	-0.425584
C38	C	1.518314	-0.930378	-0.357825
C39	C	1.492564	-0.832740	-0.290008
C40	C	1.614066	-0.832612	-0.376018
C41	C	1.588500	-0.882024	-0.308205
C42	C	1.518158	-0.700295	-0.357802
C43	C	1.518374	-1.014475	-0.357825
C44	C	1.792232	-0.357774	-0.357806
C45	C	1.909009	-0.357778	-0.357812
C46	C	1.518240	-0.357732	-0.551499
C47	C	1.518257	-0.357718	-0.634045
C48	C	1.518354	-0.164059	-0.357822
C49	C	1.518421	-0.081513	-0.357834
C50	C	1.448094	-0.407254	-0.833485
C51	C	1.543946	-0.425405	-0.882874
C52	C	1.518309	-0.357661	-0.785175
C53	C	1.422509	-0.339489	-0.882867
C54	C	1.518351	-0.357608	-0.931160
C55	C	1.614212	-0.375848	-0.833478
C56	C	1.492710	-0.289900	-0.833466
C57	C	1.588629	-0.308026	-0.882833
C58	C	1.518284	-0.357694	-0.701077
C59	C	1.518387	-0.357575	-1.015257
C60	C	1.518218	-0.357744	-0.164841
C61	C	1.518404	-0.357549	-0.082296
H62	H	1.118242	-0.539192	-0.538625
H63	H	1.565623	-0.482687	-0.904577
H64	H	0.819650	-0.452913	-0.452646
H65	H	1.388562	-0.811084	-0.449251
H66	H	1.470810	-0.811174	-0.232682
H67	H	1.341402	-0.903946	-0.324232
Br68	Br	1.349216	-0.477241	-0.797367
Br69	Br	1.749313	-0.401545	-0.797476
H70	H	1.647909	-0.903533	-0.266239
H71	H	1.648094	-0.266064	-0.904365
Br72	Br	1.456535	-0.194453	-0.797263
H73	H	1.118290	-0.176328	-0.176963
H74	H	0.919171	-0.539205	-0.538647
H75	H	1.695059	-0.810833	-0.391438
H76	H	1.341475	-0.324141	-0.904562
Br77	Br	0.760115	-0.262648	-0.263010
Br78	Br	0.889445	-0.150521	-0.151251
H79	H	1.565531	-0.903696	-0.482894
Br80	Br	1.277379	-0.262634	-0.262961
H81	H	1.217778	-0.452899	-0.452606
