data_functionalizedCrystal
_audit_creation_method	'MofGen! by Chris Wilmer'
_symmetry_space_group_name_H-M	'P1'
_symmetry_Int_Tables_number	1
_symmetry_cell_setting	triclinic
loop_
_symmetry_equiv_pos_as_xyz
  x,y,z
_cell_length_a	10.654550
_cell_length_b	10.654551
_cell_length_c	9.730223
_cell_angle_alpha	90.000031
_cell_angle_beta	89.992030
_cell_angle_gamma	84.485132
loop_
_atom_site_label
_atom_site_type_symbol
_atom_site_fract_x
_atom_site_fract_y
_atom_site_fract_z
O1	O	1.667842	0.176395	-0.114394
O2	O	1.302364	0.193201	-0.114371
O3	O	1.493505	0.002059	-0.114383
O4	O	1.476701	0.367537	-0.114381
O5	O	1.493488	0.002060	0.114197
O6	O	1.302347	0.193202	0.114209
O7	O	1.667825	0.176396	0.114186
Zn8	Zn	1.485083	0.184799	0.150490
Zn9	Zn	1.485106	0.184798	-0.150674
O10	O	1.476683	0.367538	0.114199
C11	C	1.255557	0.191968	-0.000078
C12	C	1.116114	0.188276	-0.000069
C13	C	1.492263	-0.044739	-0.000096
C14	C	1.488570	-0.184182	-0.000105
C15	C	1.036629	0.300817	-0.000089
C16	C	0.905608	0.297341	-0.000113
C17	C	0.933570	0.068771	-0.000104
C18	C	1.064589	0.072249	-0.000070
C19	C	1.088154	0.416844	-0.000088
C20	C	1.008667	0.529395	-0.000109
C21	C	0.877647	0.525918	-0.000133
C22	C	0.826112	0.409891	-0.000136
C23	C	1.486847	-0.249694	-0.124702
C24	C	1.483367	-0.380715	-0.124695
C25	C	1.483338	-0.380699	0.124515
C26	C	1.486809	-0.249680	0.124507
C27	C	1.488608	-0.184196	-0.249314
C28	C	1.486887	-0.249709	-0.373921
C29	C	1.483407	-0.380729	-0.373914
C30	C	1.481648	-0.446237	-0.249301
C31	C	1.714632	0.177629	-0.000109
C32	C	1.854075	0.181321	-0.000127
C33	C	1.477926	0.414336	-0.000091
C34	C	1.481619	0.553779	-0.000091
N35	N	1.485077	0.184799	0.356026
N36	N	1.485122	0.184788	-0.356211
C37	C	1.400428	0.269400	0.427993
C38	C	1.400453	0.269397	0.571876
C39	C	1.569780	0.100184	0.571812
C40	C	1.569759	0.100193	0.427932
C41	C	1.315745	0.354006	0.356087
C42	C	1.231089	0.438612	0.428054
C43	C	1.231114	0.438610	0.571937
C44	C	1.315796	0.354001	0.643853
H45	H	1.050636	0.623860	-0.000095
H46	H	1.478796	-0.552920	-0.249306
O47	O	1.651966	0.017818	0.641520
C48	C	1.723599	-0.199889	0.685579
C49	C	1.630478	-0.106742	0.606527
H50	H	1.706241	-0.300617	0.657339
H51	H	1.824355	-0.182700	0.657244
H52	H	1.709082	-0.185299	0.800768
H53	H	1.644880	-0.121277	0.491320
H54	H	1.529755	-0.123955	0.634976
H55	H	1.315818	0.354015	0.761012
H56	H	1.488307	-0.196363	-0.475376
H57	H	1.162192	0.507507	0.630531
O58	O	0.883573	-0.043961	0.000122
C59	C	0.867397	-0.240417	0.118478
C60	C	0.924075	-0.112778	0.118418
H61	H	0.900142	-0.296103	0.214096
H62	H	0.760095	-0.223646	0.118534
H63	H	0.900066	-0.296034	0.022779
H64	H	0.891503	-0.057095	0.214101
H65	H	1.031370	-0.129639	0.118291
H66	H	1.194836	0.419687	-0.000075
O67	O	1.141858	-0.037039	0.000186
C68	C	1.306024	-0.165724	0.118605
C69	C	1.218570	-0.041919	0.118496
H70	H	1.368086	-0.169698	0.214233
H71	H	1.246753	-0.249294	0.118675
H72	H	1.368038	-0.169794	0.022917
H73	H	1.156539	-0.037726	0.214167
H74	H	1.277915	0.041593	0.118354
H75	H	1.481907	-0.434046	0.225969
H76	H	1.638689	0.031305	0.369336
H77	H	1.481992	-0.434065	-0.475375
O78	O	1.148964	0.520974	0.358263
C79	C	1.077202	0.738673	0.314334
C80	C	1.170300	0.645535	0.393428
H81	H	1.094402	0.839400	0.342757
H82	H	1.091720	0.724254	0.199119
H83	H	0.976490	0.721303	0.342644
H84	H	1.271049	0.662847	0.365233
H85	H	1.155672	0.659975	0.508623
H86	H	0.812931	0.617562	-0.000136
H87	H	1.491446	-0.077513	-0.249334
H88	H	0.719425	0.407069	-0.000134
H89	H	1.488185	-0.196335	0.225964
H90	H	1.315715	0.354013	0.238930
