data_functionalizedCrystal
_audit_creation_method	'MofGen! by Chris Wilmer'
_symmetry_space_group_name_H-M	'P1'
_symmetry_Int_Tables_number	1
_symmetry_cell_setting	triclinic
loop_
_symmetry_equiv_pos_as_xyz
  x,y,z
_cell_length_a	16.956995
_cell_length_b	14.853559
_cell_length_c	16.053802
_cell_angle_alpha	92.571272
_cell_angle_beta	87.607939
_cell_angle_gamma	79.842963
loop_
_atom_site_label
_atom_site_type_symbol
_atom_site_fract_x
_atom_site_fract_y
_atom_site_fract_z
O1	O	1.061440	0.033312	-0.069486
O2	O	0.829316	0.064960	-0.069474
O3	O	0.951582	-0.082565	-0.069479
O4	O	0.939174	0.180837	-0.069480
O5	O	0.944852	-0.074476	0.069380
O6	O	0.822586	0.073049	0.069386
O7	O	1.054710	0.041401	0.069374
Zn8	Zn	0.937580	0.058509	0.091427
Zn9	Zn	0.946446	0.047852	-0.091526
O10	O	0.932444	0.188926	0.069379
C11	C	0.796245	0.070625	-0.000042
C12	C	0.707729	0.075443	-0.000038
C13	C	0.208470	0.111480	-0.000069
C14	C	0.291640	0.106947	-0.000069
C15	C	0.342636	0.021850	-0.000062
C16	C	0.310458	-0.058718	-0.000064
C17	C	0.227290	-0.054184	-0.000071
C18	C	0.592383	-0.000592	-0.000047
C19	C	0.675557	-0.005120	-0.000038
C20	C	0.656733	0.160546	-0.000044
C21	C	0.573563	0.165072	-0.000045
C22	C	0.541393	0.084504	-0.000052
N23	N	0.427649	0.017215	-0.000059
N24	N	0.456381	0.089140	-0.000062
C25	C	0.947656	-0.112067	-0.000051
C26	C	0.945975	-0.212024	-0.000056
C27	C	0.942512	-0.639067	-0.075747
C28	C	0.935175	-0.630243	0.075642
C29	C	0.936761	-0.536330	0.075643
C30	C	0.941221	-0.493781	-0.000053
C31	C	0.944096	-0.545145	-0.075749
C32	C	0.933878	-0.484957	0.151338
C33	C	0.935463	-0.391038	0.151341
C34	C	0.939930	-0.348489	0.075645
C35	C	0.942805	-0.399859	-0.000054
C36	C	0.947266	-0.357310	-0.075750
C37	C	0.950147	-0.408679	-0.151450
C38	C	0.948562	-0.502595	-0.151446
C39	C	0.941515	-0.254573	0.075640
C40	C	0.948850	-0.263388	-0.075752
C41	C	1.087781	0.035736	-0.000059
C42	C	1.176297	0.030918	-0.000069
C43	C	0.936370	0.218428	-0.000051
C44	C	0.938051	0.318384	-0.000052
N45	N	0.931534	0.065782	0.216287
N46	N	0.952498	0.040572	-0.216387
C47	C	0.983577	0.003029	0.259979
C48	C	0.979356	0.008124	0.347386
C49	C	0.923094	0.075977	0.391099
C50	C	0.871045	0.138732	0.347402
C51	C	0.875264	0.133632	0.259996
C52	C	0.904668	0.098228	0.652510
C53	C	0.900455	0.103325	0.739921
C54	C	1.008765	-0.027285	0.739899
C55	C	1.012981	-0.032376	0.652492
C56	C	0.960930	0.030377	0.608802
N57	N	0.918779	0.081188	0.480443
N58	N	0.965241	0.025161	0.519460
H59	H	0.166953	0.180776	-0.000068
H60	H	0.931538	-0.664891	0.137270
O61	O	0.687895	0.238861	-0.000157
C62	C	0.700789	0.374840	-0.072133
C63	C	0.665435	0.286185	-0.072095
H64	H	0.682658	0.413117	-0.130298
H65	H	0.676951	0.420032	-0.014066
H66	H	0.768987	0.356967	-0.072088
H67	H	0.597237	0.303973	-0.072170
H68	H	0.689336	0.241018	-0.130158
H69	H	0.566201	-0.066196	-0.000050
O70	O	1.038149	-0.063017	0.217575
C71	C	1.086001	-0.224792	0.190940
C72	C	1.024142	-0.150074	0.238983
H73	H	1.074708	-0.295195	0.208244
H74	H	1.080098	-0.217768	0.120948
H75	H	1.149036	-0.216720	0.208105
H76	H	0.961080	-0.158099	0.221887
H77	H	1.030115	-0.157121	0.308963
H78	H	0.201097	-0.119787	-0.000073
H79	H	1.058794	-0.087627	0.616902
H80	H	0.930242	-0.519607	0.212965
H81	H	0.944861	-0.680897	-0.137381
O82	O	1.029805	-0.052912	0.389860
C83	C	1.041906	-0.171498	0.488580
C84	C	0.984679	-0.102427	0.440519
H85	H	1.005444	-0.211536	0.529562
H86	H	1.082831	-0.220924	0.442355
H87	H	1.079816	-0.133115	0.529448
H88	H	0.946717	-0.140733	0.399649
H89	H	0.943808	-0.053003	0.486788
H90	H	1.051142	-0.078377	0.775480
O91	O	0.854075	0.159284	0.610206
C92	C	0.746173	0.289338	0.619460
C93	C	0.803436	0.220259	0.667477
H94	H	0.705205	0.338642	0.665743
H95	H	0.782571	0.329511	0.578545
H96	H	0.708311	0.250953	0.578535
H97	H	0.841310	0.258573	0.708447
H98	H	0.766990	0.180088	0.708340
H99	H	0.933120	-0.349221	0.212981
H100	H	0.939151	-0.212748	0.137274
H101	H	0.854638	0.158582	0.775509
O102	O	0.816355	0.204527	0.389957
C103	C	0.702698	0.237515	0.488636
C104	C	0.764597	0.162907	0.440511
H105	H	0.660825	0.203893	0.529507
H106	H	0.735148	0.282389	0.529596
H107	H	0.666260	0.281505	0.442378
H108	H	0.801053	0.118852	0.486708
H109	H	0.732099	0.118099	0.399538
H110	H	0.351986	-0.128006	-0.000064
H111	H	0.832884	0.184731	0.224423
H112	H	0.717077	-0.074419	-0.000037
H113	H	0.532047	0.234367	-0.000053
H114	H	0.317830	0.172549	-0.000076
H115	H	0.952486	-0.228752	-0.137393
O116	O	0.954502	-0.367205	-0.224905
C117	C	0.960111	-0.226402	-0.291985
C118	C	0.955204	-0.273266	-0.208743
H119	H	0.960663	-0.150441	-0.278947
H120	H	1.017378	-0.259370	-0.329338
H121	H	0.905863	-0.234697	-0.329303
H122	H	1.009411	-0.264986	-0.171358
H123	H	0.897904	-0.240289	-0.171453
H124	H	0.950907	-0.544428	-0.213077
