data_functionalizedCrystal
_audit_creation_method	'MofGen! by Chris Wilmer'
_symmetry_space_group_name_H-M	'P1'
_symmetry_Int_Tables_number	1
_symmetry_cell_setting	triclinic
loop_
_symmetry_equiv_pos_as_xyz
  x,y,z
_cell_length_a	13.339070
_cell_length_b	16.109302
_cell_length_c	15.186229
_cell_angle_alpha	90.007553
_cell_angle_beta	89.997216
_cell_angle_gamma	99.545538
loop_
_atom_site_label
_atom_site_type_symbol
_atom_site_fract_x
_atom_site_fract_y
_atom_site_fract_z
O1	O	0.130019	1.133155	0.073266
O2	O	0.463352	1.466489	0.406600
O3	O	0.796685	1.799822	0.739933
O4	O	0.146199	0.894830	0.073259
O5	O	0.479532	1.228163	0.406592
O6	O	0.812865	1.561496	0.739926
O7	O	-0.009146	0.986640	0.073259
O8	O	0.324187	1.319974	0.406593
O9	O	0.657521	1.653307	0.739926
O10	O	0.285363	1.041345	0.073266
O11	O	0.618697	1.374678	0.406599
O12	O	0.952030	1.708011	0.739933
O13	O	-0.009137	0.986627	-0.073198
O14	O	0.324196	1.319961	0.260135
O15	O	0.657530	1.653294	0.593469
O16	O	0.146208	0.894817	-0.073198
O17	O	0.479541	1.228150	0.260135
O18	O	0.812874	1.561483	0.593468
O19	O	0.130027	1.133142	-0.073191
O20	O	0.463361	1.466476	0.260142
O21	O	0.796694	1.799809	0.593476
Zn22	Zn	0.138119	1.013977	-0.096448
Zn23	Zn	0.471452	1.347311	0.236885
Zn24	Zn	0.804786	1.680644	0.570219
Zn25	Zn	0.138107	1.013995	0.096516
Zn26	Zn	0.471441	1.347328	0.429849
Zn27	Zn	0.804774	1.680661	0.763183
O28	O	0.285372	1.041332	-0.073191
O29	O	0.618705	1.374665	0.260142
O30	O	0.952039	1.707998	0.593475
C31	C	0.145548	0.863697	0.000030
C32	C	0.478881	1.197030	0.333363
C33	C	0.812214	1.530364	0.666696
C34	C	0.143582	0.770948	0.000027
C35	C	0.476916	1.104281	0.333360
C36	C	0.810249	1.437614	0.666693
C37	C	0.139043	0.557550	-0.079798
C38	C	0.472376	0.890884	0.253535
C39	C	0.805709	1.224217	0.586868
C40	C	0.137185	0.470401	-0.079795
C41	C	0.470518	0.803735	0.253538
C42	C	0.803852	1.137068	0.586871
C43	C	0.137181	0.470427	0.079880
C44	C	0.470514	0.803761	0.413214
C45	C	0.803847	1.137094	0.746547
C46	C	0.139031	0.557574	0.079876
C47	C	0.472364	0.890907	0.413210
C48	C	0.805698	1.224240	0.746543
C49	C	0.139967	0.601134	0.000034
C50	C	0.473300	0.934467	0.333368
C51	C	0.806634	1.267800	0.666701
C52	C	0.136259	0.426838	0.000041
C53	C	0.469593	0.760172	0.333375
C54	C	0.802926	1.093505	0.666708
C55	C	0.134245	0.332348	0.000045
C56	C	0.467579	0.665681	0.333379
C57	C	0.800912	0.999014	0.666712
C58	C	0.141979	0.695630	0.000030
C59	C	0.475313	1.028964	0.333363
C60	C	0.808646	1.362297	0.666697
C61	C	-0.046828	0.977393	0.000031
C62	C	0.286506	1.310727	0.333365
C63	C	0.619839	1.644060	0.666698
C64	C	-0.159121	0.949849	0.000034
C65	C	0.174213	1.283183	0.333368
C66	C	0.507546	1.616516	0.666701
C67	C	-0.523983	1.164017	0.000040
C68	C	-0.190650	1.497351	0.333373
C69	C	0.142683	1.830684	0.666707
C70	C	-0.418479	1.189899	0.000033
C71	C	-0.085146	1.523232	0.333366
C72	C	0.248188	1.856566	0.666699
C73	C	-0.353634	1.129889	0.000033
C74	C	-0.020301	1.463222	0.333367
C75	C	0.313032	1.796555	0.666700
C76	C	-0.394304	1.043992	0.000041
C77	C	-0.060971	1.377326	0.333374
C78	C	0.272363	1.710659	0.666708
C79	C	-0.499819	1.018108	0.000042
C80	C	-0.166485	1.351442	0.333375
C81	C	0.166848	1.684775	0.666708
C82	C	-0.329470	0.983980	0.000035
C83	C	0.003864	1.317313	0.333368
C84	C	0.337197	1.650646	0.666701
C85	C	-0.370139	0.898083	0.000042
C86	C	-0.036806	1.231417	0.333376
C87	C	0.296527	1.564750	0.666709
C88	C	-0.475644	0.872203	0.000044
C89	C	-0.142311	1.205537	0.333377
C90	C	0.191023	1.538870	0.666710
C91	C	-0.540489	0.932214	0.000043
C92	C	-0.207155	1.265547	0.333376
C93	C	0.126178	1.598880	0.666710
C94	C	-0.223955	1.009864	0.000034
C95	C	0.109378	1.343197	0.333367
C96	C	0.442712	1.676530	0.666701
C97	C	-0.199790	0.863955	0.000036
C98	C	0.133543	1.197288	0.333369
C99	C	0.466876	1.530621	0.666702
C100	C	-0.305295	0.838073	0.000043
C101	C	0.028039	1.171406	0.333376
C102	C	0.361372	1.504740	0.666710
C103	C	0.323054	1.050579	0.000038
C104	C	0.656387	1.383912	0.333372
C105	C	0.989721	1.717245	0.666705
C106	C	0.435347	1.078123	0.000041
C107	C	0.768680	1.411456	0.333375
C108	C	1.102013	1.744789	0.666708
C109	C	0.130679	1.164275	0.000040
C110	C	0.464012	1.497608	0.333374
C111	C	0.797345	1.830942	0.666707
C112	C	0.132644	1.257024	0.000049
C113	C	0.465977	1.590358	0.333382
C114	C	0.799311	1.923691	0.666716
N115	N	0.138126	1.013972	-0.228141
N116	N	0.471460	1.347305	0.105193
N117	N	0.804793	1.680638	0.438526
C118	C	0.199481	1.078563	-0.453860
C119	C	0.532814	1.411896	-0.120527
C120	C	0.866147	1.745229	0.212806
C121	C	0.199473	1.078570	-0.546050
C122	C	0.532807	1.411903	-0.212717
C123	C	0.866140	1.745237	0.120617
C124	C	0.076730	0.949411	-0.546065
C125	C	0.410064	1.282744	-0.212732
C126	C	0.743397	1.616077	0.120601
C127	C	0.076733	0.949407	-0.453877
C128	C	0.410066	1.282740	-0.120544
C129	C	0.743400	1.616074	0.212789
C130	C	0.138114	1.013983	-0.407777
C131	C	0.471447	1.347316	-0.074444
C132	C	0.804781	1.680650	0.258889
C133	C	0.138104	1.013994	-0.592155
C134	C	0.471438	1.347327	-0.258821
C135	C	0.804771	1.680660	0.074512
C136	C	0.138096	1.014001	-0.692111
C137	C	0.471429	1.347335	-0.358778
C138	C	0.804763	1.680668	-0.025444
C139	C	0.138121	1.013977	-0.307815
C140	C	0.471454	1.347310	0.025519
C141	C	0.804788	1.680643	0.358852
N142	N	0.138092	1.014005	0.228209
N143	N	0.471425	1.347338	0.561542
N144	N	0.804759	1.680672	0.894875
H145	H	-0.190853	1.079801	0.000028
H146	H	0.142481	1.413134	0.333361
H147	H	0.475814	1.746468	0.666694
O148	O	0.010539	0.879755	-0.595786
O149	O	0.343873	1.213089	-0.262453
O150	O	0.677206	1.546422	0.070881
H151	H	0.020855	0.890600	-0.667633
H152	H	0.354188	1.223934	-0.334299
H153	H	0.687522	1.557267	-0.000966
H154	H	0.139781	0.593060	0.144890
H155	H	0.473114	0.926393	0.478223
H156	H	0.806448	1.259727	0.811556
H157	H	-0.626400	0.911145	0.000052
H158	H	-0.293067	1.244478	0.333386
H159	H	0.040267	1.577812	0.666719
H160	H	-0.508753	0.802261	0.000043
H161	H	-0.175420	1.135595	0.333376
H162	H	0.157913	1.468928	0.666710
H163	H	-0.267729	1.150967	0.000027
H164	H	0.065605	1.484300	0.333360
H165	H	0.398938	1.817633	0.666694
H166	H	-0.338423	0.768135	0.000049
H167	H	-0.005090	1.101468	0.333382
H168	H	0.328243	1.434801	0.666715
H169	H	0.139805	0.593014	-0.144811
H170	H	0.473138	0.926348	0.188522
H171	H	0.806472	1.259681	0.521856
O172	O	0.136198	0.423392	-0.165900
O173	O	0.469531	0.756725	0.167433
O174	O	0.802864	1.090058	0.500767
H175	H	0.137168	0.468327	-0.221416
H176	H	0.470501	0.801660	0.111918
H177	H	0.803835	1.134993	0.445251
H178	H	-0.146993	0.815089	0.000032
H179	H	0.186340	1.148422	0.333365
H180	H	0.519673	1.481756	0.666698
O181	O	0.265673	1.148213	-0.404133
O182	O	0.599006	1.481546	-0.070800
O183	O	0.932339	1.814879	0.262533
H184	H	0.308336	1.193124	-0.451670
H185	H	0.641669	1.526457	-0.118337
H186	H	0.975003	1.859791	0.214997
H187	H	-0.385374	1.259835	0.000025
H188	H	-0.052040	1.593169	0.333358
H189	H	0.281293	1.926502	0.666692
H190	H	0.136420	0.434950	0.144885
H191	H	0.469753	0.768284	0.478218
H192	H	0.803086	1.101617	0.811551
H193	H	-0.576788	1.212868	0.000032
H194	H	-0.243455	1.546201	0.333366
H195	H	0.089878	1.879535	0.666699
H196	H	0.026756	0.896817	-0.416355
H197	H	0.360089	1.230150	-0.083022
H198	H	0.693422	1.563483	0.250311
H199	H	0.249443	1.131158	-0.583567
H200	H	0.582777	1.464491	-0.250233
H201	H	0.916110	1.797825	0.083100
