data_functionalizedCrystal
_audit_creation_method	'MofGen! by Chris Wilmer'
_symmetry_space_group_name_H-M	'P1'
_symmetry_Int_Tables_number	1
_symmetry_cell_setting	triclinic
loop_
_symmetry_equiv_pos_as_xyz
  x,y,z
_cell_length_a	15.297475
_cell_length_b	19.805405
_cell_length_c	19.805398
_cell_angle_alpha	90.030326
_cell_angle_beta	80.322960
_cell_angle_gamma	99.671656
loop_
_atom_site_label
_atom_site_type_symbol
_atom_site_fract_x
_atom_site_fract_y
_atom_site_fract_z
Zn1	Zn	1.379091	0.448809	-0.561433
Zn2	Zn	1.378995	0.561987	-0.448229
Zn3	Zn	1.228249	0.429214	-0.428709
Zn4	Zn	1.228183	0.542337	-0.541831
O5	O	1.303629	0.495587	-0.495051
O6	O	1.505321	0.480246	-0.562788
O7	O	1.358985	0.544397	-0.350921
O8	O	1.248326	0.337106	-0.446350
O9	O	1.505250	0.563397	-0.479618
O10	O	1.359149	0.351502	-0.543861
O11	O	1.248233	0.446850	-0.336580
O12	O	1.101997	0.427796	-0.427343
O13	O	1.248214	0.529908	-0.639150
O14	O	1.101949	0.510907	-0.510453
O15	O	1.359086	0.461193	-0.653551
O16	O	1.358921	0.654088	-0.460611
O17	O	1.248121	0.639652	-0.529380
C18	C	1.303528	0.671430	-0.495005
C19	C	1.303567	0.746667	-0.495018
C20	C	1.069240	0.465094	-0.464653
C21	C	0.968966	0.452065	-0.451665
C22	C	1.303654	0.495544	-0.671597
C23	C	1.303664	0.495526	-0.746830
C24	C	0.686313	0.588710	-0.587880
C25	C	0.780525	0.600956	-0.600081
C26	C	0.827640	0.563734	-0.562978
C27	C	0.780534	0.514264	-0.513672
C28	C	0.686313	0.502021	-0.501466
C29	C	0.827640	0.477045	-0.476564
C30	C	0.780534	0.427575	-0.427258
C31	C	0.686323	0.415334	-0.415055
C32	C	0.639208	0.452555	-0.452157
C33	C	0.921861	0.489289	-0.488770
C34	C	0.921861	0.402600	-0.402357
C35	C	0.827649	0.390353	-0.390156
C36	C	1.538935	0.526199	-0.525567
C37	C	1.639208	0.539245	-0.538571
C38	C	1.303756	0.319060	-0.495115
C39	C	1.303810	0.243835	-0.495142
C40	C	1.361317	0.789513	-0.459263
C41	C	1.361355	0.860206	-0.459283
C42	C	1.303638	0.888052	-0.495055
C43	C	1.245886	0.845200	-0.530815
C44	C	1.245853	0.774509	-0.530798
C45	C	1.246019	1.130291	-0.530882
C46	C	1.246055	1.200988	-0.530894
C47	C	1.361521	1.215988	-0.459366
C48	C	1.361488	1.145297	-0.459350
C49	C	1.303740	1.102452	-0.495113
C50	C	1.303700	1.025798	-0.495092
C51	C	1.303673	0.964703	-0.495072
C52	C	1.361475	0.546230	-1.216104
C53	C	1.361450	0.546245	-1.145413
C54	C	1.303776	0.495464	-1.102606
C55	C	1.246117	0.444669	-1.130494
C56	C	1.246138	0.444657	-1.201184
C57	C	1.246029	0.444716	-0.845409
C58	C	1.246015	0.444730	-0.774715
C59	C	1.361342	0.546303	-0.789638
C60	C	1.361363	0.546292	-0.860328
C61	C	1.303701	0.495499	-0.888209
C62	C	1.303727	0.495484	-0.964861
C63	C	1.303753	0.495476	-1.025956
C64	C	1.303657	0.495587	-0.319198
C65	C	1.303822	0.495437	-0.243988
H66	H	0.960205	0.529567	-0.528916
H67	H	1.199153	0.403325	-1.095635
H68	H	1.199056	1.223657	-0.560029
C69	C	1.424087	0.906607	-0.420389
C70	C	1.474603	0.867088	-0.389039
C71	C	1.532395	0.909807	-0.353196
H72	H	1.463467	0.939262	-0.451339
H73	H	1.389636	0.929730	-0.386379
H74	H	1.509052	0.843976	-0.423045
H75	H	1.435247	0.834434	-0.358079
H76	H	1.497944	0.932930	-0.319187
H77	H	1.571769	0.942461	-0.384151
H78	H	1.566672	0.882999	-0.331916
H79	H	0.562493	0.442586	-0.442227
C80	C	1.424213	1.262628	-0.420628
C81	C	1.411921	1.330500	-0.428320
C82	C	1.469669	1.373483	-0.392657
H83	H	1.411119	1.249469	-0.373411
H84	H	1.484826	1.258910	-0.438447
H85	H	1.351322	1.334215	-0.410497
H86	H	1.425022	1.343680	-0.475528
H87	H	1.530282	1.369765	-0.410477
H88	H	1.456570	1.360318	-0.345443
H89	H	1.461343	1.419540	-0.397876
C90	C	1.183509	0.389431	-1.231334
C91	C	1.133012	0.344951	-1.178720
C92	C	1.075314	0.294064	-1.206467
H93	H	1.144112	0.410118	-1.253796
H94	H	1.218027	0.364388	-1.263378
H95	H	1.098498	0.369990	-1.146687
H96	H	1.172385	0.324247	-1.156253
H97	H	1.109831	0.269021	-1.238512
H98	H	1.035923	0.314757	-1.228929
H99	H	1.041051	0.263875	-1.170774
C100	C	1.423954	0.601343	-0.906921
C101	C	1.411652	0.590448	-0.974799
C102	C	1.469306	0.641142	-1.017740
H103	H	1.410780	0.645138	-0.893700
H104	H	1.484590	0.599316	-0.903235
H105	H	1.351031	0.592481	-0.978483
H106	H	1.424833	0.546663	-0.988042
H107	H	1.529942	0.639115	-1.014054
H108	H	1.456127	0.684934	-1.004513
H109	H	1.460974	0.633753	-1.063801
C110	C	1.183400	0.389488	-0.875549
C111	C	1.132911	0.345008	-0.822931
C112	C	1.075215	0.294115	-0.850674
H113	H	1.143999	0.410169	-0.898012
H114	H	1.217920	0.364445	-0.907593
H115	H	1.098394	0.370047	-0.790900
H116	H	1.172289	0.324310	-0.800464
H117	H	1.109735	0.269073	-0.882718
H118	H	1.035820	0.314803	-0.873136
H119	H	1.040958	0.263926	-0.814978
H120	H	1.198828	0.739624	-0.559915
H121	H	1.408312	0.766846	-0.430130
C122	C	1.424253	1.115200	-0.420500
C123	C	1.474855	1.167857	-0.389205
C124	C	1.532695	1.140161	-0.353420
H125	H	1.389860	1.083191	-0.386463
H126	H	1.463570	1.092711	-0.451497
H127	H	1.435543	1.190335	-0.358210
H128	H	1.509266	1.199870	-0.423227
H129	H	1.572012	1.117672	-0.384418
H130	H	1.498296	1.108152	-0.319387
H131	H	1.567042	1.175885	-0.332188
C132	C	1.183208	1.083887	-0.569708
C133	C	1.132648	1.123403	-0.601016
C134	C	1.074761	1.080675	-0.636778
H135	H	1.217565	1.060733	-0.603737
H136	H	1.143867	1.051256	-0.538695
H137	H	1.171985	1.156023	-0.632027
H138	H	1.098273	1.146557	-0.567004
H139	H	1.035420	1.048044	-0.605765
H140	H	1.109125	1.057523	-0.670803
H141	H	1.040444	1.107480	-0.658020
C142	C	0.972889	0.362058	-0.362094
C143	C	0.949990	0.292133	-0.373976
C144	C	0.996976	0.254770	-0.336892
H145	H	1.035760	0.376343	-0.376385
H146	H	0.957408	0.369853	-0.314582
H147	H	0.965477	0.284343	-0.421478
H148	H	0.887127	0.277829	-0.359682
H149	H	0.981495	0.262565	-0.289380
H150	H	1.059844	0.269061	-0.351186
H151	H	0.981439	0.207322	-0.344944
C152	C	0.635270	0.629087	-0.628284
C153	C	0.658232	0.617429	-0.698254
C154	C	0.611235	0.654620	-0.735500
H155	H	0.572400	0.614747	-0.614040
H156	H	0.650698	0.676570	-0.620339
H157	H	0.642797	0.569956	-0.706195
H158	H	0.721093	0.631772	-0.712519
H159	H	0.626663	0.702104	-0.727554
H160	H	0.548368	0.640278	-0.721250
H161	H	0.626814	0.646721	-0.782978
H162	H	0.647972	0.375059	-0.374900
H163	H	1.198896	0.867878	-0.559944
H164	H	1.408290	0.587663	-0.766929
H165	H	1.408444	0.587579	-1.250954
C166	C	1.183335	0.389700	-0.728143
C167	C	1.125500	0.420515	-0.680039
C168	C	1.067759	0.369847	-0.637120
H169	H	1.148908	0.359422	-0.754782
H170	H	1.217832	0.364711	-0.705010
H171	H	1.091006	0.445493	-0.703170
H172	H	1.159902	0.450788	-0.653384
H173	H	1.102256	0.344858	-0.613987
H174	H	1.033338	0.339572	-0.663765
H175	H	1.028517	0.390748	-0.604472
C176	C	0.929927	0.576880	-0.576232
C177	C	0.961132	0.516514	-0.597649
C178	C	1.055358	0.528595	-0.609860
H179	H	0.951351	0.611635	-0.610923
H180	H	0.951254	0.591258	-0.535287
H181	H	0.939815	0.502145	-0.638588
H182	H	0.939733	0.481751	-0.562967
H183	H	1.076684	0.542973	-0.568915
H184	H	1.076773	0.563351	-0.644550
H185	H	1.076542	0.487638	-0.624386
H186	H	0.818871	0.641236	-0.640225
C187	C	0.776338	0.336702	-0.336624
C188	C	0.683746	0.333962	-0.333868
C189	C	0.636450	0.284555	-0.284557
H190	H	0.791691	0.293204	-0.348557
H191	H	0.791701	0.348552	-0.293104
H192	H	0.668389	0.322108	-0.377379
H193	H	0.668367	0.377448	-0.321926
H194	H	0.651814	0.296405	-0.241036
H195	H	0.651810	0.241061	-0.296494
H196	H	0.573622	0.282694	-0.282676
H197	H	1.408386	0.587612	-1.122712
