data_functionalizedCrystal
_audit_creation_method	'MofGen! by Chris Wilmer'
_symmetry_space_group_name_H-M	'P1'
_symmetry_Int_Tables_number	1
_symmetry_cell_setting	triclinic
loop_
_symmetry_equiv_pos_as_xyz
  x,y,z
_cell_length_a	16.109302
_cell_length_b	16.109301
_cell_length_c	14.586319
_cell_angle_alpha	89.994786
_cell_angle_beta	89.994552
_cell_angle_gamma	83.461631
loop_
_atom_site_label
_atom_site_type_symbol
_atom_site_fract_x
_atom_site_fract_y
_atom_site_fract_z
O1	O	1.103130	0.106869	-0.076284
O2	O	0.861069	0.120168	-0.076278
O3	O	0.988749	-0.007513	-0.076272
O4	O	0.975450	0.234549	-0.076290
O5	O	0.988740	-0.007515	0.076209
O6	O	0.861060	0.120166	0.076203
O7	O	1.103122	0.106867	0.076196
Cu8	Cu	0.982090	0.113516	0.090122
Cu9	Cu	0.982100	0.113519	-0.090204
O10	O	0.975441	0.234547	0.076191
C11	C	0.830089	0.119628	-0.000036
C12	C	0.737794	0.118013	-0.000033
C13	C	0.988206	-0.038488	-0.000031
C14	C	0.986591	-0.130784	-0.000030
C15	C	0.525448	0.114276	0.083075
C16	C	0.438728	0.112750	0.083072
C17	C	0.438748	0.112756	-0.083171
C18	C	0.525468	0.114277	-0.083167
C19	C	0.568815	0.115041	-0.000041
C20	C	0.395375	0.111994	-0.000048
C21	C	0.301350	0.110338	-0.000052
C22	C	0.662847	0.116695	-0.000037
C23	C	1.058599	-0.353056	-0.000046
C24	C	1.057074	-0.439776	-0.000054
C25	C	0.905586	-0.419902	-0.000046
C26	C	0.907111	-0.333184	-0.000045
C27	C	0.983620	-0.299763	-0.000040
C28	C	0.980571	-0.473202	-0.000049
C29	C	0.978918	-0.567228	-0.000057
C30	C	0.985273	-0.205731	-0.000034
C31	C	1.134101	0.107407	-0.000047
C32	C	1.226396	0.109022	-0.000056
C33	C	0.975984	0.265523	-0.000052
C34	C	0.977599	0.357819	-0.000060
N35	N	0.982088	0.113514	0.216954
N36	N	0.982108	0.113514	-0.217035
C37	C	1.038644	0.056996	0.451963
C38	C	1.038647	0.056994	0.547944
C39	C	0.925546	0.170035	0.547949
C40	C	0.925541	0.170032	0.451969
C41	C	0.982094	0.113514	0.403979
C42	C	0.982102	0.113514	0.595940
C43	C	0.982105	0.113513	0.700007
C44	C	0.982091	0.113514	0.299905
H45	H	0.403423	0.112127	0.150754
C46	C	1.099941	-0.004523	0.399931
C47	C	1.086443	-0.086213	0.423304
C48	C	1.142886	-0.142919	0.375396
H49	H	1.155461	0.004401	0.415619
H50	H	1.091852	0.003492	0.335883
H51	H	1.094539	-0.094225	0.487339
H52	H	1.030934	-0.095164	0.407615
H53	H	1.134797	-0.134904	0.311347
H54	H	1.198403	-0.133987	0.391087
H55	H	1.133731	-0.198352	0.391241
H56	H	0.843295	-0.447124	-0.000048
H57	H	0.403444	0.112135	-0.150849
C58	C	0.572402	0.115148	-0.173509
C59	C	0.515878	0.114183	-0.246308
C60	C	0.559083	0.114993	-0.329539
H61	H	0.612587	0.067300	-0.177089
H62	H	0.599858	0.164214	-0.177012
H63	H	0.488436	0.065121	-0.242807
H64	H	0.475692	0.162027	-0.242758
H65	H	0.586539	0.164059	-0.333043
H66	H	0.599267	0.067144	-0.333110
H67	H	0.520737	0.114345	-0.378943
H68	H	1.120897	-0.325848	-0.000044
H69	H	1.118130	-0.483165	-0.000060
C70	C	0.825610	-0.275454	0.000008
C71	C	0.758280	-0.323281	0.000036
C72	C	0.683193	-0.270129	0.000093
H73	H	0.822941	-0.241189	-0.053151
H74	H	0.823010	-0.241227	0.053203
H75	H	0.760878	-0.357493	-0.053153
H76	H	0.760921	-0.357543	0.053191
H77	H	0.680594	-0.235903	0.053288
H78	H	0.680534	-0.235867	-0.053067
H79	H	0.637502	-0.302572	0.000121
H80	H	1.084694	0.010972	0.587011
C81	C	0.864114	0.231266	0.600175
C82	C	0.813254	0.186965	0.655313
C83	C	0.756662	0.243346	0.703444
H84	H	0.830351	0.264950	0.557956
H85	H	0.893993	0.265873	0.637658
H86	H	0.783378	0.152373	0.617833
H87	H	0.846995	0.153284	0.697549
H88	H	0.786541	0.277952	0.740928
H89	H	0.722904	0.277027	0.661219
H90	H	0.722152	0.213296	0.740867
C91	C	0.864181	0.231309	0.399699
C92	C	0.876266	0.219192	0.305374
C93	C	0.819752	0.275613	0.257194
H94	H	0.873140	0.286838	0.415307
H95	H	0.808680	0.222260	0.415384
H96	H	0.931754	0.228248	0.289695
H97	H	0.867300	0.163675	0.289739
H98	H	0.764251	0.266564	0.272879
H99	H	0.828716	0.331138	0.272809
H100	H	0.827939	0.267395	0.193189
C101	C	0.572369	0.115050	0.173419
C102	C	0.515828	0.114030	0.246207
C103	C	0.559020	0.114727	0.329446
H104	H	0.599849	0.164084	0.177010
H105	H	0.612536	0.067169	0.176924
H106	H	0.475676	0.161907	0.242703
H107	H	0.488346	0.065000	0.242646
H108	H	0.599187	0.066845	0.332952
H109	H	0.586499	0.163761	0.333028
H110	H	0.520665	0.114027	0.378843
