data_functionalizedCrystal
_audit_creation_method	'MofGen! by Chris Wilmer'
_symmetry_space_group_name_H-M	'P1'
_symmetry_Int_Tables_number	1
_symmetry_cell_setting	triclinic
loop_
_symmetry_equiv_pos_as_xyz
  x,y,z
_cell_length_a	14.519710
_cell_length_b	11.026607
_cell_length_c	9.482900
_cell_angle_alpha	78.599815
_cell_angle_beta	80.694056
_cell_angle_gamma	83.866919
loop_
_atom_site_label
_atom_site_type_symbol
_atom_site_fract_x
_atom_site_fract_y
_atom_site_fract_z
O1	O	1.261306	-0.140161	-0.120859
O2	O	1.511306	0.109839	0.129141
O3	O	1.761306	0.359839	0.379141
O4	O	2.011306	0.609839	0.629141
O5	O	0.995918	-0.158899	-0.120868
O6	O	1.245918	0.091101	0.129132
O7	O	1.495918	0.341101	0.379132
O8	O	1.745918	0.591101	0.629132
O9	O	1.106616	0.027170	-0.120859
O10	O	1.356616	0.277170	0.129141
O11	O	1.606616	0.527170	0.379141
O12	O	1.856616	0.777170	0.629141
O13	O	1.150608	-0.326230	-0.120868
O14	O	1.400608	-0.076230	0.129132
O15	O	1.650608	0.173770	0.379132
O16	O	1.900608	0.423770	0.629132
O17	O	1.084156	-0.010777	0.120932
O18	O	1.334156	0.239223	0.370932
O19	O	1.584156	0.489223	0.620932
O20	O	1.834156	0.739223	0.870932
O21	O	0.973458	-0.196846	0.120923
O22	O	1.223458	0.053154	0.370923
O23	O	1.473458	0.303154	0.620923
O24	O	1.723458	0.553154	0.870923
O25	O	1.238846	-0.178108	0.120932
O26	O	1.488846	0.071892	0.370932
O27	O	1.738846	0.321892	0.620932
O28	O	1.988846	0.571892	0.870932
Cu29	Cu	1.104101	-0.190942	0.143005
Cu30	Cu	1.354101	0.059058	0.393005
Cu31	Cu	1.604101	0.309058	0.643005
Cu32	Cu	1.854101	0.559058	0.893005
Cu33	Cu	1.130663	-0.146065	-0.142941
Cu34	Cu	1.380663	0.103935	0.107059
Cu35	Cu	1.630663	0.353935	0.357059
Cu36	Cu	1.880663	0.603935	0.607059
O37	O	1.128148	-0.364177	0.120923
O38	O	1.378148	-0.114177	0.370923
O39	O	1.628148	0.135823	0.620923
O40	O	1.878148	0.385823	0.870923
C41	C	0.950184	-0.176999	0.000026
C42	C	1.200184	0.073001	0.250026
C43	C	1.450184	0.323001	0.500026
C44	C	1.700184	0.573001	0.750026
C45	C	0.847372	-0.174382	0.000022
C46	C	1.097372	0.075618	0.250022
C47	C	1.347372	0.325618	0.500022
C48	C	1.597372	0.575618	0.750022
C49	C	1.087271	0.053425	0.000034
C50	C	1.337271	0.303425	0.250034
C51	C	1.587271	0.553425	0.500034
C52	C	1.837271	0.803425	0.750034
C53	C	1.063079	0.188193	0.000028
C54	C	1.313079	0.438193	0.250028
C55	C	1.563079	0.688193	0.500028
C56	C	1.813079	0.938193	0.750028
C57	C	1.284580	-0.160007	0.000035
C58	C	1.534580	0.089993	0.250035
C59	C	1.784580	0.339993	0.500035
C60	C	2.034580	0.589993	0.750035
C61	C	1.387393	-0.162624	0.000029
C62	C	1.637393	0.087376	0.250029
C63	C	1.887393	0.337376	0.500029
C64	C	2.137393	0.587376	0.750029
C65	C	1.763876	-0.172258	0.000028
C66	C	2.013876	0.077742	0.250028
C67	C	2.263876	0.327742	0.500028
C68	C	2.513876	0.577742	0.750028
C69	C	1.659128	-0.169583	0.000028
C70	C	1.909128	0.080417	0.250028
C71	C	2.159128	0.330417	0.500028
C72	C	2.409128	0.580417	0.750028
C73	C	1.575638	-0.167441	0.000027
C74	C	1.825638	0.082559	0.250027
C75	C	2.075638	0.332559	0.500027
C76	C	2.325638	0.582559	0.750027
C77	C	1.470883	-0.164765	0.000029
C78	C	1.720883	0.085235	0.250029
C79	C	1.970883	0.335235	0.500029
C80	C	2.220883	0.585235	0.750029
C81	C	1.147493	-0.390432	0.000026
C82	C	1.397493	-0.140432	0.250026
C83	C	1.647493	0.109568	0.500026
C84	C	1.897493	0.359568	0.750026
C85	C	1.171686	-0.525198	0.000023
C86	C	1.421686	-0.275198	0.250023
C87	C	1.671686	-0.025198	0.500023
C88	C	1.921686	0.224802	0.750023
N89	N	1.085426	-0.222505	0.344123
N90	N	1.335426	0.027495	0.594123
N91	N	1.585426	0.277495	0.844123
N92	N	1.835426	0.527495	1.094123
C93	C	1.129879	0.261853	0.000029
C94	C	1.379879	0.511853	0.250029
C95	C	1.629879	0.761853	0.500029
C96	C	1.879879	1.011853	0.750029
C97	C	1.104877	0.401143	0.000022
C98	C	1.354877	0.651143	0.250022
C99	C	1.604877	0.901143	0.500022
C100	C	1.854877	1.151143	0.750022
N101	N	1.149344	-0.114493	-0.344059
N102	N	1.399344	0.135507	-0.094059
N103	N	1.649344	0.385507	0.155941
N104	N	1.899344	0.635507	0.405941
C105	C	1.125147	-0.155369	0.416326
C106	C	1.375147	0.094631	0.666326
C107	C	1.625147	0.344631	0.916326
C108	C	1.875147	0.594631	1.166326
C109	C	1.109617	-0.181639	0.583742
C110	C	1.359617	0.068361	0.833742
C111	C	1.609617	0.318361	1.083742
C112	C	1.859617	0.568361	1.333742
H113	H	1.205577	0.221796	0.000040
H114	H	1.455577	0.471796	0.250040
H115	H	1.705577	0.721796	0.500040
H116	H	1.955577	0.971796	0.750040
H117	H	1.194847	-0.037557	0.593820
H118	H	1.444847	0.212443	0.843820
H119	H	1.694847	0.462443	1.093820
H120	H	1.944847	0.712443	1.343820
Cl121	Cl	1.015163	-0.341271	0.440031
Cl122	Cl	1.265163	-0.091271	0.690031
Cl123	Cl	1.515163	0.158729	0.940031
Cl124	Cl	1.765163	0.408729	1.190031
H125	H	1.064106	-0.258566	0.645863
H126	H	1.314106	-0.008566	0.895863
H127	H	1.564106	0.241434	1.145863
H128	H	1.814106	0.491434	1.395863
H129	H	0.987381	0.228250	0.000016
H130	H	1.237381	0.478250	0.250016
H131	H	1.487381	0.728250	0.500016
H132	H	1.737381	0.978250	0.750016
H133	H	1.029174	0.441195	0.000010
H134	H	1.279174	0.691195	0.250010
H135	H	1.529174	0.941195	0.500010
H136	H	1.779174	1.191195	0.750010
Cl137	Cl	1.288570	0.412980	0.000020
Cl138	Cl	1.538570	0.662980	0.250020
Cl139	Cl	1.788570	0.912980	0.500020
Cl140	Cl	2.038570	1.162980	0.750020
H141	H	1.170647	-0.078437	0.354202
H142	H	1.420647	0.171563	0.604202
H143	H	1.670647	0.421563	0.854202
H144	H	1.920647	0.671563	1.104202
