data_functionalizedCrystal
_audit_creation_method	'MofGen! by Chris Wilmer'
_symmetry_space_group_name_H-M	'P1'
_symmetry_Int_Tables_number	1
_symmetry_cell_setting	triclinic
loop_
_symmetry_equiv_pos_as_xyz
  x,y,z
_cell_length_a	21.295417
_cell_length_b	14.908783
_cell_length_c	14.908308
_cell_angle_alpha	89.788727
_cell_angle_beta	93.260635
_cell_angle_gamma	93.321081
loop_
_atom_site_label
_atom_site_type_symbol
_atom_site_fract_x
_atom_site_fract_y
_atom_site_fract_z
Zn1	Zn	-0.220173	1.345261	-0.587798
Zn2	Zn	0.279827	1.845261	-0.087798
Zn3	Zn	-0.319050	1.353817	-0.437424
Zn4	Zn	0.180950	1.853817	0.062576
Zn5	Zn	-0.219492	1.203574	-0.428769
Zn6	Zn	0.280508	1.703574	0.071231
Zn7	Zn	-0.331104	1.194840	-0.579044
Zn8	Zn	0.168896	1.694840	-0.079044
O9	O	-0.272455	1.274373	-0.508259
O10	O	0.227545	1.774373	-0.008259
O11	O	-0.228530	1.472225	-0.575136
O12	O	0.271470	1.972225	-0.075136
O13	O	-0.300514	1.341124	-0.310453
O14	O	0.199486	1.841124	0.189547
O15	O	-0.131491	1.222444	-0.449907
O16	O	0.368509	1.722444	0.050093
O17	O	-0.301174	1.478511	-0.464657
O18	O	0.198826	1.978511	0.035343
O19	O	-0.131992	1.326540	-0.566744
O20	O	0.368008	1.826540	-0.066744
O21	O	-0.227369	1.230741	-0.304095
O22	O	0.272631	1.730741	0.195905
O23	O	-0.239057	1.076587	-0.441418
O24	O	0.260943	1.576587	0.058582
O25	O	-0.321719	1.207557	-0.706027
O26	O	0.178281	1.707557	-0.206027
O27	O	-0.321058	1.070170	-0.551824
O28	O	0.178942	1.570170	-0.051824
O29	O	-0.240218	1.318071	-0.712459
O30	O	0.259782	1.818071	-0.212459
O31	O	-0.408740	1.332654	-0.456168
O32	O	0.091260	1.832654	0.043832
O33	O	-0.417596	1.215854	-0.560216
O34	O	0.082404	1.715854	-0.060216
C35	C	-0.281292	1.040752	-0.494732
C36	C	0.218708	1.540752	0.005268
C37	C	-0.285089	0.940807	-0.488967
C38	C	0.214911	1.440807	0.011033
C39	C	-0.216696	0.746441	-0.593351
C40	C	0.283304	1.246441	-0.093351
C41	C	-0.220261	0.652533	-0.587937
C42	C	0.279739	1.152533	-0.087937
C43	C	-0.295781	0.659082	-0.472721
C44	C	0.204219	1.159082	0.027279
C45	C	-0.292216	0.752990	-0.478135
C46	C	0.207784	1.252990	0.021865
C47	C	-0.252672	0.796666	-0.538453
C48	C	0.247328	1.296666	-0.038453
C49	C	-0.249111	0.890575	-0.543871
C50	C	0.250889	1.390575	-0.043871
C51	C	-0.324627	0.897123	-0.428651
C52	C	0.175373	1.397123	0.071349
C53	C	-0.328192	0.803215	-0.423237
C54	C	0.171808	1.303215	0.076763
C55	C	-0.436009	1.274258	-0.508202
C56	C	0.063991	1.774258	-0.008202
C57	C	-0.505976	1.274289	-0.508213
C58	C	-0.005976	1.774289	-0.008213
C59	C	-0.534211	1.335155	-0.454097
C60	C	-0.034211	1.835155	0.045903
C61	C	-0.599953	1.335196	-0.454120
C62	C	-0.099953	1.835196	0.045880
C63	C	-0.637457	1.274356	-0.508248
C64	C	-0.137457	1.774356	-0.008248
C65	C	-0.609215	1.213486	-0.562374
C66	C	-0.109215	1.713486	-0.062374
C67	C	-0.543474	1.213453	-0.562357
C68	C	-0.043474	1.713453	-0.062357
N69	N	-0.743994	1.195300	-0.510548
N70	N	-0.243994	1.695300	-0.010548
N71	N	-0.806445	1.195335	-0.510559
N72	N	-0.306445	1.695335	-0.010559
C73	C	-0.835530	1.274454	-0.508305
C74	C	-0.335530	1.774454	-0.008305
N75	N	-0.799805	1.353539	-0.506021
N76	N	-0.299805	1.853539	-0.006021
N77	N	-0.737349	1.353504	-0.506005
N78	N	-0.237349	1.853504	-0.006005
C79	C	-0.708742	1.274386	-0.508273
C80	C	-0.208742	1.774386	-0.008273
C81	C	-0.935050	1.335369	-0.454211
C82	C	-0.435050	1.835369	0.045789
C83	C	-1.000793	1.335411	-0.454240
C84	C	-0.500793	1.835411	0.045760
C85	C	-1.010054	1.213693	-0.562489
C86	C	-0.510054	1.713693	-0.062489
C87	C	-0.944312	1.213658	-0.562466
C88	C	-0.444312	1.713658	-0.062466
C89	C	-0.906814	1.274495	-0.508322
C90	C	-0.406814	1.774495	-0.008322
C91	C	-0.108262	1.274512	-0.508337
C92	C	0.391738	1.774512	-0.008337
C93	C	-0.038293	1.274571	-0.508370
C94	C	0.461707	1.774571	-0.008370
C95	C	-0.282389	1.260885	-0.742780
C96	C	0.217611	1.760885	-0.242780
C97	C	-0.286622	1.255138	-0.842719
C98	C	0.213378	1.755138	-0.342719
C99	C	-0.263583	1.508906	-0.521838
C100	C	0.236417	2.008906	-0.021838
C101	C	-0.259803	1.608850	-0.527625
C102	C	0.240197	2.108850	-0.027625
C103	C	-0.209696	1.359412	-1.037213
C104	C	0.290304	1.859412	-0.537213
C105	C	-0.213671	1.354015	-1.131115
C106	C	0.286329	1.854015	-0.631115
C107	C	-0.298545	1.238941	-1.124425
C108	C	0.201455	1.738941	-0.624425
C109	C	-0.294569	1.244339	-1.030524
C110	C	0.205431	1.744339	-0.530524
C111	C	-0.250144	1.304577	-0.986921
C112	C	0.249856	1.804577	-0.486921
C113	C	-0.246172	1.309979	-0.893018
C114	C	0.253828	1.809979	-0.393018
C115	C	-0.331042	1.194901	-0.886330
C116	C	0.168958	1.694901	-0.386330
C117	C	-0.335018	1.189503	-0.980231
C118	C	0.164982	1.689503	-0.480231
C119	C	-0.262512	1.287860	-0.274653
C120	C	0.237488	1.787860	0.225347
C121	C	-0.258095	1.293782	-0.174725
C122	C	0.241905	1.793782	0.325275
H123	H	-0.190964	0.611643	-0.632639
H124	H	0.309036	1.111643	-0.132639
H125	H	-0.363980	1.150252	-0.845371
H126	H	0.136020	1.650252	-0.345371
C127	C	-1.051301	1.146774	-0.622034
C128	C	-0.551301	1.646774	-0.122034
H129	H	-1.094498	1.155508	-0.614293
H130	H	-0.594498	1.655508	-0.114293
H131	H	-1.042559	1.156405	-0.683212
H132	H	-0.542559	1.656405	-0.183212
H133	H	-1.042300	1.087119	-0.605322
H134	H	-0.542300	1.587119	-0.105322
H135	H	-0.210000	1.359030	-0.857518
H136	H	0.290000	1.859030	-0.357518
H137	H	-0.180732	1.398665	-1.172060
H138	H	0.319268	1.898665	-0.672060
C139	C	-0.893796	1.402294	-0.394670
C140	C	-0.393796	1.902294	0.105330
H141	H	-0.850599	1.393550	-0.402402
H142	H	-0.350599	1.893550	0.097598
H143	H	-0.902799	1.461943	-0.411383
H144	H	-0.402799	1.961943	0.088617
H145	H	-0.902536	1.392663	-0.333487
H146	H	-0.402536	1.892663	0.166513
C147	C	-0.383883	1.123250	-1.028199
C148	C	0.116117	1.623250	-0.528199
H149	H	-0.380461	1.127892	-1.091327
H150	H	0.119539	1.627892	-0.591327
H151	H	-0.376312	1.063725	-1.009317
H152	H	0.123688	1.563725	-0.509317
H153	H	-0.425030	1.137273	-1.013555
H154	H	0.074970	1.637273	-0.513555
H155	H	-0.921322	1.164092	-0.606528
H156	H	-0.421322	1.664092	-0.106528
C157	C	-0.205617	0.938622	-0.610216
C158	C	0.294383	1.438622	-0.110216
H159	H	-0.208650	1.001744	-0.605586
H160	H	0.291350	1.501744	-0.105586
H161	H	-0.163339	0.924005	-0.596279
H162	H	0.336661	1.424005	-0.096279
H163	H	-0.218039	0.919766	-0.669720
H164	H	0.281961	1.419766	-0.169720
H165	H	-0.173526	1.408466	-1.001712
H166	H	0.326474	1.908466	-0.501712
H167	H	-0.327967	0.623505	-0.423603
H168	H	0.172033	1.123505	0.076397
C169	C	-0.347401	1.172677	-1.172398
C170	C	0.152599	1.672677	-0.672398
H171	H	-0.343973	1.177319	-1.235525
H172	H	0.156027	1.677319	-0.735525
H173	H	-0.339822	1.113156	-1.153513
H174	H	0.160178	1.613156	-0.653513
H175	H	-0.388552	1.186688	-1.157763
H176	H	0.111448	1.686688	-0.657763
C177	C	-0.173206	0.794487	-0.659701
C178	C	0.326794	1.294487	-0.159701
H179	H	-0.152288	0.751124	-0.691621
H180	H	0.347712	1.251124	-0.191621
H181	H	-0.197595	0.828867	-0.700923
H182	H	0.302405	1.328867	-0.200923
H183	H	-0.142892	0.833101	-0.627486
H184	H	0.357108	1.333101	-0.127486
H185	H	-0.360385	0.767641	-0.374125
H186	H	0.139615	1.267641	0.125875
C187	C	-1.031854	1.402354	-0.394700
C188	C	-0.531854	1.902354	0.105300
H189	H	-1.076378	1.393666	-0.402468
H190	H	-0.576378	1.893666	0.097532
H191	H	-1.019044	1.392698	-0.333519
H192	H	-0.519044	1.892698	0.166481
H193	H	-1.019311	1.462002	-0.411392
H194	H	-0.519311	1.962002	0.088608
C195	C	-0.364203	0.952372	-0.368261
C196	C	0.135797	1.452372	0.131739
H197	H	-0.356416	1.014556	-0.380120
H198	H	0.143584	1.514556	0.119880
H199	H	-0.407649	0.936205	-0.380423
H200	H	0.092351	1.436205	0.119577
H201	H	-0.352950	0.940449	-0.306980
H202	H	0.147050	1.440449	0.193020
C203	C	-0.512411	1.146497	-0.621882
C204	C	-0.012411	1.646497	-0.121882
H205	H	-0.467888	1.155194	-0.614121
H206	H	0.032112	1.655194	-0.114121
H207	H	-0.524957	1.086856	-0.605184
H208	H	-0.024957	1.586856	-0.105184
H209	H	-0.525218	1.156147	-0.683071
H210	H	-0.025218	1.656147	-0.183071
C211	C	-0.492964	1.402053	-0.394523
C212	C	0.007036	1.902053	0.105477
H213	H	-0.449766	1.393307	-0.402248
H214	H	0.050234	1.893307	0.097752
H215	H	-0.501958	1.461714	-0.411204
H216	H	-0.001958	1.961714	0.088796
H217	H	-0.501713	1.392390	-0.333348
H218	H	-0.001713	1.892390	0.166652
C219	C	-0.631019	1.402144	-0.394583
C220	C	-0.131019	1.902144	0.105417
H221	H	-0.599270	1.438366	-0.362330
H222	H	-0.099270	1.938366	0.137670
H223	H	-0.656607	1.439330	-0.431275
H224	H	-0.156607	1.939330	0.068725
H225	H	-0.656336	1.370030	-0.353397
H226	H	-0.156336	1.870030	0.146603
C227	C	-0.650467	1.146562	-0.621911
C228	C	-0.150467	1.646562	-0.121911
H229	H	-0.693664	1.155292	-0.614165
H230	H	-0.193664	1.655292	-0.114165
H231	H	-0.641730	1.156191	-0.683091
H232	H	-0.141730	1.656191	-0.183091
H233	H	-0.641462	1.086909	-0.605197
H234	H	-0.141462	1.586909	-0.105197
