data_functionalizedCrystal
_audit_creation_method	'MofGen! by Chris Wilmer'
_symmetry_space_group_name_H-M	'P1'
_symmetry_Int_Tables_number	1
_symmetry_cell_setting	triclinic
loop_
_symmetry_equiv_pos_as_xyz
  x,y,z
_cell_length_a	27.731988
_cell_length_b	26.809956
_cell_length_c	10.723023
_cell_angle_alpha	90.004777
_cell_angle_beta	83.542959
_cell_angle_gamma	89.996792
loop_
_atom_site_label
_atom_site_type_symbol
_atom_site_fract_x
_atom_site_fract_y
_atom_site_fract_z
O1	O	-0.641869	0.041414	-0.148093
O2	O	-0.501212	0.041430	-0.170745
O3	O	-0.574786	0.041419	0.022293
O4	O	-0.568296	0.041425	-0.341131
O5	O	-0.574772	-0.041540	0.022264
O6	O	-0.501198	-0.041530	-0.170774
O7	O	-0.641855	-0.041545	-0.148123
Zn8	Zn	-0.571525	-0.054709	-0.159453
Zn9	Zn	-0.571543	0.054594	-0.159414
O10	O	-0.568282	-0.041534	-0.341161
C11	C	-0.483195	-0.000048	-0.170296
C12	C	-0.429530	-0.000042	-0.168899
C13	C	-0.096748	-0.045286	-0.160114
C14	C	0.104943	-0.045294	-0.154802
O15	O	0.131027	-0.083753	-0.154076
N16	N	0.130155	-0.000073	-0.154127
C17	C	0.104940	0.045153	-0.154771
O18	O	0.131011	0.083616	-0.154061
C19	C	-0.096752	0.045160	-0.160073
C20	C	-0.121960	-0.000064	-0.160762
C21	C	-0.121957	-0.090506	-0.160801
C22	C	-0.172376	-0.090504	-0.162136
C23	C	-0.197588	-0.045281	-0.162783
C24	C	-0.172379	-0.000061	-0.162096
C25	C	-0.121966	0.090386	-0.160708
C26	C	-0.172392	0.090383	-0.162031
C27	C	-0.197600	0.045160	-0.162719
C28	C	-0.248010	0.045164	-0.164079
N29	N	-0.273222	-0.000057	-0.164755
C30	C	-0.248010	-0.045280	-0.164107
C31	C	0.210831	0.045146	-0.151989
C32	C	0.261253	0.045144	-0.150666
C33	C	0.261253	-0.045303	-0.150695
C34	C	0.210830	-0.045300	-0.152028
C35	C	0.185619	-0.000075	-0.152665
C36	C	-0.353895	-0.045271	-0.166911
C37	C	-0.404319	-0.045265	-0.168251
C38	C	-0.404315	0.045182	-0.168215
C39	C	-0.353895	0.045176	-0.166881
C40	C	-0.328687	-0.000055	-0.166225
O41	O	-0.274126	0.083602	-0.164792
O42	O	-0.274091	-0.083737	-0.164789
C43	C	-0.046329	-0.045288	-0.158779
C44	C	-0.021121	-0.000068	-0.158092
C45	C	-0.046332	0.045154	-0.158740
C46	C	0.029302	-0.000070	-0.156769
C47	C	0.054513	-0.045293	-0.156121
C48	C	0.029302	-0.090513	-0.156797
C49	C	-0.021118	-0.090511	-0.158132
C50	C	-0.021120	0.090375	-0.158065
C51	C	0.029299	0.090369	-0.156731
C52	C	0.054511	0.045146	-0.156084
N53	N	-0.571516	-0.129305	-0.159479
C54	C	-0.604117	-0.473936	-0.073958
C55	C	-0.604129	-0.682813	-0.073939
O56	O	-0.631828	-0.709821	-0.001234
N57	N	-0.571546	-0.708932	-0.159387
C58	C	-0.538955	-0.682828	-0.244840
O59	O	-0.511239	-0.709836	-0.317510
C60	C	-0.538942	-0.473951	-0.244853
C61	C	-0.571530	-0.447835	-0.159407
C62	C	-0.636702	-0.447820	0.011481
C63	C	-0.636701	-0.395603	0.011471
C64	C	-0.604114	-0.369503	-0.073978
C65	C	-0.571529	-0.395619	-0.159418
C66	C	-0.506350	-0.447848	-0.330299
C67	C	-0.506349	-0.395625	-0.330292
C68	C	-0.538937	-0.369510	-0.244847
C69	C	-0.538941	-0.317302	-0.244877
N70	N	-0.571524	-0.291184	-0.159429
C71	C	-0.604111	-0.317284	-0.073980
C72	C	-0.538965	-0.792491	-0.244829
C73	C	-0.538969	-0.844710	-0.244828
C74	C	-0.604142	-0.844692	-0.073925
C75	C	-0.604140	-0.792472	-0.073933
C76	C	-0.571548	-0.766373	-0.159381
C77	C	-0.604105	-0.207626	-0.074008
C78	C	-0.604102	-0.155405	-0.074030
C79	C	-0.538928	-0.155428	-0.244928
C80	C	-0.538933	-0.207644	-0.244912
C81	C	-0.571523	-0.233742	-0.159441
O82	O	-0.511253	-0.290262	-0.317535
O83	O	-0.631816	-0.290267	-0.001303
C84	C	-0.604119	-0.526152	-0.073948
C85	C	-0.571533	-0.552268	-0.159387
C86	C	-0.538946	-0.526167	-0.244836
C87	C	-0.571537	-0.604487	-0.159386
C88	C	-0.604124	-0.630587	-0.073936
C89	C	-0.636707	-0.604468	0.011512
C90	C	-0.636705	-0.552252	0.011501
C91	C	-0.506364	-0.552286	-0.330284
C92	C	-0.506368	-0.604502	-0.330268
C93	C	-0.538955	-0.630603	-0.244819
C94	C	0.340128	-0.000068	-0.148584
C95	C	0.286464	-0.000078	-0.150018
C96	C	-0.574306	-0.000060	0.068758
C97	C	-0.572894	-0.000059	0.207253
N98	N	-0.571556	0.129190	-0.159379
C99	C	-0.572271	0.042917	0.269008
C100	C	-0.570811	0.042919	0.412150
C101	C	-0.568761	-0.000055	0.612374
C102	C	-0.570174	-0.000056	0.473879
H103	H	-0.101435	-0.127334	-0.160271
O104	O	-0.572171	-0.048795	0.277591
H105	H	-0.539534	-0.070490	0.240919
H106	H	0.190309	-0.082126	-0.152590
H107	H	-0.663242	-0.530992	0.081079
H108	H	-0.570712	-0.036851	0.420780
O109	O	0.288504	-0.094050	-0.150081
H110	H	0.274846	-0.115778	-0.065298
O111	O	-0.639291	-0.872844	0.018247
H112	H	-0.618742	-0.896632	0.078517
O113	O	-0.572994	0.091653	0.198676
H114	H	-0.572311	0.123135	0.265685
O115	O	0.288433	0.093925	-0.149907
H116	H	0.282778	0.115620	-0.235213
H117	H	-0.663236	-0.374343	0.081051
H118	H	-0.041643	0.127201	-0.158588
H119	H	-0.630642	-0.134143	-0.004450
O120	O	-0.639262	-0.235766	0.018169
H121	H	-0.618725	-0.259553	0.078468
H122	H	-0.512425	-0.771244	-0.314415
O123	O	-0.048304	-0.139288	-0.158871
H124	H	-0.067242	-0.141450	-0.244560
O125	O	-0.431508	-0.094043	-0.169014
H126	H	-0.405503	-0.125488	-0.168335
H127	H	-0.663238	-0.469066	0.081070
O128	O	-0.570095	0.091661	0.482473
H129	H	-0.602374	0.093797	0.553550
O130	O	-0.326708	-0.094054	-0.166219
H131	H	-0.352714	-0.125494	-0.166935
H132	H	0.049820	0.127198	-0.156181
H133	H	-0.512438	-0.865970	-0.314418
O134	O	-0.199586	0.139163	-0.162705
H135	H	-0.218533	0.141333	-0.248377
O136	O	-0.199562	-0.139281	-0.162905
H137	H	-0.173553	-0.170723	-0.162233
O138	O	0.183641	0.093928	-0.152691
H139	H	0.209649	0.125368	-0.152012
O140	O	-0.639283	-0.764305	0.018236
H141	H	-0.661939	-0.791232	0.077654
H142	H	-0.101450	0.127212	-0.160146
O143	O	-0.471217	-0.632665	-0.422441
H144	H	-0.476690	-0.673362	-0.408096
O145	O	-0.503790	-0.235816	-0.337080
H146	H	-0.480129	-0.259607	-0.284979
O147	O	-0.326701	0.093951	-0.166143
H148	H	-0.352705	0.125397	-0.166813
O149	O	-0.471216	-0.524136	-0.422452
H150	H	-0.477702	-0.534164	-0.519603
O151	O	-0.431512	0.093957	-0.168885
H152	H	-0.470809	0.086356	-0.169904
H153	H	0.049838	-0.127335	-0.156276
O154	O	-0.471218	-0.476009	-0.422503
H155	H	-0.448565	-0.449079	-0.481918
H156	H	-0.479807	-0.374378	-0.399874
O157	O	-0.503775	-0.127265	-0.337055
H158	H	-0.524311	-0.103464	-0.397324
O159	O	-0.671854	-0.632624	0.103682
H160	H	-0.666373	-0.673321	0.089330
