data_functionalizedCrystal
_audit_creation_method	'MofGen! by Chris Wilmer'
_symmetry_space_group_name_H-M	'P1'
_symmetry_Int_Tables_number	1
_symmetry_cell_setting	triclinic
loop_
_symmetry_equiv_pos_as_xyz
  x,y,z
_cell_length_a	16.120484
_cell_length_b	16.959455
_cell_length_c	16.959447
_cell_angle_alpha	89.987476
_cell_angle_beta	92.866538
_cell_angle_gamma	92.926296
loop_
_atom_site_label
_atom_site_type_symbol
_atom_site_fract_x
_atom_site_fract_y
_atom_site_fract_z
Zn1	Zn	-0.331871	1.192398	-0.462810
Zn2	Zn	0.001462	1.525731	-0.129476
Zn3	Zn	0.334796	1.859065	0.203857
Zn4	Zn	-0.471300	1.185604	-0.337327
Zn5	Zn	-0.137966	1.518938	-0.003994
Zn6	Zn	0.195367	1.852271	0.329339
Zn7	Zn	-0.331907	1.060225	-0.330653
Zn8	Zn	0.001427	1.393558	0.002680
Zn9	Zn	0.334760	1.726891	0.336014
Zn10	Zn	-0.471247	1.053478	-0.469468
Zn11	Zn	-0.137914	1.386811	-0.136134
Zn12	Zn	0.195420	1.720144	0.197199
O13	O	-0.401581	1.122926	-0.400064
O14	O	-0.068248	1.456260	-0.066731
O15	O	0.265086	1.789593	0.266602
O16	O	-0.350374	1.302107	-0.446171
O17	O	-0.017040	1.635441	-0.112838
O18	O	0.316293	1.968774	0.220496
O19	O	-0.452846	1.168953	-0.225833
O20	O	-0.119513	1.502286	0.107501
O21	O	0.213821	1.835620	0.440834
O22	O	-0.215236	1.083425	-0.342604
O23	O	0.118097	1.416758	-0.009271
O24	O	0.451430	1.750091	0.324063
O25	O	-0.452811	1.297116	-0.353980
O26	O	-0.119478	1.630450	-0.020646
O27	O	0.213855	1.963783	0.312687
O28	O	-0.215210	1.180532	-0.439699
O29	O	0.118123	1.513865	-0.106366
O30	O	0.451457	1.847198	0.226968
O31	O	-0.350435	1.076837	-0.220929
O32	O	-0.017101	1.410171	0.112404
O33	O	0.316232	1.743504	0.445738
O34	O	-0.350383	0.948719	-0.349060
O35	O	-0.017050	1.282053	-0.015727
O36	O	0.316283	1.615386	0.317607
O37	O	-0.452721	1.071925	-0.579193
O38	O	-0.119388	1.405258	-0.245860
O39	O	0.213945	1.738592	0.087473
O40	O	-0.452756	0.943762	-0.451047
O41	O	-0.119423	1.277095	-0.117713
O42	O	0.213911	1.610429	0.215620
O43	O	-0.350322	1.173989	-0.574302
O44	O	-0.016989	1.507323	-0.240969
O45	O	0.316344	1.840656	0.092365
O46	O	-0.587958	1.162411	-0.360436
O47	O	-0.254625	1.495744	-0.027102
O48	O	0.078708	1.829077	0.306231
O49	O	-0.587920	1.065338	-0.457518
O50	O	-0.254586	1.398671	-0.124185
O51	O	0.078747	1.732004	0.209148
C52	C	-0.618189	1.112426	-0.410441
C53	C	-0.284856	1.445760	-0.077108
C54	C	0.048478	1.779093	0.256226
C55	C	-0.710855	1.108007	-0.414907
C56	C	-0.377522	1.441340	-0.081573
C57	C	-0.044188	1.774673	0.251760
C58	C	-0.401568	0.917561	-0.400052
C59	C	-0.068235	1.250894	-0.066719
C60	C	0.265098	1.584227	0.266615
C61	C	-0.401583	0.829703	-0.400066
C62	C	-0.068250	1.163037	-0.066733
C63	C	0.265084	1.496370	0.266600
C64	C	-0.401512	1.122962	-0.606229
C65	C	-0.068179	1.456296	-0.272896
C66	C	0.265155	1.789629	0.060437
C67	C	-0.401483	1.122978	-0.694085
C68	C	-0.068149	1.456311	-0.360751
C69	C	0.265184	1.789645	-0.027418
C70	C	-0.880516	1.099942	-0.423076
C71	C	-0.547183	1.433276	-0.089743
C72	C	-0.213850	1.766609	0.243591
C73	C	-0.921805	1.146052	-0.377066
C74	C	-0.588472	1.479385	-0.043732
C75	C	-0.255139	1.812718	0.289601
C76	C	-1.016211	1.141565	-0.381611
C77	C	-0.682877	1.474898	-0.048278
C78	C	-0.349544	1.808231	0.285056
C79	C	-0.786102	1.104428	-0.418532
C80	C	-0.452769	1.437762	-0.085198
C81	C	-0.119436	1.771095	0.248135
C82	C	-0.184127	1.133489	-0.389664
C83	C	0.149206	1.466822	-0.056331
C84	C	0.482539	1.800155	0.277002
C85	C	-0.091461	1.137990	-0.385233
C86	C	0.241872	1.471323	-0.051899
C87	C	0.575205	1.804656	0.281434
C88	C	-0.401594	1.329094	-0.400077
C89	C	-0.068261	1.662427	-0.066744
C90	C	0.265072	1.995760	0.266590
C91	C	-0.401600	1.416950	-0.400083
C92	C	-0.068267	1.750283	-0.066749
C93	C	0.265067	2.083617	0.266584
C94	C	-0.454919	1.785830	-0.352068
C95	C	-0.121586	2.119164	-0.018734
C96	C	0.211747	2.452497	0.314599
C97	C	-0.348250	1.791023	-0.448067
C98	C	-0.014917	2.124356	-0.114734
C99	C	0.318416	2.457689	0.218600
C100	C	-0.348254	1.708477	-0.448072
C101	C	-0.014920	2.041810	-0.114739
C102	C	0.318413	2.375143	0.218594
C103	C	-0.401590	1.664604	-0.400074
C104	C	-0.068257	1.997937	-0.066740
C105	C	0.265077	2.331270	0.266593
C106	C	-0.454923	1.703276	-0.352070
C107	C	-0.121589	2.036610	-0.018736
C108	C	0.211744	2.369943	0.314597
C109	C	-0.294916	1.669798	-0.496069
C110	C	0.038418	2.003131	-0.162736
C111	C	0.371751	2.336464	0.170597
C112	C	-0.294916	1.587247	-0.496076
C113	C	0.038417	1.920580	-0.162742
C114	C	0.371750	2.253913	0.170591
C115	C	-0.348258	1.543372	-0.448081
C116	C	-0.014924	1.876705	-0.114747
C117	C	0.318409	2.210039	0.218586
C118	C	-0.401593	1.582050	-0.400076
C119	C	-0.068260	1.915383	-0.066742
C120	C	0.265073	2.248716	0.266591
C121	C	-0.454930	1.538177	-0.352077
C122	C	-0.121596	1.871510	-0.018743
C123	C	0.211737	2.204843	0.314590
C124	C	-0.508270	1.576853	-0.304075
C125	C	-0.174937	1.910186	0.029258
C126	C	0.158397	2.243520	0.362591
C127	C	-0.508264	1.659402	-0.304075
C128	C	-0.174931	1.992735	0.029259
C129	C	0.158403	2.326068	0.362592
C130	C	-0.348264	1.460823	-0.448081
C131	C	-0.014930	1.794157	-0.114748
C132	C	0.318403	2.127490	0.218585
C133	C	-0.454933	1.455623	-0.352079
C134	C	-0.121600	1.788956	-0.018745
C135	C	0.211734	2.122290	0.314588
C136	C	-0.454709	1.069936	-1.068105
C137	C	-0.121376	1.403270	-0.734772
C138	C	0.211958	1.736603	-0.401439
C139	C	-0.348080	1.176217	-1.063007
C140	C	-0.014747	1.509550	-0.729674
C141	C	0.318586	1.842883	-0.396340
C142	C	-0.348098	1.176195	-0.980462
C143	C	-0.014765	1.509528	-0.647128
C144	C	0.318569	1.842862	-0.313795
C145	C	-0.401423	1.123044	-0.941735
C146	C	-0.068090	1.456377	-0.608401
C147	C	0.265244	1.789710	-0.275068
C148	C	-0.454730	1.069914	-0.985553
C149	C	-0.121397	1.403248	-0.652220
C150	C	0.211937	1.736581	-0.318886
C151	C	-0.294798	1.229329	-0.936638
C152	C	0.038536	1.562662	-0.603305
C153	C	0.371869	1.895995	-0.269971
C154	C	-0.294814	1.229309	-0.854088
C155	C	0.038519	1.562643	-0.520754
C156	C	0.371853	1.895976	-0.187421
C157	C	-0.348135	1.176154	-0.815359
C158	C	-0.014802	1.509487	-0.482026
C159	C	0.318531	1.842820	-0.148692
C160	C	-0.401444	1.123022	-0.859182
C161	C	-0.068111	1.456355	-0.525849
C162	C	0.265223	1.789688	-0.192516
C163	C	-0.454769	1.069871	-0.820455
C164	C	-0.121435	1.403204	-0.487122
C165	C	0.211898	1.736537	-0.153789
C166	C	-0.508074	1.016734	-0.864277
C167	C	-0.174741	1.350067	-0.530943
C168	C	0.158593	1.683401	-0.197610
C169	C	-0.508051	1.016759	-0.946824
C170	C	-0.174718	1.350092	-0.613491
C171	C	0.158615	1.683425	-0.280158
C172	C	-0.348158	1.176129	-0.732812
C173	C	-0.014824	1.509462	-0.399478
C174	C	0.318509	1.842796	-0.066145
C175	C	-0.454790	1.069849	-0.737903
C176	C	-0.121457	1.403182	-0.404569
C177	C	0.211877	1.736515	-0.071236
C178	C	-0.401590	1.122939	-0.194698
C179	C	-0.068256	1.456272	0.138635
C180	C	0.265077	1.789605	0.471968
C181	C	-0.401384	1.123088	-0.106832
C182	C	-0.068051	1.456421	0.226501
C183	C	0.265282	1.789754	0.559834
H184	H	-0.886253	1.188897	-0.334261
H185	H	-0.552919	1.522230	-0.000927
H186	H	-0.219586	1.855563	0.332406
Br187	Br	-0.939769	1.028534	-0.494415
Br188	Br	-0.606436	1.361867	-0.161082
Br189	Br	-0.273103	1.695200	0.172251
H190	H	-0.251389	1.272606	-0.968176
H191	H	0.081945	1.605939	-0.634842
H192	H	0.415278	1.939273	-0.301509
H193	H	-0.251409	1.272576	-0.818415
H194	H	0.081924	1.605909	-0.485082
H195	H	0.415257	1.939243	-0.151748
Br196	Br	-0.580644	1.517302	-0.238928
Br197	Br	-0.247310	1.850635	0.094405
Br198	Br	0.086023	2.183968	0.427739
Br199	Br	-0.580448	0.944609	-0.811709
Br200	Br	-0.247114	1.277943	-0.478376
Br201	Br	0.086219	1.611276	-0.145043
H202	H	-0.498350	1.817324	-0.312988
H203	H	-0.165017	2.150657	0.020345
H204	H	0.168316	2.483991	0.353678
H205	H	-0.251485	1.555764	-0.535163
H206	H	0.081849	1.889097	-0.201829
H207	H	0.415182	2.222430	0.131504
Br208	Br	-0.527156	0.997704	-0.685351
Br209	Br	-0.193823	1.331038	-0.352017
Br210	Br	0.139510	1.664371	-0.018684
H211	H	-0.498370	1.419907	-0.312995
H212	H	-0.165036	1.753240	0.020338
H213	H	0.168297	2.086574	0.353671
Br214	Br	-0.580646	1.711895	-0.238934
Br215	Br	-0.247313	2.045228	0.094400
Br216	Br	0.086021	2.378562	0.427733
H217	H	-0.304822	1.826749	-0.487142
H218	H	0.028511	2.160082	-0.153808
H219	H	0.361844	2.493416	0.179525
H220	H	-0.251489	1.705525	-0.535144
H221	H	0.081844	2.038859	-0.201811
H222	H	0.415178	2.372192	0.131523
H223	H	-0.551452	0.973500	-0.982511
H224	H	-0.218119	1.306834	-0.649178
H225	H	0.115214	1.640167	-0.315844
H226	H	-0.304829	1.429337	-0.487157
H227	H	0.028505	1.762670	-0.153824
H228	H	0.361838	2.096004	0.179509
H229	H	-0.498106	1.026672	-1.103788
H230	H	-0.164773	1.360005	-0.770455
H231	H	0.168560	1.693339	-0.437122
Br232	Br	-0.275723	1.248355	-1.115566
Br233	Br	0.057610	1.581688	-0.782232
Br234	Br	0.390944	1.915021	-0.448899
H235	H	-0.304760	1.219394	-0.697136
H236	H	0.028573	1.552727	-0.363803
H237	H	0.361907	1.886061	-0.030469
