data_functionalizedCrystal
_audit_creation_method	'MofGen! by Chris Wilmer'
_symmetry_space_group_name_H-M	'P1'
_symmetry_Int_Tables_number	1
_symmetry_cell_setting	triclinic
loop_
_symmetry_equiv_pos_as_xyz
  x,y,z
_cell_length_a	15.995350
_cell_length_b	14.853567
_cell_length_c	13.330367
_cell_angle_alpha	89.994807
_cell_angle_beta	89.997588
_cell_angle_gamma	83.563653
loop_
_atom_site_label
_atom_site_type_symbol
_atom_site_fract_x
_atom_site_fract_y
_atom_site_fract_z
O1	O	0.109317	1.196221	-0.083363
O2	O	0.609317	1.696221	0.416637
O3	O	0.122339	0.933744	-0.083377
O4	O	0.622339	1.433744	0.416623
O5	O	-0.006051	1.072158	-0.083369
O6	O	0.493949	1.572158	0.416631
O7	O	0.237707	1.057808	-0.083371
O8	O	0.737707	1.557808	0.416629
O9	O	-0.006054	1.072138	0.083478
O10	O	0.493946	1.572138	0.583478
O11	O	0.122336	0.933724	0.083470
O12	O	0.622336	1.433724	0.583470
O13	O	0.109314	1.196201	0.083484
O14	O	0.609314	1.696201	0.583484
Cu15	Cu	0.115825	1.064961	0.098711
Cu16	Cu	0.615825	1.564961	0.598711
Cu17	Cu	0.115828	1.064985	-0.098605
Cu18	Cu	0.615828	1.564985	0.401395
O19	O	0.237704	1.057788	0.083476
O20	O	0.737704	1.557788	0.583476
C21	C	-0.037248	1.071555	0.000053
C22	C	0.462752	1.571555	0.500053
C23	C	-0.130201	1.069776	0.000047
C24	C	0.369799	1.569776	0.500047
C25	C	0.121748	0.900146	0.000045
C26	C	0.621748	1.400146	0.500045
C27	C	0.119980	0.800065	0.000040
C28	C	0.619980	1.300065	0.500040
C29	C	0.109906	1.229799	0.000060
C30	C	0.609906	1.729799	0.500060
C31	C	0.111674	1.329881	0.000058
C32	C	0.611674	1.829881	0.500058
C33	C	-0.467956	1.063389	0.000050
C34	C	0.032044	1.563389	0.500050
C35	C	-0.420636	0.964813	-0.000329
C36	C	0.079364	1.464813	0.499671
C37	C	-0.323944	0.966592	0.000047
C38	C	0.176056	1.466592	0.500047
C39	C	-0.300391	1.066557	0.000048
C40	C	0.199609	1.566557	0.500048
C41	C	-0.341414	1.115167	0.095327
C42	C	0.158586	1.615167	0.595327
C43	C	-0.438053	1.112690	0.095406
C44	C	0.061947	1.612690	0.595406
C45	C	-0.438405	1.114749	-0.094330
C46	C	0.061595	1.614749	0.405670
C47	C	-0.341460	1.114726	-0.095589
C48	C	0.158540	1.614726	0.404411
C49	C	-0.205692	1.068353	0.000050
C50	C	0.294308	1.568353	0.500050
C51	C	-0.562655	1.061596	0.000055
C52	C	-0.062655	1.561596	0.500055
C53	C	0.268901	1.058391	0.000052
C54	C	0.768901	1.558391	0.500052
C55	C	0.361854	1.060170	0.000051
C56	C	0.861854	1.560170	0.500051
N57	N	0.115822	1.064951	0.237493
N58	N	0.615822	1.564951	0.737493
C59	C	0.195415	1.742302	0.000040
C60	C	0.695415	2.242302	0.500040
C61	C	0.042884	1.763788	0.000042
C62	C	0.542884	2.263788	0.500042
C63	C	0.041221	1.669757	0.000047
C64	C	0.541221	2.169757	0.500047
C65	C	0.116657	1.611993	0.000048
C66	C	0.616657	2.111993	0.500048
C67	C	0.193755	1.648261	0.000042
C68	C	0.693755	2.148261	0.500042
C69	C	-0.035875	1.633482	0.000043
C70	C	0.464125	2.133482	0.500043
C71	C	-0.037541	1.539445	0.000047
C72	C	0.462459	2.039445	0.500047
C73	C	0.037896	1.481679	0.000054
C74	C	0.537896	1.981679	0.500054
C75	C	0.114996	1.517953	0.000050
C76	C	0.614996	2.017953	0.500050
C77	C	0.190432	1.460189	0.000051
C78	C	0.690432	1.960189	0.500051
C79	C	0.267534	1.496461	0.000053
C80	C	0.767534	1.996461	0.500053
C81	C	0.269191	1.590496	0.000050
C82	C	0.769191	2.090496	0.500050
C83	C	0.036238	1.387644	0.000058
C84	C	0.536238	1.887644	0.500058
C85	C	0.188771	1.366149	0.000053
C86	C	0.688771	1.866149	0.500053
N87	N	0.115825	1.065002	-0.237386
N88	N	0.615825	1.565002	0.262614
C89	C	0.172657	1.003693	0.710112
C90	C	0.672657	1.503693	1.210112
C91	C	0.058993	1.126301	0.710087
C92	C	0.558993	1.626301	1.210087
C93	C	0.058990	1.126291	0.605069
C94	C	0.558990	1.626291	1.105069
C95	C	0.115823	1.064982	0.552567
C96	C	0.615823	1.564982	1.052567
C97	C	0.172658	1.003682	0.605084
C98	C	0.672658	1.503682	1.105084
C99	C	0.002162	1.187595	0.552544
C100	C	0.502162	1.687595	1.052544
C101	C	0.002158	1.187588	0.447520
C102	C	0.502158	1.687588	0.947520
C103	C	0.058987	1.126274	0.395016
C104	C	0.558987	1.626274	0.895016
C105	C	0.115824	1.064971	0.447539
C106	C	0.615824	1.564971	0.947539
C107	C	0.172656	1.003662	0.395038
C108	C	0.672656	1.503662	0.895038
C109	C	0.229490	0.942354	0.447559
C110	C	0.729490	1.442354	0.947559
C111	C	0.229487	0.942368	0.552581
C112	C	0.729487	1.442368	1.052581
C113	C	0.058989	1.126260	0.289995
C114	C	0.558989	1.626260	0.789995
C115	C	0.172657	1.003652	0.290010
C116	C	0.672657	1.503652	0.790010
H117	H	-0.295565	0.928381	-0.068253
H118	H	0.204435	1.428381	0.431747
H119	H	-0.440277	0.925580	0.067612
H120	H	0.059723	1.425580	0.567612
H121	H	-0.456396	1.077227	0.166628
H122	H	0.043604	1.577227	0.666628
H123	H	0.218928	0.953774	0.752878
H124	H	0.718928	1.453774	1.252878
C125	C	-0.466198	1.071218	-0.191891
C126	C	0.033802	1.571218	0.308109
N127	N	-0.487130	1.038419	-0.265368
N128	N	0.012870	1.538419	0.234632
H129	H	-0.026537	1.358116	0.000049
H130	H	0.473463	1.858116	0.500049
C131	C	-0.040090	1.827330	0.000048
C132	C	0.459910	2.327330	0.500048
N133	N	-0.102589	1.875195	0.000058
N134	N	0.397411	2.375195	0.500058
H135	H	-0.313073	1.081388	0.166229
H136	H	0.186927	1.581388	0.666229
C137	C	0.235200	0.936228	0.232266
C138	C	0.735200	1.436228	0.732266
N139	N	0.282317	0.885453	0.188775
N140	N	0.782317	1.385453	0.688775
H141	H	0.258189	1.771838	0.000046
H142	H	0.758189	2.271838	0.500046
C143	C	-0.003523	1.193695	0.232226
C144	C	0.496477	1.693695	0.732226
N145	N	-0.050613	1.244488	0.188716
N146	N	0.449387	1.744488	0.688716
H147	H	0.012725	1.176222	0.752837
H148	H	0.512725	1.676222	1.252837
C149	C	-0.304654	1.066759	-0.190815
C150	C	0.195346	1.566759	0.309185
N151	N	-0.276935	1.030621	-0.262537
N152	N	0.223065	1.530621	0.237463
C153	C	-0.118848	1.697026	0.000052
C154	C	0.381152	2.197026	0.500052
N155	N	-0.181346	1.744892	0.000067
N156	N	0.318654	2.244892	0.500067
H157	H	-0.100321	1.509921	0.000046
H158	H	0.399679	2.009921	0.500046
H159	H	-0.470081	1.187429	-0.094970
H160	H	0.029919	1.687429	0.405030
C161	C	-0.320599	1.213214	-0.103357
C162	C	0.179401	1.713214	0.396643
N163	N	-0.304890	1.287400	-0.109199
N164	N	0.195110	1.787400	0.390801
C165	C	-0.060350	1.255031	0.610302
C166	C	0.439650	1.755031	1.110302
N167	N	-0.107438	1.305823	0.653810
N168	N	0.392562	1.805823	1.153810
C169	C	0.271758	1.302615	0.000058
C170	C	0.771758	1.802615	0.500058
N171	N	0.334265	1.254762	0.000062
N172	N	0.834265	1.754762	0.500062
H173	H	0.275767	0.892440	0.404800
H174	H	0.775767	1.392440	0.904800
H175	H	-0.327203	1.188608	0.098871
H176	H	0.172797	1.688608	0.598871
H177	H	-0.044120	1.237507	0.404763
H178	H	0.455880	1.737507	0.904763
C179	C	0.350510	1.432909	0.000053
C180	C	0.850510	1.932909	0.500053
N181	N	0.413005	1.385038	0.000055
N182	N	0.913005	1.885038	0.500055
H183	H	0.275760	0.892454	0.595350
H184	H	0.775760	1.392454	1.095350
C185	C	0.353995	1.630402	0.000047
C186	C	0.853995	2.130402	0.500047
N187	N	0.417869	1.660464	0.000041
N188	N	0.917869	2.160464	0.500041
H189	H	-0.296125	0.928108	0.068459
H190	H	0.203875	1.428108	0.568459
C191	C	-0.445741	0.911589	-0.092628
C192	C	0.054259	1.411589	0.407372
N193	N	-0.464657	0.871499	-0.162148
N194	N	0.035343	1.371499	0.337852
H195	H	-0.470217	1.185062	0.099730
H196	H	0.029783	1.685062	0.599730
