data_functionalizedCrystal
_audit_creation_method	'MofGen! by Chris Wilmer'
_symmetry_space_group_name_H-M	'P1'
_symmetry_Int_Tables_number	1
_symmetry_cell_setting	triclinic
loop_
_symmetry_equiv_pos_as_xyz
  x,y,z
_cell_length_a	15.995292
_cell_length_b	8.634740
_cell_length_c	7.681481
_cell_angle_alpha	96.637813
_cell_angle_beta	84.284709
_cell_angle_gamma	92.019462
loop_
_atom_site_label
_atom_site_type_symbol
_atom_site_fract_x
_atom_site_fract_y
_atom_site_fract_z
O1	O	0.266265	2.060563	0.146395
O2	O	0.243374	1.611620	0.146402
O3	O	0.133922	1.848410	0.146401
O4	O	0.375717	1.823772	0.146396
O5	O	0.147370	1.819170	-0.146457
O6	O	0.256822	1.582380	-0.146456
O7	O	0.279713	2.031322	-0.146462
Zn8	Zn	0.270403	1.802209	-0.192957
Zn9	Zn	0.252684	1.840734	0.192896
O10	O	0.389165	1.794532	-0.146462
C11	C	0.244912	1.539552	-0.000026
C12	C	0.229450	1.368375	-0.000023
C13	C	0.109370	1.832788	-0.000023
C14	C	0.016174	1.829783	-0.000010
C15	C	-0.322456	1.818730	-0.000026
C16	C	-0.285325	1.989573	-0.000683
C17	C	-0.188418	1.992888	-0.000016
C18	C	-0.154458	1.824214	-0.000019
C19	C	-0.198132	1.755465	0.167213
C20	C	-0.295094	1.753421	0.167346
C21	C	-0.279940	1.716679	-0.165688
C22	C	-0.182835	1.722793	-0.167891
C23	C	-0.059513	1.827306	-0.000009
C24	C	-0.417401	1.815635	-0.000024
C25	C	0.413717	1.810155	-0.000033
C26	C	0.506913	1.813161	-0.000035
C27	C	0.278175	2.103391	-0.000031
C28	C	0.293636	2.274569	-0.000022
N29	N	0.240586	1.867027	0.456230
N30	N	0.282495	1.775928	-0.456291
H31	H	0.360423	1.325219	-0.000035
H32	H	0.197795	1.960008	0.531436
H33	H	0.325277	1.682942	0.468513
H34	H	-0.158489	2.047838	-0.119892
H35	H	0.162666	1.317735	0.000024
N36	N	-0.165413	2.092373	0.150615
N37	N	-0.118584	2.209300	0.131034
H38	H	-0.102337	2.279565	0.237424
H39	H	-0.302500	2.043475	-0.120612
H40	H	-0.314534	2.066990	0.118572
H41	H	-0.322877	1.825079	0.292357
N42	N	-0.326460	1.597166	0.176848
N43	N	-0.276732	1.489973	0.183373
H44	H	-0.298880	1.379618	0.190083
H45	H	-0.176563	1.631964	0.173428
N46	N	-0.174127	1.845499	0.323331
N47	N	-0.124885	1.960320	0.311864
H48	H	-0.107932	2.023915	0.422119
H49	H	-0.304028	1.590765	-0.166816
H50	H	-0.297866	1.757846	-0.292449
N51	N	-0.146099	1.785349	-0.323075
N52	N	-0.067951	1.795219	-0.353039
H53	H	-0.041998	1.839406	-0.462631
N54	N	-0.153301	1.567114	-0.180617
N55	N	-0.110673	1.528201	-0.065646
H56	H	-0.089797	1.418259	-0.074643
