data_functionalizedCrystal
_audit_creation_method	'MofGen! by Chris Wilmer'
_symmetry_space_group_name_H-M	'P1'
_symmetry_Int_Tables_number	1
_symmetry_cell_setting	triclinic
loop_
_symmetry_equiv_pos_as_xyz
  x,y,z
_cell_length_a	17.077404
_cell_length_b	13.032721
_cell_length_c	17.077396
_cell_angle_alpha	97.153695
_cell_angle_beta	89.981638
_cell_angle_gamma	97.202376
loop_
_atom_site_label
_atom_site_type_symbol
_atom_site_fract_x
_atom_site_fract_y
_atom_site_fract_z
Zn1	Zn	1.160369	-0.416096	-0.483506
Zn2	Zn	1.143608	-0.590861	-0.368909
Zn3	Zn	1.029098	-0.416126	-0.352259
Zn4	Zn	1.012407	-0.590792	-0.500129
O5	O	1.086370	-0.503469	-0.426201
O6	O	1.267991	-0.439296	-0.468316
O7	O	1.128388	-0.567724	-0.256857
O8	O	1.060511	-0.269884	-0.355745
O9	O	1.255676	-0.567695	-0.384122
O10	O	1.156955	-0.269862	-0.452171
O11	O	1.044258	-0.439346	-0.244625
O12	O	0.917038	-0.439280	-0.371863
O13	O	1.032064	-0.567577	-0.607767
O14	O	0.904776	-0.567606	-0.480502
O15	O	1.140771	-0.439229	-0.595554
O16	O	1.112204	-0.737091	-0.400240
O17	O	1.015811	-0.737040	-0.496647
C18	C	0.882425	-0.503439	-0.426180
C19	C	0.795174	-0.503452	-0.426193
C20	C	0.760586	-0.436713	-0.470120
C21	C	0.678605	-0.436720	-0.470125
C22	C	0.631213	-0.503471	-0.426205
C23	C	0.665807	-0.570213	-0.382272
C24	C	0.747787	-0.570200	-0.382264
C25	C	0.494935	-0.570237	-0.382294
C26	C	0.412949	-0.570251	-0.382303
C27	C	0.425752	-0.436756	-0.470155
C28	C	0.507732	-0.436744	-0.470146
C29	C	0.542321	-0.503487	-0.426214
C30	C	1.060399	-0.774983	-0.452071
C31	C	1.049360	-0.891138	-0.463165
C32	C	1.092173	-0.942914	-0.420446
C33	C	1.080765	-1.062966	-0.431911
C34	C	1.291112	-0.503499	-0.426222
C35	C	1.378360	-0.503512	-0.426231
C36	C	1.086425	-0.503392	-0.630938
C37	C	1.086449	-0.503359	-0.718184
C38	C	1.112465	-0.230895	-0.400247
C39	C	1.123585	-0.114740	-0.389187
C40	C	1.143055	-0.436523	-0.752816
C41	C	1.143067	-0.436488	-0.834793
C42	C	1.086477	-0.503296	-0.882138
C43	C	1.029865	-0.570135	-0.847501
C44	C	1.029849	-0.570164	-0.765524
C45	C	1.029902	-0.570072	-1.018365
C46	C	1.029919	-0.570045	-1.100347
C47	C	1.143121	-0.436396	-1.087634
C48	C	1.143105	-0.436425	-1.005658
C49	C	1.086494	-0.503266	-0.971026
C50	C	1.086368	-0.503470	-0.222253
C51	C	1.086525	-0.503209	-0.134979
H52	H	0.799167	-0.382359	-0.505887
H53	H	0.650447	-0.382377	-0.505897
Cl54	Cl	0.567309	-0.352835	-0.525368
H55	H	0.983836	-0.624444	-1.138893
Cl56	Cl	0.791270	-0.654105	-0.327039
Cl57	Cl	0.979730	-0.959912	-0.532742
Cl58	Cl	0.958732	-0.654102	-0.974829
Cl59	Cl	1.193226	-1.045972	-0.319614
Cl60	Cl	0.382271	-0.352848	-0.525381
H61	H	0.627215	-0.624558	-0.346508
Cl62	Cl	0.958682	-0.654188	-0.721987
Cl63	Cl	0.353369	-0.654193	-0.327110
Cl64	Cl	1.011132	-1.131736	-0.501491
Cl65	Cl	1.214263	-0.352507	-0.878331
H66	H	0.523094	-0.624583	-0.346517
H67	H	1.137277	-0.898366	-0.375388
H68	H	1.189190	-0.382030	-0.967112
Cl69	Cl	1.214205	-0.352535	-0.693306
H70	H	1.189214	-0.381970	-1.115834
H71	H	0.983785	-0.624528	-0.886055
