data_functionalizedCrystal
_audit_creation_method	'MofGen! by Chris Wilmer'
_symmetry_space_group_name_H-M	'P1'
_symmetry_Int_Tables_number	1
_symmetry_cell_setting	triclinic
loop_
_symmetry_equiv_pos_as_xyz
  x,y,z
_cell_length_a	19.288859
_cell_length_b	10.723024
_cell_length_c	17.766277
_cell_angle_alpha	90.000320
_cell_angle_beta	90.007461
_cell_angle_gamma	83.800798
loop_
_atom_site_label
_atom_site_type_symbol
_atom_site_fract_x
_atom_site_fract_y
_atom_site_fract_z
O1	O	0.922366	0.155614	0.062607
O2	O	1.422366	0.655614	0.562607
O3	O	0.720241	0.176620	0.062605
O4	O	1.220241	0.676620	0.562605
O5	O	0.825966	-0.015557	0.062603
O6	O	1.325966	0.484443	0.562603
O7	O	0.816641	0.347791	0.062609
O8	O	1.316641	0.847791	0.562609
O9	O	0.825952	-0.015551	-0.062585
O10	O	1.325952	0.484449	0.437415
O11	O	0.720227	0.176627	-0.062583
O12	O	1.220227	0.676627	0.437417
O13	O	0.922352	0.155621	-0.062581
O14	O	1.422352	0.655621	0.437419
Cu15	Cu	0.821288	0.166124	-0.074013
Cu16	Cu	1.321288	0.666124	0.425987
Cu17	Cu	0.821305	0.166116	0.074037
Cu18	Cu	1.321305	0.666116	0.574037
O19	O	0.816627	0.347798	-0.062580
O20	O	1.316627	0.847798	0.437420
C21	C	0.694353	0.175949	0.000011
C22	C	1.194353	0.675949	0.500011
C23	C	0.617236	0.173924	0.000010
C24	C	1.117236	0.673924	0.500010
C25	C	0.053840	0.272985	0.000013
C26	C	0.553840	0.772985	0.500013
C27	C	0.126299	0.274899	0.000017
C28	C	0.626299	0.774899	0.500017
C29	C	0.170272	0.162138	0.000013
C30	C	0.670272	0.662138	0.500013
C31	C	0.141781	0.047455	0.000026
C32	C	0.641781	0.547455	0.500026
C33	C	0.069323	0.045544	0.000029
C34	C	0.569323	0.545544	0.500029
C35	C	0.290990	0.078044	-0.043850
C36	C	0.790990	0.578044	0.456150
C37	C	0.363447	0.079959	-0.043858
C38	C	0.863447	0.579959	0.456142
C39	C	0.393756	0.168026	0.000006
C40	C	0.893756	0.668026	0.500006
C41	C	0.351600	0.254198	0.043868
C42	C	0.851600	0.754198	0.543868
C43	C	0.279142	0.252288	0.043872
C44	C	0.779142	0.752288	0.543872
C45	C	0.248841	0.164197	0.000010
C46	C	0.748841	0.664197	0.500010
C47	C	0.500808	0.284777	0.000003
C48	C	1.000808	0.784777	0.500003
C49	C	0.573268	0.286686	0.000012
C50	C	1.073268	0.786686	0.500012
C51	C	0.588749	0.059238	0.000013
C52	C	1.088749	0.559238	0.500013
C53	C	0.516290	0.057333	0.000012
C54	C	1.016290	0.557333	0.500012
C55	C	0.472323	0.170105	0.000004
C56	C	0.972323	0.670105	0.500004
C57	C	0.825280	-0.062039	0.000010
C58	C	1.325280	0.437961	0.500010
C59	C	0.823250	-0.200551	0.000013
C60	C	1.323250	0.299449	0.500013
C61	C	0.882408	-0.276778	0.000014
C62	C	1.382408	0.223222	0.500014
C63	C	0.880311	-0.419937	0.000017
C64	C	1.380311	0.080063	0.500017
C65	C	0.948240	0.156292	0.000015
C66	C	1.448240	0.656292	0.500015
C67	C	1.025357	0.158317	0.000021
C68	C	1.525357	0.658317	0.500021
C69	C	0.817313	0.394280	0.000015
C70	C	1.317313	0.894280	0.500015
C71	C	0.819343	0.532791	0.000018
C72	C	1.319343	1.032791	0.500018
N73	N	0.821281	0.166129	-0.178143
N74	N	1.321281	0.666129	0.321857
C75	C	0.863801	0.241575	-0.782430
C76	C	1.363801	0.741575	-0.282430
C77	C	0.863794	0.241587	-0.703628
C78	C	1.363794	0.741587	-0.203628
C79	C	0.821312	0.166102	-0.664232
C80	C	1.321312	0.666102	-0.164232
C81	C	0.778819	0.090624	-0.703645
C82	C	1.278819	0.590624	-0.203645
C83	C	0.778822	0.090624	-0.782445
C84	C	1.278822	0.590624	-0.282445
C85	C	0.818853	0.053602	-0.539390
C86	C	1.318853	0.553602	-0.039390
C87	C	0.818855	0.053599	-0.460591
C88	C	1.318855	0.553599	0.039409
C89	C	0.821299	0.166105	-0.421186
C90	C	1.321299	0.666105	0.078814
C91	C	0.823755	0.278615	-0.460589
C92	C	1.323755	0.778615	0.039411
C93	C	0.823757	0.278614	-0.539390
C94	C	1.323757	0.778614	-0.039390
C95	C	0.821303	0.166095	-0.578787
C96	C	1.321303	0.666095	-0.078787
C97	C	0.863777	0.241598	-0.296337
C98	C	1.363777	0.741598	0.203663
C99	C	0.863766	0.241613	-0.217534
C100	C	1.363766	0.741613	0.282466
C101	C	0.778794	0.090639	-0.217552
C102	C	1.278794	0.590639	0.282448
C103	C	0.778802	0.090635	-0.296354
C104	C	1.278802	0.590635	0.203646
C105	C	0.821297	0.166113	-0.335741
C106	C	1.321297	0.666113	0.164259
N107	N	0.821317	0.166101	0.178167
N108	N	1.321317	0.666101	0.678167
H109	H	0.149495	0.368278	0.000003
H110	H	0.649495	0.868278	0.500003
N111	N	0.384272	0.349198	0.091187
N112	N	0.884272	0.849198	0.591187
H113	H	0.410684	0.403583	0.057594
H114	H	0.910684	0.903583	0.557594
H115	H	0.417421	0.304079	0.128692
H116	H	0.917421	0.804079	0.628692
N117	N	0.947400	-0.506684	0.000010
N118	N	1.447400	-0.006684	0.500010
H119	H	0.936392	-0.596655	0.000011
H120	H	1.436392	-0.096655	0.500011
H121	H	0.975356	-0.490655	0.046419
H122	H	1.475356	0.009345	0.546419
H123	H	0.934608	-0.236054	0.000010
H124	H	1.434608	0.263946	0.500010
N125	N	0.826339	0.399983	-0.418098
N126	N	1.326339	0.899983	0.081902
H127	H	0.827880	0.471256	-0.455017
H128	H	1.327880	0.971256	0.044983
H129	H	0.869393	0.393623	-0.385373
H130	H	1.369393	0.893623	0.114627
H131	H	0.397765	0.009798	-0.079577
H132	H	0.897765	0.509798	0.420423
H133	H	0.768697	-0.401718	0.000011
H134	H	1.268697	0.098282	0.500011
H135	H	0.771050	-0.241275	0.000017
H136	H	1.271050	0.258725	0.500017
N137	N	0.909658	0.322935	-0.824912
N138	N	1.409658	0.822935	-0.324912
H139	H	0.936579	0.370734	-0.787988
H140	H	1.436579	0.870734	-0.287988
H141	H	0.879693	0.384093	-0.857627
H142	H	1.379693	0.884093	-0.357627
H143	H	0.244821	0.322450	0.079587
H144	H	0.744821	0.822450	0.579587
H145	H	0.825755	0.370224	-0.571469
H146	H	1.325755	0.870224	-0.071469
H147	H	0.898389	0.303052	-0.671540
H148	H	1.398389	0.803052	-0.171540
N149	N	0.816222	-0.067746	-0.581895
N150	N	1.316222	0.432254	-0.081895
H151	H	0.773151	-0.061436	-0.614597
H152	H	1.273151	0.438564	-0.114597
H153	H	0.814700	-0.138962	-0.544937
H154	H	1.314700	0.361038	-0.044937
N155	N	0.453384	0.406405	0.000003
N156	N	0.953384	0.906405	0.500003
H157	H	0.462615	0.456448	0.046413
H158	H	0.962615	0.956448	0.546413
H159	H	0.403179	0.387693	-0.000027
H160	H	0.903179	0.887693	0.499973
N161	N	0.909605	0.323013	-0.338822
N162	N	1.409605	0.823013	0.161178
H163	H	0.896332	0.413865	-0.325113
H164	H	1.396332	0.913865	0.174887
H165	H	0.903146	0.311451	-0.394708
H166	H	1.403146	0.811451	0.105292
N167	N	0.909589	0.323022	-0.175030
N168	N	1.409589	0.823022	0.324970
H169	H	0.936510	0.370829	-0.211943
H170	H	1.436510	0.870829	0.288057
H171	H	0.943277	0.268448	-0.142329
H172	H	1.443277	0.768448	0.357671
H173	H	0.266319	0.006323	-0.079570
H174	H	0.766319	0.506323	0.420430
H175	H	0.816860	-0.038014	-0.428515
H176	H	1.316860	0.461986	0.071485
H177	H	0.744200	0.029185	-0.185477
H178	H	1.244200	0.529185	0.314523
H179	H	0.744210	0.029171	-0.328436
H180	H	1.244210	0.529171	0.171564
H181	H	0.744228	0.029167	-0.671564
H182	H	1.244228	0.529167	-0.171564
H183	H	0.596457	0.380066	0.000012
H184	H	1.096457	0.880066	0.500012
N185	N	0.733006	0.009203	-0.824950
N186	N	1.233006	0.509203	-0.324950
H187	H	0.706091	-0.038618	-0.788039
H188	H	1.206091	0.461382	-0.288039
H189	H	0.763008	-0.051937	-0.857632
H190	H	1.263008	0.448063	-0.357632
N191	N	0.636167	-0.062386	0.000018
N192	N	1.136167	0.437614	0.500018
H193	H	0.686391	-0.043778	0.000017
H194	H	1.186391	0.456222	0.500017
H195	H	0.626876	-0.112384	-0.046389
H196	H	1.126876	0.387616	0.453611
H197	H	0.018047	0.364814	0.000009
H198	H	0.518047	0.864814	0.500009
H199	H	0.493099	-0.036043	0.000014
H200	H	0.993099	0.463957	0.500014
H201	H	0.177589	-0.044356	0.000025
H202	H	0.677589	0.455644	0.500025
H203	H	0.046134	-0.047835	0.000036
H204	H	0.546134	0.452165	0.500036
