data_functionalizedCrystal
_audit_creation_method	'MofGen! by Chris Wilmer'
_symmetry_space_group_name_H-M	'P1'
_symmetry_Int_Tables_number	1
_symmetry_cell_setting	triclinic
loop_
_symmetry_equiv_pos_as_xyz
  x,y,z
_cell_length_a	6.817900
_cell_length_b	10.943925
_cell_length_c	10.943624
_cell_angle_alpha	91.772910
_cell_angle_beta	108.838799
_cell_angle_gamma	108.844289
loop_
_atom_site_label
_atom_site_type_symbol
_atom_site_fract_x
_atom_site_fract_y
_atom_site_fract_z
V1	V	-4.115532	-0.178599	-0.402534
O2	O	-4.073202	0.008617	-0.394889
O3	O	-4.093518	-0.354165	-0.399763
O4	O	-4.093494	-0.175837	-0.578100
O5	O	-4.073227	-0.170946	-0.215317
V6	V	-4.592325	-0.156208	-0.380143
O7	O	-4.391553	-0.227716	-0.451649
O8	O	-4.766501	-0.107090	-0.331028
O9	O	-4.391132	0.019359	-0.382914
O10	O	-4.752051	-0.343424	-0.387788
O11	O	-4.752026	-0.163861	-0.567359
O12	O	-4.391156	-0.158970	-0.204576
C13	C	-3.944085	-0.396965	-0.393408
C14	C	-4.007548	-0.540493	-0.392314
C15	C	-4.274915	-0.717225	-0.397745
C16	C	-4.085582	-0.611235	-0.288089
C17	C	-4.196062	-0.644571	-0.501935
C18	C	-3.931139	-0.690208	-0.280609
C19	C	-4.041699	-0.723567	-0.494552
C20	C	-3.852230	-0.617606	-0.384865
C21	C	-3.944052	-0.169487	-0.620894
C22	C	-4.007492	-0.168390	-0.764420
C23	C	-3.852320	-0.161003	-0.841568
C24	C	-4.041701	-0.270649	-0.947548
C25	C	-3.931176	-0.056802	-0.914182
C26	C	-4.196083	-0.278139	-0.868523
C27	C	-4.085478	-0.064195	-0.835134
C28	C	-4.274995	-0.173872	-0.941083
C29	C	-4.203907	0.062152	-0.389265
C30	C	-4.119684	0.205678	-0.390368
C31	C	-4.203939	-0.165324	-0.161776
C32	C	-4.119737	-0.166414	-0.018248
H33	H	-3.672911	-0.574321	-0.379394
H34	H	-4.307485	-0.371785	-0.847969
H35	H	-4.023893	-0.772507	-0.581841
C36	C	-4.346521	-0.616586	-0.628303
H37	H	-4.496064	-0.650861	-0.632719
H38	H	-4.304005	-0.524954	-0.628480
H39	H	-4.332350	-0.656708	-0.701672
C40	C	-4.517227	-0.181256	-0.999518
H41	H	-4.611454	-0.259902	-0.984237
H42	H	-4.533548	-0.108654	-0.959519
H43	H	-4.556133	-0.179799	-1.090869
C44	C	-3.610243	-0.153852	-0.782856
H45	H	-3.594573	-0.227329	-0.821717
H46	H	-3.515930	-0.076000	-0.799332
H47	H	-3.570902	-0.153846	-0.691289
H48	H	-4.103473	-0.562326	-0.200807
C49	C	-4.017602	-0.388548	-1.013679
H50	H	-3.867920	-0.383865	-0.979423
H51	H	-4.110290	-0.467074	-0.997245
H52	H	-4.059682	-0.387419	-1.105170
C53	C	-4.109458	0.053715	-0.768958
H54	H	-4.014646	0.132257	-0.784025
H55	H	-4.258518	0.049966	-0.804332
H56	H	-4.069942	0.051683	-0.677672
C57	C	-3.780724	0.069577	-0.942168
H58	H	-3.631184	0.073991	-0.907927
H59	H	-3.823270	0.069775	-1.033798
H60	H	-3.794866	0.142938	-0.902013
H61	H	-4.454119	-0.760720	-0.403043
H62	H	-3.819723	-0.710753	-0.186971
