data_functionalizedCrystal
_audit_creation_method	'MofGen! by Chris Wilmer'
_symmetry_space_group_name_H-M	'P1'
_symmetry_Int_Tables_number	1
_symmetry_cell_setting	triclinic
loop_
_symmetry_equiv_pos_as_xyz
  x,y,z
_cell_length_a	16.625548
_cell_length_b	13.897448
_cell_length_c	13.897441
_cell_angle_alpha	90.030599
_cell_angle_beta	89.978130
_cell_angle_gamma	89.981240
loop_
_atom_site_label
_atom_site_type_symbol
_atom_site_fract_x
_atom_site_fract_y
_atom_site_fract_z
Zn1	Zn	1.232718	0.383957	-0.545410
Zn2	Zn	1.566051	0.717290	-0.212077
Zn3	Zn	1.899384	1.050623	0.121256
Zn4	Zn	1.232629	0.545278	-0.384112
Zn5	Zn	1.565962	0.878612	-0.050778
Zn6	Zn	1.899296	1.211945	0.282555
Zn7	Zn	1.097876	0.384002	-0.384126
Zn8	Zn	1.431210	0.717335	-0.050792
Zn9	Zn	1.764543	1.050669	0.282541
Zn10	Zn	1.097861	0.545214	-0.545361
Zn11	Zn	1.431194	0.878548	-0.212028
Zn12	Zn	1.764528	1.211881	0.121305
O13	O	1.165271	0.464613	-0.464752
O14	O	1.498604	0.797946	-0.131419
O15	O	1.831938	1.131279	0.201914
O16	O	1.345538	0.405364	-0.524029
O17	O	1.678872	0.738697	-0.190695
O18	O	2.012205	1.072031	0.142638
O19	O	1.214723	0.523930	-0.249132
O20	O	1.548056	0.857264	0.084201
O21	O	1.881390	1.190597	0.417535
O22	O	1.115807	0.249014	-0.405547
O23	O	1.449140	0.582348	-0.072213
O24	O	1.782473	0.915681	0.261120
O25	O	1.345473	0.523886	-0.405523
O26	O	1.678806	0.857220	-0.072190
O27	O	2.012140	1.190553	0.261143
O28	O	1.214874	0.248981	-0.524042
O29	O	1.548207	0.582314	-0.190709
O30	O	1.881541	0.915648	0.142625
O31	O	1.115721	0.405441	-0.249142
O32	O	1.449054	0.738775	0.084191
O33	O	1.782388	1.072108	0.417525
O34	O	0.985042	0.405379	-0.405499
O35	O	1.318375	0.738713	-0.072166
O36	O	1.651709	1.072046	0.261168
O37	O	1.115781	0.523777	-0.680349
O38	O	1.449114	0.857111	-0.347016
O39	O	1.782447	1.190444	-0.013683
O40	O	0.985031	0.523821	-0.523958
O41	O	1.318364	0.857155	-0.190625
O42	O	1.651697	1.190488	0.142709
O43	O	1.214859	0.405302	-0.680386
O44	O	1.548193	0.738635	-0.347052
O45	O	1.881526	1.071969	-0.013719
O46	O	1.214708	0.680251	-0.405476
O47	O	1.548042	1.013585	-0.072142
O48	O	1.881375	1.346918	0.261191
O49	O	1.115695	0.680204	-0.523945
O50	O	1.449028	1.013538	-0.190611
O51	O	1.782361	1.346871	0.142722
C52	C	1.165212	0.715227	-0.464724
C53	C	1.498545	1.048561	-0.131391
C54	C	1.831879	1.381894	0.201942
C55	C	1.165261	0.822441	-0.464745
C56	C	1.498594	1.155774	-0.131411
C57	C	1.831927	1.489108	0.201922
C58	C	0.955780	0.464599	-0.464725
C59	C	1.289113	0.797932	-0.131392
C60	C	1.622447	1.131266	0.201941
C61	C	0.866159	0.464616	-0.464737
C62	C	1.199492	0.797950	-0.131403
C63	C	1.532826	1.131283	0.201930
C64	C	1.165328	0.464528	-0.716345
C65	C	1.498662	0.797861	-0.383012
C66	C	1.831995	1.131194	-0.049679
C67	C	1.165353	0.464491	-0.823559
C68	C	1.498686	0.797825	-0.490226
C69	C	1.832019	1.131158	-0.156893
C70	C	0.537983	0.464623	-0.464778
C71	C	0.871317	0.797956	-0.131445
C72	C	1.204650	1.131289	0.201889
C73	C	0.629292	0.464618	-0.464763
C74	C	0.962625	0.797952	-0.131430
C75	C	1.295959	1.131285	0.201903
C76	C	0.702068	0.464620	-0.464757
C77	C	1.035402	0.797953	-0.131423
C78	C	1.368735	1.131287	0.201910
C79	C	0.793383	0.464615	-0.464743
C80	C	1.126716	0.797948	-0.131410
C81	C	1.460049	1.131281	0.201923
C82	C	1.375580	0.464627	-0.464780
C83	C	1.708913	0.797961	-0.131447
C84	C	2.042247	1.131294	0.201887
C85	C	1.465201	0.464634	-0.464792
C86	C	1.798534	0.797967	-0.131458
C87	C	2.131868	1.131300	0.201875
C88	C	1.165352	0.213020	-0.464801
C89	C	1.498685	0.546353	-0.131468
C90	C	1.832019	0.879686	0.201865
C91	C	1.165387	0.105806	-0.464822
C92	C	1.498720	0.439139	-0.131489
C93	C	1.832053	0.772473	0.201844
C94	C	1.165345	1.018736	-0.464805
C95	C	1.498679	1.352069	-0.131472
C96	C	1.832012	1.685403	0.201861
C97	C	1.165296	0.909504	-0.464774
C98	C	1.498629	1.242837	-0.131441
C99	C	1.831963	1.576170	0.201892
C100	C	1.165374	0.464426	-1.019855
C101	C	1.498708	0.797759	-0.686521
C102	C	1.832041	1.131093	-0.353188
C103	C	1.165360	0.464465	-0.910622
C104	C	1.498693	0.797798	-0.577289
C105	C	1.832026	1.131132	-0.243955
C106	C	1.165260	0.464628	-0.214138
C107	C	1.498594	0.797961	0.119195
C108	C	1.831927	1.131295	0.452529
C109	C	1.165392	0.464393	-0.106925
C110	C	1.498726	0.797726	0.226409
C111	C	1.832059	1.131059	0.559742
