data_functionalizedCrystal
_audit_creation_method	'MofGen! by Chris Wilmer'
_symmetry_space_group_name_H-M	'P1'
_symmetry_Int_Tables_number	1
_symmetry_cell_setting	triclinic
loop_
_symmetry_equiv_pos_as_xyz
  x,y,z
_cell_length_a	10.723023
_cell_length_b	11.792241
_cell_length_c	9.198806
_cell_angle_alpha	89.996670
_cell_angle_beta	89.996513
_cell_angle_gamma	84.330482
loop_
_atom_site_label
_atom_site_type_symbol
_atom_site_fract_x
_atom_site_fract_y
_atom_site_fract_z
O1	O	1.656767	0.159188	-0.120878
O2	O	1.293574	0.174427	-0.120884
O3	O	1.483984	0.001656	-0.120871
O4	O	1.466357	0.331959	-0.120892
O5	O	1.483969	0.001656	0.120914
O6	O	1.293559	0.174426	0.120901
O7	O	1.656752	0.159187	0.120907
Cu8	Cu	1.475154	0.166807	0.142981
Cu9	Cu	1.475172	0.166807	-0.142958
O10	O	1.466342	0.331958	0.120893
C11	C	1.247070	0.173318	0.000007
C12	C	1.108525	0.170000	0.000005
C13	C	0.903578	0.165093	-0.125246
C14	C	1.046772	0.168522	-0.125247
C15	C	1.482870	-0.040638	0.000021
C16	C	1.479555	-0.166658	0.000020
C17	C	1.473461	-0.397384	-0.000005
C18	C	1.476847	-0.268991	0.000008
C19	C	1.703256	0.160296	0.000012
C20	C	1.841802	0.163614	0.000004
C21	C	1.467457	0.374252	-0.000002
C22	C	1.470771	0.500273	-0.000010
N23	N	1.475151	0.166806	0.344095
N24	N	1.475185	0.166799	-0.344072
C25	C	1.555099	0.093944	0.416297
C26	C	1.555119	0.093940	0.583709
H27	H	1.055406	0.168735	0.107243
H28	H	1.099897	0.169801	-0.232479
H29	H	0.850457	0.163814	-0.232478
H30	H	0.894924	0.164881	0.107236
H31	H	1.623528	0.031563	0.354176
O32	O	1.636723	0.019361	0.657615
C33	C	1.615332	-0.093110	0.620568
H34	H	1.567299	-0.093326	0.510028
H35	H	1.708609	-0.148458	0.615501
H36	H	1.552792	-0.128491	0.706216
O37	O	1.393453	0.241068	0.418356
C38	C	1.315913	0.179785	0.506390
H39	H	1.364778	0.091261	0.529034
H40	H	1.296731	0.226948	0.613487
H41	H	1.223533	0.171590	0.447839
O42	O	1.393693	0.241275	0.581715
C43	C	1.461289	0.311621	0.493684
H44	H	1.558535	0.266975	0.471010
H45	H	1.409442	0.329198	0.386601
H46	H	1.470549	0.395574	0.552252
