data_functionalizedCrystal
_audit_creation_method	'MofGen! by Chris Wilmer'
_symmetry_space_group_name_H-M	'P1'
_symmetry_Int_Tables_number	1
_symmetry_cell_setting	triclinic
loop_
_symmetry_equiv_pos_as_xyz
  x,y,z
_cell_length_a	15.538191
_cell_length_b	11.792241
_cell_length_c	14.750779
_cell_angle_alpha	77.269352
_cell_angle_beta	97.572172
_cell_angle_gamma	65.732755
loop_
_atom_site_label
_atom_site_type_symbol
_atom_site_fract_x
_atom_site_fract_y
_atom_site_fract_z
O1	O	1.227751	-0.334867	-0.079835
O2	O	0.954160	-0.204092	-0.079835
O3	O	1.097596	-0.437437	-0.079829
O4	O	1.084314	-0.101522	-0.079842
O5	O	1.138144	-0.503396	0.079824
O6	O	0.994708	-0.270050	0.079817
O7	O	1.268299	-0.400826	0.079817
Zn8	Zn	1.137941	-0.345910	0.105165
Zn9	Zn	1.084517	-0.259007	-0.105184
O10	O	1.124862	-0.167480	0.079810
C11	C	0.939408	-0.223389	-0.000009
C12	C	0.835043	-0.182633	-0.000009
C13	C	0.545184	-0.587531	-0.000008
C14	C	0.447114	-0.549206	-0.000010
C15	C	0.425770	-0.333634	-0.000018
C16	C	0.523842	-0.371944	-0.000012
C17	C	0.583541	-0.498893	-0.000007
C18	C	0.562199	-0.283306	-0.000011
C19	C	0.660261	-0.321611	-0.000009
C20	C	0.719966	-0.448554	-0.000008
C21	C	0.681604	-0.537198	-0.000005
C22	C	0.502495	-0.156354	-0.000022
C23	C	0.540853	-0.067716	-0.000022
C24	C	0.638918	-0.106023	-0.000013
C25	C	0.698623	-0.232966	-0.000011
C26	C	0.677281	-0.017378	-0.000015
C27	C	0.775343	-0.055683	-0.000013
C28	C	0.796685	-0.271271	-0.000010
C29	C	1.117036	-0.512358	-0.000003
C30	C	1.114539	-0.637324	-0.000004
C31	C	1.109944	-0.866104	-0.000020
C32	C	1.112497	-0.738792	-0.000011
C33	C	1.283050	-0.381528	-0.000011
C34	C	1.387414	-0.422281	-0.000018
C35	C	1.105422	-0.092559	-0.000018
C36	C	1.107917	0.032410	-0.000023
N37	N	1.174408	-0.405223	0.248722
N38	N	1.048058	-0.199706	-0.248741
C39	C	0.946211	-0.034105	0.600530
C40	C	0.971771	-0.075662	0.701030
C41	C	1.098811	-0.282244	0.700999
C42	C	1.073258	-0.240706	0.600497
C43	C	0.996958	-0.116634	0.550270
C44	C	1.124005	-0.323236	0.550237
C45	C	1.098457	-0.281698	0.449743
C46	C	1.022162	-0.157630	0.399509
C47	C	0.971410	-0.075097	0.449776
C48	C	1.200309	-0.447303	0.600465
C49	C	1.251056	-0.529833	0.550205
C50	C	1.225504	-0.488299	0.449710
C51	C	1.149209	-0.364231	0.399476
C52	C	1.276256	-0.570832	0.399443
C53	C	1.250708	-0.529294	0.298949
C54	C	1.123661	-0.322693	0.298982
H55	H	0.422647	-0.125169	-0.000027
C56	C	1.228412	-0.492996	0.711010
C57	C	1.332039	-0.529563	0.766261
C58	C	1.360140	-0.575253	0.876805
C59	C	1.284613	-0.584376	0.932097
C60	C	1.180978	-0.547807	0.876846
C61	C	1.152878	-0.502117	0.766302
H62	H	1.387955	-0.522811	0.725330
H63	H	1.436857	-0.602324	0.917705
H64	H	1.305415	-0.618198	1.013929
H65	H	1.125063	-0.554559	0.917777
H66	H	1.076160	-0.475047	0.725402
H67	H	0.884073	0.066922	0.559634
H68	H	0.377148	-0.230269	-0.000026
H69	H	0.799811	-0.479734	-0.000019
H70	H	0.730217	-0.640576	0.000004
H71	H	1.313183	-0.630852	0.591111
C72	C	0.817548	0.041810	-0.000012
C73	C	0.816329	0.101749	0.082890
C74	C	0.858536	0.199244	0.082886
C75	C	0.901962	0.236799	-0.000020
C76	C	0.903183	0.176859	-0.082928
C77	C	0.860976	0.079364	-0.082923
H78	H	0.784181	0.073949	0.144267
H79	H	0.857631	0.243615	0.144260
H80	H	0.933206	0.308970	-0.000023
H81	H	0.935331	0.204659	-0.144305
H82	H	0.861880	0.034993	-0.144298
H83	H	0.628656	0.085988	-0.000028
H84	H	1.338386	-0.671848	0.440350
C85	C	0.994054	-0.111933	0.288965
C86	C	0.890428	-0.075381	0.233719
C87	C	0.862321	-0.029684	0.123175
C88	C	0.937839	-0.020540	0.067877
C89	C	1.041472	-0.057093	0.123123
C90	C	1.069579	-0.102789	0.233667
H91	H	0.834519	-0.082149	0.274654
H92	H	0.785605	-0.002625	0.082279
H93	H	0.917032	0.013288	-0.013954
H94	H	1.097381	-0.050324	0.082188
H95	H	1.146296	-0.129848	0.274563
C96	C	0.404918	-0.646715	-0.000006
C97	C	0.361488	-0.684275	0.082895
C98	C	0.319289	-0.781777	0.082895
C99	C	0.320520	-0.841720	-0.000006
C100	C	0.363951	-0.804160	-0.082913
C101	C	0.406150	-0.706658	-0.082914
H102	H	0.360576	-0.639901	0.144269
H103	H	0.287139	-0.809581	0.144269
H104	H	0.289282	-0.913897	-0.000005
H105	H	0.364864	-0.848534	-0.144287
H106	H	0.438301	-0.678854	-0.144288
H107	H	0.845299	-0.374648	-0.000000
H108	H	0.909272	0.025930	0.408880
H109	H	0.593797	-0.690909	0.000001
H110	H	0.492231	0.035649	-0.000029
H111	H	1.061523	-0.221667	0.258086
H112	H	0.930441	-0.008445	0.741947
H113	H	1.160938	-0.383263	0.741905
H114	H	1.292033	-0.596499	0.258027
