data_functionalizedCrystal
_audit_creation_method	'MofGen! by Chris Wilmer'
_symmetry_space_group_name_H-M	'P1'
_symmetry_Int_Tables_number	1
_symmetry_cell_setting	triclinic
loop_
_symmetry_equiv_pos_as_xyz
  x,y,z
_cell_length_a	6.817900
_cell_length_b	16.256275
_cell_length_c	16.256237
_cell_angle_alpha	95.341592
_cell_angle_beta	103.499434
_cell_angle_gamma	103.500333
loop_
_atom_site_label
_atom_site_type_symbol
_atom_site_fract_x
_atom_site_fract_y
_atom_site_fract_z
V1	V	-4.026876	-0.117749	-0.264172
O2	O	-4.014286	0.004984	-0.258833
O3	O	-3.978490	-0.232829	-0.262663
O4	O	-3.978481	-0.116234	-0.379250
O5	O	-4.014295	-0.112418	-0.141439
V6	V	-4.510502	-0.103034	-0.249456
O7	O	-4.287910	-0.150029	-0.296453
O8	O	-4.699666	-0.070755	-0.217175
O9	O	-4.335681	0.012046	-0.250964
O10	O	-4.640489	-0.225768	-0.254794
O11	O	-4.640480	-0.108366	-0.372189
O12	O	-4.335690	-0.104550	-0.134377
C13	C	-3.823494	-0.260874	-0.258572
C14	C	-3.865219	-0.354955	-0.258106
C15	C	-3.823482	-0.112144	-0.407290
C16	C	-3.865197	-0.111666	-0.501369
C17	C	-4.181097	-0.114672	-0.789475
C18	C	-4.097506	-0.182877	-0.742031
C19	C	-4.015235	-0.109977	-0.840006
C20	C	-4.024630	-0.042641	-0.719823
C21	C	-3.941526	-0.110806	-0.673622
C22	C	-3.932222	-0.178234	-0.793809
C23	C	-3.859342	-0.037936	-0.771598
C24	C	-3.775632	-0.106155	-0.724178
C25	C	-4.057703	-0.109501	-0.935855
C26	C	-3.899047	-0.111288	-0.577775
C27	C	-4.156167	-0.586785	-0.261380
C28	C	-4.122447	-0.651924	-0.329019
C29	C	-3.941520	-0.527201	-0.257237
C30	C	-4.049576	-0.629700	-0.188784
C31	C	-4.015236	-0.693583	-0.256395
C32	C	-3.907280	-0.591110	-0.324940
C33	C	-3.834401	-0.568872	-0.184642
C34	C	-3.800540	-0.633984	-0.252295
C35	C	-3.899061	-0.431353	-0.257723
C36	C	-4.057683	-0.789429	-0.255914
C37	C	-4.154019	0.040086	-0.255053
C38	C	-4.091532	0.134166	-0.255525
C39	C	-4.154032	-0.108642	-0.106333
C40	C	-4.091555	-0.109116	-0.012253
H41	H	-4.352927	-0.118350	-0.818003
H42	H	-3.846838	-0.573978	-0.382548
H43	H	-3.650450	-0.654702	-0.248469
H44	H	-4.197753	-0.244162	-0.728603
C45	C	-3.724021	0.044860	-0.789770
N46	N	-3.622109	0.107228	-0.803458
C47	C	-4.358725	-0.558596	-0.266696
N48	N	-4.511288	-0.537362	-0.270704
C49	C	-3.669452	-0.520156	-0.102182
N50	N	-3.545222	-0.483461	-0.040066
C51	C	-3.880068	-0.255734	-0.837189
N52	N	-3.840797	-0.314108	-0.869865
C53	C	-3.543496	-0.101323	-0.685847
N54	N	-3.368655	-0.097690	-0.656974
H55	H	-4.063330	0.014651	-0.687620
C56	C	-4.287476	-0.700614	-0.411477
N57	N	-4.411785	-0.737284	-0.473582
H58	H	-4.110190	-0.646949	-0.131244
