data_functionalizedCrystal
_audit_creation_method	'MofGen! by Chris Wilmer'
_symmetry_space_group_name_H-M	'P1'
_symmetry_Int_Tables_number	1
_symmetry_cell_setting	triclinic
loop_
_symmetry_equiv_pos_as_xyz
  x,y,z
_cell_length_a	18.215405
_cell_length_b	18.215407
_cell_length_c	18.215399
_cell_angle_alpha	89.983115
_cell_angle_beta	89.970161
_cell_angle_gamma	90.021264
loop_
_atom_site_label
_atom_site_type_symbol
_atom_site_fract_x
_atom_site_fract_y
_atom_site_fract_z
Zn1	Zn	-0.293039	1.125074	-0.416060
Zn2	Zn	0.040294	1.458407	-0.082727
Zn3	Zn	0.373628	1.791741	0.250607
Zn4	Zn	-0.416111	1.124986	-0.292990
Zn5	Zn	-0.082778	1.458319	0.040343
Zn6	Zn	0.250556	1.791652	0.373676
Zn7	Zn	-0.293058	1.002007	-0.293013
Zn8	Zn	0.040276	1.335341	0.040321
Zn9	Zn	0.373609	1.668674	0.373654
Zn10	Zn	-0.416063	1.001975	-0.416021
Zn11	Zn	-0.082730	1.335308	-0.082687
Zn12	Zn	0.250604	1.668641	0.250646
O13	O	-0.354568	1.063510	-0.354521
O14	O	-0.021234	1.396844	-0.021188
O15	O	0.312099	1.730177	0.312146
O16	O	-0.309377	1.228046	-0.399742
O17	O	0.023956	1.561380	-0.066408
O18	O	0.357289	1.894713	0.266925
O19	O	-0.399816	1.108649	-0.190009
O20	O	-0.066482	1.441982	0.143324
O21	O	0.266851	1.775316	0.476658
O22	O	-0.190071	1.018383	-0.309361
O23	O	0.143263	1.351717	0.023973
O24	O	0.476596	1.685050	0.357306
O25	O	-0.399798	1.227982	-0.309323
O26	O	-0.066465	1.561315	0.024010
O27	O	0.266869	1.894648	0.357344
O28	O	-0.190057	1.108800	-0.399763
O29	O	0.143276	1.442133	-0.066430
O30	O	0.476609	1.775466	0.266904
O31	O	-0.309409	1.018298	-0.190025
O32	O	0.023925	1.351631	0.143308
O33	O	0.357258	1.684964	0.476641
O34	O	-0.309362	0.899019	-0.309323
O35	O	0.023971	1.232352	0.024011
O36	O	0.357305	1.565686	0.357344
O37	O	-0.399715	1.018327	-0.519010
O38	O	-0.066382	1.351660	-0.185677
O39	O	0.266951	1.684994	0.147656
O40	O	-0.399733	0.898995	-0.399696
O41	O	-0.066400	1.232328	-0.066363
O42	O	0.266933	1.565661	0.266970
O43	O	-0.309330	1.108768	-0.519039
O44	O	0.024003	1.442101	-0.185706
O45	O	0.357336	1.775434	0.147628
O46	O	-0.519089	1.108617	-0.309285
O47	O	-0.185756	1.441951	0.024048
O48	O	0.147578	1.775284	0.357382
O49	O	-0.519054	1.018242	-0.399675
O50	O	-0.185720	1.351575	-0.066341
O51	O	0.147613	1.684908	0.266992
C52	C	-0.354545	0.872304	-0.354508
C53	C	-0.021212	1.205637	-0.021175
C54	C	0.312122	1.538971	0.312159
C55	C	-0.354553	0.790505	-0.354520
C56	C	-0.021220	1.123839	-0.021187
C57	C	0.312114	1.457172	0.312147
C58	C	-0.307568	0.602344	-0.401675
C59	C	0.025765	0.935677	-0.068342
C60	C	0.359099	1.269011	0.264991
C61	C	-0.307574	0.525485	-0.401678
C62	C	0.025759	0.858819	-0.068344
C63	C	0.359092	1.192152	0.264989
C64	C	-0.401588	0.525429	-0.307379
C65	C	-0.068255	0.858762	0.025954
C66	C	0.265079	1.192095	0.359287
C67	C	-0.401577	0.602286	-0.307374
C68	C	-0.068244	0.935619	0.025959
C69	C	0.265089	1.268953	0.359293
C70	C	-0.354568	0.640742	-0.354526
C71	C	-0.021235	0.974075	-0.021193
C72	C	0.312098	1.307408	0.312141
C73	C	-0.354585	0.487026	-0.354534
C74	C	-0.021252	0.820359	-0.021201
C75	C	0.312081	1.153692	0.312133
C76	C	-0.354593	0.403692	-0.354536
C77	C	-0.021259	0.737025	-0.021203
C78	C	0.312074	1.070359	0.312130
C79	C	-0.354560	0.724081	-0.354523
C80	C	-0.021227	1.057414	-0.021189
C81	C	0.312107	1.390747	0.312144
C82	C	-0.545774	1.063436	-0.354489
C83	C	-0.212441	1.396770	-0.021156
C84	C	0.120893	1.730103	0.312177
C85	C	-0.627573	1.063472	-0.354500
C86	C	-0.294239	1.396805	-0.021167
C87	C	0.039094	1.730138	0.312166
C88	C	-0.892624	1.110668	-0.307534
C89	C	-0.559291	1.444002	0.025800
C90	C	-0.225958	1.777335	0.359133
C91	C	-0.815766	1.110638	-0.307517
C92	C	-0.482432	1.443971	0.025816
C93	C	-0.149099	1.777305	0.359150
C94	C	-0.815770	1.016444	-0.401558
C95	C	-0.482436	1.349777	-0.068224
C96	C	-0.149103	1.683110	0.265109
C97	C	-0.892627	1.016471	-0.401570
C98	C	-0.559294	1.349804	-0.068237
C99	C	-0.225960	1.683137	0.265096
C100	C	-0.931052	1.063587	-0.354559
C101	C	-0.597719	1.396921	-0.021226
C102	C	-0.264386	1.730254	0.312107
C103	C	-0.777336	1.063530	-0.354530
C104	C	-0.444003	1.396863	-0.021197
C105	C	-0.110670	1.730196	0.312137
C106	C	-0.694003	1.063497	-0.354512
C107	C	-0.360669	1.396830	-0.021179
C108	C	-0.027336	1.730163	0.312155
C109	C	-1.014391	1.063620	-0.354576
C110	C	-0.681058	1.396953	-0.021243
C111	C	-0.347725	1.730286	0.312090
C112	C	-0.162615	1.063605	-0.354569
C113	C	0.170719	1.396938	-0.021235
C114	C	0.504052	1.730272	0.312098
C115	C	-0.080816	1.063645	-0.354589
C116	C	0.252518	1.396978	-0.021256
C117	C	0.585851	1.730312	0.312078
C118	C	-0.354515	1.063554	-0.546474
C119	C	-0.021182	1.396887	-0.213141
C120	C	0.312151	1.730220	0.120193
C121	C	-0.354493	1.063572	-0.628273
C122	C	-0.021160	1.396905	-0.294940
C123	C	0.312173	1.730239	0.038394
C124	C	-0.354591	1.255463	-0.354534
C125	C	-0.021258	1.588797	-0.021201
C126	C	0.312076	1.922130	0.312132
C127	C	-0.354601	1.337262	-0.354540
C128	C	-0.021267	1.670595	-0.021207
C129	C	0.312066	2.003929	0.312127
C130	C	-0.307366	1.110692	-0.893347
C131	C	0.025967	1.444025	-0.560013
C132	C	0.359300	1.777358	-0.226680
C133	C	-0.307386	1.110683	-0.816488
C134	C	0.025947	1.444016	-0.483155
C135	C	0.359280	1.777350	-0.149821
C136	C	-0.401514	1.016512	-0.816448
C137	C	-0.068180	1.349846	-0.483114
C138	C	0.265153	1.683179	-0.149781
C139	C	-0.401497	1.016525	-0.893305
C140	C	-0.068164	1.349859	-0.559972
C141	C	0.265170	1.683192	-0.226638
C142	C	-0.354419	1.063614	-0.931753
C143	C	-0.021086	1.396947	-0.598419
C144	C	0.312248	1.730280	-0.265086
C145	C	-0.354456	1.063592	-0.778036
C146	C	-0.021122	1.396925	-0.444703
C147	C	0.312211	1.730259	-0.111370
C148	C	-0.354478	1.063582	-0.694703
C149	C	-0.021144	1.396916	-0.361369
C150	C	0.312189	1.730249	-0.028036
C151	C	-0.354398	1.063625	-1.015092
C152	C	-0.021065	1.396958	-0.681758
C153	C	0.312269	1.730291	-0.348425
C154	C	-0.354566	1.063510	-0.163315
C155	C	-0.021233	1.396843	0.170019
C156	C	0.312100	1.730176	0.503352
C157	C	-0.354381	1.063634	-0.081516
C158	C	-0.021048	1.396967	0.251817
C159	C	0.312285	1.730301	0.585150
H160	H	-0.439852	0.633550	-0.268975
H161	H	-0.106518	0.966884	0.064358
H162	H	0.226815	1.300217	0.397691
C163	C	-0.934900	0.964675	-0.453304
C164	C	-0.601567	1.298008	-0.119971
C165	C	-0.268233	1.631341	0.213362
N166	N	-0.966740	0.925662	-0.492268
N167	N	-0.633407	1.258995	-0.158934
N168	N	-0.300074	1.592329	0.174399
H169	H	-0.784476	0.978083	-0.439834
H170	H	-0.451143	1.311417	-0.106501
H171	H	-0.117809	1.644750	0.226832
H172	H	-0.269301	0.494225	-0.440070
H173	H	0.064033	0.827559	-0.106737
H174	H	0.397366	1.160892	0.226596
H175	H	-0.439817	0.978188	-0.924576
H176	H	-0.106483	1.311521	-0.591243
H177	H	0.226850	1.644855	-0.257909
H178	H	-0.923908	1.149033	-0.269254
H179	H	-0.590575	1.482367	0.064079
H180	H	-0.257241	1.815700	0.397413
C181	C	-0.255851	0.644643	-0.453537
C182	C	0.077483	0.977976	-0.120204
C183	C	0.410816	1.311309	0.213129
N184	N	-0.216893	0.676500	-0.492599
N185	N	0.116441	1.009833	-0.159266
N186	N	0.449774	1.343166	0.174068
H187	H	-0.439862	0.494109	-0.268991
H188	H	-0.106528	0.827442	0.064343
H189	H	0.226805	1.160775	0.397676
H190	H	-0.439842	0.978173	-0.785134
H191	H	-0.106508	1.311507	-0.451801
H192	H	0.226825	1.644840	-0.118468
H193	H	-0.269032	1.149034	-0.924649
H194	H	0.064301	1.482367	-0.591315
H195	H	0.397635	1.815700	-0.257982
C196	C	-0.773498	1.162426	-0.255780
C197	C	-0.440165	1.495759	0.077553
C198	C	-0.106832	1.829093	0.410887
N199	N	-0.741663	1.201433	-0.216807
N200	N	-0.408330	1.534766	0.116526
N201	N	-0.074997	1.868099	0.449860
C202	C	-0.255621	1.162468	-0.774245
C203	C	0.077713	1.495802	-0.440912
C204	C	0.411046	1.829135	-0.107578
N205	N	-0.216627	1.201475	-0.742428
N206	N	0.116706	1.534808	-0.409095
N207	N	0.450039	1.868142	-0.075761
