data_functionalizedCrystal
_audit_creation_method	'MofGen! by Chris Wilmer'
_symmetry_space_group_name_H-M	'P1'
_symmetry_Int_Tables_number	1
_symmetry_cell_setting	triclinic
loop_
_symmetry_equiv_pos_as_xyz
  x,y,z
_cell_length_a	14.044191
_cell_length_b	14.044220
_cell_length_c	10.065875
_cell_angle_alpha	99.592716
_cell_angle_beta	80.446775
_cell_angle_gamma	93.190327
loop_
_atom_site_label
_atom_site_type_symbol
_atom_site_fract_x
_atom_site_fract_y
_atom_site_fract_z
O1	O	1.289948	0.217355	-0.113432
O2	O	1.789948	0.717355	0.386568
O3	O	1.013277	0.209040	-0.113449
O4	O	1.513277	0.709040	0.386551
O5	O	1.147458	0.074863	-0.113428
O6	O	1.647458	0.574863	0.386572
O7	O	1.155767	0.351532	-0.113454
O8	O	1.655767	0.851532	0.386546
O9	O	1.121881	0.100561	0.113557
O10	O	1.621881	0.600561	0.613557
O11	O	0.987700	0.234738	0.113535
O12	O	1.487700	0.734738	0.613535
O13	O	1.264371	0.243053	0.113552
O14	O	1.764371	0.743053	0.613552
Zn15	Zn	1.121975	0.242976	0.149582
Zn16	Zn	1.621975	0.742976	0.649582
Zn17	Zn	1.155673	0.209118	-0.149480
Zn18	Zn	1.655673	0.709118	0.350520
O19	O	1.130190	0.377230	0.113531
O20	O	1.630190	0.877230	0.613531
C21	C	0.964867	0.218252	0.000041
C22	C	1.464867	0.718252	0.500041
C23	C	0.858725	0.207404	0.000035
C24	C	1.358725	0.707404	0.500035
C25	C	0.613265	0.264506	0.000043
C26	C	1.113265	0.764506	0.500043
C27	C	0.664390	0.187590	0.000048
C28	C	1.164390	0.687590	0.500048
C29	C	0.772528	0.198618	0.000041
C30	C	1.272528	0.698618	0.500041
C31	C	0.505118	0.253480	0.000050
C32	C	1.005118	0.753480	0.500050
C33	C	1.131034	0.052090	0.000065
C34	C	1.631034	0.552090	0.500065
C35	C	1.120189	-0.054053	0.000066
C36	C	1.620189	0.445947	0.500066
C37	C	1.100365	-0.248393	0.000045
C38	C	1.600365	0.251607	0.500045
C39	C	1.177280	-0.299521	0.000046
C40	C	1.677280	0.200479	0.500046
C41	C	1.166249	-0.407659	0.000034
C42	C	1.666249	0.092341	0.500034
C43	C	1.111394	-0.140246	0.000057
C44	C	1.611394	0.359754	0.500057
C45	C	1.312781	0.233840	0.000059
C46	C	1.812781	0.733840	0.500059
C47	C	1.418925	0.244687	0.000056
C48	C	1.918925	0.744687	0.500056
C49	C	1.146614	0.400002	0.000035
C50	C	1.646614	0.900002	0.500035
C51	C	1.157460	0.506144	0.000025
C52	C	1.657460	1.006144	0.500025
N53	N	1.098983	0.266083	0.353684
N54	N	1.598983	0.766083	0.853684
N55	N	1.178672	0.186003	-0.353581
N56	N	1.678672	0.686003	0.146419
C57	C	1.147667	0.217151	0.421471
C58	C	1.647667	0.717151	0.921471
C59	C	1.129980	0.234943	0.578635
C60	C	1.629980	0.734943	1.078635
H61	H	0.650708	0.338631	0.000032
H62	H	1.150708	0.838631	0.500032
Cl63	Cl	1.045401	0.319959	0.668658
Cl64	Cl	1.545401	0.819959	1.168658
Cl65	Cl	1.014407	0.351096	0.443712
Cl66	Cl	1.514407	0.851096	0.943712
Cl67	Cl	1.232004	0.131901	0.331444
Cl68	Cl	1.732004	0.631901	0.831444
H69	H	1.233447	0.130931	0.588107
H70	H	1.733447	0.630931	1.088107
H71	H	1.026238	-0.285833	0.000037
H72	H	1.526238	0.214167	0.500037
Cl73	Cl	0.606583	0.073135	0.000058
Cl74	Cl	1.106583	0.573135	0.500058
Cl75	Cl	1.291735	-0.241717	0.000068
Cl76	Cl	1.791735	0.258283	0.500068
