data_functionalizedCrystal
_audit_creation_method	'MofGen! by Chris Wilmer'
_symmetry_space_group_name_H-M	'P1'
_symmetry_Int_Tables_number	1
_symmetry_cell_setting	triclinic
loop_
_symmetry_equiv_pos_as_xyz
  x,y,z
_cell_length_a	12.759401
_cell_length_b	13.897448
_cell_length_c	12.759393
_cell_angle_alpha	89.967728
_cell_angle_beta	89.979062
_cell_angle_gamma	90.019217
loop_
_atom_site_label
_atom_site_type_symbol
_atom_site_fract_x
_atom_site_fract_y
_atom_site_fract_z
Zn1	Zn	1.606245	-0.383929	-0.594007
Zn2	Zn	1.939578	-0.050596	-0.260674
Zn3	Zn	2.272911	0.282738	0.072660
Zn4	Zn	1.606126	-0.545255	-0.418322
Zn5	Zn	1.939460	-0.211922	-0.084988
Zn6	Zn	2.272793	0.121411	0.248345
Zn7	Zn	1.430543	-0.383980	-0.418342
Zn8	Zn	1.763877	-0.050647	-0.085009
Zn9	Zn	2.097210	0.282686	0.248324
Zn10	Zn	1.430526	-0.545188	-0.593959
Zn11	Zn	1.763859	-0.211855	-0.260626
Zn12	Zn	2.097193	0.121479	0.072708
O13	O	1.518360	-0.464588	-0.506158
O14	O	1.851693	-0.131255	-0.172824
O15	O	2.185027	0.202079	0.160509
O16	O	1.753250	-0.405336	-0.570714
O17	O	2.086583	-0.072003	-0.237380
O18	O	2.419917	0.261331	0.095953
O19	O	1.582793	-0.523912	-0.271303
O20	O	1.916126	-0.190578	0.062030
O21	O	2.249459	0.142755	0.395363
O22	O	1.453907	-0.248992	-0.441673
O23	O	1.787240	0.084341	-0.108340
O24	O	2.120574	0.417675	0.224993
O25	O	1.753163	-0.523862	-0.441638
O26	O	2.086496	-0.190528	-0.108305
O27	O	2.419830	0.142805	0.225028
O28	O	1.582994	-0.248954	-0.570734
O29	O	1.916327	0.084379	-0.237400
O30	O	2.249661	0.417713	0.095933
O31	O	1.453793	-0.405423	-0.271318
O32	O	1.787126	-0.072090	0.062015
O33	O	2.120459	0.261243	0.395348
O34	O	1.283520	-0.405358	-0.441627
O35	O	1.616853	-0.072025	-0.108293
O36	O	1.950187	0.261309	0.225040
O37	O	1.453878	-0.523747	-0.740987
O38	O	1.787211	-0.190414	-0.407653
O39	O	2.120544	0.142920	-0.074320
O40	O	1.283507	-0.523797	-0.570652
O41	O	1.616841	-0.190463	-0.237318
O42	O	1.950174	0.142870	0.096015
O43	O	1.582977	-0.405271	-0.741022
O44	O	1.916311	-0.071937	-0.407689
O45	O	2.249644	0.261396	-0.074355
O46	O	1.582776	-0.680228	-0.441592
O47	O	1.916109	-0.346895	-0.108258
O48	O	2.249443	-0.013561	0.225075
O49	O	1.453763	-0.680179	-0.570632
O50	O	1.787096	-0.346845	-0.237298
O51	O	2.120430	-0.013512	0.096035
C52	C	1.245393	-0.464576	-0.506137
C53	C	1.578726	-0.131243	-0.172803
C54	C	1.912059	0.202090	0.160530
C55	C	1.128616	-0.464595	-0.506153
C56	C	1.461949	-0.131261	-0.172819
C57	C	1.795283	0.202072	0.160514
C58	C	1.073775	-0.526359	-0.573230
C59	C	1.407108	-0.193026	-0.239897
C60	C	1.740442	0.140307	0.093436
C61	C	0.964051	-0.526363	-0.573251
C62	C	1.297384	-0.193030	-0.239918
C63	C	1.630718	0.140304	0.093416
C64	C	0.964019	-0.402834	-0.439108
C65	C	1.297352	-0.069501	-0.105775
C66	C	1.630685	0.263832	0.227559
C67	C	1.073741	-0.402827	-0.439093
C68	C	1.407074	-0.069493	-0.105760
C69	C	1.740407	0.263840	0.227574
C70	C	1.518283	-0.715203	-0.506127
C71	C	1.851617	-0.381869	-0.172794
C72	C	2.184950	-0.048536	0.160539
C73	C	1.518347	-0.822416	-0.506149
C74	C	1.851680	-0.489083	-0.172816
C75	C	2.185013	-0.155750	0.160517
C76	C	1.518457	-1.018711	-0.506215
C77	C	1.851790	-0.685378	-0.172882
C78	C	2.185124	-0.352045	0.160451
C79	C	1.518393	-0.909479	-0.506182
C80	C	1.851726	-0.576146	-0.172848
C81	C	2.185059	-0.242812	0.160485
C82	C	1.792393	-0.464601	-0.506179
C83	C	2.125727	-0.131267	-0.172846
C84	C	2.459060	0.202066	0.160488
C85	C	1.909170	-0.464606	-0.506188
C86	C	2.242503	-0.131273	-0.172855
C87	C	2.575837	0.202061	0.160478
C88	C	1.518439	-0.464496	-0.780191
C89	C	1.851772	-0.131162	-0.446858
C90	C	2.185105	0.202171	-0.113524
C91	C	1.518472	-0.464456	-0.896968
C92	C	1.851806	-0.131123	-0.563634
C93	C	2.185139	0.202211	-0.230301
C94	C	1.518466	-0.212995	-0.506211
C95	C	1.851799	0.120338	-0.172878
C96	C	2.185132	0.453672	0.160456
C97	C	1.518511	-0.105781	-0.506234
C98	C	1.851844	0.227552	-0.172901
C99	C	2.185177	0.560885	0.160433
C100	C	1.585699	-0.402756	-0.951850
C101	C	1.919033	-0.069422	-0.618517
C102	C	2.252366	0.263911	-0.285183
C103	C	1.585717	-0.402714	-1.061574
C104	C	1.919050	-0.069381	-0.728241
C105	C	2.252384	0.263953	-0.394907
C106	C	1.451278	-0.526082	-1.061524
C107	C	1.784611	-0.192748	-0.728191
C108	C	2.117944	0.140585	-0.394858
C109	C	1.451255	-0.526118	-0.951802
C110	C	1.784589	-0.192784	-0.618469
C111	C	2.117922	0.140549	-0.285136
C112	C	1.518342	-0.464611	-0.233190
C113	C	1.851676	-0.131277	0.100143
C114	C	2.185009	0.202056	0.433476
C115	C	1.518512	-0.464379	-0.116414
C116	C	1.851846	-0.131045	0.216919
C117	C	2.185179	0.202288	0.550253
H118	H	1.118451	-0.576652	-0.627837
H119	H	1.451785	-0.243319	-0.294504
H120	H	1.785118	0.090014	0.038830
F121	F	0.905607	-0.337102	-0.367741
F122	F	1.238941	-0.003768	-0.034408
F123	F	1.572274	0.329565	0.298926
H124	H	0.919404	-0.576657	-0.627874
H125	H	1.252738	-0.243323	-0.294540
H126	H	1.586071	0.090010	0.038793
F127	F	1.132110	-0.337079	-0.367702
F128	F	1.465443	-0.003746	-0.034368
F129	F	1.798777	0.329587	0.298965
F130	F	1.379694	-0.591787	-0.893389
F131	F	1.713027	-0.258454	-0.560056
F132	F	2.046361	0.074880	-0.226723
H133	H	1.640429	-0.352544	-0.907207
H134	H	1.973762	-0.019211	-0.573874
H135	H	2.307095	0.314123	-0.240540
F136	F	1.657277	-0.337050	-1.119979
F137	F	1.990610	-0.003717	-0.786645
F138	F	2.323943	0.329616	-0.453312
F139	F	1.379749	-0.591706	-1.119892
F140	F	1.713082	-0.258373	-0.786559
F141	F	2.046415	0.074960	-0.453226
