data_functionalizedCrystal
_audit_creation_method	'MofGen! by Chris Wilmer'
_symmetry_space_group_name_H-M	'P1'
_symmetry_Int_Tables_number	1
_symmetry_cell_setting	triclinic
loop_
_symmetry_equiv_pos_as_xyz
  x,y,z
_cell_length_a	21.295418
_cell_length_b	21.295417
_cell_length_c	21.295411
_cell_angle_alpha	90.027671
_cell_angle_beta	90.035622
_cell_angle_gamma	90.045515
loop_
_atom_site_label
_atom_site_type_symbol
_atom_site_fract_x
_atom_site_fract_y
_atom_site_fract_z
Zn1	Zn	0.962309	-0.250371	0.356238
Zn2	Zn	1.295642	0.082962	0.689572
Zn3	Zn	1.628976	0.416295	1.022905
Zn4	Zn	0.962228	-0.355636	0.250965
Zn5	Zn	1.295561	-0.022303	0.584299
Zn6	Zn	1.628894	0.311031	0.917632
Zn7	Zn	0.857047	-0.250414	0.250948
Zn8	Zn	1.190380	0.082920	0.584281
Zn9	Zn	1.523714	0.416253	0.917615
Zn10	Zn	0.857003	-0.355636	0.356162
Zn11	Zn	1.190336	-0.022302	0.689495
Zn12	Zn	1.523670	0.311031	1.022829
O13	O	0.909647	-0.303014	0.303578
O14	O	1.242980	0.030319	0.636912
O15	O	1.576313	0.363652	0.970245
O16	O	1.050388	-0.264317	0.342313
O17	O	1.383721	0.069016	0.675646
O18	O	1.717054	0.402349	1.008979
O19	O	0.948260	-0.341696	0.162874
O20	O	1.281593	-0.008363	0.496207
O21	O	1.614926	0.324971	0.829540
O22	O	0.871063	-0.162319	0.264940
O23	O	1.204396	0.171015	0.598273
O24	O	1.537729	0.504348	0.931606
O25	O	1.050328	-0.341655	0.264969
O26	O	1.383661	-0.008322	0.598303
O27	O	1.716995	0.325012	0.931636
O28	O	0.948398	-0.162287	0.342296
O29	O	1.281731	0.171046	0.675629
O30	O	1.615065	0.504379	1.008962
O31	O	0.870984	-0.264390	0.162861
O32	O	1.204317	0.068944	0.496194
O33	O	1.537651	0.402277	0.829528
O34	O	0.768952	-0.264389	0.264866
O35	O	1.102285	0.068944	0.598199
O36	O	1.435618	0.402277	0.931532
O37	O	0.870988	-0.341654	0.444261
O38	O	1.204321	-0.008321	0.777595
O39	O	1.537654	0.325013	1.110928
O40	O	0.768919	-0.341695	0.342166
O41	O	1.102253	-0.008362	0.675499
O42	O	1.435586	0.324971	1.008833
O43	O	0.948355	-0.264317	0.444317
O44	O	1.281689	0.069017	0.777651
O45	O	1.615022	0.402350	1.110984
O46	O	0.948217	-0.443725	0.264895
O47	O	1.281550	-0.110392	0.598229
O48	O	1.614884	0.222941	0.931562
O49	O	0.870909	-0.443725	0.342183
O50	O	1.204242	-0.110392	0.675516
O51	O	1.537575	0.222942	1.008850
C52	C	0.746095	-0.303047	0.303506
C53	C	1.079428	0.030286	0.636839
C54	C	1.412762	0.363619	0.970173
C55	C	0.676127	-0.303077	0.303490
C56	C	1.009460	0.030257	0.636823
C57	C	1.342793	0.363590	0.970157
C58	C	0.643260	-0.343383	0.343680
C59	C	0.976593	-0.010050	0.677013
C60	C	1.309926	0.323283	1.010347
C61	C	0.577517	-0.343368	0.343708
C62	C	0.910851	-0.010034	0.677042
C63	C	1.244184	0.323299	1.010375
C64	C	0.544644	-0.303052	0.303535
C65	C	0.877978	0.030281	0.636868
C66	C	1.211311	0.363614	0.970202
C67	C	0.577519	-0.262738	0.263342
C68	C	0.910853	0.070595	0.596676
C69	C	1.244186	0.403929	0.930009
C70	C	0.643261	-0.262750	0.263320
C71	C	0.976594	0.070583	0.596653
C72	C	1.309927	0.403917	0.929986
N73	N	0.441376	-0.298132	0.248477
N74	N	0.774709	0.035201	0.581811
N75	N	1.108043	0.368535	0.915144
N76	N	0.378925	-0.298124	0.248501
N77	N	0.712258	0.035209	0.581834
N78	N	1.045591	0.368543	0.915167
C79	C	0.346570	-0.303012	0.303602
C80	C	0.679903	0.030321	0.636935
C81	C	1.013236	0.363655	0.970269
N82	N	0.379025	-0.307921	0.358680
N83	N	0.712359	0.025413	0.692013
N84	N	1.045692	0.358746	1.025347
N85	N	0.441483	-0.307932	0.358656
N86	N	0.774816	0.025402	0.691989
N87	N	1.108149	0.358735	1.025323
C88	C	0.473359	-0.303034	0.303556
C89	C	0.806692	0.030299	0.636889
C90	C	1.140026	0.363632	0.970222
C91	C	0.242417	-0.343304	0.343826
C92	C	0.575750	-0.009971	0.677159
C93	C	0.909084	0.323363	1.010493
C94	C	0.176673	-0.343284	0.343855
C95	C	0.510007	-0.009951	0.677189
C96	C	0.843340	0.323383	1.010522
C97	C	0.176677	-0.262658	0.263484
C98	C	0.510010	0.070676	0.596817
C99	C	0.843343	0.404009	0.930150
C100	C	0.242419	-0.262674	0.263460
C101	C	0.575752	0.070659	0.596793
C102	C	0.909086	0.403993	0.930127
C103	C	0.275285	-0.303001	0.303630
C104	C	0.608619	0.030333	0.636964
C105	C	0.941952	0.363666	0.970297
C106	C	0.909566	-0.466566	0.303547
C107	C	1.242900	-0.133233	0.636880
C108	C	1.576233	0.200101	0.970213
C109	C	0.909590	-0.536534	0.303554
C110	C	1.242923	-0.203201	0.636887
C111	C	1.576256	0.130133	0.970221
C112	C	0.949835	-0.569327	0.343862
C113	C	1.283169	-0.235994	0.677195
C114	C	1.616502	0.097340	1.010529
C115	C	0.949857	-0.635070	0.343878
C116	C	1.283191	-0.301736	0.677211
C117	C	1.616524	0.031597	1.010544
C118	C	0.909641	-0.668016	0.303574
C119	C	1.242974	-0.334683	0.636907
C120	C	1.576307	-0.001350	0.970240
C121	C	0.869387	-0.635215	0.263263
C122	C	1.202721	-0.301882	0.596596
C123	C	1.536054	0.031451	0.929929
C124	C	0.869362	-0.569474	0.263253
C125	C	1.202695	-0.236141	0.596586
C126	C	1.536028	0.097193	0.929920
N127	N	0.904889	-0.771277	0.248481
N128	N	1.238222	-0.437944	0.581814
N129	N	1.571556	-0.104610	0.915148
N130	N	0.904917	-0.833728	0.248492
N131	N	1.238250	-0.500395	0.581826
N132	N	1.571584	-0.167062	0.915159
C133	C	0.909714	-0.866091	0.303602
C134	C	1.243048	-0.532758	0.636936
C135	C	1.576381	-0.199424	0.970269
N136	N	0.914495	-0.833643	0.358702
N137	N	1.247828	-0.500310	0.692035
N138	N	1.581161	-0.166977	1.025368
N139	N	0.914470	-0.771186	0.358690
N140	N	1.247803	-0.437853	0.692023
N141	N	1.581137	-0.104519	1.025356
C142	C	0.909664	-0.739302	0.303580
C143	C	1.242997	-0.405968	0.636914
C144	C	1.576330	-0.072635	0.970247
C145	C	0.949986	-0.970170	0.343931
C146	C	1.283319	-0.636836	0.677264
C147	C	1.616653	-0.303503	1.010597
C148	C	0.950004	-1.035914	0.343947
C149	C	1.283337	-0.702580	0.677281
C150	C	1.616670	-0.369247	1.010614
C151	C	0.869537	-1.036058	0.263327
C152	C	1.202870	-0.702725	0.596660
C153	C	1.536204	-0.369391	0.929993
C154	C	0.869516	-0.970315	0.263316
C155	C	1.202849	-0.636982	0.596649
C156	C	1.536183	-0.303649	0.929982
C157	C	0.909744	-0.937375	0.303617
C158	C	1.243077	-0.604042	0.636950
C159	C	1.576410	-0.270709	0.970284
C160	C	1.073837	-0.302981	0.303652
C161	C	1.407170	0.030352	0.636985
C162	C	1.740504	0.363685	0.970318
C163	C	1.143805	-0.302967	0.303683
C164	C	1.477138	0.030366	0.637016
C165	C	1.810472	0.363699	0.970349
C166	C	0.909676	-0.302981	0.467769
C167	C	1.243009	0.030353	0.801102
C168	C	1.576342	0.363686	1.134435
C169	C	0.909688	-0.302966	0.537737
C170	C	1.243021	0.030367	0.871070
C171	C	1.576355	0.363700	1.204404
C172	C	0.909744	-0.138824	0.303624
C173	C	1.243078	0.194509	0.636958
C174	C	1.576411	0.527843	0.970291
C175	C	0.909786	-0.068856	0.303644
C176	C	1.243119	0.264478	0.636977
C177	C	1.576453	0.597811	0.970310
C178	C	0.909654	-0.303002	0.140027
C179	C	1.242987	0.030331	0.473360
C180	C	1.576321	0.363664	0.806694
C181	C	0.909764	-0.302839	0.070059
C182	C	1.243097	0.030494	0.403392
C183	C	1.576430	0.363828	0.736726
C184	C	0.949996	-0.343089	1.037202
C185	C	1.283329	-0.009756	1.370536
C186	C	1.616662	0.323577	1.703869
C187	C	0.949984	-0.343109	0.971460
C188	C	1.283318	-0.009776	1.304793
C189	C	1.616651	0.323557	1.638126
C190	C	0.909747	-0.302868	0.938577
C191	C	1.243081	0.030465	1.271910
C192	C	1.576414	0.363798	1.605243
C193	C	0.869508	-0.262615	0.971441
C194	C	1.202841	0.070718	1.304775
C195	C	1.536174	0.404051	1.638108
C196	C	0.869516	-0.262601	1.037183
C197	C	1.202849	0.070733	1.370516
C198	C	1.536182	0.404066	1.703849
N199	N	0.904938	-0.247790	0.835369
N200	N	1.238272	0.085543	1.168702
N201	N	1.571605	0.418877	1.502035
N202	N	0.904934	-0.247806	0.772917
N203	N	1.238268	0.085528	1.106250
N204	N	1.571601	0.418861	1.439584
C205	C	0.909720	-0.302911	0.740502
C206	C	1.243053	0.030423	1.073835
C207	C	1.576386	0.363756	1.407168
N208	N	0.914522	-0.358001	0.772897
N209	N	1.247855	-0.024667	1.106230
N210	N	1.581188	0.308666	1.439564
N211	N	0.914529	-0.357984	0.835354
N212	N	1.247862	-0.024651	1.168688
N213	N	1.581196	0.308682	1.502021
C214	C	0.909734	-0.302880	0.867291
C215	C	1.243067	0.030454	1.200624
C216	C	1.576401	0.363787	1.533958
C217	C	0.949942	-0.343186	0.636359
C218	C	1.283275	-0.009853	0.969693
C219	C	1.616608	0.323481	1.303026
C220	C	0.949926	-0.343207	0.570616
C221	C	1.283259	-0.009874	0.903949
C222	C	1.616593	0.323460	1.237282
C223	C	0.869452	-0.262707	0.570598
C224	C	1.202786	0.070626	0.903932
C225	C	1.536119	0.403959	1.237265
C226	C	0.869465	-0.262692	0.636341
C227	C	1.202798	0.070641	0.969674
C228	C	1.536132	0.403975	1.303007
C229	C	0.909713	-0.302930	0.669217
C230	C	1.243046	0.030403	1.002551
C231	C	1.576380	0.363736	1.335884
H232	H	0.550750	-0.229912	0.230634
H233	H	0.884083	0.103422	0.563968
H234	H	1.217417	0.436755	0.897301
Br235	Br	1.004483	-0.679585	0.398582
Br236	Br	1.337817	-0.346251	0.731916
Br237	Br	1.671150	-0.012918	1.065249
H238	H	0.982776	-1.062613	0.376774
H239	H	1.316110	-0.729279	0.710107
H240	H	1.649443	-0.395946	1.043441
H241	H	0.836788	-1.062882	0.230515
H242	H	1.170121	-0.729549	0.563848
H243	H	1.503454	-0.396216	0.897181
H244	H	0.836641	-0.662045	0.230448
H245	H	1.169975	-0.328711	0.563782
H246	H	1.503308	0.004622	0.897115
Br247	Br	0.814892	-0.925807	0.208610
Br248	Br	1.148226	-0.592474	0.541944
Br249	Br	1.481559	-0.259140	0.875277
H250	H	0.149912	-0.229829	0.230777
H251	H	0.483246	0.103504	0.564110
H252	H	0.816579	0.436838	0.897444
Br253	Br	1.004611	-0.397704	1.081818
Br254	Br	1.337945	-0.064371	1.415151
Br255	Br	1.671278	0.268962	1.748484
H256	H	0.836746	-0.229852	0.944664
H257	H	1.170079	0.103482	1.277997
H258	H	1.503412	0.436815	1.611330
Br259	Br	0.814737	-0.524966	0.208546
Br260	Br	1.148070	-0.191632	0.541880
Br261	Br	1.481403	0.141701	0.875213
Br262	Br	0.287025	-0.398029	0.398344
Br263	Br	0.620359	-0.064695	0.731677
Br264	Br	0.953692	0.268638	1.065010
H265	H	0.836753	-0.229823	1.063934
H266	H	1.170086	0.103510	1.397268
H267	H	1.503420	0.436844	1.730601
H268	H	0.550752	-0.376190	0.376438
H269	H	0.884085	-0.042857	0.709771
H270	H	1.217418	0.290477	1.043105
Br271	Br	1.004578	-0.925462	0.398625
Br272	Br	1.337911	-0.592128	0.731958
Br273	Br	1.671244	-0.258795	1.065291
H274	H	0.982755	-0.375879	0.944703
H275	H	1.316089	-0.042545	1.278036
H276	H	1.649422	0.290788	1.611369
Br277	Br	0.687861	-0.398110	0.398198
Br278	Br	1.021195	-0.064777	0.731531
Br279	Br	1.354528	0.268557	1.064865
H280	H	0.149914	-0.376105	0.376587
H281	H	0.483248	-0.042772	0.709920
H282	H	0.816581	0.290561	1.043254
H283	H	0.982713	-0.375952	0.663129
H284	H	1.316046	-0.042619	0.996462
H285	H	1.649379	0.290715	1.329796
Br286	Br	1.004426	-0.524625	0.398559
Br287	Br	1.337760	-0.191292	0.731893
Br288	Br	1.671093	0.142041	1.065226
H289	H	0.836689	-0.229944	0.543825
H290	H	1.170023	0.103389	0.877159
H291	H	1.503356	0.436723	1.210492
Br292	Br	1.004527	-0.397842	0.526023
Br293	Br	1.337860	-0.064509	0.859356
Br294	Br	1.671194	0.268825	1.192689
Br295	Br	0.687869	-0.208043	0.208773
Br296	Br	1.021202	0.125291	0.542106
Br297	Br	1.354536	0.458624	0.875440
Br298	Br	0.287028	-0.207969	0.208913
Br299	Br	0.620361	0.125364	0.542246
Br300	Br	0.953694	0.458697	0.875580
H301	H	0.836706	-0.229913	0.663093
H302	H	1.170039	0.103420	0.996426
H303	H	1.503373	0.436753	1.329760
