data_functionalizedCrystal
_audit_creation_method	'MofGen! by Chris Wilmer'
_symmetry_space_group_name_H-M	'P1'
_symmetry_Int_Tables_number	1
_symmetry_cell_setting	triclinic
loop_
_symmetry_equiv_pos_as_xyz
  x,y,z
_cell_length_a	10.654543
_cell_length_b	9.730223
_cell_length_c	10.654550
_cell_angle_alpha	89.998791
_cell_angle_beta	84.483552
_cell_angle_gamma	90.004437
loop_
_atom_site_label
_atom_site_type_symbol
_atom_site_fract_x
_atom_site_fract_y
_atom_site_fract_z
O1	O	-1.667839	0.114142	-0.176353
O2	O	-1.302359	0.114177	-0.193168
O3	O	-1.493502	0.114150	-0.002021
O4	O	-1.476696	0.114169	-0.367500
O5	O	-1.493500	-0.114430	-0.002026
O6	O	-1.302357	-0.114403	-0.193173
O7	O	-1.667837	-0.114438	-0.176358
Zn8	Zn	-1.485097	-0.150713	-0.184766
Zn9	Zn	-1.485099	0.150451	-0.184760
O10	O	-1.476694	-0.114411	-0.367505
C11	C	-1.255560	-0.000109	-0.191938
C12	C	-1.116116	-0.000095	-0.188249
N13	N	-1.485104	-0.356249	-0.184770
C14	C	-1.036631	-0.000092	-0.300793
C15	C	-0.905609	-0.000112	-0.297319
C16	C	-0.933573	-0.000135	-0.068749
C17	C	-1.064591	-0.000124	-0.072224
C18	C	-1.569764	-0.428187	-0.100159
C19	C	-1.569760	-0.572070	-0.100144
C20	C	-1.400433	-0.572064	-0.269361
C21	C	-1.400431	-0.428184	-0.269370
C22	C	-1.667527	-0.428192	-0.002466
C23	C	-1.667524	-0.572075	-0.002451
C24	C	-0.714635	-0.000143	-0.177595
C25	C	-0.854077	-0.000127	-0.181301
C26	C	-1.492267	-0.000139	0.044774
C27	C	-1.488575	-0.000137	0.184217
N28	N	-1.485102	0.355988	-0.184746
C29	C	-1.477929	-0.000119	-0.414301
C30	C	-1.481621	-0.000113	-0.553744
C31	C	-1.601117	-0.000147	0.263706
C32	C	-1.597641	-0.000130	0.394726
C33	C	-1.369070	-0.000098	0.366758
C34	C	-1.372548	-0.000105	0.235740
H35	H	-1.078578	-0.000079	-0.395268
F36	F	-1.717423	-0.000138	0.479319
F37	F	-0.878724	-0.000159	0.054727
F38	F	-0.821019	-0.000110	-0.417104
F39	F	-1.245593	-0.000064	0.421603
H40	H	-1.129313	-0.000131	0.019428
H41	H	-1.331484	-0.369613	-0.338255
H42	H	-1.637011	-0.616691	0.088771
H43	H	-1.331494	-0.630649	-0.338239
F44	F	-1.639500	-0.377141	0.123705
H45	H	-1.758711	-0.383572	-0.033052
H46	H	-1.764036	-0.611133	-0.023967
H47	H	-1.695593	-0.000170	0.221761
H48	H	-1.280897	-0.000093	0.171016
