data_functionalizedCrystal
_audit_creation_method	'MofGen! by Chris Wilmer'
_symmetry_space_group_name_H-M	'P1'
_symmetry_Int_Tables_number	1
_symmetry_cell_setting	triclinic
loop_
_symmetry_equiv_pos_as_xyz
  x,y,z
_cell_length_a	14.908571
_cell_length_b	16.959453
_cell_length_c	14.908308
_cell_angle_alpha	93.265363
_cell_angle_beta	90.175053
_cell_angle_gamma	86.716085
loop_
_atom_site_label
_atom_site_type_symbol
_atom_site_fract_x
_atom_site_fract_y
_atom_site_fract_z
Zn1	Zn	1.345300	-0.412495	-0.587567
Zn2	Zn	1.353882	-0.537519	-0.437203
Zn3	Zn	1.203615	-0.397313	-0.428566
Zn4	Zn	1.194909	-0.536580	-0.578855
O5	O	1.274426	-0.470976	-0.508048
O6	O	1.472264	-0.435826	-0.574882
O7	O	1.341183	-0.512959	-0.310233
O8	O	1.222462	-0.288720	-0.449689
O9	O	1.478569	-0.527681	-0.464410
O10	O	1.326557	-0.299874	-0.566507
O11	O	1.230783	-0.409951	-0.303887
O12	O	1.076634	-0.409040	-0.441241
O13	O	1.207624	-0.526080	-0.705835
O14	O	1.070238	-0.511359	-0.551658
O15	O	1.318115	-0.434916	-0.712236
O16	O	1.332742	-0.648001	-0.455962
O17	O	1.215945	-0.647311	-0.560033
C18	C	1.040811	-0.458451	-0.494567
C19	C	0.940868	-0.453112	-0.488821
C20	C	0.746461	-0.549774	-0.592847
C21	C	0.652556	-0.544761	-0.587451
C22	C	0.659149	-0.438068	-0.472640
C23	C	0.753055	-0.443082	-0.478035
C24	C	0.796707	-0.498938	-0.538140
C25	C	0.890615	-0.503954	-0.543530
C26	C	0.897206	-0.397258	-0.428724
C27	C	0.803301	-0.392245	-0.423328
C28	C	1.274353	-0.676337	-0.508010
C29	C	1.274403	-0.764197	-0.508029
C30	C	1.328696	-1.141433	-0.568987
C31	C	1.220400	-1.129936	-0.447256
C32	C	1.220368	-1.047387	-0.447233
C33	C	1.274500	-1.011858	-0.508090
C34	C	1.328664	-1.058877	-0.568969
C35	C	1.166198	-1.000362	-0.386362
C36	C	1.166163	-0.917808	-0.386337
C37	C	1.220300	-0.882277	-0.447190
C38	C	1.274467	-0.929302	-0.508071
C39	C	1.328599	-0.893773	-0.568927
C40	C	1.382771	-0.940796	-0.629804
C41	C	1.382801	-1.023347	-0.629821
C42	C	1.220271	-0.799727	-0.447173
C43	C	1.328567	-0.811216	-0.568908
C44	C	1.508954	-0.483552	-0.521582
C45	C	1.608896	-0.488911	-0.527349
C46	C	1.260941	-0.482087	-0.742573
C47	C	1.255195	-0.486821	-0.842513
C48	C	1.274523	-0.264816	-0.508106
C49	C	1.274564	-0.176963	-0.508131
C50	C	1.359449	-0.400770	-1.036979
C51	C	1.354052	-0.405216	-1.130882
C52	C	1.239001	-0.500154	-1.124224
C53	C	1.244398	-0.495708	-1.030321
C54	C	1.304625	-0.446015	-0.986702
C55	C	1.310025	-0.441574	-0.892797
C56	C	1.194970	-0.536508	-0.886141
C57	C	1.189574	-0.540954	-0.980044
C58	C	1.287911	-0.459855	-0.274438
C59	C	1.293831	-0.454907	-0.174508
H60	H	0.623590	-0.392589	-0.423711
H61	H	1.426842	-0.911858	-0.679358
H62	H	0.767745	-0.346767	-0.374395
C63	C	1.076396	-0.634352	-0.964030
C64	C	1.123376	-0.595576	-1.027994
H65	H	1.035525	-0.668071	-0.993633
H66	H	1.117667	-0.664947	-0.929661
H67	H	1.044121	-0.596331	-0.925426
H68	H	1.155656	-0.633597	-1.066595
H69	H	1.082099	-0.564979	-1.062379
C70	C	1.152154	-0.571853	-0.739239
C71	C	1.134701	-0.586246	-0.830873
H72	H	1.114945	-0.602557	-0.705122
H73	H	1.213441	-0.585929	-0.727339
H74	H	1.139898	-0.517311	-0.723110
H75	H	1.146964	-0.640787	-0.847004
H76	H	1.073400	-0.572175	-0.842779
H77	H	0.926156	-0.549436	-0.592469
C78	C	1.418815	-0.351812	-0.895986
C79	C	1.425654	-0.346157	-0.989025
H80	H	1.459694	-0.318101	-0.866385
H81	H	1.359299	-0.336272	-0.877121
H82	H	1.432830	-0.404901	-0.881355
H83	H	1.411633	-0.293070	-1.003657
H84	H	1.485184	-0.361693	-1.007898
H85	H	1.176325	-1.158869	-0.397713
H86	H	0.782004	-0.595258	-0.641781
C87	C	0.614929	-0.589130	-0.737969
C88	C	0.597324	-0.600643	-0.647586
H89	H	0.580834	-0.623634	-0.775095
H90	H	0.598786	-0.535852	-0.750340
H91	H	0.677106	-0.600111	-0.749772
H92	H	0.535148	-0.589656	-0.635781
H93	H	0.613461	-0.653933	-0.635211
H94	H	0.938127	-0.355865	-0.384175
H95	H	1.372651	-0.782294	-0.618462
H96	H	1.426904	-1.061640	-0.679385
H97	H	1.372805	-1.179723	-0.618550
C98	C	1.118188	-1.121804	-0.332330
C99	C	1.106708	-1.039416	-0.319464
H100	H	1.081466	-1.145915	-0.291021
H101	H	1.101505	-1.137472	-0.391963
H102	H	1.179378	-1.137898	-0.322714
H103	H	1.045519	-1.023321	-0.329086
H104	H	1.123385	-1.023741	-0.259817
C105	C	1.468321	-0.310932	-1.128027
C106	C	1.414320	-0.355484	-1.186148
H107	H	1.505532	-0.280233	-1.162148
H108	H	1.431261	-0.276867	-1.089153
H109	H	1.504802	-0.345487	-1.093374
H110	H	1.377834	-0.320929	-1.220797
H111	H	1.451384	-0.389553	-1.225038
C112	C	1.179628	-0.549097	-1.265219
C113	C	1.172791	-0.554760	-1.172181
H114	H	1.138751	-0.582809	-1.294823
H115	H	1.165617	-0.496014	-1.279844
H116	H	1.239152	-0.564640	-1.284088
H117	H	1.113268	-0.539211	-1.153311
H118	H	1.186795	-0.607854	-1.157549
H119	H	1.122054	-0.879527	-0.336767
C120	C	1.113215	-0.796658	-0.326862
C121	C	1.160727	-0.748040	-0.380268
H122	H	1.076457	-0.764747	-0.285553
H123	H	1.076558	-0.828873	-0.364035
H124	H	1.154412	-0.829317	-0.294766
H125	H	1.119529	-0.715384	-0.412368
H126	H	1.197387	-0.715811	-0.343089
H127	H	1.359066	-0.401113	-0.857284
