data_functionalizedCrystal
_audit_creation_method	'MofGen! by Chris Wilmer'
_symmetry_space_group_name_H-M	'P1'
_symmetry_Int_Tables_number	1
_symmetry_cell_setting	triclinic
loop_
_symmetry_equiv_pos_as_xyz
  x,y,z
_cell_length_a	27.440280
_cell_length_b	27.440280
_cell_length_c	12.477989
_cell_angle_alpha	55.718346
_cell_angle_beta	90.003262
_cell_angle_gamma	60.007024
loop_
_atom_site_label
_atom_site_type_symbol
_atom_site_fract_x
_atom_site_fract_y
_atom_site_fract_z
Zr1	Zr	0.465093	0.542331	-0.151129
O2	O	0.381829	0.654931	-0.335093
O3	O	0.490609	0.437313	-0.094720
O4	O	0.483490	0.553250	-0.335042
O5	O	0.394574	0.527737	0.094782
O6	O	0.563693	0.553239	-0.335018
O7	O	0.388947	0.538994	-0.094771
O8	O	0.576427	0.345849	0.094874
O9	O	0.381840	0.735127	-0.335109
O10	O	0.561357	0.477693	-0.070662
O11	O	0.505701	0.469300	0.070782
O12	O	0.497320	0.605801	-0.212166
O13	O	0.441664	0.597409	-0.070722
Zr14	Zr	0.601982	0.524362	0.151224
Zr15	Zr	0.593009	0.542314	-0.151091
Zr16	Zr	0.474067	0.524379	0.151186
Zr17	Zr	0.465111	0.670236	-0.151156
Zr18	Zr	0.601964	0.396457	0.151251
O19	O	0.576467	0.629380	0.094815
O20	O	0.563708	0.654906	-0.335039
O21	O	0.394588	0.629404	0.094761
O22	O	0.685247	0.411762	0.335188
O23	O	0.672488	0.437288	-0.094666
O24	O	0.503368	0.411787	0.335134
O25	O	0.672502	0.538955	-0.094687
O26	O	0.583586	0.513443	0.335136
O27	O	0.503382	0.513454	0.335113
O28	O	0.678128	0.527699	0.094866
O29	O	0.483515	0.735114	-0.335079
O30	O	0.583560	0.331579	0.335174
O31	O	0.685236	0.331565	0.335204
O32	O	0.678103	0.345835	0.094904
O33	O	0.388973	0.720857	-0.094809
O34	O	0.490648	0.720844	-0.094779
O35	O	0.569755	0.460892	0.212261
O36	O	0.625411	0.469284	0.070817
O37	O	0.561374	0.597393	-0.070687
O38	O	0.505718	0.589000	0.070757
C39	C	0.533515	0.373357	0.000081
C40	C	0.533508	0.319059	0.000092
C41	C	0.580822	0.033970	0.104502
C42	C	0.580817	0.084991	0.104508
O43	O	0.621032	0.068537	0.193309
N44	N	0.533532	0.160890	0.000064
C45	C	0.486254	0.185768	-0.104401
O46	O	0.446034	0.255010	-0.193239
C47	C	0.486262	0.134747	-0.104411
C48	C	0.533546	0.058847	0.000048
C49	C	0.628103	-0.041926	0.208952
C50	C	0.628107	-0.092944	0.208947
C51	C	0.580831	-0.068066	0.104493
C52	C	0.533550	0.007829	0.000044
C53	C	0.438986	0.159625	-0.208880
C54	C	0.438998	0.108597	-0.208882
C55	C	0.486282	0.032697	-0.104423
C56	C	0.486279	-0.018311	-0.104415
N57	N	0.533563	-0.094210	0.000029
C58	C	0.580839	-0.119087	0.104483
C59	C	0.486241	0.292911	-0.104373
C60	C	0.486230	0.343932	-0.104359
C61	C	0.580794	0.243152	0.104549
C62	C	0.580802	0.192131	0.104539
C63	C	0.533525	0.217013	0.000071
C64	C	0.580845	-0.226225	0.104467
C65	C	0.580844	-0.277243	0.104457
C66	C	0.486282	-0.176459	-0.104454
C67	C	0.486281	-0.125445	-0.104440
C68	C	0.533568	-0.150334	0.000027
O69	O	0.446085	-0.001911	-0.193174
O70	O	0.621056	-0.188328	0.193296
C71	C	0.373535	0.533368	-0.000000
C72	C	0.319232	0.533375	-0.000016
C73	C	0.015964	0.466461	0.073950
C74	C	-0.035054	0.466457	0.073962
O75	O	-0.033013	0.409583	0.136824
N76	N	-0.093998	0.533328	0.000097
C77	C	-0.101922	0.600206	-0.073773
O78	O	-0.156743	0.657085	-0.136599
C79	C	-0.050904	0.600210	-0.073777
C80	C	0.008038	0.533335	0.000081
C81	C	0.074904	0.399593	0.147803
C82	C	0.125918	0.399597	0.147788
C83	C	0.117993	0.466471	0.073920
C84	C	0.059053	0.533340	0.000067
C85	C	-0.058829	0.667087	-0.147638
C86	C	-0.007805	0.667085	-0.147634
C87	C	0.051137	0.600210	-0.073776
C88	C	0.102141	0.600219	-0.073817
N89	N	0.161085	0.533349	0.000048
C90	C	0.169010	0.466475	0.073917
C91	C	-0.209060	0.600194	-0.073758
C92	C	-0.260078	0.600192	-0.073764
C93	C	-0.193206	0.466442	0.073974
C94	C	-0.142188	0.466446	0.073971
C95	C	-0.150117	0.533324	0.000107
C96	C	0.276142	0.466490	0.073879
C97	C	0.327158	0.466501	0.073852
C98	C	0.260282	0.600250	-0.073879
C99	C	0.209270	0.600240	-0.073860
C100	C	0.217204	0.533354	0.000030
O101	O	0.100147	0.657064	-0.136641
O102	O	0.223833	0.409605	0.136747
C103	C	0.693540	0.533325	0.000095
C104	C	0.747844	0.533318	0.000111
C105	C	0.522313	0.555802	-0.378103
C106	C	0.518504	0.563424	-0.506444
C107	C	0.533560	0.693335	0.000014
C108	C	0.533568	0.747634	0.000003
C109	C	0.544762	0.510891	0.378198
C110	C	0.548572	0.503269	0.506539
C111	C	0.693518	0.373336	0.000128
C112	C	0.747814	0.319030	0.000155
C113	C	0.544740	0.350901	0.378231
C114	C	0.548542	0.288981	0.506583
C115	C	0.704743	0.350880	0.378279
C116	C	0.762848	0.288952	0.506647
C117	C	0.362333	0.715813	-0.378184
C118	C	0.304228	0.777740	-0.506552
C119	C	0.373558	0.693357	-0.000033
C120	C	0.319262	0.747663	-0.000061
C121	C	0.522335	0.715791	-0.378136
C122	C	0.518533	0.777712	-0.506489
C123	C	0.739876	0.297917	-0.073695
C124	C	0.790887	0.246899	-0.073698
C125	C	0.849835	0.216991	0.000159
C126	C	0.857772	0.238109	0.074012
C127	C	0.806762	0.289130	0.074005
C128	C	0.583763	0.255513	0.640722
C129	C	0.587334	0.197339	0.761334
C130	C	0.555686	0.172631	0.747804
C131	C	0.520460	0.206105	0.613651
C132	C	0.516887	0.264281	0.493042
C133	C	0.819192	0.264251	0.493098
C134	C	0.873793	0.206072	0.613702
C135	C	0.872048	0.172591	0.747853
C136	C	0.815698	0.197297	0.761400
C137	C	0.761099	0.255479	0.640797
C138	C	0.247883	0.802448	-0.493003
C139	C	0.193283	0.860643	-0.613607
C140	C	0.195027	0.894127	-0.747759
C141	C	0.251378	0.869417	-0.761305
C142	C	0.305977	0.811226	-0.640702
C143	C	0.327199	0.768782	0.073777
C144	C	0.276187	0.819816	0.073747
C145	C	0.217239	0.849726	-0.000115
C146	C	0.209302	0.828605	-0.073962
C147	C	0.260313	0.777576	-0.073938
C148	C	0.550189	0.802401	-0.492913
C149	C	0.546628	0.860574	-0.613502
C150	C	0.511409	0.894060	-0.747665
C151	C	0.479753	0.869366	-0.761237
C152	C	0.483317	0.811190	-0.640650
H153	H	0.619349	-0.339046	0.189526
Br154	Br	0.440346	0.777696	-0.659099
H155	H	0.619305	0.130332	0.189598
Br156	Br	0.506578	0.973014	-0.911307
Br157	Br	0.286973	0.848466	0.173979
H158	H	0.150565	0.941509	-0.845950
H159	H	0.814287	0.170028	0.870642
H160	H	0.820624	0.291504	0.383875
Br161	Br	0.470727	0.658988	-0.688627
Br162	Br	0.589592	0.894078	-0.595049
H163	H	0.447765	-0.063644	-0.189465
Br164	Br	0.659880	0.338498	-0.173947
Br165	Br	0.253735	0.914866	-0.943380
H166	H	-0.014267	0.721545	-0.207766
Br167	Br	0.596335	0.407709	-0.311287
Br168	Br	0.116817	0.894163	-0.595189
Br169	Br	0.645021	-0.260011	0.246244
H170	H	0.558601	0.125259	0.846023
Br171	Br	0.382441	0.777699	-0.659116
Br172	Br	0.919058	0.147749	0.000154
H173	H	0.494694	0.185979	0.602656
H174	H	0.619289	0.222903	0.189601
H175	H	0.905775	0.213751	0.134143
Br176	Br	0.407195	0.728203	0.174025
H177	H	0.488208	0.291525	0.383825
H178	H	0.282611	0.412025	0.134048
H179	H	0.609536	0.275623	0.651766
H180	H	0.784412	0.229712	-0.133837
Br181	Br	0.817546	0.317772	0.174250
Br182	Br	0.148015	0.918979	-0.000132
Br183	Br	-0.138813	0.757851	-0.247869
H184	H	0.173908	0.345142	0.207925
Br185	Br	0.374808	0.262623	-0.350651
H186	H	0.616020	0.170091	0.870555
Br187	Br	0.407151	0.375738	0.174089
H188	H	0.919670	0.185963	0.602647
H189	H	0.916511	0.125216	0.846044
Br190	Br	0.431952	0.914825	-0.943327
H191	H	0.715223	0.275583	0.651849
Br192	Br	0.692272	-0.075707	0.350730
H193	H	0.447720	0.405729	-0.189404
Br194	Br	0.129295	0.869202	-0.174191
H195	H	0.447737	0.313182	-0.189443
H196	H	0.246451	0.775188	-0.383781
H197	H	0.400500	0.128866	-0.293958
H198	H	0.253842	0.760383	-0.134062
H199	H	0.578868	0.775145	-0.383682
Br200	Br	0.422122	-0.142710	-0.246200
H201	H	0.081368	0.345132	0.207963
Br202	Br	0.692283	-0.195946	0.350719
H203	H	-0.094197	0.411990	0.134125
H204	H	-0.186761	0.411990	0.134117
Br205	Br	-0.219831	0.690967	-0.174023
Br206	Br	-0.340068	0.690955	-0.174030
H207	H	0.253838	0.654698	-0.134026
Br208	Br	0.129274	0.691001	-0.174130
