data_functionalizedCrystal
_audit_creation_method	'MofGen! by Chris Wilmer'
_symmetry_space_group_name_H-M	'P1'
_symmetry_Int_Tables_number	1
_symmetry_cell_setting	triclinic
loop_
_symmetry_equiv_pos_as_xyz
  x,y,z
_cell_length_a	17.077404
_cell_length_b	10.686285
_cell_length_c	17.077395
_cell_angle_alpha	85.609671
_cell_angle_beta	89.984359
_cell_angle_gamma	85.631810
loop_
_atom_site_label
_atom_site_type_symbol
_atom_site_fract_x
_atom_site_fract_y
_atom_site_fract_z
Zn1	Zn	1.224087	-0.502354	-0.419934
Zn2	Zn	1.724087	-0.002354	0.080066
Zn3	Zn	1.234110	-0.713369	-0.278625
Zn4	Zn	1.734110	-0.213369	0.221375
Zn5	Zn	1.092829	-0.502393	-0.288680
Zn6	Zn	1.592829	-0.002393	0.211320
Zn7	Zn	1.102891	-0.713299	-0.409852
Zn8	Zn	1.602891	-0.213299	0.090148
O9	O	1.163479	-0.607854	-0.349273
O10	O	1.663479	-0.107854	0.150727
O11	O	1.335264	-0.530358	-0.401200
O12	O	1.835264	-0.030358	0.098800
O13	O	1.215353	-0.685428	-0.170110
O14	O	1.715353	-0.185428	0.329890
O15	O	1.101836	-0.325813	-0.314519
O16	O	1.601836	0.174187	0.185481
O17	O	1.342628	-0.685390	-0.297381
O18	O	1.842628	-0.185390	0.202619
O19	O	1.198270	-0.325784	-0.410950
O20	O	1.698270	0.174216	0.089050
O21	O	1.111555	-0.530426	-0.177497
O22	O	1.611555	-0.030426	0.322503
O23	O	0.984317	-0.530358	-0.304742
O24	O	1.484317	-0.030358	0.195258
O25	O	1.118984	-0.685270	-0.521039
O26	O	1.618984	-0.185270	-0.021039
O27	O	0.991709	-0.685309	-0.393767
O28	O	1.491709	-0.185309	0.106233
O29	O	1.208026	-0.530290	-0.528446
O30	O	1.708026	-0.030290	-0.028446
O31	O	1.225109	-0.889934	-0.287605
O32	O	1.725109	-0.389934	0.212395
O33	O	1.128703	-0.889883	-0.384017
O34	O	1.628703	-0.389883	0.115983
C35	C	0.959530	-0.607831	-0.349252
C36	C	1.459530	-0.107831	0.150748
C37	C	0.872282	-0.607851	-0.349261
C38	C	1.372282	-0.107851	0.150739
C39	C	1.179107	-0.935693	-0.333643
C40	C	1.679107	-0.435693	0.166357
C41	C	1.185864	-1.075943	-0.326983
C42	C	1.685864	-0.575943	0.173017
C43	C	0.835167	-0.688656	-0.395529
C44	C	1.335167	-0.188656	0.104471
C45	C	0.753186	-0.688659	-0.395542
C46	C	1.253186	-0.188659	0.104458
C47	C	0.708323	-0.607862	-0.349281
C48	C	1.208323	-0.107862	0.150719
C49	C	0.745443	-0.527049	-0.303010
C50	C	1.245443	-0.027049	0.196990
C51	C	0.827421	-0.527040	-0.303002
C52	C	1.327421	-0.027040	0.196998
C53	C	0.574574	-0.527073	-0.303028
C54	C	1.074574	-0.027073	0.196972
C55	C	0.492590	-0.527083	-0.303034
C56	C	0.992590	-0.027083	0.196966
C57	C	0.500339	-0.688692	-0.395567
C58	C	1.000339	-0.188692	0.104433
C59	C	0.582318	-0.688684	-0.395559
C60	C	1.082318	-0.188684	0.104441
C61	C	0.619432	-0.607871	-0.349288
C62	C	1.119432	-0.107871	0.150712
C63	C	1.368225	-0.607878	-0.349294
C64	C	1.868225	-0.107878	0.150706
C65	C	1.455475	-0.607888	-0.349303
C66	C	1.955475	-0.107888	0.150697
C67	C	1.163509	-0.607768	-0.554021
C68	C	1.663509	-0.107768	-0.054021
C69	C	1.163522	-0.607731	-0.641273
C70	C	1.663522	-0.107731	-0.141273
C71	C	1.147812	-0.278735	-0.364981
C72	C	1.647812	0.221265	0.135019
C73	C	1.141136	-0.138484	-0.371674
C74	C	1.641136	0.361516	0.128326
C75	C	1.209965	-0.526862	-1.020954
C76	C	1.709965	-0.026862	-0.520954
C77	C	1.209951	-0.526906	-0.938971
C78	C	1.709951	-0.026906	-0.438971
C79	C	1.163581	-0.607612	-0.894128
C80	C	1.663581	-0.107612	-0.394128
C81	C	1.117227	-0.688288	-0.931270
C82	C	1.617227	-0.188288	-0.431270
C83	C	1.117246	-0.688249	-1.013251
C84	C	1.617246	-0.188249	-0.513251
C85	C	1.117190	-0.688361	-0.760396
C86	C	1.617190	-0.188361	-0.260396
C87	C	1.117170	-0.688398	-0.678410
C88	C	1.617170	-0.188398	-0.178410
C89	C	1.209895	-0.527018	-0.686117
C90	C	1.709895	-0.027018	-0.186117
C91	C	1.209914	-0.526979	-0.768097
C92	C	1.709914	-0.026979	-0.268097
C93	C	1.163559	-0.607654	-0.805234
C94	C	1.663559	-0.107654	-0.305234
C95	C	1.163491	-0.607848	-0.145325
C96	C	1.663491	-0.107848	0.354675
C97	C	1.163613	-0.607529	-0.058091
C98	C	1.663613	-0.107529	0.441909
H99	H	0.871690	-0.754454	-0.433198
H100	H	1.371690	-0.254454	0.066802
C101	C	1.260891	-0.438283	-0.645264
C102	C	1.760891	0.061717	-0.145264
N103	N	1.299299	-0.371448	-0.614490
N104	N	1.799299	0.128552	-0.114490
C105	C	1.066172	-0.777197	-0.629083
C106	C	1.566172	-0.277197	-0.129083
N107	N	1.027764	-0.844087	-0.591929
N108	N	1.527764	-0.344087	-0.091929
C109	C	1.066218	-0.777063	-0.881939
C110	C	1.566218	-0.277063	-0.381939
N111	N	1.027793	-0.843926	-0.844784
N112	N	1.527793	-0.343926	-0.344784
C113	C	1.082423	-1.065867	-0.430256
C114	C	1.582423	-0.565867	0.069744
N115	N	1.038201	-1.011165	-0.474381
N116	N	1.538201	-0.511165	0.025619
H117	H	0.722972	-0.754459	-0.433218
H118	H	1.222972	-0.254459	0.066782
H119	H	1.247720	-0.461134	-1.057460
H120	H	1.747720	0.038866	-0.557460
H121	H	1.229324	-1.129703	-0.283616
H122	H	1.729324	-0.629703	0.216384
H123	H	0.470116	-0.754489	-0.433246
H124	H	0.970116	-0.254489	0.066754
C125	C	1.260921	-0.438196	-0.817424
C126	C	1.760921	0.061804	-0.317424
N127	N	1.299343	-0.371326	-0.854577
N128	N	1.799343	0.128674	-0.354577
H129	H	1.247697	-0.461222	-0.908738
H130	H	1.747697	0.038778	-0.408738
H131	H	0.456063	-0.461276	-0.265374
H132	H	0.956063	0.038724	0.234626
H133	H	0.604789	-0.461256	-0.265356
H134	H	1.104789	0.038744	0.234644
C135	C	0.631667	-0.777571	-0.446444
C136	C	1.131667	-0.277571	0.053556
N137	N	0.668836	-0.844520	-0.484773
N138	N	1.168836	-0.344520	0.015227
H139	H	1.079445	-0.754059	-0.790630
H140	H	1.579445	-0.254059	-0.290630
H141	H	1.079502	-0.753938	-1.043487
H142	H	1.579502	-0.253938	-0.543487
H143	H	0.708908	-0.461257	-0.265347
H144	H	1.208908	0.038743	0.234653
H145	H	0.857638	-0.461234	-0.265330
H146	H	1.357638	0.038766	0.234670
