data_functionalizedCrystal
_audit_creation_method	'MofGen! by Chris Wilmer'
_symmetry_space_group_name_H-M	'P1'
_symmetry_Int_Tables_number	1
_symmetry_cell_setting	triclinic
loop_
_symmetry_equiv_pos_as_xyz
  x,y,z
_cell_length_a	10.723023
_cell_length_b	19.188930
_cell_length_c	9.198806
_cell_angle_alpha	90.008564
_cell_angle_beta	90.003822
_cell_angle_gamma	83.806164
loop_
_atom_site_label
_atom_site_type_symbol
_atom_site_fract_x
_atom_site_fract_y
_atom_site_fract_z
O1	O	1.655156	0.097920	0.120907
O2	O	1.291809	0.107293	0.120912
O3	O	1.483968	0.001019	0.120881
O4	O	1.462997	0.204194	0.120938
O5	O	1.483952	0.001018	-0.120904
O6	O	1.291794	0.107292	-0.120873
O7	O	1.655141	0.097919	-0.120878
Cu8	Cu	1.473466	0.102606	-0.142952
Cu9	Cu	1.473484	0.102607	0.142986
O10	O	1.462982	0.204193	-0.120847
C11	C	1.245316	0.106611	0.000020
C12	C	1.106804	0.104570	0.000021
C13	C	0.901890	0.101551	-0.125226
C14	C	1.045050	0.103660	-0.125230
C15	C	1.483281	-0.024997	-0.000016
C16	C	1.481242	-0.102515	-0.000028
C17	C	1.593995	-0.146706	-0.000037
C18	C	1.592080	-0.219542	-0.000014
C19	C	1.477405	-0.248184	-0.000011
C20	C	1.364638	-0.203983	0.000006
C21	C	1.366557	-0.131148	-0.000003
N22	N	1.389746	-0.356759	-0.082294
N23	N	1.387931	-0.425949	-0.082288
C24	C	1.471618	-0.467630	0.000019
N25	N	1.557208	-0.437508	0.082302
N26	N	1.559027	-0.368312	0.082290
C27	C	1.475313	-0.327160	-0.000000
C28	C	1.582302	-0.590799	0.000037
C29	C	1.580382	-0.663637	0.000070
C30	C	1.352937	-0.648076	0.000075
C31	C	1.354861	-0.575240	0.000057
C32	C	1.469546	-0.546606	0.000031
C33	C	1.701634	0.098601	0.000017
C34	C	1.840146	0.100642	0.000026
C35	C	1.463668	0.230209	0.000053
C36	C	1.465707	0.307727	0.000075
N37	N	1.473462	0.102604	-0.344066
C38	C	1.545387	0.143089	-0.416254
C39	C	1.545406	0.143088	-0.583666
N40	N	1.473497	0.102602	0.344100
H41	H	1.687381	-0.123398	-0.000053
N42	N	1.396230	0.059112	-0.578074
N43	N	1.279899	0.067043	-0.594990
H44	H	1.225329	0.036326	-0.540021
H45	H	1.263045	-0.539258	0.000056
N46	N	1.111629	0.104654	-0.259774
N47	N	1.053631	0.103807	-0.377528
H48	H	1.100652	0.104512	-0.472556
N49	N	1.040228	0.103597	0.134571
N50	N	1.098224	0.104454	0.252325
H51	H	1.051198	0.103767	0.347353
N52	N	1.396228	0.059112	-0.421980
N53	N	1.411189	-0.005889	-0.405107
H54	H	1.356639	-0.036608	-0.460129
N55	N	0.835257	0.100583	-0.259753
N56	N	0.750836	0.148643	-0.289037
H57	H	0.703777	0.147961	-0.384051
N58	N	0.906794	0.101613	0.134542
N59	N	0.991220	0.053554	0.163816
H60	H	1.038290	0.054238	0.258822
H61	H	1.683899	-0.255530	-0.000015
H62	H	1.271269	-0.227307	0.000012
H63	H	1.606976	0.177752	-0.645745
N64	N	1.251365	-0.086014	0.000014
N65	N	1.148982	-0.111591	0.000031
H66	H	1.067626	-0.079714	0.000042
H67	H	1.675686	-0.567485	0.000023
N68	N	1.695575	-0.708770	0.000081
N69	N	1.797956	-0.683191	0.000063
H70	H	1.879314	-0.715067	0.000073
H71	H	1.259567	-0.671395	0.000084
N72	N	1.622624	0.186563	-0.338295
N73	N	1.622504	0.186499	-0.202410
H74	H	1.677057	0.217203	-0.147352
