data_functionalizedCrystal
_audit_creation_method	'MofGen! by Chris Wilmer'
_symmetry_space_group_name_H-M	'P1'
_symmetry_Int_Tables_number	1
_symmetry_cell_setting	triclinic
loop_
_symmetry_equiv_pos_as_xyz
  x,y,z
_cell_length_a	15.538191
_cell_length_b	17.699083
_cell_length_c	16.776229
_cell_angle_alpha	90.007545
_cell_angle_beta	90.009041
_cell_angle_gamma	65.277554
loop_
_atom_site_label
_atom_site_type_symbol
_atom_site_fract_x
_atom_site_fract_y
_atom_site_fract_z
O1	O	-1.250478	0.245973	-0.066293
O2	O	-0.976019	0.158526	-0.066294
O3	O	-1.121003	0.314557	-0.066286
O4	O	-1.105495	0.089941	-0.066300
O5	O	-1.120984	0.314559	0.066290
O6	O	-0.976000	0.158528	0.066283
O7	O	-1.250459	0.245975	0.066284
Zn8	Zn	-1.113227	0.202252	0.087333
Zn9	Zn	-1.113252	0.202249	-0.087343
O10	O	-1.105475	0.089943	0.066276
C11	C	-0.940893	0.149378	-0.000006
C12	C	-0.836257	0.122125	-0.000006
C13	C	-1.120438	0.342603	0.000002
C14	C	-1.118771	0.426166	0.000002
C15	C	-1.285585	0.255123	-0.000006
C16	C	-1.390221	0.282375	-0.000011
C17	C	-0.549086	0.392872	-0.000001
C18	C	-0.450762	0.367245	-0.000004
C19	C	-0.427989	0.223099	-0.000012
C20	C	-0.526313	0.248714	-0.000006
C21	C	-0.586855	0.333602	-0.000002
C22	C	-0.564082	0.189444	-0.000007
C23	C	-0.662398	0.215057	-0.000005
C24	C	-0.722945	0.299940	-0.000003
C25	C	-0.685171	0.359215	0.000000
C26	C	-0.503539	0.104556	-0.000017
C27	C	-0.541308	0.045286	-0.000017
C28	C	-0.639625	0.070899	-0.000010
C29	C	-0.700173	0.155782	-0.000007
C30	C	-0.677400	0.011624	-0.000012
C31	C	-0.775716	0.037238	-0.000011
C32	C	-0.798489	0.181396	-0.000006
C33	C	-1.106041	0.061897	-0.000014
C34	C	-1.107708	-0.021665	-0.000020
N35	N	-1.113216	0.202256	0.206544
C36	C	-1.203873	0.498041	0.000004
C37	C	-1.202301	0.576554	-0.000003
C38	C	-1.115626	0.583192	-0.000006
C39	C	-1.030517	0.511309	-0.000010
C40	C	-1.032090	0.432797	-0.000008
C41	C	-1.024171	0.827938	-0.000016
C42	C	-1.022605	0.906458	-0.000015
C43	C	-1.194382	0.971696	-0.000011
C44	C	-1.195955	0.893184	-0.000010
C45	C	-1.110847	0.821308	-0.000018
C46	C	-1.112552	0.736175	-0.000012
C47	C	-1.113919	0.668323	-0.000006
N48	N	-1.113270	0.202253	-0.206554
C49	C	-1.177434	0.271331	0.248264
C50	C	-1.177440	0.271333	0.331716
C51	C	-1.113230	0.202257	0.373447
C52	C	-1.049005	0.133177	0.331720
C53	C	-1.048996	0.133178	0.248270
C54	C	-1.049039	0.133172	0.668268
C55	C	-1.049055	0.133175	0.751724
C56	C	-1.177483	0.271326	0.751714
C57	C	-1.177474	0.271327	0.668264
C58	C	-1.113246	0.202250	0.626545
C59	C	-1.113240	0.202249	0.536056
C60	C	-1.113240	0.202254	0.463934
H61	H	-0.847785	0.250520	0.000003
F62	F	-1.296126	0.490986	0.000015
H63	H	-0.952019	0.911855	-0.000016
F64	F	-1.288207	0.886126	-0.000007
F65	F	-1.245787	0.344850	0.376119
H66	H	-0.996765	0.076923	0.785699
F67	F	-0.980643	0.059660	0.203869
F68	F	-0.827583	0.327201	-0.000005
F69	F	-0.980663	0.059663	0.376133
H70	H	-0.996744	0.076926	0.634306
F71	F	-1.284963	1.048198	-0.000005
F72	F	-0.410570	0.430336	0.000007
H73	H	-0.423484	0.083705	-0.000021
F74	F	-0.749609	0.449562	0.000014
F75	F	-1.245838	0.344847	0.796121
F76	F	-0.476866	-0.045055	-0.000027
H77	H	-0.598383	0.461996	0.000007
H78	H	-0.378683	0.153983	-0.000019
H79	H	-0.954870	0.769424	-0.000023
H80	H	-0.806467	-0.011026	-0.000004
F81	F	-0.612956	-0.078716	-0.000029
H82	H	-1.271600	0.635075	-0.000000
H83	H	-0.959944	0.516719	-0.000017
H84	H	-0.962790	0.374274	-0.000010
F85	F	-1.245781	0.344850	0.203860
F86	F	-1.245816	0.344845	0.623855
