data_functionalizedCrystal
_audit_creation_method	'MofGen! by Chris Wilmer'
_symmetry_space_group_name_H-M	'P1'
_symmetry_Int_Tables_number	1
_symmetry_cell_setting	triclinic
loop_
_symmetry_equiv_pos_as_xyz
  x,y,z
_cell_length_a	10.967819
_cell_length_b	10.967829
_cell_length_c	7.540329
_cell_angle_alpha	77.868523
_cell_angle_beta	77.867724
_cell_angle_gamma	82.166777
loop_
_atom_site_label
_atom_site_type_symbol
_atom_site_fract_x
_atom_site_fract_y
_atom_site_fract_z
O1	O	1.657211	0.175054	-0.707471
O2	O	1.294054	0.191802	-0.601601
O3	O	1.484008	0.001850	-0.601595
O4	O	1.467258	0.365006	-0.707478
O5	O	1.483996	0.001848	-0.306626
O6	O	1.294043	0.191800	-0.306632
O7	O	1.657200	0.175052	-0.412502
Cu8	Cu	1.475620	0.183426	-0.332634
Cu9	Cu	1.475634	0.183428	-0.681469
O10	O	1.467246	0.365004	-0.412508
C11	C	1.247548	0.190581	-0.439532
C12	C	1.108992	0.186931	-0.396071
C13	C	0.904025	0.181545	-0.484616
C14	C	1.047232	0.185309	-0.529522
C15	C	1.482782	-0.044651	-0.439528
C16	C	1.479133	-0.183207	-0.396073
C17	C	1.477513	-0.244972	-0.529504
C18	C	1.473741	-0.388177	-0.484595
C19	C	1.703706	0.176273	-0.574575
C20	C	1.842262	0.179923	-0.618048
C21	C	1.468471	0.411505	-0.574579
C22	C	1.472121	0.550061	-0.618046
N23	N	1.475620	0.183423	-0.087285
N24	N	1.475644	0.183421	-0.926819
H25	H	1.478912	-0.191832	-0.676986
H26	H	1.473510	-0.396804	-0.765535
C27	C	0.833361	0.179491	-0.287825
C28	C	0.878066	0.073160	-0.171901
C29	C	0.813015	0.071234	0.009401
H30	H	0.746516	0.177145	-0.283509
H31	H	0.845776	0.252657	-0.247778
H32	H	0.865641	0.000012	-0.211937
H33	H	0.964904	0.075483	-0.176161
H34	H	0.825430	0.144401	0.049448
H35	H	0.726172	0.068892	0.013699
H36	H	0.843346	-0.000903	0.088081
H37	H	0.895403	0.181328	-0.765531
H38	H	1.100368	0.186714	-0.677015
H39	H	1.055855	0.185541	-0.248581
C40	C	1.471659	-0.459142	-0.287949
C41	C	1.362524	-0.520789	-0.226528
C42	C	1.360566	-0.586185	-0.045398
H43	H	1.473094	-0.401952	-0.209853
H44	H	1.542923	-0.518898	-0.284849
H45	H	1.291279	-0.461040	-0.229613
H46	H	1.361066	-0.577999	-0.304572
H47	H	1.431830	-0.645941	-0.042299
H48	H	1.362005	-0.528987	0.032681
H49	H	1.286526	-0.628030	-0.003707
C50	C	1.477051	-0.254177	-0.199437
C51	C	1.367916	-0.315824	-0.138016
C52	C	1.365958	-0.381220	0.043114
H53	H	1.478486	-0.196987	-0.121341
H54	H	1.548315	-0.313933	-0.196337
H55	H	1.296671	-0.256075	-0.141101
H56	H	1.366458	-0.373034	-0.216060
H57	H	1.437222	-0.440976	0.046213
H58	H	1.367397	-0.324022	0.121192
H59	H	1.291918	-0.423065	0.084805
