data_functionalizedCrystal
_audit_creation_method	'MofGen! by Chris Wilmer'
_symmetry_space_group_name_H-M	'P1'
_symmetry_Int_Tables_number	1
_symmetry_cell_setting	triclinic
loop_
_symmetry_equiv_pos_as_xyz
  x,y,z
_cell_length_a	15.995350
_cell_length_b	14.519709
_cell_length_c	12.996460
_cell_angle_alpha	90.007090
_cell_angle_beta	90.000784
_cell_angle_gamma	96.413740
loop_
_atom_site_label
_atom_site_type_symbol
_atom_site_fract_x
_atom_site_fract_y
_atom_site_fract_z
O1	O	1.111165	-0.118875	-0.085417
O2	O	1.361165	0.131125	0.164583
O3	O	1.611165	0.381125	0.414583
O4	O	1.861165	0.631125	0.664583
O5	O	0.867411	-0.133554	-0.085453
O6	O	1.117411	0.116446	0.164547
O7	O	1.367411	0.366446	0.414547
O8	O	1.617411	0.616446	0.664547
O9	O	0.995751	0.008036	-0.085425
O10	O	1.245751	0.258036	0.164575
O11	O	1.495751	0.508036	0.414575
O12	O	1.745751	0.758036	0.664575
O13	O	0.982825	-0.260465	-0.085445
O14	O	1.232825	-0.010465	0.164555
O15	O	1.482825	0.239535	0.414555
O16	O	1.732825	0.489535	0.664555
O17	O	0.995737	0.008044	0.085709
O18	O	1.245737	0.258044	0.335709
O19	O	1.495737	0.508044	0.585709
O20	O	1.745737	0.758044	0.835709
O21	O	0.867398	-0.133546	0.085681
O22	O	1.117398	0.116454	0.335681
O23	O	1.367398	0.366454	0.585681
O24	O	1.617398	0.616454	0.835681
O25	O	1.111151	-0.118867	0.085717
O26	O	1.361151	0.131133	0.335717
O27	O	1.611151	0.381133	0.585717
O28	O	1.861151	0.631133	0.835717
Cu29	Cu	0.989273	-0.126206	0.101325
Cu30	Cu	1.239273	0.123794	0.351325
Cu31	Cu	1.489273	0.373794	0.601325
Cu32	Cu	1.739273	0.623794	0.851325
Cu33	Cu	0.989289	-0.126215	-0.101061
Cu34	Cu	1.239289	0.123785	0.148939
Cu35	Cu	1.489289	0.373785	0.398939
Cu36	Cu	1.739289	0.623785	0.648939
O37	O	0.982812	-0.260457	0.085689
O38	O	1.232812	-0.010457	0.335689
O39	O	1.482812	0.239543	0.585689
O40	O	1.732812	0.489543	0.835689
C41	C	0.836209	-0.132943	0.000110
C42	C	1.086209	0.117057	0.250110
C43	C	1.336209	0.367057	0.500110
C44	C	1.586209	0.617057	0.750110
C45	C	0.743256	-0.131124	0.000096
C46	C	0.993256	0.118876	0.250096
C47	C	1.243256	0.368876	0.500096
C48	C	1.493256	0.618876	0.750096
C49	C	0.995142	0.042398	0.000142
C50	C	1.245142	0.292398	0.250142
C51	C	1.495142	0.542398	0.500142
C52	C	1.745142	0.792398	0.750142
C53	C	0.993337	0.144776	0.000143
C54	C	1.243337	0.394776	0.250143
C55	C	1.493337	0.644776	0.500143
C56	C	1.743337	0.894776	0.750143
C57	C	1.142354	-0.119478	0.000152
C58	C	1.392354	0.130522	0.250152
C59	C	1.642354	0.380522	0.500152
C60	C	1.892354	0.630522	0.750152
C61	C	1.235307	-0.121297	0.000159
C62	C	1.485307	0.128703	0.250159
C63	C	1.735307	0.378703	0.500159
C64	C	1.985307	0.628703	0.750159
C65	C	1.573064	-0.127831	0.000117
C66	C	1.823064	0.122169	0.250117
C67	C	2.073064	0.372169	0.500117
C68	C	2.323064	0.622169	0.750117
C69	C	1.525781	-0.228669	0.000496
C70	C	1.775781	0.021331	0.250496
C71	C	2.025781	0.271331	0.500496
C72	C	2.275781	0.521331	0.750496
C73	C	1.429088	-0.226849	0.000121
C74	C	1.679088	0.023151	0.250121
C75	C	1.929088	0.273151	0.500121
C76	C	2.179088	0.523151	0.750121
C77	C	1.405499	-0.124590	0.000138
C78	C	1.655499	0.125410	0.250138
C79	C	1.905499	0.375410	0.500138
C80	C	2.155499	0.625410	0.750138
C81	C	1.446492	-0.074858	-0.097585
C82	C	1.696492	0.175142	0.152415
C83	C	1.946492	0.425142	0.402415
C84	C	2.196492	0.675142	0.652415
C85	C	1.543132	-0.077391	-0.097678
C86	C	1.793132	0.172609	0.152322
C87	C	2.043132	0.422609	0.402322
C88	C	2.293132	0.672609	0.652322
C89	C	1.543505	-0.075299	0.096933
C90	C	1.793505	0.174701	0.346933
C91	C	2.043505	0.424701	0.596933
C92	C	2.293505	0.674701	0.846933
C93	C	1.446560	-0.075323	0.098235
C94	C	1.696560	0.174677	0.348235
C95	C	1.946560	0.424677	0.598235
C96	C	2.196560	0.674677	0.848235
C97	C	1.310798	-0.122753	0.000147
C98	C	1.560798	0.127247	0.250147
C99	C	1.810798	0.377247	0.500147
C100	C	2.060798	0.627247	0.750147
C101	C	1.667765	-0.129665	0.000101
C102	C	1.917765	0.120335	0.250101
C103	C	2.167765	0.370335	0.500101
C104	C	2.417765	0.620335	0.750101
C105	C	0.983421	-0.294819	0.000120
C106	C	1.233421	-0.044819	0.250120
C107	C	1.483421	0.205181	0.500120
C108	C	1.733421	0.455181	0.750120
C109	C	0.985226	-0.397197	0.000113
C110	C	1.235226	-0.147197	0.250113
C111	C	1.485226	0.102803	0.500113
C112	C	1.735226	0.352803	0.750113
N113	N	0.989268	-0.126199	0.243672
N114	N	1.239268	0.123801	0.493672
N115	N	1.489268	0.373801	0.743672
N116	N	1.739268	0.623801	0.993672
C117	C	0.986691	0.519660	0.000115
C118	C	1.236691	0.769660	0.250115
C119	C	1.486691	1.019660	0.500115
C120	C	1.736691	1.269660	0.750115
C121	C	0.988537	0.415355	0.000123
C122	C	1.238537	0.665355	0.250123
C123	C	1.488537	0.915355	0.500123
C124	C	1.738537	1.165355	0.750123
C125	C	0.990014	0.332221	0.000130
C126	C	1.240014	0.582221	0.250130
C127	C	1.490014	0.832221	0.500130
C128	C	1.740014	1.082221	0.750130
C129	C	0.991859	0.227910	0.000136
C130	C	1.241859	0.477910	0.250136
C131	C	1.491859	0.727910	0.500136
C132	C	1.741859	0.977910	0.750136
N133	N	0.989301	-0.126215	-0.243408
N134	N	1.239301	0.123785	0.006592
N135	N	1.489301	0.373785	0.256592
N136	N	1.739301	0.623785	0.506592
C137	C	0.989288	-0.126216	0.663486
C138	C	1.239288	0.123784	0.913486
C139	C	1.489288	0.373784	1.163486
C140	C	1.739288	0.623784	1.413486
C141	C	0.989280	-0.126214	0.546681
C142	C	1.239280	0.123786	0.796681
C143	C	1.489280	0.373786	1.046681
C144	C	1.739280	0.623786	1.296681
C145	C	0.989279	-0.126208	0.453583
C146	C	1.239279	0.123792	0.703583
C147	C	1.489279	0.373792	0.953583
C148	C	1.739279	0.623792	1.203583
C149	C	0.989270	-0.126205	0.336770
C150	C	1.239270	0.123795	0.586770
C151	C	1.489270	0.373795	0.836770
C152	C	1.739270	0.623795	1.086770
H153	H	1.400731	-0.265947	0.070170
H154	H	1.650731	-0.015947	0.320170
H155	H	1.900731	0.234053	0.570170
H156	H	2.150731	0.484053	0.820170
H157	H	1.432254	0.000269	-0.101207
H158	H	1.682254	0.250269	0.148793
H159	H	1.932254	0.500269	0.398793
H160	H	2.182254	0.750269	0.648793
Cl161	Cl	1.556108	-0.290626	-0.107110
Cl162	Cl	1.806108	-0.040626	0.142890
Cl163	Cl	2.056108	0.209374	0.392890
Cl164	Cl	2.306108	0.459374	0.642890
H165	H	1.418132	-0.109382	-0.170311
H166	H	1.668132	0.140618	0.079689
H167	H	1.918132	0.390618	0.329689
H168	H	2.168132	0.640618	0.579689
H169	H	1.544381	-0.268970	0.070568
H170	H	1.794381	-0.018970	0.320568
H171	H	2.044381	0.231030	0.570568
H172	H	2.294381	0.481030	0.820568
H173	H	1.401276	-0.266208	-0.070053
H174	H	1.651276	-0.016208	0.179947
H175	H	1.901276	0.233792	0.429947
H176	H	2.151276	0.483792	0.679947
H177	H	1.561480	-0.113665	-0.170735
H178	H	1.811480	0.136335	0.079265
H179	H	2.061480	0.386335	0.329265
H180	H	2.311480	0.636335	0.579265
Cl181	Cl	1.592381	0.039481	0.097970
Cl182	Cl	1.842381	0.289481	0.347970
Cl183	Cl	2.092381	0.539481	0.597970
Cl184	Cl	2.342381	0.789481	0.847970
Cl185	Cl	1.592752	0.036907	-0.104534
Cl186	Cl	1.842752	0.286907	0.145466
Cl187	Cl	2.092752	0.536907	0.395466
Cl188	Cl	2.342752	0.786907	0.645466
Cl189	Cl	1.575305	-0.126194	0.211282
Cl190	Cl	1.825305	0.123806	0.461282
Cl191	Cl	2.075305	0.373806	0.711282
Cl192	Cl	2.325305	0.623806	0.961282
Cl193	Cl	1.404507	-0.131385	0.209857
Cl194	Cl	1.654507	0.118615	0.459857
Cl195	Cl	1.904507	0.368615	0.709857
Cl196	Cl	2.154507	0.618615	0.959857
H197	H	1.431089	-0.000751	0.104147
H198	H	1.681089	0.249249	0.354147
H199	H	1.931089	0.499249	0.604147
H200	H	2.181089	0.749249	0.854147
