data_functionalizedCrystal
_audit_creation_method	'MofGen! by Chris Wilmer'
_symmetry_space_group_name_H-M	'P1'
_symmetry_Int_Tables_number	1
_symmetry_cell_setting	triclinic
loop_
_symmetry_equiv_pos_as_xyz
  x,y,z
_cell_length_a	19.077269
_cell_length_b	12.759400
_cell_length_c	12.759393
_cell_angle_alpha	89.970879
_cell_angle_beta	92.277162
_cell_angle_gamma	87.716118
loop_
_atom_site_label
_atom_site_type_symbol
_atom_site_fract_x
_atom_site_fract_y
_atom_site_fract_z
Zn1	Zn	1.076023	-0.482733	-0.529507
Zn2	Zn	1.075955	-0.658443	-0.353835
Zn3	Zn	0.958324	-0.475726	-0.360900
Zn4	Zn	0.958320	-0.651313	-0.536526
O5	O	1.017155	-0.567054	-0.445192
O6	O	1.174502	-0.511957	-0.500310
O7	O	1.060324	-0.634257	-0.207753
O8	O	0.973967	-0.329636	-0.383286
O9	O	1.174451	-0.641051	-0.371244
O10	O	1.060440	-0.334784	-0.507161
O11	O	0.973901	-0.500016	-0.212943
O12	O	0.859836	-0.493102	-0.390091
O13	O	0.973960	-0.628899	-0.682614
O14	O	0.859833	-0.622105	-0.519123
O15	O	1.060436	-0.505043	-0.677458
O16	O	1.060320	-0.804517	-0.378050
O17	O	0.973894	-0.799278	-0.512272
C18	C	0.834297	-0.556070	-0.456136
C19	C	0.756070	-0.551397	-0.460843
C20	C	0.719290	-0.616304	-0.395756
C21	C	0.645787	-0.611913	-0.400193
C22	C	0.609065	-0.542609	-0.469711
C23	C	0.645851	-0.477698	-0.534804
C24	C	0.719353	-0.482096	-0.530372
C25	C	0.389242	-0.522267	-0.490187
C26	C	0.315735	-0.517873	-0.494611
C27	C	0.315676	-0.652089	-0.360000
C28	C	0.389179	-0.656476	-0.355570
C29	C	0.425958	-0.591570	-0.420668
N30	N	0.533933	-0.538116	-0.474245
N31	N	0.501089	-0.596068	-0.416138
C32	C	1.017118	-0.840019	-0.445178
C33	C	1.017167	-0.956798	-0.445203
C34	C	1.062171	-1.014260	-0.509761
C35	C	1.062204	-1.123986	-0.509785
C36	C	0.972227	-1.118779	-0.380683
C37	C	0.972191	-1.009055	-0.380666
C38	C	1.107147	-0.962003	-0.574298
C39	C	1.152155	-1.019465	-0.638861
C40	C	1.152188	-1.129191	-0.638884
C41	C	1.107212	-1.181455	-0.574345
C42	C	1.200727	-0.578081	-0.434206
C43	C	1.278955	-0.582780	-0.429525
C44	C	1.017205	-0.566957	-0.719223
C45	C	1.017227	-0.566916	-0.835998
C46	C	1.017212	-0.293024	-0.445228
C47	C	1.017236	-0.176249	-0.445244
C48	C	1.062274	-0.502365	-0.997901
C49	C	1.062259	-0.502410	-0.888177
C50	C	0.972212	-0.631388	-0.893548
C51	C	0.972231	-0.631348	-1.003269
C52	C	1.107303	-0.437848	-1.050074
C53	C	1.152319	-0.373376	-0.992532
C54	C	1.152304	-0.373422	-0.882809
C55	C	1.107273	-0.437938	-0.830628
C56	C	1.017146	-0.567077	-0.172225
C57	C	1.017261	-0.566830	-0.055442
H58	H	0.285839	-0.461428	-0.551218
H59	H	1.107319	-0.437800	-1.139416
C60	C	0.759680	-0.692537	-0.319286
H61	H	0.808723	-0.685855	-0.325959
H62	H	0.747633	-0.762425	-0.335267
H63	H	0.747607	-0.676347	-0.249446
H64	H	0.285722	-0.704934	-0.307004
C65	C	1.107110	-0.841309	-0.574280
H66	H	1.140337	-0.818414	-0.621966
H67	H	1.119291	-0.817252	-0.505761
H68	H	1.061676	-0.813800	-0.595121
C69	C	0.429690	-0.450860	-0.561777
H70	H	0.397291	-0.408947	-0.603802
H71	H	0.458378	-0.492811	-0.605762
H72	H	0.458349	-0.406747	-0.519927
C73	C	0.605331	-0.683303	-0.328590
H74	H	0.637728	-0.725197	-0.286542
H75	H	0.576668	-0.727419	-0.370421
H76	H	0.576646	-0.641331	-0.284611
H77	H	1.188963	-0.320934	-0.835961
C78	C	1.201854	-0.302419	-1.049922
H79	H	1.228665	-0.264041	-0.999934
H80	H	1.174949	-0.255007	-1.094338
H81	H	1.232520	-0.344441	-1.090885
H82	H	0.615947	-0.421274	-0.591412
C83	C	1.107258	-0.437988	-0.709935
H84	H	1.140513	-0.390351	-0.683136
H85	H	1.119408	-0.506525	-0.684377
H86	H	1.061837	-0.417093	-0.687834
C87	C	0.922718	-0.702252	-1.066573
H88	H	0.929185	-0.692994	-1.139391
H89	H	0.875429	-0.684047	-1.051426
H90	H	0.933006	-0.773472	-1.047969
C91	C	0.759811	-0.410696	-0.601965
H92	H	0.727415	-0.368784	-0.643997
H93	H	0.788497	-0.452657	-0.645943
H94	H	0.788473	-0.366581	-0.560121
H95	H	0.419072	-0.712909	-0.298960
C96	C	1.201622	-0.961979	-0.709849
H97	H	1.195163	-0.888401	-0.700583
H98	H	1.191305	-0.979300	-0.781049
H99	H	1.248923	-0.982761	-0.691693
H100	H	1.188830	-1.175973	-0.691463
H101	H	0.935610	-1.161342	-0.328138
C102	C	0.922677	-0.702339	-0.836151
H103	H	0.929108	-0.693122	-0.762564
H104	H	0.932962	-0.773542	-0.853504
H105	H	0.875393	-0.684105	-0.856965
H106	H	1.107235	-1.270801	-0.574383
H107	H	0.935544	-0.962270	-0.328098
