data_functionalizedCrystal
_audit_creation_method	'MofGen! by Chris Wilmer'
_symmetry_space_group_name_H-M	'P1'
_symmetry_Int_Tables_number	1
_symmetry_cell_setting	triclinic
loop_
_symmetry_equiv_pos_as_xyz
  x,y,z
_cell_length_a	8.597278
_cell_length_b	8.559649
_cell_length_c	7.088929
_cell_angle_alpha	95.325015
_cell_angle_beta	76.027249
_cell_angle_gamma	77.625102
loop_
_atom_site_label
_atom_site_type_symbol
_atom_site_fract_x
_atom_site_fract_y
_atom_site_fract_z
O1	O	-0.035739	2.103777	-0.153071
O2	O	0.046707	1.638460	-0.166659
O3	O	-0.228466	1.884154	-0.121323
O4	O	0.239434	1.858083	-0.198406
O5	O	-0.265315	1.916989	0.202723
O6	O	0.009858	1.671295	0.157387
O7	O	-0.072587	2.136612	0.170975
Cu8	Cu	-0.034729	1.906951	0.193769
Cu9	Cu	0.008848	1.868120	-0.189453
O10	O	0.202586	1.890918	0.125640
C11	C	0.034530	1.595339	-0.005667
C12	C	0.053128	1.417933	-0.008733
C13	C	-0.306237	1.899600	0.050472
C14	C	-0.483068	1.896688	0.079592
C15	C	0.280357	1.875471	-0.046160
C16	C	0.457190	1.878382	-0.075293
C17	C	-0.060411	2.179732	0.009978
C18	C	-0.079007	2.357137	0.013032
N19	N	-0.065381	1.934274	0.463307
N20	N	0.039486	1.840810	-0.458989
H21	H	-0.567201	1.910126	0.234479
H22	H	-0.458662	1.864920	-0.230191
H23	H	-0.206361	1.440806	0.034003
H24	H	0.180493	1.334253	-0.029726
H25	H	0.148161	1.743945	0.441461
C26	C	-0.212197	2.065143	0.597792
H27	H	-0.210100	2.063273	0.730953
H28	H	-0.204271	2.168454	0.563752
H29	H	-0.312805	2.044413	0.581659
