data_functionalizedCrystal
_audit_creation_method	'MofGen! by Chris Wilmer'
_symmetry_space_group_name_H-M	'P1'
_symmetry_Int_Tables_number	1
_symmetry_cell_setting	triclinic
loop_
_symmetry_equiv_pos_as_xyz
  x,y,z
_cell_length_a	12.837932
_cell_length_b	12.811415
_cell_length_c	11.295483
_cell_angle_alpha	88.701575
_cell_angle_beta	85.460332
_cell_angle_gamma	89.412215
loop_
_atom_site_label
_atom_site_type_symbol
_atom_site_fract_x
_atom_site_fract_y
_atom_site_fract_z
O1	O	1.385596	0.264774	-0.127616
O2	O	1.885596	0.764774	0.372384
O3	O	1.083631	0.251381	-0.126172
O4	O	1.583631	0.751381	0.373828
O5	O	1.241062	0.107094	-0.110584
O6	O	1.741062	0.607094	0.389416
O7	O	1.228165	0.409061	-0.143204
O8	O	1.728165	0.909061	0.356796
O9	O	1.227234	0.119745	0.086100
O10	O	1.727234	0.619745	0.586100
O11	O	1.069803	0.264032	0.070512
O12	O	1.569803	0.764032	0.570512
O13	O	1.371769	0.277426	0.069068
O14	O	1.871769	0.777426	0.569068
Cu15	Cu	1.219523	0.271884	0.087749
Cu16	Cu	1.719523	0.771884	0.587749
Cu17	Cu	1.235876	0.256922	-0.144853
Cu18	Cu	1.735876	0.756922	0.355147
O19	O	1.214337	0.421712	0.053481
O20	O	1.714337	0.921712	0.553481
C21	C	1.038042	0.253182	-0.027341
C22	C	1.538042	0.753182	0.472659
C23	C	0.922804	0.239689	-0.025885
C24	C	1.422804	0.739689	0.474115
C25	C	0.771615	0.126912	-0.013700
C26	C	1.271615	0.626912	0.486300
C27	C	0.879893	0.139583	-0.015069
C28	C	1.379893	0.639583	0.484931
C29	C	0.857430	0.327130	-0.035328
C30	C	1.357430	0.827130	0.464672
C31	C	0.749152	0.314459	-0.033959
C32	C	1.249152	0.814459	0.466041
C33	C	0.706249	0.214346	-0.023146
C34	C	1.206249	0.714346	0.476854
C35	C	0.597971	0.201675	-0.021786
C36	C	1.097971	0.701675	0.478214
C37	C	0.575509	0.389222	-0.042036
C38	C	1.075509	0.889222	0.457964
C39	C	0.683786	0.401893	-0.043405
C40	C	1.183786	0.901893	0.456595
C41	C	1.233002	0.074501	-0.008040
C42	C	1.733002	0.574501	0.491960
C43	C	1.229573	-0.041467	0.004479
C44	C	1.729573	0.458533	0.504479
C45	C	1.238189	-0.273167	-0.186445
C46	C	1.738189	0.226833	0.313555
C47	C	1.234968	-0.382129	-0.174687
C48	C	1.734968	0.117871	0.325313
C49	C	1.219903	-0.368356	0.039751
C50	C	1.719903	0.131644	0.539751
C51	C	1.223124	-0.259393	0.027993
C52	C	1.723124	0.240607	0.527993
C53	C	1.232269	-0.211803	-0.085108
C54	C	1.732269	0.288197	0.414892
C55	C	1.235497	-0.102839	-0.096865
C56	C	1.735497	0.397161	0.403135
C57	C	1.220425	-0.089067	0.117572
C58	C	1.720425	0.410933	0.617572
C59	C	1.217204	-0.198030	0.129330
C60	C	1.717204	0.301970	0.629330
C61	C	1.417357	0.275624	-0.029765
C62	C	1.917357	0.775624	0.470235
C63	C	1.532596	0.289117	-0.031229
C64	C	2.032596	0.789117	0.468771
C65	C	1.222398	0.454305	-0.049066
C66	C	1.722398	0.954305	0.450934
C67	C	1.225827	0.570272	-0.061593
C68	C	1.725827	1.070272	0.438407
N69	N	1.208029	0.282407	0.251349
N70	N	1.708029	0.782407	0.751349
N71	N	1.247378	0.246391	-0.308451
N72	N	1.747378	0.746391	0.191549
C73	C	1.330120	0.170580	0.512719
C74	C	1.830120	0.670580	1.012719
C75	C	1.321441	0.178541	0.636523
C76	C	1.821441	0.678541	1.136523
C77	C	1.181988	0.306283	0.622762
C78	C	1.681988	0.806283	1.122762
C79	C	1.190667	0.298323	0.498959
C80	C	1.690667	0.798323	0.998959
C81	C	1.264736	0.230470	0.443941
C82	C	1.764736	0.730470	0.943941
C83	C	1.273419	0.222515	0.320135
C84	C	1.773419	0.722515	0.820135
C85	C	1.133962	0.350252	0.306378
C86	C	1.633962	0.850252	0.806378
C87	C	1.125284	0.358212	0.430181
C88	C	1.625284	0.858212	0.930181
H89	H	0.892380	0.408638	-0.044121
H90	H	1.392380	0.908638	0.455879
F91	F	0.552312	0.095129	-0.010280
F92	F	1.052312	0.595129	0.489720
F93	F	1.103153	0.378483	0.681331
F94	F	1.603153	0.878483	1.181331
F95	F	0.725953	0.020366	-0.002200
F96	F	1.225953	0.520366	0.497800
F97	F	1.210146	-0.419022	0.160111
F98	F	1.710146	0.080978	0.660111
H99	H	1.209754	-0.236793	0.221414
H100	H	1.709754	0.263207	0.721414
H101	H	0.718732	0.483403	-0.052204
H102	H	1.218732	0.983403	0.447796
H103	H	0.933111	0.068384	-0.007377
H104	H	1.433111	0.568384	0.492623
H105	H	0.522275	0.460418	-0.049728
H106	H	1.022275	0.960418	0.450272
F107	F	1.245233	-0.052192	-0.217235
F108	F	1.745233	0.447808	0.282765
F109	F	1.241266	-0.447434	-0.282543
F110	F	1.741266	0.052566	0.217457
H111	H	1.333733	0.167270	0.275341
H112	H	1.833733	0.667270	0.775341
F113	F	1.046455	0.430420	0.488746
F114	F	1.546455	0.930420	0.988746
H115	H	1.245644	-0.234419	-0.278536
H116	H	1.745644	0.265581	0.221464
F117	F	1.214132	-0.023752	0.225429
F118	F	1.714132	0.476248	0.725429
F119	F	1.408958	0.098377	0.454164
F120	F	1.908958	0.598377	0.954164
F121	F	1.391029	0.114796	0.709717
F122	F	1.891029	0.614796	1.209717
F123	F	1.064379	0.413999	0.233167
F124	F	1.564379	0.913999	0.733167
