data_functionalizedCrystal
_audit_creation_method	'MofGen! by Chris Wilmer'
_symmetry_space_group_name_H-M	'P1'
_symmetry_Int_Tables_number	1
_symmetry_cell_setting	triclinic
loop_
_symmetry_equiv_pos_as_xyz
  x,y,z
_cell_length_a	16.625547
_cell_length_b	16.625545
_cell_length_c	21.395356
_cell_angle_alpha	89.974643
_cell_angle_beta	89.972180
_cell_angle_gamma	90.025495
loop_
_atom_site_label
_atom_site_type_symbol
_atom_site_fract_x
_atom_site_fract_y
_atom_site_fract_z
Zn1	Zn	1.232687	-0.321023	-0.354342
Zn2	Zn	1.566020	0.012310	-0.021009
Zn3	Zn	1.899354	0.345643	0.312324
Zn4	Zn	1.232576	-0.455860	-0.249569
Zn5	Zn	1.565909	-0.122527	0.083764
Zn6	Zn	1.899243	0.210807	0.417098
Zn7	Zn	1.097842	-0.321045	-0.249571
Zn8	Zn	1.431175	0.012288	0.083762
Zn9	Zn	1.764508	0.345622	0.417095
Zn10	Zn	1.097812	-0.455818	-0.354301
Zn11	Zn	1.431145	-0.122484	-0.020968
Zn12	Zn	1.764479	0.210849	0.312365
O13	O	1.165229	-0.388436	-0.301946
O14	O	1.498563	-0.055103	0.031387
O15	O	1.831896	0.278230	0.364721
O16	O	1.345505	-0.338918	-0.340460
O17	O	1.678838	-0.005585	-0.007127
O18	O	2.012171	0.327748	0.326207
O19	O	1.214669	-0.438003	-0.161891
O20	O	1.548002	-0.104670	0.171442
O21	O	1.881336	0.228663	0.504775
O22	O	1.115788	-0.208210	-0.263487
O23	O	1.449122	0.125124	0.069846
O24	O	1.782455	0.458457	0.403179
O25	O	1.345423	-0.437982	-0.263484
O26	O	1.678756	-0.104649	0.069850
O27	O	2.012090	0.228684	0.403183
O28	O	1.214859	-0.208194	-0.340462
O29	O	1.548192	0.125140	-0.007129
O30	O	1.881525	0.458473	0.326205
O31	O	1.115681	-0.338955	-0.161893
O32	O	1.449014	-0.005622	0.171440
O33	O	1.782347	0.327711	0.504774
O34	O	0.985005	-0.338914	-0.263448
O35	O	1.318339	-0.005581	0.069886
O36	O	1.651672	0.327753	0.403219
O37	O	1.115737	-0.437910	-0.441985
O38	O	1.449071	-0.104577	-0.108651
O39	O	1.782404	0.228757	0.224682
O40	O	0.984984	-0.437931	-0.340393
O41	O	1.318317	-0.104598	-0.007059
O42	O	1.651650	0.228736	0.326274
O43	O	1.214830	-0.338877	-0.442015
O44	O	1.548163	-0.005544	-0.108681
O45	O	1.881496	0.327789	0.224652
O46	O	1.214640	-0.568687	-0.263444
O47	O	1.547974	-0.235353	0.069889
O48	O	1.881307	0.097980	0.403223
O49	O	1.115630	-0.568656	-0.340391
O50	O	1.448963	-0.235322	-0.007057
O51	O	1.782296	0.098011	0.326276
C52	C	0.955738	-0.388421	-0.301916
C53	C	1.289072	-0.055087	0.031417
C54	C	1.622405	0.278246	0.364750
C55	C	0.866117	-0.388434	-0.301919
C56	C	1.199451	-0.055100	0.031415
C57	C	1.532784	0.278233	0.364748
C58	C	0.793335	-0.388435	-0.301926
C59	C	1.126668	-0.055102	0.031407
C60	C	1.460001	0.278232	0.364740
C61	C	0.702026	-0.388439	-0.301942
C62	C	1.035360	-0.055106	0.031391
C63	C	1.368693	0.278227	0.364725
C64	C	0.629250	-0.388447	-0.301958
C65	C	0.962583	-0.055113	0.031375
C66	C	1.295917	0.278220	0.364709
C67	C	0.537936	-0.388452	-0.301973
C68	C	0.871269	-0.055119	0.031360
C69	C	1.204602	0.278214	0.364694
C70	C	1.165142	-0.597927	-0.301926
C71	C	1.498475	-0.264594	0.031407
C72	C	1.831808	0.068739	0.364740
C73	C	1.165178	-0.687548	-0.301939
C74	C	1.498511	-0.354215	0.031395
C75	C	1.831845	-0.020882	0.364728
C76	C	1.165209	-0.760331	-0.301951
C77	C	1.498543	-0.426998	0.031382
C78	C	1.831876	-0.093664	0.364715
C79	C	1.165256	-0.851639	-0.301965
C80	C	1.498589	-0.518306	0.031368
C81	C	1.831923	-0.184973	0.364702
C82	C	1.165298	-0.924416	-0.301973
C83	C	1.498631	-0.591082	0.031360
C84	C	1.831965	-0.257749	0.364694
C85	C	1.165344	-1.015730	-0.301986
C86	C	1.498677	-0.682397	0.031347
C87	C	1.832011	-0.349063	0.364681
C88	C	1.375538	-0.388453	-0.301976
C89	C	1.708871	-0.055119	0.031357
C90	C	2.042205	0.278214	0.364691
C91	C	1.465159	-0.388460	-0.301989
C92	C	1.798493	-0.055126	0.031344
C93	C	2.131826	0.278207	0.364678
C94	C	1.165293	-0.388387	-0.465369
C95	C	1.498626	-0.055053	-0.132036
C96	C	1.831959	0.278280	0.201297
C97	C	1.165320	-0.388365	-0.535011
C98	C	1.498653	-0.055032	-0.201677
C99	C	1.831986	0.278301	0.131656
C100	C	1.165339	-0.178128	-0.301980
C101	C	1.498672	0.155206	0.031354
C102	C	1.832006	0.488539	0.364687
C103	C	1.165386	-0.088506	-0.301994
C104	C	1.498719	0.244827	0.031340
C105	C	1.832053	0.578160	0.364673
C106	C	1.113790	-0.336785	-0.567715
C107	C	1.447123	-0.003452	-0.234381
C108	C	1.780457	0.329882	0.098952
C109	C	1.113787	-0.336770	-0.633150
C110	C	1.447121	-0.003437	-0.299817
C111	C	1.780454	0.329897	0.033516
C112	C	1.165329	-0.388327	-0.665879
C113	C	1.498662	-0.054994	-0.332546
C114	C	1.831995	0.278340	0.000788
C115	C	1.216862	-0.439917	-0.633167
C116	C	1.550195	-0.106584	-0.299834
C117	C	1.883528	0.226750	0.033500
C118	C	1.216857	-0.439936	-0.567733
C119	C	1.550191	-0.106603	-0.234399
C120	C	1.883524	0.226730	0.098934
C121	C	1.237977	-0.394666	-0.769570
C122	C	1.571310	-0.061333	-0.436236
C123	C	1.904644	0.272001	-0.102903
C124	C	1.237983	-0.394641	-0.835003
C125	C	1.571316	-0.061308	-0.501669
C126	C	1.904649	0.272025	-0.168336
C127	C	1.165342	-0.388272	-0.867700
C128	C	1.498675	-0.054939	-0.534367
C129	C	1.832009	0.278394	-0.201033
C130	C	1.092693	-0.381911	-0.834956
C131	C	1.426026	-0.048578	-0.501623
C132	C	1.759360	0.284755	-0.168289
C133	C	1.092688	-0.381931	-0.769522
C134	C	1.426022	-0.048597	-0.436189
C135	C	1.759355	0.284736	-0.102855
C136	C	1.165339	-0.388312	-0.736831
C137	C	1.498672	-0.054979	-0.403498
C138	C	1.832005	0.278354	-0.070165
C139	C	1.113805	-0.336673	-0.971357
C140	C	1.447138	-0.003340	-0.638023
C141	C	1.780472	0.329993	-0.304690
C142	C	1.113801	-0.336664	-1.036793
C143	C	1.447134	-0.003331	-0.703460
C144	C	1.780468	0.330003	-0.370127
C145	C	1.216882	-0.439807	-1.036809
C146	C	1.550216	-0.106473	-0.703475
C147	C	1.883549	0.226860	-0.370142
C148	C	1.216879	-0.439820	-0.971373
C149	C	1.550213	-0.106487	-0.638040
C150	C	1.883546	0.226846	-0.304707
C151	C	1.165342	-0.388249	-0.938651
C152	C	1.498675	-0.054916	-0.605318
C153	C	1.832008	0.278417	-0.271985
C154	C	1.165212	-0.388428	-0.139158
C155	C	1.498546	-0.055095	0.194175
C156	C	1.831879	0.278239	0.527508
C157	C	1.165342	-0.388222	-0.069518
C158	C	1.498675	-0.054889	0.263816
C159	C	1.832008	0.278444	0.597149
H160	H	1.071821	-0.294795	-0.541076
H161	H	1.405154	0.038538	-0.207743
H162	H	1.738488	0.371872	0.125590
H163	H	1.033535	-0.376753	-0.742864
H164	H	1.366868	-0.043420	-0.409531
H165	H	1.700202	0.289914	-0.076198
H166	H	1.071827	-0.294763	-0.659783
H167	H	1.405160	0.038570	-0.326450
H168	H	1.738494	0.371903	0.006884
H169	H	1.258822	-0.481938	-0.541105
H170	H	1.592156	-0.148605	-0.207772
H171	H	1.925489	0.184729	0.125561
C172	C	1.012781	-0.374929	-0.870914
C173	C	1.346115	-0.041595	-0.537580
C174	C	1.679448	0.291738	-0.204247
H175	H	1.023184	-0.375844	-0.914573
H176	H	1.356517	-0.042511	-0.581240
H177	H	1.689851	0.290822	-0.247907
H178	H	0.987009	-0.325849	-0.860198
H179	H	1.320342	0.007485	-0.526865
H180	H	1.653676	0.340818	-0.193531
H181	H	0.978856	-0.418804	-0.860162
H182	H	1.312190	-0.085471	-0.526828
H183	H	1.645523	0.247862	-0.193495
C184	C	1.057099	-0.279968	-0.935360
C185	C	1.390432	0.053366	-0.602026
C186	C	1.723765	0.386699	-0.268693
H187	H	1.026396	-0.249257	-0.964211
H188	H	1.359729	0.084076	-0.630878
H189	H	1.693062	0.417410	-0.297545
H190	H	1.087948	-0.244840	-0.909847
H191	H	1.421281	0.088493	-0.576513
H192	H	1.754614	0.421827	-0.243180
H193	H	1.021952	-0.310832	-0.909820
H194	H	1.355285	0.022501	-0.576487
H195	H	1.688619	0.355835	-0.243154
H196	H	1.071833	-0.294664	-1.063420
H197	H	1.405167	0.038670	-0.730086
H198	H	1.738500	0.372003	-0.396753
H199	H	1.297138	-0.399817	-0.861658
H200	H	1.630471	-0.066484	-0.528324
H201	H	1.963805	0.266850	-0.194991
H202	H	1.258850	-0.481784	-1.063456
H203	H	1.592183	-0.148450	-0.730123
H204	H	1.925517	0.184883	-0.396789
H205	H	1.297135	-0.399846	-0.742953
H206	H	1.630468	-0.066512	-0.409620
H207	H	1.963802	0.266821	-0.076286
H208	H	1.258842	-0.481820	-0.944745
H209	H	1.592176	-0.148487	-0.611412
H210	H	1.925509	0.184846	-0.278079
C211	C	1.273558	-0.496625	-0.669166
C212	C	1.606892	-0.163292	-0.335832
C213	C	1.940225	0.170042	-0.002499
H214	H	1.266187	-0.489220	-0.712821
H215	H	1.599521	-0.155887	-0.379487
H216	H	1.932854	0.177446	-0.046154
H217	H	1.261731	-0.550803	-0.658431
H218	H	1.595064	-0.217470	-0.325098
H219	H	1.928397	0.115863	0.008235
H220	H	1.327741	-0.484826	-0.658460
H221	H	1.661075	-0.151493	-0.325127
H222	H	1.994408	0.181840	0.008206
