data_functionalizedCrystal
_audit_creation_method	'MofGen! by Chris Wilmer'
_symmetry_space_group_name_H-M	'P1'
_symmetry_Int_Tables_number	1
_symmetry_cell_setting	triclinic
loop_
_symmetry_equiv_pos_as_xyz
  x,y,z
_cell_length_a	29.839131
_cell_length_b	29.839135
_cell_length_c	29.839126
_cell_angle_alpha	90.023409
_cell_angle_beta	89.975848
_cell_angle_gamma	89.956753
loop_
_atom_site_label
_atom_site_type_symbol
_atom_site_fract_x
_atom_site_fract_y
_atom_site_fract_z
Zn1	Zn	-0.178866	-0.686754	-0.254050
Zn2	Zn	-0.253986	-0.686676	-0.178920
Zn3	Zn	-0.178874	-0.611626	-0.178928
Zn4	Zn	-0.253972	-0.611584	-0.254017
O5	O	-0.216424	-0.649160	-0.216479
O6	O	-0.188834	-0.749610	-0.244095
O7	O	-0.244032	-0.676705	-0.116054
O8	O	-0.116005	-0.621642	-0.188911
O9	O	-0.244024	-0.749553	-0.188897
O10	O	-0.116000	-0.676838	-0.244103
O11	O	-0.188847	-0.621567	-0.116060
O12	O	-0.188833	-0.548754	-0.188878
O13	O	-0.244000	-0.621570	-0.316888
O14	O	-0.244007	-0.548723	-0.244045
O15	O	-0.188820	-0.676797	-0.316913
O16	O	-0.316852	-0.676664	-0.188865
O17	O	-0.316841	-0.621495	-0.244038
C18	C	-0.216420	-0.532437	-0.216459
C19	C	-0.216428	-0.482503	-0.216461
C20	C	-0.187724	-0.172886	-0.245261
C21	C	-0.187725	0.014787	-0.245272
O22	O	-0.163313	0.039029	-0.269738
N23	N	-0.216416	0.038282	-0.216492
C24	C	-0.245108	0.014856	-0.187705
O25	O	-0.269508	0.039147	-0.163223
C26	C	-0.245104	-0.172816	-0.187691
C27	C	-0.216414	-0.196309	-0.216476
C28	C	-0.159036	-0.196379	-0.274043
C29	C	-0.159038	-0.243295	-0.274042
C30	C	-0.187728	-0.266717	-0.245257
C31	C	-0.216416	-0.243224	-0.216475
C32	C	-0.273793	-0.196241	-0.158902
C33	C	-0.273788	-0.243162	-0.158900
C34	C	-0.245098	-0.266655	-0.187685
C35	C	-0.245108	-0.313562	-0.187689
N36	N	-0.216416	-0.337058	-0.216469
C37	C	-0.187726	-0.313635	-0.245254
C38	C	-0.245108	0.113387	-0.187715
C39	C	-0.245109	0.160305	-0.187719
C40	C	-0.187726	0.160232	-0.245286
C41	C	-0.187727	0.113313	-0.245284
C42	C	-0.216417	0.089892	-0.216495
C43	C	-0.187733	-0.412161	-0.245248
C44	C	-0.187738	-0.459081	-0.245246
C45	C	-0.245120	-0.459003	-0.187677
C46	C	-0.245116	-0.412088	-0.187681
C47	C	-0.216419	-0.388668	-0.216468
O48	O	-0.269504	-0.337833	-0.163233
O49	O	-0.163323	-0.337934	-0.269725
C50	C	-0.187722	-0.125971	-0.245262
C51	C	-0.216411	-0.102478	-0.216480
C52	C	-0.245100	-0.125900	-0.187695
C53	C	-0.216412	-0.055560	-0.216483
C54	C	-0.187722	-0.032138	-0.245268
C55	C	-0.159031	-0.055633	-0.274048
C56	C	-0.159033	-0.102549	-0.274046
C57	C	-0.273792	-0.102405	-0.158915
C58	C	-0.273788	-0.055489	-0.158919
C59	C	-0.245098	-0.032067	-0.187704
C60	C	-0.333147	-0.649079	-0.216457
C61	C	-0.383081	-0.649085	-0.216462
C62	C	-0.692718	-0.677939	-0.187792
C63	C	-0.880391	-0.677994	-0.187810
O64	O	-0.904649	-0.702462	-0.163416
N65	N	-0.903866	-0.649253	-0.216513
C66	C	-0.880421	-0.620498	-0.245216
O67	O	-0.904695	-0.596056	-0.269633
C68	C	-0.692749	-0.620445	-0.245200
C69	C	-0.669276	-0.649185	-0.216492
C70	C	-0.669244	-0.706677	-0.159087
C71	C	-0.622329	-0.706661	-0.159081
C72	C	-0.598887	-0.677907	-0.187781
C73	C	-0.622360	-0.649169	-0.216486
C74	C	-0.669304	-0.591693	-0.273905
C75	C	-0.622383	-0.591683	-0.273899
C76	C	-0.598910	-0.620423	-0.245191
C77	C	-0.552003	-0.620399	-0.245180
N78	N	-0.528527	-0.649141	-0.216477
C79	C	-0.551969	-0.677895	-0.187777
C80	C	-0.978952	-0.620527	-0.245221
C81	C	-1.025869	-0.620540	-0.245225
C82	C	-1.025836	-0.678037	-0.187819
C83	C	-0.978917	-0.678022	-0.187814
C84	C	-0.955476	-0.649268	-0.216518
C85	C	-0.453443	-0.677859	-0.187767
C86	C	-0.406524	-0.677839	-0.187762
C87	C	-0.406561	-0.620344	-0.245169
C88	C	-0.453477	-0.620362	-0.245173
C89	C	-0.476917	-0.649123	-0.216470
O90	O	-0.527715	-0.595948	-0.269564
O91	O	-0.527687	-0.702340	-0.163371
C92	C	-0.739633	-0.677955	-0.187798
C93	C	-0.763106	-0.649217	-0.216504
C94	C	-0.739664	-0.620463	-0.245203
C95	C	-0.810024	-0.649229	-0.216507
C96	C	-0.833466	-0.677983	-0.187807
C97	C	-0.809991	-0.706725	-0.159104
C98	C	-0.763075	-0.706709	-0.159098
C99	C	-0.763140	-0.591722	-0.273906
C100	C	-0.810056	-0.591740	-0.273910
C101	C	-0.833498	-0.620493	-0.245210
C102	C	-0.099246	-0.649254	-0.216511
C103	C	-0.049312	-0.649294	-0.216525
C104	C	-0.216407	-0.649188	-0.333657
C105	C	-0.216400	-0.649200	-0.383592
C106	C	-0.216427	0.233662	-0.216498
C107	C	-0.216420	0.183727	-0.216503
C108	C	-0.187620	-0.620498	-0.693241
C109	C	-0.187589	-0.620511	-0.880914
O110	O	-0.163164	-0.596085	-0.905184
N111	N	-0.216316	-0.649221	-0.904377
C112	C	-0.245054	-0.677928	-0.880919
O113	O	-0.269491	-0.702345	-0.905182
C114	C	-0.245087	-0.677913	-0.693246
C115	C	-0.216356	-0.649204	-0.669786
C116	C	-0.158891	-0.591791	-0.669781
C117	C	-0.158897	-0.591790	-0.622865
C118	C	-0.187633	-0.620496	-0.599410
C119	C	-0.216362	-0.649203	-0.622871
C120	C	-0.273828	-0.706617	-0.669789
C121	C	-0.273834	-0.706610	-0.622868
C122	C	-0.245103	-0.677901	-0.599408
C123	C	-0.245104	-0.677907	-0.552500
N124	N	-0.216377	-0.649197	-0.529037
C125	C	-0.187642	-0.620491	-0.552492
C126	C	-0.245034	-0.677935	-0.979449
C127	C	-0.245025	-0.677939	-1.026367
C128	C	-0.187561	-0.620521	-1.026360
C129	C	-0.187567	-0.620519	-0.979441
C130	C	-0.216307	-0.649224	-0.955987
C131	C	-0.187657	-0.620491	-0.453966
C132	C	-0.187664	-0.620494	-0.407047
C133	C	-0.245131	-0.677910	-0.407059
C134	C	-0.245122	-0.677909	-0.453974
C135	C	-0.216383	-0.649196	-0.477427
O136	O	-0.269519	-0.702316	-0.528201
O137	O	-0.163216	-0.596071	-0.528221
C138	C	-0.187614	-0.620499	-0.740157
C139	C	-0.216343	-0.649206	-0.763617
C140	C	-0.245078	-0.677912	-0.740162
C141	C	-0.216334	-0.649211	-0.810535
C142	C	-0.187599	-0.620505	-0.833990
C143	C	-0.158872	-0.591795	-0.810527
C144	C	-0.158878	-0.591793	-0.763612
C145	C	-0.273805	-0.706622	-0.763625
C146	C	-0.273796	-0.706621	-0.810540
C147	C	-0.245060	-0.677915	-0.833995
C148	C	-0.216409	-0.649158	-0.099756
C149	C	-0.216290	-0.649233	-0.049822
H150	H	-0.135672	-0.036554	-0.297486
H151	H	-0.164364	0.094188	-0.268722
H152	H	-0.268525	-0.701283	-0.387953
H153	H	-0.135473	-0.568423	-0.829632
Cl154	Cl	-0.839470	-0.742871	-0.123024
Cl155	Cl	-0.733573	-0.742843	-0.123008
H156	H	-0.268477	0.179429	-0.164284
H157	H	-0.268472	0.094322	-0.164270
Cl158	Cl	-0.281197	-0.382553	-0.151507
H159	H	-0.744057	-0.568307	-0.297278
Cl160	Cl	-0.309858	-0.025961	-0.122727
Cl161	Cl	-0.151656	-0.382726	-0.281439
Cl162	Cl	-0.281185	-0.488457	-0.151493
Cl163	Cl	-0.151447	-0.584426	-0.949953
Cl164	Cl	-0.377017	-0.713972	-0.151670
Cl165	Cl	-0.151437	-0.584433	-1.055854
H166	H	-0.164265	-0.597116	-0.387948
Cl167	Cl	-0.151658	0.189686	-0.281470
H168	H	-0.829164	-0.568332	-0.297287
H169	H	-0.135675	-0.262419	-0.297481
Cl170	Cl	-0.592826	-0.742800	-0.122995
H171	H	-0.959808	-0.701424	-0.164437
Cl172	Cl	-0.151525	-0.584398	-0.483443
Cl173	Cl	-0.122963	-0.132076	-0.310235
H174	H	-1.044978	-0.597133	-0.268598
Cl175	Cl	-1.055314	-0.714184	-0.151739
H176	H	-0.603300	-0.568269	-0.297275
H177	H	-0.135503	-0.568410	-0.603768
H178	H	-0.387467	-0.596931	-0.268535
Cl179	Cl	-0.482987	-0.584222	-0.281254
Cl180	Cl	-0.309858	-0.131843	-0.122721
H181	H	-0.135671	-0.177314	-0.297483
Cl182	Cl	-0.482903	-0.714015	-0.151682
Cl183	Cl	-0.309968	-0.742698	-0.593385
H184	H	-0.959869	-0.597112	-0.268596
H185	H	-0.688326	-0.730094	-0.135716
Cl186	Cl	-0.309853	-0.166718	-0.122703
Cl187	Cl	-0.281166	-0.714027	-0.949971
Cl188	Cl	-0.309919	-0.742717	-0.840027
H189	H	-0.135491	-0.568413	-0.688873
Cl190	Cl	-0.698802	-0.555565	-0.310003
H191	H	-0.268417	-0.701322	-1.045465
H192	H	-0.297225	-0.729994	-0.688882
Cl193	Cl	-0.281234	-0.714008	-0.483468
H194	H	-0.297207	-0.729996	-0.744532
Cl195	Cl	-0.122757	-0.555700	-0.734126
Cl196	Cl	-0.151669	-0.488612	-0.281437
Cl197	Cl	-0.309858	-0.272603	-0.122707
