data_functionalizedCrystal
_audit_creation_method	'MofGen! by Chris Wilmer'
_symmetry_space_group_name_H-M	'P1'
_symmetry_Int_Tables_number	1
_symmetry_cell_setting	triclinic
loop_
_symmetry_equiv_pos_as_xyz
  x,y,z
_cell_length_a	14.519709
_cell_length_b	9.065218
_cell_length_c	8.140239
_cell_angle_alpha	90.001686
_cell_angle_beta	89.997108
_cell_angle_gamma	84.348015
loop_
_atom_site_label
_atom_site_type_symbol
_atom_site_fract_x
_atom_site_fract_y
_atom_site_fract_z
O1	O	-1.225281	-0.193392	-0.136393
O2	O	-0.891948	0.139941	0.196941
O3	O	-0.558615	0.473275	0.530274
O4	O	-0.956971	-0.216167	-0.136442
O5	O	-0.623638	0.117167	0.196891
O6	O	-0.290304	0.450500	0.530225
O7	O	-1.096672	0.009967	-0.136413
O8	O	-0.763339	0.343300	0.196920
O9	O	-0.430005	0.676634	0.530254
O10	O	-1.085580	-0.419526	-0.136422
O11	O	-0.752247	-0.086192	0.196912
O12	O	-0.418914	0.247141	0.530245
O13	O	-1.096664	0.009970	0.136814
O14	O	-0.763331	0.343303	0.470148
O15	O	-0.429998	0.676636	0.803481
O16	O	-0.956963	-0.216164	0.136785
O17	O	-0.623630	0.117169	0.470118
O18	O	-0.290297	0.450502	0.803452
O19	O	-1.225273	-0.193389	0.136835
O20	O	-0.891940	0.139944	0.470168
O21	O	-0.558607	0.473277	0.803501
Zn22	Zn	-1.091117	-0.204776	0.180191
Zn23	Zn	-0.757784	0.128557	0.513524
Zn24	Zn	-0.424450	0.461890	0.846857
Zn25	Zn	-1.091127	-0.204780	-0.179798
Zn26	Zn	-0.757794	0.128554	0.153535
Zn27	Zn	-0.424461	0.461887	0.486869
O28	O	-1.085572	-0.419523	0.136806
O29	O	-0.752239	-0.086190	0.470139
O30	O	-0.418906	0.247143	0.803472
C31	C	-0.922600	-0.215104	0.000165
C32	C	-0.589266	0.118229	0.333499
C33	C	-0.255933	0.451563	0.666832
C34	C	-0.820195	-0.211923	0.000146
C35	C	-0.486862	0.121410	0.333480
C36	C	-0.153528	0.454743	0.666813
C37	C	-1.095602	0.064935	0.000198
C38	C	-0.762269	0.398268	0.333531
C39	C	-0.428936	0.731602	0.666865
C40	C	-1.092415	0.228718	0.000189
C41	C	-0.759082	0.562051	0.333523
C42	C	-0.425748	0.895385	0.666856
C43	C	-1.259645	-0.194452	0.000224
C44	C	-0.926312	0.138881	0.333557
C45	C	-0.592978	0.472214	0.666890
C46	C	-1.362049	-0.197633	0.000232
C47	C	-1.028716	0.135701	0.333565
C48	C	-0.695383	0.469034	0.666899
C49	C	-0.445214	-0.200214	0.000221
C50	C	-0.111880	0.133119	0.333555
C51	C	0.221453	0.466452	0.666888
C52	C	-0.549545	-0.203466	0.000200
C53	C	-0.216212	0.129868	0.333533
C54	C	0.117121	0.463201	0.666866
C55	C	-0.632701	-0.206068	0.000182
C56	C	-0.299368	0.127265	0.333515
C57	C	0.033966	0.460598	0.666849
C58	C	-0.737039	-0.209321	0.000164
C59	C	-0.403706	0.124012	0.333497
C60	C	-0.070373	0.457346	0.666831
C61	C	-1.086642	-0.474491	0.000191
C62	C	-0.753309	-0.141158	0.333525
C63	C	-0.419976	0.192176	0.666858
C64	C	-1.089830	-0.638274	0.000189
C65	C	-0.756496	-0.304941	0.333522
C66	C	-0.423163	0.028392	0.666856
N67	N	-1.091117	-0.204773	0.425873
N68	N	-0.757784	0.128560	0.759206
N69	N	-0.424450	0.461893	1.092540
N70	N	-1.091135	-0.204771	-0.425480
N71	N	-0.757802	0.128562	-0.092147
N72	N	-0.424468	0.461895	0.241186
