data_functionalizedCrystal
_audit_creation_method	'MofGen! by Chris Wilmer'
_symmetry_space_group_name_H-M	'P1'
_symmetry_Int_Tables_number	1
_symmetry_cell_setting	triclinic
loop_
_symmetry_equiv_pos_as_xyz
  x,y,z
_cell_length_a	13.339070
_cell_length_b	10.654545
_cell_length_c	9.730223
_cell_angle_alpha	89.996968
_cell_angle_beta	89.999517
_cell_angle_gamma	100.056187
loop_
_atom_site_label
_atom_site_type_symbol
_atom_site_fract_x
_atom_site_fract_y
_atom_site_fract_z
O1	O	0.142410	1.715928	-0.114271
O2	O	0.155985	1.355033	-0.114276
O3	O	0.001644	1.494061	-0.114270
O4	O	0.296751	1.576900	-0.114277
O5	O	0.001644	1.494048	0.114310
O6	O	0.155985	1.355019	0.114304
O7	O	0.142410	1.715915	0.114309
Zn8	Zn	0.149197	1.535465	0.150599
Zn9	Zn	0.149197	1.535483	-0.150565
O10	O	0.296751	1.576886	0.114303
C11	C	0.154989	1.307892	0.000013
C12	C	0.152010	1.167442	0.000011
C13	C	0.150607	1.101457	0.124611
C14	C	0.147791	0.969486	0.124611
C15	C	0.147784	0.969499	-0.124599
C16	C	0.150593	1.101466	-0.124598
C17	C	-0.036144	1.480062	0.000018
C18	C	-0.148738	1.438352	0.000012
C19	C	-0.511259	1.762665	0.000017
C20	C	-0.405472	1.801858	0.000031
C21	C	-0.341283	1.710985	0.000026
C22	C	-0.382892	1.580912	0.000008
C23	C	-0.488690	1.541716	0.000005
C24	C	-0.318714	1.490035	0.000013
C25	C	-0.360322	1.359963	-0.000004
C26	C	-0.466110	1.320773	-0.000008
C27	C	-0.530298	1.411646	-0.000003
C28	C	-0.212916	1.529232	0.000016
C29	C	-0.190346	1.308282	0.000004
C30	C	-0.296134	1.269090	-0.000010
C31	C	0.334538	1.590886	0.000012
C32	C	0.447132	1.632596	0.000009
C33	C	0.143406	1.763056	0.000017
C34	C	0.146385	1.903505	0.000010
N35	N	0.149197	1.535462	0.356135
N36	N	0.149190	1.535493	-0.356102
C37	C	0.211274	1.633254	0.428055
C38	C	0.211269	1.633273	0.571938
C39	C	0.087105	1.437695	0.571968
C40	C	0.087106	1.437682	0.428087
H41	H	-0.179049	1.635137	0.000031
H42	H	0.146649	0.915767	0.226073
N43	N	0.278235	1.738742	0.649506
H44	H	0.268814	1.723920	0.751573
H45	H	0.258890	1.823331	0.624338
H46	H	0.151761	1.155171	0.226076
H47	H	-0.371602	1.907762	0.000047
H48	H	0.146632	0.915766	-0.226052
H49	H	0.036554	1.358086	0.630569
N50	N	-0.341026	1.128805	-0.000012
H51	H	-0.317686	1.087319	0.084722
H52	H	-0.317672	1.087434	-0.084803
N53	N	0.020153	1.332200	0.350499
H54	H	-0.029071	1.369727	0.290799
H55	H	-0.019109	1.270289	0.417994
H56	H	0.151732	1.155192	-0.226068
N57	N	-0.580487	1.860668	0.000047
H58	H	-0.653818	1.816098	0.000050
H59	H	-0.566932	1.915776	-0.084683
H60	H	-0.255147	1.742903	0.000037
H61	H	0.261832	1.712872	0.369476
N62	N	-0.121128	1.210256	0.000015
H63	H	-0.047796	1.254822	0.000018
H64	H	-0.134684	1.155164	-0.084720
H65	H	-0.499984	1.214860	-0.000012
H66	H	-0.616440	1.379742	-0.000019
