data_functionalizedCrystal
_audit_creation_method	'MofGen! by Chris Wilmer'
_symmetry_space_group_name_H-M	'P1'
_symmetry_Int_Tables_number	1
_symmetry_cell_setting	triclinic
loop_
_symmetry_equiv_pos_as_xyz
  x,y,z
_cell_length_a	22.610064
_cell_length_b	14.519709
_cell_length_c	14.519709
_cell_angle_alpha	96.319856
_cell_angle_beta	89.992077
_cell_angle_gamma	89.991569
loop_
_atom_site_label
_atom_site_type_symbol
_atom_site_fract_x
_atom_site_fract_y
_atom_site_fract_z
O1	O	0.049099	-1.223881	0.120881
O2	O	0.049116	-0.955404	0.135118
O3	O	0.049113	-1.096761	-0.006239
O4	O	0.049103	-1.082525	0.262238
O5	O	-0.049257	-1.096721	-0.006223
O6	O	-0.049253	-0.955364	0.135134
O7	O	-0.049270	-1.223841	0.120897
Zn8	Zn	-0.064880	-1.089597	0.128018
Zn9	Zn	0.064726	-1.089649	0.127997
O10	O	-0.049266	-1.082485	0.262254
C11	C	-0.000066	-0.921025	0.134462
C12	C	-0.000059	-0.818643	0.132474
C13	C	-0.000069	-1.096078	-0.040591
C14	C	-0.000061	-1.094089	-0.142972
N15	N	-0.153332	-1.089567	0.128032
C16	C	-0.438167	-1.033604	0.071932
C17	C	-0.376248	-1.033595	0.071936
O18	O	-0.344218	-0.985975	0.024241
N19	N	-0.345284	-1.089606	0.128002
C20	C	-0.376244	-1.145636	0.184061
O21	O	-0.344222	-1.193277	0.231749
C22	C	-0.438163	-1.145649	0.184051
C23	C	-0.469123	-1.089627	0.127988
C24	C	-0.469127	-0.977588	0.015872
C25	C	-0.531043	-0.977595	0.015869
C26	C	-0.561999	-1.033619	0.071926
C27	C	-0.531039	-1.089635	0.127985
C28	C	-0.469122	-1.201683	0.240104
C29	C	-0.531045	-1.201692	0.240088
C30	C	-0.562005	-1.145671	0.184025
C31	C	-0.623910	-1.145667	0.184038
N32	N	-0.654873	-1.089656	0.127972
C33	C	-0.623918	-1.033632	0.071916
C34	C	-0.246211	-1.145605	0.184076
C35	C	-0.184293	-1.145588	0.184092
C36	C	-0.184301	-1.033548	0.071966
C37	C	-0.246219	-1.033561	0.071956
C38	C	-0.277174	-1.089595	0.128010
C39	C	-0.753945	-1.033652	0.071914
C40	C	-0.815866	-1.033662	0.071919
C41	C	-0.815853	-1.145705	0.184042
C42	C	-0.753937	-1.145692	0.184041
C43	C	-0.722985	-1.089663	0.127970
O44	O	-0.655979	-1.193266	0.231707
O45	O	-0.655947	-0.986008	0.024226
N46	N	0.153178	-1.089686	0.127976
C47	C	-0.000086	-1.258221	0.121553
C48	C	-0.000090	-1.360602	0.123541
C49	C	-0.000086	-0.443748	0.125154
C50	C	-0.000078	-0.548056	0.127187
C51	C	-0.000072	-0.631192	0.128814
C52	C	-0.000065	-0.735507	0.130847
C53	C	-0.000083	-1.083168	0.296606
C54	C	-0.000087	-1.085156	0.398987
C55	C	-0.000064	-1.092476	0.773883
C56	C	-0.000071	-1.090443	0.669575
C57	C	-0.000076	-1.088816	0.586438
C58	C	-0.000082	-1.086783	0.482123
H59	H	-0.728751	-0.988028	0.026256
H60	H	-0.841071	-0.988039	0.026266
C61	C	-0.684291	-1.269727	0.190083
C62	C	-0.719903	-1.207267	0.245669
H63	H	-0.663281	-1.307743	0.228128
H64	H	-0.708440	-1.307442	0.147734
H65	H	-0.656992	-1.236354	0.156702
H66	H	-0.747205	-1.240641	0.279044
H67	H	-0.695751	-1.169549	0.288035
C68	C	-0.315857	-1.151581	0.308131
C69	C	-0.280236	-1.207192	0.245706
H70	H	-0.336862	-1.189605	0.346172
H71	H	-0.291713	-1.109203	0.345823
H72	H	-0.343159	-1.118233	0.274732
H73	H	-0.252930	-1.240535	0.279106
H74	H	-0.304381	-1.249587	0.208010
C75	C	-0.475361	-1.312452	0.350905
C76	C	-0.435102	-1.263274	0.301722
H77	H	-0.454358	-1.350483	0.388941
H78	H	-0.499518	-1.270076	0.388600
H79	H	-0.499504	-1.350160	0.308525
H80	H	-0.410962	-1.225561	0.344102
H81	H	-0.410934	-1.305656	0.264023
H82	H	-0.159091	-1.191195	0.229755
C83	C	-0.600690	-1.207676	0.364138
C84	C	-0.565071	-1.263285	0.301708
H85	H	-0.621697	-1.245702	0.402175
H86	H	-0.576545	-1.165304	0.401834
H87	H	-0.627991	-1.174322	0.330742
H88	H	-0.537767	-1.296635	0.335104
H89	H	-0.589218	-1.305674	0.264008
H90	H	-0.271423	-0.987943	0.026304
H91	H	-0.159085	-0.987930	0.026321
H92	H	-0.443930	-0.931966	-0.029780
C93	C	-0.834904	-1.300247	0.220586
C94	C	-0.849887	-1.207289	0.245653
H95	H	-0.855915	-1.338269	0.258623
H96	H	-0.845040	-1.317266	0.157527
H97	H	-0.793597	-1.308251	0.228624
H98	H	-0.891194	-1.199284	0.237609
H99	H	-0.839756	-1.190265	0.308727
C100	C	-0.524818	-0.866862	-0.094971
C101	C	-0.565072	-0.916028	-0.045768
H102	H	-0.545825	-0.828858	-0.133030
H103	H	-0.500683	-0.829134	-0.052610
H104	H	-0.500653	-0.909252	-0.132653
H105	H	-0.589234	-0.873638	-0.008080
H106	H	-0.589217	-0.953758	-0.088133
