data_functionalizedCrystal
_audit_creation_method	'MofGen! by Chris Wilmer'
_symmetry_space_group_name_H-M	'P1'
_symmetry_Int_Tables_number	1
_symmetry_cell_setting	triclinic
loop_
_symmetry_equiv_pos_as_xyz
  x,y,z
_cell_length_a	15.995343
_cell_length_b	15.944493
_cell_length_c	15.072220
_cell_angle_alpha	90.004743
_cell_angle_beta	89.991823
_cell_angle_gamma	83.482114
loop_
_atom_site_label
_atom_site_type_symbol
_atom_site_fract_x
_atom_site_fract_y
_atom_site_fract_z
O1	O	1.110984	0.108236	-0.073682
O2	O	1.610984	0.608236	0.426318
O3	O	0.867205	0.121613	-0.073702
O4	O	1.367205	0.621613	0.426298
O5	O	0.995777	-0.007354	-0.073699
O6	O	1.495777	0.492646	0.426301
O7	O	0.982412	0.237203	-0.073685
O8	O	1.482412	0.737203	0.426315
O9	O	0.995745	-0.007347	0.073867
O10	O	1.495745	0.492653	0.573867
O11	O	0.867174	0.121620	0.073863
O12	O	1.367174	0.621620	0.573863
O13	O	1.110952	0.108243	0.073883
O14	O	1.610952	0.608243	0.573883
Zn15	Zn	0.989058	0.114933	0.097303
Zn16	Zn	1.489058	0.614933	0.597303
Zn17	Zn	0.989099	0.114923	-0.097121
Zn18	Zn	1.489099	0.614923	0.402879
O19	O	0.982380	0.237210	0.073880
O20	O	1.482380	0.737210	0.573880
C21	C	0.835995	0.121065	0.000078
C22	C	1.335995	0.621065	0.500078
C23	C	0.743044	0.119410	0.000070
C24	C	1.243044	0.619410	0.500070
C25	C	0.572858	0.116407	0.000082
C26	C	1.072858	0.616407	0.500082
C27	C	0.549527	0.023312	0.000076
C28	C	1.049527	0.523312	0.500076
C29	C	0.452849	0.021561	0.000416
C30	C	0.952849	0.521561	0.500416
C31	C	0.405299	0.113449	0.000092
C32	C	0.905299	0.613449	0.500092
C33	C	0.434365	0.160263	0.084194
C34	C	0.934365	0.660263	0.584194
C35	C	0.531157	0.161367	0.084260
C36	C	1.031157	0.661367	0.584260
C37	C	0.531104	0.162722	-0.083555
C38	C	1.031104	0.662722	0.416445
C39	C	0.434610	0.159285	-0.084656
C40	C	0.934610	0.659285	0.415344
C41	C	0.310601	0.111782	0.000101
C42	C	0.810601	0.611782	0.500101
C43	C	0.667556	0.118077	0.000079
C44	C	1.167556	0.618077	0.500079
C45	C	0.995215	-0.038645	0.000080
C46	C	1.495215	0.461355	0.500080
C47	C	0.993577	-0.131894	0.000069
C48	C	1.493577	0.368106	0.500069
C49	C	1.069257	-0.367660	0.000092
C50	C	1.569257	0.132340	0.500092
C51	C	1.028461	-0.418228	-0.072668
C52	C	1.528461	0.081772	0.427332
C53	C	0.990543	-0.302615	0.000079
C54	C	1.490543	0.197385	0.500079
C55	C	1.028412	-0.418197	0.072819
C56	C	1.528412	0.081803	0.572819
C57	C	0.987617	-0.467524	0.000094
C58	C	1.487617	0.032476	0.500094
C59	C	0.949768	-0.351955	-0.072741
C60	C	1.449768	0.148045	0.427259
C61	C	0.949730	-0.351920	0.072812
C62	C	1.449730	0.148080	0.572812
C63	C	0.908876	-0.402456	0.000034
C64	C	1.408876	0.097544	0.500034
C65	C	0.992230	-0.207615	0.000071
C66	C	1.492230	0.292385	0.500071
C67	C	0.985924	-0.562521	0.000096
C68	C	1.485924	-0.062521	0.500096
C69	C	1.142162	0.108791	0.000102
C70	C	1.642162	0.608791	0.500102
C71	C	1.235113	0.110446	0.000104
C72	C	1.735113	0.610446	0.500104
C73	C	0.982942	0.268502	0.000100
C74	C	1.482942	0.768502	0.500100
C75	C	0.984580	0.361750	0.000105
C76	C	1.484580	0.861750	0.500105
N77	N	0.989035	0.114939	0.229991
N78	N	1.489035	0.614939	0.729991
N79	N	0.989129	0.114911	-0.229810
N80	N	1.489129	0.614911	0.270190
C81	C	0.989098	0.114920	0.589193
C82	C	1.489098	0.614920	1.089193
C83	C	0.920071	0.183696	0.551584
C84	C	1.420071	0.683696	1.051584
C85	C	0.920229	0.183948	0.448759
C86	C	1.420229	0.683948	0.948759
C87	C	0.989066	0.114929	0.410989
C88	C	1.489066	0.614929	0.910989
C89	C	1.076428	0.134070	0.448289
C90	C	1.576428	0.634070	0.948289
C91	C	1.076041	0.134559	0.551147
C92	C	1.576041	0.634559	1.051147
C93	C	0.971542	0.026799	0.551286
C94	C	1.471542	0.526799	1.051286
C95	C	0.969537	0.027387	0.448423
C96	C	1.469537	0.527387	0.948423
C97	C	0.989054	0.114933	0.310275
C98	C	1.489054	0.614933	0.810275
C99	C	0.989116	0.114918	0.689906
C100	C	1.489116	0.614918	1.189906
H101	H	0.434405	-0.014906	0.061053
H102	H	0.934405	0.485094	0.561053
H103	H	1.092271	0.197603	0.422525
H104	H	1.592271	0.697603	0.922525
H105	H	0.578504	-0.012181	0.060293
H106	H	1.078504	0.487819	0.560293
H107	H	1.061717	-0.447180	-0.134177
H108	H	1.561717	0.052820	0.365823
H109	H	1.021880	-0.024382	0.575606
H110	H	1.521880	0.475618	1.075606
H111	H	0.905272	0.012861	0.424044
H112	H	1.405272	0.512861	0.924044
H113	H	0.433848	-0.015084	-0.059859
H114	H	0.933848	0.484916	0.440141
H115	H	0.909221	0.008394	0.577270
H116	H	1.409221	0.508394	1.077270
H117	H	0.841021	-0.417916	-0.000011
H118	H	1.341021	0.082084	0.499989
H119	H	0.916558	-0.323135	-0.134320
H120	H	1.416558	0.176865	0.365680
H121	H	1.129010	0.086440	0.576023
H122	H	1.629010	0.586440	1.076023
H123	H	0.854922	0.172481	0.576339
H124	H	1.354922	0.672481	1.076339
H125	H	0.577553	-0.012775	-0.060225
H126	H	1.077553	0.487225	0.439775
H127	H	0.557934	0.129331	0.147362
H128	H	1.057934	0.629331	0.647362
H129	H	0.916503	-0.322954	0.134323
H130	H	1.416503	0.177046	0.634323
H131	H	0.414265	0.128148	0.147017
H132	H	0.914265	0.628148	0.647017
H133	H	0.545720	0.229636	0.087860
H134	H	1.045720	0.729636	0.587860
H135	H	0.402508	0.227890	0.087089
H136	H	0.902508	0.727890	0.587089
H137	H	0.931438	0.249341	0.424150
H138	H	1.431438	0.749341	0.924150
H139	H	1.016548	-0.026191	0.422715
H140	H	1.516548	0.473809	0.922715
H141	H	1.061657	-0.447128	0.134328
H142	H	1.561657	0.052872	0.634328
H143	H	0.855291	0.172544	0.423541
H144	H	1.355291	0.672544	0.923541
H145	H	0.559392	0.133347	-0.147321
H146	H	1.059392	0.633347	0.352679
H147	H	0.416071	0.125193	-0.146875
H148	H	0.916071	0.625193	0.353125
H149	H	0.931126	0.248721	0.577428
H150	H	1.431126	0.748721	1.077428
H151	H	1.091514	0.198824	0.575133
H152	H	1.591514	0.698824	1.075133
H153	H	0.401644	0.226332	-0.089990
H154	H	0.901644	0.726332	0.410010
H155	H	1.129020	0.085309	0.423821
H156	H	1.629020	0.585309	0.923821
H157	H	1.137060	-0.352037	0.000024
H158	H	1.637060	0.147963	0.500024
H159	H	0.545107	0.231245	-0.084362
H160	H	1.045107	0.731245	0.415638
