data_functionalizedCrystal
_audit_creation_method	'MofGen! by Chris Wilmer'
_symmetry_space_group_name_H-M	'P1'
_symmetry_Int_Tables_number	1
_symmetry_cell_setting	triclinic
loop_
_symmetry_equiv_pos_as_xyz
  x,y,z
_cell_length_a	17.699083
_cell_length_b	15.995350
_cell_length_c	16.176319
_cell_angle_alpha	89.995430
_cell_angle_beta	89.998611
_cell_angle_gamma	83.387695
loop_
_atom_site_label
_atom_site_type_symbol
_atom_site_fract_x
_atom_site_fract_y
_atom_site_fract_z
O1	O	1.004255	0.105885	-0.068627
O2	O	0.783899	0.119661	-0.068653
O3	O	0.900101	-0.009127	-0.068638
O4	O	0.888054	0.234673	-0.068641
O5	O	0.900085	-0.009135	0.068855
O6	O	0.783883	0.119653	0.068840
O7	O	1.004239	0.105877	0.068867
Cu8	Cu	0.894060	0.112764	0.081408
Cu9	Cu	0.894079	0.112774	-0.081194
O10	O	0.888038	0.234665	0.068852
C11	C	0.755694	0.119163	0.000090
C12	C	0.671673	0.117683	0.000080
C13	C	0.623178	0.193278	0.000079
C14	C	0.544232	0.191882	0.000090
C15	C	0.513783	0.114889	0.000095
C16	C	0.562285	0.039287	0.000098
C17	C	0.641229	0.040685	0.000094
C18	C	0.243912	0.033651	0.000119
C19	C	0.164962	0.032259	0.000121
C20	C	0.146916	0.184848	0.000115
C21	C	0.225860	0.186245	0.000110
C22	C	0.274354	0.110644	0.000118
C23	C	0.359956	0.112159	0.000108
C24	C	0.428183	0.113373	0.000099
C25	C	0.899595	-0.040324	0.000107
C26	C	0.898101	-0.133272	0.000102
C27	C	0.892739	-0.471008	0.000104
C28	C	0.809983	-0.423406	-0.000214
C29	C	0.811476	-0.326719	0.000096
C30	C	0.895399	-0.303453	0.000102
C31	C	0.936208	-0.344618	0.078621
C32	C	0.934129	-0.441250	0.078687
C33	C	0.935857	-0.441602	-0.077669
C34	C	0.935838	-0.344657	-0.078706
C35	C	0.896907	-0.208759	0.000104
C36	C	0.891234	-0.565703	0.000108
C37	C	1.032445	0.106375	0.000122
C38	C	1.116465	0.107856	0.000126
C39	C	0.888544	0.265863	0.000105
C40	C	0.890037	0.358810	0.000104
N41	N	0.894052	0.112757	0.195773
N42	N	0.894092	0.112775	-0.195559
C43	C	0.945521	0.055753	0.239043
C44	C	0.945525	0.055752	0.325591
C45	C	0.894063	0.112760	0.368865
C46	C	0.842588	0.169767	0.325589
C47	C	0.842581	0.169763	0.239043
C48	C	0.842614	0.169782	0.674617
C49	C	0.842626	0.169783	0.761168
C50	C	0.945558	0.055772	0.761164
C51	C	0.945551	0.055768	0.674619
C52	C	0.894074	0.112771	0.631350
C53	C	0.894069	0.112770	0.537505
C54	C	0.894070	0.112765	0.462708
H55	H	0.680714	-0.020873	0.000094
H56	H	0.779168	-0.298792	0.056470
H57	H	0.987435	0.009335	0.360821
C58	C	1.002175	-0.006941	0.808763
H59	H	0.994806	0.001216	0.866504
H60	H	1.052683	0.002083	0.794573
H61	H	0.993953	-0.062814	0.794583
H62	H	0.987431	0.009334	0.203815
C63	C	0.297246	-0.049507	0.000121
H64	H	0.267803	-0.095559	0.000117
H65	H	0.328418	-0.052139	0.048067
H66	H	0.328416	-0.052133	-0.047832
C67	C	0.785968	0.232470	0.191445
H68	H	0.755324	0.266429	0.229612
H69	H	0.754462	0.202393	0.157691
H70	H	0.813193	0.267289	0.157677
C71	C	0.528793	-0.045403	0.000103
H72	H	0.474831	-0.035410	0.000097
H73	H	0.545439	-0.076528	0.048049
H74	H	0.545440	-0.076517	-0.047851
H75	H	0.987459	0.009350	0.639387
H76	H	0.800716	0.216208	0.796401
H77	H	0.906001	-0.317344	-0.136792
H78	H	0.800700	0.216198	0.639394
C79	C	0.259349	0.270937	0.000108
H80	H	0.219160	0.315760	0.000117
H81	H	0.289771	0.274659	-0.047839
H82	H	0.289770	0.274646	0.048061
C83	C	0.785981	0.232475	0.373188
H84	H	0.793361	0.224321	0.430930
H85	H	0.735470	0.223454	0.359015
H86	H	0.794203	0.288348	0.358994
H87	H	0.779397	-0.298228	-0.056190
H88	H	0.647962	0.255975	0.000074
H89	H	0.776912	-0.441867	-0.056522
H90	H	0.777046	-0.442936	0.055772
H91	H	0.504750	0.253440	0.000088
C92	C	0.093570	0.268009	0.000118
H93	H	0.042192	0.256154	0.000131
H94	H	0.102797	0.299588	-0.047831
H95	H	0.102804	0.299583	0.048068
H96	H	0.904358	-0.459494	0.137376
C97	C	0.131470	-0.052437	0.000135
H98	H	0.171657	-0.097263	0.000148
H99	H	0.101048	-0.056155	-0.047809
H100	H	0.101050	-0.056146	0.048091
C101	C	1.018523	-0.324101	-0.085098
H102	H	1.041537	-0.349782	-0.133237
H103	H	1.046106	-0.344982	-0.037612
H104	H	1.018938	-0.264856	-0.088395
C105	C	1.016203	-0.484986	0.083522
H106	H	1.050667	-0.443672	0.085444
H107	H	1.026650	-0.519522	0.036180
H108	H	1.021928	-0.518733	0.131942
C109	C	1.019497	-0.325703	0.082582
H110	H	1.030146	-0.292449	0.036276
H111	H	1.052315	-0.377057	0.081858
H112	H	1.027408	-0.295915	0.132054
H113	H	0.908807	-0.462083	-0.137181
C114	C	0.897896	-0.306220	0.157552
H115	H	0.857037	-0.265112	0.142823
H116	H	0.934037	-0.280556	0.189324
H117	H	0.878959	-0.349308	0.189196
C118	C	1.018280	-0.484681	-0.078384
H119	H	1.026407	-0.520419	-0.031544
H120	H	1.052474	-0.443089	-0.076659
H121	H	1.026801	-0.517132	-0.127385
