data_functionalizedCrystal
_audit_creation_method	'MofGen! by Chris Wilmer'
_symmetry_space_group_name_H-M	'P1'
_symmetry_Int_Tables_number	1
_symmetry_cell_setting	triclinic
loop_
_symmetry_equiv_pos_as_xyz
  x,y,z
_cell_length_a	23.532407
_cell_length_b	10.654550
_cell_length_c	9.130313
_cell_angle_alpha	90.003780
_cell_angle_beta	89.994125
_cell_angle_gamma	96.333210
loop_
_atom_site_label
_atom_site_type_symbol
_atom_site_fract_x
_atom_site_fract_y
_atom_site_fract_z
O1	O	0.079982	-1.665300	-0.121936
O2	O	0.087603	-1.299580	-0.121914
O3	O	0.000933	-1.493468	-0.121899
O4	O	0.166652	-1.471412	-0.121952
O5	O	0.000935	-1.493466	0.121700
O6	O	0.087605	-1.299578	0.121684
O7	O	0.079985	-1.665298	0.121662
Cu8	Cu	0.083795	-1.482437	0.143916
Cu9	Cu	0.083792	-1.482440	-0.144168
O10	O	0.166655	-1.471409	0.121647
C11	C	0.087044	-1.252799	-0.000112
C12	C	0.085370	-1.113408	-0.000102
C13	C	-0.020286	-1.492905	-0.000096
C14	C	-0.083514	-1.491217	-0.000085
C15	C	0.080543	-1.712079	-0.000143
C16	C	0.082217	-1.851469	-0.000163
C17	C	-0.481938	-1.595364	-0.000171
C18	C	-0.541349	-1.593795	-0.000182
O19	O	-0.577464	-1.690341	-0.000242
N20	N	-0.564726	-1.478529	-0.000174
C21	C	-0.528689	-1.364824	-0.000170
O22	O	-0.554029	-1.266636	-0.000166
C23	C	-0.469280	-1.366394	-0.000170
C24	C	-0.445906	-1.481668	-0.000163
C25	C	-0.458564	-1.710629	-0.000166
C26	C	-0.399158	-1.712197	-0.000152
C27	C	-0.363126	-1.598500	-0.000144
C28	C	-0.386500	-1.483236	-0.000149
C29	C	-0.433244	-1.252690	-0.000176
C30	C	-0.373832	-1.254270	-0.000177
C31	C	-0.350458	-1.369544	-0.000170
C32	C	-0.291061	-1.371107	-0.000127
N33	N	-0.267684	-1.486374	-0.000135
C34	C	-0.303716	-1.600070	-0.000143
C35	C	-0.653453	-1.361535	-0.000174
C36	C	-0.712861	-1.359964	-0.000164
C37	C	-0.725517	-1.588936	-0.000179
C38	C	-0.666108	-1.590506	-0.000178
C39	C	-0.630076	-1.476802	-0.000182
C40	C	-0.178958	-1.603355	-0.000113
C41	C	-0.119546	-1.604913	-0.000093
C42	C	-0.106896	-1.375942	-0.000086
C43	C	-0.166303	-1.374383	-0.000098
C44	C	-0.202333	-1.488100	-0.000117
O45	O	-0.254911	-1.274613	-0.000073
O46	O	-0.278369	-1.698241	-0.000167
C47	C	0.187873	-1.471972	-0.000159
C48	C	0.251101	-1.473661	-0.000180
N49	N	0.083797	-1.482445	0.346539
C50	C	0.136400	-1.032306	-0.000140
C51	C	0.134824	-0.901335	-0.000165
C52	C	0.031183	-0.932582	-0.000121
C53	C	0.032760	-1.063550	-0.000085
C54	C	0.189010	-1.082164	-0.000157
C55	C	0.240045	-1.001060	-0.000196
C56	C	0.238468	-0.870089	-0.000221
C57	C	0.185858	-0.820222	-0.000206
N58	N	0.083786	-1.482443	-0.346791
C59	C	0.045432	-1.568320	0.423197
C60	C	0.045425	-1.568317	0.576534
C61	C	0.122152	-1.396559	0.576540
C62	C	0.122156	-1.396557	0.423206
C63	C	0.007073	-1.654207	0.346530
C64	C	-0.031294	-1.740090	0.423189
C65	C	-0.031301	-1.740087	0.576526
C66	C	0.007059	-1.654201	0.653204
H67	H	-0.100519	-1.698787	-0.000084
O68	O	-0.019968	-0.884353	-0.000058
C69	C	-0.064672	-0.984023	-0.000058
H70	H	-0.048358	-1.072790	0.046088
H71	H	-0.101370	-0.957086	0.070660
H72	H	-0.080436	-1.002789	-0.116917
O73	O	0.190469	-1.209409	0.000062
C74	C	0.162590	-1.261707	0.126265
H75	H	0.131426	-1.195345	0.168335
H76	H	0.138166	-1.357010	0.097917
H77	H	0.195630	-1.275056	0.214592
H78	H	-0.008793	-1.129587	-0.000059
O79	O	-0.213871	-1.713933	-0.000060
C80	C	-0.180490	-1.815992	-0.000089
H81	H	-0.136290	-1.783528	0.046035
H82	H	-0.202080	-1.895611	0.070634
H83	H	-0.176108	-1.851365	-0.116954
H84	H	-0.077548	-1.283373	-0.000074
H85	H	0.007047	-1.654197	0.778061
H86	H	0.007076	-1.654220	0.221675
H87	H	-0.062529	-1.810010	0.360750
H88	H	0.153395	-1.326628	0.360790
O89	O	0.184252	-0.693019	-0.000419
C90	C	0.155312	-0.657856	-0.126600
H91	H	0.125963	-0.742462	-0.168638
H92	H	0.128781	-0.577913	-0.098235
H93	H	0.187788	-0.624759	-0.214957
O94	O	0.291196	-1.049286	-0.000141
C95	C	0.335899	-0.949613	-0.000212
H96	H	0.319584	-0.860825	0.045895
H97	H	0.372598	-0.976513	0.070504
H98	H	0.351662	-0.930904	-0.117088
O99	O	-0.068648	-1.823454	0.650832
C100	C	-0.125108	-1.803740	0.613392
H101	H	-0.125239	-1.755337	0.502064
H102	H	-0.152752	-1.898484	0.608139
H103	H	-0.142988	-1.741462	0.699694
O104	O	-0.376551	-1.824285	-0.000223
C105	C	-0.421103	-1.924286	-0.000198
H106	H	-0.461591	-1.889587	-0.046315
H107	H	-0.408368	-2.004813	-0.070929
H108	H	-0.429376	-1.959321	0.116665
O109	O	-0.493584	-1.821051	-0.000431
C110	C	-0.528335	-1.827009	-0.126571
H111	H	-0.506844	-1.762512	-0.214756
H112	H	-0.534594	-1.928250	-0.168915
H113	H	-0.571665	-1.795085	-0.098045
H114	H	-0.185334	-1.280517	-0.000063
O115	O	0.288002	-0.791178	-0.000451
C116	C	0.290193	-0.714539	-0.126651
H117	H	0.244963	-0.708489	-0.168691
H118	H	0.311019	-0.615824	-0.098311
H119	H	0.316367	-0.757328	-0.214997
O120	O	0.159358	-1.312968	0.650957
C121	C	0.149585	-1.188781	0.613478
H122	H	0.103990	-1.188742	0.571328
H123	H	0.155865	-1.125685	0.714325
H124	H	0.180998	-1.151496	0.524479
O125	O	-0.735536	-1.247954	-0.000415
C126	C	-0.717143	-1.178684	-0.126552
H127	H	-0.704513	-1.246107	-0.214731
H128	H	-0.753335	-1.125711	-0.168906
H129	H	-0.678710	-1.108221	-0.098017
O130	O	-0.760502	-1.699417	0.000058
C131	C	-0.749841	-1.769475	0.126194
H132	H	-0.729808	-1.702933	0.214388
H133	H	-0.791788	-1.820361	0.168525
H134	H	-0.719307	-1.841781	0.097667
H135	H	-0.647081	-1.684372	-0.000174
H136	H	-0.624119	-1.268937	-0.000164
O137	O	-0.456005	-1.140788	-0.000393
C138	C	-0.489968	-1.133018	-0.126585
H139	H	-0.504372	-1.232184	-0.168632
H140	H	-0.529061	-1.083432	-0.098232
H141	H	-0.463936	-1.077156	-0.214932
H142	H	-0.344497	-1.161675	-0.000182
