data_functionalizedCrystal
_audit_creation_method	'MofGen! by Chris Wilmer'
_symmetry_space_group_name_H-M	'P1'
_symmetry_Int_Tables_number	1
_symmetry_cell_setting	triclinic
loop_
_symmetry_equiv_pos_as_xyz
  x,y,z
_cell_length_a	17.077404
_cell_length_b	17.077402
_cell_length_c	17.077396
_cell_angle_alpha	90.027528
_cell_angle_beta	90.018362
_cell_angle_gamma	90.021463
loop_
_atom_site_label
_atom_site_type_symbol
_atom_site_fract_x
_atom_site_fract_y
_atom_site_fract_z
Zn1	Zn	1.200051	-0.312551	0.443824
Zn2	Zn	1.700051	0.187449	0.943824
Zn3	Zn	1.199957	-0.443826	0.312560
Zn4	Zn	1.699957	0.056174	0.812560
Zn5	Zn	1.068783	-0.312573	0.312575
Zn6	Zn	1.568783	0.187427	0.812575
Zn7	Zn	1.068750	-0.443774	0.443786
Zn8	Zn	1.568750	0.056226	0.943786
O9	O	1.134385	-0.378181	0.378186
O10	O	1.634385	0.121819	0.878186
O11	O	1.309886	-0.329977	0.426421
O12	O	1.809886	0.170023	0.926421
O13	O	1.182531	-0.426446	0.202715
O14	O	1.682531	0.073554	0.702715
O15	O	1.086250	-0.202723	0.330007
O16	O	1.586250	0.297277	0.830007
O17	O	1.309816	-0.426424	0.329982
O18	O	1.809816	0.073576	0.829982
O19	O	1.182692	-0.202707	0.426435
O20	O	1.682692	0.297293	0.926435
O21	O	1.086158	-0.330015	0.202726
O22	O	1.586158	0.169985	0.702726
O23	O	0.958932	-0.329965	0.329970
O24	O	1.458932	0.170035	0.829970
O25	O	1.086193	-0.426336	0.553638
O26	O	1.586193	0.073664	1.053638
O27	O	0.958907	-0.426357	0.426371
O28	O	1.458907	0.073643	0.926371
O29	O	1.182659	-0.329927	0.553666
O30	O	1.682659	0.170073	1.053666
O31	O	1.182499	-0.553666	0.329946
O32	O	1.682499	-0.053666	0.829946
O33	O	1.086101	-0.553628	0.426357
O34	O	1.586101	-0.053628	0.926357
C35	C	0.930437	-0.378158	0.378169
C36	C	1.430437	0.121842	0.878169
C37	C	0.843188	-0.378168	0.378180
C38	C	1.343188	0.121832	0.878180
C39	C	0.802234	-0.328037	0.428472
C40	C	1.302234	0.171963	0.928472
C41	C	0.720254	-0.328042	0.428476
C42	C	1.220254	0.171958	0.928476
C43	C	0.679228	-0.378183	0.378190
C44	C	1.179228	0.121817	0.878190
C45	C	0.720187	-0.428315	0.327892
C46	C	1.220187	0.071685	0.827892
C47	C	0.802166	-0.428306	0.327885
C48	C	1.302166	0.071694	0.827885
C49	C	0.549317	-0.428333	0.327912
C50	C	1.049317	0.071667	0.827912
C51	C	0.467333	-0.428344	0.327920
C52	C	0.967333	0.071656	0.827920
C53	C	0.467405	-0.328070	0.428502
C54	C	0.967405	0.171930	0.928502
C55	C	0.549384	-0.328060	0.428495
C56	C	1.049384	0.171940	0.928495
C57	C	0.590337	-0.378194	0.378198
C58	C	1.090337	0.121806	0.878198
C59	C	1.134307	-0.582129	0.378163
C60	C	1.634307	-0.082129	0.878163
C61	C	1.134346	-0.669378	0.378179
C62	C	1.634346	-0.169378	0.878179
C63	C	1.184536	-0.710292	0.428430
C64	C	1.684536	-0.210292	0.928430
C65	C	1.184569	-0.792273	0.428447
C66	C	1.684569	-0.292273	0.928447
C67	C	1.134415	-0.833338	0.378208
C68	C	1.634415	-0.333338	0.878208
C69	C	1.084220	-0.792418	0.327955
C70	C	1.584220	-0.292418	0.827955
C71	C	1.084183	-0.710439	0.327943
C72	C	1.584183	-0.210439	0.827943
C73	C	1.084300	-0.963288	0.327983
C74	C	1.584300	-0.463288	0.827983
C75	C	1.084337	-1.045273	0.327994
C76	C	1.584337	-0.545273	0.827994
C77	C	1.184686	-1.045122	0.428486
C78	C	1.684686	-0.545122	0.928486
C79	C	1.184649	-0.963143	0.428474
C80	C	1.684649	-0.463143	0.928474
C81	C	1.134455	-0.922229	0.378220
C82	C	1.634455	-0.422229	0.878220
C83	C	1.339130	-0.378204	0.378204
C84	C	1.839130	0.121796	0.878204
C85	C	1.426379	-0.378213	0.378212
C86	C	1.926379	0.121787	0.878212
C87	C	1.134433	-0.378123	0.582931
C88	C	1.634433	0.121877	1.082931
C89	C	1.134453	-0.378098	0.670181
C90	C	1.634453	0.121902	1.170181
C91	C	1.134485	-0.173436	0.378227
C92	C	1.634485	0.326564	0.878227
C93	C	1.134527	-0.086187	0.378244
C94	C	1.634527	0.413813	0.878244
C95	C	1.134383	-0.378182	0.174238
C96	C	1.634383	0.121818	0.674238
C97	C	1.134515	-0.377985	0.086989
C98	C	1.634515	0.122015	0.586989
C99	C	1.184685	-0.327894	0.711186
C100	C	1.684685	0.172106	1.211186
C101	C	1.184694	-0.327868	0.793167
C102	C	1.684694	0.172132	1.293167
C103	C	1.134475	-0.378051	0.834140
C104	C	1.634475	0.121949	1.334140
C105	C	1.084238	-0.428257	0.793128
C106	C	1.584238	0.071743	1.293128
C107	C	1.084225	-0.428279	0.711149
C108	C	1.584225	0.071721	1.211149
C109	C	1.084269	-0.428210	0.963999
C110	C	1.584269	0.071790	1.463999
C111	C	1.084283	-0.428190	1.045983
C112	C	1.584283	0.071810	1.545983
C113	C	1.184739	-0.327799	1.046016
C114	C	1.684739	0.172201	1.546016
C115	C	1.184726	-0.327821	0.964037
C116	C	1.684726	0.172179	1.464037
C117	C	1.134489	-0.378028	0.923031
C118	C	1.634489	0.121972	1.423031
H119	H	0.582785	-0.287236	0.469447
H120	H	1.082785	0.212764	0.969447
H121	H	1.043380	-0.825860	0.287053
H122	H	1.543380	-0.325860	0.787053
C123	C	0.341631	-0.472872	0.283273
C124	C	0.841631	0.027128	0.783273
C125	C	0.422234	-0.483451	0.272639
C126	C	0.922234	0.016549	0.772639
H127	H	0.313791	-0.506896	0.249146
H128	H	0.813791	-0.006896	0.749146
H129	H	0.328212	-0.420121	0.271887
H130	H	0.828212	0.079879	0.771887
H131	H	0.328225	-0.484439	0.335996
H132	H	0.828225	0.015561	0.835996
H133	H	0.435641	-0.471878	0.219916
H134	H	0.935641	0.028122	0.719916
H135	H	0.435658	-0.536214	0.284019
H136	H	0.935658	-0.036214	0.784019
C137	C	0.541015	-0.527466	0.228501
C138	C	1.041015	-0.027466	0.728501
C139	C	0.594335	-0.483448	0.272631
C140	C	1.094335	0.016552	0.772631
H141	H	0.568809	-0.561496	0.194381
H142	H	1.068809	-0.061496	0.694381
H143	H	0.509042	-0.493234	0.198532
H144	H	1.009042	0.006766	0.698532
H145	H	0.509042	-0.557532	0.262663
H146	H	1.009042	-0.057532	0.762663
H147	H	0.626305	-0.453377	0.238469
H148	H	1.126305	0.046623	0.738469
H149	H	0.626321	-0.517684	0.302601
H150	H	1.126321	-0.017684	0.802601
C151	C	0.927805	-0.472811	0.283212
C152	C	1.427805	0.027189	0.783212
C153	C	0.847186	-0.483411	0.272603
C154	C	1.347186	0.016589	0.772603
H155	H	0.955596	-0.506827	0.249075
H156	H	1.455596	-0.006827	0.749075
H157	H	0.941255	-0.484369	0.335925
H158	H	1.441255	0.015631	0.835925
H159	H	0.941239	-0.420050	0.271815
H160	H	1.441239	0.079950	0.771815
H161	H	0.833752	-0.536171	0.284005
H162	H	1.333752	-0.036171	0.784005
H163	H	0.833731	-0.471859	0.219878
H164	H	1.333731	0.028141	0.719878
C165	C	1.073314	-0.533813	0.871774
C166	C	1.573314	-0.033813	1.371774
C167	C	1.029058	-0.483400	0.918913
C168	C	1.529058	0.016600	1.418913
H169	H	1.039232	-0.567882	0.843935
H170	H	1.539232	-0.067882	1.343935
H171	H	1.107496	-0.563832	0.903758
H172	H	1.607496	-0.063832	1.403758
H173	H	1.103220	-0.503913	0.835651
H174	H	1.603220	-0.003913	1.335651
H175	H	0.999156	-0.513300	0.955040
H176	H	1.499156	-0.013300	1.455040
H177	H	0.994862	-0.453378	0.886926
H178	H	1.494862	0.046622	1.386926
H179	H	1.043388	-0.469051	1.079341
H180	H	1.543388	0.030949	1.579341
C181	C	1.284042	-0.228571	1.037810
C182	C	1.784042	0.271429	1.537810
C183	C	1.239960	-0.272607	1.091085
C184	C	1.739960	0.227393	1.591085
H185	H	1.318137	-0.194506	1.065638
H186	H	1.818137	0.305494	1.565638
H187	H	1.249854	-0.198550	1.005837
H188	H	1.749854	0.301450	1.505837
H189	H	1.314042	-0.262797	1.005832
H190	H	1.814042	0.237203	1.505832
H191	H	1.209956	-0.238382	1.123059
H192	H	1.709956	0.261618	1.623059
H193	H	1.274153	-0.302631	1.123072
H194	H	1.774153	0.197369	1.623072
H195	H	1.225492	-0.929708	0.469378
H196	H	1.725492	-0.429708	0.969378
C197	C	0.978671	-0.871191	0.316967
C198	C	1.478671	-0.371191	0.816967
C199	C	1.029126	-0.918312	0.272744
C200	C	1.529126	-0.418312	0.772744
H201	H	0.944609	-0.843428	0.282863
H202	H	1.444609	-0.343428	0.782863
H203	H	1.008536	-0.835009	0.346880
H204	H	1.508536	-0.335009	0.846880
H205	H	0.948640	-0.903184	0.351141
H206	H	1.448640	-0.403184	0.851141
H207	H	1.059161	-0.886318	0.238574
H208	H	1.559161	-0.386318	0.738574
H209	H	0.999257	-0.954498	0.242818
H210	H	1.499257	-0.454498	0.742818
H211	H	1.225380	-0.676863	0.469336
H212	H	1.725380	-0.176863	0.969336
C213	C	0.728560	-0.228933	0.527902
C214	C	1.228560	0.271067	1.027902
C215	C	0.675238	-0.272939	0.483761
C216	C	1.175238	0.227061	0.983761
H217	H	0.700767	-0.194916	0.562036
H218	H	1.200767	0.305084	1.062036
H219	H	0.760528	-0.198861	0.493753
H220	H	1.260528	0.301139	0.993753
H221	H	0.760537	-0.263180	0.557862
H222	H	1.260537	0.236820	1.057862
H223	H	0.643264	-0.238692	0.453796
H224	H	1.143264	0.261308	0.953796
H225	H	0.643256	-0.303013	0.517914
H226	H	1.143256	0.196987	1.017914
H227	H	0.434057	-0.287247	0.469455
H228	H	0.934057	0.212753	0.969455
H229	H	0.686778	-0.469137	0.286945
H230	H	1.186778	0.030863	0.786945
H231	H	1.043345	-0.469114	0.826495
H232	H	1.543345	0.030886	1.326495
H233	H	1.225445	-0.825581	0.469360
H234	H	1.725445	-0.325581	0.969360
H235	H	1.225556	-1.078438	0.469406
H236	H	1.725556	-0.578438	0.969406
C237	C	0.985125	-1.037192	0.228676
C238	C	1.485125	-0.537192	0.728676
C239	C	1.029199	-1.090413	0.272780
C240	C	1.529199	-0.590413	0.772780
H241	H	0.951082	-1.065062	0.194594
H242	H	1.451082	-0.565062	0.694594
H243	H	1.019322	-1.005210	0.198669
H244	H	1.519322	-0.505210	0.698669
H245	H	0.955072	-1.005218	0.262857
H246	H	1.455072	-0.505218	0.762857
H247	H	1.059258	-1.122384	0.238599
H248	H	1.559258	-0.622384	0.738599
H249	H	0.994999	-1.122408	0.302790
H250	H	1.494999	-0.622408	0.802790
H251	H	1.043313	-0.469152	0.677764
H252	H	1.543313	0.030848	1.177764
H253	H	1.225582	-0.287032	0.677832
H254	H	1.725582	0.212968	1.177832
C255	C	0.894468	-0.317256	0.534079
C256	C	1.394468	0.182744	1.034079
C257	C	0.847326	-0.272922	0.483750
C258	C	1.347326	0.227078	0.983750
H259	H	0.922300	-0.283227	0.568207
H260	H	1.422300	0.216773	1.068207
H261	H	0.930590	-0.347103	0.504126
H262	H	1.430590	0.152897	1.004126
H263	H	0.862481	-0.351496	0.564044
H264	H	1.362481	0.148504	1.064044
H265	H	0.879314	-0.238686	0.453781
H266	H	1.379314	0.261314	0.953781
H267	H	0.811200	-0.243062	0.513706
H268	H	1.311200	0.256938	1.013706
H269	H	1.043312	-0.677128	0.287025
H270	H	1.543312	-0.177128	0.787025
H271	H	1.225600	-0.286988	0.826550
H272	H	1.725600	0.213012	1.326550
H273	H	1.225623	-0.286962	0.930679
H274	H	1.725623	0.213038	1.430679
