data_functionalizedCrystal
_audit_creation_method	'MofGen! by Chris Wilmer'
_symmetry_space_group_name_H-M	'P1'
_symmetry_Int_Tables_number	1
_symmetry_cell_setting	triclinic
loop_
_symmetry_equiv_pos_as_xyz
  x,y,z
_cell_length_a	10.489741
_cell_length_b	9.565339
_cell_length_c	10.489741
_cell_angle_alpha	89.999484
_cell_angle_beta	84.539174
_cell_angle_gamma	90.000900
loop_
_atom_site_label
_atom_site_type_symbol
_atom_site_fract_x
_atom_site_fract_y
_atom_site_fract_z
O1	O	1.694053	0.116173	0.179959
O2	O	1.322857	0.116194	0.196852
O3	O	1.516901	0.116175	0.002807
O4	O	1.500009	0.116192	0.374003
O5	O	1.516886	-0.116345	0.002819
O6	O	1.322842	-0.116326	0.196864
O7	O	1.694038	-0.116347	0.179971
Zn8	Zn	1.508437	-0.153254	0.188419
Zn9	Zn	1.508458	0.153101	0.188403
O10	O	1.499993	-0.116328	0.374015
C11	C	1.275318	-0.000063	0.195582
C12	C	1.133688	-0.000055	0.191765
N13	N	1.508433	-0.362334	0.188429
C14	C	1.065548	-0.000074	0.068300
C15	C	0.973429	0.114571	0.126617
C16	C	0.973448	-0.114676	0.126659
C17	C	1.043435	0.114684	0.250133
C18	C	1.043463	-0.114665	0.250157
C19	C	0.951371	0.000007	0.308564
C20	C	1.515618	-0.000084	-0.044718
C21	C	1.511801	-0.000082	-0.186348
C22	C	1.741577	-0.000087	0.181241
C23	C	1.883206	-0.000086	0.185058
C24	C	1.418666	-0.453528	0.278138
C25	C	1.534163	-0.546712	0.303949
C26	C	1.392986	-0.546704	0.162629
C27	C	1.623988	-0.453466	0.214298
C28	C	1.482735	-0.453451	0.072928
C29	C	1.598314	-0.546593	0.098690
N30	N	1.508472	0.362180	0.188383
C31	C	1.388336	-0.000064	-0.254488
C32	C	1.446652	-0.114712	-0.346604
C33	C	1.446696	0.114534	-0.346591
C34	C	1.570168	-0.114824	-0.276599
C35	C	1.570195	0.114525	-0.276576
C36	C	1.628600	-0.000150	-0.368665
C37	C	1.501277	-0.000066	0.421541
C38	C	1.505094	-0.000059	0.563170
H39	H	1.115238	0.000065	-0.033196
H40	H	1.074269	0.211717	0.302328
H41	H	1.622398	0.211451	-0.245536
H42	H	0.942421	0.211491	0.074372
C43	C	1.576380	-0.365660	-0.271162
C44	C	1.640619	-0.245825	-0.234986
H45	H	1.619877	-0.446531	-0.245476
H46	H	1.491299	-0.365322	-0.231039
H47	H	1.574416	-0.366405	-0.361511
H48	H	1.642575	-0.245074	-0.144636
H49	H	1.725722	-0.246162	-0.275105
C50	C	1.459185	0.324955	-0.471979
C51	C	1.376163	0.245382	-0.388424
H52	H	1.415630	0.405724	-0.497806
H53	H	1.531245	0.352507	-0.429621
H54	H	1.486969	0.270602	-0.545189
H55	H	1.348387	0.299732	-0.315209
H56	H	1.304081	0.217832	-0.430781
C57	C	0.807237	0.119056	0.463767
C58	C	0.884634	0.000092	0.445718
H59	H	0.766030	0.119106	0.548436
H60	H	0.858664	0.200501	0.450968
H61	H	0.744512	0.118227	0.404150
H62	H	0.947365	0.000926	0.505329
H63	H	0.833203	-0.081374	0.458530
C64	C	1.050442	-0.365455	0.255797
C65	C	1.085388	-0.245506	0.320624
H66	H	1.076337	-0.446236	0.299291
H67	H	0.960186	-0.366867	0.253211
H68	H	1.091123	-0.364617	0.170929
H69	H	1.044700	-0.246339	0.405490
H70	H	1.175661	-0.244094	0.323225
C71	C	1.374321	-0.244771	-0.521777
C72	C	1.376127	-0.245549	-0.388476
H73	H	1.330782	-0.325545	-0.547621
H74	H	1.331283	-0.163366	-0.546888
H75	H	1.459678	-0.244898	-0.561224
H76	H	1.290770	-0.245411	-0.349029
H77	H	1.419163	-0.326975	-0.363353
C78	C	0.989811	-0.245288	-0.069678
C79	C	0.931619	-0.245524	0.056122
H80	H	0.963994	-0.326068	-0.113225
H81	H	0.964666	-0.163889	-0.112703
H82	H	1.080241	-0.245772	-0.068418
H83	H	0.841189	-0.245030	0.054862
H84	H	0.956757	-0.326945	0.099158
C85	C	1.754560	-0.252043	0.243856
C86	C	1.755809	-0.398423	0.243998
H87	H	1.835926	-0.218064	0.262233
H88	H	1.736229	-0.219316	0.162082
H89	H	1.690688	-0.219478	0.307175
H90	H	1.819674	-0.430988	0.180673
H91	H	1.774154	-0.431163	0.325784
H92	H	1.555926	-0.587676	0.401606
C93	C	1.821683	-0.554105	0.023553
C94	C	1.700922	-0.601430	-0.003752
H95	H	1.885029	-0.587971	-0.039683
H96	H	1.822684	-0.454813	0.023484
H97	H	1.839243	-0.587459	0.105371
H98	H	1.683358	-0.568067	-0.085567
H99	H	1.699919	-0.700743	-0.003696
H100	H	1.342823	-0.412665	0.354073
C101	C	1.332282	-0.445070	-0.085663
C102	C	1.453309	-0.398088	-0.058861
H103	H	1.314105	-0.410880	-0.167020
H104	H	1.331308	-0.544358	-0.086416
H105	H	1.269351	-0.411812	-0.021737
H106	H	1.516242	-0.431355	-0.122782
H107	H	1.454293	-0.298779	-0.058118
H108	H	1.295338	-0.587664	0.140828
H109	H	1.286824	-0.000174	-0.204837
H110	H	1.730204	-0.000220	-0.418089
