data_functionalizedCrystal
_audit_creation_method	'MofGen! by Chris Wilmer'
_symmetry_space_group_name_H-M	'P1'
_symmetry_Int_Tables_number	1
_symmetry_cell_setting	triclinic
loop_
_symmetry_equiv_pos_as_xyz
  x,y,z
_cell_length_a	18.050591
_cell_length_b	18.050590
_cell_length_c	17.077396
_cell_angle_alpha	90.031378
_cell_angle_beta	90.022005
_cell_angle_gamma	90.015000
loop_
_atom_site_label
_atom_site_type_symbol
_atom_site_fract_x
_atom_site_fract_y
_atom_site_fract_z
Zn1	Zn	1.135359	-0.295718	0.443939
Zn2	Zn	1.635359	0.204282	0.943939
Zn3	Zn	1.135286	-0.419919	0.312670
Zn4	Zn	1.635286	0.080081	0.812670
Zn5	Zn	1.011173	-0.295739	0.312676
Zn6	Zn	1.511173	0.204261	0.812676
Zn7	Zn	1.011147	-0.419863	0.443882
Zn8	Zn	1.511147	0.080137	0.943882
O9	O	1.073241	-0.357810	0.378292
O10	O	1.573241	0.142190	0.878292
O11	O	1.239274	-0.312208	0.426547
O12	O	1.739274	0.187792	0.926547
O13	O	1.118802	-0.403478	0.202824
O14	O	1.618802	0.096522	0.702824
O15	O	1.027688	-0.191812	0.330114
O16	O	1.527688	0.308188	0.830114
O17	O	1.239220	-0.403458	0.330105
O18	O	1.739220	0.096542	0.830105
O19	O	1.118927	-0.191796	0.426553
O20	O	1.618927	0.308204	0.926553
O21	O	1.027617	-0.312244	0.202828
O22	O	1.527617	0.187756	0.702828
O23	O	0.907245	-0.312190	0.330059
O24	O	1.407245	0.187810	0.830059
O25	O	1.027644	-0.403363	0.553737
O26	O	1.527644	0.096637	1.053737
O27	O	0.907226	-0.403383	0.426456
O28	O	1.407226	0.096617	0.926456
O29	O	1.118902	-0.312154	0.553779
O30	O	1.618902	0.187846	1.053779
O31	O	1.118777	-0.523836	0.330050
O32	O	1.618777	-0.023836	0.830050
O33	O	1.027573	-0.523795	0.426451
O34	O	1.527573	-0.023795	0.926451
C35	C	0.880289	-0.357784	0.378253
C36	C	1.380289	0.142216	0.878253
C37	C	0.797743	-0.357790	0.378254
C38	C	1.297743	0.142210	0.878254
C39	C	0.548907	-0.308148	0.325958
C40	C	1.048907	0.191852	0.825958
C41	C	0.598338	-0.290058	0.397597
C42	C	1.098338	0.209942	0.897597
C43	C	0.500623	-0.357828	0.378319
C44	C	1.000623	0.142172	0.878319
C45	C	0.598273	-0.375865	0.306652
C46	C	1.098273	0.124135	0.806652
C47	C	0.646608	-0.357808	0.378283
C48	C	1.146608	0.142192	0.878283
C49	C	0.548967	-0.339703	0.449996
C50	C	1.048967	0.160297	0.949996
C51	C	0.548898	-0.425542	0.359003
C52	C	1.048898	0.074458	0.859003
C53	C	0.598307	-0.407477	0.430691
C54	C	1.098307	0.092523	0.930691
C55	C	0.416525	-0.357838	0.378338
C56	C	0.916525	0.142162	0.878338
C57	C	0.730705	-0.357798	0.378272
C58	C	1.230705	0.142202	0.878272
C59	C	1.073184	-0.550762	0.378261
C60	C	1.573184	-0.050762	0.878261
C61	C	1.073228	-0.633308	0.378274
C62	C	1.573228	-0.133308	0.878274
C63	C	1.122928	-0.832754	0.325924
C64	C	1.622928	-0.332754	0.825924
C65	C	1.141066	-0.882084	0.397568
C66	C	1.641066	-0.382084	0.897568
C67	C	1.073270	-0.784438	0.378305
C68	C	1.573270	-0.284438	0.878305
C69	C	1.055207	-0.882189	0.306693
C70	C	1.555207	-0.382189	0.806693
C71	C	1.073312	-0.930423	0.378329
C72	C	1.573312	-0.430423	0.878329
C73	C	1.091443	-0.832681	0.449987
C74	C	1.591443	-0.332681	0.949987
C75	C	1.005553	-0.832782	0.359063
C76	C	1.505553	-0.332782	0.859063
C77	C	1.023665	-0.882090	0.430757
C78	C	1.523665	-0.382090	0.930757
C79	C	1.073247	-0.700340	0.378290
C80	C	1.573247	-0.200340	0.878290
C81	C	1.073334	-1.014520	0.378352
C82	C	1.573334	-0.514520	0.878352
C83	C	1.266947	-0.357837	0.378332
C84	C	1.766947	0.142163	0.878332
C85	C	1.349493	-0.357848	0.378349
C86	C	1.849493	0.142152	0.878349
C87	C	1.073278	-0.357750	0.583036
C88	C	1.573278	0.142250	1.083036
C89	C	1.073294	-0.357724	0.670286
C90	C	1.573294	0.142276	1.170286
C91	C	1.073319	-0.164104	0.378341
C92	C	1.573319	0.335896	0.878341
C93	C	1.073352	-0.081558	0.378361
C94	C	1.573352	0.418442	0.878361
C95	C	1.073247	-0.357816	0.174344
C96	C	1.573247	0.142184	0.674344
C97	C	1.073376	-0.357633	0.087095
C98	C	1.573376	0.142367	0.587095
C99	C	1.120841	-0.405143	1.046101
C100	C	1.620841	0.094857	1.546101
C101	C	1.120822	-0.405165	0.964121
C102	C	1.620822	0.094835	1.464121
C103	C	1.073341	-0.357672	0.923135
C104	C	1.573341	0.142328	1.423135
C105	C	1.025871	-0.310159	0.964135
C106	C	1.525871	0.189841	1.464135
C107	C	1.025886	-0.310142	1.046114
C108	C	1.525886	0.189858	1.546114
C109	C	1.025843	-0.310197	0.793265
C110	C	1.525843	0.189803	1.293265
C111	C	1.025828	-0.310213	0.711280
C112	C	1.525828	0.189787	1.211280
C113	C	1.120779	-0.405220	0.711271
C114	C	1.620779	0.094780	1.211271
C115	C	1.120794	-0.405203	0.793250
C116	C	1.620794	0.094797	1.293250
C117	C	1.073325	-0.357689	0.834244
C118	C	1.573325	0.142311	1.334244
H119	H	0.620042	-0.232782	0.413933
H120	H	1.120042	0.267218	0.913933
O121	O	0.979667	-0.264189	0.671375
O122	O	1.479667	0.235811	1.171375
C123	C	0.931672	-0.306484	0.623944
C124	C	1.431672	0.193516	1.123944
H125	H	0.957846	-0.362770	0.611659
H126	H	1.457846	0.137230	1.111659
H127	H	0.876636	-0.314631	0.655518
H128	H	1.376636	0.185369	1.155518
C129	C	0.886086	-0.196516	0.561166
C130	C	1.386086	0.303484	1.061166
C131	C	0.918236	-0.265645	0.546071
C132	C	1.418236	0.234355	1.046071
H133	H	0.877794	-0.171324	0.513132
H134	H	1.377794	0.328676	1.013132
H135	H	0.918418	-0.168020	0.593123
H136	H	1.418418	0.331980	1.093123
H137	H	0.840226	-0.203315	0.587479
H138	H	1.340226	0.296685	1.087479
H139	H	0.964099	-0.258845	0.519768
H140	H	1.464099	0.241155	1.019768
H141	H	0.885911	-0.294139	0.514108
H142	H	1.385911	0.205861	1.014108
O143	O	0.522898	-0.258059	0.273227
O144	O	1.022898	0.241941	0.773227
C145	C	0.444796	-0.259198	0.273480
C146	C	0.944796	0.240802	0.773480
H147	H	0.424618	-0.314851	0.296712
H148	H	0.924618	0.185149	0.796712
H149	H	0.423198	-0.212826	0.312643
H150	H	0.923198	0.287174	0.812643
C151	C	0.440697	-0.179553	0.160936
C152	C	0.940697	0.320447	0.660936
C153	C	0.415914	-0.247909	0.189464
C154	C	0.915914	0.252091	0.689464
H155	H	0.422880	-0.172586	0.109113
H156	H	0.922880	0.327414	0.609113
H157	H	0.493315	-0.178783	0.160768
H158	H	0.993315	0.321217	0.660768
H159	H	0.422696	-0.140917	0.193580
H160	H	0.922696	0.359083	0.693580
H161	H	0.433922	-0.286544	0.156827
H162	H	0.933922	0.213456	0.656827
H163	H	0.363297	-0.248685	0.189625
H164	H	0.863297	0.251315	0.689625
O165	O	1.109897	-0.806819	0.522220
O166	O	1.609897	-0.306819	1.022220
C167	C	1.174571	-0.763313	0.516760
C168	C	1.674571	-0.263313	1.016760
H169	H	1.206881	-0.779749	0.462105
H170	H	1.706881	-0.279749	0.962105
H171	H	1.158681	-0.702297	0.512961
H172	H	1.658681	-0.202297	1.012961
C173	C	1.183350	-0.755819	0.656886
C174	C	1.683350	-0.255819	1.156886
C175	C	1.223038	-0.776012	0.589761
C176	C	1.723038	-0.276012	1.089761
H177	H	1.213246	-0.763649	0.701918
H178	H	1.713246	-0.263649	1.201918
H179	H	1.139777	-0.785128	0.660566
H180	H	1.639777	-0.285128	1.160566
H181	H	1.170111	-0.704974	0.653710
H182	H	1.670111	-0.204974	1.153710
H183	H	1.236268	-0.826858	0.592934
H184	H	1.736268	-0.326858	1.092934
H185	H	1.266615	-0.746712	0.586084
H186	H	1.766615	-0.246712	1.086084
O187	O	0.973680	-0.907867	0.483720
O188	O	1.473680	-0.407867	0.983720
C189	C	1.010391	-0.951755	0.539904
C190	C	1.510391	-0.451755	1.039904
H191	H	1.064425	-0.973528	0.514148
H192	H	1.564425	-0.473528	1.014148
H193	H	1.022923	-0.916836	0.593959
H194	H	1.522923	-0.416836	1.093959
C195	C	0.894209	-0.990710	0.594684
C196	C	1.394209	-0.490710	1.094684
C197	C	0.960571	-1.017457	0.563048
C198	C	1.460571	-0.517457	1.063048
H199	H	0.863477	-1.031236	0.608964
H200	H	1.363477	-0.531236	1.108964
H201	H	0.869475	-0.961140	0.556834
H202	H	1.369475	-0.461140	1.056834
H203	H	0.904662	-0.961611	0.639726
H204	H	1.404662	-0.461611	1.139726
H205	H	0.950118	-1.046547	0.518002
H206	H	1.450118	-0.546547	1.018002
H207	H	0.985302	-1.047034	0.600891
H208	H	1.485302	-0.547034	1.100891
O209	O	1.166968	-0.451210	0.924210
O210	O	1.666968	0.048790	1.424210
C211	C	1.214951	-0.408942	0.876826
C212	C	1.714951	0.091058	1.376826
H213	H	1.188776	-0.352661	0.864561
H214	H	1.688776	0.147339	1.364561
H215	H	1.269997	-0.400782	0.908430
H216	H	1.769997	0.099218	1.408430
C217	C	1.260511	-0.518946	0.814006
C218	C	1.760511	-0.018946	1.314006
C219	C	1.228360	-0.449823	0.798936
C220	C	1.728360	0.050177	1.298936
H221	H	1.268786	-0.544164	0.765962
H222	H	1.768786	-0.044164	1.265962
H223	H	1.228186	-0.547423	0.845932
H224	H	1.728186	-0.047423	1.345932
H225	H	1.306380	-0.512136	0.840345
H226	H	1.806380	-0.012136	1.340345
H227	H	1.182489	-0.456634	0.772607
H228	H	1.682489	0.043366	1.272607
H229	H	1.260678	-0.421348	0.767005
H230	H	1.760678	0.078652	1.267005
H231	H	0.987236	-0.271453	1.079490
H232	H	1.487236	0.228547	1.579490
H233	H	0.527399	-0.324372	0.510605
H234	H	1.027399	0.175628	1.010605
O235	O	0.979640	-0.264105	0.924357
O236	O	1.479640	0.235895	1.424357
C237	C	0.905620	-0.280308	0.944382
C238	C	1.405620	0.219692	1.444382
H239	H	0.901849	-0.339631	0.966898
H240	H	1.401849	0.160369	1.466898
H241	H	0.886231	-0.240478	0.991976
H242	H	1.386231	0.259522	1.491976
C243	C	0.860678	-0.198813	0.843895
C244	C	1.360678	0.301187	1.343895
C245	C	0.856047	-0.271677	0.871544
C246	C	1.356047	0.228323	1.371544
H247	H	0.830098	-0.193486	0.798967
H248	H	1.330098	0.306514	1.298967
H249	H	0.910547	-0.187895	0.830406
H250	H	1.410547	0.312105	1.330406
H251	H	0.844523	-0.165630	0.883564
H252	H	1.344523	0.334370	1.383564
H253	H	0.872211	-0.304858	0.831879
H254	H	1.372211	0.195142	1.331879
H255	H	0.806179	-0.282601	0.885025
H256	H	1.306179	0.217399	1.385025
H257	H	0.527165	-0.482798	0.342655
H258	H	1.027165	0.017202	0.842655
H259	H	0.619860	-0.449481	0.475007
H260	H	1.119860	0.050519	0.975007
H261	H	0.987188	-0.271507	0.826639
H262	H	1.487188	0.228493	1.326639
H263	H	1.198351	-0.903742	0.413858
H264	H	1.698351	-0.403742	0.913858
O265	O	0.937255	-0.806953	0.339469
O266	O	1.437255	-0.306953	0.839469
C267	C	0.918394	-0.832151	0.263883
C268	C	1.418394	-0.332151	0.763883
H269	H	0.971044	-0.846017	0.230076
H270	H	1.471044	-0.346017	0.730076
H271	H	0.882377	-0.883829	0.268808
H272	H	1.382377	-0.383829	0.768808
C273	C	0.810656	-0.754107	0.261857
C274	C	1.310656	-0.254107	0.761857
C275	C	0.875323	-0.771131	0.220332
C276	C	1.375323	-0.271131	0.720332
H277	H	0.784085	-0.716469	0.234993
H278	H	1.284085	-0.216469	0.734993
H279	H	0.823361	-0.737132	0.312782
H280	H	1.323361	-0.237132	0.812782
H281	H	0.780651	-0.797177	0.265958
H282	H	1.280651	-0.297177	0.765958
H283	H	0.905331	-0.728064	0.216240
H284	H	1.405331	-0.228064	0.716240
H285	H	0.862622	-0.788098	0.169405
H286	H	1.362622	-0.288098	0.669405
H287	H	0.619933	-0.391129	0.246060
H288	H	1.119933	0.108871	0.746060
H289	H	1.159509	-0.443814	1.079465
H290	H	1.659509	0.056186	1.579465
O291	O	1.172936	-0.806869	0.273042
O292	O	1.672936	-0.306869	0.773042
C293	C	1.136064	-0.763950	0.216143
C294	C	1.636064	-0.263950	0.716143
H295	H	1.075242	-0.780813	0.213660
H296	H	1.575242	-0.280813	0.713660
H297	H	1.140410	-0.702807	0.232269
H298	H	1.640410	-0.202807	0.732269
C299	C	1.246783	-0.756173	0.138607
C300	C	1.746783	-0.256173	0.638607
C301	C	1.172081	-0.776889	0.135553
C302	C	1.672081	-0.276889	0.635553
H303	H	1.269000	-0.764151	0.088896
H304	H	1.769000	-0.264151	0.588896
H305	H	1.271625	-0.785086	0.176942
H306	H	1.771625	-0.285086	0.676942
H307	H	1.250394	-0.705221	0.152049
H308	H	1.750394	-0.205221	0.652049
H309	H	1.168471	-0.827841	0.122121
H310	H	1.668471	-0.327841	0.622121
H311	H	1.147238	-0.747985	0.097213
H312	H	1.647238	-0.247985	0.597213
H313	H	1.039913	-0.903936	0.246121
H314	H	1.539913	-0.403936	0.746121
O315	O	1.166819	-0.451364	0.833156
O316	O	1.666819	0.048636	1.333156
C317	C	1.124528	-0.499323	0.880544
C318	C	1.624528	0.000677	1.380544
H319	H	1.068257	-0.473124	0.892813
H320	H	1.568257	0.026876	1.392813
H321	H	1.116350	-0.554371	0.848940
H322	H	1.616350	-0.054371	1.348940
C323	C	1.234509	-0.544916	0.943356
C324	C	1.734509	-0.044916	1.443356
C325	C	1.165397	-0.512736	0.958431
C326	C	1.665397	-0.012736	1.458431
H327	H	1.259719	-0.553193	0.991399
H328	H	1.759719	-0.053193	1.491399
H329	H	1.263001	-0.512608	0.911428
H330	H	1.763001	-0.012608	1.411428
H331	H	1.227684	-0.590786	0.917018
H332	H	1.727684	-0.090786	1.417018
H333	H	1.172224	-0.466863	0.984759
H334	H	1.672224	0.033137	1.484759
H335	H	1.136907	-0.545037	0.990365
H336	H	1.636907	-0.045037	1.490365
O337	O	1.166818	-0.451356	0.671333
O338	O	1.666818	0.048644	1.171333
C339	C	1.156635	-0.441181	0.590188
C340	C	1.656635	0.058819	1.090188
H341	H	1.099330	-0.416852	0.578988
H342	H	1.599330	0.083148	1.078988
H343	H	1.200697	-0.401645	0.566942
H344	H	1.700697	0.098355	1.066942
C345	C	1.233784	-0.546215	0.561835
C346	C	1.733784	-0.046215	1.061835
C347	C	1.163398	-0.516340	0.548079
C348	C	1.663398	-0.016340	1.048079
H349	H	1.237959	-0.592576	0.535859
H350	H	1.737959	-0.092576	1.035859
H351	H	1.240647	-0.553069	0.616504
H352	H	1.740647	-0.053069	1.116504
H353	H	1.270494	-0.513262	0.542464
H354	H	1.770494	-0.013262	1.042464
H355	H	1.126690	-0.549289	0.567459
H356	H	1.626690	-0.049289	1.067459
H357	H	1.156529	-0.509493	0.493412
H358	H	1.656529	-0.009493	0.993412
