data_functionalizedCrystal
_audit_creation_method	'MofGen! by Chris Wilmer'
_symmetry_space_group_name_H-M	'P1'
_symmetry_Int_Tables_number	1
_symmetry_cell_setting	triclinic
loop_
_symmetry_equiv_pos_as_xyz
  x,y,z
_cell_length_a	21.395362
_cell_length_b	18.101397
_cell_length_c	21.395355
_cell_angle_alpha	90.019934
_cell_angle_beta	90.043940
_cell_angle_gamma	90.036343
loop_
_atom_site_label
_atom_site_type_symbol
_atom_site_fract_x
_atom_site_fract_y
_atom_site_fract_z
Zn1	Zn	0.957904	-0.294601	0.354579
Zn2	Zn	1.291237	0.038732	0.687913
Zn3	Zn	1.624571	0.372065	1.021246
Zn4	Zn	0.957825	-0.418425	0.249799
Zn5	Zn	1.291159	-0.085091	0.583133
Zn6	Zn	1.624492	0.248242	0.916466
Zn7	Zn	0.853119	-0.294636	0.249781
Zn8	Zn	1.186452	0.038697	0.583114
Zn9	Zn	1.519786	0.372031	0.916447
Zn10	Zn	0.853107	-0.418440	0.354504
Zn11	Zn	1.186440	-0.085107	0.687837
Zn12	Zn	1.519774	0.248227	1.021171
O13	O	0.905489	-0.356526	0.302166
O14	O	1.238822	-0.023192	0.635499
O15	O	1.572155	0.310141	0.968833
O16	O	1.045572	-0.311006	0.340720
O17	O	1.378905	0.022327	0.674053
O18	O	1.712238	0.355661	1.007386
O19	O	0.943908	-0.402012	0.162119
O20	O	1.277241	-0.068679	0.495452
O21	O	1.610575	0.264655	0.828786
O22	O	0.867057	-0.190998	0.263706
O23	O	1.200390	0.142335	0.597040
O24	O	1.533724	0.475668	0.930373
O25	O	1.045514	-0.401979	0.263738
O26	O	1.378847	-0.068645	0.597071
O27	O	1.712180	0.264688	0.930405
O28	O	0.944042	-0.190973	0.340701
O29	O	1.277375	0.142360	0.674035
O30	O	1.610709	0.475694	1.007368
O31	O	0.866981	-0.311065	0.162105
O32	O	1.200314	0.022268	0.495439
O33	O	1.533647	0.355602	0.828772
O34	O	0.765439	-0.311080	0.263633
O35	O	1.098773	0.022254	0.596967
O36	O	1.432106	0.355587	0.930300
O37	O	0.867036	-0.402005	0.442192
O38	O	1.200370	-0.068671	0.775525
O39	O	1.533703	0.264662	1.108859
O40	O	0.765431	-0.402038	0.340573
O41	O	1.098764	-0.068705	0.673906
O42	O	1.432097	0.264629	1.007240
O43	O	0.944030	-0.311021	0.442247
O44	O	1.277364	0.022312	0.775581
O45	O	1.610697	0.355646	1.108914
O46	O	0.943896	-0.522060	0.263665
O47	O	1.277229	-0.188726	0.596998
O48	O	1.610563	0.144607	0.930332
O49	O	0.866960	-0.522071	0.340591
O50	O	1.200293	-0.188738	0.673924
O51	O	1.533627	0.144596	1.007258
C52	C	0.742701	-0.356565	0.302093
C53	C	1.076034	-0.023231	0.635427
C54	C	1.409368	0.310102	0.968760
C55	C	0.673060	-0.356599	0.302077
C56	C	1.006393	-0.023266	0.635410
C57	C	1.339727	0.310067	0.968744
C58	C	0.640359	-0.404024	0.342080
C59	C	0.973692	-0.070691	0.675413
C60	C	1.307025	0.262643	1.008746
C61	C	0.574923	-0.404006	0.342107
C62	C	0.908256	-0.070673	0.675441
C63	C	1.241590	0.262661	1.008774
C64	C	0.542192	-0.356571	0.302122
C65	C	0.875525	-0.023237	0.635455
C66	C	1.208858	0.310096	0.968788
C67	C	0.574901	-0.309137	0.262116
C68	C	0.908234	0.024197	0.595450
C69	C	1.241567	0.357530	0.928783
C70	C	0.640335	-0.309151	0.262094
C71	C	0.973668	0.024182	0.595427
C72	C	1.307002	0.357516	0.928761
C73	C	0.438466	-0.350605	0.245717
C74	C	0.771799	-0.017271	0.579050
C75	C	1.105133	0.316062	0.912383
C76	C	0.373033	-0.350596	0.245738
C77	C	0.706366	-0.017262	0.579071
C78	C	1.039700	0.316071	0.912404
C79	C	0.340371	-0.356522	0.302191
C80	C	0.673704	-0.023189	0.635524
C81	C	1.007038	0.310144	0.968857
C82	C	0.373150	-0.362474	0.358624
C83	C	0.706483	-0.029140	0.691958
C84	C	1.039816	0.304193	1.025291
C85	C	0.438584	-0.362488	0.358602
C86	C	0.771917	-0.029155	0.691935
C87	C	1.105251	0.304179	1.025269
C88	C	0.471239	-0.356550	0.302142
C89	C	0.804573	-0.023216	0.635475
C90	C	1.137906	0.310117	0.968808
C91	C	0.236717	-0.403930	0.342227
C92	C	0.570050	-0.070597	0.675560
C93	C	0.903384	0.262737	1.008894
C94	C	0.171280	-0.403907	0.342256
C95	C	0.504614	-0.070573	0.675589
C96	C	0.837947	0.262760	1.008923
C97	C	0.171259	-0.309042	0.262259
C98	C	0.504593	0.024292	0.595593
C99	C	0.837926	0.357625	0.928926
C100	C	0.236695	-0.309061	0.262236
C101	C	0.570028	0.024272	0.595569
C102	C	0.903361	0.357606	0.928903
C103	C	0.269420	-0.356509	0.302219
C104	C	0.602753	-0.023176	0.635552
C105	C	0.936086	0.310157	0.968886
C106	C	0.905435	-0.548936	0.302136
C107	C	1.238769	-0.215603	0.635469
C108	C	1.572102	0.117731	0.968802
C109	C	0.905470	-0.631250	0.302144
C110	C	1.238803	-0.297917	0.635477
C111	C	1.572136	0.035416	0.968810
C112	C	0.905550	-0.930341	0.302201
C113	C	1.238883	-0.597008	0.635534
C114	C	1.572216	-0.263674	0.968867
C115	C	0.953821	-0.898978	0.253671
C116	C	1.287154	-0.565645	0.587004
C117	C	1.620487	-0.232311	0.920338
C118	C	0.953988	-0.813359	0.253797
C119	C	1.287321	-0.480026	0.587130
C120	C	1.620655	-0.146693	0.920464
C121	C	0.905510	-0.781959	0.302172
C122	C	1.238843	-0.448625	0.635505
C123	C	1.572177	-0.115292	0.968838
C124	C	0.923415	-0.812974	0.368221
C125	C	1.256748	-0.479641	0.701554
C126	C	1.590082	-0.146308	1.034887
C127	C	0.923789	-0.898619	0.367956
C128	C	1.257122	-0.565286	0.701290
C129	C	1.590455	-0.231953	1.034623
C130	C	0.839245	-0.898868	0.285253
C131	C	1.172578	-0.565535	0.618586
C132	C	1.505911	-0.232201	0.951920
C133	C	0.839572	-0.813218	0.283779
C134	C	1.172905	-0.479885	0.617112
C135	C	1.506239	-0.146552	0.950446
C136	C	0.905486	-0.698099	0.302159
C137	C	1.238820	-0.364766	0.635493
C138	C	1.572153	-0.031432	0.968826
C139	C	0.905575	-1.014201	0.302217
C140	C	1.238908	-0.680867	0.635551
C141	C	1.572241	-0.347534	0.968884
C142	C	1.068912	-0.356487	0.302239
C143	C	1.402245	-0.023153	0.635573
C144	C	1.735579	0.310180	0.968906
C145	C	1.138553	-0.356470	0.302271
C146	C	1.471887	-0.023137	0.635604
C147	C	1.805220	0.310196	0.968937
C148	C	0.905541	-0.356511	0.465589
C149	C	1.238874	-0.023177	0.798923
C150	C	1.572207	0.310156	1.132256
C151	C	0.905563	-0.356504	0.535231
C152	C	1.238896	-0.023171	0.868564
C153	C	1.572230	0.310163	1.201897
C154	C	0.905560	-0.163364	0.302210
C155	C	1.238893	0.169970	0.635543
C156	C	1.572226	0.503303	0.968877
C157	C	0.905590	-0.081050	0.302229
C158	C	1.238923	0.252284	0.635562
C159	C	1.572257	0.585617	0.968896
C160	C	0.905473	-0.356487	0.139378
C161	C	1.238806	-0.023154	0.472712
C162	C	1.572140	0.310180	0.806045
C163	C	0.905572	-0.356285	0.069737
C164	C	1.238906	-0.022951	0.403071
C165	C	1.572239	0.310382	0.736404
C166	C	0.945652	-0.309127	0.567974
C167	C	1.278985	0.024206	0.901307
C168	C	1.612319	0.357540	1.234640
C169	C	0.945651	-0.309095	0.633409
C170	C	1.278985	0.024238	0.966742
C171	C	1.612318	0.357572	1.300076
C172	C	0.905568	-0.356454	0.666099
C173	C	1.238901	-0.023120	0.999432
C174	C	1.572235	0.310213	1.332766
C175	C	0.865471	-0.403834	0.633348
C176	C	1.198804	-0.070501	0.966681
C177	C	1.532138	0.262832	1.300015
C178	C	0.865469	-0.403859	0.567914
C179	C	1.198802	-0.070526	0.901247
C180	C	1.532135	0.262807	1.234581
C181	C	0.900602	-0.423137	0.769761
C182	C	1.233935	-0.089803	1.103095
C183	C	1.567269	0.243530	1.436428
C184	C	0.900609	-0.423113	0.835194
C185	C	1.233942	-0.089779	1.168528
C186	C	1.567275	0.243554	1.501861
C187	C	0.905572	-0.356375	0.867920
C188	C	1.238905	-0.023042	1.201253
C189	C	1.572238	0.310291	1.534586
C190	C	0.910541	-0.289660	0.835204
C191	C	1.243874	0.043673	1.168538
C192	C	1.577208	0.377007	1.501871
C193	C	0.910539	-0.289685	0.769770
C194	C	1.243872	0.043648	1.103103
C195	C	1.577205	0.376981	1.436437
C196	C	0.905566	-0.356431	0.737051
C197	C	1.238899	-0.023098	1.070385
C198	C	1.572232	0.310235	1.403718
C199	C	0.945662	-0.308960	0.971615
C200	C	1.278995	0.024374	1.304949
C201	C	1.612329	0.357707	1.638282
C202	C	0.945657	-0.308927	1.037052
C203	C	1.278990	0.024407	1.370385
C204	C	1.612323	0.357740	1.703719
C205	C	0.865480	-0.403672	1.036990
C206	C	1.198813	-0.070339	1.370323
C207	C	1.532147	0.262994	1.703657
C208	C	0.865482	-0.403699	0.971555
C209	C	1.198815	-0.070365	1.304888
C210	C	1.532148	0.262968	1.638221
C211	C	0.905576	-0.356344	0.938871
C212	C	1.238910	-0.023010	1.272204
C213	C	1.572243	0.310323	1.605538
H214	H	0.942785	-0.792391	0.204823
H215	H	1.276119	-0.459057	0.538157
H216	H	1.609452	-0.125724	0.871490
H217	H	0.978306	-0.270396	0.945003
H218	H	1.311639	0.062937	1.278337
H219	H	1.644972	0.396271	1.611670
H220	H	0.822957	-0.920524	0.237924
H221	H	1.156290	-0.587190	0.571258
H222	H	1.489623	-0.253857	0.904591
O223	O	0.822219	-0.454961	0.532604
O224	O	1.155552	-0.121628	0.865937
O225	O	1.488886	0.211706	1.199270
H226	H	0.850237	-0.492649	0.502807
H227	H	1.183570	-0.159316	0.836140
H228	H	1.516904	0.174017	1.169474
O229	O	0.822240	-0.454747	1.072239
O230	O	1.155574	-0.121414	1.405573
O231	O	1.488907	0.211919	1.738906
H232	H	0.832958	-0.512873	1.059685
H233	H	1.166291	-0.179540	1.393019
H234	H	1.499624	0.153793	1.726352
H235	H	0.263320	-0.270446	0.229658
H236	H	0.596654	0.062887	0.562992
H237	H	0.929987	0.396220	0.896325
H238	H	0.971339	-0.791454	0.382816
H239	H	1.304672	-0.458121	0.716149
H240	H	1.638005	-0.124788	1.049483
H241	H	0.826071	-0.792953	0.235172
H242	H	1.159404	-0.459620	0.568506
H243	H	1.492738	-0.126287	0.901839
O244	O	0.988891	-0.258046	0.532724
O245	O	1.322224	0.075287	0.866057
O246	O	1.655557	0.408621	1.199391
H247	H	1.020757	-0.291198	0.502938
H248	H	1.354090	0.042136	0.836272
H249	H	1.687424	0.375469	1.169605
H250	H	0.803279	-0.919153	0.320599
H251	H	1.136612	-0.585820	0.653932
H252	H	1.469946	-0.252487	0.987266
H253	H	0.801671	-0.791852	0.316535
H254	H	1.135004	-0.458519	0.649869
H255	H	1.468338	-0.125186	0.983202
H256	H	0.889332	-0.792635	0.405352
H257	H	1.222665	-0.459301	0.738686
H258	H	1.555999	-0.125968	1.072019
H259	H	0.548247	-0.270513	0.229561
H260	H	0.881580	0.062820	0.562894
H261	H	1.214913	0.396153	0.896227
O262	O	0.915885	-0.217666	0.870483
O263	O	1.249218	0.115668	1.203817
O264	O	1.582551	0.449001	1.537150
H265	H	0.873908	-0.210105	0.900252
H266	H	1.207241	0.123229	1.233586
H267	H	1.540574	0.456562	1.566919
O268	O	0.939054	-0.926631	0.188726
O269	O	1.272387	-0.593298	0.522059
O270	O	1.605720	-0.259964	0.855392
H271	H	0.929595	-0.878969	0.157502
H272	H	1.262928	-0.545636	0.490836
H273	H	1.596261	-0.212302	0.824169
H274	H	0.978295	-0.270511	0.660073
H275	H	1.311628	0.062822	0.993407
H276	H	1.644962	0.396156	1.326740
H277	H	0.914583	-0.235363	0.743136
H278	H	1.247916	0.097970	1.076469
H279	H	1.581250	0.431303	1.409802
O280	O	0.675607	-0.257998	0.218943
O281	O	1.008940	0.075335	0.552276
O282	O	1.342274	0.408669	0.885610
H283	H	0.726606	-0.265976	0.225647
H284	H	1.059939	0.067358	0.558980
H285	H	1.393272	0.400691	0.892314
H286	H	0.978301	-0.270342	1.063710
H287	H	1.311634	0.062991	1.397044
H288	H	1.644968	0.396325	1.730377
H289	H	0.832833	-0.442392	0.659968
H290	H	1.166166	-0.109058	0.993302
H291	H	1.499500	0.224275	1.326635
H292	H	0.832841	-0.442283	0.944895
H293	H	1.166174	-0.108950	1.278228
H294	H	1.499507	0.224384	1.611562
O295	O	0.895243	-0.495064	0.870480
O296	O	1.228576	-0.161731	1.203813
O297	O	1.561909	0.171603	1.537147
H298	H	0.891776	-0.541473	0.836733
H299	H	1.225109	-0.208140	1.170066
H300	H	1.558442	0.125193	1.503399
O301	O	0.895241	-0.495121	0.734466
O302	O	1.228574	-0.161787	1.067799
O303	O	1.561907	0.171546	1.401132
H304	H	0.891793	-0.541506	0.768206
H305	H	1.225126	-0.208173	1.101539
H306	H	1.558460	0.125160	1.434873
O307	O	0.135961	-0.257886	0.219126
O308	O	0.469295	0.075448	0.552460
O309	O	0.802628	0.408781	0.885793
H310	H	0.106202	-0.220253	0.247235
H311	H	0.439535	0.113080	0.580568
H312	H	0.772868	0.446413	0.913902
O313	O	0.337679	-0.344173	0.184875
O314	O	0.671013	-0.010840	0.518208
O315	O	1.004346	0.322493	0.851542
H316	H	0.371383	-0.340038	0.145617
H317	H	0.704716	-0.006704	0.478950
H318	H	1.038049	0.326629	0.812284
H319	H	0.666999	-0.442659	0.374638
H320	H	1.000332	-0.109326	0.707971
H321	H	1.333666	0.224008	1.041304
H322	H	0.548292	-0.442624	0.374685
H323	H	0.881626	-0.109291	0.708018
H324	H	1.214959	0.224042	1.041351
H325	H	0.465270	-0.367332	0.404552
H326	H	0.798603	-0.033998	0.737885
H327	H	1.131936	0.299335	1.071219
H328	H	0.346558	-0.367299	0.404594
H329	H	0.679891	-0.033965	0.737927
H330	H	1.013224	0.299368	1.071261
H331	H	0.890171	-0.919365	0.405362
H332	H	1.223504	-0.586032	0.738695
H333	H	1.556837	-0.252698	1.072028
O334	O	0.272021	-0.455093	0.385357
O335	O	0.605354	-0.121759	0.718690
O336	O	0.938688	0.211574	1.052023
H337	H	0.238285	-0.488059	0.413187
H338	H	0.571619	-0.154725	0.746520
H339	H	0.904952	0.178608	1.079854
H340	H	0.144656	-0.442524	0.374835
H341	H	0.477989	-0.109191	0.708168
H342	H	0.811323	0.224142	1.041501
O343	O	1.018527	-0.927383	0.268361
O344	O	1.351860	-0.594050	0.601694
O345	O	1.685193	-0.260716	0.935027
H346	H	1.018603	-0.988636	0.265963
H347	H	1.351936	-0.655303	0.599297
H348	H	1.685269	-0.321970	0.932630
O349	O	0.473693	-0.344214	0.184824
O350	O	0.807027	-0.010880	0.518158
O351	O	1.140360	0.322453	0.851491
H352	H	0.439909	-0.340086	0.145587
H353	H	0.773243	-0.006752	0.478921
H354	H	1.106576	0.326581	0.812254
H355	H	1.003103	-0.792802	0.265012
H356	H	1.336436	-0.459469	0.598345
H357	H	1.669770	-0.126136	0.931679
H358	H	0.972255	-0.918525	0.382310
H359	H	1.305588	-0.585192	0.715643
H360	H	1.638921	-0.251859	1.048976
