data_functionalizedCrystal
_audit_creation_method	'MofGen! by Chris Wilmer'
_symmetry_space_group_name_H-M	'P1'
_symmetry_Int_Tables_number	1
_symmetry_cell_setting	triclinic
loop_
_symmetry_equiv_pos_as_xyz
  x,y,z
_cell_length_a	10.654551
_cell_length_b	8.559649
_cell_length_c	9.730223
_cell_angle_alpha	89.996958
_cell_angle_beta	90.002136
_cell_angle_gamma	102.868037
loop_
_atom_site_label
_atom_site_type_symbol
_atom_site_fract_x
_atom_site_fract_y
_atom_site_fract_z
O1	O	0.042558	2.119653	-0.114268
O2	O	-0.022229	1.655168	-0.114274
O3	O	0.194007	1.898089	-0.114270
O4	O	-0.173678	1.876732	-0.114272
O5	O	0.194010	1.898074	0.114310
O6	O	-0.022225	1.655152	0.114306
O7	O	0.042561	2.119638	0.114311
Zn8	Zn	0.010169	1.887392	0.150601
Zn9	Zn	0.010164	1.887413	-0.150563
O10	O	-0.173674	1.876716	0.114308
C11	C	-0.027137	1.595684	0.000016
C12	C	-0.041751	1.418466	0.000014
C13	C	0.240645	1.896513	0.000018
C14	C	0.379603	1.891820	0.000010
C15	C	0.444877	1.889627	-0.124591
C16	C	0.575441	1.885204	-0.124593
C17	C	0.575446	1.885176	0.124617
C18	C	0.444882	1.889587	0.124618
C19	C	0.779688	1.878293	0.000015
C20	C	0.640730	1.882987	0.000006
C21	C	0.047469	2.179121	0.000019
C22	C	0.062084	2.356339	0.000012
N23	N	0.010174	1.887390	0.356137
N24	N	0.010170	1.887428	-0.356099
C25	C	0.105891	1.994993	0.428065
C26	C	0.105892	1.995008	0.571948
C27	C	-0.085552	1.779814	0.571963
C28	C	-0.085547	1.779792	0.428083
H29	H	0.391730	1.891440	-0.226055
H30	H	-0.141836	1.336070	0.000005
O31	O	-0.178595	1.675149	0.641640
C32	C	-0.368520	1.461760	0.626468
C33	C	-0.263206	1.580184	0.547392
H34	H	-0.436970	1.384973	0.550302
H35	H	-0.322082	1.381336	0.693809
H36	H	-0.424525	1.531392	0.693849
H37	H	-0.207164	1.510682	0.479936
H38	H	-0.309722	1.660608	0.480137
O39	O	0.198931	2.099691	0.641605
C40	C	0.388859	2.313071	0.626396
C41	C	0.283545	2.194627	0.547341
H42	H	0.457313	2.389835	0.550218
H43	H	0.342422	2.393516	0.693705
H44	H	0.444861	2.243456	0.693809
H45	H	0.227507	2.264112	0.479853
H46	H	0.330061	2.114182	0.480119
H47	H	-0.163492	1.692161	0.369515
H48	H	0.628612	1.883361	0.226068
H49	H	0.391733	1.891365	0.226089
O50	O	0.638669	1.883153	-0.245754
C51	C	0.624858	1.883551	-0.492936
C52	C	0.553107	1.885922	-0.355815
H53	H	0.555706	1.885756	-0.581956
H54	H	0.708207	1.993014	-0.499258
H55	H	0.663770	1.770002	-0.499098
H56	H	0.514112	1.999399	-0.349561
H57	H	0.469822	1.776383	-0.349551
H58	H	0.183834	2.082603	0.369491
H59	H	0.162162	1.438727	0.000006
