data_functionalizedCrystal
_audit_creation_method	'MofGen! by Chris Wilmer'
_symmetry_space_group_name_H-M	'P1'
_symmetry_Int_Tables_number	1
_symmetry_cell_setting	triclinic
loop_
_symmetry_equiv_pos_as_xyz
  x,y,z
_cell_length_a	16.992694
_cell_length_b	14.519709
_cell_length_c	15.455313
_cell_angle_alpha	92.669068
_cell_angle_beta	87.142206
_cell_angle_gamma	87.174184
loop_
_atom_site_label
_atom_site_type_symbol
_atom_site_fract_x
_atom_site_fract_y
_atom_site_fract_z
O1	O	1.044092	0.191795	-0.072025
O2	O	0.815805	0.189648	-0.072051
O3	O	0.936001	0.056918	-0.072029
O4	O	0.923896	0.324525	-0.072046
O5	O	0.929127	0.064474	0.072232
O6	O	0.808932	0.197205	0.072210
O7	O	1.037219	0.199352	0.072236
Cu8	Cu	0.922447	0.198968	0.085395
Cu9	Cu	0.930576	0.190031	-0.085210
O10	O	0.917023	0.332082	0.072215
C11	C	0.783152	0.190666	0.000077
C12	C	0.696097	0.182430	0.000067
C13	C	0.645968	0.261890	0.000063
C14	C	0.564170	0.254147	0.000075
C15	C	0.532502	0.166943	0.000086
C16	C	0.582638	0.087478	0.000093
C17	C	0.664434	0.095222	0.000087
C18	C	0.288859	0.134847	0.000111
C19	C	0.207056	0.127109	0.000115
C20	C	0.188594	0.293779	0.000099
C21	C	0.270393	0.301515	0.000087
C22	C	0.320520	0.222050	0.000099
N23	N	0.448892	0.159027	0.000096
N24	N	0.404129	0.229968	0.000095
C25	C	0.932000	0.026296	0.000101
C26	C	0.930309	-0.076207	0.000102
C27	C	0.924087	-0.451550	0.000078
C28	C	0.925815	-0.347118	0.000085
C29	C	0.927198	-0.263882	0.000091
C30	C	0.928926	-0.159443	0.000096
C31	C	1.069872	0.198333	0.000107
C32	C	1.156927	0.206569	0.000111
C33	C	0.921024	0.362704	0.000082
C34	C	0.922715	0.465206	0.000076
N35	N	0.916736	0.205254	0.205390
N36	N	0.936294	0.183739	-0.205204
C37	C	0.967817	0.148889	0.250793
C38	C	0.963505	0.153651	0.341600
C39	C	0.908115	0.214784	0.387002
C40	C	0.857028	0.271151	0.341593
C41	C	0.861337	0.266383	0.250787
C42	C	0.889516	0.235339	0.658581
C43	C	0.885212	0.240104	0.749392
C44	C	0.991689	0.122602	0.749393
C45	C	0.995996	0.117844	0.658586
C46	C	0.944907	0.174208	0.613185
N47	N	0.903708	0.219655	0.479822
N48	N	0.949311	0.169331	0.520367
H49	H	0.329663	0.070141	0.000121
H50	H	1.012925	0.099112	0.213832
H51	H	0.296170	0.372525	0.000069
H52	H	1.033283	0.076712	0.786368
H53	H	0.811924	0.320923	0.378565
O54	O	0.139786	0.370875	0.000133
C55	C	0.060800	0.345346	0.000119
H56	H	0.056265	0.274101	0.027435
H57	H	0.040437	0.343475	-0.069088
C58	C	0.013725	0.503731	0.023144
C59	C	0.008153	0.416229	0.056700
H60	H	-0.018751	0.547456	0.058042
H61	H	0.066939	0.520932	0.023150
H62	H	-0.003243	0.502159	-0.034529
H63	H	0.025131	0.417800	0.114367
H64	H	-0.045059	0.399030	0.056705
H65	H	0.556847	0.016475	0.000114
H66	H	0.705249	0.030517	0.000090
O67	O	0.811683	0.321233	0.206814
C68	C	0.761857	0.376198	0.266357
H69	H	0.790937	0.383032	0.331081
H70	H	0.703108	0.342422	0.276029
C71	C	0.711794	0.464238	0.151405
C72	C	0.747513	0.472638	0.230899
H73	H	0.702943	0.523726	0.129532
H74	H	0.745360	0.427205	0.111289
H75	H	0.662840	0.436089	0.159476
H76	H	0.796470	0.500777	0.222825
H77	H	0.713955	0.509678	0.271013
H78	H	0.523358	0.318852	0.000071
O79	O	0.676594	0.346673	0.000090
C80	C	0.614805	0.415144	0.000068
H81	H	0.557909	0.386623	0.027386
H82	H	0.606553	0.436317	-0.069142
C83	C	0.705197	0.534893	0.023082
C84	C	0.635317	0.499865	0.056641
H85	H	0.717851	0.587155	0.057975
H86	H	0.746826	0.488764	0.023093
H87	H	0.698311	0.552530	-0.034593
H88	H	0.642207	0.482218	0.114311
H89	H	0.593690	0.545993	0.056641
O90	O	1.013216	0.098873	0.385570
C91	C	1.063023	0.043887	0.326025
H92	H	1.067020	0.078368	0.261288
H93	H	1.037941	-0.027039	0.316387
C94	C	1.141001	-0.009296	0.440962
C95	C	1.145916	0.033058	0.361452
H96	H	1.192132	-0.015980	0.462816
H97	H	1.107444	0.027746	0.481079
H98	H	1.120096	-0.068397	0.432919
H99	H	1.166811	0.092161	0.369498
H100	H	1.179478	-0.003975	0.321337
O101	O	1.049823	0.058376	0.614619
C102	C	1.093998	0.009662	0.674167
H103	H	1.058777	0.009626	0.738901
H104	H	1.151832	0.044451	0.683810
C105	C	1.154966	-0.090448	0.559232
C106	C	1.111704	-0.090500	0.638738
H107	H	1.165892	-0.152232	0.537377
H108	H	1.125207	-0.057627	0.519113
H109	H	1.203156	-0.061453	0.567279
H110	H	1.063512	-0.119484	0.630688
H111	H	1.141456	-0.123328	0.678855
O112	O	0.176422	0.042326	0.000163
C113	C	0.238206	-0.026154	0.000149
H114	H	0.292509	0.005221	0.027461
H115	H	0.253036	-0.054581	-0.069058
C116	C	0.145613	-0.143478	0.023183
C117	C	0.212307	-0.104943	0.056734
H118	H	0.129637	-0.192081	0.058084
H119	H	0.103987	-0.097343	0.023189
H120	H	0.157980	-0.167159	-0.034489
H121	H	0.199936	-0.081253	0.114401
H122	H	0.253930	-0.151077	0.056739
H123	H	0.840105	0.289889	0.786355
H124	H	0.847918	0.281234	0.621622
