data_functionalizedCrystal
_audit_creation_method	'MofGen! by Chris Wilmer'
_symmetry_space_group_name_H-M	'P1'
_symmetry_Int_Tables_number	1
_symmetry_cell_setting	triclinic
loop_
_symmetry_equiv_pos_as_xyz
  x,y,z
_cell_length_a	14.519731
_cell_length_b	14.519709
_cell_length_c	12.376457
_cell_angle_alpha	101.296542
_cell_angle_beta	78.684744
_cell_angle_gamma	83.684499
loop_
_atom_site_label
_atom_site_type_symbol
_atom_site_fract_x
_atom_site_fract_y
_atom_site_fract_z
O1	O	1.241513	0.103338	-0.094009
O2	O	1.574846	0.436671	0.239324
O3	O	1.908180	0.770004	0.572657
O4	O	0.973039	0.117553	-0.094012
O5	O	1.306373	0.450887	0.239322
O6	O	1.639706	0.784220	0.572655
O7	O	1.114392	-0.023790	-0.094000
O8	O	1.447726	0.309543	0.239333
O9	O	1.781059	0.642876	0.572666
O10	O	1.100160	0.244682	-0.094021
O11	O	1.433493	0.578015	0.239313
O12	O	1.766827	0.911348	0.572646
O13	O	1.079067	0.011497	0.094009
O14	O	1.412400	0.344831	0.427342
O15	O	1.745733	0.678164	0.760676
O16	O	0.937713	0.152841	0.093998
O17	O	1.271047	0.486175	0.427331
O18	O	1.604380	0.819508	0.760664
O19	O	1.206187	0.138626	0.094000
O20	O	1.539521	0.471959	0.427333
O21	O	1.872854	0.805292	0.760666
Zn22	Zn	1.066342	0.151336	0.123849
Zn23	Zn	1.399675	0.484669	0.457183
Zn24	Zn	1.733008	0.818003	0.790516
Zn25	Zn	1.112885	0.104843	-0.123861
Zn26	Zn	1.446218	0.438176	0.209472
Zn27	Zn	1.779552	0.771510	0.542806
O28	O	1.064834	0.279969	0.093989
O29	O	1.398167	0.613303	0.427322
O30	O	1.731501	0.946636	0.760655
C31	C	0.921017	0.134531	-0.000007
C32	C	1.254350	0.467864	0.333326
C33	C	1.587684	0.801198	0.666660
C34	C	0.818637	0.132535	-0.000007
C35	C	1.151970	0.465868	0.333326
C36	C	1.485303	0.799202	0.666659
C37	C	0.735493	0.130912	-0.000012
C38	C	1.068827	0.464246	0.333321
C39	C	1.402160	0.797579	0.666655
C40	C	0.631185	0.128886	-0.000012
C41	C	0.964518	0.462219	0.333321
C42	C	1.297851	0.795552	0.666654
C43	C	0.548046	0.127277	-0.000012
C44	C	0.881379	0.460611	0.333321
C45	C	1.214712	0.793944	0.666655
C46	C	0.443731	0.125250	-0.000014
C47	C	0.777064	0.458584	0.333319
C48	C	1.110397	0.791917	0.666652
C49	C	1.096066	-0.040506	0.000005
C50	C	1.429399	0.292827	0.333338
C51	C	1.762733	0.626160	0.666671
C52	C	1.094078	-0.142888	0.000005
C53	C	1.427411	0.190446	0.333339
C54	C	1.760744	0.523779	0.666672
C55	C	1.086764	-0.517789	-0.000024
C56	C	1.420097	-0.184456	0.333309
C57	C	1.753431	0.148877	0.666642
C58	C	1.088795	-0.413480	-0.000016
C59	C	1.422128	-0.080146	0.333318
C60	C	1.755461	0.253187	0.666651
C61	C	1.090420	-0.330342	-0.000008
C62	C	1.423754	0.002992	0.333325
C63	C	1.757087	0.336325	0.666658
C64	C	1.092452	-0.226026	-0.000002
C65	C	1.425786	0.107308	0.333331
C66	C	1.759119	0.440641	0.666665
C67	C	1.258210	0.121647	-0.000007
C68	C	1.591543	0.454981	0.333326
C69	C	1.924877	0.788314	0.666659
C70	C	1.360592	0.123642	-0.000014
C71	C	1.693925	0.456975	0.333319
C72	C	2.027258	0.790309	0.666653
C73	C	1.083161	0.296685	-0.000019
C74	C	1.416494	0.630018	0.333315
C75	C	1.749828	0.963351	0.666648
C76	C	1.085151	0.399065	-0.000027
C77	C	1.418484	0.732398	0.333307
C78	C	1.751817	1.065731	0.666640
N79	N	1.034584	0.183066	0.292905
N80	N	1.367917	0.516399	0.626238
N81	N	1.701250	0.849732	0.959572
N82	N	1.144650	0.073106	-0.292917
N83	N	1.477983	0.406439	0.040417
N84	N	1.811317	0.739773	0.373750
C85	C	1.218370	-0.000567	0.647905
C86	C	1.551703	0.332766	0.981238
C87	C	1.885037	0.666099	1.314571
C88	C	1.240592	-0.022775	0.529567
C89	C	1.573925	0.310558	0.862900
C90	C	1.907259	0.643892	1.196233
C91	C	1.189092	0.028683	0.470395
C92	C	1.522425	0.362016	0.803729
C93	C	1.855758	0.695350	1.137062
C94	C	1.115366	0.102353	0.529574
C95	C	1.448699	0.435687	0.862907
C96	C	1.782032	0.769020	1.196241
C97	C	1.093146	0.124568	0.647924
C98	C	1.426480	0.457902	0.981257
C99	C	1.759813	0.791235	1.314590
C100	C	1.063868	0.153818	0.470414
C101	C	1.397201	0.487152	0.803748
C102	C	1.730535	0.820485	1.137081
C103	C	0.990142	0.227489	0.529593
C104	C	1.323475	0.560822	0.862926
C105	C	1.656809	0.894155	1.196260
C106	C	0.967926	0.249699	0.647931
C107	C	1.301259	0.583033	0.981264
C108	C	1.634593	0.916366	1.314598
C109	C	1.019426	0.198241	0.707102
C110	C	1.352760	0.531575	1.040435
C111	C	1.686093	0.864908	1.373769
C112	C	1.086088	0.131603	0.352065
C113	C	1.419421	0.464937	0.685398
C114	C	1.752754	0.798270	1.018731
C115	C	0.960864	0.256739	0.352084
C116	C	1.294197	0.590072	0.685417
C117	C	1.627531	0.923406	1.018750
C118	C	0.938642	0.278947	0.470422
C119	C	1.271975	0.612280	0.803755
C120	C	1.605308	0.945613	1.137088
H121	H	1.146116	0.071621	0.303892
H122	H	1.479449	0.404955	0.637225
H123	H	1.812782	0.738288	0.970559
H124	H	1.207188	0.010598	0.374039
H125	H	1.540522	0.343931	0.707373
H126	H	1.873855	0.677265	1.040706
Br127	Br	0.890972	0.326586	0.271789
Br128	Br	1.224306	0.659919	0.605122
Br129	Br	1.557639	0.993252	0.938455
H130	H	1.300620	-0.082756	0.481388
H131	H	1.633953	0.250578	0.814721
H132	H	1.967286	0.583911	1.148055
Br133	Br	0.989259	0.228377	0.867711
Br134	Br	1.322592	0.561710	1.201044
Br135	Br	1.655925	0.895044	1.534378
Br136	Br	1.288267	-0.070386	0.728208
Br137	Br	1.621601	0.262947	1.061541
Br138	Br	1.954934	0.596281	1.394874
H139	H	0.907901	0.309693	0.696114
H140	H	1.241234	0.643026	1.029447
H141	H	1.574568	0.976360	1.362781
Br142	Br	0.838586	0.378924	0.550746
Br143	Br	1.171919	0.712258	0.884080
Br144	Br	1.505253	1.045591	1.217413
