data_functionalizedCrystal
_audit_creation_method	'MofGen! by Chris Wilmer'
_symmetry_space_group_name_H-M	'P1'
_symmetry_Int_Tables_number	1
_symmetry_cell_setting	triclinic
loop_
_symmetry_equiv_pos_as_xyz
  x,y,z
_cell_length_a	9.065215
_cell_length_b	10.654550
_cell_length_c	9.130313
_cell_angle_alpha	89.998405
_cell_angle_beta	89.997021
_cell_angle_gamma	84.749813
loop_
_atom_site_label
_atom_site_type_symbol
_atom_site_fract_x
_atom_site_fract_y
_atom_site_fract_z
O1	O	1.959395	0.184142	-0.121772
O2	O	1.530027	0.199251	-0.121777
O3	O	1.754583	0.008996	-0.121776
O4	O	1.734839	0.374397	-0.121774
O5	O	1.754568	0.008991	0.121823
O6	O	1.530012	0.199245	0.121821
O7	O	1.959380	0.184136	0.121827
Cu8	Cu	1.744694	0.191690	0.144067
Cu9	Cu	1.744713	0.191697	-0.144017
O10	O	1.734824	0.374391	0.121825
C11	C	1.475041	0.197797	0.000021
C12	C	1.311221	0.193458	0.000019
C13	C	1.753126	-0.037810	0.000020
C14	C	1.748788	-0.177271	0.000010
C15	C	1.742668	-0.373832	-0.132764
C16	C	1.746759	-0.242796	-0.132773
C17	C	1.746743	-0.242790	0.132812
C18	C	1.742663	-0.373825	0.132819
C19	C	2.014366	0.185590	0.000025
C20	C	2.178186	0.189930	0.000018
C21	C	1.736281	0.421198	0.000026
C22	C	1.740619	0.560658	0.000027
N23	N	1.744692	0.191685	0.346689
N24	N	1.744726	0.191693	-0.346640
C25	C	1.844160	0.107476	0.423342
C26	C	1.844174	0.107476	0.576679
C27	C	1.645248	0.275905	0.576697
C28	C	1.645228	0.275898	0.423363
H29	H	1.748430	-0.189464	-0.240905
C30	C	1.748975	-0.170714	0.278875
C31	C	1.623875	-0.067825	0.315384
C32	C	1.626101	0.004250	0.461451
C33	C	1.753427	-0.026563	0.571009
C34	C	1.878536	-0.129456	0.534502
C35	C	1.876310	-0.201532	0.388436
H36	H	1.529612	-0.045011	0.234281
H37	H	1.533486	0.080419	0.488475
H38	H	1.755074	0.026792	0.679136
H39	H	1.972799	-0.152271	0.615606
H40	H	1.968925	-0.277700	0.361412
C41	C	1.740422	-0.445891	0.278903
C42	C	1.613090	-0.415075	0.388465
C43	C	1.610863	-0.487140	0.534544
C44	C	1.735967	-0.590021	0.571060
C45	C	1.863308	-0.620842	0.461496
C46	C	1.865535	-0.548777	0.315417
H47	H	1.520472	-0.338912	0.361436
H48	H	1.516596	-0.464324	0.615650
H49	H	1.734318	-0.643368	0.679196
H50	H	1.955926	-0.697005	0.488525
H51	H	1.959802	-0.571594	0.234310
H52	H	1.925147	0.038903	0.360918
C53	C	1.953593	0.014849	0.660999
C54	C	2.063018	-0.077759	0.576658
C55	C	2.172441	-0.170391	0.660978
C56	C	2.172439	-0.170416	0.829639
C57	C	2.063010	-0.077804	0.913990
C58	C	1.953587	0.014828	0.829670
H59	H	2.063023	-0.077743	0.451796
H60	H	2.253447	-0.238948	0.598535
H61	H	2.253440	-0.238988	0.892058
H62	H	2.063004	-0.077820	1.038852
H63	H	1.872580	0.083385	0.892113
H64	H	1.564269	0.344472	0.639140
C65	C	1.535809	0.368534	0.339031
C66	C	1.426465	0.461222	0.423359
C67	C	1.317048	0.553849	0.339026
C68	C	1.316973	0.553789	0.170365
C69	C	1.426321	0.461098	0.086027
C70	C	1.535739	0.368471	0.170360
H71	H	1.426517	0.461269	0.548221
H72	H	1.236101	0.622464	0.401459
H73	H	1.235976	0.622357	0.107936
H74	H	1.426269	0.461050	-0.038835
H75	H	1.616685	0.299855	0.107927
H76	H	1.741002	-0.427172	-0.240892
