data_functionalizedCrystal
_audit_creation_method	'MofGen! by Chris Wilmer'
_symmetry_space_group_name_H-M	'P1'
_symmetry_Int_Tables_number	1
_symmetry_cell_setting	triclinic
loop_
_symmetry_equiv_pos_as_xyz
  x,y,z
_cell_length_a	6.394989
_cell_length_b	8.559649
_cell_length_c	7.681481
_cell_angle_alpha	94.909543
_cell_angle_beta	84.093813
_cell_angle_gamma	78.138188
loop_
_atom_site_label
_atom_site_type_symbol
_atom_site_fract_x
_atom_site_fract_y
_atom_site_fract_z
O1	O	0.048485	-2.104031	0.146556
O2	O	0.548485	-1.604031	0.646556
O3	O	-0.059035	-1.640995	0.146528
O4	O	0.440965	-1.140995	0.646528
O5	O	0.299843	-1.879085	0.146544
O6	O	0.799843	-1.379085	0.646544
O7	O	-0.310393	-1.865940	0.146540
O8	O	0.189607	-1.365940	0.646540
O9	O	0.344104	-1.908388	-0.146312
O10	O	0.844104	-1.408388	0.353688
O11	O	-0.014774	-1.670298	-0.146328
O12	O	0.485226	-1.170298	0.353672
O13	O	0.092746	-2.133334	-0.146299
O14	O	0.592746	-1.633334	0.353701
Zn15	Zn	0.046013	-1.906468	-0.192811
Zn16	Zn	0.546013	-1.406468	0.307189
Zn17	Zn	-0.012302	-1.867860	0.193039
Zn18	Zn	0.487698	-1.367860	0.693039
O19	O	-0.266132	-1.895244	-0.146315
O20	O	0.233868	-1.395244	0.353685
C21	C	-0.045053	-1.596281	0.000096
C22	C	0.454947	-1.096281	0.500096
C23	C	-0.069306	-1.419390	0.000086
C24	C	0.430694	-0.919390	0.500086
N25	N	0.085816	-1.932829	-0.456143
N26	N	0.585816	-1.432829	0.043857
C27	C	0.399377	-1.891137	0.000122
C28	C	0.899377	-1.391137	0.500122
C29	C	0.634338	-1.883194	0.000124
C30	C	1.134338	-1.383194	0.500124
C31	C	0.078766	-1.178049	0.000120
C32	C	0.578766	-0.678049	0.500120
C33	C	0.103025	-1.354943	0.000095
C34	C	0.603025	-0.854943	0.500095
N35	N	-0.052086	-1.841512	0.456372
N36	N	0.447914	-1.341512	0.956372
H37	H	0.269131	-1.435103	0.000101
H38	H	0.769131	-0.935103	0.500101
H39	H	-0.192843	-1.748295	-0.468438
H40	H	0.307157	-1.248295	0.031562
H41	H	0.226569	-2.026064	-0.531343
H42	H	0.726569	-1.526064	-0.031343
H43	H	-0.235405	-1.339237	0.000098
H44	H	0.264595	-0.839237	0.500098
