data_functionalizedCrystal
_audit_creation_method	'MofGen! by Chris Wilmer'
_symmetry_space_group_name_H-M	'P1'
_symmetry_Int_Tables_number	1
_symmetry_cell_setting	triclinic
loop_
_symmetry_equiv_pos_as_xyz
  x,y,z
_cell_length_a	17.077404
_cell_length_b	18.215405
_cell_length_c	17.077396
_cell_angle_alpha	90.028580
_cell_angle_beta	90.019501
_cell_angle_gamma	90.022957
loop_
_atom_site_label
_atom_site_type_symbol
_atom_site_fract_x
_atom_site_fract_y
_atom_site_fract_z
Zn1	Zn	1.200055	-0.292980	0.443842
Zn2	Zn	1.199963	-0.416053	0.312576
Zn3	Zn	1.068787	-0.293006	0.312590
Zn4	Zn	1.068756	-0.416010	0.443800
O5	O	1.134390	-0.354512	0.378202
O6	O	1.309890	-0.309313	0.426441
O7	O	1.182537	-0.399760	0.202731
O8	O	1.086252	-0.190018	0.330025
O9	O	1.309822	-0.399735	0.330001
O10	O	1.182694	-0.189999	0.426455
O11	O	1.086163	-0.309357	0.202741
O12	O	0.958936	-0.309315	0.329983
O13	O	1.086198	-0.399660	0.553652
O14	O	0.958913	-0.399685	0.426382
O15	O	1.182664	-0.309271	0.553683
O16	O	1.182506	-0.519032	0.329959
O17	O	1.086109	-0.519000	0.426369
C18	C	0.930442	-0.354499	0.378180
C19	C	0.843193	-0.354511	0.378190
C20	C	0.802211	-0.401638	0.428304
C21	C	0.720230	-0.401639	0.428317
C22	C	0.679233	-0.354517	0.378210
C23	C	0.720221	-0.307385	0.328094
C24	C	0.802200	-0.307380	0.328086
C25	C	0.549351	-0.307400	0.328112
C26	C	0.467366	-0.307405	0.328119
C27	C	0.467381	-0.401659	0.428344
C28	C	0.549360	-0.401654	0.428336
C29	C	0.590342	-0.354522	0.378218
C30	C	1.134315	-0.545718	0.378175
C31	C	1.134355	-0.627517	0.378190
C32	C	1.184596	-0.815640	0.428469
C33	C	1.184625	-0.892499	0.428484
C34	C	1.084282	-0.892632	0.327984
C35	C	1.084250	-0.815775	0.327974
C36	C	1.134411	-0.777281	0.378215
C37	C	1.134472	-0.930997	0.378240
C38	C	1.134502	-1.014330	0.378255
C39	C	1.134380	-0.693942	0.378201
C40	C	1.339135	-0.354526	0.378224
C41	C	1.426384	-0.354532	0.378234
C42	C	1.134438	-0.354458	0.582946
C43	C	1.134458	-0.354435	0.670196
C44	C	1.134487	-0.162559	0.378246
C45	C	1.134529	-0.080760	0.378265
C46	C	1.134388	-0.354513	0.174254
C47	C	1.134520	-0.354329	0.087005
C48	C	1.184689	-0.307365	0.711204
C49	C	1.184699	-0.307341	0.793184
C50	C	1.134480	-0.354390	0.834156
C51	C	1.084243	-0.401462	0.793142
C52	C	1.084231	-0.401482	0.711163
C53	C	1.084275	-0.401418	0.964012
C54	C	1.084289	-0.401399	1.045997
C55	C	1.184743	-0.307276	1.046034
C56	C	1.184730	-0.307296	0.964055
C57	C	1.134494	-0.354369	0.923047
H58	H	0.686834	-0.269014	0.287299
C59	C	1.029730	-0.774254	0.273322
C60	C	0.985827	-0.824413	0.229306
C61	C	0.935604	-0.786191	0.178952
H62	H	0.995429	-0.744278	0.303228
H63	H	1.059750	-0.744284	0.239104
H64	H	0.955809	-0.854370	0.263520
H65	H	1.020107	-0.854391	0.199384
H66	H	0.965623	-0.756222	0.144734
H67	H	0.901308	-0.756217	0.208864
H68	H	0.905814	-0.820219	0.149076
H69	H	1.043352	-0.439768	0.826508
H70	H	1.225488	-0.923728	0.469407
H71	H	1.225627	-0.268989	0.930698
C72	C	1.239244	-0.256201	0.666866
C73	C	1.283220	-0.214960	0.720330
C74	C	1.333476	-0.167809	0.679518
H75	H	1.273498	-0.284279	0.634882
H76	H	1.209244	-0.224101	0.634906
H77	H	1.313218	-0.247055	0.752277
H78	H	1.248987	-0.186866	0.752316
H79	H	1.303476	-0.135710	0.647557
H80	H	1.367724	-0.195894	0.647535
H81	H	1.363314	-0.139817	0.715786
C82	C	0.846819	-0.452681	0.482753
C83	C	0.893935	-0.411068	0.533126
C84	C	0.935044	-0.458063	0.583292
H85	H	0.810758	-0.480763	0.512677
H86	H	0.878820	-0.484698	0.452685
H87	H	0.861937	-0.379064	0.563191
H88	H	0.930011	-0.382987	0.503223
H89	H	0.967045	-0.490081	0.553223
H90	H	0.898978	-0.486144	0.613210
H91	H	0.967023	-0.429837	0.617470
C92	C	1.029676	-0.452504	1.090341
C93	C	0.985659	-0.493715	1.036884
C94	C	0.935335	-0.540795	1.077704
H95	H	1.059604	-0.484631	1.122320
H96	H	0.995457	-0.424354	1.122306
H97	H	1.019874	-0.521864	1.004932
H98	H	0.955716	-0.461608	1.004903
H99	H	0.901116	-0.512644	1.109670
H100	H	0.965269	-0.572917	1.109682
H101	H	0.905458	-0.568757	1.041440
C102	C	0.422711	-0.256293	0.273783
C103	C	0.342147	-0.266391	0.284516
C104	C	0.300986	-0.219313	0.234481
H105	H	0.436086	-0.206839	0.285347
H106	H	0.436057	-0.266973	0.220990
H107	H	0.328806	-0.255705	0.337296
H108	H	0.328748	-0.315835	0.272946
H109	H	0.314332	-0.229993	0.181688
H110	H	0.314368	-0.169862	0.246049
H111	H	0.246319	-0.226163	0.241751
C112	C	0.675631	-0.452851	0.482594
C113	C	0.628513	-0.499950	0.438058
C114	C	0.587407	-0.547131	0.488033
H115	H	0.711694	-0.480990	0.512451
H116	H	0.643631	-0.424763	0.516842
H117	H	0.660510	-0.528036	0.403824
H118	H	0.592435	-0.471831	0.408203
H119	H	0.555408	-0.519043	0.522281
H120	H	0.623476	-0.575265	0.517887
H121	H	0.555428	-0.579089	0.457823
C122	C	0.422750	-0.452747	0.482733
C123	C	0.342181	-0.442651	0.472036
C124	C	0.301039	-0.489694	0.522129
H125	H	0.436065	-0.502209	0.471197
H126	H	0.436170	-0.442033	0.535510
H127	H	0.328766	-0.453370	0.419271
H128	H	0.328843	-0.393199	0.483577
H129	H	0.314459	-0.478980	0.574906
H130	H	0.314361	-0.539154	0.510589
H131	H	0.246369	-0.482846	0.514883
C132	C	1.029785	-0.934522	0.273559
C133	C	0.979476	-0.978674	0.317959
C134	C	0.929271	-1.017280	0.267846
H135	H	0.999816	-0.900752	0.243610
H136	H	1.059828	-0.964542	0.239402
H137	H	0.949436	-0.948656	0.352101
H138	H	1.009423	-1.012458	0.347906
H139	H	0.959314	-1.047300	0.233689
H140	H	0.899308	-0.983504	0.237899
H141	H	0.895136	-1.047246	0.297963
H142	H	0.835566	-0.269001	0.287281
H143	H	1.043319	-0.439804	0.677776
C144	C	1.239103	-0.256136	0.837742
C145	C	1.194683	-0.208934	0.884784
C146	C	1.244772	-0.161741	0.925830
H147	H	1.273315	-0.284187	0.869791
H148	H	1.268993	-0.228079	0.801619
H149	H	1.164807	-0.236988	0.920903
H150	H	1.160473	-0.180867	0.852754
H151	H	1.274662	-0.133684	0.889707
H152	H	1.278981	-0.189798	0.957875
H153	H	1.214640	-0.129705	0.957747
C154	C	1.239239	-0.256041	1.090447
C155	C	1.222195	-0.183234	1.070496
C156	C	1.272387	-0.136020	1.111387
H157	H	1.232106	-0.262659	1.145151
H158	H	1.291985	-0.266778	1.077001
H159	H	1.169461	-0.172501	1.083947
H160	H	1.229331	-0.176593	1.015798
H161	H	1.325134	-0.146757	1.097941
H162	H	1.265251	-0.142645	1.166089
H163	H	1.260834	-0.086616	1.097850
H164	H	0.582716	-0.269014	0.287308
C165	C	1.239076	-0.773979	0.483109
C166	C	1.283015	-0.824027	0.527139
C167	C	1.333201	-0.785678	0.577494
H168	H	1.273357	-0.743985	0.453203
H169	H	1.209028	-0.744016	0.517319
H170	H	1.313061	-0.853977	0.492934
H171	H	1.248754	-0.854023	0.557061
H172	H	1.303152	-0.755716	0.611704
H173	H	1.367476	-0.755685	0.547582
H174	H	1.363013	-0.819630	0.607379
C175	C	1.029869	-0.452570	0.919380
C176	C	1.074296	-0.499733	0.872300
C177	C	1.024211	-0.546859	0.831162
H178	H	0.999943	-0.480665	0.955424
H179	H	0.995689	-0.424445	0.887352
H180	H	1.108461	-0.527855	0.904325
H181	H	1.104220	-0.471658	0.836241
H182	H	0.990032	-0.518734	0.799134
H183	H	0.994288	-0.574949	0.867211
H184	H	1.054347	-0.578860	0.799208
H185	H	0.582738	-0.440029	0.469132
