data_functionalizedCrystal
_audit_creation_method	'MofGen! by Chris Wilmer'
_symmetry_space_group_name_H-M	'P1'
_symmetry_Int_Tables_number	1
_symmetry_cell_setting	triclinic
loop_
_symmetry_equiv_pos_as_xyz
  x,y,z
_cell_length_a	13.032831
_cell_length_b	12.594516
_cell_length_c	13.032268
_cell_angle_alpha	97.151307
_cell_angle_beta	90.886977
_cell_angle_gamma	82.816889
loop_
_atom_site_label
_atom_site_type_symbol
_atom_site_fract_x
_atom_site_fract_y
_atom_site_fract_z
Zn1	Zn	1.498550	-0.718827	-0.780858
Zn2	Zn	1.520308	-0.877413	-0.608883
Zn3	Zn	1.348404	-0.674363	-0.587098
Zn4	Zn	1.326556	-0.871658	-0.759008
O5	O	1.423454	-0.785565	-0.683962
O6	O	1.645359	-0.760881	-0.776307
O7	O	1.515754	-0.834278	-0.462076
O8	O	1.368359	-0.531324	-0.612827
O9	O	1.661344	-0.877393	-0.649958
O10	O	1.478671	-0.563992	-0.755182
O11	O	1.389457	-0.685098	-0.446070
O12	O	1.201583	-0.679517	-0.591641
O13	O	1.331122	-0.867585	-0.905824
O14	O	1.185531	-0.824469	-0.717943
O15	O	1.457485	-0.755301	-0.921877
O16	O	1.494568	-1.025587	-0.628771
O17	O	1.352219	-1.021359	-0.739067
C18	C	1.156239	-0.746545	-0.650057
C19	C	1.041921	-0.729880	-0.635577
C20	C	0.983051	-0.794263	-0.691519
C21	C	0.864896	-0.777041	-0.676555
C22	C	1.423409	-1.062097	-0.683938
C23	C	1.423479	-1.180416	-0.683974
C24	C	1.500973	-1.251950	-0.624067
C25	C	1.514180	-1.336910	-0.721120
C26	C	1.410394	-1.306281	-0.586998
C27	C	1.436728	-1.263831	-0.781082
C28	C	1.332906	-1.233181	-0.646891
C29	C	1.346069	-1.318112	-0.744004
C30	C	1.691713	-0.824739	-0.718000
C31	C	1.806028	-0.841432	-0.732505
C32	C	1.389439	-0.815761	-0.952210
C33	C	1.374944	-0.828628	-1.066522
C34	C	1.423525	-0.507960	-0.684012
C35	C	1.423555	-0.389661	-0.684033
C36	C	1.431004	-0.778809	-1.125428
C37	C	1.416023	-0.792107	-1.243575
C38	C	1.457397	-0.755419	-0.416765
C39	C	1.472091	-0.742281	-0.302479
H40	H	1.566510	-1.222844	-0.573460
H41	H	1.590807	-1.381932	-0.752516
C42	C	0.856094	-0.933130	-0.812182
C43	C	0.826622	-0.935674	-0.927269
C44	C	0.876689	-1.027369	-1.006945
C45	C	0.956228	-1.116520	-0.971533
C46	C	0.985705	-1.113979	-0.856440
C47	C	0.935638	-1.022284	-0.776764
H48	H	0.767739	-0.869677	-0.953488
H49	H	0.854868	-1.029250	-1.092144
H50	H	0.993291	-1.184398	-1.030514
H51	H	1.044588	-1.179976	-0.830221
H52	H	0.957459	-1.020403	-0.691565
H53	H	1.004847	-0.662005	-0.576608
H54	H	1.280558	-1.347044	-0.794757
H55	H	1.490085	-0.726308	-1.088392
C56	C	1.395386	-1.332106	-0.476172
C57	C	1.474505	-1.303495	-0.391429
C58	C	1.459506	-1.329316	-0.280603
C59	C	1.365388	-1.383750	-0.254520
C60	C	1.286262	-1.412364	-0.339265
C61	C	1.301261	-1.386543	-0.450091
H62	H	1.544183	-1.263197	-0.410736
H63	H	1.518081	-1.308134	-0.217870
H64	H	1.354285	-1.402864	-0.172480
H65	H	1.216584	-1.452662	-0.319959
H66	H	1.242686	-1.407726	-0.512825
H67	H	1.256305	-1.188137	-0.615470
H68	H	1.447741	-1.244837	-0.863177
H69	H	1.315852	-0.881117	-1.103556
C70	C	1.336196	-0.863034	-1.293591
C71	C	1.346403	-0.983613	-1.279965
C72	C	1.266578	-1.054538	-1.329982
C73	C	1.176544	-1.004884	-1.393626
C74	C	1.166332	-0.884298	-1.407255
C75	C	1.246158	-0.813373	-1.357238
H76	H	1.413055	-1.020376	-1.232850
H77	H	1.274137	-1.143804	-1.319893
H78	H	1.117452	-1.057387	-1.430652
H79	H	1.099680	-0.847535	-1.454371
H80	H	1.238598	-0.724107	-1.367327
C81	C	1.033124	-0.885954	-0.771193
C82	C	1.112665	-0.975103	-0.735781
C83	C	1.162735	-1.066796	-0.815456
C84	C	1.133265	-1.069339	-0.930544
C85	C	1.053720	-0.980187	-0.965962
C86	C	1.003649	-0.888494	-0.886286
H87	H	1.134484	-0.973223	-0.650581
H88	H	1.221620	-1.132792	-0.789237
H89	H	1.170330	-1.137216	-0.989525
H90	H	1.031900	-0.982067	-1.051162
H91	H	0.944765	-0.822498	-0.912505
C92	C	0.814830	-0.685343	-0.596878
C93	C	0.735291	-0.596193	-0.632291
C94	C	0.685223	-0.504497	-0.552616
C95	C	0.714695	-0.501952	-0.437529
C96	C	0.794238	-0.591105	-0.402110
C97	C	0.844306	-0.682801	-0.481785
H98	H	0.713471	-0.598074	-0.717491
H99	H	0.626340	-0.438500	-0.578836
H100	H	0.677632	-0.434073	-0.378549
H101	H	0.816058	-0.589224	-0.316910
H102	H	0.903189	-0.748798	-0.455565
H103	H	1.531175	-0.689773	-1.265449
