data_functionalizedCrystal
_audit_creation_method	'MofGen! by Chris Wilmer'
_symmetry_space_group_name_H-M	'P1'
_symmetry_Int_Tables_number	1
_symmetry_cell_setting	triclinic
loop_
_symmetry_equiv_pos_as_xyz
  x,y,z
_cell_length_a	13.897448
_cell_length_b	12.759401
_cell_length_c	12.759393
_cell_angle_alpha	90.020938
_cell_angle_beta	89.967728
_cell_angle_gamma	89.980783
loop_
_atom_site_label
_atom_site_type_symbol
_atom_site_fract_x
_atom_site_fract_y
_atom_site_fract_z
Zn1	Zn	-0.383929	-1.606245	-0.594007
Zn2	Zn	-0.545255	-1.606126	-0.418322
Zn3	Zn	-0.383980	-1.430543	-0.418342
Zn4	Zn	-0.545188	-1.430526	-0.593959
O5	O	-0.464588	-1.518360	-0.506158
O6	O	-0.405336	-1.753250	-0.570714
O7	O	-0.523912	-1.582793	-0.271303
O8	O	-0.248992	-1.453907	-0.441673
O9	O	-0.523862	-1.753163	-0.441638
O10	O	-0.248954	-1.582994	-0.570734
O11	O	-0.405423	-1.453793	-0.271318
O12	O	-0.405358	-1.283520	-0.441627
O13	O	-0.523747	-1.453878	-0.740987
O14	O	-0.523797	-1.283507	-0.570652
O15	O	-0.405271	-1.582977	-0.741022
O16	O	-0.680228	-1.582776	-0.441592
O17	O	-0.680179	-1.453763	-0.570632
C18	C	-0.715203	-1.518283	-0.506127
C19	C	-0.822416	-1.518347	-0.506149
C20	C	-0.464576	-1.245393	-0.506137
C21	C	-0.464595	-1.128616	-0.506153
C22	C	-0.464496	-1.518439	-0.780191
C23	C	-0.464456	-1.518472	-0.896968
C24	C	-1.018711	-1.518457	-0.506215
C25	C	-0.909479	-1.518393	-0.506182
C26	C	-0.212995	-1.518466	-0.506211
C27	C	-0.105781	-1.518511	-0.506234
C28	C	-0.464601	-1.792393	-0.506179
C29	C	-0.464606	-1.909170	-0.506188
C30	C	-0.526359	-1.073775	-0.573230
C31	C	-0.526363	-0.964051	-0.573251
C32	C	-0.402834	-0.964019	-0.439108
C33	C	-0.402827	-1.073741	-0.439093
C34	C	-0.560974	-0.814153	-0.697110
C35	C	-0.622754	-0.759308	-0.764179
C36	C	-0.716889	-0.794901	-0.780123
C37	C	-0.749263	-0.885336	-0.728984
C38	C	-0.687488	-0.940175	-0.661908
C39	C	-0.593340	-0.904584	-0.645984
C40	C	-0.368225	-1.223641	-0.315232
C41	C	-0.306455	-1.278482	-0.248150
C42	C	-0.212318	-1.242892	-0.232195
C43	C	-0.179948	-1.152453	-0.283315
C44	C	-0.241718	-1.097612	-0.350397
C45	C	-0.335854	-1.133209	-0.366354
C46	C	-0.402756	-1.585699	-0.951850
C47	C	-0.402714	-1.585717	-1.061574
C48	C	-0.526082	-1.451278	-1.061524
C49	C	-0.526118	-1.451255	-0.951802
C50	C	-0.288908	-1.623336	-1.211556
C51	C	-0.227216	-1.690579	-1.266442
C52	C	-0.212425	-1.793093	-1.230851
C53	C	-0.259340	-1.828384	-1.140376
C54	C	-0.321039	-1.761146	-1.085496
C55	C	-0.335812	-1.658618	-1.121085
C56	C	-0.639925	-1.413648	-0.801818
C57	C	-0.701630	-1.346414	-0.746936
C58	C	-0.716431	-1.243899	-0.782525
C59	C	-0.669533	-1.208612	-0.873003
C60	C	-0.607828	-1.275845	-0.927885
C61	C	-0.593026	-1.378359	-0.892289
C62	C	-0.464611	-1.518342	-0.233190
C63	C	-0.464379	-1.518512	-0.116414
H64	H	-0.576652	-1.118451	-0.627837
Br65	Br	-0.384709	-1.809030	-0.962718
Br66	Br	-0.800198	-1.152663	-0.708058
Br67	Br	-0.578819	-0.636581	-0.833581
Br68	Br	-0.619805	-1.552767	-0.753485
H69	H	-0.352544	-1.640429	-0.907207
Br70	Br	-0.689623	-1.069482	-0.921313
Br71	Br	-0.731415	-1.062898	-0.592504
Br72	Br	-0.800729	-0.720470	-0.871150
Br73	Br	-0.052192	-1.104136	-0.261652
H74	H	-0.825921	-0.914301	-0.741963
Br75	Br	-0.433207	-0.765856	-0.675497
Br76	Br	-0.319011	-0.889539	-0.348103
Br77	Br	-0.128493	-1.317308	-0.141135
Br78	Br	-0.197790	-0.974864	-0.419768
H79	H	-0.444876	-1.252634	-0.328227
Br80	Br	-0.350394	-1.401208	-0.178751
H81	H	-0.162193	-1.847843	-1.275547
Br82	Br	-0.239280	-1.967526	-1.092091
Br83	Br	-0.163551	-1.642688	-1.389227
H84	H	-0.300938	-1.539859	-1.240538
H85	H	-0.576287	-1.396554	-1.106184
H86	H	-0.569642	-1.247106	-1.001558
H87	H	-0.739825	-1.375158	-0.673271
