data_functionalizedCrystal
_audit_creation_method	'MofGen! by Chris Wilmer'
_symmetry_space_group_name_H-M	'P1'
_symmetry_Int_Tables_number	1
_symmetry_cell_setting	triclinic
loop_
_symmetry_equiv_pos_as_xyz
  x,y,z
_cell_length_a	17.038272
_cell_length_b	26.210047
_cell_length_c	27.732054
_cell_angle_alpha	89.995081
_cell_angle_beta	93.121621
_cell_angle_gamma	90.003985
loop_
_atom_site_label
_atom_site_type_symbol
_atom_site_fract_x
_atom_site_fract_y
_atom_site_fract_z
O1	O	1.036154	0.042384	-0.104905
O2	O	1.536154	0.542384	0.395095
O3	O	0.808543	0.042398	-0.103239
O4	O	1.308543	0.542398	0.396761
O5	O	0.929415	0.042375	-0.033999
O6	O	1.429415	0.542375	0.466001
O7	O	0.915282	0.042407	-0.174146
O8	O	1.415282	0.542407	0.325854
O9	O	0.929392	-0.042483	-0.034010
O10	O	1.429392	0.457517	0.465990
O11	O	0.808519	-0.042460	-0.103250
O12	O	1.308519	0.457540	0.396750
O13	O	1.036131	-0.042475	-0.104916
O14	O	1.536131	0.457525	0.395084
Cu15	Cu	0.922323	-0.050215	-0.104084
Cu16	Cu	1.422323	0.449785	0.395916
Cu17	Cu	0.922351	0.050139	-0.104071
Cu18	Cu	1.422351	0.550139	0.395929
O19	O	0.915258	-0.042451	-0.174156
O20	O	1.415258	0.457549	0.325844
C21	C	0.779420	-0.000029	-0.101730
C22	C	1.279420	0.499971	0.398270
C23	C	0.692680	-0.000024	-0.097209
C24	C	1.192680	0.499976	0.402791
N25	N	0.922309	-0.120799	-0.104093
N26	N	1.422309	0.379201	0.395907
C27	C	0.642084	-0.000015	-0.138712
C28	C	1.142084	0.499985	0.361288
C29	C	0.560582	-0.000023	-0.134462
C30	C	1.060582	0.499977	0.365538
C31	C	0.529679	-0.000037	-0.088708
C32	C	1.029679	0.499963	0.411292
C33	C	0.580282	-0.000047	-0.047202
C34	C	1.080282	0.499953	0.452798
C35	C	0.661782	-0.000043	-0.051453
C36	C	1.161782	0.499957	0.448547
C37	C	0.284096	-0.000054	-0.073691
C38	C	0.784096	0.499946	0.426309
C39	C	0.202590	-0.000057	-0.069443
C40	C	0.702590	0.499943	0.430557
C41	C	0.182896	-0.000034	-0.156703
C42	C	0.682896	0.499966	0.343297
C43	C	0.264398	-0.000026	-0.160950
C44	C	0.764398	0.499974	0.339050
C45	C	0.314993	-0.000039	-0.119444
C46	C	0.814993	0.499961	0.380556
C47	C	0.446372	-0.000043	-0.084363
C48	C	0.946372	0.499957	0.415637
C49	C	0.398299	-0.000036	-0.123790
C50	C	0.898299	0.499964	0.376210
C51	C	0.975867	-0.473324	-0.073419
C52	C	1.475867	0.026676	0.426581
C53	C	0.975885	-0.686982	-0.073413
C54	C	1.475885	-0.186982	0.426587
O55	O	1.021391	-0.714613	-0.047334
O56	O	1.521391	-0.214613	0.452666
N57	N	0.922355	-0.713693	-0.104061
N58	N	1.422355	-0.213693	0.395939
C59	C	0.868813	-0.686986	-0.134710
C60	C	1.368813	-0.186986	0.365290
O61	O	0.823278	-0.714608	-0.160775
O62	O	1.323278	-0.214608	0.339225
C63	C	0.868793	-0.473329	-0.134713
C64	C	1.368793	0.026671	0.365287
C65	C	0.922332	-0.446620	-0.104067
C66	C	1.422332	0.053380	0.395933
C67	C	1.029401	-0.446615	-0.042775
C68	C	1.529401	0.053385	0.457225
C69	C	1.029399	-0.393204	-0.042778
C70	C	1.529399	0.106796	0.457222
C71	C	0.975863	-0.366501	-0.073426
C72	C	1.475863	0.133499	0.426574
C73	C	0.922330	-0.393209	-0.104071
C74	C	1.422330	0.106791	0.395929
C75	C	0.815249	-0.446623	-0.165360
C76	C	1.315249	0.053377	0.334640
C77	C	0.815247	-0.393205	-0.165357
C78	C	1.315247	0.106795	0.334643
C79	C	0.868786	-0.366497	-0.134711
C80	C	1.368786	0.133503	0.365289
C81	C	0.868792	-0.313094	-0.134722
C82	C	1.368792	0.186906	0.365278
N83	N	0.922322	-0.286383	-0.104074
N84	N	1.422322	0.213617	0.395926
C85	C	0.975857	-0.313087	-0.073426
C86	C	1.475857	0.186913	0.426574
C87	C	0.868829	-0.799160	-0.134707
C88	C	1.368829	-0.299160	0.365293
C89	C	0.868835	-0.852574	-0.134707
C90	C	1.368835	-0.352574	0.365293
C91	C	0.975905	-0.852566	-0.073409
C92	C	1.475905	-0.352566	0.426591
C93	C	0.975902	-0.799151	-0.073412
C94	C	1.475902	-0.299151	0.426588
C95	C	0.922359	-0.772449	-0.104059
C96	C	1.422359	-0.272449	0.395941
C97	C	0.975849	-0.200919	-0.073437
C98	C	1.475849	0.299081	0.426563
C99	C	0.975845	-0.147503	-0.073445
C100	C	1.475845	0.352497	0.426555
C101	C	0.868772	-0.147515	-0.134741
C102	C	1.368772	0.352485	0.365259
C103	C	0.868779	-0.200926	-0.134735
C104	C	1.368779	0.299074	0.365265
C105	C	0.922321	-0.227627	-0.104079
C106	C	1.422321	0.272373	0.395921
O107	O	0.823303	-0.285431	-0.160784
O108	O	1.323303	0.214569	0.339216
O109	O	1.021374	-0.285456	-0.047358
O110	O	1.521374	0.214544	0.452642
C111	C	0.975869	-0.526735	-0.073415
C112	C	1.475869	-0.026735	0.426585
C113	C	0.922336	-0.553443	-0.104060
C114	C	1.422336	-0.053443	0.395940
C115	C	0.868800	-0.526740	-0.134708
C116	C	1.368800	-0.026740	0.365292
C117	C	0.922342	-0.606858	-0.104060
C118	C	1.422342	-0.106858	0.395940
C119	C	0.975877	-0.633561	-0.073411
C120	C	1.475877	-0.133561	0.426589
C121	C	1.029407	-0.606850	-0.042763
C122	C	1.529407	-0.106850	0.457237
C123	C	1.029405	-0.553438	-0.042767
C124	C	1.529405	-0.053438	0.457233
C125	C	0.815270	-0.553451	-0.165356
C126	C	1.315270	-0.053451	0.334644
C127	C	0.815277	-0.606863	-0.165350
C128	C	1.315277	-0.106863	0.334650
C129	C	0.868813	-0.633566	-0.134702
C130	C	1.368813	-0.133566	0.365298
C131	C	1.065253	-0.000046	-0.106426
C132	C	1.565253	0.499954	0.393574
C133	C	1.151993	-0.000048	-0.110946
C134	C	1.651993	0.499952	0.389054
N135	N	0.922370	0.120723	-0.104059
N136	N	1.422370	0.620723	0.395941
C137	C	0.915568	-0.000018	-0.192171
C138	C	1.415568	0.499982	0.307829
C139	C	0.916463	-0.000006	-0.245867
C140	C	1.416463	0.499994	0.254133
C141	C	0.922750	0.046224	-0.629315
C142	C	1.422750	0.546224	-0.129315
C143	C	0.919445	0.046239	-0.427504
C144	C	1.419445	0.546239	0.072496
O145	O	0.918997	0.085579	-0.401410
O146	O	1.418997	0.585579	0.098590
N147	N	0.919019	-0.000017	-0.402270
N148	N	1.419019	0.499983	0.097730
C149	C	0.919415	-0.046278	-0.427492
C150	C	1.419415	0.453722	0.072508
O151	O	0.918969	-0.085621	-0.401399
O152	O	1.418969	0.414379	0.098601
C153	C	0.922714	-0.046292	-0.629303
C154	C	1.422714	0.453708	-0.129303
C155	C	0.923148	-0.000034	-0.654534
C156	C	1.423148	0.499966	-0.154534
C157	C	0.923183	0.092479	-0.654546
C158	C	1.423183	0.592479	-0.154546
C159	C	0.924013	0.092475	-0.704996
C160	C	1.424013	0.592475	-0.204996
C161	C	0.924411	0.046216	-0.730215
C162	C	1.424411	0.546216	-0.230215
C163	C	0.923978	-0.000038	-0.704984
C164	C	1.423978	0.499962	-0.204984
C165	C	0.923103	-0.092553	-0.654525
C166	C	1.423103	0.407447	-0.154525
C167	C	0.923926	-0.092553	-0.704981
C168	C	1.423926	0.407447	-0.204981
C169	C	0.924360	-0.046295	-0.730212
C170	C	1.424360	0.453705	-0.230212
C171	C	0.925206	-0.046300	-0.780652
C172	C	1.425206	0.453700	-0.280652
N173	N	0.925632	-0.000045	-0.805886
N174	N	1.425632	0.499955	-0.305886
C175	C	0.925234	0.046213	-0.780667
C176	C	1.425234	0.546213	-0.280667
C177	C	0.917684	-0.046268	-0.321538
C178	C	1.417684	0.453732	0.178462
C179	C	0.916861	-0.046265	-0.271086
C180	C	1.416861	0.453735	0.228914
C181	C	0.916890	0.046252	-0.271101
C182	C	1.416890	0.546252	0.228899
C183	C	0.917719	0.046249	-0.321554
C184	C	1.417719	0.546249	0.178446
C185	C	0.918110	-0.000013	-0.346772
C186	C	1.418110	0.499987	0.153228
C187	C	0.926979	0.046201	-0.886615
C188	C	1.426979	0.546201	-0.386615
C189	C	0.927813	0.046193	-0.937070
C190	C	1.427813	0.546193	-0.437070
C191	C	0.927779	-0.046324	-0.937050
C192	C	1.427779	0.453676	-0.437050
C193	C	0.926950	-0.046316	-0.886600
C194	C	1.426950	0.453684	-0.386600
C195	C	0.926547	-0.000050	-0.861384
C196	C	1.426547	0.499950	-0.361384
O197	O	0.925645	-0.085620	-0.806778
O198	O	1.425645	0.414380	-0.306778
O199	O	0.925663	0.085549	-0.806770
O200	O	1.425663	0.585549	-0.306770
C201	C	0.921920	0.046228	-0.578866
C202	C	1.421920	0.546228	-0.078866
C203	C	0.921487	-0.000026	-0.553635
C204	C	1.421487	0.499974	-0.053635
C205	C	0.921884	-0.046284	-0.578853
C206	C	1.421884	0.453716	-0.078853
C207	C	0.920663	-0.000023	-0.503182
C208	C	1.420663	0.499977	-0.003182
C209	C	0.920266	0.046236	-0.477963
C210	C	1.420266	0.546236	0.022037
C211	C	0.920692	0.092491	-0.503197
C212	C	1.420692	0.592491	-0.003197
C213	C	0.921522	0.092487	-0.553647
C214	C	1.421522	0.592487	-0.053647
C215	C	0.921458	-0.092539	-0.553619
C216	C	1.421458	0.407461	-0.053619
C217	C	0.920629	-0.092532	-0.503169
C218	C	1.420629	0.407468	-0.003169
C219	C	0.920231	-0.046273	-0.477951
C220	C	1.420231	0.453727	0.022049
C221	C	0.929106	-0.000057	-0.015984
C222	C	1.429106	0.499943	0.484016
C223	C	0.928210	-0.000065	0.037712
C224	C	1.428210	0.499935	0.537712
H225	H	0.519389	-0.000015	-0.168258
H226	H	1.019389	0.499985	0.331742
H227	H	0.289552	-0.000009	-0.198207
H228	H	0.789552	0.499991	0.301793
O229	O	0.926440	-0.091215	-0.862035
O230	O	1.426440	0.408785	-0.362035
C231	C	0.857750	-0.144913	-0.807769
C232	C	1.357750	0.355087	-0.307769
C233	C	0.858241	-0.094042	-0.835551
C234	C	1.358241	0.405958	-0.335551
H235	H	0.802609	-0.147220	-0.786357
H236	H	1.302609	0.352780	-0.286357
H237	H	0.912032	-0.147229	-0.781948
H238	H	1.412032	0.352771	-0.281948
H239	H	0.858224	-0.177970	-0.834466
H240	H	1.358224	0.322030	-0.334466
H241	H	0.857741	-0.060956	-0.808890
H242	H	1.357741	0.439044	-0.308890
H243	H	0.803964	-0.091770	-0.861379
H244	H	1.303964	0.408230	-0.361379
H245	H	0.702977	-0.000050	-0.017657
H246	H	1.202977	0.499950	0.482343
O247	O	0.763236	-0.527595	-0.195176
O248	O	1.263236	-0.027595	0.304824
C249	C	0.657013	-0.533253	-0.255957
C250	C	1.157013	-0.033253	0.244043
C251	C	0.715912	-0.562595	-0.222213
C252	C	1.215912	-0.062595	0.277787
H253	H	0.618725	-0.561537	-0.277819
H254	H	1.118725	-0.061537	0.222181
H255	H	0.690415	-0.508259	-0.281527
H256	H	1.190415	-0.008259	0.218473
H257	H	0.618257	-0.508233	-0.233478
H258	H	1.118257	-0.008233	0.266522
H259	H	0.754683	-0.587642	-0.244654
H260	H	1.254683	-0.087642	0.255346
H261	H	0.682461	-0.587557	-0.196642
H262	H	1.182461	-0.087557	0.303358
H263	H	0.141692	-0.000024	-0.190495
H264	H	0.641692	0.499976	0.309505
O265	O	0.763205	-0.367346	-0.195176
O266	O	1.263205	0.132654	0.304824
C267	C	0.656971	-0.372996	-0.255951
C268	C	1.156971	0.127004	0.244049
C269	C	0.715874	-0.402343	-0.222213
C270	C	1.215874	0.097657	0.277787
H271	H	0.618678	-0.401278	-0.277812
H272	H	1.118678	0.098722	0.222188
H273	H	0.690370	-0.348001	-0.281521
H274	H	1.190370	0.151999	0.218479
H275	H	0.618221	-0.347978	-0.233466
H276	H	1.118221	0.152022	0.266534
H277	H	0.754639	-0.427389	-0.244658
H278	H	1.254639	0.072611	0.255342
H279	H	0.682427	-0.427306	-0.196641
H280	H	1.182427	0.072694	0.303359
H281	H	0.928168	0.083863	-0.957610
H282	H	1.428168	0.583863	-0.457610
H283	H	0.177433	-0.000067	-0.032184
H284	H	0.677433	0.499933	0.467816
O285	O	0.926611	0.091189	-0.862199
O286	O	1.426611	0.591189	-0.362199
C287	C	0.926652	0.182952	-0.867556
C288	C	1.426652	0.682952	-0.367556
C289	C	0.927093	0.132041	-0.895265
C290	C	1.427093	0.632041	-0.395265
H291	H	0.927026	0.215994	-0.894278
H292	H	1.427026	0.715994	-0.394278
H293	H	0.980980	0.185308	-0.841775
H294	H	1.480980	0.685308	-0.341775
H295	H	0.871563	0.185241	-0.846096
H296	H	1.371563	0.685241	-0.346096
H297	H	0.982146	0.129718	-0.916753
H298	H	1.482146	0.629718	-0.416753
H299	H	0.872729	0.129706	-0.921017
H300	H	1.372729	0.629706	-0.421017
H301	H	0.421202	-0.000069	-0.047110
H302	H	0.921202	0.499931	0.452890
O303	O	0.918177	-0.091176	-0.346081
O304	O	1.418177	0.408824	0.153919
C305	C	0.986847	-0.144898	-0.400323
C306	C	1.486847	0.355102	0.099677
C307	C	0.986372	-0.094017	-0.372566
C308	C	1.486372	0.405983	0.127434
H309	H	1.041986	-0.147215	-0.421735
H310	H	1.541986	0.352785	0.078265
H311	H	0.932563	-0.147221	-0.426142
H312	H	1.432563	0.352779	0.073858
H313	H	0.986366	-0.177945	-0.373610
H314	H	1.486366	0.322055	0.126390
H315	H	0.986881	-0.060941	-0.399243
H316	H	1.486881	0.439059	0.100757
H317	H	1.040652	-0.091738	-0.346741
H318	H	1.540652	0.408262	0.153259
O319	O	0.920189	0.137457	-0.478749
O320	O	1.420189	0.637457	0.021251
C321	C	0.852180	0.216509	-0.465971
C322	C	1.352180	0.716509	0.034029
C323	C	0.852674	0.165614	-0.493704
C324	C	1.352674	0.665614	0.006296
H325	H	0.797591	0.239284	-0.478044
H326	H	1.297591	0.739284	0.021956
H327	H	0.907015	0.239362	-0.473726
H328	H	1.407015	0.739362	0.026274
H329	H	0.851546	0.208542	-0.425580
H330	H	1.351546	0.708542	0.074420
H331	H	0.853280	0.173535	-0.534102
H332	H	1.353280	0.673535	-0.034102
H333	H	0.797843	0.142778	-0.485909
H334	H	1.297843	0.642778	0.014091
H335	H	0.920282	-0.130203	-0.482630
H336	H	1.420282	0.369797	0.017370
H337	H	0.825247	-0.874316	-0.159668
H338	H	1.325247	-0.374316	0.340332
O339	O	0.816926	-0.773170	-0.164510
O340	O	1.316926	-0.273170	0.335490
C341	C	0.799487	-0.712899	-0.229834
C342	C	1.299487	-0.212899	0.270166
C343	C	0.858348	-0.742286	-0.196102
C344	C	1.358348	-0.242286	0.303898
H345	H	0.832953	-0.687931	-0.255392
H346	H	1.332953	-0.187931	0.244608
H347	H	0.760700	-0.687861	-0.207391
H348	H	1.260700	-0.187861	0.292609
H349	H	0.761224	-0.741182	-0.251714
H350	H	1.261224	-0.241182	0.248286
H351	H	0.896663	-0.714041	-0.174215
H352	H	1.396663	-0.214041	0.325785
H353	H	0.897080	-0.767332	-0.218573
H354	H	1.397080	-0.267332	0.281427
H355	H	0.325282	-0.000065	-0.039894
H356	H	0.825282	0.499935	0.460106
O357	O	0.550135	-0.000038	-0.002794
O358	O	1.050135	0.499962	0.497206
C359	C	0.433312	-0.000084	0.042428
C360	C	0.933312	0.499916	0.542428
C361	C	0.467346	-0.000083	-0.007895
C362	C	0.967346	0.499917	0.492105
H363	H	0.366373	-0.000131	0.038320
H364	H	0.866373	0.499869	0.538320
H365	H	0.454140	0.035433	0.063122
H366	H	0.954140	0.535433	0.563122
H367	H	0.454238	-0.035593	0.063099
H368	H	0.954238	0.464407	0.563099
H369	H	0.446435	0.035402	-0.028606
H370	H	0.946435	0.535402	0.471394
H371	H	0.446523	-0.035623	-0.028553
H372	H	0.946523	0.464377	0.471447
O373	O	0.922549	-0.137461	-0.629982
O374	O	1.422549	0.362539	-0.129982
C375	C	0.853780	-0.191161	-0.575757
C376	C	1.353780	0.308839	-0.075757
C377	C	0.854336	-0.140274	-0.603510
C378	C	1.354336	0.359726	-0.103510
H379	H	0.798628	-0.193457	-0.554355
H380	H	1.298628	0.306543	-0.054355
H381	H	0.908050	-0.193516	-0.549930
H382	H	1.408050	0.306484	-0.049930
H383	H	0.854229	-0.224203	-0.602472
H384	H	1.354229	0.275797	-0.102472
H385	H	0.853860	-0.107204	-0.576831
H386	H	1.353860	0.392796	-0.076831
H387	H	0.800071	-0.137964	-0.629344
H388	H	1.300071	0.362036	-0.129344
H389	H	0.667238	-0.000004	-0.175969
H390	H	1.167238	0.499996	0.324031
O391	O	0.816697	-0.226795	-0.164519
O392	O	1.316697	0.273205	0.335481
C393	C	0.710516	-0.221159	-0.225330
C394	C	1.210516	0.278841	0.274670
C395	C	0.769454	-0.191804	-0.191622
C396	C	1.269454	0.308196	0.308378
H397	H	0.672316	-0.192882	-0.247259
H398	H	1.172316	0.307118	0.252741
H399	H	0.671679	-0.246148	-0.202867
H400	H	1.171679	0.253852	0.297133
H401	H	0.743966	-0.246183	-0.250843
H402	H	1.243966	0.253817	0.249157
H403	H	0.736069	-0.166752	-0.166103
H404	H	1.236069	0.333248	0.333897
H405	H	0.808290	-0.166847	-0.214115
H406	H	1.308290	0.333153	0.285885
H407	H	0.825186	-0.125765	-0.159696
H408	H	1.325186	0.374235	0.340304
O409	O	0.921955	-0.137444	-0.578162
O410	O	1.421955	0.362556	-0.078162
C411	C	0.990636	-0.191164	-0.632400
C412	C	1.490636	0.308836	-0.132400
C413	C	0.990156	-0.140283	-0.604643
C414	C	1.490156	0.359717	-0.104643
H415	H	1.045778	-0.193481	-0.653808
H416	H	1.545778	0.306519	-0.153808
H417	H	0.936355	-0.193488	-0.658222
H418	H	1.436355	0.306512	-0.158222
H419	H	0.990151	-0.224212	-0.605687
H420	H	1.490151	0.275788	-0.105687
H421	H	0.990668	-0.107207	-0.631319
H422	H	1.490668	0.392793	-0.131319
H423	H	1.044431	-0.138004	-0.578814
H424	H	1.544431	0.361996	-0.078814
O425	O	1.081332	-0.527558	-0.012894
O426	O	1.581332	-0.027558	0.487106
C427	C	1.128103	-0.511376	0.069249
C428	C	1.628103	-0.011376	0.569249
C429	C	1.069238	-0.540678	0.035450
C430	C	1.569238	-0.040678	0.535450
H431	H	1.118357	-0.521980	0.108341
H432	H	1.618357	-0.021980	0.608341
H433	H	1.118969	-0.468594	0.064076
H434	H	1.618969	0.031406	0.564076
H435	H	1.190605	-0.521887	0.060346
H436	H	1.690605	-0.021887	0.560346
H437	H	1.006712	-0.530209	0.044332
H438	H	1.506712	-0.030209	0.544332
H439	H	1.078440	-0.583452	0.040629
H440	H	1.578440	-0.083452	0.540629
O441	O	0.924389	0.137456	-0.729429
O442	O	1.424389	0.637456	-0.229429
C443	C	0.924368	0.229219	-0.724099
C444	C	1.424368	0.729219	-0.224099
C445	C	0.923927	0.178312	-0.696374
C446	C	1.423927	0.678312	-0.196374
H447	H	0.924011	0.262265	-0.697385
H448	H	1.424011	0.762265	-0.197385
H449	H	0.870032	0.231572	-0.749873
H450	H	1.370032	0.731572	-0.249873
H451	H	0.979449	0.231505	-0.745567
H452	H	1.479449	0.731505	-0.245567
H453	H	0.868882	0.175992	-0.674878
H454	H	1.368882	0.675992	-0.174878
H455	H	0.978299	0.175981	-0.670629
H456	H	1.478299	0.675981	-0.170629
H457	H	1.073001	-0.628600	-0.017810
H458	H	1.573001	-0.128600	0.482190
H459	H	1.019497	-0.777408	-0.048457
H460	H	1.519497	-0.277408	0.451543
H461	H	0.423464	-0.000028	-0.161042
H462	H	0.923464	0.499972	0.338958
O463	O	0.763234	-0.632860	-0.195055
O464	O	1.263234	-0.132860	0.304945
C465	C	0.656346	-0.693138	-0.200901
C466	C	1.156346	-0.193138	0.299099
C467	C	0.715257	-0.663740	-0.167212
C468	C	1.215257	-0.163740	0.332788
H469	H	0.617530	-0.718103	-0.178403
H470	H	1.117530	-0.218103	0.321597
H471	H	0.689738	-0.718179	-0.226430
H472	H	1.189738	-0.218179	0.273570
H473	H	0.618120	-0.664862	-0.222814
H474	H	1.118120	-0.164862	0.277186
H475	H	0.753499	-0.691979	-0.145267
H476	H	1.253499	-0.191979	0.354733
H477	H	0.681817	-0.638691	-0.141714
H478	H	1.181817	-0.138691	0.358286
O479	O	0.922661	0.137405	-0.630038
O480	O	1.422661	0.637405	-0.130038
C481	C	0.854062	0.191113	-0.575749
C482	C	1.354062	0.691113	-0.075749
C483	C	0.854538	0.140218	-0.603484
C484	C	1.354538	0.640218	-0.103484
H485	H	0.798999	0.193399	-0.554266
H486	H	1.298999	0.693399	-0.054266
H487	H	0.854462	0.224186	-0.602438
H488	H	1.354462	0.724186	-0.102438
H489	H	0.908414	0.193417	-0.549986
H490	H	1.408414	0.693417	-0.049986
H491	H	0.800196	0.137864	-0.629248
H492	H	1.300196	0.637864	-0.129248
H493	H	0.854178	0.107169	-0.576768
H494	H	1.354178	0.607169	-0.076768
H495	H	0.918071	0.083916	-0.342094
H496	H	1.418071	0.583916	0.157906
H497	H	0.916567	0.083918	-0.250559
H498	H	1.416567	0.583918	0.249441
H499	H	0.916519	-0.083933	-0.250546
H500	H	1.416519	0.416067	0.249454
H501	H	1.019445	-0.125758	-0.048489
H502	H	1.519445	0.374242	0.451511
H503	H	1.072992	-0.371461	-0.017822
H504	H	1.572992	0.128539	0.482178
O505	O	1.081443	-0.472606	-0.013069
O506	O	1.581443	0.027394	0.486931
C507	C	1.188344	-0.532865	-0.007213
C508	C	1.688344	-0.032865	0.492787
C509	C	1.129428	-0.503477	-0.040907
C510	C	1.629428	-0.003477	0.459093
H511	H	1.227167	-0.557823	-0.029706
H512	H	1.727167	-0.057823	0.470294
H513	H	1.154957	-0.557913	0.018319
H514	H	1.654957	-0.057913	0.518319
H515	H	1.226563	-0.504583	0.014698
H516	H	1.726563	-0.004583	0.514698
H517	H	1.091194	-0.531722	-0.062848
H518	H	1.591194	-0.031722	0.437152
H519	H	1.162864	-0.478421	-0.066407
H520	H	1.662864	0.021579	0.433593
H521	H	1.019497	-0.874317	-0.048455
H522	H	1.519497	-0.374317	0.451545
H523	H	0.771653	-0.468361	-0.190315
H524	H	1.271653	0.031639	0.309685
H525	H	1.019447	-0.222652	-0.048473
H526	H	1.519447	0.277348	0.451527
O527	O	0.924196	-0.137524	-0.729430
O528	O	1.424196	0.362476	-0.229430
C529	C	0.856652	-0.216571	-0.747563
C530	C	1.356652	0.283429	-0.247563
C531	C	0.856260	-0.165667	-0.719839
C532	C	1.356260	0.334333	-0.219839
H533	H	0.801724	-0.239334	-0.739827
H534	H	1.301724	0.260666	-0.239827
H535	H	0.911147	-0.239428	-0.735466
H536	H	1.411147	0.260572	-0.235466
H537	H	0.857354	-0.208616	-0.787953
H538	H	1.357354	0.291384	-0.287953
H539	H	0.855530	-0.173576	-0.679444
H540	H	1.355530	0.326424	-0.179444
H541	H	0.801770	-0.142825	-0.731976
H542	H	1.301770	0.357175	-0.231976
O543	O	0.928021	-0.091242	-0.961584
O544	O	1.428021	0.408758	-0.461584
C545	C	0.861214	-0.144893	-1.021256
C546	C	1.361214	0.355107	-0.521256
C547	C	0.860845	-0.094012	-0.993493
C548	C	1.360845	0.405988	-0.493493
H549	H	0.806917	-0.147145	-1.047068
H550	H	1.306917	0.352855	-0.547068
H551	H	0.860709	-0.177980	-0.994588
H552	H	1.360709	0.322020	-0.494588
H553	H	0.916330	-0.147205	-1.042689
H554	H	1.416330	0.352795	-0.542689
H555	H	0.805738	-0.091650	-0.972059
H556	H	1.305738	0.408350	-0.472059
H557	H	0.861391	-0.060949	-1.020185
H558	H	1.361391	0.439051	-0.520185
H559	H	0.921875	0.130155	-0.574186
H560	H	1.421875	0.630155	-0.074186
