data_functionalizedCrystal
_audit_creation_method	'MofGen! by Chris Wilmer'
_symmetry_space_group_name_H-M	'P1'
_symmetry_Int_Tables_number	1
_symmetry_cell_setting	triclinic
loop_
_symmetry_equiv_pos_as_xyz
  x,y,z
_cell_length_a	6.817900
_cell_length_b	17.982783
_cell_length_c	12.200875
_cell_angle_alpha	94.640652
_cell_angle_beta	107.143593
_cell_angle_gamma	102.448572
loop_
_atom_site_label
_atom_site_type_symbol
_atom_site_fract_x
_atom_site_fract_y
_atom_site_fract_z
V1	V	-4.063246	-0.105585	-0.358138
O2	O	-4.055274	0.004896	-0.350830
O3	O	-4.009504	-0.209186	-0.356160
O4	O	-4.033044	-0.104039	-0.514119
O5	O	-4.031572	-0.100979	-0.191777
V6	V	-4.545209	-0.092361	-0.338183
O7	O	-4.327928	-0.134593	-0.401911
O8	O	-4.730724	-0.063353	-0.294409
O9	O	-4.375745	0.011240	-0.340161
O10	O	-4.670577	-0.202842	-0.345490
O11	O	-4.694280	-0.096967	-0.504543
O12	O	-4.352205	-0.093907	-0.182201
C13	C	-3.852616	-0.234440	-0.350632
C14	C	-3.890083	-0.319136	-0.350054
C15	C	-3.855758	-0.347995	-0.244684
C16	C	-3.890982	-0.427576	-0.244146
C17	C	-3.960518	-0.478297	-0.348977
C18	C	-3.994852	-0.449433	-0.454355
C19	C	-3.959641	-0.369854	-0.454893
C20	C	-4.136854	-0.770370	-0.452188
C21	C	-4.172057	-0.849955	-0.451641
C22	C	-4.068195	-0.828093	-0.241440
C23	C	-4.032985	-0.748513	-0.241978
C24	C	-4.067332	-0.719657	-0.347356
C25	C	-4.029140	-0.633365	-0.347939
C26	C	-3.998695	-0.564587	-0.348395
C27	C	-3.882643	-0.100313	-0.552123
C28	C	-3.939197	-0.099735	-0.679642
C29	C	-4.042699	-0.098676	-0.913111
C30	C	-3.985095	-0.099265	-0.783192
C31	C	-4.195974	0.036489	-0.345686
C32	C	-4.137746	0.121184	-0.346271
C33	C	-4.165947	-0.097636	-0.144191
C34	C	-4.088632	-0.098210	-0.016672
H35	H	-4.040239	-0.851597	-0.155637
C36	C	-3.756676	-0.334387	-0.036850
C37	C	-3.779345	-0.292246	-0.129449
H38	H	-3.709524	-0.299971	0.034291
H39	H	-3.655754	-0.363392	-0.037331
H40	H	-3.889394	-0.368370	-0.044705
H41	H	-3.646623	-0.258267	-0.121599
H42	H	-3.880272	-0.263228	-0.128966
H43	H	-3.976355	-0.707219	-0.156613
H44	H	-3.863034	-0.451069	-0.158343
H45	H	-4.228683	-0.891252	-0.537013
C46	C	-4.243023	-0.799984	-0.659910
C47	C	-4.174577	-0.738657	-0.568016
H48	H	-4.266294	-0.780402	-0.731419
H49	H	-4.371401	-0.833049	-0.659004
H50	H	-4.137771	-0.828085	-0.651637
H51	H	-4.279837	-0.710559	-0.576285
H52	H	-4.046183	-0.705579	-0.568924
C53	C	-4.094922	-0.581129	-0.546868
C54	C	-4.071280	-0.505184	-0.569589
H55	H	-4.142088	-0.615545	-0.618012
H56	H	-4.196164	-0.592162	-0.507279
H57	H	-3.962532	-0.587187	-0.499919
H58	H	-4.203674	-0.499125	-0.616532
H59	H	-3.970032	-0.494148	-0.609197
C60	C	-4.065824	-0.399452	-0.662620
C61	C	-3.997364	-0.338129	-0.570719
H62	H	-4.089107	-0.379865	-0.734126
H63	H	-4.194198	-0.432518	-0.661711
H64	H	-3.960573	-0.427553	-0.654358
H65	H	-4.102622	-0.310031	-0.578976
H66	H	-3.868974	-0.305050	-0.571630
