data_functionalizedCrystal
_audit_creation_method	'MofGen! by Chris Wilmer'
_symmetry_space_group_name_H-M	'P1'
_symmetry_Int_Tables_number	1
_symmetry_cell_setting	triclinic
loop_
_symmetry_equiv_pos_as_xyz
  x,y,z
_cell_length_a	23.532407
_cell_length_b	23.532407
_cell_length_c	9.016244
_cell_angle_alpha	89.993097
_cell_angle_beta	89.998017
_cell_angle_gamma	82.848678
loop_
_atom_site_label
_atom_site_type_symbol
_atom_site_fract_x
_atom_site_fract_y
_atom_site_fract_z
O1	O	0.755262	0.069132	-0.123170
O2	O	1.088595	0.402466	0.210163
O3	O	1.421929	0.735799	0.543497
O4	O	0.589399	0.079136	-0.123216
O5	O	0.922732	0.412469	0.210118
O6	O	1.256065	0.745802	0.543451
O7	O	0.677332	-0.008798	-0.123164
O8	O	1.010665	0.324536	0.210169
O9	O	1.343999	0.657869	0.543502
O10	O	0.667329	0.157066	-0.123221
O11	O	1.000662	0.490399	0.210112
O12	O	1.333995	0.823732	0.543445
O13	O	0.677319	-0.008796	0.123516
O14	O	1.010653	0.324538	0.456850
O15	O	1.343986	0.657871	0.790183
O16	O	0.589386	0.079138	0.123465
O17	O	0.922719	0.412471	0.456798
O18	O	1.256053	0.745804	0.790132
O19	O	0.755249	0.069135	0.123511
O20	O	1.088583	0.402468	0.456844
O21	O	1.421916	0.735801	0.790177
Cu22	Cu	0.672316	0.074136	0.146012
Cu23	Cu	1.005650	0.407470	0.479345
Cu24	Cu	1.338983	0.740803	0.812678
Cu25	Cu	0.672332	0.074134	-0.145717
Cu26	Cu	1.005665	0.407467	0.187616
Cu27	Cu	1.338998	0.740800	0.520950
O28	O	0.667316	0.157068	0.123459
O29	O	1.000649	0.490401	0.456793
O30	O	1.333983	0.823734	0.790126
C31	C	0.568176	0.078882	0.000119
C32	C	0.901510	0.412215	0.333452
C33	C	1.234843	0.745549	0.666786
C34	C	0.504959	0.078116	0.000103
C35	C	0.838293	0.411449	0.333436
C36	C	1.171626	0.744783	0.666770
C37	C	0.105856	0.125350	0.000154
C38	C	0.439190	0.458683	0.333487
C39	C	0.772523	0.792016	0.666821
C40	C	0.046456	0.124638	0.000163
C41	C	0.379789	0.457971	0.333496
C42	C	0.713123	0.791305	0.666830
O43	O	0.009711	0.168424	0.000202
O44	O	0.343045	0.501757	0.333535
O45	O	0.676378	0.835091	0.666869
N46	N	0.023830	0.072362	0.000179
N47	N	0.357163	0.405695	0.333512
N48	N	0.690496	0.739028	0.666845
C49	C	0.060607	0.020794	0.000200
C50	C	0.393941	0.354127	0.333533
C51	C	0.727274	0.687460	0.666867
O52	O	0.035908	-0.023737	0.000215
O53	O	0.369241	0.309596	0.333549
O54	O	0.702574	0.642930	0.666882
C55	C	0.120006	0.021506	0.000201
C56	C	0.453340	0.354839	0.333535
C57	C	0.786673	0.688172	0.666868
C58	C	0.142629	0.073785	0.000171
C59	C	0.475962	0.407119	0.333504
C60	C	0.809296	0.740452	0.666837
C61	C	0.128479	0.177625	0.000125
C62	C	0.461813	0.510958	0.333458
C63	C	0.795146	0.844292	0.666792
C64	C	0.187876	0.178336	0.000113
C65	C	0.521209	0.511670	0.333446
C66	C	0.854542	0.845003	0.666779
C67	C	0.224649	0.126772	0.000130
C68	C	0.557982	0.460105	0.333463
C69	C	0.891315	0.793439	0.666796
C70	C	0.202025	0.074497	0.000159
C71	C	0.535359	0.407830	0.333492
C72	C	0.868692	0.741163	0.666825
C73	C	0.156783	-0.030062	0.000233
C74	C	0.490116	0.303271	0.333567
C75	C	0.823450	0.636605	0.666900
C76	C	0.216185	-0.029345	0.000236
C77	C	0.549519	0.303988	0.333569
C78	C	0.882852	0.637321	0.666902
C79	C	0.238808	0.022934	0.000205
C80	C	0.572141	0.356268	0.333538
C81	C	0.905475	0.689601	0.666872
C82	C	0.298194	0.023643	0.000163
C83	C	0.631528	0.356977	0.333497
C84	C	0.964861	0.690310	0.666830
N85	N	0.320820	0.075920	0.000148
N86	N	0.654154	0.409253	0.333481
N87	N	0.987487	0.742586	0.666814
C88	C	0.284048	0.127484	0.000131
C89	C	0.617381	0.460817	0.333464
C90	C	0.950714	0.794151	0.666798
C91	C	-0.064135	0.019302	0.000200
C92	C	0.269198	0.352635	0.333533
C93	C	0.602532	0.685969	0.666867
C94	C	-0.123533	0.018589	0.000188
C95	C	0.209800	0.351923	0.333521
C96	C	0.543134	0.685256	0.666855
C97	C	-0.137680	0.122434	0.000154
C98	C	0.195653	0.455768	0.333487
C99	C	0.528986	0.789101	0.666821
C100	C	-0.078281	0.123146	0.000155
C101	C	0.255052	0.456480	0.333489
C102	C	0.588385	0.789813	0.666822
C103	C	-0.041509	0.071578	0.000184
C104	C	0.291824	0.404912	0.333518
C105	C	0.625158	0.738245	0.666851
C106	C	0.408784	0.128974	0.000104
C107	C	0.742118	0.462307	0.333438
C108	C	1.075451	0.795640	0.666771
C109	C	0.468186	0.129680	0.000086
C110	C	0.801520	0.463014	0.333419
C111	C	1.134853	0.796347	0.666753
C112	C	0.482329	0.025836	0.000128
C113	C	0.815662	0.359169	0.333461
C114	C	1.148995	0.692503	0.666795
C115	C	0.422932	0.025129	0.000138
C116	C	0.756265	0.358462	0.333472
C117	C	1.089598	0.691796	0.666805
C118	C	0.386160	0.076702	0.000132
C119	C	0.719494	0.410036	0.333465
C120	C	1.052827	0.743369	0.666798
O121	O	0.334974	-0.020119	0.000131
O122	O	0.668307	0.313214	0.333464
O123	O	1.001640	0.646547	0.666797
O124	O	0.308755	0.172007	0.000135
O125	O	0.642089	0.505340	0.333468
O126	O	0.975422	0.838674	0.666802
C127	C	0.677071	-0.030013	0.000180
C128	C	1.010404	0.303321	0.333513
C129	C	1.343738	0.636654	0.666846
C130	C	0.676305	-0.093230	0.000191
C131	C	1.009638	0.240104	0.333524
C132	C	1.342972	0.573437	0.666858
C133	C	0.723539	-0.492333	0.000123
C134	C	1.056872	-0.158999	0.333456
C135	C	1.390205	0.174334	0.666789
C136	C	0.722827	-0.551733	0.000111
C137	C	1.056160	-0.218400	0.333444
C138	C	1.389494	0.114934	0.666778
O139	O	0.766613	-0.588478	0.000068
O140	O	1.099946	-0.255144	0.333402
O141	O	1.433280	0.078189	0.666735
N142	N	0.670551	-0.574359	0.000098
N143	N	1.003884	-0.241026	0.333431
N144	N	1.337217	0.092307	0.666764
C145	C	0.618983	-0.537582	0.000081
C146	C	0.952316	-0.204248	0.333414
C147	C	1.285649	0.129085	0.666748
O148	O	0.574452	-0.562281	0.000067
O149	O	0.907785	-0.228948	0.333400
O150	O	1.241119	0.104385	0.666734
C151	C	0.619695	-0.478182	0.000082
C152	C	0.953028	-0.144849	0.333415
C153	C	1.286361	0.188484	0.666748
C154	C	0.671974	-0.455560	0.000110
C155	C	1.005308	-0.122227	0.333443
C156	C	1.338641	0.211107	0.666777
C157	C	0.775814	-0.469710	0.000149
C158	C	1.109147	-0.136376	0.333483
C159	C	1.442481	0.196957	0.666816
C160	C	0.776525	-0.410313	0.000164
C161	C	1.109859	-0.076980	0.333497
C162	C	1.443192	0.256353	0.666830
C163	C	0.724961	-0.373540	0.000151
C164	C	1.058294	-0.040207	0.333484
C165	C	1.391628	0.293126	0.666818
C166	C	0.672685	-0.396164	0.000124
C167	C	1.006019	-0.062830	0.333458
C168	C	1.339352	0.270503	0.666791
C169	C	0.568127	-0.441406	0.000054
C170	C	0.901460	-0.108073	0.333387
C171	C	1.234794	0.225261	0.666721
C172	C	0.568844	-0.382004	0.000054
C173	C	0.902177	-0.048670	0.333387
C174	C	1.235510	0.284663	0.666721
C175	C	0.621123	-0.359381	0.000082
C176	C	0.954457	-0.026048	0.333416
C177	C	1.287790	0.307286	0.666749
C178	C	0.621832	-0.299995	0.000126
C179	C	0.955166	0.033339	0.333459
C180	C	1.288499	0.366672	0.666793
N181	N	0.674109	-0.277368	0.000139
N182	N	1.007442	0.055965	0.333473
N183	N	1.340775	0.389298	0.666806
C184	C	0.725673	-0.314141	0.000152
C185	C	1.059006	0.019192	0.333485
C186	C	1.392340	0.352525	0.666819
C187	C	0.617491	-0.662324	0.000077
C188	C	0.950824	-0.328991	0.333410
C189	C	1.284158	0.004343	0.666743
C190	C	0.616778	-0.721722	0.000086
C191	C	0.950112	-0.388389	0.333420
C192	C	1.283445	-0.055055	0.666753
C193	C	0.720623	-0.735869	0.000114
C194	C	1.053957	-0.402536	0.333447
C195	C	1.387290	-0.069203	0.666780
C196	C	0.721335	-0.676470	0.000115
C197	C	1.054669	-0.343137	0.333448
C198	C	1.388002	-0.009804	0.666781
C199	C	0.669767	-0.639698	0.000090
C200	C	1.003101	-0.306365	0.333423
C201	C	1.336434	0.026969	0.666756
C202	C	0.727163	-0.189405	0.000183
C203	C	1.060496	0.143929	0.333516
C204	C	1.393829	0.477262	0.666850
C205	C	0.727869	-0.130003	0.000203
C206	C	1.061203	0.203331	0.333537
C207	C	1.394536	0.536664	0.666870
C208	C	0.624025	-0.115860	0.000168
C209	C	0.957358	0.217473	0.333501
C210	C	1.290692	0.550806	0.666835
C211	C	0.623318	-0.175257	0.000156
C212	C	0.956651	0.158076	0.333489
C213	C	1.289985	0.491409	0.666822
C214	C	0.674891	-0.212029	0.000158
C215	C	1.008225	0.121305	0.333491
C216	C	1.341558	0.454638	0.666825
O217	O	0.578070	-0.263215	0.000163
O218	O	0.911403	0.070118	0.333496
O219	O	1.244736	0.403451	0.666829
O220	O	0.770196	-0.289433	0.000146
O221	O	1.103529	0.043900	0.333479
O222	O	1.436863	0.377233	0.666813
C223	C	0.776472	0.069388	0.000172
C224	C	1.109805	0.402722	0.333506
C225	C	1.443138	0.736055	0.666839
C226	C	0.839689	0.070154	0.000179
C227	C	1.173022	0.403487	0.333512
C228	C	1.506355	0.736821	0.666846
C229	C	0.667577	0.178283	0.000112
C230	C	1.000910	0.511616	0.333445
C231	C	1.334244	0.844949	0.666779
C232	C	0.668343	0.241500	0.000091
C233	C	1.001676	0.574833	0.333424
C234	C	1.335010	0.908167	0.666758
N235	N	0.672310	0.074138	0.351198
N236	N	1.005643	0.407471	0.684531
N237	N	1.338977	0.740804	1.017865
N238	N	0.672343	0.074128	-0.350903
N239	N	1.005676	0.407461	-0.017570
N240	N	1.339009	0.740795	0.315764
C241	C	0.625132	0.121023	0.586203
C242	C	0.958465	0.454356	0.919536
C243	C	1.291798	0.787689	1.252870
C244	C	0.625232	0.121194	0.414312
C245	C	0.958565	0.454528	0.747645
C246	C	1.291899	0.787861	1.080979
C247	C	0.731662	0.086782	0.413547
C248	C	1.064996	0.420115	0.746881
C249	C	1.398329	0.753448	1.080214
C250	C	0.731404	0.087113	0.585492
C251	C	1.064737	0.420446	0.918825
C252	C	1.398070	0.753779	1.252159
C253	C	0.660730	0.014449	0.585758
C254	C	0.994063	0.347782	0.919091
C255	C	1.327396	0.681115	1.252425
C256	C	0.659358	0.014857	0.413803
C257	C	0.992691	0.348190	0.747137
C258	C	1.326024	0.681523	1.080470
H259	H	0.098544	0.219617	0.000117
H260	H	0.431877	0.552951	0.333450
H261	H	0.765211	0.886284	0.666783
H262	H	0.582043	-0.085909	0.000163
H263	H	0.915376	0.247424	0.333496
H264	H	1.248709	0.580757	0.666830
H265	H	0.742198	0.129798	0.370458
H266	H	1.075532	0.463131	0.703791
H267	H	1.408865	0.796465	1.037125
H268	H	0.767614	0.054285	0.627095
H269	H	1.100947	0.387619	0.960428
H270	H	1.434281	0.720952	1.293761
H271	H	-0.167632	0.164421	0.000147
H272	H	0.165701	0.497754	0.333481
H273	H	0.499035	0.831087	0.666814
H274	H	0.769159	-0.219337	0.000179
H275	H	1.102492	0.113996	0.333513
H276	H	1.435826	0.447329	0.666846
H277	H	0.817806	-0.499645	0.000154
H278	H	1.151140	-0.166312	0.333487
H279	H	1.484473	0.167022	0.666821
H280	H	0.767616	0.053521	0.372663
H281	H	1.100949	0.386855	0.705996
H282	H	1.434282	0.720188	1.039330
H283	H	0.691533	-0.021648	0.370848
H284	H	1.024866	0.311685	0.704181
H285	H	1.358200	0.645018	1.037514
C286	C	0.707239	-0.032691	0.640712
C287	C	1.040572	0.300642	0.974045
C288	C	1.373906	0.633975	1.307379
H289	H	0.733609	-0.016115	0.701960
H290	H	1.066943	0.317219	1.035293
H291	H	1.400276	0.650552	1.368627
H292	H	0.726916	-0.050784	0.558032
H293	H	1.060249	0.282549	0.891366
H294	H	1.393582	0.615882	1.224699
H295	H	0.689883	-0.060250	0.696082
H296	H	1.023216	0.273083	1.029416
H297	H	1.356549	0.606416	1.362749
H298	H	0.770443	-0.111587	0.000230
H299	H	1.103777	0.221746	0.333564
H300	H	1.437110	0.555080	0.666897
H301	H	0.618411	0.002206	0.629199
H302	H	0.951745	0.335540	0.962532
H303	H	1.285078	0.668873	1.295866
C304	C	0.600379	0.001881	0.358764
C305	C	0.933712	0.335215	0.692098
C306	C	1.267046	0.668548	1.025431
H307	H	0.583715	0.032458	0.297876
H308	H	0.917049	0.365791	0.631210
H309	H	1.250382	0.699125	0.964543
H310	H	0.576180	-0.002179	0.441426
H311	H	0.909514	0.331154	0.774759
H312	H	1.242847	0.664488	1.108092
H313	H	0.604858	-0.032637	0.303002
H314	H	0.938191	0.300696	0.636335
H315	H	1.271525	0.634029	0.969669
H316	H	0.581103	0.113710	0.372159
H317	H	0.914437	0.447044	0.705492
H318	H	1.247770	0.780377	1.038826
H319	H	0.632408	0.165068	0.629384
H320	H	0.965742	0.498401	0.962717
H321	H	1.299075	0.831734	1.296050
C322	C	0.493068	0.187190	0.000061
C323	C	0.826401	0.520523	0.333394
C324	C	1.159734	0.853857	0.666727
H325	H	0.462657	0.217797	0.000069
H326	H	0.795990	0.551130	0.333402
H327	H	1.129323	0.884463	0.666735
H328	H	0.515945	0.189629	-0.085965
H329	H	0.849278	0.522962	0.247368
H330	H	1.182611	0.856295	0.580701
H331	H	0.515945	0.189627	0.086092
H332	H	0.849278	0.522960	0.419425
H333	H	1.182611	0.856294	0.752758
C334	C	0.212753	0.235844	0.000108
C335	C	0.546086	0.569178	0.333442
C336	C	0.879420	0.902511	0.666775
H337	H	0.182339	0.266448	0.000117
H338	H	0.515672	0.599781	0.333451
H339	H	0.849005	0.933114	0.666784
H340	H	0.235633	0.238290	-0.085910
H341	H	0.568966	0.571623	0.247423
H342	H	0.902299	0.904956	0.580757
H343	H	0.235626	0.238280	0.086147
H344	H	0.568959	0.571613	0.419480
H345	H	0.902293	0.904946	0.752814
H346	H	0.378851	0.170970	0.000103
H347	H	0.712185	0.504303	0.333437
H348	H	1.045518	0.837637	0.666770
H349	H	0.580748	-0.193677	0.000174
H350	H	0.914081	0.139656	0.333507
H351	H	1.247414	0.472989	0.666840
C352	C	0.565327	0.111093	0.642123
C353	C	0.898661	0.444426	0.975457
C354	C	1.231994	0.777760	1.308790
H355	H	0.568613	0.078262	0.704337
H356	H	0.901946	0.411595	1.037670
H357	H	1.235279	0.744928	1.371004
H358	H	0.541493	0.105276	0.559880
H359	H	0.874826	0.438610	0.893213
H360	H	1.208159	0.771943	1.226546
H361	H	0.548984	0.143616	0.696691
H362	H	0.882317	0.476949	1.030024
H363	H	1.215651	0.810283	1.363358
H364	H	-0.059867	0.165717	0.000139
H365	H	0.273467	0.499050	0.333472
H366	H	0.606800	0.832384	0.666805
C367	C	-0.148412	-0.038918	0.000207
C368	C	0.184922	0.294415	0.333540
C369	C	0.518255	0.627749	0.666874
H370	H	-0.117999	-0.069523	0.000226
H371	H	0.215334	0.263811	0.333559
H372	H	0.548668	0.597144	0.666892
H373	H	-0.171290	-0.041359	-0.085809
H374	H	0.162043	0.291974	0.247525
H375	H	0.495376	0.625308	0.580858
H376	H	-0.171286	-0.041355	0.086248
H377	H	0.162047	0.291978	0.419582
H378	H	0.495381	0.625312	0.752915
C379	C	0.131911	-0.087571	0.000287
C380	C	0.465244	0.245763	0.333620
C381	C	0.798578	0.579096	0.666954
H382	H	0.162326	-0.118173	0.000319
H383	H	0.495660	0.215160	0.333653
H384	H	0.828993	0.548494	0.666986
H385	H	0.109033	-0.090020	-0.085726
H386	H	0.442366	0.243313	0.247608
H387	H	0.775699	0.576647	0.580941
H388	H	0.109037	-0.090003	0.086331
H389	H	0.442371	0.243330	0.419665
H390	H	0.775704	0.576664	0.752998
C391	C	0.256632	-0.086072	0.000251
C392	C	0.589965	0.247262	0.333584
C393	C	0.923299	0.580595	0.666918
H394	H	0.234647	-0.117306	0.000255
H395	H	0.567981	0.216028	0.333589
H396	H	0.901314	0.549361	0.666922
H397	H	0.280101	-0.087955	0.086266
H398	H	0.613434	0.245378	0.419600
H399	H	0.946768	0.578711	0.752933
H400	H	0.280094	-0.087953	-0.085791
H401	H	0.613427	0.245380	0.247543
H402	H	0.946760	0.578713	0.580876
C403	C	-0.023690	-0.037426	0.000200
C404	C	0.309643	0.295907	0.333533
C405	C	0.642977	0.629240	0.666866
H406	H	-0.045677	-0.068658	0.000193
H407	H	0.287656	0.264675	0.333527
H408	H	0.620990	0.598008	0.666860
H409	H	-0.000222	-0.039314	0.086218
H410	H	0.333111	0.294019	0.419551
H411	H	0.666445	0.627352	0.752884
H412	H	-0.000227	-0.039307	-0.085839
H413	H	0.333107	0.294027	0.247494
H414	H	0.666440	0.627360	0.580828
H415	H	0.819097	-0.391900	0.000181
H416	H	1.152430	-0.058567	0.333514
H417	H	1.485763	0.274767	0.666847
H418	H	0.574207	-0.740136	0.000089
H419	H	0.907540	-0.406802	0.333422
H420	H	1.240874	-0.073469	0.666756
H421	H	0.763906	-0.658056	0.000136
H422	H	1.097239	-0.324722	0.333470
H423	H	1.430573	0.008611	0.666803
C424	C	0.398045	-0.032377	0.000156
C425	C	0.731379	0.300957	0.333489
C426	C	1.064712	0.634290	0.666823
H427	H	0.428456	-0.062984	0.000168
H428	H	0.761789	0.270349	0.333501
H429	H	1.095122	0.603683	0.666835
H430	H	0.375164	-0.034815	-0.085856
H431	H	0.708497	0.298519	0.247478
H432	H	1.041830	0.631852	0.580811
H433	H	0.375173	-0.034812	0.086201
H434	H	0.708506	0.298521	0.419535
H435	H	1.041840	0.631854	0.752868
H436	H	0.512280	-0.016146	0.000136
H437	H	0.845613	0.317187	0.333469
H438	H	1.178946	0.650520	0.666803
C439	C	0.510618	-0.466278	0.000010
C440	C	0.843952	-0.132945	0.333344
C441	C	1.177285	0.200389	0.666677
H442	H	0.480016	-0.435863	-0.000017
H443	H	0.813349	-0.102529	0.333317
H444	H	1.146683	0.230804	0.666650
H445	H	0.508167	-0.489161	0.086025
H446	H	0.841500	-0.155827	0.419358
H447	H	1.174834	0.177506	0.752691
H448	H	0.508188	-0.489147	-0.086032
H449	H	0.841521	-0.155814	0.247301
H450	H	1.174854	0.177519	0.580634
C451	C	0.512117	-0.341557	0.000033
C452	C	0.845451	-0.008224	0.333366
C453	C	1.178784	0.325110	0.666699
H454	H	0.480883	-0.363542	0.000026
H455	H	0.814217	-0.030208	0.333359
H456	H	1.147550	0.303125	0.666693
H457	H	0.510240	-0.318085	-0.085985
H458	H	0.843573	0.015249	0.247348
H459	H	1.176907	0.348582	0.580682
H460	H	0.510229	-0.318098	0.086072
H461	H	0.843563	0.015235	0.419405
H462	H	1.176896	0.348568	0.752738
C463	C	0.777344	-0.776327	0.000100
C464	C	1.110677	-0.442994	0.333433
C465	C	1.444010	-0.109660	0.666766
H466	H	0.769428	-0.814942	0.000075
H467	H	1.102761	-0.481608	0.333408
H468	H	1.436094	-0.148275	0.666742
H469	H	0.798797	-0.769512	0.086122
H470	H	1.132130	-0.436178	0.419455
H471	H	1.465464	-0.102845	0.752788
H472	H	0.798792	-0.769494	-0.085935
H473	H	1.132126	-0.436161	0.247398
H474	H	1.465459	-0.102827	0.580732
C475	C	0.560763	-0.621879	0.000077
C476	C	0.894096	-0.288546	0.333411
C477	C	1.227429	0.044788	0.666744
H478	H	0.529531	-0.643866	0.000083
H479	H	0.862864	-0.310533	0.333416
H480	H	1.196197	0.022801	0.666750
H481	H	0.558879	-0.598407	-0.085941
H482	H	0.892213	-0.265073	0.247392
H483	H	1.225546	0.068260	0.580725
H484	H	0.558877	-0.598420	0.086115
H485	H	0.892211	-0.265087	0.419449
H486	H	1.225544	0.068247	0.752782
H487	H	0.632609	0.165489	0.373153
H488	H	0.965943	0.498823	0.706486
H489	H	1.299276	0.832156	1.039819
C490	C	0.745290	0.145896	0.639641
C491	C	1.078623	0.479229	0.972975
C492	C	1.411956	0.812563	1.306308
H493	H	0.751033	0.169351	0.556555
H494	H	1.084366	0.502684	0.889888
H495	H	1.417699	0.836017	1.223221
H496	H	0.779075	0.140906	0.698300
H497	H	1.112408	0.474240	1.031633
H498	H	1.445741	0.807573	1.364967
H499	H	0.714318	0.163703	0.697454
H500	H	1.047651	0.497037	1.030787
H501	H	1.380984	0.830370	1.364120
