data_functionalizedCrystal
_audit_creation_method	'MofGen! by Chris Wilmer'
_symmetry_space_group_name_H-M	'P1'
_symmetry_Int_Tables_number	1
_symmetry_cell_setting	triclinic
loop_
_symmetry_equiv_pos_as_xyz
  x,y,z
_cell_length_a	25.639233
_cell_length_b	16.120530
_cell_length_c	16.120484
_cell_angle_alpha	90.167327
_cell_angle_beta	87.119255
_cell_angle_gamma	92.909794
loop_
_atom_site_label
_atom_site_type_symbol
_atom_site_fract_x
_atom_site_fract_y
_atom_site_fract_z
Zn1	Zn	-0.348043	-1.254406	0.395720
Zn2	Zn	-0.264801	-1.247265	0.534753
Zn3	Zn	-0.255980	-1.115363	0.388657
Zn4	Zn	-0.347564	-1.108258	0.527673
O5	O	-0.304097	-1.181323	0.461701
O6	O	-0.340893	-1.369823	0.420082
O7	O	-0.190466	-1.229753	0.515380
O8	O	-0.264700	-1.139770	0.273230
O9	O	-0.279735	-1.364577	0.522228
O10	O	-0.332339	-1.241923	0.278419
O11	O	-0.183984	-1.132846	0.408044
O12	O	-0.264237	-0.998056	0.401179
O13	O	-0.420793	-1.127660	0.510162
O14	O	-0.331524	-0.992836	0.503313
O15	O	-0.421145	-1.235034	0.413217
O16	O	-0.279272	-1.222864	0.650178
O17	O	-0.340077	-1.120736	0.644976
C18	C	-0.296871	-0.965274	0.450712
C19	C	-0.293793	-0.872846	0.446031
C20	C	-0.310592	-1.170276	0.677750
C21	C	-0.313390	-1.165627	0.770181
C22	C	-0.440471	-1.181351	0.461687
C23	C	-0.498585	-1.181362	0.461682
C24	C	-0.859134	-1.237348	0.411048
C25	C	-0.913738	-1.237359	0.411025
O26	O	-0.942134	-1.284887	0.368069
N27	N	-0.940865	-1.181464	0.461491
C28	C	-0.913384	-1.125548	0.511977
O29	O	-0.941471	-1.078006	0.554900
C30	C	-0.858781	-1.125533	0.511995
C31	C	-0.831657	-1.181438	0.461531
C32	C	-0.832011	-1.293247	0.360588
C33	C	-0.777411	-1.293236	0.360612
C34	C	-0.749934	-1.237326	0.411095
C35	C	-0.777057	-1.181427	0.461555
C36	C	-0.831301	-1.069614	0.562475
C37	C	-0.776694	-1.069604	0.562488
C38	C	-0.749570	-1.125508	0.512025
C39	C	-0.694980	-1.125507	0.512063
N40	N	-0.667854	-1.181402	0.461596
C41	C	-0.695331	-1.237312	0.411113
C42	C	-1.028054	-1.125582	0.511935
C43	C	-1.082657	-1.125600	0.511923
C44	C	-1.083007	-1.237411	0.410970
C45	C	-1.028404	-1.237396	0.410987
C46	C	-1.000928	-1.181477	0.461469
C47	C	-0.580666	-1.237286	0.411167
C48	C	-0.526062	-1.237272	0.411198
C49	C	-0.525716	-1.125460	0.512148
C50	C	-0.580316	-1.125475	0.512120
C51	C	-0.607790	-1.181392	0.461624
O52	O	-0.666550	-1.078000	0.554994
O53	O	-0.667236	-1.284839	0.368189
C54	C	-0.168254	-1.181347	0.461656
C55	C	-0.110138	-1.181508	0.461436
C56	C	-0.311351	-1.398216	0.472732
C57	C	-0.314443	-1.490643	0.477434
C58	C	-0.288177	-0.703620	0.437466
C59	C	-0.320057	-0.659864	0.485997
C60	C	-0.316932	-0.565700	0.481231
C61	C	-0.291301	-0.797792	0.442231
C62	C	-0.297589	-1.192436	0.244809
C63	C	-0.294816	-1.197171	0.152382
C64	C	-0.318511	-1.157142	0.939413
C65	C	-0.289697	-1.205653	0.983155
C66	C	-0.292546	-1.200932	1.077322
C67	C	-0.315662	-1.161862	0.845238
H68	H	-0.503980	-1.282799	0.370104
H69	H	-0.262888	-1.250729	0.949881
Cl70	Cl	-0.365824	-0.711208	0.555666
Cl71	Cl	-0.242416	-0.652275	0.367798
H72	H	-0.603029	-1.282815	0.370045
Cl73	Cl	-0.994312	-1.307676	0.347544
Cl74	Cl	-0.743320	-1.363514	0.297162
Cl75	Cl	-0.866544	-1.363553	0.297125
Cl76	Cl	-1.117560	-1.307696	0.347502
Cl77	Cl	-0.993519	-1.055284	0.575412
H78	H	-1.104737	-1.080086	0.553025
Cl79	Cl	-0.865385	-0.999332	0.625922
H80	H	-0.754325	-1.024059	0.603588
Cl81	Cl	-0.359897	-1.087549	0.990782
H82	H	-0.602401	-1.079961	0.553220
H83	H	-0.503335	-1.079942	0.553253
