data_functionalizedCrystal
_audit_creation_method	'MofGen! by Chris Wilmer'
_symmetry_space_group_name_H-M	'P1'
_symmetry_Int_Tables_number	1
_symmetry_cell_setting	triclinic
loop_
_symmetry_equiv_pos_as_xyz
  x,y,z
_cell_length_a	33.428889
_cell_length_b	33.428139
_cell_length_c	33.424847
_cell_angle_alpha	60.004234
_cell_angle_beta	60.008465
_cell_angle_gamma	59.994972
loop_
_atom_site_label
_atom_site_type_symbol
_atom_site_fract_x
_atom_site_fract_y
_atom_site_fract_z
O1	O	0.055565	-0.584504	0.488714
O2	O	0.020982	-0.455083	0.393778
O3	O	0.102943	-0.536959	0.393689
O4	O	-0.026396	-0.502628	0.488803
O5	O	0.130140	-0.509767	0.420792
O6	O	0.048179	-0.427891	0.420881
O7	O	0.082762	-0.557312	0.515817
Cu8	Cu	0.067954	-0.490119	0.470823
Cu9	Cu	0.035790	-0.522276	0.438771
O10	O	0.000801	-0.475436	0.515906
N11	N	0.090577	-0.467504	0.493370
N12	N	0.013171	-0.544895	0.416225
C13	C	0.143377	-0.280390	0.546067
C14	C	0.143515	-0.414755	0.680369
C15	C	0.143392	-0.414735	0.546069
C16	C	0.277766	-0.414702	0.545966
C17	C	0.158177	-0.324719	0.560828
C18	C	0.158255	-0.399967	0.636038
C19	C	0.233434	-0.399936	0.560773
C20	C	0.158186	-0.399955	0.560829
C21	C	0.124540	-0.223964	0.527278
C22	C	0.124565	-0.433545	0.527281
C23	C	0.177014	-0.381145	0.579617
C24	C	0.359814	-0.400540	0.502735
C25	C	0.411105	-0.417624	0.485606
C26	C	0.411136	-0.500620	0.517255
C27	C	0.359845	-0.483534	0.534385
C28	C	0.136887	-0.198305	0.476855
C29	C	0.119761	-0.147011	0.459777
C30	C	0.077945	-0.147038	0.543547
C31	C	0.095072	-0.198332	0.560625
C32	C	0.074134	-0.421169	0.539710
C33	C	0.057023	-0.438269	0.522625
C34	C	0.140770	-0.480120	0.480694
C35	C	0.157883	-0.463020	0.497773
C36	C	0.074339	-0.421208	0.762475
C37	C	0.057288	-0.438323	0.813768
C38	C	0.141075	-0.480183	0.813699
C39	C	0.158125	-0.463069	0.762404
C40	C	0.124756	-0.433580	0.736794
C41	C	0.334186	-0.433494	0.527123
C42	C	-0.173769	-0.597444	0.363037
C43	C	-0.039302	-0.597595	0.228856
C44	C	-0.039496	-0.597587	0.363300
C45	C	-0.039512	-0.731889	0.363237
C46	C	-0.129442	-0.612265	0.348329
C47	C	-0.054138	-0.612351	0.273187
C48	C	-0.054257	-0.687554	0.348440
C49	C	-0.054247	-0.612346	0.348477
C50	C	-0.230191	-0.578579	0.381758
C51	C	-0.020722	-0.578803	0.382168
C52	C	-0.073020	-0.631130	0.329609
C53	C	-0.053713	-0.813916	0.406386
C54	C	-0.036654	-0.865210	0.423504
C55	C	0.046338	-0.865293	0.391984
C56	C	0.029278	-0.813999	0.374865
C57	C	-0.255900	-0.590938	0.432169
C58	C	-0.307191	-0.573786	0.449185
C59	C	-0.307060	-0.531922	0.365377
C60	C	-0.255769	-0.549074	0.348360
C61	C	-0.033081	-0.528377	0.369764
C62	C	-0.016014	-0.511306	0.386922
C63	C	0.025770	-0.595083	0.428877
C64	C	0.008703	-0.612156	0.411725
C65	C	-0.032755	-0.528393	0.146761
C66	C	-0.015585	-0.511324	0.095468
C67	C	0.026262	-0.595106	0.095516
C68	C	0.009094	-0.612174	0.146811
C69	C	-0.020417	-0.578816	0.172432
C70	C	-0.020748	-0.788312	0.382068
N71	N	0.436037	-0.467415	0.493101
O72	O	0.592642	-0.471896	0.376066
O73	O	0.592838	-0.567146	0.505347
O74	O	0.592754	-0.566928	0.423360
O75	O	0.592727	-0.472113	0.458053
O76	O	0.511269	-0.539835	0.450606
O77	O	0.511353	-0.540052	0.532594
O78	O	0.511157	-0.444802	0.403312
Cu79	Cu	0.503815	-0.489954	0.470441
Cu80	Cu	0.600180	-0.521995	0.438219
O81	O	0.511242	-0.445020	0.485300
N82	N	0.667959	-0.544533	0.415554
N83	N	0.090544	-0.122107	0.493359
O84	O	-0.026406	0.034587	0.488773
O85	O	0.102877	0.034627	0.393499
O86	O	0.020848	0.034591	0.393771
O87	O	0.055623	0.034623	0.488500
O88	O	0.048051	-0.046899	0.420925
O89	O	0.130080	-0.046864	0.420653
O90	O	0.000796	-0.046903	0.515927
Cu91	Cu	0.067922	-0.054324	0.470769
Cu92	Cu	0.035752	0.042048	0.438656
O93	O	0.082825	-0.046867	0.515655
N94	N	0.013123	0.109830	0.416068
N95	N	0.090892	-0.467554	0.838649
O96	O	0.086330	-0.584488	0.995334
O97	O	-0.008902	-0.455160	0.995379
O98	O	-0.008679	-0.537172	0.995355
O99	O	0.086107	-0.502475	0.995358
O100	O	0.018452	-0.509990	0.913868
O101	O	0.018230	-0.427978	0.913891
O102	O	0.113461	-0.557306	0.913847
Cu103	Cu	0.068323	-0.490160	0.906429
Cu104	Cu	0.036237	-0.522306	1.002797
O105	O	0.113239	-0.475293	0.913870
N106	N	0.013667	-0.544916	1.070577
C107	C	0.031339	-0.425179	0.394250
C108	C	0.132837	-0.526572	0.394139
C109	C	0.072405	-0.587216	0.515344
C110	C	-0.029093	-0.485823	0.515455
C111	C	0.552119	-0.566716	0.535258
C112	C	0.552016	-0.566447	0.433726
C113	C	0.551873	-0.445232	0.373402
C114	C	0.551980	-0.445502	0.474933
C115	C	0.132731	-0.006013	0.393923
C116	C	0.031182	-0.006158	0.394293
C117	C	-0.029092	-0.006163	0.515469
C118	C	0.072491	-0.006119	0.515133
C119	C	-0.008451	-0.425276	0.954641
C120	C	-0.008170	-0.526833	0.954596
C121	C	0.113010	-0.587190	0.954585
C122	C	0.112735	-0.485627	0.954611
H123	H	0.047163	-0.397193	0.741627
H124	H	0.551811	-0.415327	0.336274
O125	O	0.041703	-0.392521	0.568347
C126	C	-0.006478	-0.385273	0.575657
H127	H	-0.006412	-0.390999	0.544741
H128	H	-0.030837	-0.346374	0.575942
H129	H	-0.021143	-0.412583	0.612199
H130	H	-0.066220	-0.006175	0.545378
O131	O	0.008047	-0.426338	0.534715
C132	C	-0.004319	-0.469448	0.560542
H133	H	0.029490	-0.501665	0.551262
H134	H	-0.034079	-0.464867	0.549652
H135	H	-0.018365	-0.476671	0.601596
O136	O	0.148324	-0.476807	0.954539
C137	C	0.189619	-0.482231	0.912319
H138	H	0.189230	-0.506806	0.898245
H139	H	0.224403	-0.499517	0.921798
H140	H	0.188619	-0.444758	0.882775
O141	O	0.177186	-0.535370	0.358566
C142	C	0.207637	-0.583516	0.376264
H143	H	0.194350	-0.596494	0.417998
H144	H	0.246897	-0.584130	0.361249
H145	H	0.206287	-0.608855	0.363857
H146	H	0.016234	-0.428240	0.834672
O147	O	0.081424	-0.006204	0.550658
C148	C	0.121127	-0.048395	0.561879
H149	H	0.124980	-0.077893	0.551119
H150	H	0.114256	-0.062567	0.602870
H151	H	0.156248	-0.038840	0.540724
H152	H	0.552170	-0.596617	0.572390
O153	O	0.551946	-0.410013	0.483873
C154	C	0.552022	-0.427869	0.532016
H155	H	0.536637	-0.459344	0.555205
H156	H	0.528361	-0.397194	0.548521
H157	H	0.591129	-0.441507	0.531253
O158	O	-0.044107	-0.380945	0.954569
C159	C	-0.057284	-0.359261	0.912376
H160	H	-0.025821	-0.375464	0.882870
H161	H	-0.065388	-0.318029	0.898220
H162	H	-0.091298	-0.366754	0.921920
O163	O	-0.043621	-0.535745	0.954532
C164	C	-0.025771	-0.583909	0.954516
H165	H	0.015963	-0.596807	0.939106
H166	H	-0.040672	-0.584600	0.930829
H167	H	-0.038170	-0.609266	0.993599
O168	O	0.552007	-0.601922	0.424800
C169	C	0.551959	-0.584075	0.376648
H170	H	0.536491	-0.542340	0.363776
H171	H	0.528307	-0.599016	0.375964
H172	H	0.591038	-0.596436	0.351267
O173	O	0.081290	-0.631603	0.550857
C174	C	0.129445	-0.661983	0.533073
H175	H	0.142359	-0.648627	0.491340
H176	H	0.130116	-0.701259	0.548040
H177	H	0.154799	-0.660628	0.545459
O178	O	-0.073389	-0.477189	0.551135
C179	C	-0.073413	-0.519326	0.593353
H180	H	-0.044418	-0.552949	0.582547
H181	H	-0.110987	-0.523713	0.611684
H182	H	-0.064852	-0.515388	0.619966
H183	H	0.169783	-0.005775	0.363939
H184	H	0.142910	-0.624330	0.954565
O185	O	0.022232	-0.006203	0.358852
C186	C	-0.025930	-0.006215	0.376721
H187	H	-0.038798	-0.021631	0.418456
H188	H	-0.026640	-0.029897	0.361830
H189	H	-0.051297	0.032871	0.364329
H190	H	0.199181	-0.473148	0.741498
O191	O	0.173557	-0.508839	0.838501
C192	C	0.221713	-0.516079	0.804836
H193	H	0.221587	-0.510335	0.768281
H194	H	0.246087	-0.554981	0.819629
H195	H	0.236406	-0.488776	0.799375
O196	O	0.173204	-0.508734	0.452020
C197	C	0.221385	-0.516001	0.444728
H198	H	0.221296	-0.485077	0.450457
H199	H	0.245708	-0.516257	0.405818
H200	H	0.236110	-0.552544	0.472011
H201	H	0.198948	-0.473094	0.487648
H202	H	0.432025	-0.541365	0.523165
O203	O	0.334978	-0.515559	0.557995
C204	C	0.347505	-0.539581	0.526605
H205	H	0.361568	-0.516215	0.486897
H206	H	0.313775	-0.545362	0.532684
H207	H	0.377300	-0.576592	0.534851
O208	O	0.435981	-0.385582	0.461839
C209	C	0.423395	-0.350755	0.419575
H210	H	0.409278	-0.366563	0.407806
H211	H	0.457108	-0.341357	0.388767
H212	H	0.393623	-0.316182	0.427975
O213	O	0.334811	-0.351942	0.495705
C214	C	0.284044	-0.343927	0.516062
H215	H	0.277039	-0.375280	0.518537
H216	H	0.264524	-0.307902	0.491818
H217	H	0.269517	-0.342116	0.554289
O218	O	0.165488	-0.223126	0.444394
C219	C	0.172718	-0.189478	0.396226
H220	H	0.141783	-0.152922	0.396341
H221	H	0.172965	-0.204296	0.371883
H222	H	0.209252	-0.184007	0.381503
H223	H	0.053957	-0.126168	0.570702
O224	O	0.131773	-0.122028	0.410805
C225	C	0.157594	-0.092354	0.398389
H226	H	0.148367	-0.084676	0.432187
H227	H	0.146648	-0.056281	0.368657
H228	H	0.198646	-0.112107	0.384283
H229	H	-0.025639	-0.470264	0.074572
O230	O	0.083136	-0.223221	0.609614
C231	C	0.100691	-0.210656	0.630877
H232	H	0.132309	-0.196549	0.601647
H233	H	0.114034	-0.244380	0.661109
H234	H	0.069925	-0.180880	0.647069
O235	O	-0.061404	-0.495921	0.171571
C236	C	-0.068624	-0.447756	0.137913
H237	H	-0.037660	-0.447882	0.101383
H238	H	-0.068917	-0.423406	0.152754
H239	H	-0.105134	-0.433031	0.132385
H240	H	0.050281	-0.622271	0.074658
H241	H	-0.057039	-0.501216	0.345698
O242	O	0.021107	-0.661174	0.171670
C243	C	0.050840	-0.686953	0.138056
H244	H	0.044355	-0.662490	0.101460
H245	H	0.041202	-0.721160	0.152853
H246	H	0.091005	-0.698056	0.132672
H247	H	-0.328125	-0.583847	0.490235
H248	H	-0.026079	-0.470245	0.376824
H249	H	0.018765	-0.653217	0.421828
O250	O	0.054337	-0.627552	0.457597
C251	C	0.061597	-0.675720	0.464851
H252	H	0.030696	-0.675597	0.459056
H253	H	0.061808	-0.700064	0.503772
H254	H	0.098157	-0.690448	0.437591
H255	H	0.056124	-0.793157	0.355062
H256	H	-0.063498	-0.886058	0.443304
O257	O	0.094951	-0.890170	0.384930
C258	C	0.120389	-0.856572	0.359806
H259	H	0.098055	-0.819997	0.338749
H260	H	0.157393	-0.871427	0.333069
H261	H	0.126287	-0.851124	0.387283
H262	H	-0.094449	-0.793002	0.412253
H263	H	-0.235077	-0.614964	0.459366
H264	H	-0.234840	-0.539009	0.307312
O265	O	-0.331855	-0.503322	0.332888
C266	C	-0.319298	-0.529238	0.303236
H267	H	-0.282079	-0.559128	0.302794
H268	H	-0.317480	-0.502935	0.264320
H269	H	-0.348181	-0.546609	0.318615
O270	O	0.022437	-0.380808	0.358721
C271	C	-0.025709	-0.350420	0.376514
H272	H	-0.048920	-0.374069	0.407986
H273	H	-0.042173	-0.326932	0.345807
H274	H	-0.024967	-0.325686	0.390135
