data_functionalizedCrystal
_audit_creation_method	'MofGen! by Chris Wilmer'
_symmetry_space_group_name_H-M	'P1'
_symmetry_Int_Tables_number	1
_symmetry_cell_setting	triclinic
loop_
_symmetry_equiv_pos_as_xyz
  x,y,z
_cell_length_a	12.759395
_cell_length_b	19.077068
_cell_length_c	19.076919
_cell_angle_alpha	94.470751
_cell_angle_beta	87.716711
_cell_angle_gamma	87.671512
loop_
_atom_site_label
_atom_site_type_symbol
_atom_site_fract_x
_atom_site_fract_y
_atom_site_fract_z
Zn1	Zn	1.563744	0.296653	0.409806
Zn2	Zn	1.563614	0.409806	0.296650
Zn3	Zn	1.395412	0.291940	0.291940
Zn4	Zn	1.380645	0.414507	0.414499
O5	O	1.475854	0.353227	0.353224
O6	O	1.710747	0.311668	0.394802
O7	O	1.547427	0.390232	0.197378
O8	O	1.423976	0.193916	0.303640
O9	O	1.710651	0.394801	0.311668
O10	O	1.547648	0.197378	0.390235
O11	O	1.423850	0.303636	0.193918
O12	O	1.246433	0.308194	0.308191
O13	O	1.398808	0.402812	0.512524
O14	O	1.235584	0.398243	0.398234
O15	O	1.533330	0.316226	0.509075
O16	O	1.533108	0.509079	0.316218
O17	O	1.398682	0.512532	0.402801
C18	C	1.202887	0.353218	0.353211
C19	C	1.086109	0.353231	0.353223
C20	C	1.464306	0.536385	0.360546
C21	C	1.459461	0.614742	0.363702
C22	C	1.464436	0.360569	0.537093
C23	C	1.459571	0.363698	0.615447
C24	C	1.074851	0.447139	0.446846
C25	C	1.014360	0.494099	0.493659
C26	C	0.904638	0.494107	0.493668
C27	C	0.855404	0.447150	0.446860
C28	C	0.915894	0.400191	0.400047
C29	C	1.025619	0.400188	0.400041
C30	C	0.927152	0.306281	0.306429
C31	C	1.036875	0.306274	0.306415
C32	C	0.877918	0.259324	0.259621
C33	C	0.938409	0.212367	0.212803
C34	C	1.048138	0.212360	0.212796
C35	C	1.097365	0.259315	0.259602
C36	C	1.749886	0.353236	0.353237
C37	C	1.866662	0.353240	0.353242
C38	C	1.487474	0.169353	0.345889
C39	C	1.492425	0.090998	0.342763
C40	C	1.527223	0.649735	0.320143
C41	C	1.522672	0.723360	0.323115
C42	C	1.450353	0.761991	0.369643
C43	C	1.382588	0.726993	0.413207
C44	C	1.387145	0.653370	0.410238
C45	C	1.429218	0.982377	0.383357
C46	C	1.424663	1.056005	0.386322
C47	C	1.564749	1.052367	0.296230
C48	C	1.569296	0.978742	0.293262
C49	C	1.501535	0.943751	0.336828
N50	N	1.445696	0.837247	0.372681
N51	N	1.506197	0.868496	0.333794
C52	C	1.487290	0.345862	0.170068
C53	C	1.492371	0.342534	0.091706
C54	C	1.527320	0.320089	0.650464
C55	C	1.522736	0.323026	0.724086
C56	C	1.450407	0.369576	0.762689
C57	C	1.382651	0.413187	0.727667
C58	C	1.387231	0.410246	0.654047
C59	C	1.429195	0.383204	0.983064
C60	C	1.424622	0.386143	1.056690
C61	C	1.564706	0.295981	1.053103
C62	C	1.569284	0.293047	0.979481
C63	C	1.501524	0.336655	0.944465
N64	N	1.445722	0.372582	0.837943
N65	N	1.506205	0.333646	0.869213
H66	H	1.164192	0.447141	0.446838
F67	F	1.357098	0.945146	0.429724
H68	H	0.788576	0.259332	0.259635
H69	H	1.186707	0.259316	0.259599
H70	H	1.332052	0.445750	0.625537
H71	H	1.586108	0.618286	0.282251
F72	F	1.646279	0.937633	0.243748
F73	F	1.305669	0.462727	0.768754
F74	F	1.315026	0.616129	0.456601
H75	H	1.577906	0.287517	0.752593
F76	F	0.886004	0.162393	0.162997
F77	F	1.636865	1.089612	0.249870
H78	H	1.097383	0.174115	0.174679
H79	H	1.365784	1.087457	0.424223
H80	H	1.054459	0.532329	0.531770
H81	H	1.323708	0.758452	0.451095
F82	F	1.594797	0.760598	0.276755
F83	F	0.840258	0.544083	0.543495
F84	F	1.646267	0.243502	0.938401
F85	F	0.738626	0.447154	0.446880
H86	H	1.586221	0.282185	0.619038
H87	H	1.619871	0.260477	1.081620
H88	H	1.365720	0.424052	1.088119
H89	H	1.374035	0.418723	0.954564
