data_functionalizedCrystal
_audit_creation_method	'MofGen! by Chris Wilmer'
_symmetry_space_group_name_H-M	'P1'
_symmetry_Int_Tables_number	1
_symmetry_cell_setting	triclinic
loop_
_symmetry_equiv_pos_as_xyz
  x,y,z
_cell_length_a	14.971491
_cell_length_b	17.038272
_cell_length_c	13.448316
_cell_angle_alpha	89.993314
_cell_angle_beta	89.991393
_cell_angle_gamma	87.363896
loop_
_atom_site_label
_atom_site_type_symbol
_atom_site_fract_x
_atom_site_fract_y
_atom_site_fract_z
O1	O	1.194575	0.101917	-0.082736
O2	O	0.935089	0.114115	-0.082729
O3	O	1.063290	-0.005801	-0.082724
O4	O	1.066374	0.221833	-0.082740
O5	O	1.063272	-0.005809	0.082659
O6	O	0.935071	0.114108	0.082655
O7	O	1.194557	0.101910	0.082648
Cu8	Cu	1.064813	0.108008	0.097752
Cu9	Cu	1.064834	0.108017	-0.097833
O10	O	1.066356	0.221826	0.082644
C11	C	0.901714	0.113565	-0.000036
C12	C	0.802295	0.111928	-0.000033
C13	C	0.374070	0.104869	-0.090206
C14	C	0.467486	0.106404	-0.090202
C15	C	0.514180	0.107173	-0.000048
C16	C	0.467454	0.106399	0.090108
C17	C	0.374041	0.104857	0.090103
C18	C	0.662156	0.109613	0.090112
C19	C	0.755576	0.111156	0.090117
C20	C	0.755601	0.111160	-0.090194
C21	C	0.662188	0.109619	-0.090199
C22	C	0.615469	0.108846	-0.000042
C23	C	1.060476	-0.034936	-0.000032
C24	C	1.052106	-0.121739	-0.000033
C25	C	1.128950	-0.171763	-0.000034
C26	C	1.121080	-0.253323	-0.000043
C27	C	1.036366	-0.284857	-0.000044
C28	C	0.959517	-0.234827	-0.000046
C29	C	0.967387	-0.153269	-0.000044
C30	C	1.008561	-0.530648	-0.000057
C31	C	1.000697	-0.612213	-0.000056
C32	C	1.162261	-0.630702	-0.000055
C33	C	1.170124	-0.549142	-0.000047
C34	C	1.093275	-0.499119	-0.000054
C35	C	1.028320	-0.368224	-0.000050
C36	C	1.101321	-0.415753	-0.000055
C37	C	1.227932	0.102459	-0.000047
C38	C	1.327351	0.104096	-0.000057
C39	C	1.069171	0.250961	-0.000050
C40	C	1.077540	0.337764	-0.000057
N41	N	1.064804	0.108001	0.235317
N42	N	1.064849	0.108017	-0.235397
C43	C	1.121592	0.054924	0.287359
C44	C	1.121598	0.054924	0.391462
C45	C	1.064819	0.108004	0.443521
C46	C	1.008025	0.161084	0.391472
C47	C	1.008016	0.161080	0.287370
C48	C	1.008050	0.161089	0.608452
C49	C	1.008061	0.161094	0.712560
C50	C	1.121632	0.054933	0.712544
C51	C	1.121623	0.054929	0.608442
C52	C	1.064830	0.108010	0.556400
H53	H	0.793591	0.111786	0.163528
N54	N	0.323649	0.104019	0.187337
H55	H	0.367443	0.104190	0.244447
H56	H	0.281772	0.152094	0.191564
H57	H	1.197933	-0.146094	-0.000027
H58	H	0.624172	0.108998	-0.163610
N59	N	1.203960	-0.307278	-0.000035
H60	H	1.240660	-0.297119	-0.061337
H61	H	1.240561	-0.297106	0.061319
H62	H	1.239107	-0.523473	-0.000046
N63	N	1.182880	-0.002297	0.447595
H64	H	1.218862	-0.035911	0.398819
H65	H	1.224689	0.027731	0.490750
H66	H	1.167861	0.011710	0.566056
H67	H	1.224827	-0.671439	-0.000051
H68	H	1.167875	0.011712	0.754923
N69	N	0.946818	0.218333	0.768724
H70	H	0.983637	0.253006	0.811896
H71	H	0.910840	0.251905	0.719907
H72	H	0.961800	0.204311	0.566082
H73	H	1.170295	-0.390074	-0.000076
N74	N	0.909322	-0.646228	-0.000058
H75	H	0.861832	-0.602164	-0.000066
H76	H	0.902554	-0.679661	-0.061368
N77	N	0.946765	0.218332	0.231243
H78	H	0.983572	0.253002	0.188030
H79	H	0.904894	0.188334	0.188130
N80	N	0.946782	0.218330	0.447624
H81	H	0.983601	0.253004	0.490796
H82	H	0.910814	0.251900	0.398796
H83	H	0.904812	-0.112540	-0.000043
N84	N	0.611767	0.108774	0.187352
H85	H	0.655562	0.108943	0.244461
H86	H	0.569895	0.156852	0.191577
N87	N	0.925677	-0.476702	-0.000058
H88	H	0.889000	-0.486854	-0.061364
H89	H	0.889056	-0.486886	0.061292
N90	N	0.323710	0.104045	-0.187445
H91	H	0.367486	0.104765	-0.244553
H92	H	0.288520	0.054971	-0.191368
H93	H	0.959345	-0.393909	-0.000049
N94	N	0.517878	0.107227	-0.187434
H95	H	0.474122	0.106508	-0.244547
H96	H	0.553075	0.156297	-0.191371
N97	N	0.868145	-0.268835	-0.000053
H98	H	0.874817	-0.328093	-0.000051
H99	H	0.834238	-0.250545	0.061257
H100	H	0.793644	0.111791	-0.163603
N101	N	0.517814	0.107235	0.187346
H102	H	0.474041	0.106511	0.244455
H103	H	0.560141	0.059442	0.191284
N104	N	1.182838	-0.002323	0.231213
H105	H	1.218812	-0.035948	0.279982
H106	H	1.145962	-0.036943	0.188037
