data_functionalizedCrystal
_audit_creation_method	'MofGen! by Chris Wilmer'
_symmetry_space_group_name_H-M	'P1'
_symmetry_Int_Tables_number	1
_symmetry_cell_setting	triclinic
loop_
_symmetry_equiv_pos_as_xyz
  x,y,z
_cell_length_a	27.732048
_cell_length_b	27.732048
_cell_length_c	26.210047
_cell_angle_alpha	90.018179
_cell_angle_beta	89.983939
_cell_angle_gamma	82.642655
loop_
_atom_site_label
_atom_site_type_symbol
_atom_site_fract_x
_atom_site_fract_y
_atom_site_fract_z
O1	O	0.640916	0.057524	0.042369
O2	O	0.500122	0.066270	0.042385
O3	O	0.574892	-0.008500	0.042367
O4	O	0.566146	0.132294	0.042387
O5	O	0.574908	-0.008517	-0.042491
O6	O	0.500139	0.066253	-0.042473
O7	O	0.640932	0.057507	-0.042489
Cu8	Cu	0.570537	0.061878	-0.050229
Cu9	Cu	0.570517	0.061899	0.050125
O10	O	0.566163	0.132277	-0.042471
C11	C	0.482124	0.066078	-0.000042
C12	C	0.428469	0.065525	-0.000036
C13	C	0.574716	-0.026515	-0.000064
C14	C	0.574164	-0.080170	-0.000068
C15	C	0.089654	0.106229	-0.000053
C16	C	-0.112006	0.104178	-0.000057
O17	O	-0.143262	0.141398	-0.000074
N18	N	-0.131130	0.059843	-0.000063
C19	C	-0.099835	0.016017	-0.000071
O20	O	-0.120728	-0.021740	-0.000081
C21	C	0.101824	0.018068	-0.000069
C22	C	0.120944	0.062407	-0.000059
C23	C	0.108775	0.150563	-0.000043
C24	C	0.159187	0.151075	-0.000039
C25	C	0.190478	0.107253	-0.000045
C26	C	0.171356	0.062919	-0.000055
C27	C	0.133117	-0.025757	-0.000081
C28	C	0.183535	-0.025240	-0.000082
C29	C	0.202655	0.019098	-0.000071
C30	C	0.253059	0.019609	-0.000057
N31	N	0.272183	0.063944	-0.000051
C32	C	0.240892	0.107766	-0.000045
C33	C	-0.205709	0.014943	-0.000070
C34	C	-0.256124	0.014430	-0.000070
C35	C	-0.268291	0.102591	-0.000057
C36	C	-0.217876	0.103103	-0.000054
C37	C	-0.186585	0.059278	-0.000065
C38	C	0.346761	0.108839	-0.000036
C39	C	0.397178	0.109347	-0.000030
C40	C	0.409341	0.021186	-0.000045
C41	C	0.358929	0.020678	-0.000049
C42	C	0.327639	0.064508	-0.000046
O43	O	0.284343	-0.017592	-0.000046
O44	O	0.261794	0.145518	-0.000047
C45	C	0.039242	0.105716	-0.000057
C46	C	0.020120	0.061382	-0.000067
C47	C	0.051411	0.017560	-0.000073
C48	C	-0.030294	0.060869	-0.000066
C49	C	-0.061585	0.104691	-0.000060
C50	C	-0.042461	0.149026	-0.000054
C51	C	0.007951	0.149539	-0.000050
C52	C	0.032287	-0.026775	-0.000078
C53	C	-0.018125	-0.027284	-0.000082
C54	C	-0.049416	0.016538	-0.000076
C55	C	0.614867	-0.418985	-0.000046
C56	C	0.612816	-0.620645	-0.000039
O57	O	0.650037	-0.651900	-0.000021
N58	N	0.568481	-0.639768	-0.000034
C59	C	0.524656	-0.608474	-0.000028
O60	O	0.486899	-0.629367	-0.000019
C61	C	0.526707	-0.406815	-0.000032
C62	C	0.571045	-0.387694	-0.000042
C63	C	0.659202	-0.399864	-0.000056
C64	C	0.659714	-0.349452	-0.000060
C65	C	0.615892	-0.318161	-0.000056
C66	C	0.571557	-0.337282	-0.000046
C67	C	0.482882	-0.375521	-0.000022
C68	C	0.483399	-0.325104	-0.000022
C69	C	0.527737	-0.305983	-0.000032
C70	C	0.528248	-0.255580	-0.000046
N71	N	0.572583	-0.236456	-0.000051
C72	C	0.616405	-0.267747	-0.000056
C73	C	0.523582	-0.714348	-0.000027
C74	C	0.523069	-0.764762	-0.000027
C75	C	0.611230	-0.776930	-0.000037
C76	C	0.611742	-0.726514	-0.000041
C77	C	0.567917	-0.695224	-0.000032
C78	C	0.617477	-0.161878	-0.000066
C79	C	0.617986	-0.111461	-0.000073
C80	C	0.529825	-0.099298	-0.000060
C81	C	0.529316	-0.149710	-0.000056
C82	C	0.573147	-0.180999	-0.000057
O83	O	0.491047	-0.224296	-0.000059
O84	O	0.654156	-0.246844	-0.000054
C85	C	0.614355	-0.469397	-0.000042
C86	C	0.570021	-0.488518	-0.000033
C87	C	0.526198	-0.457228	-0.000028
C88	C	0.569508	-0.538933	-0.000033
C89	C	0.613330	-0.570223	-0.000037
C90	C	0.657665	-0.551100	-0.000042
C91	C	0.658177	-0.500688	-0.000046
C92	C	0.481863	-0.476351	-0.000023
C93	C	0.481355	-0.526764	-0.000019
C94	C	0.525177	-0.558054	-0.000024
C95	C	0.658931	0.057699	-0.000061
C96	C	0.712586	0.058252	-0.000064
C97	C	0.566338	0.150292	-0.000040
C98	C	0.566891	0.203947	-0.000032
N99	N	0.570504	0.061909	0.120709
N100	N	0.570554	0.061864	-0.120813
C101	C	0.537363	0.094936	0.526684
C102	C	0.537349	0.094945	0.313026
O103	O	0.509151	0.123059	0.285414
N104	N	0.570516	0.061905	0.286293
C105	C	0.603692	0.028862	0.312977
O106	O	0.631906	0.000762	0.285337
C107	C	0.603708	0.028855	0.526635
C108	C	0.570535	0.061895	0.553365
C109	C	0.504193	0.127973	0.553415
C110	C	0.504195	0.127969	0.606826
C111	C	0.537367	0.094927	0.633507
C112	C	0.570537	0.061890	0.606777
C113	C	0.636886	-0.004185	0.553319
C114	C	0.636888	-0.004183	0.606737
C115	C	0.603715	0.028856	0.633467
C116	C	0.603712	0.028844	0.686869
N117	N	0.570544	0.061885	0.713603
C118	C	0.537372	0.094926	0.686922
C119	C	0.603681	0.028867	0.200804
C120	C	0.603676	0.028868	0.147390
C121	C	0.537333	0.094952	0.147442
C122	C	0.537336	0.094948	0.200857
C123	C	0.570513	0.061907	0.227537
C124	C	0.537378	0.094914	0.799089
C125	C	0.537382	0.094905	0.852506
C126	C	0.603727	0.028823	0.852449
C127	C	0.603721	0.028830	0.799037
C128	C	0.570545	0.061879	0.772359
O129	O	0.631898	0.000749	0.714514
O130	O	0.509169	0.123029	0.714571
C131	C	0.537361	0.094940	0.473273
C132	C	0.570531	0.061903	0.446543
C133	C	0.603703	0.028862	0.473224
C134	C	0.570526	0.061904	0.393128
C135	C	0.537354	0.094946	0.366447
C136	C	0.504186	0.127986	0.393181
C137	C	0.504188	0.127982	0.446592
C138	C	0.636871	-0.004179	0.446490
C139	C	0.636866	-0.004172	0.393079
C140	C	0.603693	0.028870	0.366398
H141	H	0.321291	0.144530	-0.000036
H142	H	0.663899	-0.031089	0.531562
H143	H	0.663906	-0.031089	0.628457
O144	O	0.439692	-0.021413	-0.000119
C145	C	0.431099	-0.048356	-0.044081
H146	H	0.392769	-0.036200	-0.058731
H147	H	0.434942	-0.088697	-0.034206
H148	H	0.458638	-0.041957	-0.074853
O149	O	0.177676	0.194189	-0.000057
C150	C	0.139240	0.232752	-0.000041
H151	H	0.105094	0.219452	-0.016106
H152	H	0.149551	0.263724	-0.024677
H153	H	0.131994	0.246262	0.040670
H154	H	0.477176	0.154886	0.468352
H155	H	0.647846	-0.710950	-0.000048
H156	H	0.493213	-0.165279	-0.000062
O157	O	0.653755	-0.807399	-0.000015
C158	C	0.643789	-0.855994	-0.000025
H159	H	0.605829	-0.857637	0.016038
H160	H	0.671733	-0.879034	0.024616
H161	H	0.645746	-0.870606	-0.040734
H162	H	0.510322	0.121855	0.125709
H163	H	0.486964	-0.780325	-0.000028
O164	O	0.635962	-0.003203	0.773016
C165	C	0.665543	0.022542	0.742132
H166	H	0.645941	0.060473	0.734147
H167	H	0.673382	0.002323	0.704563
H168	H	0.701225	0.025649	0.762713
H169	H	-0.033688	-0.063392	-0.000086
O170	O	0.635897	-0.003263	0.878444
C171	C	0.610329	-0.032978	0.909355
H172	H	0.572317	-0.013562	0.917357
H173	H	0.630572	-0.040678	0.946914
H174	H	0.607422	-0.068720	0.888789
O175	O	0.439824	-0.394112	-0.000098
C176	C	0.436890	-0.422936	-0.044035
H177	H	0.462061	-0.411214	-0.074763
H178	H	0.397898	-0.418126	-0.058774
H179	H	0.448337	-0.462776	-0.034098
H180	H	-0.271687	-0.021674	-0.000070
O181	O	0.471930	0.160002	0.632813
C182	C	0.442365	0.134266	0.663725
H183	H	0.441902	0.096138	0.647621
H184	H	0.403771	0.154190	0.664350
H185	H	0.457515	0.131658	0.704201
H186	H	0.023514	0.185643	-0.000042
H187	H	0.447710	-0.299629	-0.000014
H188	H	0.057760	-0.062462	-0.000085
H189	H	-0.180236	-0.020747	-0.000079
H190	H	0.083302	0.186251	-0.000039
H191	H	0.477174	0.154888	0.371448
O192	O	0.480962	-0.684024	-0.000046
C193	C	0.441727	-0.711721	-0.000031
H194	H	0.454295	-0.749446	-0.016096
H195	H	0.411050	-0.692913	-0.024667
H196	H	0.428108	-0.715199	0.040680
H197	H	0.494146	-0.073812	-0.000058
O198	O	0.439304	-0.445940	0.000070
C199	C	0.436951	-0.416386	0.044009
H200	H	0.461806	-0.435014	0.074727
H201	H	0.397967	-0.410434	0.058763
H202	H	0.449177	-0.379814	0.034067
O203	O	0.701290	-0.482198	-0.000030
C204	C	0.739853	-0.520634	-0.000045
H205	H	0.726555	-0.554779	0.016022
H206	H	0.770828	-0.510321	0.024588
H207	H	0.753360	-0.527884	-0.040757
H208	H	0.654093	-0.095896	-0.000082
O209	O	0.700222	-0.581520	0.000045
C210	C	0.702541	-0.611036	0.043990
H211	H	0.677676	-0.592373	0.074708
H212	H	0.741517	-0.616990	0.058741
H213	H	0.690306	-0.647610	0.034058
O214	O	0.415691	0.152451	0.000048
C215	C	0.399661	0.179143	0.044006
H216	H	0.364784	0.166235	0.058653
H217	H	0.392367	0.219448	0.034128
H218	H	0.428867	0.173331	0.074782
O219	O	-0.199384	0.146216	-0.000070
C220	C	-0.237819	0.184781	-0.000049
H221	H	-0.271966	0.171485	-0.016115
H222	H	-0.227507	0.215755	-0.024682
H223	H	-0.245063	0.198287	0.040664
H224	H	0.663878	-0.031081	0.371319
O225	O	0.471899	0.160023	0.527525
C226	C	0.424141	0.152401	0.540612
H227	H	0.424279	0.113688	0.555277
H228	H	0.399825	0.158086	0.505502
H229	H	0.409700	0.179265	0.571638
O230	O	0.438238	-0.545254	0.000012
C231	C	0.399673	-0.506819	0.000004
H232	H	0.412964	-0.472661	0.016060
H233	H	0.368692	-0.517114	0.024650
H234	H	0.386179	-0.499603	-0.040705
O235	O	0.505138	0.127049	0.878392
C236	C	0.475854	0.156205	0.843384
H237	H	0.495662	0.156654	0.805303
H238	H	0.468117	0.194855	0.858833
H239	H	0.440103	0.140684	0.837708
H240	H	0.630698	0.001960	0.222523
O241	O	0.660098	-0.192199	-0.000092
C242	C	0.699333	-0.164502	-0.000088
H243	H	0.686772	-0.126788	-0.016153
H244	H	0.730020	-0.183328	-0.024730
H245	H	0.712935	-0.160994	0.040620
H246	H	-0.293777	0.138273	-0.000053
O247	O	0.505162	0.127112	0.226798
C248	C	0.512557	0.174935	0.213744
H249	H	0.551245	0.174978	0.199047
H250	H	0.506770	0.199232	0.248878
H251	H	0.485637	0.189266	0.182752
O252	O	0.114632	-0.068870	-0.000119
C253	C	0.153070	-0.107432	-0.000116
H254	H	0.187225	-0.094137	-0.016173
H255	H	0.142775	-0.138413	-0.024765
H256	H	0.160291	-0.120929	0.040591
O257	O	0.213978	-0.067781	-0.000022
C258	C	0.243481	-0.070123	0.043935
H259	H	0.245747	-0.031773	0.058595
H260	H	0.281510	-0.088422	0.034050
H261	H	0.227042	-0.092067	0.074704
O262	O	0.340408	-0.022421	0.000015
C263	C	0.356399	-0.049097	0.043968
H264	H	0.391267	-0.036189	0.058627
H265	H	0.363695	-0.089407	0.034078
H266	H	0.327169	-0.043268	0.074739
O267	O	0.635943	-0.003249	0.121506
C268	C	0.665213	-0.032418	0.156516
H269	H	0.665571	-0.012595	0.194597
H270	H	0.703875	-0.039986	0.141070
H271	H	0.649861	-0.068258	0.162192
O272	O	-0.072911	0.191564	0.000019
C273	C	-0.102444	0.193917	0.043973
H274	H	-0.104712	0.155571	0.058620
H275	H	-0.140469	0.212204	0.034088
H276	H	-0.086032	0.215878	0.074751
O277	O	0.702797	-0.330906	0.000026
C278	C	0.729479	-0.346928	0.043967
H279	H	0.703536	-0.357210	0.074686
H280	H	0.749815	-0.316534	0.058717
H281	H	0.756662	-0.379994	0.034029
O282	O	0.701762	-0.430274	0.000029
C283	C	0.704100	-0.459797	0.043970
H284	H	0.679233	-0.441148	0.074693
H285	H	0.743079	-0.465737	0.058714
H286	H	0.691880	-0.496377	0.034035
O287	O	0.669113	-0.036325	0.472325
C288	C	0.698392	-0.065474	0.437270
H289	H	0.678579	-0.065912	0.399202
H290	H	0.706128	-0.104128	0.452678
H291	H	0.734143	-0.049955	0.431583
H292	H	0.510364	0.121827	0.777374
