data_functionalizedCrystal
_audit_creation_method	'MofGen! by Chris Wilmer'
_symmetry_space_group_name_H-M	'P1'
_symmetry_Int_Tables_number	1
_symmetry_cell_setting	triclinic
loop_
_symmetry_equiv_pos_as_xyz
  x,y,z
_cell_length_a	6.817900
_cell_length_b	7.190334
_cell_length_c	16.256208
_cell_angle_alpha	89.346100
_cell_angle_beta	103.499088
_cell_angle_gamma	60.611776
loop_
_atom_site_label
_atom_site_type_symbol
_atom_site_fract_x
_atom_site_fract_y
_atom_site_fract_z
V1	V	-4.223264	0.665751	-0.115742
O2	O	-4.206711	0.652297	0.006951
O3	O	-4.173751	0.661950	-0.230833
O4	O	-4.260422	0.955766	-0.113353
O5	O	-4.119440	0.356447	-0.111343
V6	V	-4.695950	0.628665	-0.101139
O7	O	-4.508295	0.747104	-0.147776
O8	O	-4.861117	0.547312	-0.069105
O9	O	-4.522257	0.632466	0.013952
O10	O	-4.829900	0.642120	-0.223832
O11	O	-4.917172	0.937969	-0.105538
O12	O	-4.435586	0.338651	-0.103529
C13	C	-4.015712	0.651641	-0.258909
C14	C	-4.057086	0.650466	-0.352994
C15	C	-4.375202	0.658007	-0.641075
C16	C	-4.165197	0.476404	-0.571959
C17	C	-4.205836	0.646148	-0.691640
C18	C	-4.342226	0.829812	-0.593115
C19	C	-4.132762	0.648274	-0.525252
C20	C	-3.996301	0.464383	-0.623754
C21	C	-4.173439	0.817952	-0.644925
C22	C	-3.963282	0.636297	-0.575828
C23	C	-4.247936	0.644922	-0.787491
C24	C	-4.090640	0.649484	-0.429401
C25	C	-4.126281	1.026430	-0.109047
C26	C	-4.240035	1.267979	-0.107830
C27	C	-4.343636	0.642769	0.042024
C28	C	-4.281504	0.643958	0.136107
H29	H	-4.161267	0.332008	-0.540181
O30	O	-4.583427	0.669063	-0.675133
C31	C	-4.731355	0.856871	-0.736049
H32	H	-4.673813	0.980383	-0.721989
H33	H	-4.720465	0.814365	-0.802810
C34	C	-5.056057	0.800901	-0.748668
C35	C	-4.985395	0.952607	-0.731395
H36	H	-5.212763	0.859952	-0.745801
H37	H	-4.956395	0.674366	-0.707631
H38	H	-5.046964	0.765492	-0.804302
H39	H	-4.994461	0.987992	-0.675758
H40	H	-5.085066	1.079151	-0.772424
O41	O	-4.516057	1.013908	-0.576397
C42	C	-4.473215	1.013419	-0.487224
H43	H	-4.355440	0.840225	-0.452981
H44	H	-4.383311	1.110284	-0.466897
C45	C	-4.851610	1.328716	-0.505591
C46	C	-4.706973	1.115993	-0.463533
H47	H	-4.995801	1.391996	-0.490976
H48	H	-4.880472	1.329051	-0.565669
H49	H	-4.776663	1.409408	-0.488647
H50	H	-4.781908	1.035298	-0.480485
H51	H	-4.678129	1.115647	-0.403457
H52	H	-4.177452	0.962359	-0.676723
H53	H	-3.850427	0.309784	-0.637526
H54	H	-3.788683	0.627071	-0.547477
