data_functionalizedCrystal
_audit_creation_method	'MofGen! by Chris Wilmer'
_symmetry_space_group_name_H-M	'P1'
_symmetry_Int_Tables_number	1
_symmetry_cell_setting	triclinic
loop_
_symmetry_equiv_pos_as_xyz
  x,y,z
_cell_length_a	13.635800
_cell_length_b	17.329528
_cell_length_c	17.339160
_cell_angle_alpha	84.430016
_cell_angle_beta	103.232264
_cell_angle_gamma	76.972308
loop_
_atom_site_label
_atom_site_type_symbol
_atom_site_fract_x
_atom_site_fract_y
_atom_site_fract_z
V1	V	2.013649	-0.125940	0.241939
O2	O	2.011237	-0.012185	0.244784
O3	O	1.985716	-0.232179	0.233118
O4	O	1.991249	-0.132005	0.350726
O5	O	2.005666	-0.113052	0.126362
V6	V	2.255713	-0.111389	0.228985
O7	O	2.143614	-0.157861	0.270353
O8	O	2.350847	-0.079468	0.200571
O9	O	2.172043	-0.005150	0.237806
O10	O	2.316824	-0.225144	0.226140
O11	O	2.322395	-0.124277	0.344562
O12	O	2.166510	-0.105324	0.120198
V13	V	2.513649	-0.125940	0.241939
O14	O	2.511237	-0.012185	0.244784
O15	O	2.485716	-0.232179	0.233118
O16	O	2.491249	-0.132005	0.350726
O17	O	2.505666	-0.113052	0.126362
V18	V	2.755713	-0.111389	0.228985
O19	O	2.643614	-0.157861	0.270353
O20	O	2.850847	-0.079468	0.200571
O21	O	2.672043	-0.005150	0.237806
O22	O	2.816824	-0.225144	0.226140
O23	O	2.822395	-0.124277	0.344562
O24	O	2.666510	-0.105324	0.120198
C25	C	1.907250	-0.257827	0.227452
C26	C	1.925066	-0.344730	0.220966
C27	C	2.024703	-0.835395	0.180575
C28	C	2.007971	-0.753744	0.186683
C29	C	2.020527	-0.729303	0.262178
C30	C	2.049807	-0.786519	0.331569
C31	C	2.066531	-0.868168	0.325459
C32	C	1.971071	-0.483595	0.284247
C33	C	1.954347	-0.401939	0.290351
C34	C	1.912510	-0.369169	0.145465
C35	C	1.929242	-0.450822	0.139363
C36	C	1.958515	-0.508030	0.208753
C37	C	2.003428	-0.645843	0.268423
C38	C	1.975607	-0.591488	0.202507
C39	C	1.914308	-0.130045	0.377471
C40	C	1.936610	-0.135707	0.466358
C41	C	1.929277	-0.065931	0.501500
C42	C	1.950230	-0.071259	0.585019
C43	C	1.978524	-0.146363	0.633395
C44	C	1.985854	-0.216144	0.598248
C45	C	1.964894	-0.210816	0.514730
C46	C	2.042695	-0.166076	0.885897
C47	C	2.063658	-0.171400	0.969420
C48	C	2.028031	-0.026514	0.956185
C49	C	2.007078	-0.021192	0.872666
C50	C	2.014405	-0.090972	0.837526
C51	C	1.999945	-0.151811	0.718766
C52	C	1.992976	-0.085524	0.752157
C53	C	2.082180	0.020495	0.243469
C54	C	2.053983	0.107396	0.249961
C55	C	2.407250	-0.257827	0.227452
C56	C	2.425066	-0.344730	0.220966
C57	C	2.078611	-0.107287	1.093448
C58	C	2.056325	-0.101624	1.004562
C59	C	2.414308	-0.130045	0.377471
C60	C	2.436610	-0.135707	0.466358
C61	C	2.582180	0.020495	0.243469
C62	C	2.553983	0.107396	0.249961
C63	C	2.575123	-0.107286	0.093448
C64	C	2.542439	-0.101620	0.004561
C65	C	2.524426	-0.389813	0.221646
C66	C	2.541184	-0.471471	0.215563
C67	C	2.458580	-0.508043	0.208795
C68	C	2.359213	-0.462955	0.208117
C69	C	2.342457	-0.381300	0.214206
C70	C	2.538079	-0.142555	0.511913
C71	C	2.559046	-0.147865	0.595431
C72	C	2.478545	-0.146331	0.633394
C73	C	2.377067	-0.139480	0.587832
C74	C	2.356100	-0.134165	0.504315
C75	C	2.627117	0.152478	0.249283
C76	C	2.600630	0.234135	0.255369
C77	C	2.501012	0.270707	0.262140
C78	C	2.427872	0.225619	0.262815
C79	C	2.454357	0.143965	0.256723
C80	C	2.440711	-0.103146	-0.033381
C81	C	2.409984	-0.097813	-0.116900
C82	C	2.480990	-0.090960	-0.162476
C83	C	2.582726	-0.089432	-0.124530
C84	C	2.613449	-0.094759	-0.041012
H85	H	2.014481	-0.855287	0.119099
H86	H	2.346761	0.255409	0.268327
H87	H	1.984133	-0.707167	0.130182
F88	F	2.376509	0.095993	0.257448
F89	F	2.063159	-0.760505	0.411916
F90	F	2.015987	-0.296078	0.649737
F91	F	2.365124	-0.110439	0.015111
H92	H	2.273473	-0.128591	0.467230
F93	F	2.733146	0.113571	0.242079
H94	H	2.090370	-0.914748	0.381961
F95	F	2.721728	-0.093144	-0.000641
H96	H	2.660198	0.270834	0.254819
H97	H	1.964594	-0.382045	0.351832
H98	H	2.495632	-0.150660	0.701399
F99	F	2.016786	-0.619824	0.348768
H100	H	1.970863	-0.267634	0.486119
F101	F	1.976894	0.058748	0.821183
H102	H	2.479460	0.337196	0.267099
F103	F	1.962859	-0.005594	0.700670
F104	F	2.236700	-0.333326	0.213475
F105	F	2.301707	-0.099446	-0.157269
F106	F	2.658287	-0.082145	-0.173046
F107	F	1.915887	-0.476827	0.059011
F108	F	1.881365	-0.308280	0.071620
H109	H	2.311529	-0.138233	0.618754
H110	H	2.455963	-0.086633	-0.230480
F111	F	1.962240	-0.617501	0.122162
H112	H	2.622100	-0.508170	0.216114
H113	H	1.906245	-0.004773	0.462117
F114	F	2.002154	-0.544467	0.358097
H115	H	1.944243	-0.014439	0.613627
H116	H	2.472237	-0.574532	0.203838
H117	H	2.022067	0.030298	0.984806
F118	F	2.667053	-0.155160	0.643907
F119	F	2.093774	-0.251340	1.020905
H120	H	2.048669	-0.222897	0.857296
F121	F	2.612358	-0.350906	0.228853
F122	F	2.271307	-0.501888	0.200911
F123	F	2.030105	-0.231743	0.770260
H124	H	2.603640	-0.143807	0.481016
