data_functionalizedCrystal
_audit_creation_method	'MofGen! by Chris Wilmer'
_symmetry_space_group_name_H-M	'P1'
_symmetry_Int_Tables_number	1
_symmetry_cell_setting	triclinic
loop_
_symmetry_equiv_pos_as_xyz
  x,y,z
_cell_length_a	18.050591
_cell_length_b	12.594516
_cell_length_c	12.594509
_cell_angle_alpha	89.965848
_cell_angle_beta	89.971155
_cell_angle_gamma	90.011028
loop_
_atom_site_label
_atom_site_type_symbol
_atom_site_fract_x
_atom_site_fract_y
_atom_site_fract_z
Zn1	Zn	-1.135392	0.423896	0.602030
Zn2	Zn	-1.135313	0.601907	0.424033
Zn3	Zn	-1.011198	0.423922	0.424035
Zn4	Zn	-1.011182	0.601813	0.601939
O5	O	-1.073271	0.512885	0.513009
O6	O	-1.239306	0.447538	0.578455
O7	O	-1.118822	0.578347	0.275087
O8	O	-1.027713	0.274973	0.447685
O9	O	-1.239248	0.578322	0.447681
O10	O	-1.118957	0.274954	0.578457
O11	O	-1.027635	0.447582	0.275089
O12	O	-0.907271	0.447491	0.447598
O13	O	-1.027686	0.578162	0.750897
O14	O	-0.907260	0.578187	0.578303
O15	O	-1.118942	0.447447	0.750964
O16	O	-1.118807	0.750840	0.447594
O17	O	-1.027609	0.750771	0.578301
C18	C	-0.880319	0.512833	0.512942
C19	C	-0.797773	0.512836	0.512938
C20	C	-1.073217	0.789426	0.512960
C21	C	-1.073262	0.907731	0.512975
C22	C	-1.073321	0.512791	0.790630
C23	C	-1.073342	0.512752	0.908936
C24	C	-0.548933	0.441671	0.442010
C25	C	-0.598368	0.415745	0.539152
C26	C	-0.500653	0.512868	0.513003
C27	C	-0.598299	0.538728	0.415834
C28	C	-0.646638	0.512850	0.512966
C29	C	-0.549002	0.486891	0.610197
C30	C	-0.548928	0.609920	0.486814
C31	C	-0.598341	0.584030	0.584023
C32	C	-0.416555	0.512876	0.513023
C33	C	-0.730735	0.512842	0.512957
C34	C	-0.266977	0.512919	0.513059
C35	C	-0.349523	0.512885	0.513032
C36	C	-1.122918	0.976983	0.441952
C37	C	-1.141061	1.047682	0.539097
C38	C	-1.055197	1.047830	0.415869
C39	C	-1.091441	0.976872	0.610171
C40	C	-1.005545	0.977014	0.486878
C41	C	-1.023663	1.047682	0.584090
C42	C	-1.073328	1.235264	0.513054
C43	C	-1.073307	1.116958	0.513003
C44	C	-1.073265	0.512901	0.236468
C45	C	-1.073387	0.512641	0.118163
C46	C	-1.023723	0.583807	0.978153
C47	C	-1.091487	0.609824	1.048953
C48	C	-1.005631	0.486670	1.048935
C49	C	-1.141142	0.538820	0.978178
C50	C	-1.055240	0.415621	0.978153
C51	C	-1.123050	0.441601	1.048921
H52	H	-0.527240	0.381425	0.382063
O53	O	-1.178720	0.361946	1.089829
H54	H	-1.164114	0.281647	1.060202
H55	H	-0.981795	0.643989	0.947081
O56	O	-0.520442	0.457764	0.719054
H57	H	-0.540691	0.516518	0.777956
O58	O	-1.034896	0.306925	0.936885
H59	H	-0.978616	0.285503	0.965161
O60	O	-0.520125	0.718609	0.457445
H61	H	-0.567525	0.772577	0.442028
O62	O	-0.929759	0.457491	1.090099
H63	H	-0.888659	0.516635	1.061741
H64	H	-0.619897	0.644232	0.644113
O65	O	-1.216942	1.088806	0.568363
H66	H	-1.212940	1.137218	0.641749
O67	O	-0.626988	0.567712	0.307009
H68	H	-0.660812	0.641090	0.312560
O69	O	-1.111798	0.718562	1.090162
H70	H	-1.163012	0.712841	1.138643
H71	H	-1.039899	1.078998	0.333736
O72	O	-0.929689	0.935841	0.457575
H73	H	-0.892038	1.003830	0.442218
O74	O	-1.178550	0.935844	0.362477
H75	H	-1.234738	0.964145	0.384412
O76	O	-1.111802	0.935777	0.718999
H77	H	-1.111654	0.847653	0.718121
H78	H	-0.620072	0.333659	0.561307
O79	O	-1.217039	0.568107	0.937186
H80	H	-1.254771	0.582572	1.005270
H81	H	-0.981690	1.078529	0.644233
