data_functionalizedCrystal
_audit_creation_method	'MofGen! by Chris Wilmer'
_symmetry_space_group_name_H-M	'P1'
_symmetry_Int_Tables_number	1
_symmetry_cell_setting	triclinic
loop_
_symmetry_equiv_pos_as_xyz
  x,y,z
_cell_length_a	19.288864
_cell_length_b	14.185569
_cell_length_c	15.711784
_cell_angle_alpha	107.179389
_cell_angle_beta	101.362524
_cell_angle_gamma	76.905400
loop_
_atom_site_label
_atom_site_type_symbol
_atom_site_fract_x
_atom_site_fract_y
_atom_site_fract_z
O1	O	0.938184	0.083741	0.127439
O2	O	1.438184	0.583741	0.627439
O3	O	0.739661	0.083673	0.141955
O4	O	1.239661	0.583673	0.641955
O5	O	0.812505	0.083696	0.008966
O6	O	1.312505	0.583696	0.508966
O7	O	0.865339	0.083717	0.260429
O8	O	1.365339	0.583717	0.760429
O9	O	0.834025	-0.083132	-0.030316
O10	O	1.334025	0.416868	0.469684
O11	O	0.761181	-0.083155	0.102673
O12	O	1.261181	0.416845	0.602673
O13	O	0.959704	-0.083087	0.088157
O14	O	1.459704	0.416913	0.588157
Cu15	Cu	0.862407	-0.098354	0.091829
Cu16	Cu	1.362407	0.401646	0.591829
Cu17	Cu	0.836957	0.098939	0.138284
Cu18	Cu	1.336957	0.598939	0.638284
O19	O	0.886859	-0.083111	0.221147
O20	O	1.386859	0.416889	0.721147
C21	C	0.724425	0.000250	0.121845
C22	C	1.224425	0.500250	0.621845
C23	C	0.646965	0.000224	0.120435
C24	C	1.146965	0.500224	0.620435
N25	N	0.880312	-0.237119	0.059154
N26	N	1.380312	0.262881	0.559154
C27	C	0.622290	0.000246	0.198476
C28	C	1.122290	0.500246	0.698476
C29	C	0.549503	0.000257	0.197159
C30	C	1.049503	0.500257	0.697159
C31	C	0.501391	0.000266	0.117803
C32	C	1.001391	0.500266	0.617803
C33	C	0.526074	0.000238	0.039751
C34	C	1.026074	0.500238	0.539751
C35	C	0.598861	0.000217	0.041067
C36	C	1.098861	0.500217	0.541067
C37	C	0.369577	0.058741	0.069187
C38	C	0.869577	0.558741	0.569187
C39	C	0.296791	0.058768	0.067876
C40	C	0.796791	0.558768	0.567876
C41	C	0.276891	0.000326	0.113740
C42	C	0.776891	0.500326	0.613740
C43	C	0.329787	-0.058131	0.160933
C44	C	0.829787	0.441869	0.660933
C45	C	0.402574	-0.058152	0.162249
C46	C	0.902574	0.441848	0.662249
C47	C	0.422464	0.000288	0.116367
C48	C	0.922464	0.500288	0.616367
C49	C	0.173294	0.000359	0.190358
C50	C	0.673294	0.500359	0.690358
C51	C	0.100506	0.000364	0.189038
C52	C	0.600506	0.500364	0.689038
C53	C	0.077076	0.000354	0.031629
C54	C	0.577076	0.500354	0.531629
C55	C	0.149864	0.000340	0.032950
C56	C	0.649864	0.500340	0.532950
C57	C	0.197968	0.000347	0.112318
C58	C	0.697968	0.500347	0.612318
C59	C	0.766442	-0.604806	0.266913
C60	C	1.266442	-0.104806	0.766913
C61	C	0.780011	-0.709823	0.242168
C62	C	1.280011	-0.209823	0.742168
C63	C	0.844545	-0.709763	0.124450
C64	C	1.344545	-0.209763	0.624450
C65	C	0.830978	-0.604744	0.149182
C66	C	1.330978	-0.104744	0.649182
C67	C	0.791927	-0.552273	0.220415
C68	C	1.291927	-0.052273	0.720415
C69	C	0.856463	-0.552211	0.102684
C70	C	1.356463	-0.052211	0.602684
C71	C	0.842901	-0.447201	0.127418
C72	C	1.342901	0.052799	0.627418
C73	C	0.803853	-0.394723	0.198650
C74	C	1.303853	0.105277	0.698650
C75	C	0.778365	-0.447263	0.245149
C76	C	1.278365	0.052737	0.745149
C77	C	0.895518	-0.604684	0.031455
C78	C	1.395518	-0.104684	0.531455
C79	C	0.921004	-0.552151	-0.015043
C80	C	1.421004	-0.052151	0.484957
C81	C	0.907437	-0.447139	0.009686
C82	C	1.407437	0.052861	0.509686
C83	C	0.868389	-0.394662	0.080918
C84	C	1.368389	0.105338	0.580918
C85	C	0.932925	-0.394600	-0.036813
C86	C	1.432925	0.105400	0.463187
C87	C	0.919363	-0.289590	-0.012079
C88	C	1.419363	0.210410	0.487921
C89	C	0.854827	-0.289651	0.105652
C90	C	1.354827	0.210349	0.605652
C91	C	0.974939	0.000338	0.108269
C92	C	1.474939	0.500338	0.608269
C93	C	1.052398	0.000371	0.109680
C94	C	1.552398	0.500371	0.609680
C95	C	0.814634	0.000281	-0.042846
C96	C	1.314634	0.500281	0.457154
C97	C	0.788907	0.000277	-0.138705
C98	C	1.288907	0.500277	0.361295
N99	N	0.819056	0.237705	0.170952
N100	N	1.319056	0.737705	0.670952
C101	C	0.692058	0.000250	-0.263282
C102	C	1.192058	0.500250	0.236718
C103	C	0.716239	0.000254	-0.173209
C104	C	1.216239	0.500254	0.326791
C105	C	0.837425	0.000291	-0.194269
C106	C	1.337425	0.500291	0.305731
C107	C	0.813254	0.000283	-0.284347
C108	C	1.313254	0.500283	0.215653
C109	C	0.740570	0.000263	-0.318845
C110	C	1.240570	0.500263	0.181155
C111	C	0.861767	0.000295	-0.339910
C112	C	1.361767	0.500295	0.160090
C113	C	0.837598	0.000292	-0.429979
C114	C	1.337598	0.500292	0.070021
C115	C	0.764916	0.000276	-0.464484
C116	C	1.264916	0.500276	0.035516
C117	C	0.716401	0.000260	-0.408914
C118	C	1.216401	0.500260	0.091086
C119	C	0.934450	0.000322	-0.305408
C120	C	1.434450	0.500322	0.194592
C121	C	0.982962	0.000335	-0.360971
C122	C	1.482962	0.500335	0.139029
C123	C	0.958794	0.000324	-0.451043
C124	C	1.458794	0.500324	0.048957
C125	C	0.886113	0.000308	-0.485548
C126	C	1.386113	0.500308	0.014452
C127	C	1.007309	0.000340	-0.506613
C128	C	1.507309	0.500340	-0.006613
C129	C	0.983140	0.000336	-0.596682
C130	C	1.483140	0.500336	-0.096682
C131	C	0.861943	0.000304	-0.575617
C132	C	1.361943	0.500304	-0.075617
C133	C	0.884730	0.000307	0.272959
C134	C	1.384730	0.500307	0.772959
C135	C	0.910456	0.000317	0.368820
C136	C	1.410456	0.500317	0.868820
H137	H	0.529410	0.000272	0.260711
H138	H	1.029410	0.500272	0.760711
O139	O	0.391028	0.121782	0.019711
O140	O	0.891028	0.621782	0.519711
H141	H	0.424466	0.072477	-0.032012
H142	H	0.924466	0.572477	0.467988
O143	O	0.625474	0.000193	-0.043113
O144	O	1.125474	0.500193	0.456887
H145	H	0.684171	0.000172	-0.028866
H146	H	1.184171	0.500172	0.471134
O147	O	0.946817	-0.232908	-0.062246
O148	O	1.446817	0.267092	0.437754
H149	H	0.983600	-0.185030	-0.014742
H150	H	1.483600	0.314970	0.485258
O151	O	0.674171	0.000246	0.284078
O152	O	1.174171	0.500246	0.784078
H153	H	0.728931	0.000235	0.271887
H154	H	1.228931	0.500235	0.771887
O155	O	0.459612	-0.121222	0.213133
O156	O	0.959612	0.378778	0.713133
H157	H	0.492494	-0.071953	0.266059
H158	H	0.992494	0.428047	0.766059
O159	O	0.886667	-0.766359	0.047626
O160	O	1.386667	-0.266359	0.547626
H161	H	0.858121	-0.746209	-0.014919
H162	H	1.358121	-0.246209	0.485081
O163	O	0.025194	0.000364	-0.053967
O164	O	0.525194	0.500364	0.446033
H165	H	-0.029567	0.000388	-0.041771
H166	H	0.470433	0.500388	0.458229
H167	H	0.657218	0.000221	-0.437010
H168	H	1.157218	0.500221	0.062990
H169	H	1.022643	0.000352	-0.641922
H170	H	1.522643	0.500352	-0.141922
H171	H	0.746559	-0.404540	0.303148
H172	H	1.246559	0.095460	0.803148
O173	O	0.239751	0.121816	0.016972
O174	O	0.739751	0.621816	0.516972
H175	H	0.204729	0.176730	0.064230
H176	H	0.704729	0.676730	0.564230
O177	O	0.073894	0.000380	0.273216
O178	O	0.573894	0.500380	0.773216
H179	H	0.015201	0.000379	0.258966
H180	H	0.515201	0.500379	0.758966
O181	O	0.474187	0.000247	-0.045844
O182	O	0.974187	0.500247	0.454156
H183	H	0.419426	0.000276	-0.033647
H184	H	0.919426	0.500276	0.466353
H185	H	0.169952	0.000327	-0.030598
H186	H	0.669952	0.500327	0.469402
H187	H	0.676729	0.000242	-0.127971
H188	H	1.176729	0.500242	0.372029
O189	O	1.085699	0.000375	-0.469390
O190	O	1.585699	0.500375	0.030610
H191	H	1.115372	0.000392	-0.523158
H192	H	1.615372	0.500392	-0.023158
O193	O	0.783550	0.000265	-0.612843
O194	O	1.283550	0.500265	-0.112843
H195	H	0.760870	0.068252	-0.637371
H196	H	1.260870	0.568252	-0.137371
O197	O	0.613663	0.000227	-0.300505
O198	O	1.113663	0.500227	0.199495
H199	H	0.583985	0.000222	-0.246737
H200	H	1.083985	0.500222	0.253263
O201	O	0.724321	-0.548198	0.343743
O202	O	1.224321	-0.048198	0.843743
H203	H	0.708878	-0.602366	0.371927
H204	H	1.208878	-0.102366	0.871927
O205	O	0.960520	0.000326	-0.208262
O206	O	1.460520	0.500326	0.291738
H207	H	1.001827	-0.067657	-0.205077
H208	H	1.501827	0.432343	0.294923
H209	H	0.792814	-0.309217	0.218789
H210	H	1.292814	0.190783	0.718789
O211	O	0.308339	-0.121179	0.210400
O212	O	0.808339	0.378821	0.710400
H213	H	0.248840	-0.111358	0.201549
H214	H	0.748840	0.388642	0.701549
H215	H	0.745238	0.000278	-0.537822
H216	H	1.245238	0.500278	-0.037822
O217	O	0.812698	-0.233030	0.182472
O218	O	1.312698	0.266970	0.682472
H219	H	0.841238	-0.253154	0.245030
H220	H	1.341238	0.246846	0.745030
O221	O	0.915818	0.000309	-0.157060
O222	O	1.415818	0.500309	0.342940
H223	H	0.924477	0.000304	-0.085096
H224	H	1.424477	0.500304	0.414904
H225	H	0.759255	-0.752589	0.280040
H226	H	1.259255	-0.252589	0.780040
H227	H	1.042142	0.000346	-0.332871
H228	H	1.542142	0.500346	0.167129
H229	H	0.964727	-0.437335	-0.094806
H230	H	1.464727	0.062665	0.405194
O231	O	0.910155	-0.717946	0.004779
O232	O	1.410155	-0.217946	0.504779
H233	H	0.886254	-0.745646	-0.066225
H234	H	1.386254	-0.245646	0.433775
O235	O	0.225188	0.000346	0.275952
O236	O	0.725188	0.500346	0.775952
H237	H	0.195801	0.000344	0.329995
H238	H	0.695801	0.500344	0.829995
O239	O	0.963119	-0.608745	-0.091873
O240	O	1.463119	-0.108745	0.408127
H241	H	0.968266	-0.690591	-0.101266
H242	H	1.468266	-0.190591	0.398734
