data_functionalizedCrystal
_audit_creation_method	'MofGen! by Chris Wilmer'
_symmetry_space_group_name_H-M	'P1'
_symmetry_Int_Tables_number	1
_symmetry_cell_setting	triclinic
loop_
_symmetry_equiv_pos_as_xyz
  x,y,z
_cell_length_a	14.044220
_cell_length_b	10.654550
_cell_length_c	9.730223
_cell_angle_alpha	90.000043
_cell_angle_beta	89.994583
_cell_angle_gamma	91.163096
loop_
_atom_site_label
_atom_site_type_symbol
_atom_site_fract_x
_atom_site_fract_y
_atom_site_fract_z
O1	O	0.133232	-1.681228	-0.114191
O2	O	0.633232	-1.181228	0.385809
O3	O	0.145925	-1.317025	-0.114216
O4	O	0.645925	-0.817025	0.385784
O5	O	0.001558	-1.493659	-0.114190
O6	O	0.501558	-0.993659	0.385810
O7	O	0.277599	-1.504593	-0.114217
O8	O	0.777599	-1.004593	0.385783
O9	O	0.001554	-1.493647	0.114390
O10	O	0.501554	-0.993647	0.614390
O11	O	0.145921	-1.317012	0.114364
O12	O	0.645921	-0.817012	0.614364
O13	O	0.133228	-1.681215	0.114389
O14	O	0.633228	-1.181215	0.614389
Zn15	Zn	0.139574	-1.499111	0.150668
Zn16	Zn	0.639574	-0.999111	0.650668
Zn17	Zn	0.139579	-1.499128	-0.150496
Zn18	Zn	0.639579	-0.999128	0.349504
O19	O	0.277595	-1.504580	0.114363
O20	O	0.777595	-1.004580	0.614363
C21	C	-0.033790	-1.488867	0.000100
C22	C	0.466210	-0.988867	0.500100
C23	C	-0.139110	-1.474592	0.000101
C24	C	0.360890	-0.974592	0.500101
C25	C	0.144991	-1.270127	0.000070
C26	C	0.644991	-0.770127	0.500070
C27	C	0.142202	-1.130403	0.000061
C28	C	0.642202	-0.630403	0.500061
C29	C	0.134162	-1.728113	0.000099
C30	C	0.634162	-1.228113	0.500099
C31	C	0.136950	-1.867836	0.000100
C32	C	0.636950	-1.367836	0.500100
C33	C	-0.331943	-1.448493	0.000079
C34	C	0.168057	-0.948493	0.500079
C35	C	-0.388910	-1.549741	0.000082
C36	C	0.111090	-1.049741	0.500082
C37	C	-0.496209	-1.535219	0.000070
C38	C	0.003791	-1.035219	0.500070
C39	C	-0.224634	-1.463013	0.000091
C40	C	0.275366	-0.963013	0.500091
C41	C	0.312943	-1.509372	0.000070
C42	C	0.812943	-1.009372	0.500070
C43	C	0.418262	-1.523648	0.000060
C44	C	0.918262	-1.023648	0.500060
N45	N	0.139570	-1.499109	0.356205
N46	N	0.639570	-0.999109	0.856205
C47	C	0.227204	-1.059459	0.000057
C48	C	0.727204	-0.559459	0.500057
C49	C	0.224578	-0.928175	0.000081
C50	C	0.724578	-0.428175	0.500081
C51	C	0.051942	-0.938790	0.000108
C52	C	0.551942	-0.438790	0.500108
C53	C	0.054569	-1.070072	0.000094
C54	C	0.554569	-0.570072	0.500094
N55	N	0.139576	-1.499140	-0.356032
N56	N	0.639576	-0.999140	0.143968
C57	C	0.075671	-1.577355	0.428142
C58	C	0.575671	-1.077355	0.928142
C59	C	0.075671	-1.577367	0.572025
C60	C	0.575671	-1.077367	1.072025
C61	C	0.203477	-1.420885	0.572021
C62	C	0.703477	-0.920885	1.072021
C63	C	0.203471	-1.420867	0.428140
C64	C	0.703471	-0.920867	0.928140
H65	H	-0.357098	-1.647328	-0.000004
H66	H	0.142902	-1.147328	0.499996
C67	C	0.273766	-1.334796	0.349004
C68	C	0.773766	-0.834796	0.849004
H69	H	0.311834	-1.288214	0.412450
H70	H	0.811834	-0.788214	0.912450
H71	H	0.239271	-1.278657	0.292891
H72	H	0.739271	-0.778657	0.792891
H73	H	0.313571	-1.384427	0.292861
H74	H	0.813571	-0.884427	0.792861
H75	H	-0.019406	-0.889652	0.000143
H76	H	0.480594	-0.389652	0.500143
C77	C	-0.374913	-1.316670	0.000081
C78	C	0.125087	-0.816670	0.500081
H79	H	-0.442439	-1.324082	0.000089
H80	H	0.057561	-0.824082	0.500089
H81	H	-0.354407	-1.272295	-0.079624
H82	H	0.145593	-0.772295	0.420376
H83	H	-0.354420	-1.272313	0.079808
H84	H	0.145580	-0.772313	0.579808
C85	C	0.323596	-1.125820	0.000036
C86	C	0.823596	-0.625820	0.500036
H87	H	0.373842	-1.064761	0.000049
H88	H	0.873842	-0.564761	0.500049
H89	H	0.328212	-1.176806	-0.079680
H90	H	0.828212	-0.676806	0.420320
H91	H	0.328207	-1.176818	0.079752
H92	H	0.828207	-0.676818	0.579752
H93	H	0.255506	-1.357184	0.630605
H94	H	0.755506	-0.857184	1.130605
C95	C	0.318079	-0.850142	0.000067
C96	C	0.818079	-0.350142	0.500067
H97	H	0.370643	-0.904879	0.000035
H98	H	0.870643	-0.404879	0.500035
H99	H	0.320650	-0.798715	0.079782
H100	H	0.820650	-0.298715	0.579782
H101	H	0.320638	-0.798702	-0.079649
H102	H	0.820638	-0.298702	0.420351
H103	H	-0.014653	-1.127837	0.000101
H104	H	0.485347	-0.627837	0.500101
C105	C	0.005374	-1.663404	0.349017
C106	C	0.505374	-1.163404	0.849017
H107	H	-0.032688	-1.709997	0.412473
H108	H	0.467312	-1.209997	0.912473
H109	H	0.039858	-1.719534	0.292871
H110	H	0.539858	-1.219534	0.792871
H111	H	-0.034436	-1.613758	0.292910
H112	H	0.465564	-1.113758	0.792910
C113	C	0.005387	-1.663443	0.651151
C114	C	0.505387	-1.163443	1.151151
H115	H	-0.032664	-1.710041	0.587697
H116	H	0.467336	-1.210041	1.087697
H117	H	-0.034421	-1.613827	0.707294
H118	H	0.465579	-1.113827	1.207294
H119	H	0.039888	-1.719586	0.707262
H120	H	0.539888	-1.219586	1.207262
