data_functionalizedCrystal
_audit_creation_method	'MofGen! by Chris Wilmer'
_symmetry_space_group_name_H-M	'P1'
_symmetry_Int_Tables_number	1
_symmetry_cell_setting	triclinic
loop_
_symmetry_equiv_pos_as_xyz
  x,y,z
_cell_length_a	10.654550
_cell_length_b	10.654551
_cell_length_c	9.730223
_cell_angle_alpha	90.001469
_cell_angle_beta	89.996251
_cell_angle_gamma	84.485132
loop_
_atom_site_label
_atom_site_type_symbol
_atom_site_fract_x
_atom_site_fract_y
_atom_site_fract_z
O1	O	1.667835	0.176393	-0.114394
O2	O	1.302356	0.193199	-0.114371
O3	O	1.493498	0.002057	-0.114383
O4	O	1.476693	0.367535	-0.114381
O5	O	1.493496	0.002062	0.114197
O6	O	1.302354	0.193204	0.114209
O7	O	1.667832	0.176398	0.114186
Zn8	Zn	1.485093	0.184802	0.150490
Zn9	Zn	1.485096	0.184795	-0.150674
O10	O	1.476691	0.367540	0.114199
C11	C	1.255557	0.191968	-0.000078
C12	C	1.116114	0.188276	-0.000069
C13	C	1.036629	0.300817	-0.000089
C14	C	0.905608	0.297341	-0.000113
C15	C	0.933570	0.068771	-0.000104
C16	C	1.064589	0.072249	-0.000070
C17	C	1.088154	0.416844	-0.000088
C18	C	1.008667	0.529395	-0.000109
C19	C	0.877647	0.525918	-0.000133
C20	C	0.826112	0.409891	-0.000136
C21	C	1.492263	-0.044739	-0.000096
C22	C	1.488570	-0.184182	-0.000105
C23	C	1.486839	-0.249696	-0.124702
C24	C	1.483359	-0.380717	-0.124695
C25	C	1.483346	-0.380697	0.124515
C26	C	1.486817	-0.249678	0.124507
C27	C	1.488592	-0.184200	-0.249314
C28	C	1.486862	-0.249715	-0.373921
C29	C	1.483382	-0.380735	-0.373914
C30	C	1.481631	-0.446241	-0.249301
C31	C	1.714632	0.177629	-0.000109
C32	C	1.854075	0.181321	-0.000127
C33	C	1.477926	0.414336	-0.000091
C34	C	1.481619	0.553779	-0.000091
N35	N	1.485100	0.184805	0.356026
N36	N	1.485099	0.184782	-0.356211
C37	C	1.569760	0.100197	0.427947
C38	C	1.569756	0.100181	0.571830
C39	C	1.400430	0.269395	0.571859
C40	C	1.400428	0.269403	0.427979
C41	C	1.654431	0.015599	0.355994
C42	C	1.739099	-0.069016	0.427915
C43	C	1.739095	-0.069031	0.571798
C44	C	1.654425	0.015568	0.643760
H45	H	1.050636	0.623860	-0.000095
O46	O	0.800613	0.635360	-0.000207
C47	C	0.874192	0.738506	-0.000163
H48	H	0.971695	0.707476	-0.043416
H49	H	0.883801	0.774024	0.109499
C50	C	0.690119	0.883227	-0.036698
C51	C	0.809871	0.845117	-0.089833
H52	H	0.650441	0.948993	-0.092004
H53	H	0.640546	0.813737	-0.036723
H54	H	0.698143	0.912817	0.054686
H55	H	0.801843	0.815514	-0.181208
H56	H	0.859441	0.914606	-0.089825
H57	H	1.481961	-0.434073	-0.475375
H58	H	1.654444	0.015606	0.238837
H59	H	1.808028	-0.137901	0.369316
O60	O	1.141628	-0.037189	-0.000124
C61	C	1.068059	-0.140343	-0.000113
H62	H	0.970576	-0.109324	-0.043408
H63	H	1.058399	-0.175854	0.109544
C64	C	1.252162	-0.285051	-0.036571
C65	C	1.132434	-0.246956	-0.089758
H66	H	1.291872	-0.350818	-0.091862
H67	H	1.301728	-0.215555	-0.036573
H68	H	1.244095	-0.314635	0.054809
H69	H	1.140503	-0.217358	-0.181129
H70	H	1.082870	-0.316449	-0.089773
H71	H	0.719425	0.407069	-0.000134
H72	H	1.654421	0.015540	0.760919
O73	O	1.318322	0.351768	0.358165
C74	C	1.339787	0.476286	0.393352
H75	H	1.440338	0.477839	0.432902
H76	H	1.270493	0.512526	0.476870
C77	C	1.197515	0.559343	0.216964
C78	C	1.321016	0.561252	0.265530
H79	H	1.185931	0.611757	0.138120
H80	H	1.183049	0.475453	0.193261
H81	H	1.139783	0.589541	0.286574
H82	H	1.378744	0.531040	0.195926
H83	H	1.335492	0.645139	0.289218
H84	H	0.891600	-0.025693	-0.000129
H85	H	1.478779	-0.552924	-0.249306
O86	O	1.821452	-0.151271	0.641450
C87	C	1.896156	-0.225955	0.547084
H88	H	1.898017	-0.174438	0.444529
H89	H	1.854577	-0.319635	0.531770
C90	C	2.029126	-0.313853	0.729185
C91	C	2.031420	-0.250574	0.603228
H92	H	2.112562	-0.329045	0.763819
H93	H	1.978794	-0.263541	0.792763
H94	H	1.994471	-0.391913	0.716407
H95	H	2.066060	-0.172509	0.616012
H96	H	2.081761	-0.300873	0.539654
O97	O	1.488376	-0.185937	-0.494881
C98	C	1.381785	-0.096899	-0.502343
H99	H	1.346120	-0.072827	-0.394154
H100	H	1.304410	-0.138109	-0.563805
C101	C	1.461855	-0.006054	-0.706494
C102	C	1.418057	0.023520	-0.573614
H103	H	1.484226	0.068225	-0.750463
H104	H	1.533666	-0.066043	-0.701471
H105	H	1.397368	-0.040398	-0.757695
H106	H	1.482548	0.057848	-0.522410
H107	H	1.346258	0.083518	-0.578630
O108	O	1.318315	0.351530	0.641972
C109	C	1.336451	0.333359	0.784387
H110	H	1.435891	0.287345	0.804022
H111	H	1.264824	0.269704	0.825220
C112	C	1.196558	0.518171	0.834156
C113	C	1.318696	0.461666	0.858272
H114	H	1.185600	0.597315	0.879735
H115	H	1.184334	0.530412	0.738209
H116	H	1.136883	0.465112	0.868183
H117	H	1.378368	0.514717	0.824230
H118	H	1.330929	0.449437	0.954216
H119	H	1.194836	0.419687	-0.000075
H120	H	1.491429	-0.077517	-0.249334
H121	H	1.481922	-0.434042	0.225969
H122	H	1.488200	-0.196331	0.225964
