data_functionalizedCrystal
_audit_creation_method	'MofGen! by Chris Wilmer'
_symmetry_space_group_name_H-M	'P1'
_symmetry_Int_Tables_number	1
_symmetry_cell_setting	triclinic
loop_
_symmetry_equiv_pos_as_xyz
  x,y,z
_cell_length_a	8.559649
_cell_length_b	8.597314
_cell_length_c	7.088929
_cell_angle_alpha	76.046591
_cell_angle_beta	84.655815
_cell_angle_gamma	102.374712
loop_
_atom_site_label
_atom_site_type_symbol
_atom_site_fract_x
_atom_site_fract_y
_atom_site_fract_z
O1	O	0.219497	-2.074456	0.182687
O2	O	0.719497	-1.574456	0.682687
O3	O	0.245582	-1.606577	0.105624
O4	O	0.745582	-1.106577	0.605624
O5	O	-0.000120	-1.881737	0.150947
O6	O	0.499880	-1.381737	0.650947
O7	O	0.465199	-1.799296	0.137364
O8	O	0.965199	-1.299296	0.637364
O9	O	-0.033030	-1.918518	0.474980
O10	O	0.466970	-1.418518	0.974980
O11	O	0.212672	-1.643359	0.429658
O12	O	0.712672	-1.143359	0.929658
O13	O	0.186587	-2.111237	0.506721
O14	O	0.686587	-1.611237	1.006721
Cu15	Cu	0.196625	-1.880656	0.497776
Cu16	Cu	0.696625	-1.380656	0.997776
Cu17	Cu	0.235544	-1.837158	0.114569
Cu18	Cu	0.735544	-1.337158	0.614569
O19	O	0.432289	-1.836077	0.461398
O20	O	0.932289	-1.336077	0.961398
C21	C	0.228158	-1.565624	0.257866
C22	C	0.728158	-1.065624	0.757866
C23	C	0.225252	-1.388799	0.228742
C24	C	0.725252	-0.888799	0.728742
C25	C	-0.076113	-1.906375	0.313989
C26	C	0.423887	-1.406375	0.813989
C27	C	-0.253518	-1.924970	0.317041
C28	C	0.246482	-1.424970	0.817041
C29	C	0.508283	-1.811439	0.298351
C30	C	1.008283	-1.311439	0.798351
C31	C	0.685689	-1.792842	0.295286
C32	C	1.185689	-1.292842	0.795286
N33	N	0.169250	-1.911262	0.767305
N34	N	0.669250	-1.411262	1.267305
C35	C	0.204009	-1.152191	0.354482
C36	C	0.704009	-0.652191	0.854482
C37	C	0.206911	-1.329018	0.383616
C38	C	0.706911	-0.829018	0.883616
N39	N	0.262907	-1.806566	-0.154958
N40	N	0.762907	-1.306566	0.345042
H41	H	0.193419	-1.413116	0.538499
H42	H	0.693419	-0.913116	1.038499
H43	H	0.072199	-2.019784	0.866836
H44	H	0.572199	-1.519784	1.366836
H45	H	0.238733	-1.304695	0.073849
H46	H	0.738733	-0.804695	0.573849
H47	H	0.359962	-1.698061	0.745523
H48	H	0.859962	-1.198061	1.245523
H49	H	-0.337203	-2.052330	0.338033
H50	H	0.162797	-1.552330	0.838033
H51	H	-0.230638	-1.665493	0.274317
H52	H	0.269362	-1.165493	0.774317
