data_functionalizedCrystal
_audit_creation_method	'MofGen! by Chris Wilmer'
_symmetry_space_group_name_H-M	'P1'
_symmetry_Int_Tables_number	1
_symmetry_cell_setting	triclinic
loop_
_symmetry_equiv_pos_as_xyz
  x,y,z
_cell_length_a	16.120490
_cell_length_b	18.101397
_cell_length_c	16.120297
_cell_angle_alpha	92.869027
_cell_angle_beta	90.129683
_cell_angle_gamma	87.112663
loop_
_atom_site_label
_atom_site_type_symbol
_atom_site_fract_x
_atom_site_fract_y
_atom_site_fract_z
Zn1	Zn	1.247471	-0.375252	-0.534508
Zn2	Zn	1.254429	-0.493146	-0.395442
Zn3	Zn	1.115459	-0.362732	-0.388430
Zn4	Zn	1.108384	-0.492457	-0.527415
O5	O	1.181436	-0.430897	-0.461449
O6	O	1.364761	-0.396420	-0.521964
O7	O	1.241867	-0.470895	-0.278147
O8	O	1.133020	-0.260764	-0.407842
O9	O	1.369873	-0.483035	-0.419793
O10	O	1.230008	-0.269962	-0.515165
O11	O	1.139767	-0.375080	-0.272995
O12	O	0.998154	-0.374412	-0.400964
O13	O	1.120962	-0.481861	-0.644721
O14	O	0.992956	-0.469720	-0.503075
O15	O	1.223148	-0.395751	-0.649932
O16	O	1.235007	-0.596684	-0.412915
O17	O	1.127709	-0.596177	-0.509874
C18	C	0.965382	-0.420633	-0.450489
C19	C	0.872952	-0.416261	-0.445821
C20	C	0.659993	-0.453570	-0.485668
C21	C	0.703727	-0.408285	-0.437296
C22	C	0.797893	-0.412724	-0.442040
C23	C	0.565818	-0.449132	-0.480924
C24	C	1.181367	-0.623302	-0.461405
C25	C	1.181412	-0.705619	-0.461418
C26	C	1.181514	-1.004718	-0.461499
C27	C	1.248853	-0.973665	-0.400313
C28	C	1.249066	-0.888064	-0.400491
C29	C	1.181463	-0.856331	-0.461458
C30	C	1.200776	-0.892215	-0.550311
C31	C	1.201290	-0.977868	-0.549985
C32	C	1.094654	-0.968092	-0.434582
C33	C	1.095187	-0.882379	-0.432648
C34	C	1.181433	-0.772470	-0.461440
C35	C	1.181546	-1.088580	-0.461523
C36	C	1.398333	-0.441201	-0.472452
C37	C	1.490762	-0.445592	-0.477140
C38	C	1.170489	-0.440126	-0.678343
C39	C	1.165824	-0.444059	-0.770770
C40	C	1.181527	-0.237742	-0.461512
C41	C	1.181566	-0.155431	-0.461539
C42	C	1.157277	-0.451222	-0.939994
C43	C	1.205758	-0.410358	-0.983764
C44	C	1.201003	-0.414343	-1.077926
C45	C	1.162032	-0.447237	-0.845823
C46	C	1.192388	-0.421652	-0.245401
C47	C	1.197214	-0.417518	-0.152983
H48	H	0.670448	-0.366182	-0.392319
F49	F	1.026549	-0.853741	-0.486163
H50	H	0.693269	-0.495670	-0.530640
F51	F	1.098363	-0.500860	-0.983446
F52	F	1.233987	-0.996095	-0.314138
F53	F	1.233903	-0.856106	-0.314568
H54	H	1.312937	-0.998836	-0.418286
H55	H	1.313498	-0.871248	-0.418653
F56	F	1.284104	-1.008958	-0.579109
H57	H	1.154149	-0.998603	-0.597385
F58	F	1.138373	-0.865564	-0.611751
F59	F	1.282628	-0.869131	-0.579812
H60	H	1.076226	-0.986041	-0.370682
F61	F	1.076043	-0.851180	-0.347154
H62	H	1.044536	-0.988101	-0.479092
H63	H	1.250836	-0.372379	-0.950518
