data_functionalizedCrystal
_audit_creation_method	'MofGen! by Chris Wilmer'
_symmetry_space_group_name_H-M	'P1'
_symmetry_Int_Tables_number	1
_symmetry_cell_setting	triclinic
loop_
_symmetry_equiv_pos_as_xyz
  x,y,z
_cell_length_a	16.625548
_cell_length_b	16.625546
_cell_length_c	12.759387
_cell_angle_alpha	89.964768
_cell_angle_beta	89.978560
_cell_angle_gamma	90.023536
loop_
_atom_site_label
_atom_site_type_symbol
_atom_site_fract_x
_atom_site_fract_y
_atom_site_fract_z
Zn1	Zn	1.232687	-0.320939	-0.594037
Zn2	Zn	1.232589	-0.455793	-0.418343
Zn3	Zn	1.097847	-0.320981	-0.418366
Zn4	Zn	1.097820	-0.455736	-0.593974
O5	O	1.165236	-0.388362	-0.506180
O6	O	1.345507	-0.338834	-0.570747
O7	O	1.214685	-0.437952	-0.271325
O8	O	1.115787	-0.208143	-0.441705
O9	O	1.345434	-0.437911	-0.441665
O10	O	1.214853	-0.208112	-0.570770
O11	O	1.115691	-0.338906	-0.271342
O12	O	0.985011	-0.338850	-0.441645
O13	O	1.115740	-0.437813	-0.741004
O14	O	0.984991	-0.437854	-0.570663
O15	O	1.214827	-0.338778	-0.741050
O16	O	1.214658	-0.568618	-0.441604
O17	O	1.115644	-0.568576	-0.570640
C18	C	0.955745	-0.388351	-0.506151
C19	C	0.866124	-0.388365	-0.506163
C20	C	0.537948	-0.388370	-0.506208
C21	C	0.629257	-0.388367	-0.506192
C22	C	0.702033	-0.388368	-0.506185
C23	C	0.793347	-0.388364	-0.506170
C24	C	1.165159	-0.597853	-0.506136
C25	C	1.165201	-0.687474	-0.506152
C26	C	1.165341	-1.015650	-0.506262
C27	C	1.165299	-0.924341	-0.506234
C28	C	1.165270	-0.851565	-0.506207
C29	C	1.165230	-0.760250	-0.506180
C30	C	1.375545	-0.388374	-0.506210
C31	C	1.465166	-0.388379	-0.506223
C32	C	1.165291	-0.388284	-0.780214
C33	C	1.165315	-0.388251	-0.896990
C34	C	1.165334	-0.178053	-0.506247
C35	C	1.165376	-0.088432	-0.506276
C36	C	1.268545	-0.285070	-1.116482
C37	C	1.320124	-0.233523	-1.061643
C38	C	1.320102	-0.233549	-0.951922
C39	C	1.268496	-0.285130	-0.897036
C40	C	1.216917	-0.336677	-0.951874
C41	C	1.216944	-0.336643	-1.061598
C42	C	1.113736	-0.439798	-0.951829
C43	C	1.113754	-0.439769	-1.061550
C44	C	1.062130	-0.491379	-0.896943
C45	C	1.010546	-0.542923	-0.951781
C46	C	1.010570	-0.542894	-1.061509
C47	C	1.062174	-0.491316	-1.116389
C48	C	1.165227	-0.388381	-0.233212
C49	C	1.165359	-0.388187	-0.116436
H50	H	1.268559	-0.285032	-1.205823
H51	H	0.968537	-0.584920	-0.907084
H52	H	1.062119	-0.491401	-0.807601
H53	H	0.968571	-0.584873	-1.106152
H54	H	1.062194	-0.491281	-1.205730
H55	H	1.362142	-0.191528	-1.106344
F56	F	1.375001	-0.178692	-0.893557
H57	H	1.268489	-0.285155	-0.807694
