data_functionalizedCrystal
_audit_creation_method	'MofGen! by Chris Wilmer'
_symmetry_space_group_name_H-M	'P1'
_symmetry_Int_Tables_number	1
_symmetry_cell_setting	triclinic
loop_
_symmetry_equiv_pos_as_xyz
  x,y,z
_cell_length_a	11.792241
_cell_length_b	11.026607
_cell_length_c	9.482900
_cell_angle_alpha	101.363848
_cell_angle_beta	99.398500
_cell_angle_gamma	83.610284
loop_
_atom_site_label
_atom_site_type_symbol
_atom_site_fract_x
_atom_site_fract_y
_atom_site_fract_z
O1	O	0.461983	-1.632118	-0.120906
O2	O	0.961983	-1.132118	0.379094
O3	O	0.407791	-1.278456	-0.120907
O4	O	0.907791	-0.778456	0.379093
O5	O	0.271422	-1.463868	-0.120897
O6	O	0.771422	-0.963868	0.379103
O7	O	0.598353	-1.446706	-0.120917
O8	O	1.098353	-0.946706	0.379083
O9	O	0.299264	-1.426207	0.120894
O10	O	0.799264	-0.926207	0.620894
O11	O	0.435633	-1.240795	0.120883
O12	O	0.935633	-0.740795	0.620883
O13	O	0.489825	-1.594458	0.120884
O14	O	0.989825	-1.094458	0.620884
Cu15	Cu	0.465271	-1.414188	0.142961
Cu16	Cu	0.965271	-0.914188	0.642961
Cu17	Cu	0.432345	-1.458726	-0.142984
Cu18	Cu	0.932345	-0.958726	0.357016
O19	O	0.626195	-1.409046	0.120873
O20	O	1.126195	-0.909046	0.620873
C21	C	0.242838	-1.443960	-0.000002
C22	C	0.742838	-0.943960	0.499998
C23	C	0.116183	-1.440733	-0.000003
C24	C	0.616183	-0.940733	0.499997
C25	C	0.411715	-1.214349	-0.000012
C26	C	0.911715	-0.714349	0.499988
C27	C	0.381912	-1.079439	-0.000012
C28	C	0.881912	-0.579439	0.499988
N29	N	0.488431	-1.382871	0.344079
N30	N	0.988431	-0.882871	0.844079
C31	C	-0.115710	-1.434802	-0.000028
C32	C	0.384290	-0.934802	0.499972
C33	C	0.013331	-1.438097	-0.000014
C34	C	0.513331	-0.938097	0.499986
C35	C	0.654778	-1.428955	-0.000025
C36	C	1.154778	-0.928955	0.499975
C37	C	0.781432	-1.432183	-0.000033
C38	C	1.281432	-0.932183	0.499967
C39	C	0.485901	-1.658565	-0.000014
C40	C	0.985901	-1.158565	0.499986
C41	C	0.515703	-1.793477	-0.000024
C42	C	1.015703	-1.293477	0.499976
C43	C	0.464202	-1.006176	-0.000018
C44	C	0.964202	-0.506176	0.499982
C45	C	0.433401	-0.866739	-0.000018
C46	C	0.933401	-0.366739	0.499982
N47	N	0.409178	-1.490052	-0.344102
N48	N	0.909178	-0.990052	0.155898
C49	C	0.439169	-1.449480	0.416282
C50	C	0.939169	-0.949480	0.916282
C51	C	0.458448	-1.423433	0.583698
C52	C	0.958448	-0.923433	1.083698
H53	H	0.557456	-1.046680	-0.000015
H54	H	1.057456	-0.546680	0.499985
H55	H	0.382714	-1.525786	0.354159
H56	H	0.882714	-1.025786	0.854159
C57	C	0.534713	-1.320341	0.667607
C58	C	1.034713	-0.820341	1.167607
H59	H	0.537673	-1.316364	0.769121
H60	H	1.037673	-0.816364	1.269121
H61	H	0.503118	-1.242951	0.642754
H62	H	1.003118	-0.742951	1.142754
H63	H	0.610409	-1.338125	0.642727
H64	H	1.110409	-0.838125	1.142727
C65	C	0.332913	-1.593146	0.571999
C66	C	0.832913	-1.093146	1.071999
H67	H	0.304500	-1.631551	0.639011
H68	H	0.804500	-1.131551	1.139011
H69	H	0.377230	-1.653325	0.512601
H70	H	0.877230	-1.153325	1.012601
H71	H	0.269938	-1.558152	0.512640
H72	H	0.769938	-1.058152	1.012640
C73	C	0.307415	-0.812043	-0.000010
C74	C	0.807415	-0.312043	0.499990
H75	H	0.259782	-0.876087	0.000004
H76	H	0.759782	-0.376087	0.500004
H77	H	0.282657	-0.776283	-0.084324
H78	H	0.782657	-0.276283	0.415676
H79	H	0.302080	-0.750022	0.084322
H80	H	0.802080	-0.250022	0.584322
C81	C	0.641688	-0.848177	-0.000040
C82	C	1.141688	-0.348177	0.499960
H83	H	0.645864	-0.934720	-0.000051
H84	H	1.145864	-0.434720	0.499949
H85	H	0.688175	-0.808654	0.084270
H86	H	1.188175	-0.308654	0.584270
H87	H	0.668741	-0.834921	-0.084376
H88	H	1.168741	-0.334921	0.415624
C89	C	0.255932	-1.024737	-0.000004
C90	C	0.755932	-0.524737	0.499996
H91	H	0.208299	-1.088782	0.000010
H92	H	0.708299	-0.588782	0.500010
H93	H	0.231174	-0.988977	-0.084318
H94	H	0.731174	-0.488977	0.415682
H95	H	0.250597	-0.962717	0.084328
H96	H	0.750597	-0.462717	0.584328
C97	C	0.564692	-1.279784	0.427994
C98	C	1.064692	-0.779784	0.927994
H99	H	0.567652	-1.275807	0.529508
H100	H	1.067652	-0.775807	1.029508
H101	H	0.533098	-1.202394	0.403141
H102	H	1.033098	-0.702394	0.903141
H103	H	0.640388	-1.297568	0.403114
H104	H	1.140388	-0.797568	0.903114
