data_functionalizedCrystal
_audit_creation_method	'MofGen! by Chris Wilmer'
_symmetry_space_group_name_H-M	'P1'
_symmetry_Int_Tables_number	1
_symmetry_cell_setting	triclinic
loop_
_symmetry_equiv_pos_as_xyz
  x,y,z
_cell_length_a	17.639762
_cell_length_b	17.640280
_cell_length_c	17.640968
_cell_angle_alpha	114.317439
_cell_angle_beta	87.859627
_cell_angle_gamma	92.188400
loop_
_atom_site_label
_atom_site_type_symbol
_atom_site_fract_x
_atom_site_fract_y
_atom_site_fract_z
Zn1	Zn	1.251387	-0.022973	0.189711
Zn2	Zn	1.251326	-0.188652	0.024082
Zn3	Zn	1.106822	-0.075222	0.076170
Zn4	Zn	1.148425	-0.178090	0.179129
O5	O	1.189490	-0.116234	0.117273
O6	O	1.354945	-0.027505	0.150369
O7	O	1.214721	-0.199892	-0.081413
O8	O	1.108613	0.044096	0.117460
O9	O	1.354900	-0.149229	0.028683
O10	O	1.214824	0.082483	0.200877
O11	O	1.108554	-0.116556	-0.043144
O12	O	1.008774	-0.106314	0.107199
O13	O	1.179519	-0.131227	0.292937
O14	O	1.039340	-0.181890	0.182842
O15	O	1.255165	-0.017263	0.300711
O16	O	1.255062	-0.299639	0.018422
O17	O	1.179460	-0.291879	0.132334
C18	C	0.997204	-0.148626	0.149524
C19	C	0.914949	-0.162498	0.163336
C20	C	0.814947	-0.221489	0.222082
C21	C	0.892236	-0.208450	0.209099
C22	C	0.860376	-0.129563	0.130542
C23	C	0.783083	-0.142593	0.143522
C24	C	0.760375	-0.188557	0.189292
C25	C	0.728511	-0.109660	0.110732
C26	C	0.651224	-0.122692	0.123708
C27	C	0.628510	-0.168657	0.169473
C28	C	0.683088	-0.201589	0.202268
C29	C	0.751220	-0.063701	0.064957
C30	C	0.696648	-0.030769	0.032167
C31	C	0.619360	-0.043796	0.045148
C32	C	0.596646	-0.089760	0.090913
C33	C	0.564782	-0.010864	0.012353
C34	C	0.487495	-0.023896	0.025329
C35	C	0.519359	-0.102792	0.103889
C36	C	1.221792	-0.324892	0.068591
C37	C	1.235683	-0.414139	0.047780
C38	C	1.084312	-0.687701	0.275611
C39	C	1.097362	-0.771568	0.256030
C40	C	1.176160	-0.779549	0.137508
C41	C	1.163120	-0.695680	0.157081
C42	C	1.117194	-0.649763	0.226133
C43	C	1.196003	-0.657742	0.107603
C44	C	1.182960	-0.573881	0.127172
C45	C	1.137035	-0.527959	0.196220
C46	C	1.104152	-0.565902	0.245702
C47	C	1.241924	-0.703662	0.038548
C48	C	1.274806	-0.665724	-0.010930
C49	C	1.261768	-0.581860	0.008642
C50	C	1.215843	-0.535938	0.077689
C51	C	1.294651	-0.543917	-0.040841
C52	C	1.281608	-0.460056	-0.021272
C53	C	1.202800	-0.452077	0.097259
C54	C	1.382527	-0.083717	0.084896
C55	C	1.464787	-0.069860	0.071099
C56	C	1.221990	-0.067239	0.326784
C57	C	1.235839	-0.046359	0.416066
C58	C	1.157085	0.093246	0.166159
C59	C	1.143275	0.182513	0.186991
C60	C	1.157150	-0.164975	-0.091417
C61	C	1.143409	-0.185603	-0.180669
C62	C	1.084493	-0.274366	0.689455
C63	C	1.097521	-0.254734	0.773348
C64	C	1.176284	-0.136074	0.781433
C65	C	1.163260	-0.155694	0.697540
C66	C	1.117365	-0.224841	0.651557
C67	C	1.196132	-0.106169	0.659642
C68	C	1.183112	-0.125790	0.575755
C69	C	1.137220	-0.194936	0.529766
C70	C	1.104345	-0.244462	0.567670
C71	C	1.242032	-0.037025	0.705624
C72	C	1.274903	0.012500	0.667726
C73	C	1.261879	-0.007118	0.583839
C74	C	1.215987	-0.076263	0.537851
C75	C	1.294754	0.042409	0.545935
C76	C	1.281734	0.022788	0.462048
C77	C	1.202967	-0.095884	0.453964
H78	H	0.878876	-0.092142	0.093274
C79	C	1.033780	-0.637191	0.351563
N80	N	0.995714	-0.599150	0.408762
C81	C	0.789964	-0.272043	0.272441
N82	N	0.771147	-0.310119	0.310369
H83	H	1.070592	-0.802450	0.296335
H84	H	1.126410	-0.459677	0.212147
H85	H	1.252544	-0.771945	0.022618
C86	C	0.589772	0.039698	-0.037990
N87	N	0.608595	0.077784	-0.075905
H88	H	1.312196	-0.703122	-0.067155
H89	H	0.715149	0.006652	-0.005101
H90	H	0.664599	-0.239008	0.239548
H91	H	1.213655	-0.079776	0.818882
C92	C	1.345158	-0.594440	-0.116803
N93	N	1.383200	-0.632495	-0.174020
H94	H	0.500870	-0.140211	0.141169
H95	H	1.066951	-0.300753	0.530236
C96	C	1.053619	-0.515392	0.321654
N97	N	1.015553	-0.477351	0.378854
C98	C	1.034005	-0.350431	0.638870
N99	N	0.995981	-0.407723	0.600768
C100	C	1.226674	-0.830068	0.061550
N101	N	1.264722	-0.868119	0.004338
C102	C	0.427463	0.012333	-0.010740
N103	N	0.382246	0.039620	-0.037910
H104	H	1.165409	-0.414687	0.153493
C105	C	0.543491	-0.182991	0.183748
N106	N	0.479456	-0.193786	0.194501
C107	C	1.317788	-0.418319	-0.075695
N108	N	1.345040	-0.386883	-0.116687
C109	C	1.152479	-0.171950	0.403378
N110	N	1.114455	-0.229241	0.365276
H111	H	1.126624	-0.210912	0.461459
C112	C	1.325379	0.088566	0.718319
N113	N	1.363394	0.145863	0.756427
H114	H	1.070750	-0.295069	0.804201
C115	C	1.256351	-0.015443	0.797903
N116	N	1.267135	0.000814	0.867409
C117	C	1.345237	0.118469	0.596527
N118	N	1.383258	0.175761	0.634634
H119	H	0.814153	-0.053094	0.054393
H120	H	0.936668	-0.235269	0.235806
C121	C	1.317893	0.077269	0.420359
N122	N	1.345131	0.118305	0.388957
