data_functionalizedCrystal
_audit_creation_method	'MofGen! by Chris Wilmer'
_symmetry_space_group_name_H-M	'P1'
_symmetry_Int_Tables_number	1
_symmetry_cell_setting	triclinic
loop_
_symmetry_equiv_pos_as_xyz
  x,y,z
_cell_length_a	14.853567
_cell_length_b	12.811415
_cell_length_c	11.295483
_cell_angle_alpha	88.701575
_cell_angle_beta	85.891858
_cell_angle_gamma	83.840356
loop_
_atom_site_label
_atom_site_type_symbol
_atom_site_fract_x
_atom_site_fract_y
_atom_site_fract_z
O1	O	1.203623	0.128989	-0.112869
O2	O	0.941315	0.145188	-0.114639
O3	O	1.078071	-0.014527	-0.097376
O4	O	1.066868	0.288704	-0.130132
O5	O	1.066059	-0.000521	0.099161
O6	O	0.929304	0.159194	0.081898
O7	O	1.191611	0.142996	0.083667
Cu8	Cu	1.059361	0.152374	0.100728
Cu9	Cu	1.073566	0.135810	-0.131699
O10	O	1.054856	0.302710	0.066404
C11	C	0.901714	0.151457	-0.016294
C12	C	0.801611	0.149256	-0.016064
C13	C	0.388107	0.045086	-0.004784
C14	C	0.368590	0.234831	-0.025283
C15	C	0.462643	0.236899	-0.025510
C16	C	0.519433	0.143059	-0.015376
C17	C	0.482169	0.047151	-0.005014
C18	C	0.499914	0.332805	-0.035883
C19	C	0.593973	0.334876	-0.036112
C20	C	0.650764	0.241036	-0.025969
C21	C	0.613495	0.145124	-0.015606
C22	C	0.670285	0.051284	-0.005472
C23	C	0.633017	-0.044629	0.004900
C24	C	0.538960	-0.046690	0.005128
C25	C	0.744821	0.243097	-0.026198
C26	C	0.764347	0.053348	-0.005702
C27	C	1.071069	-0.046330	0.005082
C28	C	1.068091	-0.161962	0.017565
C29	C	1.075575	-0.394506	-0.173267
C30	C	1.072777	-0.503153	-0.161544
C31	C	1.059691	-0.487903	0.052734
C32	C	1.062489	-0.379256	0.041011
C33	C	1.070432	-0.332562	-0.071993
C34	C	1.073237	-0.223915	-0.083716
C35	C	1.060144	-0.208666	0.130561
C36	C	1.057346	-0.317312	0.142284
C37	C	1.231213	0.136727	-0.014680
C38	C	1.331317	0.138926	-0.014918
N39	N	1.049376	0.164024	0.264205
C40	C	1.061858	0.334514	-0.036056
C41	C	1.064837	0.450145	-0.048547
N42	N	1.083558	0.124152	-0.295176
C43	C	1.155432	0.040232	0.526875
C44	C	1.147893	0.049043	0.650586
C45	C	1.026755	0.190452	0.635342
C46	C	1.034294	0.181640	0.511631
C47	C	1.098636	0.106529	0.457402
C48	C	1.106179	0.097724	0.333688
C49	C	0.985037	0.239126	0.318446
C50	C	0.977498	0.247938	0.442157
H51	H	0.508606	-0.124775	0.013600
F52	F	0.924592	0.309693	0.244495
F53	F	0.348444	-0.056985	0.006259
F54	F	0.909022	0.327870	0.499883
F55	F	1.223917	-0.039697	0.469159
H56	H	0.810580	-0.023069	0.002555
H57	H	0.624307	0.412974	-0.044557
F58	F	1.081694	-0.174221	-0.203983
H59	H	1.082051	-0.356488	-0.265279
F60	F	1.174658	0.017787	0.275975
F61	F	1.048885	-0.367018	0.262544
F62	F	0.958274	0.270376	0.693071
H63	H	1.055960	-0.158219	0.213025
H64	H	0.775160	0.321187	-0.034640
F65	F	1.208342	-0.021522	0.724522
F66	F	0.693468	-0.144497	0.015676
H67	H	0.322347	0.311231	-0.033543
F68	F	0.439472	0.432667	-0.046684
H69	H	1.076962	-0.553584	-0.244011
H70	H	1.053216	-0.525939	0.144736
