data_functionalizedCrystal
_audit_creation_method	'MofGen! by Chris Wilmer'
_symmetry_space_group_name_H-M	'P1'
_symmetry_Int_Tables_number	1
_symmetry_cell_setting	triclinic
loop_
_symmetry_equiv_pos_as_xyz
  x,y,z
_cell_length_a	8.559649
_cell_length_b	18.266242
_cell_length_c	8.559649
_cell_angle_alpha	90.005189
_cell_angle_beta	110.221336
_cell_angle_gamma	89.990407
loop_
_atom_site_label
_atom_site_type_symbol
_atom_site_fract_x
_atom_site_fract_y
_atom_site_fract_z
O1	O	-2.126892	0.060881	-0.055034
O2	O	-1.651407	0.060882	0.028747
O3	O	-1.931040	0.060881	-0.250886
O4	O	-1.847259	0.060882	0.224599
O5	O	-1.930999	-0.060881	-0.250893
O6	O	-1.651366	-0.060880	0.028740
O7	O	-2.126851	-0.060880	-0.055041
Zn8	Zn	-1.889102	-0.080213	-0.013152
Zn9	Zn	-1.889156	0.080214	-0.013142
O10	O	-1.847218	-0.060880	0.224592
C11	C	-1.591077	0.000001	0.035093
C12	C	-1.411378	0.000001	0.053992
N13	N	-1.889077	-0.189700	-0.013161
C14	C	-2.012928	-0.228009	-0.136933
C15	C	-2.012940	-0.304654	-0.136942
C16	C	-1.889112	-0.342987	-0.013153
C17	C	-1.765239	-0.304668	0.110630
C18	C	-1.765222	-0.228025	0.110626
N19	N	-1.850848	-0.463319	0.132928
N20	N	-1.850875	-0.536127	0.132926
C21	C	-1.889154	-0.573909	-0.013135
N22	N	-1.927439	-0.536133	-0.159202
N23	N	-1.927420	-0.463318	-0.159199
C24	C	-1.889116	-0.426094	-0.013135
C25	C	-2.013025	-0.695325	-0.136926
C26	C	-2.013025	-0.771972	-0.136936
C27	C	-1.765331	-0.771985	0.110649
C28	C	-1.765324	-0.695340	0.110646
C29	C	-1.889180	-0.657015	-0.013141
C30	C	-1.187180	0.000001	-0.061387
C31	C	-1.366879	0.000001	-0.080286
C32	C	-1.937369	0.000001	-0.311198
C33	C	-1.956268	0.000005	-0.490898
N34	N	-1.889195	0.189701	-0.013147
C35	C	-1.840889	0.000002	0.284904
C36	C	-1.821990	0.000002	0.464604
H37	H	-1.466258	0.000005	-0.209705
H38	H	-1.311990	0.000005	0.183420
H39	H	-2.113872	-0.664120	-0.237726
H40	H	-1.692570	0.000000	-0.436018
H41	H	-2.085696	-0.000001	-0.590286
H42	H	-2.113775	-0.196807	-0.237731
O43	O	-2.133412	-0.341765	-0.257266
C44	C	-2.242690	-0.291503	-0.366555
H45	H	-2.236357	-0.236864	-0.300272
H46	H	-2.204813	-0.283363	-0.480637
C47	C	-2.429560	-0.388510	-0.502776
C48	C	-2.421792	-0.321404	-0.421361
H49	H	-2.540038	-0.406954	-0.536590
H50	H	-2.355935	-0.422373	-0.429151
H51	H	-2.397987	-0.381718	-0.597834
H52	H	-2.453345	-0.328198	-0.326294
H53	H	-2.495427	-0.287542	-0.494972
O54	O	-1.644833	-0.190921	0.231034
C55	C	-1.535507	-0.241185	0.340268
H56	H	-1.601790	-0.295813	0.333980
H57	H	-1.421477	-0.249350	0.302306
C58	C	-1.399174	-0.144173	0.527085
C59	C	-1.480588	-0.211267	0.519373
H60	H	-1.365290	-0.125718	0.637564
H61	H	-1.472824	-0.110309	0.453490
H62	H	-1.304159	-0.150986	0.495441
H63	H	-1.575612	-0.204452	0.550995
H64	H	-1.406952	-0.245130	0.592978
O65	O	-1.645113	-0.658008	0.230734
C66	C	-1.671679	-0.582142	0.204217
H67	H	-1.748124	-0.571673	0.067828
H68	H	-1.741772	-0.560381	0.286095
C69	C	-1.408857	-0.555666	0.416400
C70	C	-1.502736	-0.542807	0.248882
H71	H	-1.304646	-0.531401	0.443958
H72	H	-1.390960	-0.606779	0.434271
H73	H	-1.467286	-0.537532	0.484612
H74	H	-1.444316	-0.560949	0.180673
H75	H	-1.520619	-0.491696	0.231001
O76	O	-2.133508	-0.809074	-0.257253
C77	C	-2.242792	-0.758808	-0.366523
H78	H	-2.236439	-0.704171	-0.300231
H79	H	-2.204937	-0.750669	-0.480619
C80	C	-2.429690	-0.855809	-0.502728
C81	C	-2.421897	-0.788704	-0.421303
H82	H	-2.540169	-0.874251	-0.536526
H83	H	-2.356060	-0.889675	-0.429116
H84	H	-2.398135	-0.849017	-0.597798
H85	H	-2.453431	-0.795499	-0.326224
H86	H	-2.495536	-0.754840	-0.494901
H87	H	-1.664414	-0.335882	0.211419
H88	H	-1.664502	-0.803194	0.211435
