data_functionalizedCrystal
_audit_creation_method	'MofGen! by Chris Wilmer'
_symmetry_space_group_name_H-M	'P1'
_symmetry_Int_Tables_number	1
_symmetry_cell_setting	triclinic
loop_
_symmetry_equiv_pos_as_xyz
  x,y,z
_cell_length_a	17.077404
_cell_length_b	12.594516
_cell_length_c	17.077396
_cell_angle_alpha	89.976020
_cell_angle_beta	89.983895
_cell_angle_gamma	90.014023
loop_
_atom_site_label
_atom_site_type_symbol
_atom_site_fract_x
_atom_site_fract_y
_atom_site_fract_z
Zn1	Zn	1.200074	-0.423791	-0.443848
Zn2	Zn	1.200002	-0.601794	-0.312594
Zn3	Zn	1.068811	-0.423824	-0.312599
Zn4	Zn	1.068790	-0.601722	-0.443820
O5	O	1.134419	-0.512783	-0.378215
O6	O	1.309912	-0.447420	-0.426447
O7	O	1.182578	-0.578230	-0.202748
O8	O	1.086263	-0.274874	-0.330022
O9	O	1.309859	-0.578198	-0.330015
O10	O	1.182701	-0.274850	-0.426451
O11	O	1.086193	-0.447476	-0.202751
O12	O	0.958962	-0.447406	-0.329996
O13	O	1.086226	-0.578074	-0.553671
O14	O	0.958946	-0.578106	-0.426404
O15	O	1.182680	-0.447350	-0.553691
O16	O	1.182558	-0.750730	-0.329988
O17	O	1.086156	-0.750677	-0.426400
C18	C	0.930472	-0.512753	-0.378198
C19	C	0.843222	-0.512765	-0.378209
C20	C	0.802260	-0.444790	-0.428497
C21	C	0.720280	-0.444797	-0.428501
C22	C	0.679262	-0.512785	-0.378219
C23	C	0.720230	-0.580763	-0.327925
C24	C	0.802209	-0.580750	-0.327918
C25	C	0.549360	-0.580787	-0.327945
C26	C	0.467375	-0.580802	-0.327953
C27	C	0.467431	-0.444834	-0.428527
C28	C	0.549410	-0.444821	-0.428520
C29	C	0.590371	-0.512801	-0.378227
C30	C	1.134368	-0.789324	-0.378208
C31	C	1.134418	-0.907629	-0.378231
C32	C	1.081980	-0.976892	-0.430632
C33	C	1.062859	-1.047753	-0.359004
C34	C	1.153611	-1.047567	-0.449870
C35	C	1.115259	-0.976932	-0.306565
C36	C	1.206044	-0.976740	-0.397479
C37	C	1.186950	-1.047569	-0.325803
C38	C	1.339164	-0.512814	-0.378233
C39	C	1.426414	-0.512827	-0.378241
C40	C	1.134459	-0.512700	-0.582960
C41	C	1.134476	-0.512665	-0.670209
C42	C	1.134493	-0.235162	-0.378240
C43	C	1.134524	-0.116856	-0.378251
C44	C	1.084303	-0.444573	-0.711201
C45	C	1.084316	-0.444549	-0.793181
C46	C	1.134506	-0.512612	-0.834169
C47	C	1.184681	-0.580712	-0.793172
C48	C	1.184663	-0.580740	-0.711193
C49	C	1.184715	-0.580645	-0.964042
C50	C	1.184733	-0.580615	-1.046027
C51	C	1.084367	-0.444454	-1.046030
C52	C	1.084350	-0.444483	-0.964051
C53	C	1.134526	-0.512581	-0.923060
C54	C	1.134425	-0.512788	-0.174267
C55	C	1.134561	-0.512523	-0.087018
H56	H	0.582803	-0.389465	-0.469469
C57	C	1.029140	-0.369608	-0.918966
N58	N	0.987553	-0.313214	-0.885008
C59	C	1.287783	-0.934551	-0.419505
N60	N	1.349347	-0.902766	-0.436106
C61	C	1.239939	-0.655495	-1.091112
N62	N	1.281520	-0.711898	-1.125070
H63	H	1.098998	-0.946032	-0.245972
C64	C	0.675108	-0.655550	-0.272614
N65	N	0.641123	-0.711883	-0.230954
C66	C	0.847371	-0.369995	-0.483811
N67	N	0.881347	-0.313654	-0.525473
C68	C	1.246916	-1.089239	-0.265880
N69	N	1.292079	-1.120628	-0.220744
H70	H	1.169801	-1.078595	-0.510447
C71	C	1.021966	-0.934955	-0.490407
N72	N	0.976762	-0.903364	-0.535425
C73	C	0.847266	-0.655531	-0.272598
N74	N	0.881203	-0.711856	-0.230929
H75	H	1.043437	-0.389142	-0.677834
H76	H	1.043457	-0.389106	-0.826553
H77	H	1.002336	-1.078968	-0.342740
H78	H	1.043513	-0.389005	-1.079409
H79	H	0.433981	-0.636165	-0.287009
H80	H	1.225580	-0.636088	-0.930670
H81	H	1.225525	-0.636180	-0.677819
C82	C	0.675225	-0.370022	-0.483825
N83	N	0.641291	-0.313698	-0.525498
C84	C	0.422371	-0.370059	-0.483853
N85	N	0.388428	-0.313745	-0.525527
H86	H	1.225542	-0.636135	-0.826551
H87	H	0.582709	-0.636141	-0.286989
