data_functionalizedCrystal
_audit_creation_method	'MofGen! by Chris Wilmer'
_symmetry_space_group_name_H-M	'P1'
_symmetry_Int_Tables_number	1
_symmetry_cell_setting	triclinic
loop_
_symmetry_equiv_pos_as_xyz
  x,y,z
_cell_length_a	10.686220
_cell_length_b	17.640280
_cell_length_c	10.686551
_cell_angle_alpha	73.631970
_cell_angle_beta	90.308082
_cell_angle_gamma	83.981976
loop_
_atom_site_label
_atom_site_type_symbol
_atom_site_fract_x
_atom_site_fract_y
_atom_site_fract_z
Zn1	Zn	2.029519	-0.193149	-0.495722
Zn2	Zn	2.055778	-0.336546	-0.236472
Zn3	Zn	1.809642	-0.213416	-0.295045
Zn4	Zn	1.861733	-0.334940	-0.462803
O5	O	1.939168	-0.269513	-0.372511
O6	O	2.206230	-0.204361	-0.450596
O7	O	2.012318	-0.329366	-0.065537
O8	O	1.806019	-0.099857	-0.359955
O9	O	2.225523	-0.309714	-0.260125
O10	O	1.967562	-0.084968	-0.507392
O11	O	1.831482	-0.238903	-0.108570
O12	O	1.643324	-0.237346	-0.328035
O13	O	1.894800	-0.306978	-0.645875
O14	O	1.681595	-0.326629	-0.451286
O15	O	2.018072	-0.202805	-0.670060
O16	O	2.062828	-0.447203	-0.228205
O17	O	1.920263	-0.446023	-0.394490
C18	C	1.617544	-0.284013	-0.392445
C19	C	1.479959	-0.290234	-0.400997
C20	C	2.000083	-0.475357	-0.301445
C21	C	2.026258	-0.563411	-0.271079
C22	C	1.740852	-0.850116	-0.603633
C23	C	1.765448	-0.932858	-0.575058
C24	C	1.914008	-0.934008	-0.402065
C25	C	1.889430	-0.851264	-0.430629
C26	C	1.802849	-0.809324	-0.531413
C27	C	1.951427	-0.810472	-0.358409
C28	C	1.926845	-0.727736	-0.386967
C29	C	1.840266	-0.685791	-0.487744
C30	C	1.778267	-0.726588	-0.559971
C31	C	2.038000	-0.852414	-0.257619
C32	C	2.099997	-0.811622	-0.185400
C33	C	2.075422	-0.728884	-0.213963
C34	C	1.988843	-0.686939	-0.314741
C35	C	2.137421	-0.688087	-0.141737
C36	C	2.112839	-0.605351	-0.170295
C37	C	1.964261	-0.604203	-0.343299
C38	C	2.262048	-0.254956	-0.352499
C39	C	2.399641	-0.248753	-0.343971
C40	C	1.959317	-0.252451	-0.705599
C41	C	1.967904	-0.245181	-0.847542
C42	C	1.878051	-0.062861	-0.443879
C43	C	1.852006	0.025201	-0.474292
C44	C	1.919151	-0.286447	-0.040733
C45	C	1.910739	-0.293484	0.101147
H46	H	1.436133	-0.208480	-0.288605
H47	H	1.893768	-0.570053	-0.425376
O48	O	1.656860	-0.809438	-0.701691
C49	C	1.602296	-0.775664	-0.931361
C50	C	1.697489	-0.821787	-0.820433
H51	H	1.635124	-0.785619	-1.027394
H52	H	1.505966	-0.797641	-0.909529
H53	H	1.595366	-0.709534	-0.939289
H54	H	1.704529	-0.887926	-0.812444
H55	H	1.793769	-0.799745	-0.842312
O56	O	1.844517	-0.349391	-0.821549
C57	C	1.775399	-0.407908	-0.604811
C58	C	1.850412	-0.344546	-0.692224
H59	H	1.780161	-0.404023	-0.500229
H60	H	1.672997	-0.397176	-0.641855
H61	H	1.817583	-0.469477	-0.607629
H62	H	1.808336	-0.282951	-0.689446
H63	H	1.952808	-0.355348	-0.655152
H64	H	2.163322	-0.572138	-0.111485
O65	O	2.184244	-0.852273	-0.087585
C66	C	2.398631	-0.871205	-0.004057
C67	C	2.303346	-0.825095	-0.114904
H68	H	2.494953	-0.849261	-0.026118
H69	H	2.366020	-0.861195	0.092010
H70	H	2.405474	-0.937345	0.003959
H71	H	2.296459	-0.758941	-0.123040
H72	H	2.335996	-0.835171	-0.210913
H73	H	2.023424	-0.198264	-0.912208
H74	H	1.984498	-0.968166	-0.320002
O75	O	1.694072	-0.685769	-0.657740
C76	C	1.500194	-0.599146	-0.717356
C77	C	1.595452	-0.645318	-0.606522
H78	H	1.420424	-0.566443	-0.675983
H79	H	1.549419	-0.554342	-0.794039
H80	H	1.460177	-0.642526	-0.764094
H81	H	1.635500	-0.601998	-0.559681
H82	H	1.546166	-0.690133	-0.529923
H83	H	1.443463	-0.330515	-0.456356
O84	O	1.816363	-0.605433	-0.515258
C85	C	1.741906	-0.494434	-0.435774
C86	C	1.768947	-0.585447	-0.404431
H87	H	1.703540	-0.478248	-0.346199
H88	H	1.832650	-0.466192	-0.464121
H89	H	1.669421	-0.471482	-0.520253
H90	H	1.841391	-0.608469	-0.319931
H91	H	1.678146	-0.613634	-0.376161
H92	H	1.714971	-0.966065	-0.633890
H93	H	2.058015	-0.919783	-0.234374
H94	H	2.207905	-0.722247	-0.059670
