data_functionalizedCrystal
_audit_creation_method	'MofGen! by Chris Wilmer'
_symmetry_space_group_name_H-M	'P1'
_symmetry_Int_Tables_number	1
_symmetry_cell_setting	triclinic
loop_
_symmetry_equiv_pos_as_xyz
  x,y,z
_cell_length_a	13.897449
_cell_length_b	13.033454
_cell_length_c	13.032721
_cell_angle_alpha	89.068673
_cell_angle_beta	97.205670
_cell_angle_gamma	97.161857
loop_
_atom_site_label
_atom_site_type_symbol
_atom_site_fract_x
_atom_site_fract_y
_atom_site_fract_z
Zn1	Zn	1.361107	-0.633451	-0.335478
Zn2	Zn	1.355865	-0.483313	-0.529331
Zn3	Zn	1.217383	-0.461501	-0.357378
Zn4	Zn	1.177060	-0.655230	-0.507417
O5	O	1.277854	-0.558374	-0.432401
O6	O	1.495391	-0.613549	-0.361199
O7	O	1.352176	-0.336510	-0.524857
O8	O	1.255518	-0.466067	-0.210552
O9	O	1.491539	-0.503243	-0.503622
O10	O	1.361111	-0.592398	-0.194463
O11	O	1.250435	-0.320485	-0.398524
O12	O	1.077055	-0.487186	-0.377275
O13	O	1.186793	-0.796251	-0.466273
O14	O	1.047430	-0.629518	-0.487508
O15	O	1.322011	-0.780250	-0.339950
O16	O	1.313077	-0.524362	-0.670344
O17	O	1.181710	-0.650669	-0.654244
C18	C	1.027244	-0.558349	-0.432390
C19	C	0.920026	-0.558366	-0.432407
C20	C	1.242473	-0.592268	-0.699608
C21	C	1.227421	-0.606802	-0.813916
C22	C	1.250489	-0.826608	-0.398224
C23	C	1.238827	-0.940913	-0.383660
C24	C	0.723727	-0.558393	-0.432408
C25	C	0.832962	-0.558374	-0.432405
C26	C	1.529442	-0.558400	-0.432412
C27	C	1.636654	-0.558411	-0.432417
C28	C	1.283968	-0.999803	-0.439674
C29	C	1.271917	-1.117944	-0.424623
C30	C	1.305177	-0.291174	-0.466371
C31	C	1.317064	-0.176833	-0.480645
C32	C	1.285756	-0.550835	-0.872804
C33	C	1.270201	-0.565855	-0.990948
C34	C	1.313397	-0.524370	-0.164147
C35	C	1.328543	-0.509880	-0.049834
H36	H	1.224349	-1.154984	-0.365516
O37	O	1.401990	-0.439559	-1.005682
C38	C	1.492398	-0.465402	-1.028906
H39	H	1.484960	-0.551294	-1.048002
H40	H	1.550205	-0.447662	-0.959294
H41	H	1.515135	-0.418150	-1.098200
H42	H	1.191263	-0.977958	-0.324557
O43	O	1.340637	-0.955748	-0.510313
C44	C	1.303304	-0.994892	-0.609508
H45	H	1.258044	-1.073183	-0.601768
H46	H	1.366442	-1.004304	-0.655183
H47	H	1.255238	-0.938842	-0.651783
H48	H	1.347218	-0.491802	-0.835757
O49	O	1.153986	-0.677170	-0.857999
C50	C	1.063574	-0.651298	-0.834823
H51	H	1.075831	-0.601915	-0.761854
H52	H	1.013162	-0.725028	-0.821819
H53	H	1.028617	-0.606031	-0.902054
O54	O	1.196896	-0.636216	-1.035303
C55	C	1.197695	-0.635564	-1.143387
H56	H	1.235536	-0.558069	-1.168064
H57	H	1.119380	-0.647642	-1.183474
H58	H	1.238814	-0.700451	-1.166022
O59	O	1.373742	-1.132787	-0.551285
C60	C	1.336415	-1.171933	-0.650480
H61	H	1.291148	-1.250220	-0.642741
H62	H	1.399557	-1.181355	-0.696148
H63	H	1.288358	-1.115880	-0.692763
