data_functionalizedCrystal
_audit_creation_method	'MofGen! by Chris Wilmer'
_symmetry_space_group_name_H-M	'P1'
_symmetry_Int_Tables_number	1
_symmetry_cell_setting	triclinic
loop_
_symmetry_equiv_pos_as_xyz
  x,y,z
_cell_length_a	13.262390
_cell_length_b	14.853567
_cell_length_c	11.804365
_cell_angle_alpha	101.851263
_cell_angle_beta	62.657606
_cell_angle_gamma	84.050546
loop_
_atom_site_label
_atom_site_type_symbol
_atom_site_fract_x
_atom_site_fract_y
_atom_site_fract_z
O1	O	1.519295	0.013254	-0.591101
O2	O	1.190983	0.045918	-0.484765
O3	O	1.363910	-0.102143	-0.540778
O4	O	1.346369	0.161314	-0.535089
O5	O	1.318385	-0.063201	-0.327976
O6	O	1.145458	0.084860	-0.271964
O7	O	1.473770	0.052196	-0.378299
Cu8	Cu	1.305457	0.072083	-0.305701
Cu9	Cu	1.359296	0.026030	-0.557364
O10	O	1.300844	0.200256	-0.322287
C11	C	1.126204	0.067139	-0.364756
C12	C	1.001009	0.072344	-0.324208
C13	C	0.747379	0.002092	-0.673921
C14	C	0.865008	-0.002804	-0.712021
C15	C	0.899014	0.015983	-0.615071
C16	C	0.815380	0.039666	-0.480015
C17	C	0.697741	0.044554	-0.441912
C18	C	0.849376	0.058446	-0.383061
C19	C	0.765742	0.082128	-0.248005
C20	C	0.648115	0.087016	-0.209909
C21	C	0.614109	0.068229	-0.306859
C22	C	0.967014	0.053557	-0.421164
C23	C	0.917376	0.096020	-0.189155
C24	C	0.799748	0.100915	-0.151055
C25	C	1.340353	-0.116216	-0.434123
C26	C	1.337974	-0.216166	-0.433363
C27	C	1.225180	-0.622291	-0.396808
C28	C	1.430620	-0.655238	-0.463347
C29	C	1.432861	-0.561333	-0.464080
C30	C	1.331259	-0.497902	-0.431174
C31	C	1.227417	-0.528376	-0.397536
C32	C	1.536699	-0.530849	-0.497704
C33	C	1.538943	-0.436938	-0.498437
C34	C	1.437343	-0.373507	-0.465540
C35	C	1.333496	-0.403987	-0.431902
C36	C	1.231895	-0.340556	-0.398996
C37	C	1.128049	-0.371035	-0.365367
C38	C	1.125816	-0.464945	-0.364639
C39	C	1.439576	-0.279597	-0.466268
C40	C	1.234132	-0.246641	-0.399724
C41	C	1.538550	0.030974	-0.498311
C42	C	1.663747	0.025767	-0.538868
C43	C	1.324401	0.214329	-0.428945
C44	C	1.326781	0.314278	-0.429713
N45	N	1.267598	0.104474	-0.128698
N46	N	1.397164	-0.006368	-0.734370
C47	C	1.488077	-0.084167	0.173837
C48	C	1.516716	-0.108674	0.039899
C49	C	1.454439	-0.055389	-0.002257
C50	C	1.363518	0.022407	0.089538
C51	C	1.334882	0.046921	0.223488
C52	C	1.301244	0.075699	0.047394
C53	C	1.210323	0.153495	0.139190
C54	C	1.181692	0.178004	0.273125
C55	C	1.243969	0.124720	0.315281
C56	C	1.329880	0.051185	-0.086555
C57	C	1.176685	0.182272	-0.036904
C58	C	1.148046	0.206780	0.097034
H59	H	0.719680	-0.013211	-0.752843
Br60	Br	0.990163	-0.284938	-0.320695
H61	H	1.590743	-0.172014	-0.034837
Br62	Br	0.454463	0.074883	-0.255155
Br63	Br	0.534614	0.119149	-0.026619
H64	H	1.140632	-0.647113	-0.369432
H65	H	0.731637	0.120197	-0.041090
H66	H	1.524123	-0.254783	-0.493641
H67	H	0.945062	0.111316	-0.110210
H68	H	1.035099	0.034277	-0.531128
Br69	Br	0.984898	-0.506318	-0.319011
Br70	Br	1.096239	-0.160565	-0.355079
H71	H	1.619414	-0.582498	-0.524482
Br72	Br	1.568495	-0.741317	-0.507975
Br73	Br	1.679877	-0.395584	-0.544096
H74	H	1.403908	-0.012157	-0.161285
H75	H	1.477761	-0.075347	-0.111317
Br76	Br	1.572601	-0.156465	0.231046
Br77	Br	1.058655	0.009342	-0.666779
Br78	Br	0.978503	-0.034949	-0.895303
H79	H	1.220649	0.144671	0.424345
H80	H	1.107668	0.241357	0.347864
Br81	Br	1.024655	0.312357	0.221625
H82	H	1.125975	0.225663	-0.071225
