data_functionalizedCrystal
_audit_creation_method	'MofGen! by Chris Wilmer'
_symmetry_space_group_name_H-M	'P1'
_symmetry_Int_Tables_number	1
_symmetry_cell_setting	triclinic
loop_
_symmetry_equiv_pos_as_xyz
  x,y,z
_cell_length_a	12.759400
_cell_length_b	19.077367
_cell_length_c	19.077174
_cell_angle_alpha	90.114431
_cell_angle_beta	92.275311
_cell_angle_gamma	87.686825
loop_
_atom_site_label
_atom_site_type_symbol
_atom_site_fract_x
_atom_site_fract_y
_atom_site_fract_z
Zn1	Zn	-0.374182	-1.090224	-0.354296
Zn2	Zn	-0.543118	-1.085444	-0.236799
Zn3	Zn	-0.374776	-0.968004	-0.241510
Zn4	Zn	-0.557144	-0.972704	-0.358972
O5	O	-0.462305	-1.029094	-0.297894
O6	O	-0.390474	-1.187921	-0.334781
O7	O	-0.515166	-1.065898	-0.139092
O8	O	-0.227675	-0.984250	-0.256486
O9	O	-0.514590	-1.184409	-0.248457
O10	O	-0.227239	-1.074044	-0.339350
O11	O	-0.391485	-0.979615	-0.142554
O12	O	-0.405085	-0.870296	-0.261020
O13	O	-0.538495	-0.992261	-0.456683
O14	O	-0.539071	-0.873749	-0.347319
O15	O	-0.404074	-1.078602	-0.453248
O16	O	-0.692001	-1.070455	-0.252990
O17	O	-0.702306	-0.987626	-0.342750
C18	C	-0.473665	-0.846527	-0.305188
C19	C	-0.478552	-0.768424	-0.308325
C20	C	-0.410991	-0.729916	-0.264942
C21	C	-0.415591	-0.656530	-0.267889
C22	C	-0.487748	-0.621654	-0.314224
C23	C	-0.555315	-0.660168	-0.357609
C24	C	-0.550720	-0.733552	-0.354658
C25	C	-0.508988	-0.402374	-0.327858
C26	C	-0.513577	-0.328985	-0.330808
C27	C	-0.373854	-0.325352	-0.241086
C28	C	-0.369260	-0.398738	-0.238142
C29	C	-0.436831	-0.437245	-0.281525
N30	N	-0.492449	-0.546643	-0.317240
N31	N	-0.432134	-0.512255	-0.278505
C32	C	-0.735274	-1.029052	-0.297881
C33	C	-0.852049	-1.029099	-0.297896
C34	C	-0.901510	-1.072280	-0.251206
C35	C	-1.011233	-1.072324	-0.251226
C36	C	-1.022024	-0.986000	-0.344629
C37	C	-0.912303	-0.985960	-0.344612
C38	C	-0.841256	-1.115419	-0.204491
C39	C	-0.890717	-1.158603	-0.157796
C40	C	-1.000439	-1.158647	-0.157816
C41	C	-1.060701	-1.115507	-0.204531
C42	C	-0.188270	-1.029156	-0.297922
C43	C	-0.071492	-1.029183	-0.297934
C44	C	-0.472783	-1.036489	-0.481174
C45	C	-0.477248	-1.039640	-0.559278
C46	C	-0.450895	-0.212374	-0.290565
C47	C	-0.446017	-0.290476	-0.287424
C48	C	-0.414953	-0.996200	-0.597772
C49	C	-0.419158	-0.999158	-0.671158
C50	C	-0.485652	-1.045560	-0.706049
C51	C	-0.547954	-1.089002	-0.667549
C52	C	-0.543755	-1.086040	-0.594164
C53	C	-0.505122	-1.059233	-0.925333
C54	C	-0.509315	-1.062194	-0.998723
C55	C	-0.380519	-0.972348	-1.002327
C56	C	-0.376321	-0.969393	-0.928940
C57	C	-0.438627	-1.012832	-0.890447
N58	N	-0.489949	-1.048587	-0.781061
N59	N	-0.434335	-1.009802	-0.815436
C60	C	-0.451789	-1.021768	-0.115325
C61	C	-0.447020	-1.018753	-0.037217
H62	H	-0.360582	-0.625180	-0.232558
N63	N	-1.179044	-1.115558	-0.204545
H64	H	-1.207804	-1.066852	-0.193519
H65	H	-1.207301	-1.130422	-0.252257
N66	N	-0.858937	-0.939389	-0.394966
H67	H	-0.880178	-0.952294	-0.444750
H68	H	-0.880612	-0.888771	-0.385963
H69	H	-0.594474	-1.121419	-0.562822
N70	N	-0.351936	-0.952323	-0.712675
H71	H	-0.364681	-0.961241	-0.764458
H72	H	-0.370650	-0.901612	-0.701857
H73	H	-0.352226	-0.758306	-0.227216
N74	N	-0.304579	-0.919350	-0.891323
H75	H	-0.324737	-0.869653	-0.906097
H76	H	-0.311383	-0.924122	-0.839001
N77	N	-1.053796	-1.205221	-0.107460
H78	H	-1.032129	-1.255854	-0.116401
H79	H	-1.032539	-1.192252	-0.057699
N80	N	-0.313343	-0.925484	-1.043844
H81	H	-0.326098	-0.934394	-1.095628
H82	H	-0.332105	-0.874782	-1.033011
H83	H	-0.360800	-0.958418	-0.569370
N84	N	-0.619673	-1.139056	-0.705172
H85	H	-0.694688	-1.127608	-0.692827
H86	H	-0.612795	-1.134324	-0.757491
H87	H	-1.071097	-0.950877	-0.382661
N88	N	-0.291412	-0.436353	-0.188182
H89	H	-0.249303	-0.400822	-0.161149
H90	H	-0.330312	-0.465485	-0.154385
N91	N	-0.581032	-1.112247	-1.036357
H92	H	-0.619867	-1.139317	-1.000837
H93	H	-0.633168	-1.084862	-1.067946
N94	N	-0.633150	-0.622556	-0.407581
H95	H	-0.625810	-0.570224	-0.402870
H96	H	-0.618984	-0.637423	-0.457268
H97	H	-0.555868	-1.094597	-0.894000
N98	N	-0.300991	-0.283821	-0.194287
H99	H	-0.313532	-0.294559	-0.143552
H100	H	-0.225808	-0.297061	-0.204827
H101	H	-0.572335	-0.300591	-0.368544
H102	H	-0.564010	-0.433718	-0.363184
N103	N	-0.825728	-1.205138	-0.107420
H104	H	-0.748715	-1.198559	-0.114491
H105	H	-0.842764	-1.192225	-0.057665
H106	H	-0.751914	-1.115386	-0.204467
N107	N	-0.623592	-0.775089	-0.401446
H108	H	-0.670001	-0.741862	-0.431248
H109	H	-0.580861	-0.806864	-0.432789
