data_functionalizedCrystal
_audit_creation_method	'MofGen! by Chris Wilmer'
_symmetry_space_group_name_H-M	'P1'
_symmetry_Int_Tables_number	1
_symmetry_cell_setting	triclinic
loop_
_symmetry_equiv_pos_as_xyz
  x,y,z
_cell_length_a	10.686285
_cell_length_b	10.685727
_cell_length_c	10.686551
_cell_angle_alpha	80.925701
_cell_angle_beta	99.084519
_cell_angle_gamma	99.060155
loop_
_atom_site_label
_atom_site_type_symbol
_atom_site_fract_x
_atom_site_fract_y
_atom_site_fract_z
Zn1	Zn	-0.595594	-2.038245	0.823884
Zn2	Zn	-0.095594	-1.538245	1.323884
Zn3	Zn	-0.824167	-2.038142	0.595374
Zn4	Zn	-0.324167	-1.538142	1.095374
Zn5	Zn	-0.595640	-1.809683	0.595400
Zn6	Zn	-0.095640	-1.309683	1.095400
Zn7	Zn	-0.793653	-1.840094	0.793501
Zn8	Zn	-0.293653	-1.340094	1.293501
O9	O	-0.702263	-1.931541	0.702040
O10	O	-0.202263	-1.431541	1.202040
O11	O	-0.638666	-2.216770	0.806276
O12	O	-0.138666	-1.716770	1.306276
O13	O	-0.806641	-1.995066	0.416839
O14	O	-0.306641	-1.495066	0.916839
O15	O	-0.417106	-1.827318	0.638435
O16	O	0.082894	-1.327318	1.138435
O17	O	-0.806597	-2.216694	0.638391
O18	O	-0.306597	-1.716694	1.138391
O19	O	-0.417072	-1.995242	0.806301
O20	O	0.082928	-1.495242	1.306301
O21	O	-0.638743	-1.827218	0.416858
O22	O	-0.138743	-1.327218	0.916858
O23	O	-0.609156	-1.635179	0.608973
O24	O	-0.109156	-1.135179	1.108973
O25	O	-0.754591	-1.879149	0.976069
O26	O	-0.254591	-1.379149	1.476069
O27	O	-0.754635	-1.657522	0.754517
O28	O	-0.254635	-1.157522	1.254517
O29	O	-0.609078	-2.024730	0.998391
O30	O	-0.109078	-1.524730	1.498391
O31	O	-0.998646	-2.024554	0.608930
O32	O	-0.498646	-1.524554	1.108930
O33	O	-0.976228	-1.879049	0.754492
O34	O	-0.476228	-1.379049	1.254492
C35	C	-0.678590	-1.600057	0.678452
C36	C	-0.178590	-1.100057	1.178452
C37	C	-0.668491	-1.458252	0.668389
C38	C	-0.168491	-0.958252	1.168389
C39	C	-1.033728	-1.955127	0.678442
C40	C	-0.533728	-1.455127	1.178442
C41	C	-1.175535	-1.965337	0.668397
C42	C	-0.675535	-1.465337	1.168397
C43	C	-0.369505	-1.907900	0.725760
C44	C	0.130495	-1.407900	1.225760
C45	C	-0.227703	-1.897825	0.735868
C46	C	0.272297	-1.397825	1.235868
C47	C	-0.678425	-1.955343	1.034818
C48	C	-0.178425	-1.455343	1.534818
C49	C	-0.668267	-1.965486	1.176628
C50	C	-0.168267	-1.465486	1.676628
C51	C	-0.726016	-1.264318	0.725715
C52	C	-0.226016	-0.764318	1.225715
C53	C	-0.736103	-1.406123	0.735789
C54	C	-0.236103	-0.906123	1.235789
C55	C	-0.725922	-1.907898	0.370568
C56	C	-0.225922	-1.407898	0.870568
C57	C	-0.735738	-1.897977	0.228802
C58	C	-0.235738	-1.397977	0.728802
H59	H	-0.801707	-1.469980	0.801200
H60	H	-0.301707	-0.969980	1.301200
H61	H	-0.602871	-1.394388	0.602985
H62	H	-0.102871	-0.894388	1.102985
F63	F	-1.144283	-1.812066	0.821419
F64	F	-0.644283	-1.312066	1.321419
H65	H	-0.602732	-2.031055	1.240455
H66	H	-0.102732	-1.531055	1.740455
H67	H	-1.239366	-2.030942	0.602934
H68	H	-0.739366	-1.530942	1.102934
F69	F	-0.821406	-1.812290	1.145386
F70	F	-0.321406	-1.312290	1.645386
