data_functionalizedCrystal
_audit_creation_method	'MofGen! by Chris Wilmer'
_symmetry_space_group_name_H-M	'P1'
_symmetry_Int_Tables_number	1
_symmetry_cell_setting	triclinic
loop_
_symmetry_equiv_pos_as_xyz
  x,y,z
_cell_length_a	11.792241
_cell_length_b	12.503572
_cell_length_c	11.792241
_cell_angle_alpha	93.547243
_cell_angle_beta	95.806584
_cell_angle_gamma	93.538276
loop_
_atom_site_label
_atom_site_type_symbol
_atom_site_fract_x
_atom_site_fract_y
_atom_site_fract_z
O1	O	1.513406	0.089216	-0.149050
O2	O	1.183067	0.089241	-0.165081
O3	O	1.356252	0.089221	0.008105
O4	O	1.340220	0.089237	-0.322235
O5	O	1.343228	-0.089420	-0.004941
O6	O	1.170042	-0.089399	-0.178127
O7	O	1.500381	-0.089424	-0.162096
Cu8	Cu	1.334023	-0.105723	-0.171303
Cu9	Cu	1.349425	0.105540	-0.155874
O10	O	1.327196	-0.089403	-0.335281
C11	C	1.134264	-0.000076	-0.170596
C12	C	1.008251	-0.000066	-0.167581
N13	N	1.323197	-0.254314	-0.182154
C14	C	0.777536	-0.000097	-0.162041
C15	C	0.905923	-0.000080	-0.165119
C16	C	1.307273	-0.473427	-0.198126
C17	C	1.376180	-0.526763	-0.129046
C18	C	1.367320	-0.648685	-0.137933
C19	C	1.316132	-0.351494	-0.189240
C20	C	1.549185	-0.000105	-0.156580
C21	C	1.675198	-0.000107	-0.159594
C22	C	1.348733	-0.000099	0.043873
C23	C	1.345718	-0.000098	0.169886
N24	N	1.360260	0.254131	-0.145014
C25	C	1.334715	-0.000081	-0.371049
C26	C	1.337730	-0.000076	-0.497062
C27	C	1.340177	-0.000079	0.400600
C28	C	1.343256	-0.000089	0.272214
H29	H	1.441829	-0.480857	-0.063231
O30	O	1.229062	-0.528347	-0.276616
C31	C	1.237510	-0.639616	-0.268115
H32	H	1.326337	-0.654833	-0.227234
H33	H	1.170523	-0.671541	-0.213175
C34	C	1.108138	-0.678789	-0.438479
C35	C	1.217240	-0.697480	-0.388277
H36	H	1.095629	-0.714484	-0.512600
H37	H	1.102442	-0.603825	-0.444205
H38	H	1.052328	-0.705394	-0.392684
H39	H	1.273048	-0.670863	-0.434065
H40	H	1.222945	-0.772441	-0.382562
