data_functionalizedCrystal
_audit_creation_method	'MofGen! by Chris Wilmer'
_symmetry_space_group_name_H-M	'P1'
_symmetry_Int_Tables_number	1
_symmetry_cell_setting	triclinic
loop_
_symmetry_equiv_pos_as_xyz
  x,y,z
_cell_length_a	14.519731
_cell_length_b	15.995350
_cell_length_c	12.996460
_cell_angle_alpha	89.996086
_cell_angle_beta	89.994327
_cell_angle_gamma	83.590614
loop_
_atom_site_label
_atom_site_type_symbol
_atom_site_fract_x
_atom_site_fract_y
_atom_site_fract_z
O1	O	1.223657	0.109845	-0.085564
O2	O	1.556990	0.443178	0.247770
O3	O	1.890324	0.776512	0.581103
O4	O	0.955159	0.122752	-0.085565
O5	O	1.288493	0.456085	0.247769
O6	O	1.621826	0.789419	0.581102
O7	O	1.096748	-0.005578	-0.085563
O8	O	1.430081	0.327756	0.247770
O9	O	1.763415	0.661089	0.581103
O10	O	1.082069	0.238175	-0.085565
O11	O	1.415402	0.571508	0.247768
O12	O	1.748735	0.904841	0.581101
O13	O	1.096733	-0.005585	0.085571
O14	O	1.430066	0.327749	0.418904
O15	O	1.763400	0.661082	0.752237
O16	O	0.955145	0.122745	0.085569
O17	O	1.288478	0.456078	0.418902
O18	O	1.621811	0.789411	0.752236
O19	O	1.223642	0.109838	0.085570
O20	O	1.556976	0.443171	0.418903
O21	O	1.890309	0.776505	0.752237
Cu22	Cu	1.089392	0.116291	0.101195
Cu23	Cu	1.422726	0.449624	0.434529
Cu24	Cu	1.756059	0.782957	0.767862
Cu25	Cu	1.089410	0.116299	-0.101190
Cu26	Cu	1.422743	0.449632	0.232143
Cu27	Cu	1.756076	0.782966	0.565477
O28	O	1.082054	0.238167	0.085569
O29	O	1.415387	0.571501	0.418902
O30	O	1.748721	0.904834	0.752235
C31	C	0.920794	0.122144	0.000002
C32	C	1.254127	0.455477	0.333335
C33	C	1.587460	0.788810	0.666669
C34	C	0.818417	0.120331	0.000001
C35	C	1.151750	0.453665	0.333335
C36	C	1.485083	0.786998	0.666668
C37	C	0.735275	0.118859	-0.000003
C38	C	1.068609	0.452192	0.333331
C39	C	1.401942	0.785526	0.666664
C40	C	0.630970	0.117019	-0.000003
C41	C	0.964303	0.450352	0.333330
C42	C	1.297637	0.783686	0.666664
C43	C	0.547834	0.115559	-0.000003
C44	C	0.881167	0.448892	0.333330
C45	C	1.214500	0.782225	0.666664
C46	C	0.443521	0.113719	-0.000005
C47	C	0.776855	0.447052	0.333328
C48	C	1.110188	0.780385	0.666661
C49	C	1.096134	-0.036777	0.000002
C50	C	1.429467	0.296556	0.333335
C51	C	1.762800	0.629890	0.666668
C52	C	1.094314	-0.129730	-0.000004
C53	C	1.427648	0.203603	0.333329
C54	C	1.760981	0.536937	0.666663
C55	C	1.087781	-0.467488	-0.000001
C56	C	1.421114	-0.134155	0.333333
C57	C	1.754447	0.199179	0.666666
C58	C	0.986944	-0.420212	-0.000385
C59	C	1.320277	-0.086878	0.332948
C60	C	1.653611	0.246455	0.666282
C61	C	0.988764	-0.323519	0.000001
C62	C	1.322097	0.009815	0.333334
C63	C	1.655430	0.343148	0.666667
C64	C	1.091021	-0.299922	-0.000003
C65	C	1.424355	0.033411	0.333330
C66	C	1.757688	0.366744	0.666664
C67	C	1.140749	-0.340926	0.097721
C68	C	1.474083	-0.007593	0.431054
C69	C	1.807416	0.325741	0.764388
C70	C	1.138216	-0.437566	0.097803
C71	C	1.471549	-0.104232	0.431136
C72	C	1.804883	0.229101	0.764470
C73	C	1.140316	-0.437912	-0.096808
C74	C	1.473649	-0.104579	0.236525
C75	C	1.806983	0.228754	0.569858
C76	C	1.140292	-0.340967	-0.098100
C77	C	1.473625	-0.007634	0.235234
C78	C	1.806959	0.325700	0.568567
C79	C	1.092858	-0.205222	-0.000001
C80	C	1.426192	0.128111	0.333332
C81	C	1.759525	0.461445	0.666666
C82	C	1.085947	-0.562189	0.000004
C83	C	1.419280	-0.228855	0.333337
C84	C	1.752613	0.104478	0.666671
C85	C	1.258008	0.110446	0.000001
C86	C	1.591341	0.443780	0.333334
C87	C	1.924675	0.777113	0.666668
C88	C	1.360385	0.112258	-0.000005
C89	C	1.693718	0.445592	0.333328
C90	C	2.027052	0.778925	0.666661
C91	C	1.082668	0.269367	0.000001
C92	C	1.416002	0.602700	0.333335
C93	C	1.749335	0.936033	0.666668
C94	C	1.084488	0.362320	0.000000
C95	C	1.417821	0.695653	0.333334
C96	C	1.751154	1.028987	0.666667
N97	N	1.089387	0.116284	0.243542
N98	N	1.422720	0.449618	0.576876
N99	N	1.756053	0.782951	0.910209
N100	N	1.089422	0.116299	-0.243537
N101	N	1.422756	0.449632	0.089796
N102	N	1.756089	0.782966	0.423129
C103	C	1.089408	0.116300	0.663357
C104	C	1.422742	0.449633	0.996690
C105	C	1.756075	0.782967	1.330023
C106	C	1.089400	0.116298	0.546552
C107	C	1.422733	0.449632	0.879885
C108	C	1.756066	0.782965	1.213218
C109	C	1.089398	0.116293	0.453453
C110	C	1.422731	0.449626	0.786787
C111	C	1.756065	0.782959	1.120120
C112	C	1.089388	0.116290	0.336641
C113	C	1.422722	0.449623	0.669974
C114	C	1.756055	0.782957	1.003307
H115	H	0.949674	-0.295155	-0.070052
H116	H	1.283007	0.038178	0.263282
H117	H	1.616340	0.371512	0.596615
C118	C	1.089203	-0.462374	0.196481
C119	C	1.422536	-0.129040	0.529814
C120	C	1.755869	0.204293	0.863147
H121	H	1.071020	-0.413411	0.236138
H122	H	1.404353	-0.080078	0.569471
H123	H	1.737686	0.253255	0.902804
H124	H	1.130399	-0.500281	0.235554
H125	H	1.463732	-0.166948	0.568887
H126	H	1.797066	0.166385	0.902220
H127	H	1.035933	-0.488719	0.178623
H128	H	1.369266	-0.155385	0.511956
H129	H	1.702599	0.177948	0.845290
C130	C	0.932496	-0.445322	-0.095052
C131	C	1.265829	-0.111988	0.238281
C132	C	1.599163	0.221345	0.571614
H133	H	0.871834	-0.416103	-0.093847
H134	H	1.205167	-0.082770	0.239486
H135	H	1.538500	0.250564	0.572819
H136	H	0.928635	-0.504207	-0.093759
H137	H	1.261968	-0.170874	0.239574
H138	H	1.595302	0.162460	0.572907
H139	H	0.963424	-0.431132	-0.155963
H140	H	1.296758	-0.097799	0.177371
H141	H	1.630091	0.235535	0.510704
C142	C	1.095793	-0.465720	-0.196873
C143	C	1.429126	-0.132387	0.136460
C144	C	1.762460	0.200947	0.469794
H145	H	1.128532	-0.447246	-0.254350
H146	H	1.461866	-0.113912	0.078983
H147	H	1.795199	0.219421	0.412316
H148	H	1.032974	-0.441756	-0.199875
H149	H	1.366307	-0.108422	0.133459
H150	H	1.699640	0.224911	0.466792
H151	H	1.098417	-0.525322	-0.198129
H152	H	1.431750	-0.191989	0.135204
H153	H	1.765083	0.141344	0.468538
C154	C	1.091250	-0.304159	-0.195768
C155	C	1.424583	0.029174	0.137566
C156	C	1.757916	0.362507	0.470899
H157	H	1.040960	-0.263941	-0.176852
H158	H	1.374293	0.069392	0.156481
H159	H	1.707626	0.402725	0.489814
H160	H	1.068601	-0.348093	-0.234140
H161	H	1.401934	-0.014760	0.099193
H162	H	1.735268	0.318574	0.432527
H163	H	1.133934	-0.277715	-0.236558
H164	H	1.467268	0.055619	0.096776
H165	H	1.800601	0.388952	0.430109
C166	C	0.932730	-0.446758	0.093762
C167	C	1.266063	-0.113425	0.427096
C168	C	1.599397	0.219909	0.760429
H169	H	0.971282	-0.486525	0.133305
H170	H	1.304616	-0.153192	0.466638
H171	H	1.637949	0.180142	0.799971
H172	H	0.879645	-0.471385	0.071296
H173	H	1.212979	-0.138052	0.404630
H174	H	1.546312	0.195282	0.737963
H175	H	0.913833	-0.398736	0.134784
H176	H	1.247166	-0.065403	0.468117
H177	H	1.580499	0.267930	0.801450
C178	C	0.935600	-0.285959	0.094803
C179	C	1.268933	0.047375	0.428137
C180	C	1.602266	0.380708	0.761470
H181	H	0.912812	-0.329805	0.133236
H182	H	1.246145	0.003528	0.466569
H183	H	1.579479	0.336862	0.799902
H184	H	0.885133	-0.247065	0.073019
H185	H	1.218466	0.086268	0.406352
H186	H	1.551799	0.419601	0.739686
H187	H	0.976068	-0.257844	0.136660
H188	H	1.309402	0.075489	0.469993
H189	H	1.642735	0.408822	0.803327
H190	H	1.214662	-0.469557	-0.097468
H191	H	1.547996	-0.136223	0.235866
H192	H	1.881329	0.197110	0.569199
C193	C	1.241033	-0.320064	-0.106077
C194	C	1.574367	0.013269	0.227257
C195	C	1.907700	0.346603	0.560590
H196	H	1.254425	-0.285884	-0.049428
H197	H	1.587759	0.047450	0.283905
H198	H	1.921092	0.380783	0.617238
H199	H	1.248850	-0.290704	-0.168450
H200	H	1.582183	0.042629	0.164884
H201	H	1.915517	0.375962	0.498217
H202	H	1.281982	-0.370716	-0.105248
H203	H	1.615316	-0.037383	0.228086
H204	H	1.948649	0.295950	0.561419
H205	H	1.212248	-0.469698	0.102234
H206	H	1.545582	-0.136365	0.435568
H207	H	1.878915	0.196969	0.768901
H208	H	1.215875	-0.326683	0.101353
H209	H	1.549208	0.006651	0.434686
H210	H	1.882542	0.339984	0.768019
H211	H	1.106199	-0.312602	0.170447
H212	H	1.439532	0.020732	0.503780
H213	H	1.772865	0.354065	0.837113
