data_functionalizedCrystal
_audit_creation_method	'MofGen! by Chris Wilmer'
_symmetry_space_group_name_H-M	'P1'
_symmetry_Int_Tables_number	1
_symmetry_cell_setting	triclinic
loop_
_symmetry_equiv_pos_as_xyz
  x,y,z
_cell_length_a	16.109301
_cell_length_b	14.472311
_cell_length_c	16.109301
_cell_angle_alpha	89.988919
_cell_angle_beta	96.538519
_cell_angle_gamma	90.001412
loop_
_atom_site_label
_atom_site_type_symbol
_atom_site_fract_x
_atom_site_fract_y
_atom_site_fract_z
O1	O	1.103131	0.076785	-0.106873
O2	O	1.603131	0.576785	0.393127
O3	O	0.861069	0.076801	-0.120172
O4	O	1.361069	0.576801	0.379828
O5	O	0.988749	0.076783	0.007508
O6	O	1.488749	0.576783	0.507508
O7	O	0.975450	0.076803	-0.234554
O8	O	1.475450	0.576803	0.265446
O9	O	0.988741	-0.076899	0.007524
O10	O	1.488741	0.423101	0.507524
O11	O	0.861060	-0.076881	-0.120156
O12	O	1.361060	0.423119	0.379844
O13	O	1.103122	-0.076897	-0.106857
O14	O	1.603122	0.423103	0.393143
Cu15	Cu	0.982090	-0.090921	-0.113505
Cu16	Cu	1.482090	0.409079	0.386495
Cu17	Cu	0.982101	0.090825	-0.113524
Cu18	Cu	1.482101	0.590825	0.386476
O19	O	0.975441	-0.076879	-0.234538
O20	O	1.475441	0.423121	0.265462
C21	C	0.830090	-0.000039	-0.119626
C22	C	1.330090	0.499961	0.380374
C23	C	0.737794	-0.000033	-0.118011
C24	C	1.237794	0.499967	0.381989
N25	N	0.982089	-0.218752	-0.113491
N26	N	1.482089	0.281248	0.386509
C27	C	0.515522	-0.000038	-0.190018
C28	C	1.015522	0.499962	0.309982
C29	C	0.428801	-0.000044	-0.188494
C30	C	0.928801	0.499956	0.311506
C31	C	0.448676	-0.000053	-0.037006
C32	C	0.948676	0.499947	0.462994
C33	C	0.535394	-0.000053	-0.038530
C34	C	1.035394	0.499947	0.461470
C35	C	0.568815	-0.000041	-0.115039
C36	C	1.068815	0.499959	0.384961
C37	C	0.395376	-0.000047	-0.111990
C38	C	0.895376	0.499953	0.388010
C39	C	0.301350	-0.000053	-0.110337
C40	C	0.801350	0.499947	0.389663
C41	C	0.662847	-0.000036	-0.116693
C42	C	1.162847	0.499964	0.383307
C43	C	0.982101	-0.592844	-0.113518
C44	C	1.482101	-0.092844	0.386482
C45	C	1.050642	-0.553658	-0.045427
C46	C	1.550642	-0.053658	0.454573
C47	C	1.050464	-0.446570	-0.045176
C48	C	1.550464	0.053430	0.454824
C49	C	0.982096	-0.407252	-0.113505
C50	C	1.482096	0.092748	0.386495
C51	C	0.895359	-0.446140	-0.094582
C52	C	1.395359	0.053860	0.405418
C53	C	0.895765	-0.553261	-0.094100
C54	C	1.395765	-0.053261	0.405900
C55	C	0.999516	-0.553343	-0.200733
C56	C	1.499516	-0.053343	0.299267
C57	C	1.001485	-0.446214	-0.200149
C58	C	1.501485	0.053786	0.299851
C59	C	0.982087	-0.302364	-0.113499
C60	C	1.482087	0.197636	0.386501
C61	C	0.982104	-0.697732	-0.113522
C62	C	1.482104	-0.197732	0.386478
C63	C	1.134101	-0.000055	-0.107404
C64	C	1.634101	0.499945	0.392596
C65	C	1.226397	-0.000055	-0.109019
C66	C	1.726397	0.499945	0.390981
C67	C	0.988206	-0.000058	0.038491
C68	C	1.488206	0.499942	0.538491
C69	C	0.986591	-0.000059	0.130786
C70	C	1.486591	0.499941	0.630786
N71	N	0.982108	0.218656	-0.113532
N72	N	1.482108	0.718656	0.386468
C73	C	0.975984	-0.000036	-0.265521
C74	C	1.475984	0.499964	0.234479
C75	C	0.977600	-0.000028	-0.357816
C76	C	1.477600	0.499972	0.142184
C77	C	1.058599	-0.000049	0.353059
C78	C	1.558599	0.499951	0.853059
C79	C	1.057075	-0.000042	0.439779
C80	C	1.557075	0.499958	0.939779
C81	C	0.905586	-0.000036	0.419905
C82	C	1.405586	0.499964	0.919905
C83	C	0.907111	-0.000037	0.333186
C84	C	1.407111	0.499963	0.833186
C85	C	0.983620	-0.000048	0.299766
C86	C	1.483620	0.499952	0.799766
C87	C	0.980571	-0.000040	0.473205
C88	C	1.480571	0.499960	0.973205
C89	C	0.978918	-0.000031	0.567231
C90	C	1.478918	0.499969	1.067231
C91	C	0.985273	-0.000055	0.205734
C92	C	1.485273	0.499945	0.705734
H93	H	0.542730	-0.000035	-0.252317
H94	H	1.042730	0.499965	0.247683
C95	C	0.824624	-0.000031	0.274560
C96	C	1.324624	0.499969	0.774560
N97	N	0.762497	-0.000024	0.230402
N98	N	1.262497	0.499976	0.730402
C99	C	0.594021	-0.000057	0.043957
C100	C	1.094021	0.499943	0.543957
N101	N	0.638178	-0.000062	0.106083
N102	N	1.138178	0.499938	0.606083
H103	H	0.385413	-0.000043	-0.249550
H104	H	0.885413	0.499957	0.250450
C105	C	1.035830	-0.590035	0.041519
C106	C	1.535830	-0.090035	0.541519
N107	N	1.024670	-0.617434	0.107006
N108	N	1.524670	-0.117434	0.607006
H109	H	0.421454	-0.000068	0.025285
H110	H	0.921454	0.499932	0.525285
C111	C	1.138041	-0.588459	-0.060394
C112	C	1.638041	-0.088459	0.439606
N113	N	1.203872	-0.614680	-0.071666
N114	N	1.703872	-0.114680	0.428334
H115	H	1.114940	-0.420278	-0.056441
H116	H	1.614940	0.079722	0.443559
H117	H	1.039340	-0.420958	0.019548
H118	H	1.539340	0.079042	0.519548
C119	C	0.875027	-0.587036	-0.008173
C120	C	1.375027	-0.087036	0.491827
N121	N	0.859408	-0.612471	0.056550
N122	N	1.359408	-0.112471	0.556550
C123	C	0.824789	-0.588283	-0.158547
C124	C	1.324789	-0.088283	0.341453
N125	N	0.771327	-0.614658	-0.207083
N126	N	1.271327	-0.114658	0.292917
C127	C	1.142761	-0.000052	0.316300
C128	C	1.642761	0.499948	0.816300
N129	N	1.206154	-0.000049	0.288615
N130	N	1.706154	0.499951	0.788615
H131	H	0.843127	-0.420672	-0.142857
H132	H	1.343127	0.079328	0.357143
C133	C	0.874113	-0.409926	-0.009628
C134	C	1.374113	0.090074	0.490372
N135	N	0.858116	-0.382653	0.054363
N136	N	1.358116	0.117347	0.554363
H137	H	1.061410	-0.580354	-0.218926
H138	H	1.561410	-0.080354	0.281074
H139	H	1.065292	-0.420798	-0.214508
H140	H	1.565292	0.079202	0.285492
C141	C	0.938412	-0.410053	-0.271809
C142	C	1.438412	0.089947	0.228191
N143	N	0.890899	-0.382815	-0.325781
N144	N	1.390899	0.117185	0.174219
C145	C	1.139558	-0.000051	0.498398
C146	C	1.639558	0.499949	0.998398
N147	N	1.201688	-0.000060	0.542550
N148	N	1.701688	0.499940	1.042550
C149	C	0.821431	-0.000041	0.456676
C150	C	1.321431	0.499959	0.956676
N151	N	0.758043	-0.000052	0.484371
N152	N	1.258043	0.499948	0.984371
C153	C	0.931994	-0.587584	-0.269189
C154	C	1.431994	-0.087584	0.230811
N155	N	0.881136	-0.613381	-0.320744
N156	N	1.381136	-0.113381	0.179256
