data_functionalizedCrystal
_audit_creation_method	'MofGen! by Chris Wilmer'
_symmetry_space_group_name_H-M	'P1'
_symmetry_Int_Tables_number	1
_symmetry_cell_setting	triclinic
loop_
_symmetry_equiv_pos_as_xyz
  x,y,z
_cell_length_a	14.853566
_cell_length_b	8.559649
_cell_length_c	7.088929
_cell_angle_alpha	95.344185
_cell_angle_beta	96.215272
_cell_angle_gamma	103.293461
loop_
_atom_site_label
_atom_site_type_symbol
_atom_site_fract_x
_atom_site_fract_y
_atom_site_fract_z
O1	O	1.171396	-0.224961	-0.158855
O2	O	0.907196	-0.249813	-0.158885
O3	O	1.062572	-0.004836	-0.158865
O4	O	1.016019	-0.469938	-0.158875
O5	O	1.083342	0.027977	0.159113
O6	O	0.927965	-0.217001	0.159093
O7	O	1.192165	-0.192148	0.159123
Cu8	Cu	1.061962	-0.201578	0.188142
Cu9	Cu	1.037399	-0.240383	-0.187904
O10	O	1.036789	-0.437125	0.159103
C11	C	0.884070	-0.232282	0.000100
C12	C	0.784222	-0.228910	0.000088
C13	C	0.350715	-0.232526	-0.173208
C14	C	0.373381	-0.196754	0.173464
C15	C	0.467193	-0.199922	0.173458
C16	C	0.502770	-0.219395	0.000116
C17	C	0.444535	-0.235700	-0.173219
C18	C	0.525432	-0.183633	0.346790
C19	C	0.619250	-0.186803	0.346791
C20	C	0.654831	-0.206265	0.173447
C21	C	0.596590	-0.222569	0.000105
C22	C	0.632167	-0.242042	-0.173237
C23	C	0.573930	-0.258335	-0.346581
C24	C	0.480116	-0.255162	-0.346563
C25	C	0.748644	-0.209437	0.173429
C26	C	0.725987	-0.245215	-0.173248
C27	C	1.076484	0.071092	0.000121
C28	C	1.086985	0.248448	0.000111
C29	C	1.215290	-0.209680	0.000134
C30	C	1.315138	-0.213053	0.000133
C31	C	1.022876	-0.513054	0.000113
C32	C	1.012375	-0.690411	0.000110
N33	N	1.079244	-0.174284	0.452632
N34	N	1.020125	-0.267665	-0.452394
H35	H	0.754947	-0.261068	-0.314405
H36	H	0.303295	-0.245785	-0.314341
H37	H	0.958855	-0.364435	0.465952
H38	H	0.344406	-0.180911	0.314590
C39	C	1.182832	0.359605	-0.000266
C40	C	1.182625	0.439470	-0.163872
C41	C	1.270903	0.541862	-0.164299
H42	H	1.197437	0.436967	0.110497
H43	H	1.228252	0.297509	-0.000374
H44	H	1.137219	0.501562	-0.163747
H45	H	1.168036	0.362148	-0.274662
H46	H	1.316324	0.479767	-0.164406
H47	H	1.285501	0.619215	-0.053528
H48	H	1.270777	0.596052	-0.275311
H49	H	1.140524	-0.077519	0.534296
C50	C	0.682617	-0.168861	0.534846
C51	C	0.756797	-0.032314	0.544943
C52	C	0.815198	-0.015739	0.718139
H53	H	0.648115	-0.156713	0.638238
H54	H	0.706431	-0.262390	0.542073
H55	H	0.732984	0.061193	0.537734
H56	H	0.791322	-0.044429	0.441590
H57	H	0.839012	-0.109268	0.725366
H58	H	0.780688	-0.003597	0.821518
H59	H	0.865540	0.076899	0.725005
C60	C	0.416791	-0.273191	-0.534689
C61	C	0.342636	-0.409783	-0.544812
C62	C	0.284284	-0.426461	-0.718091
H63	H	0.392936	-0.179738	-0.542072
H64	H	0.451365	-0.285334	-0.637991
H65	H	0.308067	-0.397629	-0.441539
H66	H	0.366463	-0.503260	-0.537462
H67	H	0.318859	-0.438604	-0.821393
H68	H	0.260437	-0.333001	-0.725459
H69	H	0.233969	-0.519146	-0.724990
H70	H	0.796055	-0.196188	0.314564
H71	H	0.940464	0.226251	0.000108
H72	H	0.602907	-0.274201	-0.487716
H73	H	0.496456	-0.167790	0.487915
