data_functionalizedCrystal
_audit_creation_method	'MofGen! by Chris Wilmer'
_symmetry_space_group_name_H-M	'P1'
_symmetry_Int_Tables_number	1
_symmetry_cell_setting	triclinic
loop_
_symmetry_equiv_pos_as_xyz
  x,y,z
_cell_length_a	19.188930
_cell_length_b	16.992695
_cell_length_c	15.455313
_cell_angle_alpha	87.152573
_cell_angle_beta	87.313934
_cell_angle_gamma	93.093499
loop_
_atom_site_label
_atom_site_type_symbol
_atom_site_fract_x
_atom_site_fract_y
_atom_site_fract_z
O1	O	0.934752	-0.094420	-0.072413
O2	O	1.268085	0.238914	0.260920
O3	O	1.601418	0.572247	0.594253
O4	O	0.732209	-0.107598	-0.072354
O5	O	1.065542	0.225736	0.260979
O6	O	1.398876	0.559069	0.594313
O7	O	0.832668	0.013131	-0.072377
O8	O	1.166001	0.346464	0.260957
O9	O	1.499335	0.679798	0.594290
O10	O	0.834293	-0.215148	-0.072391
O11	O	1.167626	0.118185	0.260943
O12	O	1.500959	0.451518	0.594276
O13	O	0.826922	0.006255	0.071887
O14	O	1.160255	0.339589	0.405220
O15	O	1.493588	0.672922	0.738554
O16	O	0.726463	-0.114473	0.071909
O17	O	1.059796	0.218860	0.405243
O18	O	1.393129	0.552193	0.738576
O19	O	0.929005	-0.101295	0.071850
O20	O	1.262339	0.232038	0.405184
O21	O	1.595672	0.565372	0.738517
Cu22	Cu	0.827209	-0.108512	0.085052
Cu23	Cu	1.160543	0.224821	0.418386
Cu24	Cu	1.493876	0.558155	0.751719
Cu25	Cu	0.834005	-0.100381	-0.085556
Cu26	Cu	1.167338	0.232952	0.247777
Cu27	Cu	1.500672	0.566286	0.581111
O28	O	0.828546	-0.222024	0.071873
O29	O	1.161880	0.111310	0.405206
O30	O	1.495213	0.444643	0.738539
C31	C	0.703300	-0.110609	-0.000215
C32	C	1.036633	0.222724	0.333119
C33	C	1.369966	0.556058	0.666452
C34	C	0.625719	-0.109329	-0.000192
C35	C	0.959052	0.224004	0.333141
C36	C	1.292386	0.557337	0.666475
C37	C	0.827706	0.038899	-0.000244
C38	C	1.161039	0.372232	0.333089
C39	C	1.494373	0.705565	0.666422
C40	C	0.821473	0.125921	-0.000243
C41	C	1.154806	0.459255	0.333091
C42	C	1.488139	0.792588	0.666424
N43	N	0.822435	-0.114230	0.205049
N44	N	1.155768	0.219103	0.538382
N45	N	1.489101	0.552436	0.871715
C46	C	0.584941	-0.180168	-0.000210
C47	C	0.918275	0.153166	0.333123
C48	C	1.251608	0.486499	0.666457
C49	C	0.512047	-0.178964	-0.000219
C50	C	0.845381	0.154369	0.333114
C51	C	1.178714	0.487703	0.666447
C52	C	0.479935	-0.106917	-0.000228
C53	C	0.813269	0.226416	0.333105
C54	C	1.146602	0.559750	0.666438
C55	C	0.520722	-0.036070	-0.000205
C56	C	0.854056	0.297263	0.333128
C57	C	1.187389	0.630597	0.666461
C58	C	0.593614	-0.037276	-0.000187
C59	C	0.926948	0.296057	0.333146
C60	C	1.260281	0.629391	0.666480
N61	N	0.370689	-0.049505	-0.049359
N62	N	0.704023	0.283828	0.283975
N63	N	1.037356	0.617161	0.617308
N64	N	0.301445	-0.048364	-0.049378
N65	N	0.634778	0.284969	0.283955
N66	N	0.968112	0.618302	0.617289
C67	C	0.260316	-0.103279	-0.000281
C68	C	0.593649	0.230055	0.333052
C69	C	0.926983	0.563388	0.666386
N70	N	0.291047	-0.159389	0.048825
N71	N	0.624380	0.173944	0.382158
N72	N	0.957714	0.507278	0.715491
N73	N	0.360298	-0.160532	0.048840
N74	N	0.693631	0.172801	0.382173
N75	N	1.026965	0.506134	0.715507
C76	C	0.400897	-0.105601	-0.000247
C77	C	0.734230	0.227732	0.333086
C78	C	1.067563	0.561065	0.666419
C79	C	0.140498	-0.172817	-0.000308
C80	C	0.473831	0.160517	0.333025
C81	C	0.807164	0.493850	0.666359
C82	C	0.067603	-0.171610	-0.000312
C83	C	0.400936	0.161723	0.333021
C84	C	0.734269	0.495056	0.666354
C85	C	0.076279	-0.028714	-0.000307
C86	C	0.409613	0.304619	0.333027
C87	C	0.742946	0.637953	0.666360
C88	C	0.149173	-0.029923	-0.000294
C89	C	0.482506	0.303411	0.333039
C90	C	0.815839	0.636744	0.666373
C91	C	0.181278	-0.101976	-0.000299
C92	C	0.514611	0.231357	0.333035
C93	C	0.847944	0.564691	0.666368
C94	C	0.957915	-0.098284	-0.000291
C95	C	1.291248	0.235050	0.333042
C96	C	1.624581	0.568383	0.666376
C97	C	1.035495	-0.099563	-0.000320
C98	C	1.368829	0.233770	0.333014
C99	C	1.702162	0.567104	0.666347
C100	C	0.833508	-0.247791	-0.000261
C101	C	1.166842	0.085542	0.333072
C102	C	1.500175	0.418875	0.666405
C103	C	0.839742	-0.334814	-0.000269
C104	C	1.173075	-0.001480	0.333065
C105	C	1.506408	0.331853	0.666398
C106	C	0.881613	0.176369	-0.000259
C107	C	1.214946	0.509702	0.333074
C108	C	1.548280	0.843035	0.666407
C109	C	0.875753	0.258136	-0.000266
C110	C	1.209086	0.591469	0.333067
C111	C	1.542419	0.924802	0.666401
C112	C	0.809751	0.289453	-0.000250
C113	C	1.143084	0.622786	0.333084
C114	C	1.476418	0.956120	0.666417
C115	C	0.749607	0.238999	-0.000235
C116	C	1.082940	0.572332	0.333098
C117	C	1.416273	0.905666	0.666431
C118	C	0.755468	0.157234	-0.000235
C119	C	1.088801	0.490568	0.333098
C120	C	1.422135	0.823901	0.666431
C121	C	0.785458	0.532968	-0.000254
C122	C	1.118792	0.866301	0.333079
C123	C	1.452125	1.199634	0.666412
C124	C	0.779602	0.614739	-0.000252
C125	C	1.112935	0.948072	0.333081
C126	C	1.446268	1.281406	0.666415
C127	C	0.905748	0.633870	-0.000284
C128	C	1.239082	0.967203	0.333049
C129	C	1.572415	1.300536	0.666383
C130	C	0.911604	0.552102	-0.000279
C131	C	1.244937	0.885435	0.333055
C132	C	1.578270	1.218769	0.666388
C133	C	0.851459	0.501656	-0.000269
C134	C	1.184793	0.834989	0.333064
C135	C	1.518126	1.168322	0.666398
N136	N	0.803759	0.373031	-0.000253
N137	N	1.137093	0.706365	0.333080
N138	N	1.470426	1.039698	0.666413
N139	N	0.857452	0.418079	-0.000271
N140	N	1.190785	0.751412	0.333062
N141	N	1.524119	1.084746	0.666395
N142	N	0.838785	-0.094656	-0.205553
N143	N	1.172118	0.238677	0.127781
N144	N	1.505451	0.572010	0.461114
C145	C	0.865130	-0.062959	0.250433
C146	C	1.198463	0.270374	0.583767
C147	C	1.531797	0.603707	0.917100
C148	C	0.861526	-0.067291	0.341242
C149	C	1.194859	0.266042	0.674575
C150	C	1.528193	0.599376	1.007909
C151	C	0.815230	-0.122898	0.386664
C152	C	1.148563	0.210435	0.719998
C153	C	1.481896	0.543768	1.053331
C154	C	0.772530	-0.174172	0.341274
C155	C	1.105863	0.159162	0.674607
C156	C	1.439196	0.492495	1.007940
C157	C	0.776131	-0.169835	0.250467
C158	C	1.109464	0.163498	0.583800
C159	C	1.442797	0.496831	0.917133
C160	C	0.799686	-0.141593	0.658249
C161	C	1.133019	0.191740	0.991583
C162	C	1.466352	0.525073	1.324916
C163	C	0.796089	-0.145927	0.749063
C164	C	1.129423	0.187406	1.082396
C165	C	1.462756	0.520739	1.415729
C166	C	0.885085	-0.039045	0.749025
C167	C	1.218419	0.294288	1.082358
C168	C	1.551752	0.627621	1.415692
C169	C	0.888685	-0.034717	0.658216
C170	C	1.222018	0.298616	0.991550
C171	C	1.555352	0.631949	1.324883
C172	C	0.845982	-0.085988	0.612833
C173	C	1.179316	0.247346	0.946167
C174	C	1.512649	0.580679	1.279500
N175	N	0.811546	-0.127329	0.479486
N176	N	1.144880	0.206004	0.812819
N177	N	1.478213	0.539338	1.146152
N178	N	0.849663	-0.081553	0.520014
N179	N	1.182996	0.251781	0.853347
N180	N	1.516329	0.585114	1.186681
H181	H	0.611076	-0.238839	-0.000215
H182	H	0.944410	0.094494	0.333118
H183	H	1.277743	0.427828	0.666451
Br184	Br	0.971190	0.133875	-0.000269
Br185	Br	1.304524	0.467208	0.333064
Br186	Br	1.637857	0.800541	0.666398
Br187	Br	0.660032	0.281501	-0.000228
Br188	Br	0.993366	0.614834	0.333105
Br189	Br	1.326699	0.948167	0.666439
H190	H	0.954714	0.674952	-0.000293
H191	H	1.288048	1.008285	0.333040
H192	H	1.621381	1.341618	0.666373
H193	H	0.725852	0.640233	-0.000225
H194	H	1.059185	0.973566	0.333109
H195	H	1.392519	1.306900	0.666442
Br196	Br	0.032706	0.069065	-0.000304
Br197	Br	0.366039	0.402398	0.333029
Br198	Br	0.699373	0.735732	0.666362
H199	H	0.478839	-0.236651	-0.000232
H200	H	0.812173	0.096683	0.333102
H201	H	1.145506	0.430016	0.666435
Br202	Br	0.204518	0.066220	-0.000272
Br203	Br	0.537852	0.399554	0.333062
Br204	Br	0.871185	0.732887	0.666395
H205	H	0.494572	0.022592	-0.000224
H206	H	0.827906	0.355925	0.333109
H207	H	1.161239	0.689258	0.666442
Br208	Br	0.943035	0.030534	0.810619
Br209	Br	1.276368	0.363867	1.143952
Br210	Br	1.609701	0.697201	1.477286
Br211	Br	0.673846	0.088768	-0.000220
Br212	Br	1.007179	0.422102	0.333114
Br213	Br	1.340513	0.755435	0.666447
Br214	Br	1.001181	0.509607	-0.000329
Br215	Br	1.334515	0.842941	0.333005
Br216	Br	1.667848	1.176274	0.666338
Br217	Br	0.957376	0.326598	-0.000289
Br218	Br	1.290709	0.659931	0.333045
Br219	Br	1.624042	0.993265	0.666378
H220	H	0.902833	-0.017681	0.213456
H221	H	1.236166	0.315652	0.546790
H222	H	1.569499	0.648985	0.880123
H223	H	0.758387	-0.191213	0.786042
H224	H	1.091721	0.142121	1.119375
H225	H	1.425054	0.475454	1.452708
Br226	Br	0.012258	-0.267757	-0.000329
Br227	Br	0.345592	0.065576	0.333004
Br228	Br	0.678925	0.398910	0.666338
Br229	Br	0.703833	0.464515	-0.000247
Br230	Br	1.037167	0.797848	0.333086
Br231	Br	1.370500	1.131182	0.666420
H232	H	0.896292	-0.025542	0.378194
H233	H	1.229625	0.307792	0.711527
H234	H	1.562958	0.641125	1.044860
Br235	Br	0.951519	0.040747	0.596570
Br236	Br	1.284852	0.374080	0.929903
Br237	Br	1.618186	0.707413	1.263237
Br238	Br	0.718179	-0.239416	0.188873
Br239	Br	1.051512	0.093918	0.522206
Br240	Br	1.384846	0.427251	0.855540
Br241	Br	0.741735	-0.211174	0.596663
Br242	Br	1.075069	0.122159	0.929996
Br243	Br	1.408402	0.455493	1.263330
Br244	Br	0.709692	-0.249635	0.402915
Br245	Br	1.043025	0.083699	0.736248
Br246	Br	1.376358	0.417032	1.069581
H247	H	0.626816	0.020411	-0.000173
H248	H	0.960149	0.353744	0.333160
H249	H	1.293483	0.687077	0.666494
H250	H	0.166638	-0.231487	-0.000299
H251	H	0.499972	0.101846	0.333034
H252	H	0.833305	0.435179	0.666367
