data_functionalizedCrystal
_audit_creation_method	'MofGen! by Chris Wilmer'
_symmetry_space_group_name_H-M	'P1'
_symmetry_Int_Tables_number	1
_symmetry_cell_setting	triclinic
loop_
_symmetry_equiv_pos_as_xyz
  x,y,z
_cell_length_a	16.959455
_cell_length_b	18.101397
_cell_length_c	16.959447
_cell_angle_alpha	89.966326
_cell_angle_beta	89.979626
_cell_angle_gamma	90.017485
loop_
_atom_site_label
_atom_site_type_symbol
_atom_site_fract_x
_atom_site_fract_y
_atom_site_fract_z
Zn1	Zn	1.208382	-0.294874	-0.447018
Zn2	Zn	1.208303	-0.418727	-0.314832
Zn3	Zn	1.076210	-0.294897	-0.314841
Zn4	Zn	1.076174	-0.418672	-0.446956
O5	O	1.142267	-0.356792	-0.380912
O6	O	1.318982	-0.311316	-0.429505
O7	O	1.190763	-0.402333	-0.204222
O8	O	1.093791	-0.191261	-0.332405
O9	O	1.318925	-0.402311	-0.332388
O10	O	1.190897	-0.191244	-0.429514
O11	O	1.093715	-0.311356	-0.204229
O12	O	0.965594	-0.311303	-0.332345
O13	O	1.093729	-0.402217	-0.557575
O14	O	0.965568	-0.402239	-0.429409
O15	O	1.190862	-0.311263	-0.557621
O16	O	1.190728	-0.522352	-0.332328
O17	O	1.093653	-0.522312	-0.429400
C18	C	0.936901	-0.356768	-0.380872
C19	C	0.849044	-0.356776	-0.380874
C20	C	0.477528	-0.404126	-0.330317
C21	C	0.477609	-0.309520	-0.431602
C22	C	0.560155	-0.309508	-0.431583
C23	C	0.601391	-0.356806	-0.380931
C24	C	0.560082	-0.404117	-0.330298
C25	C	0.601471	-0.262203	-0.482221
C26	C	0.684022	-0.262190	-0.482204
C27	C	0.725260	-0.309485	-0.431548
C28	C	0.683945	-0.356797	-0.380912
C29	C	0.725181	-0.404096	-0.330260
C30	C	0.683868	-0.451404	-0.279620
C31	C	0.601319	-0.451412	-0.279642
C32	C	0.807808	-0.309477	-0.431526
C33	C	0.807735	-0.404086	-0.330241
C34	C	1.142200	-0.549203	-0.380873
C35	C	1.142243	-0.631517	-0.380884
C36	C	1.142344	-0.930608	-0.380956
C37	C	1.203250	-0.899277	-0.319717
C38	C	1.203461	-0.813659	-0.319876
C39	C	1.142294	-0.782225	-0.380919
C40	C	1.164869	-0.813230	-0.464238
C41	C	1.165340	-0.898875	-0.463904
C42	C	1.058700	-0.899114	-0.359596
C43	C	1.059113	-0.813465	-0.357737
C44	C	1.142264	-0.698366	-0.380904
C45	C	1.142375	-1.014467	-0.380977
C46	C	1.348435	-0.356817	-0.380952
C47	C	1.436292	-0.356828	-0.380969
C48	C	1.142300	-0.356731	-0.587080
C49	C	1.142314	-0.356705	-0.674937
C50	C	1.142357	-0.163630	-0.380968
C51	C	1.142395	-0.081316	-0.380991
C52	C	1.091836	-0.403982	-1.046391
C53	C	1.192981	-0.309271	-1.046434
C54	C	1.192960	-0.309287	-0.963888
C55	C	1.142377	-0.356652	-0.922590
C56	C	1.091815	-0.404001	-0.963838
C57	C	1.243527	-0.261944	-0.922634
C58	C	1.243508	-0.261959	-0.840083
C59	C	1.192921	-0.309320	-0.798783
C60	C	1.142356	-0.356671	-0.840036
C61	C	1.091773	-0.404035	-0.798738
C62	C	1.041204	-0.451382	-0.839990
C63	C	1.041228	-0.451362	-0.922538
C64	C	1.192897	-0.309340	-0.716235
C65	C	1.091752	-0.404054	-0.716185
C66	C	1.142280	-0.356800	-0.175546
C67	C	1.142419	-0.356617	-0.087689
H68	H	0.717453	-0.489919	-0.238383
H69	H	0.567675	-0.489928	-0.238413
H70	H	1.050662	-0.442529	-1.079982
H71	H	1.284713	-0.223387	-0.956264
H72	H	1.189338	-0.792700	-0.258097
H73	H	0.443887	-0.442642	-0.289085
H74	H	1.042090	-0.793208	-0.296421
H75	H	1.284684	-0.223405	-0.806503
H76	H	0.444030	-0.271016	-0.472845
H77	H	1.189298	-0.919923	-0.257753
H78	H	0.567891	-0.223700	-0.523464
H79	H	1.234168	-0.270713	-1.080063
H80	H	1.225325	-0.791724	-0.482636
H81	H	1.121864	-0.792866	-0.511093
H82	H	1.038161	-0.920776	-0.299894
H83	H	0.717653	-0.223668	-0.523438
H84	H	1.011292	-0.792075	-0.399073
H85	H	0.841442	-0.270961	-0.472758
H86	H	1.264871	-0.920748	-0.333688
H87	H	1.265421	-0.793118	-0.334009
H88	H	1.226480	-0.918796	-0.481997
H89	H	1.234072	-0.270793	-0.682651
H90	H	0.841303	-0.442600	-0.288990
H91	H	1.013320	-0.919375	-0.404199
H92	H	1.122922	-0.919597	-0.511104
H93	H	1.050554	-0.442618	-0.682566
H94	H	1.000023	-0.489950	-0.806354
H95	H	1.000059	-0.489912	-0.956133
