data_functionalizedCrystal
_audit_creation_method	'MofGen! by Chris Wilmer'
_symmetry_space_group_name_H-M	'P1'
_symmetry_Int_Tables_number	1
_symmetry_cell_setting	triclinic
loop_
_symmetry_equiv_pos_as_xyz
  x,y,z
_cell_length_a	11.792241
_cell_length_b	11.792241
_cell_length_c	11.295487
_cell_angle_alpha	94.120228
_cell_angle_beta	85.866312
_cell_angle_gamma	84.193416
loop_
_atom_site_label
_atom_site_type_symbol
_atom_site_fract_x
_atom_site_fract_y
_atom_site_fract_z
O1	O	1.514505	0.147984	-0.098909
O2	O	1.184166	0.164015	-0.098937
O3	O	1.357351	-0.009170	-0.098914
O4	O	1.341320	0.321169	-0.098932
O5	O	1.342126	0.006009	0.099135
O6	O	1.168941	0.179195	0.099112
O7	O	1.499280	0.163164	0.099140
Cu8	Cu	1.332720	0.172565	0.117209
Cu9	Cu	1.350726	0.154613	-0.117007
O10	O	1.326095	0.336349	0.099117
C11	C	1.134263	0.170597	0.000084
C12	C	1.008250	0.167582	0.000074
C13	C	0.777535	0.162042	0.000108
C14	C	0.905922	0.165120	0.000089
C15	C	1.348732	-0.043872	0.000110
C16	C	1.345717	-0.169885	0.000108
C17	C	1.340176	-0.400599	0.000088
C18	C	1.343255	-0.272213	0.000099
C19	C	1.549183	0.156581	0.000116
C20	C	1.675197	0.159596	0.000119
C21	C	1.334714	0.371050	0.000090
C22	C	1.337729	0.497063	0.000084
N23	N	1.320064	0.185191	0.281944
C24	C	1.229043	0.276189	0.468954
C25	C	1.238586	0.266630	0.344292
C26	C	1.392002	0.113303	0.344268
C27	C	1.382458	0.122862	0.468931
C28	C	1.300977	0.204309	0.531270
C29	C	1.291440	0.213872	0.655934
C30	C	1.444849	0.060540	0.655909
C31	C	1.454392	0.050981	0.531246
N32	N	1.363377	0.141984	0.718258
H33	H	1.225097	0.280193	0.706690
H34	H	1.458334	0.046983	0.293496
H35	H	1.180009	0.325161	0.293558
Br36	Br	1.542489	-0.037005	0.740490
H37	H	1.520730	-0.015334	0.480476
Br38	Br	1.118480	0.386736	0.553560
