data_functionalizedCrystal
_audit_creation_method	'MofGen! by Chris Wilmer'
_symmetry_space_group_name_H-M	'P1'
_symmetry_Int_Tables_number	1
_symmetry_cell_setting	triclinic
loop_
_symmetry_equiv_pos_as_xyz
  x,y,z
_cell_length_a	19.288864
_cell_length_b	19.288865
_cell_length_c	18.366186
_cell_angle_alpha	89.993214
_cell_angle_beta	89.979786
_cell_angle_gamma	83.136245
loop_
_atom_site_label
_atom_site_type_symbol
_atom_site_fract_x
_atom_site_fract_y
_atom_site_fract_z
O1	O	-0.921351	-0.086644	0.060791
O2	O	-0.719090	-0.098333	0.060743
O3	O	-0.826065	0.008642	0.060754
O4	O	-0.814376	-0.193619	0.060780
O5	O	-0.826051	0.008638	-0.060345
O6	O	-0.719076	-0.098337	-0.060357
O7	O	-0.921337	-0.086648	-0.060308
Zn8	Zn	-0.820204	-0.092493	-0.079559
Zn9	Zn	-0.820222	-0.092488	0.079994
O10	O	-0.814362	-0.193623	-0.060319
C11	C	-0.825682	0.034516	0.000202
C12	C	-0.824553	0.111620	0.000195
C13	C	-0.693207	-0.097959	0.000187
C14	C	-0.616103	-0.096830	0.000167
C15	C	-0.947220	-0.087022	0.000250
C16	C	-1.024324	-0.088151	0.000274
C17	C	-0.571407	-0.159598	0.000187
C18	C	-0.498960	-0.158537	0.000195
C19	C	-0.471212	-0.094705	0.000198
C20	C	-0.515918	-0.031929	0.000174
C21	C	-0.588364	-0.032991	0.000159
C22	C	-0.362955	-0.044524	0.042642
C23	C	-0.290510	-0.043464	0.042662
C24	C	-0.247767	-0.091425	0.000241
C25	C	-0.277474	-0.140457	-0.042189
C26	C	-0.349920	-0.141520	-0.042205
C27	C	-0.392658	-0.093546	0.000214
C28	C	-0.124514	-0.153047	0.000269
C29	C	-0.052066	-0.151984	0.000272
C30	C	-0.069026	-0.025374	0.000259
C31	C	-0.141473	-0.026439	0.000248
C32	C	-0.169212	-0.090278	0.000256
C33	C	-0.814745	-0.219497	0.000234
C34	C	-0.815874	-0.296601	0.000246
N35	N	-0.820197	-0.092496	-0.188451
C36	C	-0.887321	0.156316	0.000207
C37	C	-0.886260	0.228763	0.000218
C38	C	-0.822428	0.256511	0.000203
C39	C	-0.759652	0.211805	0.000196
C40	C	-0.760714	0.139359	0.000192
C41	C	-0.772243	0.364797	-0.042227
C42	C	-0.771184	0.437241	-0.042228
C43	C	-0.819148	0.479956	0.000219
C44	C	-0.868184	0.450220	0.042657
C45	C	-0.869247	0.377774	0.042653
C46	C	-0.821269	0.335065	0.000208
C47	C	-0.880770	0.603209	0.000244
C48	C	-0.879707	0.675657	0.000259
C49	C	-0.753097	0.658697	0.000230
C50	C	-0.754162	0.586250	0.000221
C51	C	-0.818001	0.558511	0.000225
C52	C	-0.862228	-0.134494	-0.772984
C53	C	-0.862221	-0.134500	-0.696756
C54	C	-0.820229	-0.092480	-0.658662
C55	C	-0.778228	-0.050464	-0.696802
C56	C	-0.778231	-0.050463	-0.773028
C57	C	-0.818502	-0.029856	-0.537905
C58	C	-0.818504	-0.029855	-0.461680
C59	C	-0.820215	-0.092482	-0.423554
C60	C	-0.821939	-0.155112	-0.461663
C61	C	-0.821942	-0.155111	-0.537889
C62	C	-0.820221	-0.092476	-0.576007
C63	C	-0.862202	-0.134507	-0.302769
C64	C	-0.862190	-0.134515	-0.226539
C65	C	-0.778201	-0.050472	-0.226587
C66	C	-0.778209	-0.050470	-0.302815
C67	C	-0.820214	-0.092487	-0.340901
N68	N	-0.820235	-0.092480	0.188885
H69	H	-0.593987	-0.211580	0.000195
H70	H	-0.493322	0.020044	0.000187
H71	H	-0.823333	-0.206109	-0.430623
H72	H	-0.896401	-0.168722	-0.333780
H73	H	-0.397752	-0.005467	0.077191
H74	H	-0.624756	0.018124	0.000144
H75	H	-0.930822	0.712049	0.000273
H76	H	-0.896384	-0.168732	-0.195494
Cl77	Cl	-0.915028	-0.187320	-0.820860
Cl78	Cl	-0.816331	0.048877	-0.413780
Cl79	Cl	-0.681799	0.083166	0.000177
H80	H	-0.374105	-0.181442	-0.076756
H81	H	-0.744006	-0.016263	-0.195571
Cl82	Cl	-0.223747	-0.200756	-0.095522
H83	H	-0.046435	0.026600	0.000306
H84	H	-0.744018	-0.016255	-0.333861
H85	H	-0.817102	0.021146	-0.568941
H86	H	-0.939303	0.133736	0.000212
H87	H	-0.744036	-0.016252	-0.665781
Cl88	Cl	-0.915027	-0.187311	-0.648810
H89	H	-0.744034	-0.016250	-0.804074
H90	H	-0.462561	-0.209652	0.000209
Cl91	Cl	-0.675249	0.530057	0.000203
H92	H	-0.177866	0.024674	0.000236
Cl93	Cl	-0.159390	-0.233300	0.000272
Cl94	Cl	-0.709541	0.474618	-0.095580
H95	H	-0.701123	0.681288	0.000221
Cl96	Cl	0.004125	-0.230900	0.000293
H97	H	-0.266328	-0.003542	0.077215
H98	H	-0.937375	0.265162	0.000231
Cl99	Cl	-0.930885	0.340392	0.096005
Cl100	Cl	-0.961023	0.568333	0.000244
Cl101	Cl	-0.711940	0.311105	-0.095596
Cl102	Cl	-0.928486	0.503911	0.096023
H103	H	-0.823344	-0.206106	-0.568914
H104	H	-0.707679	0.234401	0.000185
