data_functionalizedCrystal
_audit_creation_method	'MofGen! by Chris Wilmer'
_symmetry_space_group_name_H-M	'P1'
_symmetry_Int_Tables_number	1
_symmetry_cell_setting	triclinic
loop_
_symmetry_equiv_pos_as_xyz
  x,y,z
_cell_length_a	27.732048
_cell_length_b	27.732048
_cell_length_c	10.868271
_cell_angle_alpha	89.989927
_cell_angle_beta	90.001179
_cell_angle_gamma	82.642655
loop_
_atom_site_label
_atom_site_type_symbol
_atom_site_fract_x
_atom_site_fract_y
_atom_site_fract_z
O1	O	0.640927	0.057517	-0.102177
O2	O	0.890927	0.307517	0.147823
O3	O	1.140927	0.557517	0.397823
O4	O	1.390927	0.807517	0.647823
O5	O	0.500134	0.066263	-0.102216
O6	O	0.750134	0.316263	0.147784
O7	O	1.000134	0.566263	0.397784
O8	O	1.250134	0.816263	0.647784
O9	O	0.574903	-0.008507	-0.102172
O10	O	0.824903	0.241493	0.147828
O11	O	1.074903	0.491493	0.397828
O12	O	1.324903	0.741493	0.647828
O13	O	0.566157	0.132287	-0.102221
O14	O	0.816157	0.382287	0.147779
O15	O	1.066157	0.632287	0.397779
O16	O	1.316157	0.882287	0.647779
O17	O	0.574897	-0.008510	0.102473
O18	O	0.824897	0.241490	0.352473
O19	O	1.074897	0.491490	0.602473
O20	O	1.324897	0.741490	0.852473
O21	O	0.500127	0.066260	0.102429
O22	O	0.750127	0.316260	0.352429
O23	O	1.000127	0.566260	0.602429
O24	O	1.250127	0.816260	0.852429
O25	O	0.640921	0.057514	0.102468
O26	O	0.890921	0.307514	0.352468
O27	O	1.140921	0.557514	0.602468
O28	O	1.390921	0.807514	0.852468
Zn29	Zn	0.570523	0.061887	0.134940
Zn30	Zn	0.820523	0.311887	0.384940
Zn31	Zn	1.070523	0.561887	0.634940
Zn32	Zn	1.320523	0.811887	0.884940
Zn33	Zn	0.570531	0.061890	-0.134688
Zn34	Zn	0.820531	0.311890	0.115312
Zn35	Zn	1.070531	0.561890	0.365312
Zn36	Zn	1.320531	0.811890	0.615312
O37	O	0.566151	0.132284	0.102424
O38	O	0.816151	0.382284	0.352424
O39	O	1.066151	0.632284	0.602424
O40	O	1.316151	0.882284	0.852424
C41	C	0.482124	0.066078	0.000102
C42	C	0.732124	0.316078	0.250102
C43	C	0.982124	0.566078	0.500102
C44	C	1.232124	0.816078	0.750102
C45	C	0.428469	0.065525	0.000088
C46	C	0.678469	0.315525	0.250088
C47	C	0.928469	0.565525	0.500088
C48	C	1.178469	0.815525	0.750088
C49	C	0.089654	0.106229	0.000127
C50	C	0.339654	0.356229	0.250127
C51	C	0.589654	0.606229	0.500127
C52	C	0.839654	0.856229	0.750127
C53	C	-0.112006	0.104178	0.000139
C54	C	0.137994	0.354178	0.250139
C55	C	0.387994	0.604178	0.500139
C56	C	0.637994	0.854178	0.750139
O57	O	-0.143262	0.141398	0.000179
O58	O	0.106738	0.391398	0.250179
O59	O	0.356738	0.641398	0.500179
O60	O	0.606738	0.891398	0.750179
N61	N	-0.131130	0.059843	0.000152
N62	N	0.118870	0.309843	0.250152
N63	N	0.368870	0.559843	0.500152
N64	N	0.618870	0.809843	0.750152
C65	C	-0.099835	0.016017	0.000170
C66	C	0.150165	0.266017	0.250170
C67	C	0.400165	0.516017	0.500170
C68	C	0.650165	0.766017	0.750170
O69	O	-0.120728	-0.021740	0.000195
O70	O	0.129272	0.228260	0.250195
O71	O	0.379272	0.478260	0.500195
O72	O	0.629272	0.728260	0.750195
C73	C	0.101824	0.018068	0.000168
C74	C	0.351824	0.268068	0.250168
C75	C	0.601824	0.518068	0.500168
C76	C	0.851824	0.768068	0.750168
C77	C	0.120944	0.062407	0.000142
C78	C	0.370944	0.312407	0.250142
C79	C	0.620944	0.562407	0.500142
C80	C	0.870944	0.812407	0.750142
C81	C	0.108775	0.150563	0.000102
C82	C	0.358775	0.400563	0.250102
C83	C	0.608775	0.650563	0.500102
C84	C	0.858775	0.900563	0.750102
C85	C	0.159187	0.151075	0.000093
C86	C	0.409187	0.401075	0.250093
C87	C	0.659187	0.651075	0.500093
C88	C	0.909187	0.901075	0.750093
C89	C	0.190477	0.107253	0.000108
C90	C	0.440477	0.357253	0.250108
C91	C	0.690477	0.607253	0.500108
C92	C	0.940477	0.857253	0.750108
C93	C	0.171356	0.062919	0.000132
C94	C	0.421356	0.312919	0.250132
C95	C	0.671356	0.562919	0.500132
C96	C	0.921356	0.812919	0.750132
C97	C	0.133117	-0.025757	0.000195
C98	C	0.383117	0.224243	0.250195
C99	C	0.633117	0.474243	0.500195
C100	C	0.883117	0.724243	0.750195
C101	C	0.183535	-0.025240	0.000197
C102	C	0.433535	0.224760	0.250197
C103	C	0.683535	0.474760	0.500197
C104	C	0.933535	0.724760	0.750197
C105	C	0.202655	0.019098	0.000171
C106	C	0.452655	0.269098	0.250171
C107	C	0.702655	0.519098	0.500171
C108	C	0.952655	0.769098	0.750171
C109	C	0.253059	0.019609	0.000137
C110	C	0.503059	0.269609	0.250137
C111	C	0.753059	0.519609	0.500137
C112	C	1.003059	0.769609	0.750137
N113	N	0.272183	0.063944	0.000124
N114	N	0.522183	0.313944	0.250124
N115	N	0.772183	0.563944	0.500124
N116	N	1.022183	0.813944	0.750124
C117	C	0.240892	0.107766	0.000109
C118	C	0.490892	0.357766	0.250109
C119	C	0.740892	0.607766	0.500109
C120	C	0.990892	0.857766	0.750109
C121	C	-0.205709	0.014943	0.000170
C122	C	0.044291	0.264943	0.250170
C123	C	0.294291	0.514943	0.500170
C124	C	0.544291	0.764943	0.750170
C125	C	-0.256124	0.014430	0.000168
C126	C	-0.006124	0.264430	0.250168
C127	C	0.243876	0.514430	0.500168
C128	C	0.493876	0.764430	0.750168
C129	C	-0.268291	0.102591	0.000139
C130	C	-0.018291	0.352591	0.250139
C131	C	0.231709	0.602591	0.500139
C132	C	0.481709	0.852591	0.750139
C133	C	-0.217876	0.103104	0.000131
C134	C	0.032124	0.353104	0.250131
C135	C	0.282124	0.603104	0.500131
C136	C	0.532124	0.853104	0.750131
C137	C	-0.186585	0.059278	0.000156
C138	C	0.063415	0.309278	0.250156
C139	C	0.313415	0.559278	0.500156
C140	C	0.563415	0.809278	0.750156
C141	C	0.346761	0.108839	0.000088
C142	C	0.596761	0.358839	0.250088
C143	C	0.846761	0.608839	0.500088
C144	C	1.096761	0.858839	0.750088
C145	C	0.397178	0.109347	0.000073
C146	C	0.647178	0.359347	0.250073
C147	C	0.897178	0.609347	0.500073
C148	C	1.147178	0.859347	0.750073
C149	C	0.409341	0.021186	0.000109
C150	C	0.659341	0.271186	0.250109
C151	C	0.909341	0.521186	0.500109
C152	C	1.159341	0.771186	0.750109
C153	C	0.358929	0.020678	0.000117
C154	C	0.608929	0.270678	0.250117
C155	C	0.858929	0.520678	0.500117
C156	C	1.108929	0.770678	0.750117
C157	C	0.327639	0.064508	0.000111
C158	C	0.577639	0.314508	0.250111
C159	C	0.827639	0.564508	0.500111
C160	C	1.077639	0.814508	0.750111
O161	O	0.284343	-0.017592	0.000111
O162	O	0.534343	0.232408	0.250111
O163	O	0.784343	0.482408	0.500111
O164	O	1.034343	0.732408	0.750111
O165	O	0.261794	0.145518	0.000112
O166	O	0.511794	0.395518	0.250112
O167	O	0.761794	0.645518	0.500112
O168	O	1.011794	0.895518	0.750112
C169	C	0.039242	0.105716	0.000137
C170	C	0.289242	0.355716	0.250137
C171	C	0.539242	0.605716	0.500137
C172	C	0.789242	0.855716	0.750137
C173	C	0.020120	0.061382	0.000161
C174	C	0.270120	0.311382	0.250161
C175	C	0.520120	0.561382	0.500161
C176	C	0.770120	0.811382	0.750161
C177	C	0.051411	0.017560	0.000176
C178	C	0.301411	0.267560	0.250176
C179	C	0.551411	0.517560	0.500176
C180	C	0.801411	0.767560	0.750176
C181	C	-0.030294	0.060869	0.000160
C182	C	0.219706	0.310869	0.250160
C183	C	0.469706	0.560869	0.500160
C184	C	0.719706	0.810869	0.750160
C185	C	-0.061585	0.104691	0.000145
C186	C	0.188415	0.354691	0.250145
C187	C	0.438415	0.604691	0.500145
C188	C	0.688415	0.854691	0.750145
C189	C	-0.042461	0.149026	0.000131
C190	C	0.207539	0.399026	0.250131
C191	C	0.457539	0.649026	0.500131
C192	C	0.707539	0.899026	0.750131
C193	C	0.007951	0.149539	0.000122
C194	C	0.257951	0.399539	0.250122
C195	C	0.507951	0.649539	0.500122
C196	C	0.757951	0.899539	0.750122
C197	C	0.032287	-0.026775	0.000189
C198	C	0.282287	0.223225	0.250189
C199	C	0.532287	0.473225	0.500189
C200	C	0.782287	0.723225	0.750189
C201	C	-0.018125	-0.027284	0.000197
C202	C	0.231875	0.222716	0.250197
C203	C	0.481875	0.472716	0.500197
C204	C	0.731875	0.722716	0.750197
C205	C	-0.049416	0.016538	0.000183
C206	C	0.200584	0.266538	0.250183
C207	C	0.450584	0.516538	0.500183
C208	C	0.700584	0.766538	0.750183
C209	C	0.574716	-0.026515	0.000154
C210	C	0.824716	0.223485	0.250154
C211	C	1.074716	0.473485	0.500154
C212	C	1.324716	0.723485	0.750154
C213	C	0.574164	-0.080170	0.000164
C214	C	0.824164	0.169830	0.250164
C215	C	1.074164	0.419830	0.500164
C216	C	1.324164	0.669830	0.750164
C217	C	0.614867	-0.418985	0.000112
C218	C	0.864867	-0.168985	0.250112
C219	C	1.114867	0.081015	0.500112
C220	C	1.364867	0.331015	0.750112
C221	C	0.612816	-0.620645	0.000094
C222	C	0.862816	-0.370645	0.250094
C223	C	1.112816	-0.120645	0.500094
C224	C	1.362816	0.129355	0.750094
O225	O	0.650037	-0.651900	0.000051
O226	O	0.900037	-0.401900	0.250051
O227	O	1.150037	-0.151900	0.500051
O228	O	1.400037	0.098100	0.750051
N229	N	0.568481	-0.639768	0.000083
N230	N	0.818481	-0.389768	0.250083
N231	N	1.068481	-0.139768	0.500083
N232	N	1.318481	0.110232	0.750083
C233	C	0.524656	-0.608474	0.000068
C234	C	0.774656	-0.358474	0.250068
C235	C	1.024656	-0.108474	0.500068
C236	C	1.274656	0.141526	0.750068
O237	O	0.486899	-0.629367	0.000046
O238	O	0.736899	-0.379367	0.250046
O239	O	0.986899	-0.129367	0.500046
O240	O	1.236899	0.120633	0.750046
C241	C	0.526707	-0.406815	0.000077
C242	C	0.776707	-0.156815	0.250077
C243	C	1.026707	0.093185	0.500077
C244	C	1.276707	0.343185	0.750077
C245	C	0.571045	-0.387694	0.000101
C246	C	0.821045	-0.137694	0.250101
C247	C	1.071045	0.112306	0.500101
C248	C	1.321045	0.362306	0.750101
C249	C	0.659202	-0.399864	0.000134
C250	C	0.909202	-0.149864	0.250134
C251	C	1.159202	0.100136	0.500134
C252	C	1.409202	0.350136	0.750134
C253	C	0.659714	-0.349452	0.000145
C254	C	0.909714	-0.099452	0.250145
C255	C	1.159714	0.150548	0.500145
C256	C	1.409714	0.400548	0.750145
C257	C	0.615892	-0.318161	0.000134
C258	C	0.865892	-0.068161	0.250134
C259	C	1.115892	0.181839	0.500134
C260	C	1.365892	0.431839	0.750134
C261	C	0.571557	-0.337282	0.000112
C262	C	0.821557	-0.087282	0.250112
C263	C	1.071557	0.162718	0.500112
C264	C	1.321557	0.412718	0.750112
C265	C	0.482882	-0.375521	0.000054
C266	C	0.732882	-0.125521	0.250054
C267	C	0.982882	0.124479	0.500054
C268	C	1.232882	0.374479	0.750054
C269	C	0.483399	-0.325104	0.000053
C270	C	0.733399	-0.075104	0.250053
C271	C	0.983399	0.174896	0.500053
C272	C	1.233399	0.424896	0.750053
C273	C	0.527737	-0.305983	0.000076
C274	C	0.777737	-0.055983	0.250076
C275	C	1.027737	0.194017	0.500076
C276	C	1.277737	0.444017	0.750076
C277	C	0.528247	-0.255580	0.000112
C278	C	0.778247	-0.005580	0.250112
C279	C	1.028247	0.244420	0.500112
C280	C	1.278247	0.494420	0.750112
N281	N	0.572583	-0.236456	0.000123
N282	N	0.822583	0.013544	0.250123
N283	N	1.072583	0.263544	0.500123
N284	N	1.322583	0.513544	0.750123
C285	C	0.616405	-0.267747	0.000134
C286	C	0.866405	-0.017747	0.250134
C287	C	1.116405	0.232253	0.500134
C288	C	1.366405	0.482253	0.750134
C289	C	0.523582	-0.714348	0.000066
C290	C	0.773582	-0.464348	0.250066
C291	C	1.023582	-0.214348	0.500066
C292	C	1.273582	0.035652	0.750066
C293	C	0.523069	-0.764762	0.000066
C294	C	0.773069	-0.514762	0.250066
C295	C	1.023069	-0.264762	0.500066
C296	C	1.273069	-0.014762	0.750066
C297	C	0.611230	-0.776930	0.000090
C298	C	0.861230	-0.526930	0.250090
C299	C	1.111230	-0.276930	0.500090
C300	C	1.361230	-0.026930	0.750090
C301	C	0.611742	-0.726514	0.000099
C302	C	0.861742	-0.476514	0.250099
C303	C	1.111742	-0.226514	0.500099
C304	C	1.361742	0.023486	0.750099
C305	C	0.567917	-0.695224	0.000077
C306	C	0.817917	-0.445224	0.250077
C307	C	1.067917	-0.195224	0.500077
C308	C	1.317917	0.054776	0.750077
C309	C	0.617477	-0.161878	0.000159
C310	C	0.867477	0.088122	0.250159
C311	C	1.117477	0.338122	0.500159
C312	C	1.367477	0.588122	0.750159
C313	C	0.617986	-0.111461	0.000175
C314	C	0.867986	0.138539	0.250175
C315	C	1.117986	0.388539	0.500175
C316	C	1.367986	0.638539	0.750175
C317	C	0.529825	-0.099298	0.000145
C318	C	0.779825	0.150702	0.250145
C319	C	1.029825	0.400702	0.500145
C320	C	1.279825	0.650702	0.750145
C321	C	0.529316	-0.149710	0.000135
C322	C	0.779316	0.100290	0.250135
C323	C	1.029316	0.350290	0.500135
C324	C	1.279316	0.600290	0.750135
C325	C	0.573147	-0.180999	0.000138
C326	C	0.823147	0.069001	0.250138
C327	C	1.073147	0.319001	0.500138
C328	C	1.323147	0.569001	0.750138
O329	O	0.491047	-0.224296	0.000142
O330	O	0.741047	0.025704	0.250142
O331	O	0.991047	0.275704	0.500142
O332	O	1.241047	0.525704	0.750142
O333	O	0.654156	-0.246844	0.000130
O334	O	0.904156	0.003156	0.250130
O335	O	1.154156	0.253156	0.500130
O336	O	1.404156	0.503156	0.750130
C337	C	0.614355	-0.469397	0.000101
C338	C	0.864355	-0.219397	0.250101
C339	C	1.114355	0.030603	0.500101
C340	C	1.364355	0.280603	0.750101
C341	C	0.570021	-0.488518	0.000079
C342	C	0.820021	-0.238518	0.250079
C343	C	1.070021	0.011482	0.500079
C344	C	1.320021	0.261482	0.750079
C345	C	0.526198	-0.457228	0.000068
C346	C	0.776198	-0.207228	0.250068
C347	C	1.026198	0.042772	0.500068
C348	C	1.276198	0.292772	0.750068
C349	C	0.569508	-0.538933	0.000079
C350	C	0.819508	-0.288933	0.250079
C351	C	1.069508	-0.038933	0.500079
C352	C	1.319508	0.211067	0.750079
C353	C	0.613330	-0.570223	0.000090
C354	C	0.863330	-0.320223	0.250090
C355	C	1.113330	-0.070223	0.500090
C356	C	1.363330	0.179777	0.750090
C357	C	0.657665	-0.551100	0.000101
C358	C	0.907665	-0.301100	0.250101
C359	C	1.157665	-0.051100	0.500101
C360	C	1.407665	0.198900	0.750101
C361	C	0.658177	-0.500688	0.000112
C362	C	0.908177	-0.250688	0.250112
C363	C	1.158177	-0.000688	0.500112
C364	C	1.408177	0.249312	0.750112
C365	C	0.481863	-0.476351	0.000056
C366	C	0.731863	-0.226351	0.250056
C367	C	0.981863	0.023649	0.500056
C368	C	1.231863	0.273649	0.750056
C369	C	0.481355	-0.526764	0.000047
C370	C	0.731355	-0.276764	0.250047
C371	C	0.981355	-0.026764	0.500047
C372	C	1.231355	0.223236	0.750047
C373	C	0.525177	-0.558054	0.000058
C374	C	0.775177	-0.308054	0.250058
C375	C	1.025177	-0.058054	0.500058
C376	C	1.275177	0.191946	0.750058
C377	C	0.658931	0.057699	0.000147
C378	C	0.908931	0.307699	0.250147
C379	C	1.158931	0.557699	0.500147
C380	C	1.408931	0.807699	0.750147
C381	C	0.712586	0.058252	0.000153
C382	C	0.962586	0.308252	0.250153
C383	C	1.212586	0.558252	0.500153
C384	C	1.462586	0.808252	0.750153
C385	C	0.566338	0.150292	0.000095
C386	C	0.816338	0.400292	0.250095
C387	C	1.066338	0.650292	0.500095
C388	C	1.316338	0.900292	0.750095
C389	C	0.566891	0.203947	0.000077
C390	C	0.816891	0.453947	0.250077
C391	C	1.066891	0.703947	0.500077
C392	C	1.316891	0.953947	0.750077
N393	N	0.570521	0.061884	0.318954
N394	N	0.820521	0.311884	0.568954
N395	N	1.070521	0.561884	0.818954
N396	N	1.320521	0.811884	1.068954
N397	N	0.570537	0.061889	-0.318702
N398	N	0.820537	0.311889	-0.068702
N399	N	1.070537	0.561889	0.181298
N400	N	1.320537	0.811889	0.431298
C401	C	0.570529	0.061889	0.569960
C402	C	0.820529	0.311889	0.819960
C403	C	1.070529	0.561889	1.069960
C404	C	1.320529	0.811889	1.319960
C405	C	0.570523	0.061888	0.430283
C406	C	0.820523	0.311888	0.680283
C407	C	1.070523	0.561888	0.930283
C408	C	1.320523	0.811888	1.180283
H409	H	0.083302	0.186251	0.000095
H410	H	0.333302	0.436251	0.250095
H411	H	0.583302	0.686251	0.500095
H412	H	0.833302	0.936251	0.750095
Br413	Br	0.451816	-0.038284	0.000132
Br414	Br	0.701816	0.211716	0.250132
Br415	Br	0.951816	0.461716	0.500132
Br416	Br	1.201816	0.711716	0.750132
Br417	Br	0.185128	0.211252	0.000063
Br418	Br	0.435128	0.461252	0.250063
Br419	Br	0.685128	0.711252	0.500063
Br420	Br	0.935128	0.961252	0.750063
H421	H	0.412743	0.145454	0.000051
H422	H	0.662743	0.395454	0.250051
H423	H	0.912743	0.645454	0.500051
H424	H	1.162743	0.895454	0.750051
H425	H	-0.293777	0.138273	0.000127
H426	H	-0.043777	0.388273	0.250127
H427	H	0.206223	0.638273	0.500127
H428	H	0.456223	0.888273	0.750127
H429	H	0.694889	-0.425336	0.000139
H430	H	0.944889	-0.175336	0.250139
H431	H	1.194889	0.074664	0.500139
H432	H	1.444889	0.324664	0.750139
H433	H	0.647846	-0.710950	0.000117
H434	H	0.897846	-0.460950	0.250117
H435	H	1.147846	-0.210950	0.500117
H436	H	1.397846	0.039050	0.750117
Br437	Br	-0.282067	-0.045745	0.000166
Br438	Br	-0.032067	0.204255	0.250166
Br439	Br	0.217933	0.454255	0.500166
Br440	Br	0.467933	0.704255	0.750166
H441	H	0.486964	-0.780325	0.000068
H442	H	0.736964	-0.530325	0.250068
H443	H	0.986964	-0.280325	0.500068
H444	H	1.236964	-0.030325	0.750068
Br445	Br	0.033892	0.209715	0.000084
Br446	Br	0.283892	0.459715	0.250084
Br447	Br	0.533892	0.709715	0.500084
Br448	Br	0.783892	0.959715	0.750084
H449	H	0.487892	-0.688875	0.000049
H450	H	0.737892	-0.438875	0.250049
H451	H	0.987892	-0.188875	0.500049
H452	H	1.237892	0.061125	0.750049
Br453	Br	0.670702	-0.819405	0.000102
Br454	Br	0.920702	-0.569405	0.250102
Br455	Br	1.170702	-0.319405	0.500102
Br456	Br	1.420702	-0.069405	0.750102
H457	H	0.209009	-0.060929	0.000218
H458	H	0.459009	0.189071	0.250218
H459	H	0.709009	0.439071	0.500218
H460	H	0.959009	0.689071	0.750218
H461	H	0.343360	-0.015426	0.000120
H462	H	0.593360	0.234574	0.250120
H463	H	0.843360	0.484574	0.500120
H464	H	1.093360	0.734574	0.750120
H465	H	-0.202311	0.139207	0.000117
H466	H	0.047689	0.389207	0.250117
H467	H	0.297689	0.639207	0.500117
H468	H	0.547689	0.889207	0.750117
H469	H	0.695819	-0.333889	0.000160
H470	H	0.945819	-0.083889	0.250160
H471	H	1.195819	0.166111	0.500160
H472	H	1.445819	0.416111	0.750160
H473	H	-0.180236	-0.020747	0.000190
H474	H	0.069764	0.229253	0.250190
H475	H	0.319764	0.479253	0.500190
H476	H	0.569764	0.729253	0.750190
H477	H	0.693347	-0.576585	0.000115
H478	H	0.943347	-0.326585	0.250115
H479	H	1.193347	-0.076585	0.500115
H480	H	1.443347	0.173415	0.750115
Br481	Br	0.107181	-0.085934	0.000203
Br482	Br	0.357181	0.164066	0.250203
Br483	Br	0.607181	0.414066	0.500203
Br484	Br	0.857181	0.664066	0.750203
Br485	Br	-0.084937	0.208499	0.000102
Br486	Br	0.165063	0.458499	0.250102
Br487	Br	0.415063	0.708499	0.500102
Br488	Br	0.665063	0.958499	0.750102
Br489	Br	-0.044068	-0.087463	0.000212
Br490	Br	0.205932	0.162537	0.250212
Br491	Br	0.455932	0.412537	0.500212
Br492	Br	0.705932	0.662537	0.750212
H493	H	0.446777	-0.391080	0.000027
H494	H	0.696777	-0.141080	0.250027
H495	H	0.946777	0.108920	0.500027
H496	H	1.196777	0.358920	0.750027
Br497	Br	0.718354	-0.474746	0.000137
Br498	Br	0.968354	-0.224746	0.250137
Br499	Br	1.218354	0.025254	0.500137
Br500	Br	1.468354	0.275254	0.750137
H501	H	0.493213	-0.165279	0.000150
H502	H	0.743213	0.084721	0.250150
H503	H	0.993213	0.334721	0.500150
H504	H	1.243213	0.584721	0.750150
H505	H	0.057760	-0.062462	0.000204
H506	H	0.307760	0.187538	0.250204
H507	H	0.557760	0.437538	0.500204
H508	H	0.807760	0.687538	0.750204
H509	H	0.321291	0.144530	0.000086
H510	H	0.571291	0.394530	0.250086
H511	H	0.821291	0.644530	0.500086
H512	H	1.071291	0.894530	0.750086
H513	H	0.494146	-0.073812	0.000140
H514	H	0.744146	0.176188	0.250140
H515	H	0.994146	0.426188	0.500140
H516	H	1.244146	0.676188	0.750140
Br517	Br	0.678163	-0.085515	0.000208
Br518	Br	0.928163	0.164485	0.250208
Br519	Br	1.178163	0.414485	0.500208
Br520	Br	1.428163	0.664485	0.750208
H521	H	0.445246	-0.542327	0.000038
H522	H	0.695246	-0.292327	0.250038
H523	H	0.945246	-0.042327	0.500038
H524	H	1.195246	0.207673	0.750038
H525	H	0.653168	-0.187348	0.000156
H526	H	0.903168	0.062652	0.250156
H527	H	1.153168	0.312652	0.500156
H528	H	1.403168	0.562652	0.750156
Br529	Br	0.423918	-0.282641	0.000018
Br530	Br	0.673918	-0.032641	0.250018
Br531	Br	0.923918	0.217359	0.500018
Br532	Br	1.173918	0.467359	0.750018
Br533	Br	0.422384	-0.433892	0.000035
Br534	Br	0.672384	-0.183892	0.250035
Br535	Br	0.922384	0.066108	0.500035
Br536	Br	1.172384	0.316108	0.750035
