data_functionalizedCrystal
_audit_creation_method	'MofGen! by Chris Wilmer'
_symmetry_space_group_name_H-M	'P1'
_symmetry_Int_Tables_number	1
_symmetry_cell_setting	triclinic
loop_
_symmetry_equiv_pos_as_xyz
  x,y,z
_cell_length_a	6.817900
_cell_length_b	17.296766
_cell_length_c	19.453114
_cell_angle_alpha	99.775157
_cell_angle_beta	101.709288
_cell_angle_gamma	102.621013
loop_
_atom_site_label
_atom_site_type_symbol
_atom_site_fract_x
_atom_site_fract_y
_atom_site_fract_z
V1	V	-4.007298	-0.111963	-0.226119
V2	V	-3.507298	0.388037	0.273881
O3	O	-3.994722	0.004520	-0.214543
O4	O	-3.494722	0.504520	0.285457
O5	O	-3.959389	-0.221177	-0.231567
O6	O	-3.459389	0.278823	0.268433
O7	O	-3.950207	-0.110619	-0.321547
O8	O	-3.450207	0.389381	0.178453
O9	O	-4.003969	-0.106804	-0.123940
O10	O	-3.503969	0.393196	0.376060
V11	V	-4.491988	-0.097986	-0.213048
V12	V	-3.991988	0.402014	0.286952
O13	O	-4.265995	-0.142624	-0.254792
O14	O	-3.765995	0.357376	0.245208
O15	O	-4.683488	-0.067326	-0.184376
O16	O	-4.183488	0.432674	0.315624
O17	O	-4.316690	0.011228	-0.207601
O18	O	-3.816690	0.511228	0.292399
O19	O	-4.621960	-0.214469	-0.224625
O20	O	-4.121960	0.285531	0.275375
O21	O	-4.612714	-0.103146	-0.315228
O22	O	-4.112714	0.396854	0.184772
O23	O	-4.325872	-0.099331	-0.117621
O24	O	-3.825872	0.400669	0.382379
C25	C	-3.804791	-0.247789	-0.229805
C26	C	-3.304791	0.252211	0.270195
C27	C	-3.846849	-0.337075	-0.234895
C28	C	-3.346849	0.162925	0.265105
C29	C	-3.832162	-0.367306	-0.172219
C30	C	-3.332162	0.132694	0.327781
C31	C	-3.871700	-0.451201	-0.177004
C32	C	-3.371700	0.048799	0.322996
C33	C	-3.925910	-0.504863	-0.244466
C34	C	-3.425910	-0.004863	0.255534
C35	C	-3.940602	-0.474627	-0.307147
C36	C	-3.440602	0.025373	0.192853
C37	C	-3.901079	-0.390734	-0.302361
C38	C	-3.401079	0.109266	0.197639
C39	C	-4.046980	-0.758751	-0.262171
C40	C	-3.546980	-0.258751	0.237829
C41	C	-4.086497	-0.842649	-0.266952
C42	C	-3.586497	-0.342649	0.233048
C43	C	-4.017595	-0.819216	-0.136809
C44	C	-3.517595	-0.319216	0.363191
C45	C	-3.978063	-0.735323	-0.132029
C46	C	-3.478063	-0.235323	0.367971
C47	C	-3.992769	-0.705095	-0.194710
C48	C	-3.492769	-0.205095	0.305290
C49	C	-3.966318	-0.590616	-0.249359
C50	C	-3.466318	-0.090616	0.250641
C51	C	-3.952375	-0.619343	-0.189817
C52	C	-3.452375	-0.119343	0.310183
C53	C	-3.793077	-0.106760	-0.344582
C54	C	-3.293077	0.393240	0.155418
C55	C	-3.827685	-0.106383	-0.422640
C56	C	-3.327685	0.393617	0.077360
C57	C	-4.025745	-0.110238	-0.463143
C58	C	-3.525745	0.389762	0.036857
C59	C	-4.058264	-0.109884	-0.536487
C60	C	-3.558264	0.390116	-0.036487
C61	C	-3.892720	-0.105692	-0.569329
C62	C	-3.392720	0.394308	-0.069329
C63	C	-3.694630	-0.101832	-0.528816
C64	C	-3.194630	0.398168	-0.028816
C65	C	-3.662113	-0.102178	-0.455472
C66	C	-3.162113	0.397822	0.044528
N67	N	-3.833168	-0.148108	-0.690816
N68	N	-3.333168	0.351892	-0.190816
N69	N	-3.864071	-0.147782	-0.760490
N70	N	-3.364071	0.352218	-0.260490
C71	C	-3.990682	-0.104648	-0.790311
C72	C	-3.490682	0.395352	-0.290311
N73	N	-4.085257	-0.061863	-0.747827
N74	N	-3.585257	0.438137	-0.247827
N75	N	-4.054358	-0.062193	-0.678147
N76	N	-3.554358	0.437807	-0.178147
C77	C	-3.927959	-0.105316	-0.648858
C78	C	-3.427959	0.394684	-0.148858
C79	C	-4.224014	-0.108118	-0.910341
C80	C	-3.724014	0.391882	-0.410341
C81	C	-4.256523	-0.107759	-0.983686
C82	C	-3.756523	0.392241	-0.483686
C83	C	-3.892888	-0.099715	-0.976016
C84	C	-3.392888	0.400285	-0.476016
C85	C	-3.860381	-0.100066	-0.902671
C86	C	-3.360381	0.399934	-0.402671
C87	C	-4.025953	-0.104271	-0.869839
C88	C	-3.525953	0.395729	-0.369839
C89	C	-4.134630	0.037835	-0.209361
C90	C	-3.634630	0.537835	0.290639
C91	C	-4.071810	0.127121	-0.204276
C92	C	-3.571810	0.627121	0.295724
C93	C	-4.146345	-0.103192	-0.094582
C94	C	-3.646345	0.396808	0.405418
C95	C	-4.090975	-0.103565	-0.016523
C96	C	-3.590975	0.396435	0.483477
H97	H	-4.010459	-0.634317	-0.304286
H98	H	-3.510459	-0.134317	0.195714
F99	F	-3.998312	-0.531741	-0.378945
F100	F	-3.498312	-0.031741	0.121055
F101	F	-4.201963	-0.114710	-0.428204
F102	F	-3.701963	0.385290	0.071796
H103	H	-3.908246	-0.575648	-0.134890
H104	H	-3.408246	-0.075648	0.365110
H105	H	-3.913062	-0.366123	-0.353399
H106	H	-3.413062	0.133877	0.146601
H107	H	-3.933935	-0.691636	-0.077095
H108	H	-3.433935	-0.191636	0.422905
F109	F	-4.269073	-0.113982	-0.579600
F110	F	-3.769073	0.386018	-0.079600
F111	F	-4.467334	-0.111859	-1.026791
F112	F	-3.967334	0.388141	-0.526791
F113	F	-3.518447	-0.097368	-0.563770
F114	F	-3.018447	0.402632	-0.063770
F115	F	-3.451304	-0.098077	-0.412365
F116	F	-2.951304	0.401923	0.087635
H117	H	-4.358831	-0.111539	-0.883608
H118	H	-3.858831	0.388461	-0.383608
F119	F	-3.716694	-0.095240	-1.010961
F120	F	-3.216694	0.404760	-0.510961
F121	F	-3.649582	-0.095974	-0.859566
F122	F	-3.149582	0.404026	-0.359566
H123	H	-3.788005	-0.323619	-0.117284
H124	H	-3.288005	0.176381	0.382716
H125	H	-3.859742	-0.475810	-0.125967
H126	H	-3.359742	0.024190	0.374033
H127	H	-4.130633	-0.886340	-0.321890
H128	H	-3.630633	-0.386340	0.178110
F129	F	-4.001957	-0.851394	-0.070104
F130	F	-3.501957	-0.351394	0.429896
H131	H	-4.058932	-0.734149	-0.313210
H132	H	-3.558932	-0.234149	0.186790
