data_functionalizedCrystal
_audit_creation_method	'MofGen! by Chris Wilmer'
_symmetry_space_group_name_H-M	'P1'
_symmetry_Int_Tables_number	1
_symmetry_cell_setting	triclinic
loop_
_symmetry_equiv_pos_as_xyz
  x,y,z
_cell_length_a	15.944499
_cell_length_b	17.699083
_cell_length_c	16.776229
_cell_angle_alpha	89.992455
_cell_angle_beta	90.009732
_cell_angle_gamma	96.619688
loop_
_atom_site_label
_atom_site_type_symbol
_atom_site_fract_x
_atom_site_fract_y
_atom_site_fract_z
O1	O	1.114349	-0.097430	0.066338
O2	O	0.869768	-0.109505	0.066329
O3	O	0.998969	0.006711	0.066326
O4	O	0.985149	-0.213646	0.066340
O5	O	0.998952	0.006718	-0.066250
O6	O	0.869751	-0.109498	-0.066248
O7	O	1.114332	-0.097422	-0.066239
Zn8	Zn	0.992039	-0.103459	-0.087293
Zn9	Zn	0.992062	-0.103469	0.087383
O10	O	0.985132	-0.213639	-0.066237
C11	C	0.838466	-0.109007	0.000039
C12	C	0.745221	-0.107525	0.000036
C13	C	0.453543	-0.175044	0.000052
C14	C	0.514654	-0.139949	0.065418
C15	C	0.409596	-0.102140	0.000054
C16	C	0.514623	-0.139923	-0.065292
C17	C	0.574499	-0.104790	0.000044
C18	C	0.469479	-0.067025	0.065474
C19	C	0.469442	-0.067009	-0.065294
C20	C	0.530536	-0.031862	0.000088
C21	C	0.314599	-0.100616	0.000061
C22	C	0.669495	-0.106309	0.000043
C23	C	0.998465	0.034913	0.000038
C24	C	0.996979	0.118933	0.000038
C25	C	1.145634	-0.097920	0.000052
C26	C	1.238880	-0.099403	0.000061
C27	C	0.985635	-0.241840	0.000054
C28	C	0.987121	-0.325860	0.000059
N29	N	0.992030	-0.103452	-0.206504
C30	C	1.072817	0.167437	0.000039
C31	C	1.071417	0.246382	0.000046
C32	C	0.994177	0.276822	0.000046
C33	C	0.918333	0.228312	0.000047
C34	C	0.919735	0.149368	0.000046
C35	C	0.912678	0.546684	0.000053
C36	C	0.911282	0.625634	0.000052
C37	C	1.064360	0.643698	0.000054
C38	C	1.065762	0.564754	0.000053
C39	C	0.989918	0.516251	0.000058
C40	C	0.991438	0.430649	0.000051
C41	C	0.992656	0.362422	0.000046
C42	C	1.049257	-0.052013	-0.248222
C43	C	1.049262	-0.052012	-0.331674
C44	C	0.992042	-0.103455	-0.373407
C45	C	0.934809	-0.154897	-0.331683
C46	C	0.934801	-0.154893	-0.248232
C47	C	0.934839	-0.154912	-0.668230
C48	C	0.934853	-0.154913	-0.751686
C49	C	1.049300	-0.052031	-0.751672
C50	C	1.049292	-0.052027	-0.668221
C51	C	0.992056	-0.103466	-0.626505
C52	C	0.992051	-0.103465	-0.536016
C53	C	0.992051	-0.103460	-0.463894
N54	N	0.992077	-0.103469	0.206594
H55	H	0.534695	-0.170790	0.120681
N56	N	0.409210	-0.255179	0.000143
H57	H	0.373096	-0.263529	-0.049243
H58	H	0.452573	-0.292510	0.000719
H59	H	1.095860	-0.010126	-0.365641
N60	N	0.574674	0.048344	0.000119
H61	H	0.557503	0.076102	-0.048779
H62	H	0.558265	0.075715	0.049542
N63	N	0.443113	-0.026223	0.138757
H64	H	0.459938	-0.053553	0.188070
H65	H	0.471872	0.027694	0.138908
H66	H	1.126115	0.683200	0.000054
N67	N	0.827970	0.658468	0.000047
H68	H	0.780135	0.615763	0.000051
H69	H	0.824065	0.690827	0.049192
N70	N	0.830880	0.494375	0.000055
H71	H	0.781739	0.525641	0.000051
H72	H	0.828119	0.461233	-0.049092
H73	H	0.888255	-0.196806	-0.785664
N74	N	1.149071	0.531926	0.000060
H75	H	1.138451	0.474555	0.000058
H76	H	1.182246	0.549675	-0.049086
N77	N	0.442869	-0.026188	-0.138498
H78	H	0.459096	-0.053772	-0.187850
H79	H	0.379693	-0.025048	-0.137600
N80	N	0.541129	-0.180774	-0.138489
H81	H	0.512828	-0.234850	-0.138424
H82	H	0.523878	-0.153724	-0.187822
N83	N	0.835027	0.261146	0.000044
H84	H	0.801802	0.243461	-0.049103
H85	H	0.801881	0.243446	0.049222
N86	N	1.156127	0.134608	0.000032
H87	H	1.203957	0.177318	0.000035
H88	H	1.160051	0.102240	0.049178
H89	H	0.888200	-0.196780	-0.214266
H90	H	1.133172	0.285872	0.000046
N91	N	1.111010	0.003454	-0.623210
H92	H	1.147264	0.036043	-0.662302
H93	H	1.078919	0.036928	-0.588600
N94	N	0.837939	0.097049	0.000049
H95	H	0.788794	0.128310	0.000048
H96	H	0.835177	0.063905	-0.049098
H97	H	1.095855	-0.010125	-0.214249
H98	H	1.095902	-0.010144	-0.785647
H99	H	0.888237	-0.196797	-0.634271
H100	H	0.888216	-0.196781	-0.365666
