data_functionalizedCrystal
_audit_creation_method	'MofGen! by Chris Wilmer'
_symmetry_space_group_name_H-M	'P1'
_symmetry_Int_Tables_number	1
_symmetry_cell_setting	triclinic
loop_
_symmetry_equiv_pos_as_xyz
  x,y,z
_cell_length_a	10.654541
_cell_length_b	11.792241
_cell_length_c	9.730217
_cell_angle_alpha	89.996588
_cell_angle_beta	89.999932
_cell_angle_gamma	84.338672
loop_
_atom_site_label
_atom_site_type_symbol
_atom_site_fract_x
_atom_site_fract_y
_atom_site_fract_z
O1	O	1.667388	0.159405	-0.114248
O2	O	1.301866	0.174596	-0.114261
O3	O	1.493497	0.001850	-0.114245
O4	O	1.475756	0.332151	-0.114264
O5	O	1.493491	0.001849	0.114336
O6	O	1.301860	0.174595	0.114320
O7	O	1.667382	0.159403	0.114332
Zn8	Zn	1.484620	0.166999	0.150618
Zn9	Zn	1.484628	0.167001	-0.150547
O10	O	1.475750	0.332149	0.114316
C11	C	1.255068	0.173481	0.000028
C12	C	1.115634	0.170145	0.000024
C13	C	1.492380	-0.040444	0.000045
C14	C	1.489044	-0.166465	0.000044
C15	C	1.087078	0.376710	-0.000006
C16	C	1.007297	0.478420	-0.000026
C17	C	0.876287	0.475279	-0.000027
C18	C	0.825059	0.370416	-0.000004
C19	C	0.904841	0.268706	0.000016
C20	C	1.035851	0.271858	0.000013
C21	C	0.933396	0.062144	0.000056
C22	C	1.064405	0.065282	0.000047
C23	C	0.882167	-0.042719	0.000079
C24	C	0.961949	-0.144432	0.000089
C25	C	1.092966	-0.141286	0.000089
C26	C	1.144187	-0.036428	0.000067
C27	C	1.482911	-0.397192	0.000020
C28	C	1.486319	-0.268799	0.000033
C29	C	1.714180	0.160519	0.000040
C30	C	1.853614	0.163854	0.000035
C31	C	1.476868	0.374443	0.000023
C32	C	1.480203	0.500465	0.000015
N33	N	1.484624	0.166997	0.356154
N34	N	1.484634	0.166994	-0.356083
C35	C	1.654383	0.014075	0.356159
C36	C	1.739271	-0.062382	0.428101
C37	C	1.739283	-0.062383	0.571981
C38	C	1.654397	0.014080	0.643922
C39	C	1.569509	0.090537	0.571979
C40	C	1.569508	0.090532	0.428096
C41	C	1.399746	0.243451	0.571975
C42	C	1.399737	0.243459	0.428095
C43	C	1.314859	0.319914	0.643916
C44	C	1.229975	0.396379	0.571973
C45	C	1.229966	0.396377	0.428085
C46	C	1.314849	0.319917	0.356153
H47	H	1.193752	0.379277	-0.000035
H48	H	1.160836	0.458634	0.369517
H49	H	1.654402	0.014065	0.761076
O50	O	1.821584	-0.136652	0.358033
C51	C	1.753915	-0.207276	0.274795
H52	H	1.655917	-0.162951	0.253273
H53	H	1.744897	-0.291275	0.330196
C54	C	1.944919	-0.285270	0.164537
C55	C	1.824560	-0.230824	0.138094
H56	H	1.988498	-0.299801	0.080216
H57	H	1.990511	-0.237693	0.220620
H58	H	1.937387	-0.355263	0.210708
H59	H	1.832093	-0.160827	0.091940
H60	H	1.778971	-0.278390	0.082001
O61	O	1.170283	-0.240197	0.000046
C62	C	1.096967	-0.333414	0.000103
H63	H	0.999393	-0.305377	-0.043172
H64	H	1.087426	-0.365495	0.109772
C65	C	1.281418	-0.464213	-0.036369
C66	C	1.161580	-0.429780	-0.089532
H67	H	1.321275	-0.523659	-0.091655
H68	H	1.330814	-0.401412	-0.036403
H69	H	1.273450	-0.490940	0.055020
H70	H	1.169550	-0.403040	-0.180913
H71	H	1.112187	-0.492579	-0.089516
O72	O	1.147348	0.470528	0.641795
C73	C	1.022910	0.451042	0.606614
H74	H	1.021693	0.360165	0.567054
H75	H	0.986437	0.513652	0.523105
C76	C	0.939389	0.579559	0.783022
C77	C	0.937893	0.467938	0.734443
H78	H	0.886944	0.589986	0.861870
H79	H	1.023225	0.592691	0.806721
H80	H	0.908998	0.631721	0.713419
H81	H	0.968298	0.415779	0.804040
H82	H	0.854060	0.454798	0.710759
O83	O	1.821621	-0.136610	0.642086
C84	C	1.803445	-0.120185	0.784502
H85	H	1.703885	-0.078608	0.804148
H86	H	1.874904	-0.062649	0.825318
C87	C	1.943833	-0.287198	0.834264
C88	C	1.821547	-0.236140	0.858395
H89	H	1.955004	-0.358722	0.879847
H90	H	1.956083	-0.298261	0.738316
H91	H	2.003368	-0.239239	0.868278
H92	H	1.762015	-0.284092	0.824366
H93	H	1.809288	-0.225087	0.954339
H94	H	1.314854	0.319913	0.238998
H95	H	1.314867	0.319906	0.761070
H96	H	1.049022	0.563797	-0.000041
H97	H	1.250860	-0.033857	0.000051
H98	H	0.811328	0.558101	-0.000034
H99	H	0.718383	0.367868	0.000012
H100	H	0.775491	-0.045269	0.000086
H101	H	0.920227	-0.229803	0.000107
H102	H	1.654391	0.014077	0.239004
