data_functionalizedCrystal
_audit_creation_method	'MofGen! by Chris Wilmer'
_symmetry_space_group_name_H-M	'P1'
_symmetry_Int_Tables_number	1
_symmetry_cell_setting	triclinic
loop_
_symmetry_equiv_pos_as_xyz
  x,y,z
_cell_length_a	25.639242
_cell_length_b	25.639240
_cell_length_c	16.625539
_cell_angle_alpha	90.038438
_cell_angle_beta	90.021538
_cell_angle_gamma	90.025061
loop_
_atom_site_label
_atom_site_type_symbol
_atom_site_fract_x
_atom_site_fract_y
_atom_site_fract_z
Zn1	Zn	0.799284	-0.208257	0.455873
Zn2	Zn	1.132617	0.125076	0.789207
Zn3	Zn	1.465950	0.458409	1.122540
Zn4	Zn	0.799205	-0.295695	0.321017
Zn5	Zn	1.132539	0.037638	0.654350
Zn6	Zn	1.465872	0.370972	0.987683
Zn7	Zn	0.711849	-0.208264	0.321052
Zn8	Zn	1.045182	0.125070	0.654385
Zn9	Zn	1.378516	0.458403	0.987718
Zn10	Zn	0.711814	-0.295652	0.455804
Zn11	Zn	1.045147	0.037682	0.789138
Zn12	Zn	1.378481	0.371015	1.122471
O13	O	0.755538	-0.251967	0.388436
O14	O	1.088871	0.081366	0.721770
O15	O	1.422205	0.414700	1.055103
O16	O	0.872438	-0.219871	0.437999
O17	O	1.205772	0.113462	0.771332
O18	O	1.539105	0.446795	1.104665
O19	O	0.787599	-0.284118	0.208189
O20	O	1.120932	0.049215	0.541522
O21	O	1.454266	0.382549	0.874856
O22	O	0.723495	-0.135098	0.338979
O23	O	1.056828	0.198236	0.672313
O24	O	1.390161	0.531569	1.005646
O25	O	0.872381	-0.284112	0.338920
O26	O	1.205714	0.049222	0.672253
O27	O	1.539047	0.382555	1.005587
O28	O	0.787733	-0.135093	0.438032
O29	O	1.121066	0.198240	0.771366
O30	O	1.454399	0.531574	1.104699
O31	O	0.723419	-0.219883	0.208214
O32	O	1.056752	0.113451	0.541548
O33	O	1.390085	0.446784	0.874881
O34	O	0.638679	-0.219841	0.338913
O35	O	0.972013	0.113493	0.672246
O36	O	1.305346	0.446826	1.005579
O37	O	0.723435	-0.284038	0.568646
O38	O	1.056769	0.049296	0.901979
O39	O	1.390102	0.382629	1.235313
O40	O	0.638654	-0.284044	0.437915
O41	O	0.971987	0.049289	0.771248
O42	O	1.305320	0.382623	1.104581
O43	O	0.787699	-0.219829	0.568697
O44	O	1.121032	0.113504	0.902030
O45	O	1.454366	0.446837	1.235363
O46	O	0.787565	-0.368855	0.338853
O47	O	1.120898	-0.035521	0.672186
O48	O	1.454232	0.297812	1.005520
O49	O	0.723359	-0.368823	0.437881
O50	O	1.056693	-0.035489	0.771214
O51	O	1.390026	0.297844	1.104548
C52	C	0.619695	-0.251939	0.388410
C53	C	0.953029	0.081395	0.721744
C54	C	1.286362	0.414728	1.055077
C55	C	0.561581	-0.251939	0.388418
C56	C	0.894915	0.081394	0.721752
C57	C	1.228248	0.414727	1.055085
C58	C	0.310426	-0.218576	0.440121
C59	C	0.643759	0.114757	0.773454
C60	C	0.977093	0.448090	1.106787
C61	C	0.365030	-0.218571	0.440116
C62	C	0.698364	0.114762	0.773450
C63	C	1.031697	0.448095	1.106783
O64	O	0.393299	-0.190182	0.484070
O65	O	0.726633	0.143151	0.817403
O66	O	1.059966	0.476484	1.150736
N67	N	0.392308	-0.251961	0.388446
N68	N	0.725641	0.081372	0.721779
N69	N	1.058974	0.414706	1.055112
C70	C	0.364978	-0.285362	0.336782
C71	C	0.698311	0.047972	0.670116
C72	C	1.031644	0.381305	1.003449
O73	O	0.393193	-0.313762	0.292833
O74	O	0.726526	0.019571	0.626166
O75	O	1.059860	0.352905	0.959499
C76	C	0.310374	-0.285369	0.336791
C77	C	0.643708	0.047964	0.670125
C78	C	0.977041	0.381298	1.003458
C79	C	0.283100	-0.251973	0.388460
C80	C	0.616433	0.081360	0.721793
C81	C	0.949767	0.414693	1.055126
C82	C	0.283152	-0.185184	0.491785
C83	C	0.616485	0.148149	0.825119
C84	C	0.949818	0.481483	1.158452
C85	C	0.228551	-0.185189	0.491789
C86	C	0.561884	0.148145	0.825122
C87	C	0.895218	0.481478	1.158455
C88	C	0.201225	-0.218586	0.440127
C89	C	0.534558	0.114748	0.773461
C90	C	0.867892	0.448081	1.106794
C91	C	0.228499	-0.251978	0.388463
C92	C	0.561833	0.081355	0.721796
C93	C	0.895166	0.414689	1.055130
C94	C	0.283045	-0.318772	0.285133
C95	C	0.616379	0.014561	0.618466
C96	C	0.949712	0.347895	0.951799
C97	C	0.228438	-0.318777	0.285147
C98	C	0.561772	0.014557	0.618480
C99	C	0.895105	0.347890	0.951813
C100	C	0.201164	-0.285381	0.336815
C101	C	0.534497	0.047952	0.670148
C102	C	0.867831	0.381285	1.003482
C103	C	0.146573	-0.285380	0.336805
C104	C	0.479906	0.047954	0.670138
C105	C	0.813239	0.381287	1.003472
N106	N	0.119295	-0.251990	0.388475
N107	N	0.452629	0.081343	0.721809
N108	N	0.785962	0.414677	1.055142
C109	C	0.146622	-0.218593	0.440137
C110	C	0.479955	0.114740	0.773470
C111	C	0.813288	0.448074	1.106803
C112	C	0.479648	-0.285344	0.336768
C113	C	0.812982	0.047989	0.670101
C114	C	1.146315	0.381323	1.003434
C115	C	0.534251	-0.285334	0.336754
C116	C	0.867584	0.047999	0.670087
C117	C	1.200917	0.381332	1.003420
C118	C	0.534300	-0.218545	0.440089
C119	C	0.867633	0.114789	0.773422
C120	C	1.200966	0.448122	1.106756
C121	C	0.479696	-0.218552	0.440098
C122	C	0.813030	0.114781	0.773432
C123	C	1.146363	0.448115	1.106765
C124	C	0.452371	-0.251955	0.388438
C125	C	0.785704	0.081379	0.721772
C126	C	1.119038	0.414712	1.055105
C127	C	0.031957	-0.218605	0.440139
C128	C	0.365290	0.114728	0.773473
C129	C	0.698623	0.448062	1.106806
C130	C	-0.022649	-0.218611	0.440136
C131	C	0.310684	0.114722	0.773469
C132	C	0.644018	0.448056	1.106802
C133	C	-0.022693	-0.285402	0.336804
C134	C	0.310640	0.047931	0.670137
C135	C	0.643974	0.381264	1.003470
C136	C	0.031907	-0.285395	0.336804
C137	C	0.365241	0.047939	0.670137
C138	C	0.698574	0.381272	1.003471
C139	C	0.059231	-0.251994	0.388478
C140	C	0.392564	0.081339	0.721812
C141	C	0.725898	0.414673	1.055145
O142	O	0.118269	-0.313756	0.292876
O143	O	0.451602	0.019578	0.626210
O144	O	0.784936	0.352911	0.959543
O145	O	0.118400	-0.190202	0.484086
O146	O	0.451733	0.143131	0.817420
O147	O	0.785066	0.476464	1.150753
C148	C	0.755464	-0.387810	0.388373
C149	C	1.088797	-0.054476	0.721707
C150	C	1.422131	0.278857	1.055040
C151	C	0.755480	-0.445924	0.388373
C152	C	1.088814	-0.112590	0.721707
C153	C	1.422147	0.220743	1.055040
C154	C	0.789003	-0.806246	0.440106
C155	C	1.122337	-0.472912	0.773440
C156	C	1.455670	-0.139579	1.106773
C157	C	0.789019	-0.860850	0.440123
C158	C	1.122352	-0.527517	0.773456
C159	C	1.455685	-0.194183	1.106789
O160	O	0.817433	-0.889052	0.484043
O161	O	1.150767	-0.555718	0.817377
O162	O	1.484100	-0.222385	1.150710
N163	N	0.755611	-0.888206	0.388514
N164	N	1.088944	-0.554873	0.721848
N165	N	1.422277	-0.221539	1.055181
C166	C	0.722181	-0.860955	0.336892
C167	C	1.055514	-0.527622	0.670225
C168	C	1.388848	-0.194288	1.003559
O169	O	0.693766	-0.889237	0.292997
O170	O	1.027099	-0.555904	0.626330
O171	O	1.360433	-0.222571	0.959664
C172	C	0.722163	-0.806352	0.336880
C173	C	1.055497	-0.473018	0.670214
C174	C	1.388830	-0.139685	1.003547
C175	C	0.755577	-0.778998	0.388486
C176	C	1.088911	-0.445665	0.721820
C177	C	1.422244	-0.112332	1.055153
C178	C	0.822414	-0.778892	0.491709
C179	C	1.155748	-0.445559	0.825042
C180	C	1.489081	-0.112226	1.158375
C181	C	0.822399	-0.724292	0.491691
C182	C	1.155733	-0.390958	0.825024
C183	C	1.489066	-0.057625	1.158358
C184	C	0.788974	-0.697045	0.440071
C185	C	1.122307	-0.363711	0.773404
C186	C	1.455640	-0.030378	1.106738
C187	C	0.755563	-0.724398	0.388469
C188	C	1.088896	-0.391064	0.721802
C189	C	1.422229	-0.057731	1.055135
C190	C	0.688732	-0.779102	0.285263
C191	C	1.022065	-0.445768	0.618596
C192	C	1.355398	-0.112435	0.951929
C193	C	0.688717	-0.724495	0.285256
C194	C	1.022050	-0.391161	0.618589
C195	C	1.355383	-0.057828	0.951922
C196	C	0.722131	-0.697141	0.336862
C197	C	1.055464	-0.363808	0.670195
C198	C	1.388797	-0.030475	1.003528
C199	C	0.722122	-0.642550	0.336831
C200	C	1.055455	-0.309217	0.670164
C201	C	1.388789	0.024117	1.003498
N202	N	0.755530	-0.615194	0.388439
N203	N	1.088863	-0.281861	0.721773
N204	N	1.422197	0.051473	1.055106
C205	C	0.788956	-0.642441	0.440059
C206	C	1.122289	-0.309108	0.773393
C207	C	1.455623	0.024225	1.106726
C208	C	0.722220	-0.975626	0.336922
C209	C	1.055553	-0.642292	0.670255
C210	C	1.388887	-0.308959	1.003588
C211	C	0.722240	-1.030228	0.336929
C212	C	1.055573	-0.696894	0.670262
C213	C	1.388907	-0.363561	1.003595
C214	C	0.789077	-1.030119	0.440161
C215	C	1.122410	-0.696786	0.773494
C216	C	1.455744	-0.363452	1.106827
C217	C	0.789059	-0.975516	0.440149
C218	C	1.122393	-0.642182	0.773482
C219	C	1.455726	-0.308849	1.106816
C220	C	0.755628	-0.948269	0.388530
C221	C	1.088962	-0.614936	0.721863
C222	C	1.422295	-0.281603	1.055197
C223	C	0.788922	-0.527776	0.440018
C224	C	1.122256	-0.194443	0.773351
C225	C	1.455589	0.138891	1.106685
C226	C	0.788906	-0.473171	0.439993
C227	C	1.122239	-0.139837	0.773327
C228	C	1.455573	0.193496	1.106660
C229	C	0.722067	-0.473284	0.336765
C230	C	1.055401	-0.139951	0.670098
C231	C	1.388734	0.193382	1.003431
C232	C	0.722085	-0.527885	0.336786
C233	C	1.055419	-0.194552	0.670119
C234	C	1.388752	0.138782	1.003453
C235	C	0.755515	-0.555130	0.388419
C236	C	1.088848	-0.221796	0.721752
C237	C	1.422181	0.111537	1.055086
O238	O	0.693720	-0.614313	0.292935
O239	O	1.027054	-0.280980	0.626269
O240	O	1.360387	0.052353	0.959602
O241	O	0.817361	-0.614152	0.483954
O242	O	1.150695	-0.280819	0.817288
O243	O	1.484028	0.052515	1.150621
C244	C	0.891911	-0.251996	0.388463
C245	C	1.225244	0.081338	0.721796
C246	C	1.558578	0.414671	1.055130
C247	C	0.950025	-0.252008	0.388474
C248	C	1.283358	0.081325	0.721808
C249	C	1.616692	0.414659	1.055141
C250	C	0.755572	-0.251928	0.598745
C251	C	1.088905	0.081405	0.932079
C252	C	1.422239	0.414739	1.265412
C253	C	0.755586	-0.251911	0.688367
C254	C	1.088920	0.081422	1.021700
C255	C	1.422253	0.414755	1.355033
C256	C	0.755626	-0.115594	0.388518
C257	C	1.088960	0.217739	0.721851
C258	C	1.422293	0.551073	1.055184
C259	C	0.755664	-0.057480	0.388552
C260	C	1.088997	0.275853	0.721885
C261	C	1.422331	0.609187	1.055219
C262	C	0.755534	-0.251968	0.178946
C263	C	1.088868	0.081365	0.512279
C264	C	1.422201	0.414699	0.845612
C265	C	0.755621	-0.251837	0.089325
C266	C	1.088954	0.081496	0.422658
C267	C	1.422288	0.414829	0.755992
C268	C	0.755611	-0.251853	1.016543
C269	C	1.088944	0.081480	1.349876
C270	C	1.422277	0.414814	1.683209
C271	C	0.755602	-0.251871	0.925234
C272	C	1.088936	0.081463	1.258567
C273	C	1.422269	0.414796	1.591901
C274	C	0.755599	-0.251883	0.852457
C275	C	1.088932	0.081451	1.185791
C276	C	1.422265	0.414784	1.519124
C277	C	0.755590	-0.251900	0.761143
C278	C	1.088923	0.081434	1.094476
C279	C	1.422257	0.414767	1.427810
H280	H	0.305395	-0.157988	0.533858
H281	H	0.638728	0.175345	0.867192
H282	H	0.972061	0.508679	1.200525
H283	H	0.849606	-0.702024	0.533715
H284	H	1.182940	-0.368691	0.867049
H285	H	1.516273	-0.035357	1.200382
H286	H	0.054197	-0.191407	0.482217
H287	H	0.387530	0.141927	0.815550
H288	H	0.720864	0.475260	1.148884
N289	N	0.652693	-0.808595	0.229600
N290	N	0.986026	-0.475262	0.562933
N291	N	1.319359	-0.141929	0.896266
H292	H	0.631516	-0.783041	0.196905
H293	H	0.964850	-0.449707	0.530239
H294	H	1.298183	-0.116374	0.863572
H295	H	0.628490	-0.831249	0.262391
H296	H	0.961823	-0.497916	0.595724
H297	H	1.295157	-0.164583	0.929058
N298	N	0.450183	-0.321367	0.281029
N299	N	0.783516	0.011966	0.614363
N300	N	1.116849	0.345300	0.947696
H301	H	0.427524	-0.300091	0.243730
H302	H	0.760858	0.033243	0.577063
H303	H	1.094191	0.366576	0.910397
H304	H	0.427560	-0.345625	0.313775
H305	H	0.760893	-0.012291	0.647108
H306	H	1.094226	0.321042	0.980441
N307	N	0.312454	-0.354790	0.229402
N308	N	0.645787	-0.021457	0.562735
N309	N	0.979120	0.311877	0.896068
H310	H	0.286849	-0.375946	0.196684
H311	H	0.620183	-0.042613	0.530017
H312	H	0.953516	0.290720	0.863351
H313	H	0.335110	-0.379012	0.262145
H314	H	0.668444	-0.045679	0.595479
H315	H	1.001777	0.287654	0.928812
H316	H	0.054115	-0.312583	0.294725
H317	H	0.387449	0.020750	0.628058
H318	H	0.720782	0.354083	0.961391
H319	H	0.206193	-0.345979	0.243080
H320	H	0.539526	-0.012646	0.576413
H321	H	0.872860	0.320688	0.909747
N322	N	0.652657	-0.695108	0.229582
N323	N	0.985990	-0.361774	0.562915
N324	N	1.319323	-0.028441	0.896248
H325	H	0.631494	-0.720725	0.196895
H326	H	0.964828	-0.387392	0.530229
H327	H	1.298161	-0.054058	0.863562
H328	H	0.673944	-0.672458	0.192288
H329	H	1.007277	-0.339125	0.525621
H330	H	1.340611	-0.005791	0.858955
H331	H	0.694881	-0.550157	0.294758
H332	H	1.028214	-0.216824	0.628091
H333	H	1.361548	0.116510	0.961424
N334	N	0.825090	-0.946013	0.495817
N335	N	1.158424	-0.612680	0.829151
N336	N	1.491757	-0.279346	1.162484
H337	H	0.849326	-0.923355	0.463086
H338	H	1.182659	-0.590022	0.796419
H339	H	1.515993	-0.256688	1.129753
H340	H	0.846232	-0.971596	0.528508
H341	H	1.179566	-0.638262	0.861841
H342	H	1.512899	-0.304929	1.195174
H343	H	0.457493	-0.191358	0.482170
H344	H	0.790826	0.141975	0.815504
H345	H	1.124160	0.475309	1.148837
H346	H	0.556558	-0.191351	0.482155
H347	H	0.889892	0.141982	0.815488
H348	H	1.223225	0.475315	1.148821
N349	N	0.686020	-0.443891	0.281086
N350	N	1.019353	-0.110558	0.614419
N351	N	1.352686	0.222776	0.947752
H352	H	0.691082	-0.405150	0.288912
H353	H	1.024416	-0.071817	0.622245
H354	H	1.357749	0.261516	0.955579
H355	H	0.648676	-0.453453	0.293585
H356	H	0.982010	-0.120120	0.626919
H357	H	1.315343	0.213214	0.960252
H358	H	0.849633	-0.801071	0.533749
H359	H	1.182967	-0.467738	0.867082
H360	H	1.516300	-0.134405	1.200415
H361	H	0.695036	-1.052494	0.294897
H362	H	1.028370	-0.719161	0.628230
H363	H	1.361703	-0.385828	0.961564
N364	N	0.563665	-0.321345	0.281013
N365	N	0.896998	0.011988	0.614347
N366	N	1.230332	0.345322	0.947680
H367	H	0.538063	-0.342500	0.248289
H368	H	0.871397	-0.009167	0.581622
H369	H	1.204730	0.324167	0.914955
H370	H	0.586322	-0.345569	0.313754
H371	H	0.919655	-0.012236	0.647088
H372	H	1.252988	0.321098	0.980421
H373	H	-0.044952	-0.312591	0.294739
H374	H	0.288381	0.020742	0.628073
H375	H	0.621715	0.354075	0.961406
N376	N	0.686164	-0.946240	0.281237
N377	N	1.019498	-0.612907	0.614570
N378	N	1.352831	-0.279573	0.947903
H379	H	0.665007	-0.971859	0.248547
H380	H	0.998340	-0.638526	0.581880
H381	H	1.331673	-0.305193	0.915214
H382	H	0.707454	-0.923590	0.243946
H383	H	1.040787	-0.590257	0.577280
H384	H	1.374121	-0.256923	0.910613
N385	N	0.824948	-0.443668	0.495655
N386	N	1.158281	-0.110335	0.828988
N387	N	1.491614	0.222998	1.162322
H388	H	0.846122	-0.469218	0.528359
H389	H	1.179456	-0.135885	0.861693
H390	H	1.512789	0.197448	1.195026
H391	H	0.803645	-0.421007	0.532932
H392	H	1.136979	-0.087674	0.866265
H393	H	1.470312	0.245659	1.199599
H394	H	-0.044853	-0.191414	0.482210
H395	H	0.288480	0.141920	0.815543
H396	H	0.621813	0.475253	1.148877
N397	N	0.824971	-0.557157	0.495715
N398	N	1.158305	-0.223823	0.829048
N399	N	1.491638	0.109510	1.162382
H400	H	0.846131	-0.531536	0.528400
H401	H	1.179464	-0.198203	0.861733
H402	H	1.512798	0.135130	1.195066
H403	H	0.849190	-0.579815	0.462946
H404	H	1.182523	-0.246482	0.796279
H405	H	1.515856	0.086851	1.129612
H406	H	0.816293	-1.052314	0.482194
H407	H	1.149627	-0.718980	0.815527
H408	H	1.482960	-0.385647	1.148861
H409	H	0.206349	-0.157997	0.533866
H410	H	0.539682	0.175336	0.867199
H411	H	0.873016	0.508670	1.200532
