data_functionalizedCrystal
_audit_creation_method	'MofGen! by Chris Wilmer'
_symmetry_space_group_name_H-M	'P1'
_symmetry_Int_Tables_number	1
_symmetry_cell_setting	triclinic
loop_
_symmetry_equiv_pos_as_xyz
  x,y,z
_cell_length_a	25.639243
_cell_length_b	25.639239
_cell_length_c	21.395355
_cell_angle_alpha	89.980666
_cell_angle_beta	89.972891
_cell_angle_gamma	90.041410
loop_
_atom_site_label
_atom_site_type_symbol
_atom_site_fract_x
_atom_site_fract_y
_atom_site_fract_z
Zn1	Zn	0.799283	-0.208173	-0.354301
Zn2	Zn	1.299283	0.291827	0.145699
Zn3	Zn	0.799189	-0.295593	-0.249522
Zn4	Zn	1.299189	0.204407	0.250478
Zn5	Zn	0.711842	-0.208178	-0.249533
Zn6	Zn	1.211842	0.291822	0.250467
Zn7	Zn	0.711804	-0.295584	-0.354257
Zn8	Zn	1.211804	0.204416	0.145743
O9	O	0.755529	-0.251882	-0.301903
O10	O	1.255529	0.248118	0.198097
O11	O	0.872435	-0.219772	-0.340415
O12	O	1.372435	0.280228	0.159585
O13	O	0.787579	-0.284003	-0.161845
O14	O	1.287579	0.215997	0.338155
O15	O	0.723496	-0.135012	-0.263453
O16	O	1.223496	0.364988	0.236547
O17	O	0.872367	-0.283999	-0.263434
O18	O	1.372367	0.216001	0.236566
O19	O	0.787738	-0.135009	-0.340426
O20	O	1.287738	0.364991	0.159574
O21	O	0.723405	-0.219779	-0.161853
O22	O	1.223405	0.280221	0.338147
O23	O	0.638672	-0.219770	-0.263411
O24	O	1.138672	0.280230	0.236589
O25	O	0.723432	-0.283983	-0.441941
O26	O	1.223432	0.216017	0.058059
O27	O	0.638644	-0.283987	-0.340352
O28	O	1.138644	0.216013	0.159648
O29	O	0.787702	-0.219763	-0.441973
O30	O	1.287702	0.280237	0.058027
O31	O	0.787542	-0.368757	-0.263392
O32	O	1.287542	0.131243	0.236608
O33	O	0.723341	-0.368750	-0.340341
O34	O	1.223341	0.131250	0.159659
C35	C	0.619687	-0.251878	-0.301878
C36	C	1.119687	0.248122	0.198122
C37	C	0.561573	-0.251889	-0.301882
C38	C	1.061573	0.248111	0.198118
C39	C	0.201240	-0.218492	-0.342054
C40	C	0.701240	0.281508	0.157946
C41	C	0.146636	-0.218491	-0.342058
C42	C	0.646636	0.281509	0.157942
O43	O	0.118425	-0.190085	-0.376182
O44	O	0.618425	0.309915	0.123818
N45	N	0.119290	-0.251880	-0.301920
N46	N	0.619290	0.248120	0.198080
C47	C	0.146552	-0.285269	-0.261772
C48	C	0.646552	0.214731	0.238228
O49	O	0.118279	-0.313668	-0.227632
O50	O	0.618279	0.186332	0.272368
C51	C	0.201155	-0.285266	-0.261765
C52	C	0.701155	0.214734	0.238235
C53	C	0.228498	-0.251878	-0.301910
C54	C	0.728498	0.248122	0.198090
C55	C	0.228582	-0.185106	-0.382194
C56	C	0.728582	0.314894	0.117806
C57	C	0.283183	-0.185107	-0.382191
C58	C	0.783183	0.314893	0.117809
C59	C	0.310441	-0.218494	-0.342047
C60	C	0.810441	0.281506	0.157953
C61	C	0.283098	-0.251880	-0.301907
C62	C	0.783098	0.248120	0.198093
C63	C	0.228416	-0.318651	-0.221614
C64	C	0.728416	0.181349	0.278386
C65	C	0.283023	-0.318645	-0.221611
C66	C	0.783023	0.181355	0.278389
C67	C	0.310366	-0.285258	-0.261755
C68	C	0.810366	0.214742	0.238245
C69	C	0.364957	-0.285267	-0.261759
C70	C	0.864957	0.214733	0.238241
N71	N	0.392302	-0.251878	-0.301897
N72	N	0.892302	0.248122	0.198103
C73	C	0.365044	-0.218491	-0.342041
C74	C	0.865044	0.281509	0.157959
C75	C	0.031882	-0.285271	-0.261788
C76	C	0.531882	0.214729	0.238212
C77	C	-0.022721	-0.285276	-0.261797
C78	C	0.477279	0.214724	0.238203
C79	C	-0.022634	-0.218498	-0.342082
C80	C	0.477366	0.281502	0.157918
C81	C	0.031970	-0.218496	-0.342076
C82	C	0.531970	0.281504	0.157924
C83	C	0.059227	-0.251882	-0.301925
C84	C	0.559227	0.248118	0.198075
C85	C	0.479709	-0.218497	-0.342031
C86	C	0.979709	0.281503	0.157969
C87	C	0.534315	-0.218503	-0.342026
C88	C	1.034315	0.281497	0.157974
C89	C	0.534223	-0.285279	-0.261739
C90	C	1.034223	0.214721	0.238261
C91	C	0.479622	-0.285275	-0.261746
C92	C	0.979622	0.214725	0.238254
C93	C	0.452367	-0.251880	-0.301894
C94	C	0.952367	0.248120	0.198106
O95	O	0.393203	-0.313657	-0.227651
O96	O	0.893203	0.186343	0.272349
O97	O	0.393324	-0.190092	-0.376169
O98	O	0.893324	0.309908	0.123831
C99	C	0.755441	-0.387725	-0.301874
C100	C	1.255441	0.112275	0.198126
C101	C	0.755452	-0.445839	-0.301883
C102	C	1.255452	0.054161	0.198117
C103	C	0.789046	-0.806193	-0.261904
C104	C	1.289046	-0.306193	0.238096
C105	C	0.789067	-0.860797	-0.261912
C106	C	1.289067	-0.360797	0.238088
O107	O	0.817539	-0.889026	-0.227889
O108	O	1.317539	-0.389026	0.272111
N109	N	0.755621	-0.888121	-0.301945
N110	N	1.255621	-0.388121	0.198055
C111	C	0.722157	-0.860838	-0.341975
C112	C	1.222157	-0.360838	0.158025
O113	O	0.693712	-0.889093	-0.376027
O114	O	1.193712	-0.389093	0.123973
C115	C	0.722140	-0.806235	-0.341970
C116	C	1.222140	-0.306235	0.158030
C117	C	0.755584	-0.778913	-0.301930
C118	C	1.255584	-0.278913	0.198070
C119	C	0.822488	-0.778871	-0.221869
C120	C	1.322488	-0.278871	0.278131
C121	C	0.822467	-0.724271	-0.221860
C122	C	1.322467	-0.224271	0.278140
C123	C	0.789004	-0.696991	-0.261886
C124	C	1.289004	-0.196991	0.238114
C125	C	0.755563	-0.724313	-0.301921
C126	C	1.255563	-0.224313	0.198079
C127	C	0.688679	-0.778953	-0.382003
C128	C	1.188679	-0.278953	0.117997
C129	C	0.688665	-0.724346	-0.381994
C130	C	1.188665	-0.224346	0.118006
C131	C	0.722109	-0.697024	-0.341955
C132	C	1.222109	-0.197024	0.158045
C133	C	0.722079	-0.642433	-0.341939
C134	C	1.222079	-0.142433	0.158061
N135	N	0.755524	-0.615109	-0.301907
N136	N	1.255524	-0.115109	0.198093
C137	C	0.788987	-0.642388	-0.261880
C138	C	1.288987	-0.142388	0.238120
C139	C	0.722197	-0.975509	-0.341985
C140	C	1.222197	-0.475509	0.158015
C141	C	0.722211	-1.030111	-0.341988
C142	C	1.222211	-0.530111	0.158012
C143	C	0.789121	-1.030066	-0.261926
C144	C	1.289121	-0.530066	0.238074
C145	C	0.789104	-0.975463	-0.261920
C146	C	1.289104	-0.475463	0.238080
C147	C	0.755642	-0.948184	-0.301953
C148	C	1.255642	-0.448184	0.198047
C149	C	0.788940	-0.527723	-0.261864
C150	C	1.288940	-0.027723	0.238136
C151	C	0.788914	-0.473118	-0.261857
C152	C	1.288914	0.026882	0.238143
C153	C	0.722006	-0.473167	-0.341921
C154	C	1.222006	0.026833	0.158079
C155	C	0.722030	-0.527768	-0.341926
C156	C	1.222030	-0.027768	0.158074
C157	C	0.755501	-0.555045	-0.301896
C158	C	1.255501	-0.055045	0.198104
O159	O	0.693623	-0.614169	-0.375946
O160	O	1.193623	-0.114169	0.124054
O161	O	0.817433	-0.614126	-0.227840
O162	O	1.317433	-0.114126	0.272160
C163	C	0.891902	-0.251886	-0.301928
C164	C	1.391902	0.248114	0.198072
C165	C	0.950016	-0.251888	-0.301939
C166	C	1.450016	0.248112	0.198061
C167	C	0.755573	-0.251871	-0.465326
C168	C	1.255573	0.248129	0.034674
C169	C	0.755591	-0.251867	-0.534968
C170	C	1.255591	0.248133	-0.034968
C171	C	0.755632	-0.115509	-0.301945
C172	C	1.255632	0.384491	0.198055
C173	C	0.755676	-0.057395	-0.301964
C174	C	1.255676	0.442605	0.198036
C175	C	0.789055	-0.218426	-0.567698
C176	C	1.289055	0.281574	-0.067698
C177	C	0.789055	-0.218404	-0.633134
C178	C	1.289055	0.281596	-0.133134
C179	C	0.755595	-0.251831	-0.665836
C180	C	1.255595	0.248169	-0.165836
C181	C	0.722125	-0.285274	-0.633097
C182	C	1.222125	0.214726	-0.133097
C183	C	0.722123	-0.285292	-0.567663
C184	C	1.222123	0.214708	-0.067663
C185	C	0.751437	-0.298909	-0.769500
C186	C	1.251437	0.201091	-0.269500
C187	C	0.751442	-0.298892	-0.834933
C188	C	1.251442	0.201108	-0.334933
C189	C	0.755599	-0.251776	-0.867657
C190	C	1.255599	0.248224	-0.367657
C191	C	0.759760	-0.204676	-0.834939
C192	C	1.259760	0.295324	-0.334939
C193	C	0.759758	-0.204693	-0.769505
C194	C	1.259758	0.295307	-0.269505
C195	C	0.755594	-0.251815	-0.736788
C196	C	1.255594	0.248185	-0.236788
C197	C	0.789064	-0.218308	-0.971340
C198	C	1.289064	0.281692	-0.471340
C199	C	0.789059	-0.218285	-1.036777
C200	C	1.289059	0.281715	-0.536777
C201	C	0.722132	-0.285160	-1.036739
C202	C	1.222132	0.214840	-0.536739
C203	C	0.722134	-0.285179	-0.971304
C204	C	1.222134	0.214821	-0.471304
C205	C	0.755602	-0.251753	-0.938608
C206	C	1.255602	0.248247	-0.438608
C207	C	0.755516	-0.251855	-0.139115
C208	C	1.255516	0.248145	0.360885
C209	C	0.755599	-0.251712	-0.069475
C210	C	1.255599	0.248288	0.430525
H211	H	0.305213	-0.345832	-0.188914
H212	H	0.805213	0.154168	0.311086
Br213	Br	0.745802	-0.362813	-0.879329
Br214	Br	1.245802	0.137187	-0.379329
H215	H	0.305440	-0.157919	-0.414880
H216	H	0.805440	0.342081	0.085120
Br217	Br	0.068868	-0.330587	-0.207295
Br218	Br	0.568868	0.169413	0.292705
H219	H	0.457359	-0.312468	-0.229065
H220	H	0.957359	0.187532	0.270935
H221	H	0.694944	-0.953301	-0.374583
H222	H	1.194944	-0.453301	0.125417
Br223	Br	0.571226	-0.330588	-0.207262
Br224	Br	1.071226	0.169412	0.292738
Br225	Br	-0.059822	-0.330597	-0.207321
Br226	Br	0.440178	0.169403	0.292679
H227	H	0.206163	-0.345839	-0.188924
H228	H	0.706163	0.154161	0.311076
Br229	Br	0.676703	-0.330679	-0.523240
Br230	Br	1.176703	0.169321	-0.023240
H231	H	0.747912	-0.337266	-0.742863
H232	H	1.247912	0.162734	-0.242863
Br233	Br	0.834304	-0.436042	-0.207513
Br234	Br	1.334304	0.063958	0.292487
Br235	Br	0.643294	-0.816018	-0.436352
Br236	Br	1.143294	-0.316018	0.063648
H237	H	0.457525	-0.191302	-0.374722
H238	H	0.957525	0.308698	0.125278
H239	H	0.694799	-0.550014	-0.374531
H240	H	1.194799	-0.050014	0.125469
H241	H	0.661417	-0.702138	-0.414596
H242	H	1.161417	-0.202138	0.085404
H243	H	0.849701	-0.702029	-0.189258
H244	H	1.349701	-0.202029	0.310742
H245	H	0.694884	-0.312372	-1.063365
H246	H	1.194884	0.187628	-0.563365
H247	H	0.849740	-0.801076	-0.189274
H248	H	1.349740	-0.301076	0.310726
H249	H	0.763145	-0.166343	-0.742869
H250	H	1.263145	0.333657	-0.242869
Br251	Br	0.834474	-0.173061	-0.523329
Br252	Br	1.334474	0.326939	-0.023329
Br253	Br	0.676712	-0.330637	-0.677477
Br254	Br	1.176712	0.169363	-0.177477
H255	H	0.816304	-0.191169	-0.659788
H256	H	1.316304	0.308831	-0.159788
H257	H	0.206395	-0.157916	-0.414884
H258	H	0.706395	0.342084	0.085116
Br259	Br	0.765406	-0.140728	-0.879341
Br260	Br	1.265406	0.359272	-0.379341
H261	H	0.054228	-0.191307	-0.374763
H262	H	0.554228	0.308693	0.125237
H263	H	0.816313	-0.191088	-0.944718
H264	H	1.316313	0.308912	-0.444718
H265	H	0.694760	-0.450948	-0.374508
H266	H	1.194760	0.049052	0.125492
Br267	Br	0.834365	-0.564733	-0.207536
Br268	Br	1.334365	-0.064733	0.292464
Br269	Br	0.834493	-0.938390	-0.207579
Br270	Br	1.334493	-0.438390	0.292421
H271	H	0.816309	-0.191050	-1.063425
H272	H	1.316309	0.308950	-0.563425
H273	H	-0.044837	-0.191312	-0.374768
H274	H	0.455163	0.308688	0.125232
H275	H	0.816370	-1.052287	-0.229336
H276	H	1.316370	-0.552287	0.270664
H277	H	0.694973	-1.052351	-0.374586
H278	H	1.194973	-0.552351	0.125414
H279	H	0.556575	-0.191314	-0.374719
H280	H	1.056575	0.308686	0.125281
Br281	Br	0.676717	-0.330566	-0.926880
Br282	Br	1.176717	0.169434	-0.426880
