data_functionalizedCrystal
_audit_creation_method	'MofGen! by Chris Wilmer'
_symmetry_space_group_name_H-M	'P1'
_symmetry_Int_Tables_number	1
_symmetry_cell_setting	triclinic
loop_
_symmetry_equiv_pos_as_xyz
  x,y,z
_cell_length_a	19.288840
_cell_length_b	14.044220
_cell_length_c	18.366186
_cell_angle_alpha	89.993222
_cell_angle_beta	89.983729
_cell_angle_gamma	88.157446
loop_
_atom_site_label
_atom_site_type_symbol
_atom_site_fract_x
_atom_site_fract_y
_atom_site_fract_z
O1	O	0.928952	0.118100	-0.060674
O2	O	1.428952	0.618100	0.439326
O3	O	0.727715	0.134072	-0.060649
O4	O	1.227715	0.634072	0.439351
O5	O	0.825313	-0.011885	-0.060654
O6	O	1.325313	0.488115	0.439346
O7	O	0.831354	0.264058	-0.060669
O8	O	1.331354	0.764058	0.439331
O9	O	0.825295	-0.011892	0.060445
O10	O	1.325295	0.488108	0.560445
O11	O	0.727697	0.134065	0.060450
O12	O	1.227697	0.634065	0.560450
O13	O	0.928933	0.118093	0.060425
O14	O	1.428933	0.618093	0.560425
Zn15	Zn	0.828312	0.126078	0.079665
Zn16	Zn	1.328312	0.626078	0.579665
Zn17	Zn	0.828337	0.126087	-0.079889
Zn18	Zn	1.328337	0.626087	0.420111
O19	O	0.831336	0.264050	0.060430
O20	O	1.331336	0.764050	0.560430
C21	C	0.701796	0.133559	-0.000096
C22	C	1.201796	0.633559	0.499904
C23	C	0.624594	0.132028	-0.000087
C24	C	1.124594	0.632028	0.499913
C25	C	0.588353	0.131296	-0.066100
C26	C	1.088353	0.631296	0.433900
C27	C	0.515813	0.129847	-0.066109
C28	C	1.015813	0.629847	0.433891
C29	C	0.479517	0.129111	-0.000101
C30	C	0.979517	0.629111	0.499899
C31	C	0.515766	0.129848	0.065921
C32	C	1.015766	0.629848	0.565921
C33	C	0.588304	0.131306	0.065928
C34	C	1.088304	0.631306	0.565928
C35	C	0.366467	0.071292	0.050464
C36	C	0.866467	0.571292	0.550464
C37	C	0.293930	0.069828	0.050454
C38	C	0.793930	0.569828	0.550454
C39	C	0.255785	0.124617	-0.000119
C40	C	0.755785	0.624617	0.499881
C41	C	0.290185	0.180858	-0.050695
C42	C	0.790185	0.680858	0.449305
C43	C	0.362724	0.182316	-0.050688
C44	C	0.862724	0.682316	0.449312
C45	C	0.400861	0.127530	-0.000101
C46	C	0.900861	0.627530	0.499899
C47	C	0.140888	0.122316	-0.066147
C48	C	0.640888	0.622316	0.433853
C49	C	0.068346	0.120872	-0.066153
C50	C	0.568346	0.620872	0.433847
C51	C	0.068301	0.120863	0.065879
C52	C	0.568301	0.620863	0.565879
C53	C	0.140841	0.122316	0.065883
C54	C	0.640841	0.622316	0.565883
C55	C	0.177130	0.123037	-0.000132
C56	C	0.677130	0.623037	0.499868
C57	C	0.822659	-0.047191	-0.000104
C58	C	1.322659	0.452809	0.499896
C59	C	0.814772	-0.152383	-0.000102
C60	C	1.314772	0.347617	0.499898
C61	C	0.800351	-0.344981	-0.000111
C62	C	1.300351	0.155019	0.499889
C63	C	0.856295	-0.402860	-0.000120
C64	C	1.356295	0.097140	0.499880
C65	C	0.848271	-0.510028	-0.000125
C66	C	1.348271	-0.010028	0.499875
C67	C	0.808374	-0.237802	-0.000106
C68	C	1.308374	0.262198	0.499894
C69	C	0.954852	0.118607	-0.000129
C70	C	1.454852	0.618607	0.499871
C71	C	1.032055	0.120138	-0.000144
C72	C	1.532055	0.620138	0.499856
C73	C	0.833989	0.299357	-0.000122
C74	C	1.333989	0.799357	0.499878
C75	C	0.841877	0.404548	-0.000129
C76	C	1.341877	0.904548	0.499871
N77	N	0.828300	0.126071	0.188556
N78	N	1.328300	0.626071	0.688556
N79	N	0.828353	0.126087	-0.188780
N80	N	1.328353	0.626087	0.311220
C81	C	0.871534	0.061473	0.226654
C82	C	1.371534	0.561473	0.726654
C83	C	0.871538	0.061469	0.302882
C84	C	1.371538	0.561469	0.802882
C85	C	0.828316	0.126079	0.341009
C86	C	1.328316	0.626079	0.841009
C87	C	0.785074	0.190682	0.302901
C88	C	1.285074	0.690682	0.802901
C89	C	0.785066	0.190678	0.226675
C90	C	1.285066	0.690678	0.726675
C91	C	0.824566	0.212423	0.461765
C92	C	1.324566	0.712423	0.961765
C93	C	0.824579	0.212428	0.537990
C94	C	1.324579	0.712428	1.037990
C95	C	0.828337	0.126091	0.576116
C96	C	1.328337	0.626091	1.076116
C97	C	0.832097	0.039745	0.538008
C98	C	1.332097	0.539745	1.038008
C99	C	0.832089	0.039741	0.461782
C100	C	1.332089	0.539741	0.961782
C101	C	0.828320	0.126090	0.423663
C102	C	1.328320	0.626090	0.923663
C103	C	0.871577	0.061483	0.696869
C104	C	1.371577	0.561483	1.196869
C105	C	0.871577	0.061477	0.773098
C106	C	1.371577	0.561477	1.273098
C107	C	0.785116	0.190699	0.773116
C108	C	1.285116	0.690699	1.273116
C109	C	0.785113	0.190696	0.696888
C110	C	1.285113	0.690696	1.196888
C111	C	0.828347	0.126089	0.658770
C112	C	1.328347	0.626089	1.158770
H113	H	0.617895	0.131884	-0.119854
H114	H	1.117895	0.631884	0.380146
F115	F	0.926774	-0.362429	-0.000123
F116	F	1.426774	0.137571	0.499877
F117	F	0.399333	0.242172	-0.104511
F118	F	0.899333	0.742172	0.395489
F119	F	0.836084	-0.052152	0.421227
F120	F	1.336084	0.447848	0.921227
F121	F	0.729877	-0.385411	-0.000106
F122	F	1.229877	0.114589	0.499894
F123	F	0.820582	0.304324	0.578540
F124	F	1.320582	0.804324	1.078540
F125	F	0.917545	-0.007290	0.186087
F126	F	1.417545	0.492710	0.686087
H127	H	0.821494	0.282733	0.430729
H128	H	1.321494	0.782733	0.930729
F129	F	0.739071	0.259442	0.343479
F130	F	1.239071	0.759442	0.843479
H131	H	0.259129	0.225476	-0.091875
H132	H	0.759129	0.725476	0.408125
H133	H	0.749911	0.243302	0.665867
H134	H	1.249911	0.743302	1.165867
H135	H	0.906746	0.008863	0.333907
H136	H	1.406746	0.508863	0.833907
H137	H	0.170435	0.122913	-0.119900
H138	H	0.670435	0.622913	0.380100
F139	F	0.739049	0.259435	0.186126
F140	F	1.239049	0.759435	0.686126
F141	F	0.029776	0.120101	-0.136417
F142	F	0.529776	0.620101	0.363583
H143	H	0.835156	-0.030559	0.569049
H144	H	1.335156	0.469441	1.069049
H145	H	0.486300	0.129253	-0.119866
H146	H	0.986300	0.629253	0.380134
H147	H	0.397519	0.026674	0.091650
H148	H	0.897519	0.526674	0.591650
F149	F	0.179413	0.123090	0.136144
F150	F	0.679413	0.623090	0.636144
H151	H	0.906779	0.008873	0.665832
H152	H	1.406779	0.508873	1.165832
F153	F	0.917590	-0.007285	0.813647
F154	F	1.417590	0.492715	1.313647
F155	F	0.739111	0.259456	0.813690
F156	F	1.239111	0.759456	1.313690
H157	H	0.265927	0.024029	0.091633
H158	H	0.765927	0.524029	0.591633
F159	F	0.029677	0.120088	0.136130
F160	F	0.529677	0.620088	0.636130
H161	H	0.486209	0.129250	0.119665
H162	H	0.986209	0.629250	0.619665
F163	F	0.626876	0.132085	0.136191
F164	F	1.126876	0.632085	0.636191
