data_functionalizedCrystal
_audit_creation_method	'MofGen! by Chris Wilmer'
_symmetry_space_group_name_H-M	'P1'
_symmetry_Int_Tables_number	1
_symmetry_cell_setting	triclinic
loop_
_symmetry_equiv_pos_as_xyz
  x,y,z
_cell_length_a	14.971486
_cell_length_b	10.654550
_cell_length_c	14.048226
_cell_angle_alpha	89.994756
_cell_angle_beta	89.998499
_cell_angle_gamma	84.049516
loop_
_atom_site_label
_atom_site_type_symbol
_atom_site_fract_x
_atom_site_fract_y
_atom_site_fract_z
O1	O	1.187838	0.163659	-0.079049
O2	O	0.927544	0.183257	-0.079074
O3	O	1.063675	-0.009345	-0.079057
O4	O	1.051706	0.356262	-0.079066
O5	O	1.063659	-0.009357	0.079264
O6	O	0.927527	0.183246	0.079247
O7	O	1.187821	0.163648	0.079273
Zn8	Zn	1.057672	0.173445	0.104397
Zn9	Zn	1.057693	0.173460	-0.104198
O10	O	1.051690	0.356250	0.079256
C11	C	0.894206	0.182375	0.000083
C12	C	0.794895	0.179749	0.000073
C13	C	0.738285	0.292898	0.000072
C14	C	0.644972	0.290422	0.000086
C15	C	0.608271	0.174797	0.000095
C16	C	0.664888	0.061639	0.000099
C17	C	0.758199	0.064116	0.000092
C18	C	0.470397	0.056485	0.000112
C19	C	0.377080	0.054007	0.000118
C20	C	0.357171	0.282791	0.000107
C21	C	0.450482	0.285268	0.000100
C22	C	0.507092	0.172110	0.000102
C23	C	1.062788	-0.056139	0.000102
C24	C	1.060159	-0.195555	0.000099
C25	C	1.140311	-0.275900	0.000109
C26	C	1.137835	-0.406894	0.000102
C27	C	0.975048	-0.377185	0.000078
C28	C	0.977525	-0.246193	0.000078
C29	C	1.222945	-0.225262	0.000130
C30	C	1.303104	-0.305609	0.000142
C31	C	1.300628	-0.436603	0.000135
C32	C	1.217993	-0.487250	0.000116
C33	C	1.221159	0.164530	0.000113
C34	C	1.320470	0.167156	0.000117
C35	C	1.052577	0.403044	0.000094
C36	C	1.055206	0.542460	0.000092
N37	N	1.057663	0.173434	0.246758
N38	N	1.057709	0.173461	-0.246559
C39	C	1.117962	0.088185	0.296583
C40	C	1.117968	0.088184	0.396241
C41	C	1.057679	0.173440	0.446071
C42	C	0.997374	0.258693	0.396238
C43	C	0.997365	0.258687	0.296583
C44	C	0.997400	0.258702	0.603953
C45	C	0.997411	0.258710	0.703615
C46	C	1.118003	0.088200	0.703611
C47	C	1.117993	0.088193	0.603955
C48	C	1.057690	0.173448	0.554129
H49	H	0.347201	-0.040145	0.000126
H50	H	0.516488	-0.035661	0.000116
H51	H	1.167104	0.018782	0.744185
C52	C	0.835547	-0.392201	-0.081331
C53	C	0.884222	-0.432857	0.000063
H54	H	0.779477	-0.426578	-0.081339
H55	H	0.825549	-0.302700	-0.081326
H56	H	0.868601	-0.419774	-0.136530
H57	H	0.851170	-0.405276	0.055263
H58	H	0.894217	-0.522378	0.000067
H59	H	0.948291	0.328122	0.563388
H60	H	1.167066	0.018767	0.436808
H61	H	0.804290	-0.028022	0.000092
H62	H	0.311074	0.374929	0.000109
C63	C	0.528483	0.420356	-0.081307
C64	C	0.582748	0.414801	0.000075
H65	H	0.490067	0.497144	-0.081310
H66	H	0.565297	0.416563	-0.136509
H67	H	0.493272	0.351138	-0.081283
H68	H	0.617964	0.484014	0.000048
H69	H	0.545930	0.418607	0.055291
H70	H	0.948316	0.328133	0.744182
H71	H	1.224970	-0.118601	0.000138
C72	C	1.237191	-0.080356	0.613955
C73	C	1.184262	-0.005521	0.549179
H74	H	1.278097	-0.138218	0.580136
H75	H	1.269692	-0.028006	0.652810
H76	H	1.199679	-0.125614	0.652838
H77	H	1.221775	0.039744	0.510300
H78	H	1.151759	-0.057878	0.510307
H79	H	1.215983	-0.593916	0.000100
H80	H	0.948281	0.328105	0.436816
H81	H	1.365897	-0.502018	0.000135
C82	C	0.878174	0.427240	0.306591
C83	C	0.931087	0.352401	0.241811
H84	H	0.837259	0.485099	0.272775
H85	H	0.845684	0.374892	0.345468
H86	H	0.915697	0.472500	0.345451
H87	H	0.893564	0.307133	0.202954
H88	H	0.963579	0.404756	0.202916
H89	H	0.480361	0.379420	0.000084
C90	C	1.400332	-0.175508	-0.081223
C91	C	1.393931	-0.249937	0.000157
H92	H	1.456404	-0.141136	-0.081210
H93	H	1.395995	-0.225984	-0.136426
H94	H	1.352945	-0.108914	-0.081216
H95	H	1.441314	-0.316538	0.000146
H96	H	1.398277	-0.199459	0.055374
C97	C	0.885867	-0.081645	0.081452
C98	C	0.889422	-0.157866	0.000069
H99	H	0.831476	-0.027111	0.081438
H100	H	0.888270	-0.133367	0.136653
H101	H	0.935438	-0.032746	0.081448
H102	H	0.839854	-0.206772	0.000077
H103	H	0.887010	-0.106137	-0.055146
C104	C	0.709224	0.518789	0.000073
C105	C	0.778623	0.419999	0.000065
H106	H	0.734127	0.597257	0.000076
H107	H	0.673243	0.513070	-0.055132
H108	H	0.673245	0.513048	0.055289
H109	H	0.814598	0.425735	-0.055156
H110	H	0.814618	0.425721	0.055275
H111	H	1.167059	0.018765	0.256018
H112	H	0.634998	-0.032505	0.000120
