data_functionalizedCrystal
_audit_creation_method	'MofGen! by Chris Wilmer'
_symmetry_space_group_name_H-M	'P1'
_symmetry_Int_Tables_number	1
_symmetry_cell_setting	triclinic
loop_
_symmetry_equiv_pos_as_xyz
  x,y,z
_cell_length_a	12.811415
_cell_length_b	19.288864
_cell_length_c	18.366186
_cell_angle_alpha	90.022894
_cell_angle_beta	84.562925
_cell_angle_gamma	96.409453
loop_
_atom_site_label
_atom_site_type_symbol
_atom_site_fract_x
_atom_site_fract_y
_atom_site_fract_z
O1	O	0.130934	-0.922003	-0.069428
O2	O	0.630934	-0.422003	0.430572
O3	O	0.148597	-0.719830	-0.070544
O4	O	0.648597	-0.219830	0.429456
O5	O	-0.013052	-0.826002	-0.059893
O6	O	0.486948	-0.326002	0.440107
O7	O	0.292582	-0.815832	-0.080078
O8	O	0.792582	-0.315832	0.419922
O9	O	-0.013060	-0.825984	0.061207
O10	O	0.486940	-0.325984	0.561207
O11	O	0.148589	-0.719812	0.050556
O12	O	0.648589	-0.219812	0.550556
O13	O	0.130926	-0.921985	0.051672
O14	O	0.630926	-0.421985	0.551672
Zn15	Zn	0.139756	-0.820896	0.070341
Zn16	Zn	0.639756	-0.320896	0.570341
Zn17	Zn	0.139766	-0.820920	-0.089213
Zn18	Zn	0.639766	-0.320920	0.410787
O19	O	0.292574	-0.815813	0.041022
O20	O	0.792574	-0.315813	0.541022
C21	C	0.148024	-0.693942	-0.009950
C22	C	0.648024	-0.193942	0.490050
C23	C	0.146318	-0.616830	-0.009818
C24	C	0.646318	-0.116830	0.490182
C25	C	-0.052157	-0.825423	0.003238
C26	C	0.447843	-0.325423	0.503238
C27	C	-0.168668	-0.823715	0.010930
C28	C	0.331332	-0.323715	0.510930
C29	C	0.131498	-0.947873	-0.008923
C30	C	0.631498	-0.447873	0.491077
C31	C	0.133204	-1.024985	-0.009060
C32	C	0.633204	-0.524985	0.490940
C33	C	-0.387583	-0.820513	-0.106656
C34	C	0.112417	-0.320513	0.393344
C35	C	-0.497055	-0.818908	-0.099432
C36	C	0.002945	-0.318908	0.400568
C37	C	-0.497084	-0.818896	0.032599
C38	C	0.002916	-0.318896	0.532599
C39	C	-0.387613	-0.820500	0.025375
C40	C	0.112387	-0.320500	0.525375
C41	C	-0.332866	-0.821310	-0.044254
C42	C	0.167134	-0.321310	0.455746
C43	C	-0.223393	-0.822920	-0.051477
C44	C	0.276607	-0.322920	0.448523
C45	C	-0.223423	-0.822902	0.080554
C46	C	0.276577	-0.322902	0.580554
C47	C	-0.332895	-0.821298	0.087777
C48	C	0.167105	-0.321298	0.587777
C49	C	0.331680	-0.816393	-0.022111
C50	C	0.831680	-0.316393	0.477889
C51	C	0.448190	-0.818101	-0.029807
C52	C	0.948190	-0.318101	0.470193
N53	N	0.139748	-0.820884	0.179233
N54	N	0.639748	-0.320884	0.679233
C55	C	0.241166	-0.572605	-0.016094
C56	C	0.741166	-0.072605	0.483906
C57	C	0.239563	-0.500150	-0.015996
C58	C	0.739563	-0.000150	0.484004
C59	C	0.143107	-0.471923	-0.009637
C60	C	0.643107	0.028077	0.490363
C61	C	0.048247	-0.516158	-0.003356
C62	C	0.548247	-0.016158	0.496644
C63	C	0.049852	-0.588611	-0.003447
C64	C	0.549852	-0.088611	0.496553
C65	C	0.067285	-0.363291	-0.047080
C66	C	0.567285	0.136709	0.452920
C67	C	0.065683	-0.290838	-0.046994
C68	C	0.565683	0.209162	0.453006
C69	C	0.138151	-0.248453	-0.009354
C70	C	0.638151	0.251547	0.490646
C71	C	0.212239	-0.278527	0.028191
C72	C	0.712239	0.221473	0.528191
C73	C	0.213845	-0.350981	0.028100
C74	C	0.713845	0.149019	0.528100
C75	C	0.141356	-0.393360	-0.009537
C76	C	0.641356	0.106640	0.490463
C77	C	0.231268	-0.125663	-0.015523
C78	C	0.731268	0.374337	0.484477
C79	C	0.229661	-0.053207	-0.015420
C80	C	0.729661	0.446793	0.484580
C81	C	0.038342	-0.069217	-0.002788
C82	C	0.538342	0.430783	0.497212
C83	C	0.039952	-0.141671	-0.002883
C84	C	0.539952	0.358329	0.497117
C85	C	0.136417	-0.169890	-0.009254
C86	C	0.636417	0.330110	0.490746
N87	N	0.139766	-0.820936	-0.198104
N88	N	0.639766	-0.320936	0.301896
C89	C	0.068206	-0.867913	0.222047
C90	C	0.568206	-0.367913	0.722047
C91	C	0.068201	-0.867917	0.298275
C92	C	0.568201	-0.367917	0.798275
C93	C	0.139757	-0.820900	0.331685
C94	C	0.639757	-0.320900	0.831685
C95	C	0.211305	-0.773863	0.288861
C96	C	0.711305	-0.273863	0.788861
C97	C	0.211301	-0.773855	0.212635
C98	C	0.711301	-0.273855	0.712635
C99	C	0.235391	-0.812077	0.446131
C100	C	0.735391	-0.312077	0.946131
C101	C	0.235396	-0.812089	0.522356
C102	C	0.735396	-0.312089	1.022356
C103	C	0.139770	-0.820920	0.566792
C104	C	0.639770	-0.320920	1.066792
C105	C	0.044134	-0.829752	0.534995
C106	C	0.544134	-0.329752	1.034995
C107	C	0.044130	-0.829744	0.458768
C108	C	0.544130	-0.329744	0.958768
C109	C	0.139769	-0.820903	0.414339
C110	C	0.639769	-0.320903	0.914339
C111	C	0.068216	-0.867955	0.692262
C112	C	0.568216	-0.367955	1.192262
C113	C	0.068210	-0.867955	0.768491
C114	C	0.568210	-0.367955	1.268491
C115	C	0.211324	-0.773904	0.759075
C116	C	0.711324	-0.273904	1.259075
C117	C	0.211321	-0.773901	0.682848
C118	C	0.711321	-0.273901	1.182848
C119	C	0.139768	-0.820930	0.649445
C120	C	0.639768	-0.320930	1.149445
H121	H	-0.178820	-0.823581	-0.108173
H122	H	0.321180	-0.323581	0.391827
H123	H	-0.033740	-0.836934	0.432882
H124	H	0.466260	-0.336934	0.932882
Br125	Br	0.372083	-0.610898	-0.024739
Br126	Br	0.872083	-0.110898	0.475261
Br127	Br	-0.313281	-0.821625	-0.201149
Br128	Br	0.186719	-0.321625	0.298851
Br129	Br	-0.031077	-0.420807	-0.098167
Br130	Br	0.468923	0.079193	0.401833
H131	H	-0.178862	-0.823554	0.131366
H132	H	0.321138	-0.323554	0.631366
H133	H	0.316802	-0.464135	-0.021104
H134	H	0.816802	0.035865	0.478896
Br135	Br	0.365184	-0.800162	0.385831
Br136	Br	0.865184	-0.300162	0.885831
Br137	Br	-0.571311	-0.817822	-0.184124
Br138	Br	-0.071311	-0.317822	0.315876
Br139	Br	-0.028893	-0.931778	0.646928
Br140	Br	0.471107	-0.431778	1.146928
Br141	Br	0.308411	-0.710048	0.334201
Br142	Br	0.808411	-0.210048	0.834201
H143	H	-0.541677	-0.818231	0.089288
H144	H	-0.041677	-0.318231	0.589288
H145	H	0.269561	-0.735558	0.177775
H146	H	0.769561	-0.235558	0.677775
H147	H	0.313269	-0.804902	0.548239
H148	H	0.813269	-0.304902	1.048239
H149	H	0.009946	-0.906249	0.803352
H150	H	0.509946	-0.406249	1.303352
H151	H	0.269582	-0.735609	0.647986
H152	H	0.769582	-0.235609	1.147986
Br153	Br	-0.407202	-0.820190	0.182269
Br154	Br	0.092798	-0.320190	0.682269
Br155	Br	0.314383	-0.391795	0.079052
Br156	Br	0.814383	0.108205	0.579052
Br157	Br	0.310599	-0.221013	0.079276
Br158	Br	0.810599	0.278987	0.579276
Br159	Br	0.362182	-0.163964	-0.024163
Br160	Br	0.862182	0.336036	0.475837
H161	H	0.306901	-0.017199	-0.020526
H162	H	0.806901	0.482801	0.479474
H163	H	-0.037284	-0.177681	0.002223
H164	H	0.462716	0.322319	0.502223
Br165	Br	-0.092565	-0.030917	0.005855
Br166	Br	0.407435	0.469083	0.505855
H167	H	0.005361	-0.266357	-0.077568
H168	H	0.505361	0.233643	0.422432
H169	H	-0.030288	-0.493171	0.001811
H170	H	0.469712	0.006829	0.501811
H171	H	-0.033734	-0.836942	0.571173
H172	H	0.466266	-0.336942	1.071173
H173	H	0.009941	-0.906205	0.194854
H174	H	0.509941	-0.406205	0.694854
Br175	Br	-0.078880	-0.648636	0.005072
Br176	Br	0.421120	-0.148636	0.505072
H177	H	0.009940	-0.906215	0.333141
H178	H	0.509940	-0.406215	0.833141
H179	H	0.269582	-0.735619	0.786277
H180	H	0.769582	-0.235619	1.286277
