data_functionalizedCrystal
_audit_creation_method	'MofGen! by Chris Wilmer'
_symmetry_space_group_name_H-M	'P1'
_symmetry_Int_Tables_number	1
_symmetry_cell_setting	triclinic
loop_
_symmetry_equiv_pos_as_xyz
  x,y,z
_cell_length_a	14.853567
_cell_length_b	17.038272
_cell_length_c	13.330367
_cell_angle_alpha	89.995338
_cell_angle_beta	89.995418
_cell_angle_gamma	87.373243
loop_
_atom_site_label
_atom_site_type_symbol
_atom_site_fract_x
_atom_site_fract_y
_atom_site_fract_z
O1	O	1.204051	0.102086	-0.083355
O2	O	0.942507	0.114247	-0.083372
O3	O	1.071724	-0.005651	-0.083356
O4	O	1.074833	0.221984	-0.083372
O5	O	1.071704	-0.005654	0.083491
O6	O	0.942486	0.114244	0.083475
O7	O	1.204031	0.102083	0.083492
Cu8	Cu	1.073257	0.108164	0.098718
Cu9	Cu	1.073281	0.108167	-0.098598
O10	O	1.074813	0.221981	0.083476
C11	C	0.908866	0.113695	0.000049
C12	C	0.808658	0.112043	0.000043
C13	C	0.390240	0.033841	0.000071
C14	C	0.379678	0.176283	0.000060
C15	C	0.473828	0.177835	0.000056
C16	C	0.526189	0.107390	0.000059
C17	C	0.484399	0.035392	0.000064
C18	C	0.515626	0.249832	0.000041
C19	C	0.609782	0.251388	0.000036
C20	C	0.662144	0.180941	0.000046
C21	C	0.620349	0.108940	0.000052
C22	C	0.672709	0.038495	0.000055
C23	C	0.630915	-0.033507	0.000068
C24	C	0.536762	-0.035055	0.000074
C25	C	0.756298	0.182489	0.000040
C26	C	0.766869	0.040045	0.000048
C27	C	1.068887	-0.034784	0.000067
C28	C	1.060451	-0.121588	0.000067
C29	C	1.137904	-0.171601	0.000073
C30	C	1.129972	-0.253162	0.000063
C31	C	1.044586	-0.284709	0.000054
C32	C	0.967127	-0.234690	0.000045
C33	C	0.975060	-0.153130	0.000047
C34	C	1.016561	-0.530503	0.000038
C35	C	1.008634	-0.612069	0.000038
C36	C	1.171480	-0.630535	0.000055
C37	C	1.179405	-0.548974	0.000063
C38	C	1.101946	-0.498962	0.000049
C39	C	1.036476	-0.368077	0.000047
C40	C	1.110056	-0.415595	0.000049
C41	C	1.237671	0.102636	0.000068
C42	C	1.337879	0.104287	0.000068
C43	C	1.077651	0.251114	0.000050
C44	C	1.086087	0.337918	0.000044
N45	N	1.073246	0.108161	0.237499
N46	N	1.073298	0.108163	-0.237380
C47	C	1.016059	0.161237	0.710115
C48	C	1.130526	0.055091	0.710098
C49	C	1.130516	0.055088	0.605079
C50	C	1.073277	0.108162	0.552574
C51	C	1.016049	0.161237	0.605087
C52	C	1.187750	0.002019	0.552558
C53	C	1.187743	0.002015	0.447534
C54	C	1.130499	0.055085	0.395026
C55	C	1.073267	0.108162	0.447546
C56	C	1.016028	0.161236	0.395041
C57	C	0.958791	0.214310	0.447558
C58	C	0.958805	0.214308	0.552580
C59	C	1.130485	0.055087	0.290005
C60	C	1.016018	0.161237	0.290012
H61	H	1.207434	-0.145922	0.000086
C62	C	1.215171	-0.308172	0.000080
H63	H	1.267159	-0.277703	0.000100
H64	H	1.215477	-0.340370	-0.058103
H65	H	1.215447	-0.340374	0.058271
H66	H	1.179577	-0.389906	0.000034
H67	H	1.234542	-0.671263	0.000064
C68	C	0.802268	0.261680	0.000022
H69	H	0.757599	0.303412	0.000022
H70	H	0.838782	0.265242	-0.058163
H71	H	0.838773	0.265249	0.058211
C72	C	0.914707	-0.646773	0.000028
H73	H	0.921080	-0.702510	0.000042
H74	H	0.882558	-0.629614	-0.058158
H75	H	0.882545	-0.629615	0.058215
C76	C	0.322085	0.253766	0.000059
H77	H	0.260024	0.242531	0.000069
H78	H	0.335345	0.283289	-0.058123
H79	H	0.335341	0.283278	0.058251
H80	H	1.177133	0.011884	0.752851
C81	C	0.490787	-0.114247	0.000078
H82	H	0.427214	-0.105079	0.000069
H83	H	0.508381	-0.143261	0.058261
H84	H	0.508391	-0.143252	-0.058113
H85	H	1.248935	-0.523295	0.000071
H86	H	0.472987	0.307185	0.000029
H87	H	1.234357	-0.041188	0.595312
C88	C	0.655747	0.330584	0.000035
H89	H	0.611077	0.372316	0.000042
H90	H	0.692264	0.334156	-0.058146
H91	H	0.692249	0.334145	0.058228
H92	H	1.234347	-0.041201	0.404780
H93	H	1.177091	0.011879	0.247250
C94	C	0.931359	-0.475501	0.000040
H95	H	0.879373	-0.505973	0.000048
H96	H	0.931067	-0.443294	-0.058140
H97	H	0.931064	-0.443308	0.058233
C98	C	0.953106	0.219616	0.767878
H99	H	0.961310	0.212020	0.837946
H100	H	0.892282	0.211030	0.750675
H101	H	0.966904	0.271820	0.750658
H102	H	0.897604	-0.260382	0.000031
C103	C	0.889861	-0.098117	0.000043
H104	H	0.837872	-0.128584	0.000046
H105	H	0.889580	-0.065912	-0.058140
H106	H	0.889563	-0.065921	0.058234
C107	C	0.824462	-0.037444	0.000052
H108	H	0.886523	-0.026212	0.000050
H109	H	0.811201	-0.066964	-0.058125
H110	H	0.811203	-0.066958	0.058249
H111	H	0.966954	-0.393771	0.000041
C112	C	0.953056	0.219620	0.232264
H113	H	0.918978	0.251229	0.278585
H114	H	0.913367	0.191435	0.191300
H115	H	0.987987	0.252227	0.191291
H116	H	0.356207	-0.024781	0.000086
C117	C	0.895834	0.272691	0.389800
H118	H	0.861751	0.304304	0.436113
H119	H	0.856150	0.244504	0.348834
H120	H	0.930770	0.305295	0.348828
H121	H	0.912205	0.257519	0.595346
H122	H	0.673560	-0.090863	0.000063
