data_functionalizedCrystal
_audit_creation_method	'MofGen! by Chris Wilmer'
_symmetry_space_group_name_H-M	'P1'
_symmetry_Int_Tables_number	1
_symmetry_cell_setting	triclinic
loop_
_symmetry_equiv_pos_as_xyz
  x,y,z
_cell_length_a	14.044191
_cell_length_b	14.044190
_cell_length_c	14.586319
_cell_angle_alpha	89.991348
_cell_angle_beta	89.998893
_cell_angle_gamma	93.191777
loop_
_atom_site_label
_atom_site_type_symbol
_atom_site_fract_x
_atom_site_fract_y
_atom_site_fract_z
O1	O	1.277177	0.230199	-0.076215
O2	O	1.610510	0.563533	0.257118
O3	O	1.943844	0.896866	0.590452
O4	O	1.000504	0.221887	-0.076226
O5	O	1.333838	0.555220	0.257107
O6	O	1.667171	0.888553	0.590441
O7	O	1.134684	0.087707	-0.076203
O8	O	1.468018	0.421040	0.257131
O9	O	1.801351	0.754373	0.590464
O10	O	1.142997	0.364379	-0.076238
O11	O	1.476330	0.697713	0.257095
O12	O	1.809664	1.031046	0.590428
O13	O	1.134674	0.087704	0.076278
O14	O	1.468007	0.421037	0.409611
O15	O	1.801341	0.754370	0.742945
O16	O	1.000494	0.221884	0.076255
O17	O	1.333827	0.555217	0.409588
O18	O	1.667161	0.888550	0.742921
O19	O	1.277167	0.230196	0.076266
O20	O	1.610500	0.563530	0.409599
O21	O	1.943833	0.896863	0.742932
Cu22	Cu	1.138829	0.226040	0.090183
Cu23	Cu	1.472163	0.559373	0.423516
Cu24	Cu	1.805496	0.892706	0.756850
Cu25	Cu	1.138842	0.226043	-0.090143
Cu26	Cu	1.472175	0.559377	0.243190
Cu27	Cu	1.805508	0.892710	0.576523
O28	O	1.142987	0.364376	0.076242
O29	O	1.476320	0.697710	0.409576
O30	O	1.809653	1.031043	0.742909
C31	C	0.964877	0.218249	0.000013
C32	C	1.298210	0.551582	0.333347
C33	C	1.631544	0.884915	0.666680
C34	C	0.858734	0.207401	0.000010
C35	C	1.192067	0.540735	0.333343
C36	C	1.525400	0.874068	0.666677
C37	C	0.613277	0.264502	0.000012
C38	C	0.946610	0.597835	0.333345
C39	C	1.279943	0.931169	0.666678
C40	C	0.664400	0.187585	0.000020
C41	C	0.997734	0.520919	0.333353
C42	C	1.331067	0.854252	0.666687
C43	C	0.772537	0.198614	0.000014
C44	C	1.105871	0.531947	0.333348
C45	C	1.439204	0.865280	0.666681
C46	C	0.505130	0.253475	0.000017
C47	C	0.838463	0.586809	0.333351
C48	C	1.171796	0.920142	0.666684
C49	C	1.131043	0.052083	0.000040
C50	C	1.464376	0.385416	0.333374
C51	C	1.797709	0.718750	0.666707
C52	C	1.120195	-0.054060	0.000048
C53	C	1.453529	0.279273	0.333381
C54	C	1.786862	0.612606	0.666715
C55	C	1.177296	-0.299517	0.000014
C56	C	1.510629	0.033816	0.333348
C57	C	1.843963	0.367149	0.666681
C58	C	1.100379	-0.248394	0.000018
C59	C	1.433713	0.084940	0.333351
C60	C	1.767046	0.418273	0.666684
C61	C	1.111408	-0.140257	0.000034
C62	C	1.444741	0.193077	0.333368
C63	C	1.778074	0.526410	0.666701
C64	C	1.166269	-0.407664	-0.000003
C65	C	1.499602	-0.074331	0.333331
C66	C	1.832936	0.259002	0.666664
C67	C	1.312794	0.233834	0.000024
C68	C	1.646127	0.567168	0.333358
C69	C	1.979461	0.900501	0.666691
C70	C	1.418937	0.244682	0.000022
C71	C	1.752271	0.578015	0.333355
C72	C	2.085604	0.911348	0.666688
C73	C	1.146628	0.400000	-0.000003
C74	C	1.479962	0.733333	0.333331
C75	C	1.813295	1.066667	0.666664
C76	C	1.157476	0.506143	-0.000016
C77	C	1.490809	0.839477	0.333317
C78	C	1.824142	1.172810	0.666651
N79	N	1.138828	0.226037	0.217015
N80	N	1.472161	0.559371	0.550348
N81	N	1.805494	0.892704	0.883681
N82	N	1.138850	0.226039	-0.216975
N83	N	1.472184	0.559372	0.116358
N84	N	1.805517	0.892706	0.449692
C85	C	1.198266	0.166646	0.452032
C86	C	1.531599	0.499979	0.785365
C87	C	1.864932	0.833313	1.118698
C88	C	1.198268	0.166644	0.548013
C89	C	1.531602	0.499977	0.881346
C90	C	1.864935	0.833310	1.214679
C91	C	1.079405	0.285433	0.548002
C92	C	1.412739	0.618766	0.881335
C93	C	1.746072	0.952099	1.214668
C94	C	1.079399	0.285429	0.452022
C95	C	1.412732	0.618763	0.785355
C96	C	1.746065	0.952096	1.118689
C97	C	1.138834	0.226037	0.404040
C98	C	1.472168	0.559371	0.737373
C99	C	1.805501	0.892704	1.070706
C100	C	1.138844	0.226039	0.596000
C101	C	1.472177	0.559372	0.929334
C102	C	1.805510	0.892705	1.262667
C103	C	1.138846	0.226037	0.700067
C104	C	1.472179	0.559370	1.033401
C105	C	1.805513	0.892704	1.366734
C106	C	1.138831	0.226038	0.299966
C107	C	1.472164	0.559371	0.633299
C108	C	1.805498	0.892704	0.966632
H109	H	0.650720	0.338629	-0.000001
H110	H	0.984053	0.671962	0.333333
H111	H	1.317386	1.005295	0.666666
H112	H	1.246661	0.118284	0.412966
H113	H	1.579994	0.451617	0.746300
H114	H	1.913327	0.784951	1.079633
F115	F	1.261521	0.103430	0.599086
F116	F	1.594855	0.436763	0.932420
F117	F	1.928188	0.770096	1.265753
H118	H	1.251423	-0.262074	0.000027
H119	H	1.584756	0.071259	0.333360
H120	H	1.918089	0.404592	0.666693
F121	F	1.016136	0.348641	0.400941
F122	F	1.349470	0.681974	0.734275
F123	F	1.682803	1.015307	1.067608
H124	H	1.031016	0.333790	0.587079
H125	H	1.364349	0.667123	0.920412
H126	H	1.697682	1.000456	1.253745
F127	F	0.615459	0.090688	0.000033
F128	F	0.948793	0.424021	0.333366
F129	F	1.282126	0.757354	0.666700
F130	F	1.003482	-0.297335	0.000011
F131	F	1.336815	0.035999	0.333345
F132	F	1.670148	0.369332	0.666678
