data_functionalizedCrystal
_audit_creation_method	'MofGen! by Chris Wilmer'
_symmetry_space_group_name_H-M	'P1'
_symmetry_Int_Tables_number	1
_symmetry_cell_setting	triclinic
loop_
_symmetry_equiv_pos_as_xyz
  x,y,z
_cell_length_a	15.944551
_cell_length_b	9.065218
_cell_length_c	8.140239
_cell_angle_alpha	89.998314
_cell_angle_beta	90.001769
_cell_angle_gamma	84.257312
loop_
_atom_site_label
_atom_site_type_symbol
_atom_site_fract_x
_atom_site_fract_y
_atom_site_fract_z
O1	O	1.115964	0.190270	-0.136435
O2	O	1.615964	0.690270	0.363565
O3	O	0.871592	0.213728	-0.136475
O4	O	1.371592	0.713728	0.363525
O5	O	0.998829	-0.012762	-0.136451
O6	O	1.498829	0.487238	0.363549
O7	O	0.988727	0.416759	-0.136459
O8	O	1.488727	0.916759	0.363541
O9	O	0.998822	-0.012764	0.136776
O10	O	1.498822	0.487236	0.636776
O11	O	0.871585	0.213725	0.136752
O12	O	1.371585	0.713725	0.636752
O13	O	1.115956	0.190267	0.136792
O14	O	1.615956	0.690267	0.636792
Zn15	Zn	0.993769	0.201996	0.180152
Zn16	Zn	1.493769	0.701996	0.680152
Zn17	Zn	0.993779	0.201999	-0.179836
Zn18	Zn	1.493779	0.701999	0.320164
O19	O	0.988719	0.416757	0.136768
O20	O	1.488719	0.916757	0.636768
C21	C	0.997854	-0.067727	0.000160
C22	C	1.497854	0.432273	0.500160
C23	C	0.994951	-0.231502	0.000151
C24	C	1.494951	0.268498	0.500151
C25	C	0.840287	0.212753	0.000133
C26	C	1.340287	0.712753	0.500133
C27	C	0.747019	0.209833	0.000118
C28	C	1.247019	0.709833	0.500118
C29	C	0.531045	0.062466	0.000152
C30	C	1.031045	0.562466	0.500152
C31	C	0.470547	0.130900	-0.134564
C32	C	0.970547	0.630900	0.365436
C33	C	0.576253	0.204551	0.000137
C34	C	1.076253	0.704551	0.500137
C35	C	0.470563	0.130931	0.134816
C36	C	0.970563	0.630931	0.634816
C37	C	0.411301	0.199439	0.000163
C38	C	0.911301	0.699439	0.500163
C39	C	0.516983	0.273024	-0.134691
C40	C	1.016983	0.773024	0.365309
C41	C	0.517005	0.273035	0.134811
C42	C	1.017005	0.773035	0.634811
C43	C	0.456525	0.341573	0.000061
C44	C	0.956525	0.841573	0.500061
C45	C	0.671277	0.207493	0.000121
C46	C	1.171277	0.707493	0.500121
C47	C	0.316278	0.196509	0.000168
C48	C	0.816278	0.696509	0.500168
C49	C	1.147261	0.191242	0.000180
C50	C	1.647261	0.691242	0.500180
C51	C	1.240530	0.194162	0.000185
C52	C	1.740530	0.694162	0.500185
C53	C	0.989694	0.471722	0.000153
C54	C	1.489694	0.971722	0.500153
C55	C	0.992597	0.635497	0.000151
C56	C	1.492597	1.135497	0.500151
N57	N	0.993769	0.201993	0.425835
N58	N	1.493769	0.701993	0.925835
N59	N	0.993786	0.201991	-0.425519
N60	N	1.493786	0.701991	0.074481
H61	H	0.449985	0.070804	-0.248456
H62	H	0.949985	0.570804	0.251544
O63	O	0.443357	0.051299	0.285685
O64	O	0.943357	0.551299	0.785685
H65	H	0.373776	0.050772	0.284919
H66	H	0.873776	0.550772	0.784919
O67	O	0.544072	0.352519	-0.285748
O68	O	1.044072	0.852519	0.214252
H69	H	0.576367	0.450041	-0.248050
H70	H	1.076367	0.950041	0.251950
O71	O	0.573987	-0.093751	0.000033
O72	O	1.073987	0.406249	0.500033
H73	H	0.554584	-0.153191	0.110770
H74	H	1.054584	0.346809	0.610770
H75	H	0.424261	0.459614	-0.000016
H76	H	0.924261	0.959614	0.499984
H77	H	0.537588	0.333081	0.248707
H78	H	1.037588	0.833081	0.748707
