data_functionalizedCrystal
_audit_creation_method	'MofGen! by Chris Wilmer'
_symmetry_space_group_name_H-M	'P1'
_symmetry_Int_Tables_number	1
_symmetry_cell_setting	triclinic
loop_
_symmetry_equiv_pos_as_xyz
  x,y,z
_cell_length_a	15.944551
_cell_length_b	18.266242
_cell_length_c	15.944493
_cell_angle_alpha	90.000472
_cell_angle_beta	83.486891
_cell_angle_gamma	90.004545
loop_
_atom_site_label
_atom_site_type_symbol
_atom_site_fract_x
_atom_site_fract_y
_atom_site_fract_z
O1	O	1.114507	0.060795	0.108336
O2	O	1.614507	0.560795	0.608336
O3	O	0.869955	0.060812	0.121693
O4	O	1.369955	0.560812	0.621693
O5	O	0.998934	0.060809	-0.007264
O6	O	1.498934	0.560809	0.492736
O7	O	0.985527	0.060798	0.237293
O8	O	1.485527	0.560798	0.737293
O9	O	0.998912	-0.060953	-0.007270
O10	O	1.498912	0.439047	0.492730
O11	O	0.869933	-0.060950	0.121686
O12	O	1.369933	0.439050	0.621686
O13	O	1.114485	-0.060967	0.108330
O14	O	1.614485	0.439033	0.608330
Zn15	Zn	0.992205	-0.080291	0.115007
Zn16	Zn	1.492205	0.419709	0.615007
Zn17	Zn	0.992234	0.080136	0.115016
Zn18	Zn	1.492234	0.580136	0.615016
O19	O	0.985505	-0.060964	0.237286
O20	O	1.485505	0.439036	0.737286
C21	C	0.838650	-0.000067	0.121135
C22	C	1.338650	0.499933	0.621135
C23	C	0.745404	-0.000060	0.119473
C24	C	1.245404	0.499940	0.619473
N25	N	0.992192	-0.189778	0.115000
N26	N	1.492192	0.310222	0.615000
C27	C	0.530565	-0.000070	0.035566
C28	C	1.030565	0.499930	0.535566
C29	C	0.469547	0.059963	0.074533
C30	C	0.969547	0.559963	0.574533
C31	C	0.574679	-0.000068	0.116465
C32	C	1.074679	0.499932	0.616465
C33	C	0.469548	-0.060085	0.074545
C34	C	0.969548	0.439915	0.574545
C35	C	0.409767	-0.000080	0.113555
C36	C	0.909767	0.499920	0.613555
C37	C	0.514890	0.060015	0.155454
C38	C	1.014890	0.560015	0.655454
C39	C	0.514897	-0.060087	0.155456
C40	C	1.014897	0.439913	0.655456
C41	C	0.453897	-0.000039	0.194481
C42	C	0.953897	0.499961	0.694481
C43	C	0.669681	-0.000061	0.118140
C44	C	1.169681	0.499939	0.618140
C45	C	0.314766	-0.000082	0.111886
C46	C	0.814766	0.499918	0.611886
C47	C	1.049323	-0.228088	0.057927
C48	C	1.549323	0.271912	0.557927
C49	C	1.049328	-0.304733	0.057923
C50	C	1.549328	0.195267	0.557923
C51	C	0.992211	-0.343065	0.115007
C52	C	1.492211	0.156935	0.615007
C53	C	0.935069	-0.304745	0.172085
C54	C	1.435069	0.195255	0.672085
C55	C	0.935060	-0.228102	0.172082
C56	C	1.435060	0.271898	0.672082
N57	N	0.981508	-0.463400	0.189333
N58	N	1.481508	0.036600	0.689333
N59	N	0.981522	-0.536208	0.189333
N60	N	1.481522	-0.036208	0.689333
C61	C	0.992234	-0.573987	0.115019
C62	C	1.492234	-0.073987	0.615019
N63	N	1.002949	-0.536208	0.040702
N64	N	1.502949	-0.036208	0.540702
N65	N	1.002939	-0.463393	0.040703
N66	N	1.502939	0.036607	0.540703
C67	C	0.992214	-0.426172	0.115017
C68	C	1.492214	0.073828	0.615017
C69	C	1.049374	-0.695404	0.057936
C70	C	1.549374	-0.195404	0.557936
C71	C	1.049374	-0.772051	0.057931
C72	C	1.549374	-0.272051	0.557931
C73	C	0.935118	-0.772062	0.172101
C74	C	1.435118	-0.272062	0.672101
C75	C	0.935115	-0.695417	0.172099
C76	C	1.435115	-0.195417	0.672099
C77	C	0.992247	-0.657093	0.115018
C78	C	1.492247	-0.157093	0.615018
C79	C	1.145790	-0.000087	0.108887
C80	C	1.645790	0.499913	0.608887
C81	C	1.239036	-0.000089	0.110550
C82	C	1.739036	0.499911	0.610550
C83	C	0.998375	-0.000069	-0.038562
C84	C	1.498375	0.499931	0.461438
C85	C	0.996733	-0.000059	-0.131810
C86	C	1.496733	0.499941	0.368190
N87	N	0.992254	0.189623	0.115016
N88	N	1.492254	0.689623	0.615016
C89	C	1.072653	-0.000079	-0.367570
C90	C	1.572653	0.499921	0.132430
C91	C	1.031723	0.059959	-0.418135
C92	C	1.531723	0.559959	0.081865
C93	C	0.993688	-0.000068	-0.302531
C94	C	1.493688	0.499932	0.197469
C95	C	1.031683	-0.060089	-0.418118
C96	C	1.531683	0.439911	0.081882
C97	C	0.990754	-0.000080	-0.467441
C98	C	1.490754	0.499920	0.032559
C99	C	0.952780	0.060019	-0.351868
C100	C	1.452780	0.560019	0.148132
C101	C	0.952751	-0.060083	-0.351847
C102	C	1.452751	0.439917	0.148153
C103	C	0.911763	-0.000031	-0.402379
C104	C	1.411763	0.499969	0.097621
C105	C	0.995381	-0.000061	-0.207531
C106	C	1.495381	0.499939	0.292469
C107	C	0.989055	-0.000082	-0.562438
C108	C	1.489055	0.499918	-0.062438
C109	C	0.986064	-0.000085	0.268584
C110	C	1.486064	0.499915	0.768584
C111	C	0.987707	-0.000089	0.361833
C112	C	1.487707	0.499911	0.861833
H113	H	0.563912	0.000007	-0.031574
H114	H	1.063912	0.500007	0.468426
H115	H	0.843692	0.000007	-0.417845
H116	H	1.343692	0.500007	0.082155
H117	H	0.888536	-0.196909	0.218559
H118	H	1.388536	0.303091	0.718559
H119	H	0.535012	-0.110846	0.189642
H120	H	1.035012	0.389154	0.689642
H121	H	1.065080	0.110712	-0.447078
H122	H	1.565080	0.610712	0.052922
H123	H	0.888609	-0.803271	0.218577
H124	H	1.388609	-0.303271	0.718577
H125	H	0.888561	-0.335959	0.218563
H126	H	1.388561	0.164041	0.718563
H127	H	0.420724	-0.000009	0.261690
H128	H	0.920724	0.499991	0.761690
H129	H	0.449453	0.110720	0.040319
H130	H	0.949453	0.610720	0.540319
H131	H	0.449460	-0.110836	0.040311
H132	H	0.949460	0.389164	0.540311
H133	H	1.140671	-0.000023	-0.351942
H134	H	1.640671	0.499977	0.148058
H135	H	0.888597	-0.664223	0.218577
H136	H	1.388597	-0.164223	0.718577
H137	H	0.919460	0.110830	-0.323045
H138	H	1.419460	0.610830	0.176955
H139	H	1.095892	-0.664200	0.011455
H140	H	1.595892	-0.164200	0.511455
H141	H	0.919423	-0.110838	-0.322889
H142	H	1.419423	0.389162	0.177111
H143	H	0.534879	0.110823	0.189649
H144	H	1.034879	0.610823	0.689649
H145	H	1.065038	-0.110842	-0.447051
H146	H	1.565038	0.389158	0.052949
H147	H	1.095853	-0.335931	0.011444
H148	H	1.595853	0.164069	0.511444
H149	H	1.095841	-0.196887	0.011445
H150	H	1.595841	0.303113	0.511445
H151	H	1.095894	-0.803243	0.011451
H152	H	1.595894	-0.303243	0.511451
