data_functionalizedCrystal
_audit_creation_method	'MofGen! by Chris Wilmer'
_symmetry_space_group_name_H-M	'P1'
_symmetry_Int_Tables_number	1
_symmetry_cell_setting	triclinic
loop_
_symmetry_equiv_pos_as_xyz
  x,y,z
_cell_length_a	12.759395
_cell_length_b	14.908520
_cell_length_c	14.908308
_cell_angle_alpha	83.639235
_cell_angle_beta	93.280303
_cell_angle_gamma	86.677884
loop_
_atom_site_label
_atom_site_type_symbol
_atom_site_fract_x
_atom_site_fract_y
_atom_site_fract_z
Zn1	Zn	1.544176	0.389837	-0.532516
Zn2	Zn	2.044176	0.889837	-0.032516
Zn3	Zn	1.544056	0.532483	-0.389887
Zn4	Zn	2.044056	1.032483	0.110113
Zn5	Zn	1.379244	0.381144	-0.381180
Zn6	Zn	1.879244	0.881144	0.118820
Zn7	Zn	1.357689	0.541160	-0.541202
Zn8	Zn	1.857689	1.041160	-0.041202
O9	O	1.456291	0.461156	-0.461196
O10	O	1.956291	0.961156	0.038804
O11	O	1.691180	0.408766	-0.513605
O12	O	2.191180	0.908766	-0.013605
O13	O	1.531164	0.505137	-0.262071
O14	O	2.031164	1.005137	0.237929
O15	O	1.410193	0.255632	-0.393976
O16	O	1.910193	0.755632	0.106024
O17	O	1.691092	0.513567	-0.408816
O18	O	2.191092	1.013567	0.091184
O19	O	1.531368	0.262019	-0.505162
O20	O	2.031368	0.762019	-0.005162
O21	O	1.410077	0.393949	-0.255674
O22	O	1.910077	0.893949	0.244326
O23	O	1.229364	0.402363	-0.402398
O24	O	1.729364	0.902363	0.097602
O25	O	1.373457	0.528357	-0.666710
O26	O	1.873457	1.028357	-0.166710
O27	O	1.213529	0.519927	-0.519965
O28	O	1.713529	1.019927	-0.019965
O29	O	1.510467	0.417180	-0.660329
O30	O	2.010467	0.917180	-0.160329
O31	O	1.510264	0.660299	-0.417238
O32	O	2.010264	1.160299	0.082762
O33	O	1.373341	0.666674	-0.528408
O34	O	1.873341	1.166674	-0.028408
C35	C	1.439478	0.696330	-0.474730
C36	C	1.939478	1.196330	0.025270
C37	C	1.432379	0.796940	-0.480550
C38	C	1.932379	1.296940	0.019450
C39	C	1.183326	0.461144	-0.461180
C40	C	1.683326	0.961144	0.038820
C41	C	1.066547	0.461162	-0.461196
C42	C	1.566547	0.961162	0.038804
C43	C	1.439571	0.474706	-0.697280
C44	C	1.939571	0.974706	-0.197280
C45	C	1.432446	0.480480	-0.797885
C46	C	1.932446	0.980480	-0.297885
C47	C	1.050095	0.583757	-0.583442
C48	C	1.550095	1.083757	-0.083442
C49	C	0.987008	0.645062	-0.644569
C50	C	1.487008	1.145062	-0.144569
C51	C	0.877285	0.645073	-0.644580
C52	C	1.377285	1.145073	-0.144580
C53	C	0.830648	0.583772	-0.583461
C54	C	1.330648	1.083772	-0.083461
C55	C	0.893735	0.522467	-0.522335
C56	C	1.393735	1.022467	-0.022335
C57	C	1.003459	0.522464	-0.522328
C58	C	1.503459	1.022464	-0.022328
C59	C	0.910186	0.399869	-0.400094
C60	C	1.410186	0.899869	0.099906
C61	C	1.019909	0.399860	-0.400076
C62	C	1.519909	0.899860	0.099924
C63	C	0.863548	0.338568	-0.338974
C64	C	1.363548	0.838568	0.161026
C65	C	0.926635	0.277266	-0.277842
C66	C	1.426635	0.777266	0.222158
C67	C	1.036365	0.277257	-0.277832
C68	C	1.536365	0.777257	0.222168
C69	C	1.082996	0.338555	-0.338950
C70	C	1.582996	0.838555	0.161050
C71	C	1.730323	0.461168	-0.461213
C72	C	2.230323	0.961168	0.038787
C73	C	1.847099	0.461174	-0.461220
C74	C	2.347099	0.961174	0.038780
C75	C	1.473198	0.225064	-0.447629
C76	C	1.973198	0.725064	0.052371
C77	C	1.480402	0.124456	-0.441847
C78	C	1.980402	0.624456	0.058153
C79	C	1.561749	0.979303	-0.375818
C80	C	2.061749	1.479303	0.124182
C81	C	1.555082	1.073836	-0.381284
C82	C	2.055082	1.573836	0.118716
C83	C	1.412385	1.080539	-0.496951
C84	C	1.912385	1.580539	0.003049
C85	C	1.419052	0.986007	-0.491486
C86	C	1.919052	1.486007	0.008514
C87	C	1.493735	0.935392	-0.430916
C88	C	1.993735	1.435392	0.069084
C89	C	1.500396	0.840858	-0.425447
C90	C	2.000396	1.340858	0.074553
C91	C	1.357704	0.847563	-0.541118
C92	C	1.857704	1.347563	-0.041118
C93	C	1.351038	0.942095	-0.546583
C94	C	1.851038	1.442095	-0.046583
C95	C	1.561725	0.375542	-0.980288
C96	C	2.061725	0.875542	-0.480288
C97	C	1.555033	0.380965	-1.074815
C98	C	2.055033	0.880965	-0.574815
C99	C	1.412368	0.496742	-1.081467
C100	C	1.912368	0.996742	-0.581467
C101	C	1.419059	0.491320	-0.986940
C102	C	1.919059	0.991320	-0.486940
C103	C	1.493741	0.430719	-0.936354
C104	C	1.993741	0.930719	-0.436354
C105	C	1.500436	0.425302	-0.841825
C106	C	2.000436	0.925302	-0.341825
C107	C	1.357767	0.541074	-0.848479
C108	C	1.857767	1.041074	-0.348479
C109	C	1.351075	0.546497	-0.943006
C110	C	1.851075	1.046497	-0.443006
C111	C	1.473012	0.447593	-0.226027
C112	C	1.973012	0.947593	0.273973
C113	C	1.480359	0.441564	-0.125408
C114	C	1.980359	0.941564	0.374592
H115	H	1.139437	0.583760	-0.583433
H116	H	1.639437	1.083760	-0.083433
Cl117	Cl	1.655618	0.299371	-0.916691
Cl118	Cl	2.155618	0.799371	-0.416691
Cl119	Cl	1.594278	0.777229	-0.349300
Cl120	Cl	2.094278	1.277229	0.150700
H121	H	1.610390	0.336032	-1.110582
H122	H	2.110390	0.836032	-0.610582
Cl123	Cl	1.594323	0.349121	-0.778232
Cl124	Cl	2.094323	0.849121	-0.278232
H125	H	1.302412	0.586006	-0.812699
H126	H	1.802412	1.086006	-0.312699
Cl127	Cl	0.725609	0.338577	-0.338994
Cl128	Cl	1.225609	0.838577	0.161006
H129	H	1.172337	0.338557	-0.338945
H130	H	1.672337	0.838557	0.161055
Cl131	Cl	1.045644	0.722128	-0.721395
Cl132	Cl	1.545644	1.222128	-0.221395
Cl133	Cl	0.797973	0.722138	-0.721430
Cl134	Cl	1.297973	1.222138	-0.221430
Cl135	Cl	0.692709	0.583776	-0.583490
Cl136	Cl	1.192709	1.083776	-0.083490
Cl137	Cl	0.868000	0.200204	-0.201021
Cl138	Cl	1.368000	0.700204	0.298979
Cl139	Cl	1.115666	0.200179	-0.200987
Cl140	Cl	1.615666	0.700179	0.299013
H141	H	1.351589	1.121765	-0.546270
H142	H	1.851589	1.621765	-0.046270
Cl143	Cl	1.655618	0.915670	-0.299663
Cl144	Cl	2.155618	1.415670	0.200337
H145	H	1.351565	0.546080	-1.122671
H146	H	1.851565	1.046080	-0.622671
H147	H	1.610468	1.109584	-0.336420
H148	H	2.110468	1.609584	0.163580
Cl149	Cl	1.257194	0.622676	-1.006609
Cl150	Cl	1.757194	1.122676	-0.506609
H151	H	1.290236	0.983318	-0.595899
H152	H	1.790236	1.483318	-0.095899
Cl153	Cl	1.272183	0.792354	-0.610375
Cl154	Cl	1.772183	1.292354	-0.110375
