data_functionalizedCrystal
_audit_creation_method	'MofGen! by Chris Wilmer'
_symmetry_space_group_name_H-M	'P1'
_symmetry_Int_Tables_number	1
_symmetry_cell_setting	triclinic
loop_
_symmetry_equiv_pos_as_xyz
  x,y,z
_cell_length_a	16.109301
_cell_length_b	10.654549
_cell_length_c	15.186229
_cell_angle_alpha	89.997351
_cell_angle_beta	89.999362
_cell_angle_gamma	83.974199
loop_
_atom_site_label
_atom_site_type_symbol
_atom_site_fract_x
_atom_site_fract_y
_atom_site_fract_z
O1	O	1.104092	0.161419	-0.073171
O2	O	0.862150	0.181507	-0.073184
O3	O	0.988682	-0.011352	-0.073174
O4	O	0.977560	0.354277	-0.073181
O5	O	0.988673	-0.011354	0.073283
O6	O	0.862141	0.181504	0.073273
O7	O	1.104084	0.161416	0.073287
Zn8	Zn	0.983111	0.171460	0.096533
Zn9	Zn	0.983122	0.171463	-0.096431
O10	O	0.977552	0.354274	0.073276
C11	C	0.831166	0.180692	0.000042
C12	C	0.738856	0.178252	0.000037
C13	C	0.517232	0.287018	0.000045
C14	C	0.430498	0.284716	0.000051
C15	C	0.449009	0.055896	0.000052
C16	C	0.535741	0.058199	0.000052
C17	C	0.569850	0.173764	0.000045
C18	C	0.396384	0.169159	0.000050
C19	C	0.302343	0.166662	0.000056
C20	C	0.663897	0.176262	0.000040
C21	C	0.987860	-0.058140	0.000054
C22	C	0.985414	-0.197550	0.000051
C23	C	1.132126	-0.489525	0.000063
C24	C	1.208929	-0.439029	0.000070
C25	C	1.211230	-0.308043	0.000069
C26	C	1.136720	-0.227546	0.000064
C27	C	1.059917	-0.278041	0.000058
C28	C	1.057624	-0.409033	0.000056
C29	C	0.908611	-0.248045	0.000044
C30	C	0.906309	-0.379031	0.000039
C31	C	0.834101	-0.167548	0.000040
C32	C	0.757296	-0.218043	0.000027
C33	C	0.754999	-0.349038	0.000027
C34	C	0.829506	-0.429526	0.000033
C35	C	1.135068	0.162231	0.000058
C36	C	1.227378	0.164671	0.000057
C37	C	0.978374	0.401063	0.000046
C38	C	0.980819	0.540472	0.000044
N39	N	0.983110	0.171456	0.228226
N40	N	0.983131	0.171456	-0.228124
C41	C	1.039157	0.086087	0.453953
C42	C	1.039160	0.086084	0.546143
C43	C	0.927077	0.256830	0.546142
C44	C	0.927071	0.256826	0.453955
C45	C	0.983116	0.171456	0.407862
C46	C	0.983124	0.171457	0.592240
C47	C	0.983127	0.171454	0.692196
C48	C	0.983113	0.171457	0.307900
H49	H	0.421226	-0.038193	0.000064
Br50	Br	0.837222	0.010221	0.000044
Br51	Br	1.315462	-0.239508	0.000093
H52	H	1.084791	0.016572	0.416427
H53	H	0.881448	0.326337	0.583680
H54	H	0.545000	0.381118	0.000045
Br55	Br	0.607159	-0.095514	0.000063
Br56	Br	0.359089	0.438425	0.000056
Br57	Br	1.139843	-0.049777	0.000080
H58	H	0.881431	0.326343	0.416425
Br59	Br	1.115215	-0.029783	0.608693
Br60	Br	1.129009	-0.667295	0.000092
H61	H	1.269594	-0.504584	0.000076
Br62	Br	0.650760	-0.417555	0.000030
H63	H	0.696636	-0.152494	0.000030
H64	H	0.827642	-0.536185	0.000028
