data_functionalizedCrystal
_audit_creation_method	'MofGen! by Chris Wilmer'
_symmetry_space_group_name_H-M	'P1'
_symmetry_Int_Tables_number	1
_symmetry_cell_setting	triclinic
loop_
_symmetry_equiv_pos_as_xyz
  x,y,z
_cell_length_a	17.077404
_cell_length_b	13.032721
_cell_length_c	17.077395
_cell_angle_alpha	97.154458
_cell_angle_beta	89.984359
_cell_angle_gamma	97.204757
loop_
_atom_site_label
_atom_site_type_symbol
_atom_site_fract_x
_atom_site_fract_y
_atom_site_fract_z
Zn1	Zn	1.160341	-0.416050	-0.483525
Zn2	Zn	1.143587	-0.590812	-0.368927
Zn3	Zn	1.029078	-0.416082	-0.352276
Zn4	Zn	1.012377	-0.590754	-0.500145
O5	O	1.086346	-0.503425	-0.426218
O6	O	1.267964	-0.439243	-0.468336
O7	O	1.128376	-0.567672	-0.256875
O8	O	1.060492	-0.269839	-0.355762
O9	O	1.255656	-0.567640	-0.384142
O10	O	1.156930	-0.269814	-0.452190
O11	O	1.044247	-0.439299	-0.244641
O12	O	0.917017	-0.439242	-0.371878
O13	O	1.032026	-0.567541	-0.607784
O14	O	0.904746	-0.567573	-0.480517
O15	O	1.140735	-0.439186	-0.595573
O16	O	1.112181	-0.737044	-0.400258
O17	O	1.015781	-0.737001	-0.496663
C18	C	0.882400	-0.503406	-0.426195
C19	C	0.795148	-0.503423	-0.426206
C20	C	0.747780	-0.570345	-0.482703
C21	C	0.665799	-0.570347	-0.482716
C22	C	0.631188	-0.503432	-0.426227
C23	C	0.678563	-0.436502	-0.369727
C24	C	0.760543	-0.436495	-0.369718
C25	C	0.507691	-0.436522	-0.369748
C26	C	0.425706	-0.436530	-0.369755
C27	C	0.412948	-0.570375	-0.482745
C28	C	0.494927	-0.570368	-0.482737
C29	C	0.542296	-0.503439	-0.426235
C30	C	1.060372	-0.774941	-0.452088
C31	C	1.049332	-0.891097	-0.463182
C32	C	1.092149	-0.942869	-0.420464
C33	C	1.080740	-1.062922	-0.431928
C34	C	1.291088	-0.503444	-0.426242
C35	C	1.378337	-0.503453	-0.426252
C36	C	1.086386	-0.503354	-0.630956
C37	C	1.086404	-0.503323	-0.718203
C38	C	1.112442	-0.230848	-0.400264
C39	C	1.123563	-0.114692	-0.389204
C40	C	1.143109	-0.436347	-1.087647
C41	C	1.143089	-0.436384	-1.005670
C42	C	1.086478	-0.503224	-0.971042
C43	C	1.029887	-0.570040	-1.018397
C44	C	1.029911	-0.570008	-1.100373
C45	C	1.029841	-0.570101	-0.847533
C46	C	1.029816	-0.570132	-0.765551
C47	C	1.143019	-0.436476	-0.752829
C48	C	1.143043	-0.436444	-0.834805
C49	C	1.086451	-0.503259	-0.882155
C50	C	1.086358	-0.503420	-0.222270
C51	C	1.086521	-0.503156	-0.134995
H52	H	0.775953	-0.624839	-0.528701
C53	C	0.387636	-0.362916	-0.307617
N54	N	0.358962	-0.307467	-0.260814
H55	H	0.983796	-0.624468	-0.990198
C56	C	1.153084	-0.882683	-0.359587
N57	N	1.198979	-0.837352	-0.313732
H58	H	1.035636	-1.107473	-0.476995
H59	H	0.799110	-0.381994	-0.323716
C60	C	0.640488	-0.362891	-0.307590
N61	N	0.611811	-0.307448	-0.260786
C62	C	0.988396	-0.951283	-0.524056
N63	N	0.942496	-0.996614	-0.569907
C64	C	1.205275	-0.362986	-0.700744
N65	N	1.252164	-0.307633	-0.661510
C66	C	0.532997	-0.643984	-0.544874
N67	N	0.561671	-0.699432	-0.591677
C68	C	0.360840	-0.643992	-0.544901
N69	N	0.321590	-0.699440	-0.591714
C70	C	1.184502	-1.054512	-0.328325
N71	N	1.230399	-1.009184	-0.282470
H72	H	1.189204	-0.381911	-1.115833
C73	C	1.205334	-0.362880	-0.953589
N74	N	1.252218	-0.307511	-0.914361
H75	H	1.189138	-0.382012	-0.862996
H76	H	0.983702	-0.624535	-0.737358
H77	H	0.546258	-0.382013	-0.323744
C78	C	0.967585	-0.643599	-0.899615
N79	N	0.920691	-0.698952	-0.938843
H80	H	0.983831	-0.624412	-1.138924
H81	H	0.627235	-0.624843	-0.528721
