data_functionalizedCrystal
_audit_creation_method	'MofGen! by Chris Wilmer'
_symmetry_space_group_name_H-M	'P1'
_symmetry_Int_Tables_number	1
_symmetry_cell_setting	triclinic
loop_
_symmetry_equiv_pos_as_xyz
  x,y,z
_cell_length_a	19.121112
_cell_length_b	19.121111
_cell_length_c	17.077396
_cell_angle_alpha	92.410841
_cell_angle_beta	92.457677
_cell_angle_gamma	89.871706
loop_
_atom_site_label
_atom_site_type_symbol
_atom_site_fract_x
_atom_site_fract_y
_atom_site_fract_z
Zn1	Zn	1.059843	0.324899	0.509778
Zn2	Zn	1.054746	0.442138	0.383855
Zn3	Zn	0.942605	0.319914	0.372707
Zn4	Zn	0.937565	0.437089	0.509259
O5	O	0.998689	0.381010	0.443900
O6	O	1.157271	0.344651	0.497957
O7	O	1.039846	0.425952	0.272529
O8	O	0.962399	0.222472	0.386442
O9	O	1.153527	0.430786	0.405441
O10	O	1.048533	0.226135	0.487148
O11	O	0.957457	0.336154	0.264339
O12	O	0.843831	0.331258	0.385938
O13	O	0.953809	0.422180	0.619175
O14	O	0.840129	0.417346	0.486262
O15	O	1.043646	0.339755	0.619556
O16	O	1.034959	0.539572	0.404938
O17	O	0.948867	0.535862	0.497072
C18	C	0.816543	0.373214	0.434835
C19	C	0.738619	0.369896	0.430976
C20	C	0.297993	0.348843	0.406535
C21	C	0.371211	0.351965	0.410165
C22	C	0.405905	0.398421	0.464135
C23	C	0.367377	0.441753	0.514484
C24	C	0.294161	0.438627	0.510858
C25	C	0.626875	0.410102	0.477698
C26	C	0.700096	0.413226	0.481320
C27	C	0.703925	0.323436	0.377001
C28	C	0.630707	0.320317	0.373376
C29	C	0.592186	0.363647	0.423728
C30	C	0.480745	0.401615	0.467845
C31	C	0.517347	0.360449	0.420021
C32	C	0.990832	0.563155	0.452176
C33	C	0.987535	0.641080	0.455746
C34	C	1.030844	0.679599	0.409497
C35	C	1.027747	0.752818	0.412860
C36	C	0.981337	0.787517	0.462467
C37	C	0.938026	0.748992	0.508721
C38	C	0.941127	0.675775	0.505362
C39	C	0.969733	1.008490	0.475010
C40	C	0.966634	1.081713	0.478364
C41	C	1.056356	1.085534	0.382503
C42	C	1.059450	1.012314	0.379145
C43	C	1.016142	0.973797	0.425402
C44	C	0.978169	0.862358	0.465904
C45	C	1.019314	0.898957	0.421970
C46	C	1.181548	0.388837	0.453001
C47	C	1.259471	0.392173	0.456879
C48	C	0.998734	0.380960	0.648644
C49	C	0.998753	0.380939	0.735894
C50	C	1.006591	1.198155	0.435619
C51	C	1.009943	1.120232	0.432115
C52	C	0.998688	0.381011	0.239952
C53	C	0.998813	0.380841	0.152700
C54	C	1.045533	0.338016	0.777084
C55	C	1.045542	0.337994	0.859064
C56	C	0.998775	0.380897	0.899852
C57	C	0.951990	0.423822	0.858656
C58	C	0.951978	0.423841	0.776678
C59	C	0.952020	0.423781	1.029526
C60	C	0.952033	0.423763	1.111510
C61	C	1.045585	0.337934	1.111912
C62	C	1.045572	0.337953	1.029933
C63	C	0.998788	0.380878	0.988743
H64	H	0.395631	0.479576	0.558431
H65	H	0.900240	0.777250	0.549116
Cl66	Cl	0.886681	0.627351	0.563509
H67	H	0.595520	0.445386	0.518696
H68	H	1.057104	0.870703	0.381582
Cl69	Cl	0.893164	0.477801	0.724895
H70	H	0.940380	0.890618	0.506293
H71	H	1.083619	0.303081	0.743880
H72	H	0.928849	1.109963	0.518774
Cl73	Cl	1.104384	0.284063	0.910845
H74	H	0.402573	0.316684	0.369167
Cl75	Cl	1.104371	0.284020	0.978657
Cl76	Cl	1.104400	0.283971	1.163693
H77	H	0.913913	0.458724	0.995990
H78	H	0.602464	0.282493	0.329423
H79	H	0.913949	0.458698	1.144718
H80	H	0.913909	0.458752	0.891873
H81	H	0.269751	0.311014	0.362586
H82	H	0.728342	0.451056	0.525273
Cl83	Cl	0.752355	0.268965	0.313710
H84	H	0.262797	0.473909	0.551855
H85	H	0.489096	0.322622	0.376082
H86	H	0.509001	0.439441	0.511786
H87	H	1.068633	0.651352	0.369098
H88	H	1.063014	0.784177	0.375199
H89	H	1.091616	1.116902	0.344845
Cl90	Cl	1.117807	0.968699	0.316791
H91	H	0.934468	0.977135	0.512673
