data_functionalizedCrystal
_audit_creation_method	'MofGen! by Chris Wilmer'
_symmetry_space_group_name_H-M	'P1'
_symmetry_Int_Tables_number	1
_symmetry_cell_setting	triclinic
loop_
_symmetry_equiv_pos_as_xyz
  x,y,z
_cell_length_a	10.654551
_cell_length_b	10.654550
_cell_length_c	9.130307
_cell_angle_alpha	89.999976
_cell_angle_beta	89.997833
_cell_angle_gamma	84.485180
loop_
_atom_site_label
_atom_site_type_symbol
_atom_site_fract_x
_atom_site_fract_y
_atom_site_fract_z
O1	O	-0.176390	-1.667841	-0.121684
O2	O	-0.193196	-1.302362	-0.121710
O3	O	-0.002054	-1.493504	-0.121693
O4	O	-0.367532	-1.476699	-0.121701
O5	O	-0.002066	-1.493490	0.121906
O6	O	-0.193208	-1.302348	0.121889
O7	O	-0.176402	-1.667827	0.121915
Cu8	Cu	-0.184806	-1.485086	0.144144
Cu9	Cu	-0.184792	-1.485103	-0.143940
O10	O	-0.367544	-1.476685	0.121898
C11	C	-0.191968	-1.255557	0.000086
C12	C	-0.188276	-1.116114	0.000076
C13	C	0.044738	-1.492262	0.000104
C14	C	0.184181	-1.488570	0.000097
C15	C	-0.177630	-1.714632	0.000116
C16	C	-0.181322	-1.854075	0.000116
C17	C	-0.414336	-1.477926	0.000098
C18	C	-0.553779	-1.481619	0.000095
C19	C	0.249692	-1.486844	-0.132691
C20	C	0.380712	-1.483364	-0.132692
C21	C	0.380701	-1.483341	0.132893
C22	C	0.249682	-1.486812	0.132893
C23	C	-0.300818	-1.036629	0.000078
C24	C	-0.297341	-0.905608	0.000103
C25	C	-0.068772	-0.933570	0.000119
C26	C	-0.072249	-1.064589	0.000104
N27	N	-0.184816	-1.485084	0.346767
N28	N	-0.184772	-1.485115	-0.346562
C29	C	-0.030996	-1.331470	0.653419
C30	C	0.045876	-1.254633	0.576743
C31	C	0.045853	-1.254610	0.423409
C32	C	-0.031048	-1.331434	0.346749
C33	C	-0.107920	-1.408271	0.423425
C34	C	-0.107892	-1.408283	0.576762
C35	C	-0.261688	-1.561921	0.423443
C36	C	-0.261673	-1.561939	0.576777
C37	C	-0.338589	-1.638745	0.346782
C38	C	-0.415469	-1.715577	0.423459
C39	C	-0.415444	-1.715596	0.576801
C40	C	-0.338545	-1.638776	0.653453
H41	H	0.196365	-1.488272	-0.240822
C42	C	0.581543	-1.478035	0.250820
C43	C	0.452706	-1.481433	0.278857
H44	H	0.625993	-1.476870	0.340936
H45	H	0.594076	-1.404363	0.196271
H46	H	0.611938	-1.550582	0.196256
H47	H	0.422309	-1.408881	0.333412
H48	H	0.440165	-1.555113	0.333429
H49	H	-0.395294	-1.078576	0.000066
C50	C	0.127127	-0.917062	-0.125092
C51	C	0.058762	-0.876930	0.000131
H52	H	0.205864	-0.882101	-0.125081
H53	H	0.080744	-0.889836	-0.210024
H54	H	0.141152	-1.006469	-0.125081
H55	H	0.044727	-0.787523	0.000114
H56	H	0.105154	-0.904149	0.085084
C57	C	0.114111	-1.186332	0.811786
C58	C	0.130400	-1.170183	0.661005
H59	H	0.166290	-1.134191	0.863797
H60	H	0.136607	-1.272043	0.836957
H61	H	0.028390	-1.163693	0.836861
H62	H	0.216120	-1.192831	0.635928
H63	H	0.107912	-1.084453	0.635823
H64	H	0.019401	-1.129309	0.000106
H65	H	-0.030979	-1.331472	0.778271
H66	H	0.196341	-1.488210	0.241031
H67	H	0.434045	-1.481957	-0.240821
H68	H	-0.478070	-1.778127	0.361029
C69	C	-0.460140	-1.600789	0.873158
C70	C	-0.338508	-1.638792	0.821999
H71	H	-0.460105	-1.600792	0.977212
H72	H	-0.516927	-1.657539	0.838494
H73	H	-0.485867	-1.518252	0.838480
H74	H	-0.312784	-1.721333	0.856669
H75	H	-0.281702	-1.582041	0.856678
H76	H	0.108451	-1.192045	0.360980
C77	C	-0.068997	-1.209742	0.127123
C78	C	-0.031068	-1.331413	0.178202
H79	H	-0.069017	-1.209735	0.023069
H80	H	-0.012196	-1.153014	0.161803
H81	H	-0.151514	-1.183972	0.161839
H82	H	0.051453	-1.357180	0.143495
H83	H	-0.087872	-1.388161	0.143507
H84	H	-0.388984	-0.840896	0.000108
C85	C	-0.567442	-1.867476	0.561403
C86	C	-0.499947	-1.800058	0.661078
H87	H	-0.619616	-1.919614	0.613432
H88	H	-0.510129	-1.918426	0.501583
H89	H	-0.618374	-1.810105	0.501613
H90	H	-0.449008	-1.857430	0.720862
H91	H	-0.557268	-1.749104	0.720924
H92	H	-0.338596	-1.638726	0.221930
