data_functionalizedCrystal
_audit_creation_method	'MofGen! by Chris Wilmer'
_symmetry_space_group_name_H-M	'P1'
_symmetry_Int_Tables_number	1
_symmetry_cell_setting	triclinic
loop_
_symmetry_equiv_pos_as_xyz
  x,y,z
_cell_length_a	11.792254
_cell_length_b	12.996460
_cell_length_c	11.792241
_cell_angle_alpha	90.006284
_cell_angle_beta	84.196007
_cell_angle_gamma	90.005520
loop_
_atom_site_label
_atom_site_type_symbol
_atom_site_fract_x
_atom_site_fract_y
_atom_site_fract_z
O1	O	1.506902	0.085566	0.155638
O2	O	1.176563	0.085569	0.171656
O3	O	1.349749	0.085560	-0.001523
O4	O	1.333716	0.085575	0.328818
O5	O	1.349730	-0.085574	-0.001533
O6	O	1.176544	-0.085565	0.171647
O7	O	1.506884	-0.085567	0.155629
Cu8	Cu	1.341712	-0.101192	0.163637
Cu9	Cu	1.341734	0.101193	0.163648
O10	O	1.333698	-0.085559	0.328808
C11	C	1.134263	0.000002	0.170642
C12	C	1.008250	0.000003	0.167622
C13	C	0.905913	0.000007	0.165168
C14	C	0.777527	0.000008	0.162100
N15	N	1.341705	-0.243539	0.163628
C16	C	1.341732	-0.663354	0.163649
C17	C	1.341721	-0.546548	0.163647
C18	C	1.341719	-0.453450	0.163640
C19	C	1.341707	-0.336638	0.163636
C20	C	1.549183	0.000002	0.156643
C21	C	1.675196	0.000008	0.159663
C22	C	1.348732	-0.000006	-0.043819
C23	C	1.345718	-0.000005	-0.169832
N24	N	1.341750	0.243541	0.163648
C25	C	1.340175	0.000012	-0.400545
C26	C	1.343255	0.000003	-0.272160
C27	C	1.334714	0.000010	0.371104
C28	C	1.337728	0.000016	0.497118
