data_functionalizedCrystal
_audit_creation_method	'MofGen! by Chris Wilmer'
_symmetry_space_group_name_H-M	'P1'
_symmetry_Int_Tables_number	1
_symmetry_cell_setting	triclinic
loop_
_symmetry_equiv_pos_as_xyz
  x,y,z
_cell_length_a	15.625950
_cell_length_b	23.532357
_cell_length_c	14.185569
_cell_angle_alpha	76.926768
_cell_angle_beta	120.545593
_cell_angle_gamma	83.573467
loop_
_atom_site_label
_atom_site_type_symbol
_atom_site_fract_x
_atom_site_fract_y
_atom_site_fract_z
O1	O	1.290513	0.014754	0.385858
O2	O	1.002131	0.039813	0.280985
O3	O	1.155049	-0.056109	0.336616
O4	O	1.137594	0.110676	0.330227
O5	O	1.200223	-0.084442	0.519884
O6	O	1.047304	0.011480	0.464254
O7	O	1.335686	-0.013579	0.569126
Cu8	Cu	1.195620	-0.003637	0.533424
Cu9	Cu	1.142197	0.029871	0.316688
O10	O	1.182768	0.082343	0.513496
C11	C	0.987830	0.027317	0.359205
C12	C	0.877918	0.032289	0.319236
C13	C	0.639424	-0.028529	0.687143
C14	C	0.536130	-0.023837	0.649534
C15	C	0.486935	0.007048	0.449761
C16	C	0.590226	0.002363	0.487353
C17	C	0.666464	-0.015427	0.606046
C18	C	0.617266	0.015464	0.406255
C19	C	0.720549	0.010776	0.443846
C20	C	0.796793	-0.007015	0.562533
C21	C	0.769747	-0.020115	0.643636
C22	C	0.541028	0.033249	0.287564
C23	C	0.568067	0.046351	0.206466
C24	C	0.671351	0.041667	0.244055
C25	C	0.747595	0.023876	0.362743
C26	C	0.698397	0.054767	0.162953
C27	C	0.801680	0.050079	0.200543
C28	C	0.850878	0.019188	0.400333
C29	C	1.177201	-0.091470	0.428095
C30	C	1.175891	-0.154622	0.427628
C31	C	1.143017	-0.530749	0.324674
C32	C	1.141768	-0.590083	0.324214
O33	O	1.120148	-0.607628	0.239007
N34	N	1.165774	-0.635206	0.423888
C35	C	1.191019	-0.620992	0.524024
O36	O	1.211322	-0.664821	0.608761
C37	C	1.192260	-0.561659	0.524480
C38	C	1.168264	-0.516539	0.424804
C39	C	1.119021	-0.485630	0.225006
C40	C	1.120272	-0.426301	0.225467
C41	C	1.145518	-0.412091	0.325596
C42	C	1.169514	-0.457210	0.425264
C43	C	1.217498	-0.547445	0.624612
C44	C	1.218737	-0.488106	0.625059
C45	C	1.194740	-0.442987	0.525383
C46	C	1.196011	-0.383671	0.525855
N47	N	1.172006	-0.338548	0.426181
C48	C	1.146759	-0.352758	0.326052
C49	C	1.188409	-0.745595	0.523058
C50	C	1.187175	-0.804928	0.522606
C51	C	1.137923	-0.774014	0.322795
C52	C	1.139164	-0.714681	0.323251
C53	C	1.164404	-0.700472	0.423385
C54	C	1.149388	-0.228164	0.327028
C55	C	1.150645	-0.168832	0.327499
C56	C	1.199892	-0.199750	0.527307
C57	C	1.198641	-0.259078	0.526838
C58	C	1.173383	-0.273282	0.426688
O59	O	1.217617	-0.366080	0.611018
O60	O	1.126447	-0.308922	0.241324
C61	C	1.349986	-0.001083	0.490904
C62	C	1.459897	-0.006054	0.530866
C63	C	1.160616	0.117704	0.422014
C64	C	1.161923	0.180857	0.422474
N65	N	1.233202	-0.027205	0.685867
N66	N	1.104623	0.053434	0.164247
C67	C	0.994207	0.122652	0.966572
C68	C	1.022682	0.104803	1.081953
C69	C	1.158118	0.019892	1.131184
C70	C	1.129652	0.037732	1.015805
C71	C	1.047696	0.089113	0.933507
C72	C	1.183141	0.004193	0.982740
C73	C	1.154680	0.022034	0.867371
C74	C	1.072730	0.073414	0.785068
C75	C	1.019235	0.106954	0.818138
C76	C	1.265101	-0.047186	1.065041
C77	C	1.318590	-0.080725	1.031976
C78	C	1.290124	-0.062887	0.916604
C79	C	1.208174	-0.011507	0.834301
C80	C	1.343619	-0.096427	0.883533
C81	C	1.315157	-0.078586	0.768165
C82	C	1.179713	0.006334	0.718932
H83	H	1.131105	-0.132096	0.246328
H84	H	0.636311	0.069246	0.066314
H85	H	0.823694	0.060750	0.134505
O86	O	0.506601	-0.037806	0.736707
H87	H	0.547209	-0.085401	0.795348
H88	H	1.119622	-0.677947	0.242085
H89	H	1.128816	-0.239719	0.245475
H90	H	1.218190	-0.295818	0.608006
H91	H	0.952492	0.148790	0.751124
H92	H	1.049561	0.087941	0.691129
H93	H	1.206731	-0.841663	0.603778
O94	O	1.094363	-0.377636	0.117949
H95	H	1.076584	-0.397492	0.048250
O96	O	1.406980	-0.136141	1.120749
H97	H	1.478626	-0.129707	1.126631
H98	H	1.288274	-0.061708	1.158981
O99	O	1.245963	-0.472783	0.733065
H100	H	1.315206	-0.455312	0.762601
H101	H	1.220452	-0.188170	0.608831
O102	O	1.432014	-0.151842	0.972300
H103	H	1.442817	-0.158613	1.058078
O104	O	1.091765	-0.500948	0.116992
H105	H	1.075286	-0.459598	0.047773
H106	H	0.505982	0.060832	0.109826
H107	H	0.701500	-0.043006	0.783794
O108	O	1.372816	-0.114778	0.732486
H109	H	1.339250	-0.093742	0.638435
O110	O	0.964988	0.140978	1.117622
H111	H	0.882419	0.141390	1.067467
H112	H	1.208967	-0.734033	0.604605
H113	H	1.112970	0.048170	0.651918
H114	H	1.237041	-0.584174	0.705780
O115	O	1.110676	-0.789343	0.214786
H116	H	1.113833	-0.838180	0.231219
O117	O	0.908192	-0.012065	0.603080
H118	H	0.934020	-0.045934	0.573222
H119	H	0.927464	0.164488	0.899558
H120	H	1.224850	-0.021942	1.198205
O121	O	0.851988	-0.039300	0.771655
H122	H	0.815838	-0.047625	0.821739
H123	H	0.456928	0.037069	0.256961
O124	O	0.933115	0.000009	0.528353
H125	H	0.990563	-0.042167	0.553617
O126	O	0.404706	0.026239	0.321745
H127	H	0.328342	0.027303	0.309228
