data_functionalizedCrystal
_audit_creation_method	'MofGen! by Chris Wilmer'
_symmetry_space_group_name_H-M	'P1'
_symmetry_Int_Tables_number	1
_symmetry_cell_setting	triclinic
loop_
_symmetry_equiv_pos_as_xyz
  x,y,z
_cell_length_a	12.759401
_cell_length_b	12.759400
_cell_length_c	12.759393
_cell_angle_alpha	90.031877
_cell_angle_beta	90.020630
_cell_angle_gamma	90.012547
loop_
_atom_site_label
_atom_site_type_symbol
_atom_site_fract_x
_atom_site_fract_y
_atom_site_fract_z
Zn1	Zn	-1.606240	0.418261	-0.594082
Zn2	Zn	-1.606139	0.593981	-0.418402
Zn3	Zn	-1.430547	0.418310	-0.418410
Zn4	Zn	-1.430531	0.593892	-0.594033
O5	O	-1.518364	0.506111	-0.506232
O6	O	-1.753248	0.441587	-0.570795
O7	O	-1.582811	0.570735	-0.271382
O8	O	-1.453902	0.271282	-0.441738
O9	O	-1.753174	0.570688	-0.441724
O10	O	-1.582983	0.271246	-0.570803
O11	O	-1.453804	0.441671	-0.271388
O12	O	-1.283524	0.441585	-0.441690
O13	O	-1.453875	0.570536	-0.741060
O14	O	-1.283512	0.570584	-0.570719
O15	O	-1.582968	0.441501	-0.741097
O16	O	-1.582796	0.740990	-0.441676
O17	O	-1.453777	0.740925	-0.570711
C18	C	-1.245397	0.506081	-0.506200
C19	C	-1.128620	0.506093	-0.506212
C20	C	-1.518302	0.779078	-0.506210
C21	C	-1.518372	0.895855	-0.506236
C22	C	-1.518431	0.506003	-0.780265
C23	C	-1.518459	0.505958	-0.897042
C24	C	-1.073723	0.573206	-0.438910
C25	C	-0.963999	0.573219	-0.438924
C26	C	-0.964079	0.438998	-0.573543
C27	C	-1.073801	0.438991	-0.573534
C28	C	-1.073676	0.650694	-0.361186
C29	C	-0.963952	0.650707	-0.361199
C30	C	-0.792398	0.506132	-0.506253
C31	C	-0.909174	0.506114	-0.506234
C32	C	-1.518456	0.232078	-0.506277
C33	C	-1.518494	0.115301	-0.506296
C34	C	-1.585626	0.950716	-0.439121
C35	C	-1.585691	1.060440	-0.439154
C36	C	-1.451237	1.060432	-0.573418
C37	C	-1.451179	0.950710	-0.573390
C38	C	-1.663249	0.950721	-0.361602
C39	C	-1.663313	1.060445	-0.361634
C40	C	-1.451306	0.573092	-1.061612
C41	C	-1.451266	0.573122	-0.951888
C42	C	-1.585690	0.438751	-0.951926
C43	C	-1.585724	0.438716	-1.061648
C44	C	-1.373701	0.650673	-1.061589
C45	C	-1.373661	0.650704	-0.951864
C46	C	-1.518359	0.506142	-0.233264
C47	C	-1.518534	0.505892	-0.116488
H48	H	-1.118494	0.384352	-0.628348
C49	C	-0.795917	0.379414	-0.633334
C50	C	-0.903818	0.365236	-0.647535
H51	H	-0.758719	0.333869	-0.679010
H52	H	-0.777941	0.450016	-0.648591
H53	H	-0.777915	0.363955	-0.562769
H54	H	-0.921821	0.380703	-0.718099
H55	H	-0.921802	0.294618	-0.632285
C56	C	-1.501899	0.736548	-1.169266
C57	C	-1.413049	0.754999	-1.107506
H58	H	-1.526201	0.800955	-1.197603
H59	H	-1.484389	0.690052	-1.224716
H60	H	-1.555371	0.706138	-1.127354
H61	H	-1.359573	0.785402	-1.149419
H62	H	-1.430555	0.801513	-1.052047
C63	C	-1.534013	1.064301	-0.224914
C64	C	-1.633965	1.100774	-0.251781
H65	H	-1.515894	1.089206	-0.157102
H66	H	-1.533975	0.989860	-0.224889
H67	H	-1.484382	1.089118	-0.274524
H68	H	-1.683597	1.075951	-0.202175
H69	H	-1.634011	1.175231	-0.251799
C70	C	-0.999738	0.823661	-0.426048
C71	C	-0.918004	0.755108	-0.400348
H72	H	-0.971367	0.888112	-0.450210
H73	H	-1.041659	0.793321	-0.479597
H74	H	-1.041608	0.836054	-0.365757
H75	H	-0.876138	0.742709	-0.460641
H76	H	-0.876066	0.785454	-0.346794
C77	C	-1.494023	0.754068	-0.850672
C78	C	-1.403032	0.760567	-0.911642
H79	H	-1.512147	0.821892	-0.825841
H80	H	-1.549727	0.727030	-0.892035
H81	H	-1.481895	0.708886	-0.792777
H82	H	-1.415162	0.805743	-0.969542
H83	H	-1.347315	0.787619	-0.870277
H84	H	-1.103450	0.732088	-0.382833
C85	C	-1.085647	0.676092	-0.175103
C86	C	-1.119590	0.611226	-0.256910
H87	H	-1.113998	0.651726	-0.110731
H88	H	-1.011301	0.674747	-0.171565
H89	H	-1.108638	0.745795	-0.187528
H90	H	-1.096592	0.541524	-0.244489
H91	H	-1.193951	0.612561	-0.260448
C92	C	-1.766425	0.849363	-0.482100
C93	C	-1.773051	0.910405	-0.391112
H94	H	-1.834210	0.824469	-0.500312
H95	H	-1.739393	0.890700	-0.537766
H96	H	-1.721190	0.791511	-0.469919
H97	H	-1.818280	0.968261	-0.403294
H98	H	-1.800098	0.869066	-0.335432
H99	H	-0.934140	0.628818	-0.279870
H100	H	-1.396424	0.906043	-0.628049
C101	C	-1.224464	0.690257	-0.844129
C102	C	-1.269312	0.611372	-0.905920
H103	H	-1.160049	0.665969	-0.815761
H104	H	-1.211978	0.750489	-0.886019
H105	H	-1.270947	0.707798	-0.788690
H106	H	-1.222832	0.593836	-0.961363
H107	H	-1.281793	0.551121	-0.864028
C108	C	-1.270473	0.530206	-1.162801
C109	C	-1.263883	0.621233	-1.101804
H110	H	-1.202678	0.512038	-1.187633
H111	H	-1.297498	0.474539	-1.121454
H112	H	-1.315700	0.542316	-1.220694
H113	H	-1.218662	0.609120	-1.043906
H114	H	-1.236844	0.676912	-1.143152
H115	H	-1.396532	1.105109	-0.628093
H116	H	-1.634125	0.916773	-0.284274
H117	H	-1.740616	1.094393	-0.390851
H118	H	-1.640459	0.383987	-1.106325
C119	C	-1.645318	0.379133	-0.783746
C120	C	-1.659545	0.364915	-0.891642
H121	H	-1.690919	0.333552	-0.746533
H122	H	-1.574733	0.363755	-0.765775
H123	H	-1.660670	0.449732	-0.765755
H124	H	-1.644186	0.294318	-0.909635
H125	H	-1.730146	0.380286	-0.909620
