data_functionalizedCrystal
_audit_creation_method	'MofGen! by Chris Wilmer'
_symmetry_space_group_name_H-M	'P1'
_symmetry_Int_Tables_number	1
_symmetry_cell_setting	triclinic
loop_
_symmetry_equiv_pos_as_xyz
  x,y,z
_cell_length_a	14.395555
_cell_length_b	14.628931
_cell_length_c	14.628931
_cell_angle_alpha	120.000164
_cell_angle_beta	89.998364
_cell_angle_gamma	59.999615
loop_
_atom_site_label
_atom_site_type_symbol
_atom_site_fract_x
_atom_site_fract_y
_atom_site_fract_z
Zr1	Zr	0.894916	1.000539	0.119915
O2	O	0.746586	1.191251	0.265884
O3	O	0.940387	0.809831	0.075168
O4	O	0.940387	1.000537	0.265874
O5	O	0.746585	1.000545	-0.075254
O6	O	1.093262	1.000530	0.265866
O7	O	0.746585	1.000545	0.075178
O8	O	1.093260	0.659392	-0.075272
O9	O	0.746586	1.341683	0.265884
O10	O	1.073868	0.888265	0.056078
O11	O	0.959780	0.888270	-0.056182
O12	O	0.959780	1.112801	0.168350
O13	O	0.845692	1.112807	0.056090
Zr14	Zr	1.138732	1.000528	-0.120019
Zr15	Zr	1.138732	1.000528	0.119903
Zr16	Zr	0.894915	1.000539	-0.120006
Zr17	Zr	0.894916	1.240460	0.119916
Zr18	Zr	1.138732	0.760606	-0.120019
O19	O	1.093261	1.191236	-0.075271
O20	O	1.093262	1.191236	0.265866
O21	O	0.746585	1.191251	-0.075253
O22	O	1.287062	0.809816	-0.265988
O23	O	1.287063	0.809816	0.075150
O24	O	0.940386	0.809831	-0.265970
O25	O	1.287063	1.000521	0.075150
O26	O	1.093260	1.000530	-0.265977
O27	O	0.940386	1.000537	-0.265969
O28	O	1.287062	1.000521	-0.075282
O29	O	0.940388	1.341674	0.265874
O30	O	1.093260	0.659392	-0.265978
O31	O	1.287062	0.659384	-0.265988
O32	O	1.287062	0.659384	-0.075282
O33	O	0.746586	1.341683	0.075179
O34	O	0.940388	1.341674	0.075169
O35	O	1.073868	0.888265	-0.168453
O36	O	1.187956	0.888260	-0.056194
O37	O	1.073868	1.112796	0.056078
O38	O	0.959780	1.112801	-0.056181
C39	C	1.016824	0.700428	-0.000052
C40	C	1.016823	0.598575	-0.000052
C41	C	1.073419	0.553163	0.055636
C42	C	1.073420	0.447893	0.055637
C43	C	0.711847	1.000547	-0.000036
C44	C	0.608340	1.000551	-0.000030
C45	C	0.485546	1.122979	0.061175
C46	C	0.454710	1.061777	0.105532
C47	C	0.454752	1.061748	-0.044379
C48	C	0.578868	0.939349	0.044388
C49	C	0.578907	0.939338	-0.105581
C50	C	0.548145	0.878047	-0.061251
C51	C	1.321801	1.000520	-0.000068
C52	C	1.425308	1.000515	-0.000073
C53	C	1.016825	1.000533	0.300053
C54	C	1.016825	1.000533	0.401906
C55	C	1.016824	1.300639	-0.000051
C56	C	1.016825	1.402491	-0.000051
C57	C	0.936787	1.000537	0.447320
C58	C	0.936785	1.000537	0.552590
C59	C	1.016823	1.000533	0.699843
C60	C	1.016823	1.000533	0.597990
C61	C	1.321801	0.700415	-0.000068
C62	C	1.425307	0.598557	-0.000074
C63	C	1.016823	0.700428	-0.300157
C64	C	1.016823	0.598575	-0.402011
C65	C	1.321800	0.700415	-0.300173
C66	C	1.425306	0.598557	-0.402032
C67	C	0.711848	1.300652	0.300070
C68	C	0.608342	1.402510	0.401928
C69	C	0.711847	1.300652	-0.000035
C70	C	0.608341	1.402510	-0.000030
C71	C	1.016825	1.300639	0.300054
C72	C	1.016825	1.402491	0.401907
C73	C	1.414858	0.553148	0.055618
C74	C	1.521836	0.447873	0.055614
C75	C	1.073418	0.553163	-0.503114
C76	C	1.073419	0.447893	-0.608386
C77	C	1.528048	0.553143	-0.391755
C78	C	1.635029	0.447868	-0.497030
H79	H	0.968363	0.441544	-0.047725
H80	H	1.121877	0.592212	0.103308
O81	O	0.854895	1.000770	0.400892
C82	C	0.747043	1.112114	0.479905
H83	H	0.756739	1.189946	0.545193
H84	H	0.689930	1.149497	0.435613
H85	H	0.707246	1.086937	0.522798
O86	O	1.131211	0.401128	0.112419
C87	C	1.118332	0.306448	0.099795
H88	H	1.096385	0.264686	0.020637
H89	H	1.201190	0.225864	0.093043
H90	H	1.047007	0.352229	0.175493
O91	O	1.131067	0.599882	-0.513465
C92	C	1.087310	0.655278	-0.572477
H93	H	0.996564	0.683929	-0.564585
H94	H	1.087390	0.744704	-0.536010
H95	H	1.142591	0.581997	-0.664553
O96	O	1.530432	0.552166	-0.056821
C97	C	1.542979	0.654230	-0.013778
H98	H	1.481361	0.735641	0.075528
H99	H	1.633943	0.617669	-0.013881
H100	H	1.523779	0.691909	-0.068172
H101	H	1.416546	0.559504	-0.488768
H102	H	0.968374	0.441533	-0.511366
O103	O	0.958916	0.552172	-0.391512
C104	C	0.906319	0.614810	-0.277066
H105	H	0.894464	0.711844	-0.225932
H106	H	0.819836	0.631228	-0.263825
H107	H	0.962123	0.552010	-0.248898
H108	H	1.085354	1.000523	0.558939
H109	H	1.633349	0.441501	-0.047774
O110	O	1.131406	0.401191	-0.711829
C111	C	1.247673	0.345797	-0.724178
H112	H	1.268783	0.317129	-0.663545
H113	H	1.301489	0.256382	-0.813691
H114	H	1.266764	0.419085	-0.705285
O115	O	1.538389	0.599624	-0.288235
C116	C	1.485568	0.576248	-0.229476
H117	H	1.481226	0.492285	-0.291660
H118	H	1.536971	0.551023	-0.176417
H119	H	1.395799	0.666532	-0.172838
H120	H	0.460102	1.226502	0.113014
H121	H	0.968374	0.559516	-0.047731
O122	O	1.098724	1.000353	0.448302
C123	C	1.206571	0.888971	0.369306
H124	H	1.201578	0.851848	0.281229
H125	H	1.270903	0.914007	0.378649
H126	H	1.234440	0.810994	0.384163
O127	O	1.740194	0.401419	-0.486782
C128	C	1.799970	0.424774	-0.538714
H129	H	1.736826	0.508702	-0.543050
H130	H	1.853829	0.450042	-0.488059
H131	H	1.857592	0.334466	-0.627024
O132	O	0.390971	1.123592	0.212071
C133	C	0.444029	1.167934	0.286902
H134	H	0.502488	1.178440	0.246588
H135	H	0.376401	1.265690	0.367130
H136	H	0.496099	1.095532	0.307498
H137	H	0.632227	0.887643	0.081979
H138	H	1.326714	0.592215	0.103306
O139	O	1.519494	0.449065	-0.608575
C140	C	1.506933	0.504516	-0.667541
H141	H	1.594446	0.461251	-0.720458
H142	H	1.455677	0.483633	-0.724332
H143	H	1.460517	0.613502	-0.605518
O144	O	1.511566	0.401190	0.112478
C145	C	1.620664	0.306453	0.099796
H146	H	1.685050	0.322254	0.078203
H147	H	1.619693	0.314151	0.181329
H148	H	1.645467	0.206352	0.029606
H149	H	0.632421	0.887640	-0.194808
O150	O	0.578944	0.754368	-0.123004
C151	C	0.698600	0.668031	-0.165406
H152	H	0.736475	0.718873	-0.110835
H153	H	0.725260	0.580695	-0.164857
H154	H	0.730822	0.634709	-0.254812
O155	O	0.390787	1.123678	-0.088925
C156	C	0.281704	1.229573	-0.009069
H157	H	0.286098	1.260582	0.078537
H158	H	0.250552	1.313498	-0.016334
H159	H	0.220257	1.200273	-0.024835
O160	O	0.855180	1.000367	0.599188
C161	C	0.906793	0.888990	0.598842
H162	H	0.998801	0.851859	0.594518
H163	H	0.858510	0.914034	0.678707
H164	H	0.904802	0.811015	0.523023
