data_functionalizedCrystal
_audit_creation_method	'MofGen! by Chris Wilmer'
_symmetry_space_group_name_H-M	'P1'
_symmetry_Int_Tables_number	1
_symmetry_cell_setting	triclinic
loop_
_symmetry_equiv_pos_as_xyz
  x,y,z
_cell_length_a	17.699083
_cell_length_b	23.532407
_cell_length_c	16.176319
_cell_angle_alpha	89.988536
_cell_angle_beta	89.998611
_cell_angle_gamma	83.065847
loop_
_atom_site_label
_atom_site_type_symbol
_atom_site_fract_x
_atom_site_fract_y
_atom_site_fract_z
O1	O	1.003713	0.072020	-0.068639
O2	O	1.503713	0.572020	0.431361
O3	O	0.783287	0.081390	-0.068667
O4	O	1.283287	0.581390	0.431333
O5	O	0.900147	-0.006208	-0.068637
O6	O	1.400147	0.493792	0.431363
O7	O	0.886853	0.159618	-0.068669
O8	O	1.386853	0.659618	0.431331
O9	O	0.900131	-0.006213	0.068856
O10	O	1.400131	0.493787	0.568856
O11	O	0.783271	0.081384	0.068826
O12	O	1.283271	0.581384	0.568826
O13	O	1.003697	0.072014	0.068854
O14	O	1.503697	0.572014	0.568854
Cu15	Cu	0.893483	0.076699	0.081394
Cu16	Cu	1.393483	0.576699	0.581394
Cu17	Cu	0.893502	0.076705	-0.081207
Cu18	Cu	1.393502	0.576705	0.418793
O19	O	0.886837	0.159612	0.068824
O20	O	1.386837	0.659612	0.568824
C21	C	0.755084	0.081051	0.000076
C22	C	1.255084	0.581051	0.500076
C23	C	0.671071	0.080044	0.000066
C24	C	1.171071	0.580044	0.500066
C25	C	0.622189	0.131462	0.000056
C26	C	1.122189	0.631462	0.500056
C27	C	0.543251	0.130512	0.000067
C28	C	1.043251	0.630512	0.500067
C29	C	0.513196	0.078144	0.000082
C30	C	1.013196	0.578144	0.500082
C31	C	0.562084	0.026722	0.000094
C32	C	1.062084	0.526722	0.500094
C33	C	0.641021	0.027672	0.000089
C34	C	1.141021	0.527672	0.500089
C35	C	0.243740	0.022888	0.000115
C36	C	0.743740	0.522888	0.500115
C37	C	0.164797	0.021942	0.000117
C38	C	0.664797	0.521942	0.500117
C39	C	0.145970	0.125728	0.000093
C40	C	0.645970	0.625728	0.500093
C41	C	0.224907	0.126678	0.000088
C42	C	0.724907	0.626678	0.500088
C43	C	0.273788	0.075257	0.000105
C44	C	0.773788	0.575257	0.500105
C45	C	0.359382	0.076287	0.000094
C46	C	0.859382	0.576287	0.500094
C47	C	0.427603	0.077113	0.000086
C48	C	0.927603	0.577113	0.500086
C49	C	0.899801	-0.027427	0.000111
C50	C	1.399801	0.472573	0.500111
C51	C	0.898783	-0.090647	0.000118
C52	C	1.398783	0.409353	0.500118
C53	C	0.961554	-0.489570	0.000080
C54	C	1.461554	0.010430	0.500080
C55	C	0.960609	-0.548973	0.000074
C56	C	1.460609	-0.048973	0.500074
O57	O	1.018799	-0.585550	0.000051
O58	O	1.518799	-0.085550	0.500051
N59	N	0.891136	-0.571799	0.000066
N60	N	1.391136	-0.071799	0.500066
C61	C	0.822604	-0.535218	0.000055
C62	C	1.322604	-0.035218	0.500055
O63	O	0.763424	-0.560088	0.000047
O64	O	1.263424	-0.060088	0.500047
C65	C	0.823550	-0.475816	0.000056
C66	C	1.323550	0.024184	0.500056
C67	C	0.893028	-0.452994	0.000073
C68	C	1.393028	0.047006	0.500073
C69	C	1.031026	-0.466747	0.000096
C70	C	1.531026	0.033253	0.500096
C71	C	1.031972	-0.407348	0.000104
C72	C	1.531972	0.092652	0.500104
C73	C	0.963445	-0.370772	0.000096
C74	C	1.463445	0.129228	0.500096
C75	C	0.893973	-0.393595	0.000080
C76	C	1.393973	0.106405	0.500080
C77	C	0.755019	-0.439237	0.000040
C78	C	1.255019	0.060763	0.500040
C79	C	0.755971	-0.379832	0.000039
C80	C	1.255971	0.120168	0.500039
C81	C	0.825448	-0.357009	0.000056
C82	C	1.325448	0.142991	0.500056
C83	C	0.826391	-0.297620	0.000081
C84	C	1.326391	0.202380	0.500081
N85	N	0.895864	-0.274795	0.000089
N86	N	1.395864	0.225205	0.500089
C87	C	0.964391	-0.311371	0.000097
C88	C	1.464391	0.188629	0.500097
C89	C	0.820622	-0.659966	0.000053
C90	C	1.320622	-0.159966	0.500053
C91	C	0.819674	-0.719367	0.000058
C92	C	1.319674	-0.219367	0.500058
C93	C	0.957680	-0.733118	0.000075
C94	C	1.457680	-0.233118	0.500075
C95	C	0.958626	-0.673716	0.000076
C96	C	1.458626	-0.173716	0.500076
C97	C	0.890095	-0.637141	0.000061
C98	C	1.390095	-0.137141	0.500061
C99	C	0.966371	-0.186628	0.000114
C100	C	1.466371	0.313372	0.500114
C101	C	0.967310	-0.127223	0.000125
C102	C	1.467310	0.372777	0.500125
C103	C	0.829305	-0.113478	0.000104
C104	C	1.329305	0.386522	0.500104
C105	C	0.828365	-0.172877	0.000097
C106	C	1.328365	0.327123	0.500097
C107	C	0.896904	-0.209452	0.000099
C108	C	1.396904	0.290548	0.500099
O109	O	0.768232	-0.261008	0.000100
O110	O	1.268232	0.238992	0.500100
O111	O	1.023560	-0.286493	0.000094
O112	O	1.523560	0.213507	0.500094
C113	C	1.031901	0.072353	0.000109
C114	C	1.531901	0.572353	0.500109
C115	C	1.115914	0.073360	0.000114
C116	C	1.615914	0.573360	0.500114
C117	C	0.887184	0.180832	0.000073
C118	C	1.387184	0.680832	0.500073
C119	C	0.888202	0.244052	0.000062
C120	C	1.388202	0.744052	0.500062
N121	N	0.893475	0.076694	0.195759
N122	N	1.393475	0.576694	0.695759
N123	N	0.893516	0.076706	-0.195573
N124	N	1.393516	0.576706	0.304427
C125	C	0.945236	0.037921	0.239037
C126	C	1.445236	0.537921	0.739037
C127	C	0.945240	0.037921	0.325584
C128	C	1.445240	0.537921	0.825584
C129	C	0.893486	0.076696	0.368852
C130	C	1.393486	0.576696	0.868852
C131	C	0.841719	0.115470	0.325568
C132	C	1.341719	0.615470	0.825568
C133	C	0.841713	0.115467	0.239023
C134	C	1.341713	0.615467	0.739023
C135	C	0.841745	0.115481	0.674597
C136	C	1.341745	0.615481	1.174597
C137	C	0.841758	0.115481	0.761148
C138	C	1.341758	0.615481	1.261148
C139	C	0.945273	0.037934	0.761158
C140	C	1.445273	0.537934	1.261158
C141	C	0.945266	0.037932	0.674612
C142	C	1.445266	0.537932	1.174612
C143	C	0.893497	0.076704	0.631336
C144	C	1.393497	0.576704	1.131336
C145	C	0.893493	0.076703	0.537492
C146	C	1.393493	0.576703	1.037492
C147	C	0.893493	0.076700	0.462695
C148	C	1.393493	0.576700	0.962695
H149	H	0.283530	-0.018983	0.000129
H150	H	0.783530	0.481017	0.500129
N151	N	1.106908	-0.382737	0.000119
N152	N	1.606908	0.117263	0.500119
H153	H	1.150170	-0.414928	0.000121
H154	H	1.650170	0.085072	0.500121
H155	H	1.110316	-0.358384	-0.050850
H156	H	1.610316	0.141616	0.449150
H157	H	0.764811	-0.630189	0.000048
H158	H	1.264811	-0.130189	0.500048
N159	N	0.682057	-0.340377	0.000042
N160	N	1.182057	0.159623	0.500042
H161	H	0.679375	-0.315413	-0.050922
H162	H	1.179375	0.184587	0.449078
H163	H	0.637943	-0.363888	0.000066
H164	H	1.137943	0.136112	0.500066
H165	H	0.773512	-0.083687	0.000101
H166	H	1.273512	0.416313	0.500101
H167	H	0.140330	-0.020705	0.000130
H168	H	0.640330	0.479295	0.500130
H169	H	1.015201	-0.655139	0.000089
H170	H	1.515201	-0.155139	0.500089
H171	H	0.537607	-0.015917	0.000117
H172	H	1.037607	0.484083	0.500117
H173	H	0.799610	0.147058	0.796376
H174	H	1.299610	0.647058	1.296376
N175	N	1.001110	-0.003887	0.807834
N176	N	1.501110	0.496113	1.307834
H177	H	0.993263	0.001995	0.869226
H178	H	1.493263	0.501995	1.369226
H179	H	0.992677	-0.044282	0.792719
H180	H	1.492677	0.455718	1.292719
N181	N	0.257314	0.183164	0.000075
N182	N	0.757314	0.683164	0.500075
H183	H	0.289647	0.185870	0.051041
H184	H	0.789647	0.685870	0.551041
H185	H	0.289606	0.185843	-0.050930
H186	H	0.789606	0.685843	0.449070
N187	N	0.654607	0.187944	0.000044
N188	N	1.154607	0.687944	0.500044
H189	H	0.686935	0.190655	-0.050928
H190	H	1.186935	0.690655	0.449072
H191	H	0.611620	0.220341	0.000073
H192	H	1.111620	0.720341	0.500073
N193	N	0.693750	-0.027784	0.000094
N194	N	1.193750	0.472216	0.500094
H195	H	0.726919	-0.029703	0.051063
H196	H	1.226919	0.470297	0.551063
H197	H	0.662682	-0.061072	0.000071
H198	H	1.162682	0.438928	0.500071
N199	N	1.001089	-0.003887	0.627944
N200	N	1.501089	0.496113	1.127944
H201	H	1.033880	-0.028451	0.668494
H202	H	1.533880	0.471549	1.168494
H203	H	0.972301	-0.029038	0.592049
H204	H	1.472301	0.470962	1.092049
H205	H	1.013478	-0.762909	0.000079
H206	H	1.513478	-0.262909	0.500079
H207	H	1.023889	-0.108645	0.000141
H208	H	1.523889	0.391355	0.500141
N209	N	0.744737	-0.743977	0.000043
N210	N	1.244737	-0.243977	0.500043
H211	H	0.754528	-0.787158	0.000039
H212	H	1.254528	-0.287158	0.500039
H213	H	0.714765	-0.730598	0.051010
H214	H	1.214765	-0.230598	0.551010
H215	H	0.799576	0.147040	0.360802
H216	H	1.299576	0.647040	0.860802
N217	N	0.490527	0.185970	0.000150
N218	N	0.990527	0.685970	0.500150
H219	H	0.521545	0.219289	0.000165
H220	H	1.021545	0.719289	0.500165
H221	H	0.457320	0.187881	-0.050787
H222	H	0.957320	0.687881	0.449213
N223	N	0.785880	0.157286	0.192347
N224	N	1.285880	0.657286	0.692347
H225	H	0.794288	0.197700	0.207389
H226	H	1.294288	0.697700	0.707389
H227	H	0.793752	0.151350	0.130970
H228	H	1.293752	0.651350	0.630970
N229	N	0.093248	0.181192	0.000078
N230	N	0.593248	0.681192	0.500078
H231	H	0.038681	0.172647	0.000086
H232	H	0.538681	0.672647	0.500086
H233	H	0.102938	0.204020	0.051040
H234	H	0.602938	0.704020	0.551040
H235	H	0.987383	0.006349	0.203814
H236	H	1.487383	0.506349	0.703814
N237	N	1.001093	-0.003878	0.372263
N238	N	1.501093	0.496122	0.872263
H239	H	1.033890	-0.028433	0.331720
H240	H	1.533890	0.471567	0.831720
H241	H	1.034374	0.017919	0.408143
H242	H	1.534374	0.517919	0.908143
N243	N	1.040293	-0.226071	0.000117
N244	N	1.540293	0.273929	0.500117
H245	H	1.084441	-0.202591	0.000130
H246	H	1.584441	0.297409	0.500130
H247	H	1.042903	-0.251025	0.051086
H248	H	1.542903	0.248975	0.551086
N249	N	1.104944	-0.506192	0.000105
N250	N	1.604944	-0.006192	0.500105
H251	H	1.149090	-0.482711	0.000116
H252	H	1.649090	0.017289	0.500116
H253	H	1.107553	-0.531142	0.051079
H254	H	1.607553	-0.031142	0.551079
N255	N	0.680081	-0.463843	0.000032
N256	N	1.180081	0.036157	0.500032
H257	H	0.636821	-0.431650	0.000026
H258	H	1.136821	0.068350	0.500026
H259	H	0.676681	-0.488182	-0.050939
H260	H	1.176681	0.011818	0.449061
H261	H	0.771791	-0.191460	0.000106
H262	H	1.271791	0.308540	0.500106
N263	N	0.785908	0.157294	0.627927
N264	N	1.285908	0.657294	1.127927
H265	H	0.753126	0.181857	0.668472
H266	H	1.253126	0.681857	1.168472
H267	H	0.814680	0.182446	0.592000
H268	H	1.314680	0.682446	1.092000
