data_functionalizedCrystal
_audit_creation_method	'MofGen! by Chris Wilmer'
_symmetry_space_group_name_H-M	'P1'
_symmetry_Int_Tables_number	1
_symmetry_cell_setting	triclinic
loop_
_symmetry_equiv_pos_as_xyz
  x,y,z
_cell_length_a	23.532407
_cell_length_b	22.010155
_cell_length_c	23.532407
_cell_angle_alpha	89.990798
_cell_angle_beta	97.151322
_cell_angle_gamma	90.010358
loop_
_atom_site_label
_atom_site_type_symbol
_atom_site_fract_x
_atom_site_fract_y
_atom_site_fract_z
O1	O	0.755269	0.050455	-0.069133
O2	O	1.088602	0.383789	0.264200
O3	O	1.421936	0.717122	0.597533
O4	O	0.589406	0.050474	-0.079137
O5	O	0.922739	0.383807	0.254197
O6	O	1.256072	0.717141	0.587530
O7	O	0.677339	0.050453	0.008797
O8	O	1.010672	0.383786	0.342130
O9	O	1.344005	0.717120	0.675463
O10	O	0.667336	0.050476	-0.157067
O11	O	1.000669	0.383810	0.176267
O12	O	1.334002	0.717143	0.509600
O13	O	0.677312	-0.050597	0.008797
O14	O	1.010646	0.282736	0.342130
O15	O	1.343979	0.616069	0.675463
O16	O	0.589379	-0.050576	-0.079137
O17	O	0.922713	0.282757	0.254197
O18	O	1.256046	0.616090	0.587530
O19	O	0.755243	-0.050595	-0.069133
O20	O	1.088576	0.282738	0.264200
O21	O	1.421909	0.616072	0.597533
Cu22	Cu	0.672308	-0.059812	-0.074135
Cu23	Cu	1.005642	0.273521	0.259198
Cu24	Cu	1.338975	0.606854	0.592532
Cu25	Cu	0.672340	0.059691	-0.074135
Cu26	Cu	1.005673	0.393025	0.259198
Cu27	Cu	1.339006	0.726358	0.592532
O28	O	0.667309	-0.050574	-0.157067
O29	O	1.000643	0.282759	0.176267
O30	O	1.333976	0.616093	0.509600
C31	C	0.568176	-0.000049	-0.078882
C32	C	0.901510	0.333285	0.254451
C33	C	1.234843	0.666618	0.587785
C34	C	0.504959	-0.000042	-0.078116
C35	C	0.838293	0.333291	0.255217
C36	C	1.171626	0.666625	0.588551
C37	C	0.105856	-0.000063	-0.125350
C38	C	0.439190	0.333270	0.207984
C39	C	0.772523	0.666604	0.541317
C40	C	0.046456	-0.000067	-0.124638
C41	C	0.379789	0.333267	0.208695
C42	C	0.713123	0.666600	0.542029
O43	O	0.009711	-0.000083	-0.168424
O44	O	0.343045	0.333251	0.164909
O45	O	0.676378	0.666584	0.498243
N46	N	0.023830	-0.000073	-0.072362
N47	N	0.357163	0.333260	0.260972
N48	N	0.690496	0.666593	0.594305
C49	C	0.060607	-0.000082	-0.020794
C50	C	0.393941	0.333251	0.312540
C51	C	0.727274	0.666585	0.645873
O52	O	0.035908	-0.000088	0.023737
O53	O	0.369241	0.333245	0.357070
O54	O	0.702574	0.666578	0.690404
C55	C	0.120006	-0.000082	-0.021506
C56	C	0.453340	0.333251	0.311828
C57	C	0.786673	0.666584	0.645161
C58	C	0.142629	-0.000070	-0.073785
C59	C	0.475962	0.333263	0.259548
C60	C	0.809296	0.666597	0.592881
C61	C	0.128479	-0.000051	-0.177625
C62	C	0.461813	0.333282	0.155708
C63	C	0.795146	0.666615	0.489042
C64	C	0.187876	-0.000046	-0.178336
C65	C	0.521209	0.333287	0.154997
C66	C	0.854542	0.666620	0.488330
C67	C	0.224649	-0.000053	-0.126772
C68	C	0.557982	0.333280	0.206561
C69	C	0.891315	0.666614	0.539895
C70	C	0.202025	-0.000065	-0.074497
C71	C	0.535359	0.333268	0.258837
C72	C	0.868692	0.666602	0.592170
C73	C	0.156783	-0.000096	0.030062
C74	C	0.490116	0.333238	0.363395
C75	C	0.823450	0.666571	0.696729
C76	C	0.216185	-0.000097	0.029345
C77	C	0.549519	0.333237	0.362679
C78	C	0.882852	0.666570	0.696012
C79	C	0.238808	-0.000084	-0.022934
C80	C	0.572141	0.333249	0.310399
C81	C	0.905475	0.666583	0.643732
C82	C	0.298194	-0.000067	-0.023643
C83	C	0.631528	0.333266	0.309690
C84	C	0.964861	0.666600	0.643023
N85	N	0.320820	-0.000061	-0.075920
N86	N	0.654154	0.333273	0.257414
N87	N	0.987487	0.666606	0.590747
C88	C	0.284048	-0.000054	-0.127484
C89	C	0.617381	0.333280	0.205849
C90	C	0.950714	0.666613	0.539183
C91	C	-0.064135	-0.000082	-0.019302
C92	C	0.269198	0.333251	0.314031
C93	C	0.602532	0.666585	0.647365
C94	C	-0.123533	-0.000077	-0.018589
C95	C	0.209800	0.333256	0.314744
C96	C	0.543134	0.666590	0.648077
C97	C	-0.137680	-0.000063	-0.122434
C98	C	0.195653	0.333270	0.210899
C99	C	0.528986	0.666604	0.544232
C100	C	-0.078281	-0.000064	-0.123146
C101	C	0.255052	0.333270	0.210187
C102	C	0.588385	0.666603	0.543520
C103	C	-0.041509	-0.000076	-0.071578
C104	C	0.291824	0.333258	0.261755
C105	C	0.625158	0.666591	0.595088
C106	C	0.408784	-0.000043	-0.128974
C107	C	0.742118	0.333291	0.204360
C108	C	1.075451	0.666624	0.537693
C109	C	0.468186	-0.000035	-0.129680
C110	C	0.801520	0.333298	0.203653
C111	C	1.134853	0.666631	0.536986
C112	C	0.482329	-0.000052	-0.025836
C113	C	0.815662	0.333281	0.307497
C114	C	1.148995	0.666614	0.640831
C115	C	0.422932	-0.000057	-0.025129
C116	C	0.756265	0.333277	0.308204
C117	C	1.089598	0.666610	0.641538
C118	C	0.386160	-0.000054	-0.076702
C119	C	0.719494	0.333279	0.256631
C120	C	1.052827	0.666613	0.589964
O121	O	0.334974	-0.000054	0.020119
O122	O	0.668307	0.333280	0.353453
O123	O	1.001640	0.666613	0.686786
O124	O	0.308755	-0.000055	-0.172007
O125	O	0.642089	0.333278	0.161326
O126	O	0.975422	0.666611	0.494660
N127	N	0.672291	-0.143865	-0.074135
N128	N	1.005624	0.189469	0.259199
N129	N	1.338957	0.522802	0.592532
C130	C	0.706685	-0.563643	-0.108496
C131	C	1.040018	-0.230310	0.224838
C132	C	1.373352	0.103023	0.558171
C133	C	0.706692	-0.627251	-0.108494
C134	C	1.040025	-0.293917	0.224839
C135	C	1.373359	0.039416	0.558173
O136	O	0.735915	-0.660141	-0.137705
O137	O	1.069248	-0.326808	0.195628
O138	O	1.402581	0.006525	0.528962
N139	N	0.672351	-0.659072	-0.074128
N140	N	1.005684	-0.325739	0.259205
N141	N	1.339017	0.007595	0.592538
C142	C	0.638005	-0.627282	-0.039758
C143	C	0.971338	-0.293949	0.293576
C144	C	1.304672	0.039385	0.626909
O145	O	0.608796	-0.660189	-0.010527
O146	O	0.942130	-0.326856	0.322807
O147	O	1.275463	0.006478	0.656140
C148	C	0.638002	-0.563676	-0.039757
C149	C	0.971335	-0.230342	0.293577
C150	C	1.304669	0.102991	0.626910
C151	C	0.672341	-0.531858	-0.074129
C152	C	1.005674	-0.198524	0.259205
C153	C	1.339007	0.134809	0.592538
C154	C	0.741022	-0.531825	-0.142864
C155	C	1.074355	-0.198492	0.190469
C156	C	1.407688	0.134841	0.523802
C157	C	0.741014	-0.468222	-0.142867
C158	C	1.074347	-0.134889	0.190467
C159	C	1.407681	0.198445	0.523800
C160	C	0.706670	-0.436437	-0.108500
C161	C	1.040003	-0.103103	0.224834
C162	C	1.373336	0.230230	0.558167
C163	C	0.672333	-0.468255	-0.074131
C164	C	1.005666	-0.134921	0.259203
C165	C	1.339000	0.198412	0.592536
C166	C	0.603660	-0.531887	-0.005383
C167	C	0.936993	-0.198554	0.327950
C168	C	1.270326	0.134780	0.661284
C169	C	0.603660	-0.468276	-0.005384
C170	C	0.936993	-0.134943	0.327949
C171	C	1.270326	0.198391	0.661282
C172	C	0.637999	-0.436458	-0.039757
C173	C	0.971332	-0.103125	0.293577
C174	C	1.304665	0.230208	0.626910
C175	C	0.637981	-0.372866	-0.039766
C176	C	0.971315	-0.039533	0.293567
C177	C	1.304648	0.293801	0.626901
N178	N	0.672322	-0.341045	-0.074132
N179	N	1.005656	-0.007712	0.259202
N180	N	1.338989	0.325622	0.592535
C181	C	0.706667	-0.372830	-0.108498
C182	C	1.040000	-0.039497	0.224835
C183	C	1.373333	0.293836	0.558168
C184	C	0.638015	-0.760860	-0.039762
C185	C	0.971349	-0.427526	0.293571
C186	C	1.304682	-0.094193	0.626904
C187	C	0.638015	-0.824465	-0.039766
C188	C	0.971348	-0.491132	0.293567
C189	C	1.304682	-0.157798	0.626901
C190	C	0.706703	-0.824429	-0.108502
C191	C	1.040036	-0.491096	0.224832
C192	C	1.373369	-0.157763	0.558165
C193	C	0.706700	-0.760823	-0.108501
C194	C	1.040033	-0.427490	0.224833
C195	C	1.373366	-0.094156	0.558166
C196	C	0.672356	-0.729039	-0.074128
C197	C	1.005690	-0.395705	0.259206
C198	C	1.339023	-0.062372	0.592539
C199	C	0.706648	-0.239259	-0.108501
C200	C	1.039981	0.094074	0.224833
C201	C	1.373314	0.427408	0.558166
C202	C	0.706635	-0.175650	-0.108502
C203	C	1.039968	0.157683	0.224832
C204	C	1.373302	0.491017	0.558165
C205	C	0.637950	-0.175691	-0.039764
C206	C	0.971283	0.157642	0.293570
C207	C	1.304617	0.490975	0.626903
C208	C	0.637960	-0.239295	-0.039765
C209	C	0.971293	0.094039	0.293568
C210	C	1.304626	0.427372	0.626902
C211	C	0.672313	-0.271077	-0.074135
C212	C	1.005647	0.062256	0.259198
C213	C	1.338980	0.395590	0.592532
O214	O	0.608775	-0.339935	-0.010568
O215	O	0.942108	-0.006602	0.322765
O216	O	1.275442	0.326732	0.656098
O217	O	0.735876	-0.339916	-0.137719
O218	O	1.069209	-0.006582	0.195614
O219	O	1.402543	0.326751	0.528948
C220	C	0.776472	-0.000071	-0.069388
C221	C	1.109805	0.333263	0.263945
C222	C	1.443138	0.666596	0.597278
C223	C	0.839689	-0.000073	-0.070154
C224	C	1.173022	0.333260	0.263179
C225	C	1.506355	0.666593	0.596513
C226	C	0.677071	-0.000074	0.030013
C227	C	1.010404	0.333260	0.363346
C228	C	1.343738	0.666593	0.696679
C229	C	0.676305	-0.000078	0.093230
C230	C	1.009638	0.333255	0.426563
C231	C	1.342972	0.666588	0.759896
N232	N	0.672362	0.143744	-0.074131
N233	N	1.005695	0.477077	0.259202
N234	N	1.339029	0.810411	0.592536
C235	C	0.667577	-0.000046	-0.178283
C236	C	1.000910	0.333288	0.155051
C237	C	1.334244	0.666621	0.488384
C238	C	0.668343	-0.000037	-0.241500
C239	C	1.001676	0.333296	0.091833
C240	C	1.335010	0.666629	0.425167
C241	C	0.723539	-0.000050	0.492333
C242	C	1.056872	0.333283	0.825666
C243	C	1.390205	0.666616	1.158999
C244	C	0.722827	-0.000046	0.551733
C245	C	1.056160	0.333288	0.885066
C246	C	1.389494	0.666621	1.218400
O247	O	0.766613	-0.000028	0.588478
O248	O	1.099946	0.333305	0.921811
O249	O	1.433280	0.666639	1.255144
N250	N	0.670551	-0.000040	0.574359
N251	N	1.003884	0.333293	0.907693
N252	N	1.337217	0.666627	1.241026
C253	C	0.618983	-0.000033	0.537582
C254	C	0.952316	0.333300	0.870915
C255	C	1.285649	0.666634	1.204248
O256	O	0.574452	-0.000027	0.562281
O257	O	0.907785	0.333306	0.895615
O258	O	1.241119	0.666639	1.228948
C259	C	0.619695	-0.000033	0.478182
C260	C	0.953028	0.333300	0.811516
C261	C	1.286361	0.666633	1.144849
C262	C	0.671974	-0.000045	0.455560
C263	C	1.005308	0.333288	0.788893
C264	C	1.338641	0.666622	1.122227
C265	C	0.775814	-0.000061	0.469710
C266	C	1.109147	0.333272	0.803043
C267	C	1.442481	0.666606	1.136376
C268	C	0.776525	-0.000067	0.410313
C269	C	1.109859	0.333266	0.743647
C270	C	1.443192	0.666600	1.076980
C271	C	0.724961	-0.000062	0.373540
C272	C	1.058294	0.333271	0.706874
C273	C	1.391628	0.666605	1.040207
C274	C	0.672685	-0.000051	0.396164
C275	C	1.006019	0.333282	0.729497
C276	C	1.339352	0.666616	1.062830
C277	C	0.568127	-0.000022	0.441406
C278	C	0.901460	0.333311	0.774739
C279	C	1.234794	0.666644	1.108073
C280	C	0.568844	-0.000022	0.382004
C281	C	0.902177	0.333311	0.715337
C282	C	1.235510	0.666645	1.048670
C283	C	0.621123	-0.000034	0.359381
C284	C	0.954457	0.333300	0.692714
C285	C	1.287790	0.666633	1.026048
C286	C	0.621832	-0.000052	0.299995
C287	C	0.955166	0.333282	0.633328
C288	C	1.288499	0.666615	0.966661
N289	N	0.674109	-0.000057	0.277368
N290	N	1.007442	0.333276	0.610702
N291	N	1.340775	0.666610	0.944035
C292	C	0.725673	-0.000062	0.314141
C293	C	1.059006	0.333271	0.647475
C294	C	1.392340	0.666604	0.980808
C295	C	0.617491	-0.000031	0.662324
C296	C	0.950824	0.333302	0.995657
C297	C	1.284158	0.666635	1.328991
C298	C	0.616778	-0.000035	0.721722
C299	C	0.950112	0.333298	1.055055
C300	C	1.283445	0.666631	1.388389
C301	C	0.720623	-0.000047	0.735869
C302	C	1.053957	0.333287	1.069203
C303	C	1.387290	0.666620	1.402536
C304	C	0.721335	-0.000047	0.676470
C305	C	1.054669	0.333286	1.009804
C306	C	1.388002	0.666620	1.343137
C307	C	0.669767	-0.000037	0.639698
C308	C	1.003101	0.333297	0.973031
C309	C	1.336434	0.666630	1.306365
C310	C	0.727163	-0.000075	0.189405
C311	C	1.060496	0.333258	0.522738
C312	C	1.393829	0.666592	0.856071
C313	C	0.727869	-0.000083	0.130003
C314	C	1.061203	0.333250	0.463336
C315	C	1.394536	0.666583	0.796669
C316	C	0.624025	-0.000069	0.115860
C317	C	0.957358	0.333264	0.449194
C318	C	1.290691	0.666598	0.782527
C319	C	0.623318	-0.000064	0.175257
C320	C	0.956651	0.333270	0.508591
C321	C	1.289985	0.666603	0.841924
C322	C	0.674891	-0.000065	0.212029
C323	C	1.008225	0.333269	0.545362
C324	C	1.341558	0.666602	0.878695
O325	O	0.578070	-0.000067	0.263215
O326	O	0.911403	0.333267	0.596549
O327	O	1.244736	0.666600	0.929882
O328	O	0.770196	-0.000060	0.289433
O329	O	1.103529	0.333273	0.622767
O330	O	1.436863	0.666607	0.956100
H331	H	0.512280	-0.000056	0.016146
H332	H	0.845613	0.333278	0.349480
H333	H	1.178946	0.666611	0.682813
N334	N	0.741734	-0.271707	-0.143619
N335	N	1.075068	0.061626	0.189714
N336	N	1.408401	0.394959	0.523047
N337	N	0.734606	-0.264586	-0.196729
N338	N	1.067939	0.068747	0.136604
N339	N	1.401273	0.402080	0.469938
H340	H	0.759383	-0.287502	-0.221535
H341	H	1.092717	0.045831	0.111798
H342	H	1.426050	0.379165	0.445132
H343	H	0.582043	-0.000067	0.085909
H344	H	0.915376	0.333266	0.419243
H345	H	1.248709	0.666600	0.752576
H346	H	0.580748	-0.000071	0.193677
H347	H	0.914081	0.333262	0.527011
H348	H	1.247414	0.666596	0.860344
H349	H	0.486602	-0.000025	-0.172255
H350	H	0.819935	0.333309	0.161079
H351	H	1.153269	0.666642	0.494412
N352	N	0.516172	-0.000021	0.344434
N353	N	0.849505	0.333313	0.677768
N354	N	1.182838	0.666646	1.011101
N355	N	0.516809	-0.000027	0.291400
N356	N	0.850142	0.333306	0.624734
N357	N	1.183476	0.666639	0.958067
H358	H	0.479610	-0.000028	0.264867
H359	H	0.812943	0.333305	0.598200
H360	H	1.146277	0.666638	0.931533
H361	H	0.246123	-0.000107	0.071339
H362	H	0.579457	0.333227	0.404673
H363	H	0.912790	0.666560	0.738006
N364	N	0.741724	-0.143159	-0.143610
N365	N	1.075057	0.190174	0.189724
N366	N	1.408390	0.523507	0.523057
N367	N	0.794835	-0.150252	-0.136519
N368	N	1.128168	0.183081	0.196814
N369	N	1.461501	0.516414	0.530148
H370	H	0.819617	-0.127308	-0.161312
H371	H	1.152951	0.206026	0.172021
H372	H	1.486284	0.539359	0.505355
N373	N	0.371237	-0.000043	-0.181659
N374	N	0.704571	0.333290	0.151674
N375	N	1.037904	0.666624	0.485008
N376	N	0.391454	-0.000033	-0.228326
N377	N	0.724788	0.333300	0.105007
N378	N	1.058121	0.666634	0.438341
H379	H	0.364937	-0.000031	-0.265536
H380	H	0.698271	0.333303	0.067798
H381	H	1.031604	0.666636	0.401131
H382	H	0.404512	-0.000058	0.017441
H383	H	0.737845	0.333275	0.350775
H384	H	1.071178	0.666609	0.684108
N385	N	0.776087	-0.435735	-0.177988
N386	N	1.109421	-0.102402	0.155346
N387	N	1.442754	0.230931	0.488679
N388	N	0.806742	-0.464133	-0.208671
N389	N	1.140076	-0.130800	0.124662
N390	N	1.473409	0.202533	0.457996
H391	H	0.831513	-0.441194	-0.233479
H392	H	1.164847	-0.107860	0.099854
H393	H	1.498180	0.225473	0.433187
N394	N	0.776113	-0.564277	-0.177973
N395	N	1.109446	-0.230944	0.155360
N396	N	1.442780	0.102389	0.488694
N397	N	0.806767	-0.535849	-0.208652
N398	N	1.140100	-0.202516	0.124681
N399	N	1.473433	0.130818	0.458014
H400	H	0.831550	-0.558764	-0.233453
H401	H	1.164883	-0.225430	0.099881
H402	H	1.498217	0.107903	0.433214
N403	N	0.781274	-0.000081	0.106896
N404	N	1.114608	0.333252	0.440229
N405	N	1.447941	0.666586	0.773562
N406	N	0.793269	0.042512	0.075323
N407	N	1.126603	0.375845	0.408656
N408	N	1.459936	0.709178	0.741990
H409	H	0.830986	0.042515	0.059005
H410	H	1.164319	0.375848	0.392338
H411	H	1.497652	0.709182	0.725671
H412	H	0.575496	-0.000028	0.632386
H413	H	0.908829	0.333305	0.965720
H414	H	1.242162	0.666638	1.299053
H415	H	0.762610	-0.000048	0.765821
H416	H	1.095943	0.333285	1.099154
H417	H	1.429276	0.666618	1.432488
N418	N	0.090920	-0.000033	-0.230300
N419	N	0.424254	0.333300	0.103033
N420	N	0.757587	0.666633	0.436366
N421	N	0.056207	0.042566	-0.241493
N422	N	0.389540	0.375899	0.091840
N423	N	0.722874	0.709232	0.425174
H424	H	0.029683	0.042582	-0.278698
H425	H	0.363016	0.375915	0.054635
H426	H	0.696350	0.709249	0.387969
H427	H	-0.059867	-0.000057	-0.165717
H428	H	0.273467	0.333277	0.167616
H429	H	0.606800	0.666610	0.500950
H430	H	-0.141947	-0.000078	0.023982
H431	H	0.191387	0.333256	0.357315
H432	H	0.524720	0.666589	0.690648
N433	N	0.602937	-0.728394	-0.004645
N434	N	0.936270	-0.395060	0.328688
N435	N	1.269603	-0.061727	0.662021
N436	N	0.610061	-0.735510	0.048465
N437	N	0.943394	-0.402177	0.381798
N438	N	1.276727	-0.068843	0.715131
H439	H	0.585289	-0.712583	0.073268
H440	H	0.918622	-0.379249	0.406601
H441	H	1.251955	-0.045916	0.739934
N442	N	-0.026567	-0.000091	0.033372
N443	N	0.306767	0.333242	0.366705
N444	N	0.640100	0.666576	0.700038
N445	N	0.008151	-0.042687	0.044565
N446	N	0.341484	0.290647	0.377898
N447	N	0.674817	0.623980	0.711231
H448	H	0.034682	-0.042695	0.081765
H449	H	0.368015	0.290639	0.415099
H450	H	0.701348	0.623972	0.748432
N451	N	0.741783	-0.728334	-0.143610
N452	N	1.075117	-0.395001	0.189724
N453	N	1.408450	-0.061668	0.523057
N454	N	0.772444	-0.756729	-0.174289
N455	N	1.105778	-0.423396	0.159044
N456	N	1.439111	-0.090063	0.492378
H457	H	0.797227	-0.733788	-0.199084
H458	H	1.130560	-0.400454	0.134249
H459	H	1.463894	-0.067121	0.467582
H460	H	0.574207	-0.000036	0.740136
H461	H	0.907540	0.333297	1.073469
H462	H	1.240874	0.666630	1.406802
H463	H	-0.167632	-0.000060	-0.164421
H464	H	0.165701	0.333273	0.168913
H465	H	0.499035	0.666606	0.502246
N466	N	0.602887	-0.143226	-0.004636
N467	N	0.936220	0.190107	0.328697
N468	N	1.269554	0.523441	0.662030
N469	N	0.572241	-0.171637	0.026064
N470	N	0.905575	0.161697	0.359397
N471	N	1.238908	0.495030	0.692730
H472	H	0.547486	-0.148707	0.050882
H473	H	0.880820	0.184626	0.384215
H474	H	1.214153	0.517959	0.717549
H475	H	0.138375	-0.000106	0.072634
H476	H	0.471708	0.333227	0.405967
H477	H	0.805041	0.666560	0.739300
N478	N	0.741778	-0.856901	-0.143618
N479	N	1.075112	-0.523568	0.189716
N480	N	1.408445	-0.190234	0.523049
N481	N	0.719323	-0.892391	-0.181385
N482	N	1.052656	-0.559058	0.151949
N483	N	1.385989	-0.225725	0.485282
H484	H	0.744091	-0.915325	-0.206187
H485	H	1.077425	-0.581992	0.127147
H486	H	1.410758	-0.248658	0.460480
N487	N	0.210970	-0.000033	-0.231744
N488	N	0.544303	0.333301	0.101589
N489	N	0.877636	0.666634	0.434922
N490	N	0.178121	-0.000027	-0.277775
N491	N	0.511454	0.333306	0.055558
N492	N	0.844788	0.666640	0.388891
H493	H	0.194427	-0.000018	-0.315498
H494	H	0.527760	0.333315	0.017835
H495	H	0.861094	0.666648	0.351169
H496	H	0.610046	-0.850366	-0.011784
H497	H	0.943379	-0.517032	0.321550
H498	H	1.276713	-0.183699	0.654883
N499	N	0.779848	-0.000074	0.226952
N500	N	1.113181	0.333259	0.560285
N501	N	1.446515	0.666593	0.893618
N502	N	0.826515	-0.000084	0.206735
N503	N	1.159848	0.333249	0.540068
N504	N	1.493182	0.666582	0.873401
H505	H	0.863725	-0.000087	0.233252
H506	H	1.197058	0.333246	0.566585
H507	H	1.530391	0.666580	0.899918
H508	H	0.763906	-0.000056	0.658056
H509	H	1.097239	0.333277	0.991389
H510	H	1.430573	0.666611	1.324722
H511	H	0.819097	-0.000074	0.391900
H512	H	1.152430	0.333259	0.725233
H513	H	1.485763	0.666593	1.058567
H514	H	0.525555	-0.000009	0.459814
H515	H	0.858889	0.333324	0.793148
H516	H	1.192222	0.666658	1.126481
H517	H	0.817806	-0.000063	0.499645
H518	H	1.151140	0.333270	0.832978
H519	H	1.484473	0.666604	1.166312
N520	N	0.568579	-0.564368	0.029731
N521	N	0.901912	-0.231035	0.363064
N522	N	1.235245	0.102299	0.696397
N523	N	0.537924	-0.535968	0.060413
N524	N	0.871257	-0.202635	0.393746
N525	N	1.204590	0.130698	0.727080
H526	H	0.513146	-0.558906	0.085216
H527	H	0.846479	-0.225573	0.418549
H528	H	1.179812	0.107760	0.751882
H529	H	0.575693	-0.442401	0.022607
H530	H	0.909026	-0.109067	0.355940
H531	H	1.242360	0.224266	0.689274
H532	H	0.609991	-0.265202	-0.011784
H533	H	0.943324	0.068131	0.321550
H534	H	1.276658	0.401465	0.654883
