data_functionalizedCrystal
_audit_creation_method	'MofGen! by Chris Wilmer'
_symmetry_space_group_name_H-M	'P1'
_symmetry_Int_Tables_number	1
_symmetry_cell_setting	triclinic
loop_
_symmetry_equiv_pos_as_xyz
  x,y,z
_cell_length_a	9.065215
_cell_length_b	19.188930
_cell_length_c	7.540329
_cell_angle_alpha	89.991297
_cell_angle_beta	89.997574
_cell_angle_gamma	84.079739
loop_
_atom_site_label
_atom_site_type_symbol
_atom_site_fract_x
_atom_site_fract_y
_atom_site_fract_z
O1	O	1.956850	0.102360	-0.147485
O2	O	1.527273	0.110759	-0.147495
O3	O	1.754458	0.005000	-0.147455
O4	O	1.729665	0.208119	-0.147525
O5	O	1.754445	0.004999	0.147510
O6	O	1.527259	0.110757	0.147470
O7	O	1.956836	0.102358	0.147480
Cu8	Cu	1.742047	0.106558	0.174407
Cu9	Cu	1.742063	0.106559	-0.174423
O10	O	1.729651	0.208117	0.147440
C11	C	1.472308	0.109951	-0.000013
C12	C	1.308548	0.107539	-0.000016
C13	C	1.753648	-0.021018	0.000032
C14	C	1.751238	-0.098541	0.000047
C15	C	1.884543	-0.142430	0.000059
C16	C	1.882279	-0.215272	0.000031
C17	C	1.746702	-0.244221	0.000026
C18	C	1.613380	-0.200322	0.000005
C19	C	1.615648	-0.127482	0.000015
N20	N	1.643065	-0.353031	0.100406
N21	N	1.640920	-0.422226	0.100400
C22	C	1.739860	-0.463683	-0.000010
N23	N	1.841050	-0.433331	-0.100391
N24	N	1.843200	-0.364130	-0.100376
C25	C	1.744228	-0.323202	0.000013
C26	C	1.870719	-0.586555	-0.000032
C27	C	1.868449	-0.659397	-0.000071
C28	C	1.599546	-0.644446	-0.000079
C29	C	1.601820	-0.571605	-0.000058
C30	C	1.737410	-0.542664	-0.000025
C31	C	2.011802	0.103166	-0.000006
C32	C	2.175561	0.105578	-0.000015
C33	C	1.730461	0.234135	-0.000052
C34	C	1.732871	0.311659	-0.000079
N35	N	1.742046	0.106556	0.419756
N36	N	1.742075	0.106556	-0.419771
H37	H	1.990835	-0.251013	0.000033
H38	H	1.502992	-0.223897	-0.000003
N39	N	1.453307	-0.675653	-0.000064
H40	H	1.394925	-0.659699	-0.109404
H41	H	1.472207	-0.728452	-0.000001
N42	N	1.471864	-0.080139	0.000002
H43	H	1.385629	-0.109528	-0.000012
H44	H	1.466942	-0.049603	0.109357
H45	H	1.981125	-0.562990	-0.000014
H46	H	1.493268	-0.535870	-0.000057
N47	N	2.012231	-0.706741	-0.000057
H48	H	2.071423	-0.697322	-0.109385
H49	H	2.071268	-0.697321	0.109375
N50	N	2.030780	-0.111215	0.000090
H51	H	2.114885	-0.150076	0.000092
H52	H	2.037590	-0.081311	-0.109253
