data_functionalizedCrystal
_audit_creation_method	'MofGen! by Chris Wilmer'
_symmetry_space_group_name_H-M	'P1'
_symmetry_Int_Tables_number	1
_symmetry_cell_setting	triclinic
loop_
_symmetry_equiv_pos_as_xyz
  x,y,z
_cell_length_a	6.817900
_cell_length_b	19.453114
_cell_length_c	19.453103
_cell_angle_alpha	96.316406
_cell_angle_beta	101.709178
_cell_angle_gamma	101.709288
loop_
_atom_site_label
_atom_site_type_symbol
_atom_site_fract_x
_atom_site_fract_y
_atom_site_fract_z
V1	V	-3.997997	-0.219328	-0.097914
V2	V	-3.497997	0.280672	0.402086
O3	O	-3.995098	-0.214817	0.003953
O4	O	-3.495098	0.285183	0.503953
O5	O	-3.941017	-0.218151	-0.193423
O6	O	-3.441017	0.281849	0.306577
O7	O	-3.941018	-0.314837	-0.096738
O8	O	-3.441018	0.185163	0.403262
O9	O	-3.995097	-0.117462	-0.093402
O10	O	-3.495097	0.382538	0.406598
V11	V	-4.483849	-0.207105	-0.085690
V12	V	-3.983849	0.292895	0.414310
O13	O	-4.254148	-0.246141	-0.124727
O14	O	-3.754148	0.253859	0.375273
O15	O	-4.677895	-0.180292	-0.058877
O16	O	-4.177895	0.319708	0.441123
O17	O	-4.317623	-0.208282	0.009819
O18	O	-3.817623	0.291718	0.509819
O19	O	-4.604145	-0.211616	-0.187557
O20	O	-4.104145	0.288384	0.312443
O21	O	-4.604146	-0.308971	-0.090202
O22	O	-4.104146	0.191029	0.409798
O23	O	-4.317621	-0.111596	-0.086866
O24	O	-3.817621	0.388404	0.413134
C25	C	-3.784208	-0.214774	-0.216695
C26	C	-3.284208	0.285226	0.283305
C27	C	-3.818849	-0.214449	-0.294777
C28	C	-3.318849	0.285551	0.205223
C29	C	-4.016582	-0.217808	-0.335044
C30	C	-3.516582	0.282192	0.164956
C31	C	-4.049135	-0.217509	-0.408411
C32	C	-3.549135	0.282491	0.091589
C33	C	-3.883937	-0.213837	-0.441507
C34	C	-3.383937	0.286163	0.058493
C35	C	-3.686178	-0.210481	-0.401231
C36	C	-3.186178	0.289519	0.098769
C37	C	-3.653634	-0.210787	-0.327867
C38	C	-3.153634	0.289213	0.172133
N39	N	-3.779057	-0.170551	-0.547627
N40	N	-3.279057	0.329449	-0.047627
N41	N	-3.809984	-0.170259	-0.617320
N42	N	-3.309984	0.329741	-0.117320
C43	C	-3.981979	-0.212916	-0.662551
C44	C	-3.481979	0.287084	-0.162551
N45	N	-4.121905	-0.255867	-0.635454
N46	N	-3.621905	0.244133	-0.135454
N47	N	-4.090980	-0.256156	-0.565754
N48	N	-3.590980	0.243844	-0.065754
C49	C	-3.919205	-0.213505	-0.521058
C50	C	-3.419205	0.286495	-0.021058
C51	C	-4.215023	-0.215953	-0.782371
C52	C	-3.715023	0.284047	-0.282371
C53	C	-4.247572	-0.215658	-0.855741
C54	C	-3.747572	0.284342	-0.355741
C55	C	-3.884605	-0.208622	-0.848558
C56	C	-3.384605	0.291378	-0.348558
C57	C	-3.852066	-0.208924	-0.775191
C58	C	-3.352066	0.291076	-0.275191
C59	C	-4.017281	-0.212586	-0.742102
C60	C	-3.517281	0.287414	-0.242102
C61	C	-3.784208	-0.338106	-0.093363
C62	C	-3.284208	0.161894	0.406637
C63	C	-3.818848	-0.416187	-0.093034
C64	C	-3.318848	0.083813	0.406966
C65	C	-4.016587	-0.456456	-0.096405
C66	C	-3.516587	0.043544	0.403595
C67	C	-4.049136	-0.529822	-0.096095
C68	C	-3.549136	-0.029822	0.403905
C69	C	-3.883941	-0.562918	-0.092429
C70	C	-3.383941	-0.062918	0.407571
C71	C	-3.686172	-0.522640	-0.089054
C72	C	-3.186172	-0.022640	0.410946
C73	C	-3.653625	-0.449274	-0.089356
C74	C	-3.153625	0.050726	0.410644
N75	N	-3.820865	-0.681832	-0.129523
N76	N	-3.320865	-0.181832	0.370477
N77	N	-3.851796	-0.751526	-0.129237
N78	N	-3.351796	-0.251526	0.370763
C79	C	-3.981989	-0.783963	-0.091516
C80	C	-3.481989	-0.283963	0.408484
N81	N	-4.080118	-0.744075	-0.054100
N82	N	-3.580118	-0.244075	0.445900
N83	N	-4.049192	-0.674375	-0.054389
N84	N	-3.549192	-0.174375	0.445611
C85	C	-3.919211	-0.642470	-0.092100
C86	C	-3.419211	-0.142470	0.407900
C87	C	-4.215033	-0.903783	-0.094550
C88	C	-3.715033	-0.403783	0.405450
C89	C	-4.247572	-0.977150	-0.094236
C90	C	-3.747572	-0.477150	0.405764
C91	C	-3.884605	-0.969967	-0.087202
C92	C	-3.384605	-0.469967	0.412798
C93	C	-3.852068	-0.896601	-0.087509
C94	C	-3.352068	-0.396601	0.412491
C95	C	-4.017291	-0.863515	-0.091187
C96	C	-3.517291	-0.363515	0.408813
C97	C	-4.137773	-0.211656	0.033088
C98	C	-3.637773	0.288344	0.533088
C99	C	-4.082370	-0.211986	0.111169
C100	C	-3.582370	0.288014	0.611169
C101	C	-4.137773	-0.088323	-0.090243
C102	C	-3.637773	0.411677	0.409757
C103	C	-4.082372	-0.010241	-0.090569
C104	C	-3.582372	0.489759	0.409431
H105	H	-4.408596	-0.218398	-0.888526
H106	H	-3.908596	0.281602	-0.388526
H107	H	-3.691053	-0.863815	-0.084771
H108	H	-3.191053	-0.363815	0.415229
Cl109	Cl	-3.603469	-0.204694	-0.724567
Cl110	Cl	-3.103469	0.295306	-0.224567
H111	H	-4.408596	-1.009935	-0.096976
H112	H	-3.908596	-0.509935	0.403024
H113	H	-3.492597	-0.416487	-0.086606
H114	H	-2.992597	0.083513	0.413394
Cl115	Cl	-4.422731	-0.862184	-0.099168
Cl116	Cl	-3.922731	-0.362184	0.400832
Cl117	Cl	-3.676918	-1.011565	-0.082579
Cl118	Cl	-3.176918	-0.511565	0.417421
H119	H	-4.151127	-0.429521	-0.099397
H120	H	-3.651127	0.070479	0.400603
Cl121	Cl	-4.224277	-0.222401	-0.293448
Cl122	Cl	-3.724277	0.277599	0.206552
H123	H	-4.210158	-0.220245	-0.441203
H124	H	-3.710158	0.279755	0.058797
Cl125	Cl	-4.297742	-0.580454	-0.100329
Cl126	Cl	-3.797742	-0.080454	0.399671
H127	H	-3.551675	-0.207492	-0.428183
H128	H	-3.051675	0.292508	0.071817
H129	H	-3.492614	-0.208052	-0.295081
H130	H	-2.992614	0.291948	0.204919
Cl131	Cl	-4.422723	-0.220572	-0.740772
Cl132	Cl	-3.922723	0.279428	-0.240772
H133	H	-3.750099	-0.205636	-0.875504
H134	H	-3.250099	0.294364	-0.375504
H135	H	-3.551669	-0.549591	-0.086066
H136	H	-3.051669	-0.049591	0.413934
