data_functionalizedCrystal
_audit_creation_method	'MofGen! by Chris Wilmer'
_symmetry_space_group_name_H-M	'P1'
_symmetry_Int_Tables_number	1
_symmetry_cell_setting	triclinic
loop_
_symmetry_equiv_pos_as_xyz
  x,y,z
_cell_length_a	18.215407
_cell_length_b	12.759394
_cell_length_c	18.215399
_cell_angle_alpha	89.974009
_cell_angle_beta	89.985640
_cell_angle_gamma	90.011299
loop_
_atom_site_label
_atom_site_type_symbol
_atom_site_fract_x
_atom_site_fract_y
_atom_site_fract_z
Zn1	Zn	1.125106	-0.418324	-0.416090
Zn2	Zn	1.125045	-0.594029	-0.293033
Zn3	Zn	1.002046	-0.418357	-0.293042
Zn4	Zn	1.002029	-0.593954	-0.416063
O5	O	1.063556	-0.506166	-0.354557
O6	O	1.228083	-0.441649	-0.399773
O7	O	1.108710	-0.570771	-0.190050
O8	O	1.018403	-0.271331	-0.309380
O9	O	1.228037	-0.570739	-0.309364
O10	O	1.108815	-0.271307	-0.399782
O11	O	1.018343	-0.441705	-0.190057
O12	O	0.899059	-0.441632	-0.309354
O13	O	1.018374	-0.570611	-0.519051
O14	O	0.899047	-0.570643	-0.399737
O15	O	1.108799	-0.441577	-0.519071
O16	O	1.108694	-0.741040	-0.309338
O17	O	1.018314	-0.740985	-0.399728
C18	C	0.872350	-0.506133	-0.354544
C19	C	0.790551	-0.506145	-0.354556
C20	C	0.602380	-0.439066	-0.401707
C21	C	0.525521	-0.439075	-0.401709
C22	C	0.525485	-0.573295	-0.307420
C23	C	0.602342	-0.573280	-0.307415
C24	C	0.640788	-0.506167	-0.354562
C25	C	0.487072	-0.506191	-0.354570
C26	C	0.403738	-0.506201	-0.354573
C27	C	0.724127	-0.506155	-0.354559
C28	C	1.063516	-0.779133	-0.354545
C29	C	1.063565	-0.895910	-0.354564
C30	C	1.157641	-0.895727	-0.448771
C31	C	1.204702	-0.950496	-0.495880
C32	C	1.204746	-1.060218	-0.495896
C33	C	1.157722	-1.115173	-0.448799
C34	C	1.110661	-1.060403	-0.401690
C35	C	1.110624	-0.950679	-0.401678
C36	C	1.016582	-1.060586	-0.307489
C37	C	1.016541	-0.950865	-0.307468
C38	C	0.969558	-1.115541	-0.260392
C39	C	0.922500	-1.060772	-0.213278
C40	C	0.922459	-0.951044	-0.213264
C41	C	0.969480	-0.896096	-0.260359
C42	C	1.255509	-0.506199	-0.354570
C43	C	1.337308	-0.506213	-0.354576
C44	C	1.063591	-0.506082	-0.546510
C45	C	1.063606	-0.506046	-0.628309
C46	C	1.063618	-0.232132	-0.354585
C47	C	1.063644	-0.115356	-0.354597
C48	C	1.016592	-0.438796	-0.816508
C49	C	1.016604	-0.438775	-0.893366
C50	C	1.110708	-0.573171	-0.893348
C51	C	1.110691	-0.573196	-0.816491
C52	C	1.063634	-0.506003	-0.778073
C53	C	1.063664	-0.505956	-0.931789
C54	C	1.063678	-0.505934	-1.015122
C55	C	1.063619	-0.506027	-0.694734
C56	C	1.063564	-0.506174	-0.163351
C57	C	1.063692	-0.505913	-0.081552
H58	H	0.494253	-0.384434	-0.440098
Cl59	Cl	1.169865	-0.657634	-0.941651
Cl60	Cl	0.863384	-1.129862	-0.154085
H61	H	1.243060	-1.104811	-0.534263
H62	H	0.969595	-1.204882	-0.260411
Cl63	Cl	0.477148	-0.657664	-0.248156
H64	H	0.884133	-0.906456	-0.174905
Cl65	Cl	0.957431	-0.354330	-0.768213
H66	H	0.969454	-0.806754	-0.260349
Cl67	Cl	0.957453	-0.354296	-0.941682
Cl68	Cl	1.263809	-0.881406	-0.555090
Cl69	Cl	1.169832	-0.657697	-0.768169
H70	H	0.633615	-0.627922	-0.269020
H71	H	1.157617	-0.806386	-0.448756
H72	H	0.633680	-0.384416	-0.440095
Cl73	Cl	1.157884	-1.253109	-0.448716
