data_functionalizedCrystal
_audit_creation_method	'MofGen! by Chris Wilmer'
_symmetry_space_group_name_H-M	'P1'
_symmetry_Int_Tables_number	1
_symmetry_cell_setting	triclinic
loop_
_symmetry_equiv_pos_as_xyz
  x,y,z
_cell_length_a	19.288859
_cell_length_b	17.666332
_cell_length_c	19.288865
_cell_angle_alpha	90.011714
_cell_angle_beta	83.134986
_cell_angle_gamma	90.010223
loop_
_atom_site_label
_atom_site_type_symbol
_atom_site_fract_x
_atom_site_fract_y
_atom_site_fract_z
O1	O	0.921356	0.062972	0.086628
O2	O	0.719094	0.062971	0.098322
O3	O	0.826069	0.062957	-0.008655
O4	O	0.814381	0.062987	0.193605
O5	O	0.826051	-0.062940	-0.008661
O6	O	0.719076	-0.062925	0.098316
O7	O	0.921337	-0.062925	0.086623
Cu8	Cu	0.820205	-0.074421	0.092469
Cu9	Cu	0.820227	0.074467	0.092476
O10	O	0.814362	-0.062910	0.193600
C11	C	0.693209	0.000023	0.097943
C12	C	0.616105	0.000022	0.096816
C13	C	0.052064	0.000031	0.151959
C14	C	0.124511	0.000035	0.153025
C15	C	0.169217	0.000024	0.090255
C16	C	0.141472	0.000029	0.026416
C17	C	0.069027	0.000032	0.025353
C18	C	0.290481	-0.044093	0.043440
C19	C	0.362925	-0.044101	0.044506
C20	C	0.392663	0.000017	0.093533
C21	C	0.349948	0.044133	0.141505
C22	C	0.277502	0.044137	0.140441
C23	C	0.247773	0.000021	0.091401
C24	C	0.498955	0.000022	0.158523
C25	C	0.571403	0.000031	0.159586
C26	C	0.588364	0.000017	0.032976
C27	C	0.515917	0.000016	0.031915
C28	C	0.471216	0.000015	0.094691
N29	N	0.820194	-0.179140	0.092464
C30	C	0.867578	-0.218756	0.045117
C31	C	0.867582	-0.298004	0.045114
C32	C	0.820209	-0.337632	0.092469
C33	C	0.772816	-0.298006	0.139819
C34	C	0.772809	-0.218760	0.139816
N35	N	0.811175	-0.462042	0.153958
N36	N	0.811186	-0.537322	0.153958
C37	C	0.820227	-0.576396	0.092479
N38	N	0.829270	-0.537346	0.030997
N39	N	0.829263	-0.462058	0.030998
C40	C	0.820211	-0.423561	0.092477
C41	C	0.867618	-0.701942	0.045125
C42	C	0.867617	-0.781191	0.045120
C43	C	0.772855	-0.781192	0.139831
C44	C	0.772852	-0.701944	0.139830
C45	C	0.820237	-0.662324	0.092477
C46	C	0.947223	0.000025	0.087001
C47	C	1.024327	0.000031	0.088128
C48	C	0.825684	0.000006	-0.034535
C49	C	0.824555	-0.000001	-0.111638
N50	N	0.820243	0.179186	0.092475
C51	C	0.887323	-0.000004	-0.156336
C52	C	0.886262	0.000008	-0.228783
C53	C	0.822430	0.000008	-0.256529
C54	C	0.759654	0.000016	-0.211822
C55	C	0.760716	0.000011	-0.139376
C56	C	0.772244	-0.044091	-0.364817
C57	C	0.771184	-0.044091	-0.437262
C58	C	0.819150	0.000025	-0.479975
C59	C	0.868189	0.044132	-0.450236
C60	C	0.869251	0.044127	-0.377790
C61	C	0.821271	0.000013	-0.335083
C62	C	0.880773	0.000036	-0.603228
C63	C	0.879709	0.000052	-0.675676
C64	C	0.753099	0.000053	-0.658713
C65	C	0.754164	0.000044	-0.586267
C66	C	0.818003	0.000031	-0.558529
C67	C	0.814747	0.000042	0.219479
C68	C	0.815876	0.000054	0.296583
H69	H	0.624763	0.000015	-0.018132
C70	C	0.955310	-0.000002	-0.277959
H71	H	0.993481	-0.000014	-0.251063
H72	H	0.957538	0.043900	-0.306567
H73	H	0.957512	-0.043911	-0.306578
C74	C	0.720689	-0.175181	0.191904
H75	H	0.692477	-0.210129	0.220111
H76	H	0.691856	-0.144278	0.166993
H77	H	0.745587	-0.144256	0.220757
H78	H	0.731251	-0.080001	-0.461469
H79	H	0.906200	-0.669682	0.006565
C80	C	0.919707	-0.341591	-0.006968
H81	H	0.947929	-0.306645	-0.035167
H82	H	0.894820	-0.372523	-0.035817
H83	H	0.948542	-0.372487	0.017955
H84	H	0.593984	0.000037	0.211567
H85	H	0.266275	-0.080020	0.003514
C86	C	0.719477	-0.092621	-0.317840
H87	H	0.690127	-0.118896	-0.345926
H88	H	0.691850	-0.060826	-0.285814
H89	H	0.743904	-0.128093	-0.292805
C90	C	0.720743	-0.824770	0.191923
H91	H	0.692520	-0.789822	0.220120
H92	H	0.745638	-0.855670	0.220773
H93	H	0.691910	-0.855697	0.167006
C94	C	0.920959	0.092660	-0.497207
H95	H	0.950318	0.118921	-0.469121
H96	H	0.896540	0.128132	-0.522244
H97	H	0.948585	0.060856	-0.529232
C98	C	0.691668	0.000008	-0.090207
H99	H	0.653498	0.000007	-0.117104
H100	H	0.689458	0.043906	-0.061579
H101	H	0.689447	-0.043905	-0.061608
C102	C	0.685120	0.000043	-0.537094
H103	H	0.694895	0.000047	-0.489975
H104	H	0.658926	-0.043857	-0.545490
H105	H	0.658947	0.043954	-0.545475
H106	H	0.177877	0.000022	-0.024691
C107	C	0.720709	-0.341594	0.191910
H108	H	0.727505	-0.394465	0.185136
H109	H	0.674377	-0.328626	0.184486
H110	H	0.728108	-0.328589	0.238250
H111	H	0.707681	0.000018	-0.234417
C112	C	0.038515	0.000026	-0.044864
H113	H	0.075514	0.000016	-0.082097
H114	H	0.010611	0.043927	-0.047908
H115	H	0.010602	-0.043885	-0.047912
C116	C	0.919738	-0.824772	-0.006965
H117	H	0.912951	-0.877644	-0.000189
H118	H	0.966067	-0.811773	0.000461
H119	H	0.912339	-0.811796	-0.053306
C120	C	0.002898	0.000039	0.221010
H121	H	0.029798	0.000046	0.259178
H122	H	-0.025727	-0.043860	0.223224
H123	H	-0.025704	0.043951	0.223231
H124	H	0.374158	0.080056	0.181428
C125	C	0.155030	0.000031	0.223241
H126	H	0.118032	0.000027	0.260475
H127	H	0.182949	0.043931	0.226295
H128	H	0.182928	-0.043880	0.226277
H129	H	0.734271	-0.669687	0.178386
C130	C	0.957543	-0.000004	-0.125828
H131	H	0.994773	0.000003	-0.162828
H132	H	0.960586	-0.043906	-0.097926
H133	H	0.960593	0.043906	-0.097914
H134	H	0.932754	0.000029	-0.580643
C135	C	0.485400	0.000012	-0.038298
H136	H	0.435852	0.000023	-0.029942
H137	H	0.500748	-0.043892	-0.064142
H138	H	0.500767	0.043920	-0.064126
C139	C	0.230516	0.092665	0.193199
H140	H	0.183112	0.086343	0.185544
H141	H	0.243215	0.144421	0.187273
H142	H	0.236225	0.077159	0.239331
H143	H	0.462558	0.000023	0.209639
C144	C	0.409905	-0.092628	-0.008257
H145	H	0.381820	-0.118893	-0.037615
H146	H	0.434940	-0.128097	0.016166
H147	H	0.441930	-0.060829	-0.035885
H148	H	0.906160	-0.186500	0.006559
H149	H	0.909178	0.080042	-0.353580
C150	C	0.948756	0.000057	-0.724847
H151	H	0.938982	0.000073	-0.771967
H152	H	0.974935	-0.043847	-0.716474
H153	H	0.974945	0.043964	-0.716444
C154	C	0.682884	0.000055	-0.689225
H155	H	0.691240	0.000054	-0.738773
H156	H	0.657055	0.043957	-0.673857
H157	H	0.657043	-0.043854	-0.673879
