data_functionalizedCrystal
_audit_creation_method	'MofGen! by Chris Wilmer'
_symmetry_space_group_name_H-M	'P1'
_symmetry_Int_Tables_number	1
_symmetry_cell_setting	triclinic
loop_
_symmetry_equiv_pos_as_xyz
  x,y,z
_cell_length_a	19.805407
_cell_length_b	19.805405
_cell_length_c	11.169409
_cell_angle_alpha	90.039857
_cell_angle_beta	90.028745
_cell_angle_gamma	90.025657
loop_
_atom_site_label
_atom_site_type_symbol
_atom_site_fract_x
_atom_site_fract_y
_atom_site_fract_z
Zn1	Zn	1.034766	-0.269422	0.678766
Zn2	Zn	1.534766	0.230578	1.178766
Zn3	Zn	1.034672	-0.382631	0.478056
Zn4	Zn	1.534672	0.117369	0.978056
Zn5	Zn	0.921572	-0.269460	0.478069
Zn6	Zn	1.421572	0.230540	0.978069
Zn7	Zn	0.921544	-0.382573	0.678670
Zn8	Zn	1.421544	0.117427	1.178670
O9	O	0.978139	-0.326021	0.578390
O10	O	1.478139	0.173979	1.078390
O11	O	1.129470	-0.284448	0.652176
O12	O	1.629470	0.215552	1.152176
O13	O	1.019641	-0.367659	0.310108
O14	O	1.519641	0.132341	0.810108
O15	O	0.936638	-0.174738	0.504737
O16	O	1.436638	0.325262	1.004737
O17	O	1.129401	-0.367622	0.504716
O18	O	1.629401	0.132378	1.004716
O19	O	1.019802	-0.174710	0.652188
O20	O	1.519802	0.325290	1.152188
O21	O	0.936547	-0.284513	0.310117
O22	O	1.436547	0.215487	0.810117
O23	O	0.826852	-0.284456	0.504644
O24	O	1.326852	0.215544	1.004644
O25	O	0.936591	-0.367523	0.846632
O26	O	1.436591	0.132477	1.346632
O27	O	0.826831	-0.367560	0.652025
O28	O	1.326831	0.132440	1.152025
O29	O	1.019775	-0.284391	0.846703
O30	O	1.519775	0.215609	1.346703
O31	O	1.019614	-0.477340	0.504623
O32	O	1.519614	0.022660	1.004623
O33	O	0.936500	-0.477297	0.652013
O34	O	1.436500	0.022703	1.152013
C35	C	0.802282	-0.326006	0.578326
C36	C	1.302282	0.173994	1.078326
C37	C	0.727050	-0.326016	0.578327
C38	C	1.227050	0.173984	1.078327
C39	C	0.265267	-0.369375	0.655088
C40	C	0.765267	0.130625	1.155088
C41	C	0.335955	-0.369374	0.655062
C42	C	0.835955	0.130626	1.155062
C43	C	0.371289	-0.326038	0.578437
C44	C	0.871289	0.173962	1.078437
C45	C	0.335930	-0.282705	0.501824
C46	C	0.835930	0.217295	1.001824
C47	C	0.265243	-0.282710	0.501844
C48	C	0.765243	0.217290	1.001844
C49	C	0.621004	-0.282684	0.501739
C50	C	1.121004	0.217316	1.001739
C51	C	0.691696	-0.282681	0.501727
C52	C	1.191696	0.217319	1.001727
C53	C	0.691716	-0.369348	0.654958
C54	C	1.191716	0.130652	1.154958
C55	C	0.621028	-0.369353	0.654978
C56	C	1.121028	0.130647	1.154978
C57	C	0.585676	-0.326023	0.578360
C58	C	1.085676	0.173977	1.078360
C59	C	0.509028	-0.326026	0.578387
C60	C	1.009028	0.173974	1.078387
C61	C	0.447936	-0.326031	0.578415
C62	C	0.947936	0.173969	1.078415
C63	C	0.978062	-0.501878	0.578332
C64	C	1.478062	-0.001878	1.078332
C65	C	0.978092	-0.577109	0.578347
C66	C	1.478092	-0.077109	1.078347
C67	C	1.021411	-0.612453	0.501682
C68	C	1.521411	-0.112453	1.001682
C69	C	1.021440	-0.683142	0.501708
C70	C	1.521440	-0.183142	1.001708
C71	C	0.978145	-0.718485	0.578395
C72	C	1.478145	-0.218485	1.078395
C73	C	0.934824	-0.683136	0.655069
C74	C	1.434824	-0.183136	1.155069
C75	C	0.934799	-0.612449	0.655048
C76	C	1.434799	-0.112449	1.155048
C77	C	0.934923	-0.968209	0.655158
C78	C	1.434923	-0.468209	1.155158
C79	C	0.934950	-1.038901	0.655171
C80	C	1.434950	-0.538901	1.155171
C81	C	1.021565	-1.038902	0.501819
C82	C	1.521565	-0.538902	1.001819
C83	C	1.021540	-0.968215	0.501797
C84	C	1.521540	-0.468215	1.001797
C85	C	0.978221	-0.932872	0.578475
C86	C	1.478221	-0.432872	1.078475
C87	C	0.978191	-0.856224	0.578447
C88	C	1.478191	-0.356224	1.078447
C89	C	0.978171	-0.795132	0.578418
C90	C	1.478171	-0.295132	1.078418
C91	C	1.154681	-0.326037	0.578455
C92	C	1.654681	0.173963	1.078455
C93	C	1.229913	-0.326044	0.578483
C94	C	1.729913	0.173956	1.078483
C95	C	0.978190	-0.325946	0.891433
C96	C	1.478190	0.174054	1.391433
C97	C	0.978213	-0.325914	1.024833
C98	C	1.478213	0.174086	1.524833
C99	C	0.978233	-0.149479	0.578475
C100	C	1.478233	0.350521	1.078475
C101	C	0.978274	-0.074247	0.578511
C102	C	1.478274	0.425753	1.078511
C103	C	0.978126	-0.326047	0.266565
C104	C	1.478126	0.173953	0.766565
C105	C	0.978235	-0.325889	0.133166
C106	C	1.478235	0.174111	0.633166
H107	H	0.592228	-0.247405	0.439348
H108	H	1.092228	0.252595	0.939348
H109	H	0.364705	-0.247423	0.439429
H110	H	0.864705	0.252577	0.939429
H111	H	0.899575	-0.711918	0.717514
H112	H	1.399575	-0.211918	1.217514
H113	H	0.364737	-0.404660	0.717439
H114	H	0.864737	0.095340	1.217439
O115	O	0.888074	-0.574328	0.737740
O116	O	1.388074	-0.074328	1.237740
H117	H	0.895335	-0.519238	0.724853
H118	H	1.395335	-0.019238	1.224853
O119	O	0.582916	-0.416171	0.737484
O120	O	1.082916	0.083829	1.237484
H121	H	0.619376	-0.446335	0.790692
H122	H	1.119376	0.053665	1.290692
O123	O	1.068160	-0.721261	0.419007
O124	O	1.568160	-0.221261	0.919007
H125	H	1.102600	-0.753407	0.472789
H126	H	1.602600	-0.253407	0.972789
H127	H	1.056664	-0.583682	0.439229
H128	H	1.556664	-0.083682	0.939229
O129	O	0.227106	-0.235972	0.419227
O130	O	0.727106	0.264028	0.919227
H131	H	0.263550	-0.205831	0.365950
H132	H	0.763550	0.294169	0.865950
H133	H	0.236503	-0.404660	0.717491
H134	H	0.736503	0.095340	1.217491
H135	H	1.056792	-0.939441	0.439348
H136	H	1.556792	-0.439441	0.939348
O137	O	1.068292	-1.077026	0.419121
O138	O	1.568292	-0.577026	0.919121
H139	H	1.098386	-1.040573	0.365783
H140	H	1.598386	-0.540573	0.865783
O141	O	0.888257	-1.077026	0.737896
O142	O	1.388257	-0.577026	1.237896
H143	H	0.858135	-1.040575	0.791222
H144	H	1.358135	-0.540575	1.291222
H145	H	0.720462	-0.247389	0.439328
H146	H	1.220462	0.252611	0.939328
O147	O	0.729844	-0.416079	0.737611
O148	O	1.229844	0.083921	1.237611
H149	H	0.784934	-0.408800	0.724727
H150	H	1.284934	0.091200	1.224727
O151	O	0.888183	-0.930093	0.737819
O152	O	1.388183	-0.430093	1.237819
H153	H	0.858071	-0.966547	0.791124
H154	H	1.358071	-0.466547	1.291124
