data_functionalizedCrystal
_audit_creation_method	'MofGen! by Chris Wilmer'
_symmetry_space_group_name_H-M	'P1'
_symmetry_Int_Tables_number	1
_symmetry_cell_setting	triclinic
loop_
_symmetry_equiv_pos_as_xyz
  x,y,z
_cell_length_a	25.639242
_cell_length_b	25.639239
_cell_length_c	25.639233
_cell_angle_alpha	90.018747
_cell_angle_beta	90.022166
_cell_angle_gamma	90.034213
loop_
_atom_site_label
_atom_site_type_symbol
_atom_site_fract_x
_atom_site_fract_y
_atom_site_fract_z
Zn1	Zn	0.799225	-0.208277	0.295742
Zn2	Zn	0.799149	-0.295696	0.208307
Zn3	Zn	0.711801	-0.208269	0.208306
Zn4	Zn	0.711746	-0.295676	0.295696
O5	O	0.755480	-0.251979	0.252013
O6	O	0.872380	-0.219884	0.284163
O7	O	0.787553	-0.284103	0.135141
O8	O	0.723453	-0.135105	0.219924
O9	O	0.872324	-0.284111	0.219924
O10	O	0.787683	-0.135111	0.284163
O11	O	0.723379	-0.219871	0.135141
O12	O	0.638629	-0.219853	0.219880
O13	O	0.723360	-0.284078	0.368868
O14	O	0.638589	-0.284070	0.284085
O15	O	0.787630	-0.219866	0.368901
O16	O	0.787499	-0.368858	0.219880
O17	O	0.723286	-0.368844	0.284085
C18	C	0.619638	-0.251959	0.251977
C19	C	0.561524	-0.251963	0.251975
C20	C	0.201149	-0.285473	0.285413
C21	C	0.146544	-0.285477	0.285421
O22	O	0.118297	-0.313943	0.313821
N23	N	0.119241	-0.251994	0.252047
C24	C	0.146545	-0.218502	0.218666
O25	O	0.118308	-0.190022	0.190280
C26	C	0.201149	-0.218496	0.218661
C27	C	0.228449	-0.251985	0.252034
C28	C	0.228449	-0.318959	0.318783
C29	C	0.283049	-0.318956	0.318774
C30	C	0.310350	-0.285468	0.285395
C31	C	0.283049	-0.251983	0.252024
C32	C	0.228452	-0.185002	0.185283
C33	C	0.283059	-0.185000	0.185281
C34	C	0.310359	-0.218488	0.218654
C35	C	0.364950	-0.218492	0.218636
N36	N	0.392253	-0.251974	0.252010
C37	C	0.364953	-0.285463	0.285389
C38	C	0.031875	-0.218515	0.218680
C39	C	-0.022728	-0.218523	0.218683
C40	C	-0.022725	-0.285497	0.285438
C41	C	0.031878	-0.285492	0.285433
C42	C	0.059178	-0.251998	0.252054
C43	C	0.479618	-0.285455	0.285368
C44	C	0.534223	-0.285451	0.285354
C45	C	0.534216	-0.218475	0.218601
C46	C	0.479615	-0.218481	0.218612
C47	C	0.452318	-0.251972	0.252000
O48	O	0.393232	-0.190038	0.190252
O49	O	0.393197	-0.313933	0.313776
C50	C	0.755392	-0.387822	0.251989
C51	C	0.755403	-0.445936	0.251996
C52	C	0.789004	-0.806294	0.218638
C53	C	0.789024	-0.860898	0.218645
O54	O	0.817502	-0.889131	0.190257
N55	N	0.755572	-0.888218	0.252048
C56	C	0.722102	-0.860932	0.285449
O57	O	0.693651	-0.889184	0.313861
C58	C	0.722085	-0.806328	0.285444
C59	C	0.755535	-0.779011	0.252036
C60	C	0.822452	-0.778976	0.185233
C61	C	0.822431	-0.724376	0.185226
C62	C	0.788962	-0.697093	0.218623
C63	C	0.755514	-0.724410	0.252028
C64	C	0.688617	-0.779042	0.318847
C65	C	0.688603	-0.724435	0.318840
C66	C	0.722053	-0.697118	0.285432
C67	C	0.722024	-0.642527	0.285418
N68	N	0.755475	-0.615206	0.252016
C69	C	0.788944	-0.642490	0.218618
C70	C	0.722141	-0.975602	0.285457
C71	C	0.722155	-1.030204	0.285459
C72	C	0.789078	-1.030167	0.218656
C73	C	0.789061	-0.975564	0.218652
C74	C	0.755593	-0.948282	0.252055
C75	C	0.788897	-0.527824	0.218605
C76	C	0.788872	-0.473219	0.218599
C77	C	0.721951	-0.473261	0.285403
C78	C	0.721974	-0.527862	0.285408
C79	C	0.755452	-0.555142	0.252007
O80	O	0.693562	-0.614260	0.313793
O81	O	0.817396	-0.614231	0.190216
C82	C	0.891853	-0.252000	0.252049
C83	C	0.949967	-0.252009	0.252064
C84	C	0.755497	-0.251970	0.388386
C85	C	0.755504	-0.251966	0.446500
C86	C	0.755583	-0.115606	0.252048
C87	C	0.755627	-0.057492	0.252064
C88	C	0.755494	-0.251951	0.116170
C89	C	0.755588	-0.251807	0.058057
C90	C	0.789012	-0.218432	0.806886
C91	C	0.789019	-0.218417	0.861491
O92	O	0.817466	-0.189967	0.889747
N93	N	0.755562	-0.251844	0.888783
C94	C	0.722093	-0.285283	0.861468
O95	O	0.693636	-0.313713	0.889695
C96	C	0.722084	-0.285294	0.806864
C97	C	0.755547	-0.251870	0.779575
C98	C	0.822472	-0.185009	0.779597
C99	C	0.822466	-0.185025	0.724997
C100	C	0.789000	-0.218462	0.697685
C101	C	0.755541	-0.251885	0.724974
C102	C	0.688613	-0.318731	0.779550
C103	C	0.688607	-0.318739	0.724943
C104	C	0.722069	-0.285314	0.697654
C105	C	0.722070	-0.285338	0.643063
N106	N	0.755526	-0.251912	0.615771
C107	C	0.788992	-0.218474	0.643082
C108	C	0.722113	-0.285256	0.976138
C109	C	0.722124	-0.285247	1.030741
C110	C	0.789049	-0.218381	1.030760
C111	C	0.789041	-0.218392	0.976157
C112	C	0.755570	-0.251829	0.948846
C113	C	0.788977	-0.218509	0.528417
C114	C	0.788970	-0.218529	0.473811
C115	C	0.722043	-0.285393	0.473797
C116	C	0.722052	-0.285375	0.528397
C117	C	0.755521	-0.251929	0.555706
O118	O	0.693635	-0.313773	0.614771
O119	O	0.817439	-0.190044	0.614847
H120	H	0.305272	-0.346225	0.345950
C121	C	0.859233	-0.694334	0.148483
H122	H	0.879170	-0.718409	0.128601
H123	H	0.839248	-0.673059	0.125674
H124	H	0.881996	-0.673006	0.168510
C125	C	0.825860	-0.945520	0.181907
H126	H	0.845796	-0.969594	0.162022
H127	H	0.805873	-0.924244	0.159102
H128	H	0.848625	-0.924193	0.201934
C129	C	0.685357	-1.060248	0.322205
H130	H	0.665426	-1.036174	0.342095
H131	H	0.662596	-1.081581	0.302186
H132	H	0.705352	-1.081517	0.345014
C133	C	-0.052754	-0.181687	0.181973
H134	H	-0.089185	-0.186483	0.186754
H135	H	-0.043778	-0.146570	0.189691
H136	H	-0.043829	-0.189287	0.146826
H137	H	0.694881	-0.312471	1.052955
H138	H	0.694857	-0.312487	0.953905
H139	H	0.816111	-0.450979	0.191392
C140	C	0.685231	-0.322169	0.443747
H141	H	0.690018	-0.317383	0.407320
H142	H	0.692851	-0.357300	0.452691
H143	H	0.650107	-0.314502	0.452686
H144	H	0.206227	-0.346229	0.345967
H145	H	0.694809	-0.312597	0.550617
C146	C	0.859270	-0.148252	0.694985
H147	H	0.879195	-0.128335	0.719078
H148	H	0.882036	-0.168255	0.673687
H149	H	0.839280	-0.125469	0.673684
C150	C	0.651799	-0.355494	0.809556
H151	H	0.631865	-0.375401	0.785463
H152	H	0.671775	-0.378279	0.830863
H153	H	0.629033	-0.335479	0.830849
H154	H	0.816333	-1.052391	0.191464
H155	H	0.305283	-0.157721	0.158103
C156	C	0.198431	-0.148153	0.148586
H157	H	0.162000	-0.152945	0.153365
H158	H	0.207413	-0.113040	0.156315
H159	H	0.207356	-0.155743	0.113437
C160	C	-0.052762	-0.322329	0.322160
H161	H	-0.089191	-0.317529	0.317385
H162	H	-0.043840	-0.357449	0.314448
H163	H	-0.043793	-0.314723	0.357304
H164	H	0.556449	-0.312723	0.312530
H165	H	0.457399	-0.312726	0.312556
H166	H	0.661350	-0.702225	0.346042
H167	H	0.054103	-0.312760	0.312609
H168	H	0.661376	-0.801275	0.346049
C169	C	0.685317	-0.945596	0.322196
H170	H	0.665396	-0.969691	0.342084
H171	H	0.705290	-0.924267	0.344999
H172	H	0.662540	-0.924327	0.302166
C173	C	0.685179	-0.557912	0.322155
H174	H	0.665246	-0.533840	0.342045
H175	H	0.662420	-0.579249	0.302138
H176	H	0.705179	-0.579177	0.344963
C177	C	0.685140	-0.443243	0.322140
H178	H	0.689926	-0.406811	0.317352
H179	H	0.650017	-0.452224	0.314458
H180	H	0.692779	-0.452167	0.357280
H181	H	0.816229	-0.191272	0.550645
C182	C	0.061900	-0.181676	0.181955
H183	H	0.037815	-0.161742	0.162079
H184	H	0.083223	-0.158920	0.201990
H185	H	0.083177	-0.201644	0.159132
C186	C	0.449584	-0.181646	0.181902
H187	H	0.473666	-0.161700	0.162023
H188	H	0.428256	-0.201609	0.159088
H189	H	0.428312	-0.158893	0.201953
H190	H	0.849709	-0.801185	0.158037
C191	C	0.859293	-0.148232	0.809634
H192	H	0.854512	-0.153006	0.846064
H193	H	0.894411	-0.155899	0.800684
H194	H	0.851668	-0.113100	0.800687
C195	C	0.564251	-0.181635	0.181890
H196	H	0.540174	-0.161691	0.162014
H197	H	0.585572	-0.158888	0.201937
H198	H	0.585531	-0.201599	0.159067
C199	C	0.825718	-0.557825	0.181861
H200	H	0.845629	-0.533729	0.161964
H201	H	0.848497	-0.579097	0.201882
H202	H	0.805737	-0.579153	0.159058
H203	H	0.816221	-0.191310	0.451595
H204	H	0.816288	-0.191174	0.953941
C205	C	0.825862	-0.181601	1.060809
H206	H	0.821070	-0.186381	1.097237
H207	H	0.860985	-0.189261	1.051870
H208	H	0.818235	-0.146469	1.051866
C209	C	0.651801	-0.355534	0.694905
H210	H	0.631882	-0.375442	0.718981
H211	H	0.629029	-0.335547	0.673592
H212	H	0.671794	-0.378324	0.673615
