data_functionalizedCrystal
_audit_creation_method	'MofGen! by Chris Wilmer'
_symmetry_space_group_name_H-M	'P1'
_symmetry_Int_Tables_number	1
_symmetry_cell_setting	triclinic
loop_
_symmetry_equiv_pos_as_xyz
  x,y,z
_cell_length_a	18.215407
_cell_length_b	16.120484
_cell_length_c	18.215399
_cell_angle_alpha	92.867230
_cell_angle_beta	89.983176
_cell_angle_gamma	92.926015
loop_
_atom_site_label
_atom_site_type_symbol
_atom_site_fract_x
_atom_site_fract_y
_atom_site_fract_z
Zn1	Zn	1.110191	-0.331886	-0.430959
Zn2	Zn	1.610191	0.168114	0.069041
Zn3	Zn	1.103863	-0.471313	-0.314128
Zn4	Zn	1.603863	0.028687	0.185872
Zn5	Zn	0.987128	-0.331919	-0.307908
Zn6	Zn	1.487128	0.168081	0.192092
Zn7	Zn	0.980849	-0.471261	-0.437151
Zn8	Zn	1.480849	0.028739	0.062849
O9	O	1.045508	-0.401595	-0.372536
O10	O	1.545508	0.098405	0.127464
O11	O	1.212335	-0.350389	-0.415473
O12	O	1.712335	0.149611	0.084527
O13	O	1.088358	-0.452858	-0.210320
O14	O	1.588358	0.047142	0.289680
O15	O	1.008729	-0.215249	-0.319036
O16	O	1.508729	0.284751	0.180964
O17	O	1.207687	-0.452826	-0.329638
O18	O	1.707687	0.047174	0.170362
O19	O	1.099142	-0.215225	-0.409441
O20	O	1.599142	0.284775	0.090559
O21	O	1.002593	-0.350446	-0.205750
O22	O	1.502593	0.149554	0.294250
O23	O	0.883312	-0.350395	-0.325040
O24	O	1.383312	0.149605	0.174960
O25	O	0.998027	-0.452737	-0.539312
O26	O	1.498027	0.047263	-0.039312
O27	O	0.878698	-0.452769	-0.419995
O28	O	1.378698	0.047231	0.080005
O29	O	1.093054	-0.350339	-0.534763
O30	O	1.593054	0.149661	-0.034763
O31	O	1.082269	-0.587972	-0.335642
O32	O	1.582269	-0.087972	0.164358
O33	O	0.991891	-0.587933	-0.426026
O34	O	1.491891	-0.087933	0.073974
C35	C	0.854302	-0.401580	-0.372515
C36	C	1.354302	0.098420	0.127485
C37	C	0.772503	-0.401594	-0.372524
C38	C	1.272503	0.098406	0.127476
C39	C	0.581922	-0.454984	-0.421911
C40	C	1.081922	0.045016	0.078089
C41	C	0.505063	-0.454987	-0.421920
C42	C	1.005063	0.045013	0.078080
C43	C	0.509845	-0.348220	-0.323179
C44	C	1.009845	0.151780	0.176821
C45	C	0.586703	-0.348214	-0.323173
C46	C	1.086703	0.151786	0.176827
C47	C	0.622739	-0.401601	-0.372539
C48	C	1.122739	0.098399	0.127461
C49	C	0.469023	-0.401610	-0.372553
C50	C	0.969023	0.098390	0.127447
C51	C	0.385689	-0.401612	-0.372563
C52	C	0.885689	0.098388	0.127437
C53	C	0.706078	-0.401597	-0.372530
C54	C	1.206078	0.098403	0.127470
C55	C	1.035732	-0.618203	-0.382197
C56	C	1.535732	-0.118203	0.117803
C57	C	1.031617	-0.710869	-0.386355
C58	C	1.531617	-0.210869	0.113645
C59	C	1.024109	-0.880530	-0.393960
C60	C	1.524109	-0.380530	0.106040
C61	C	1.067038	-0.921819	-0.351125
C62	C	1.567038	-0.421819	0.148875
C63	C	1.062861	-1.016224	-0.355356
C64	C	1.562861	-0.516224	0.144644
C65	C	1.028286	-0.786116	-0.389729
C66	C	1.528286	-0.286116	0.110271
C67	C	1.237460	-0.401610	-0.372559
C68	C	1.737460	0.098390	0.127441
C69	C	1.319259	-0.401616	-0.372568
C70	C	1.819259	0.098384	0.127432
C71	C	1.045546	-0.401528	-0.564487
C72	C	1.545546	0.098472	-0.064487
C73	C	1.045562	-0.401500	-0.646284
C74	C	1.545562	0.098500	-0.146284
C75	C	1.055342	-0.184141	-0.362854
C76	C	1.555342	0.315859	0.137146
C77	C	1.059533	-0.091475	-0.358728
C78	C	1.559533	0.408525	0.141272
C79	C	1.000946	-0.348138	-0.832098
C80	C	1.500946	0.151862	-0.332098
C81	C	1.000959	-0.348121	-0.908956
C82	C	1.500959	0.151879	-0.408956
C83	C	1.090270	-0.454762	-0.913704
C84	C	1.590270	0.045238	-0.413704
C85	C	1.090252	-0.454783	-0.836848
C86	C	1.590252	0.045217	-0.336848
C87	C	1.045591	-0.401466	-0.796046
C88	C	1.545591	0.098534	-0.296046
C89	C	1.045623	-0.401428	-0.949761
C90	C	1.545623	0.098572	-0.449761
C91	C	1.045638	-0.401411	-1.033094
C92	C	1.545638	0.098589	-0.533094
C93	C	1.045575	-0.401484	-0.712708
C94	C	1.545575	0.098516	-0.212708
C95	C	1.045515	-0.401601	-0.181331
C96	C	1.545515	0.098399	0.318669
C97	C	1.045652	-0.401394	-0.099523
C98	C	1.545652	0.098606	0.400477
H99	H	0.619937	-0.304738	-0.282968
H100	H	1.119937	0.195262	0.217032
H101	H	0.964579	-0.304724	-0.798879
H102	H	1.464579	0.195276	-0.298879
H103	H	0.471834	-0.498456	-0.462125
H104	H	0.971834	0.001544	0.037875
C105	C	1.114647	-0.788242	-0.303481
C106	C	1.614647	-0.288242	0.196519
C107	C	1.120883	-0.873831	-0.297317
C108	C	1.620883	-0.373831	0.202683
H109	H	1.147881	-0.758616	-0.270258
H110	H	1.647881	-0.258616	0.229742
H111	H	1.126014	-0.773970	-0.352302
H112	H	1.626014	-0.273970	0.147698
H113	H	1.065815	-0.774095	-0.292049
H114	H	1.565815	-0.274095	0.207951
H115	H	1.169713	-0.887979	-0.308754
H116	H	1.669713	-0.387979	0.191246
H117	H	1.109520	-0.888109	-0.248485
H118	H	1.609520	-0.388109	0.251515
C119	C	0.976487	-1.014105	-0.441573
C120	C	1.476487	-0.514105	0.058427
C121	C	0.970254	-0.928518	-0.447749
C122	C	1.470254	-0.428518	0.052251
H123	H	0.943234	-1.043736	-0.474774
H124	H	1.443234	-0.543736	0.025226
H125	H	1.025306	-1.028260	-0.453019
H126	H	1.525306	-0.528260	0.046981
H127	H	0.965136	-1.028364	-0.392738
H128	H	1.465136	-0.528364	0.107262
H129	H	0.981610	-0.914257	-0.496583
H130	H	1.481610	-0.414257	0.003417
H131	H	0.921424	-0.914357	-0.436307
H132	H	1.421424	-0.414357	0.063693
H133	H	0.964603	-0.304697	-0.938305
H134	H	1.464603	0.195303	-0.438305
C135	C	1.119722	-0.595964	-0.819464
C136	C	1.619722	-0.095964	-0.319464
C137	C	1.139332	-0.513406	-0.797215
C138	C	1.639332	-0.013406	-0.297215
H139	H	1.150022	-0.632153	-0.794999
H140	H	1.650022	-0.132153	-0.294999
H141	H	1.069727	-0.608159	-0.807405
H142	H	1.569727	-0.108159	-0.307405
H143	H	1.126129	-0.603571	-0.871076
H144	H	1.626129	-0.103571	-0.371076
H145	H	1.132920	-0.505797	-0.745603
H146	H	1.632920	-0.005797	-0.245603
H147	H	1.189339	-0.501206	-0.809269
H148	H	1.689339	-0.001206	-0.309269
H149	H	0.611261	-0.498453	-0.462109
H150	H	1.111261	0.001547	0.037891
C151	C	1.188762	-0.466325	-1.000655
C152	C	1.688762	0.033675	-0.500655
C153	C	1.139367	-0.513360	-0.958555
C154	C	1.639367	-0.013360	-0.458555
H155	H	1.219075	-0.502502	-1.028338
H156	H	1.719075	-0.002502	-0.528338
H157	H	1.162174	-0.434569	-1.033123
H158	H	1.662174	0.065431	-0.533123
H159	H	1.218543	-0.430013	-0.969050
H160	H	1.718543	0.069987	-0.469050
H161	H	1.109581	-0.549667	-0.990160
H162	H	1.609581	-0.049667	-0.490160
H163	H	1.165956	-0.545130	-0.926083
H164	H	1.665956	-0.045130	-0.426083
C165	C	0.394150	-0.300822	-0.279343
C166	C	0.894150	0.199178	0.220657
C167	C	0.470231	-0.289543	-0.268915
C168	C	0.970231	0.210457	0.231085
H169	H	0.369697	-0.264599	-0.245838
H170	H	0.869697	0.235401	0.254162
H171	H	0.382124	-0.288690	-0.328261
H172	H	0.882124	0.211310	0.171739
H173	H	0.379032	-0.356826	-0.270988
H174	H	0.879032	0.143174	0.229012
H175	H	0.485350	-0.233540	-0.277275
H176	H	0.985350	0.266460	0.222725
H177	H	0.482262	-0.301669	-0.219985
H178	H	0.982262	0.198331	0.280015
