data_functionalizedCrystal
_audit_creation_method	'MofGen! by Chris Wilmer'
_symmetry_space_group_name_H-M	'P1'
_symmetry_Int_Tables_number	1
_symmetry_cell_setting	triclinic
loop_
_symmetry_equiv_pos_as_xyz
  x,y,z
_cell_length_a	15.995350
_cell_length_b	10.489741
_cell_length_c	15.072220
_cell_angle_alpha	89.999236
_cell_angle_beta	89.991149
_cell_angle_gamma	84.015774
loop_
_atom_site_label
_atom_site_type_symbol
_atom_site_fract_x
_atom_site_fract_y
_atom_site_fract_z
O1	O	1.111987	0.164400	-0.073707
O2	O	0.868334	0.184702	-0.073725
O3	O	0.995705	-0.011125	-0.073710
O4	O	0.984616	0.360226	-0.073722
O5	O	0.995673	-0.011114	0.073855
O6	O	0.868303	0.184713	0.073840
O7	O	1.111955	0.164411	0.073858
Zn8	Zn	0.990124	0.174563	0.097278
Zn9	Zn	0.990166	0.174549	-0.097145
O10	O	0.984585	0.360237	0.073844
C11	C	0.837119	0.183868	0.000055
C12	C	0.744153	0.181352	0.000048
C13	C	0.406351	0.172315	0.000067
C14	C	0.452944	0.032851	0.000401
C15	C	0.549650	0.035368	0.000062
C16	C	0.573939	0.176797	0.000058
C17	C	0.533284	0.245580	-0.084207
C18	C	0.436628	0.242076	-0.084271
C19	C	0.436270	0.244970	0.083538
C20	C	0.533215	0.244937	0.084645
C21	C	0.668651	0.179338	0.000050
C22	C	0.311638	0.169778	0.000069
C23	C	0.994852	-0.058639	0.000072
C24	C	0.992346	-0.200234	0.000070
C25	C	0.911304	-0.267240	0.000057
C26	C	0.949572	-0.359892	0.072818
C27	C	0.949622	-0.359878	-0.072670
C28	C	1.030647	-0.291022	0.072890
C29	C	1.030686	-0.290997	-0.072663
C30	C	1.069013	-0.383624	0.000115
C31	C	1.143171	0.165244	0.000076
C32	C	1.236137	0.167761	0.000077
C33	C	0.985438	0.407752	0.000060
C34	C	0.987944	0.549346	0.000056
N35	N	0.990102	0.174572	0.229967
N36	N	0.990195	0.174530	-0.229834
C37	C	0.990164	0.174544	0.589169
C38	C	0.921777	0.278976	0.551554
C39	C	0.921938	0.279357	0.448728
C40	C	0.990132	0.174558	0.410965
C41	C	1.077672	0.203626	0.448261
C42	C	1.077290	0.204368	0.551119
C43	C	0.971788	0.040735	0.551272
C44	C	0.969788	0.041628	0.448408
C45	C	0.990120	0.174564	0.310251
C46	C	0.990182	0.174541	0.689882
H47	H	0.434073	-0.022892	0.060831
C48	C	1.076912	-0.250025	0.156088
C49	C	1.031034	-0.156068	0.222849
C50	C	1.077294	-0.115069	0.306047
C51	C	1.169432	-0.168027	0.322484
C52	C	1.215315	-0.261990	0.255722
C53	C	1.169054	-0.302989	0.172524
H54	H	0.962824	-0.116860	0.210683
H55	H	1.043328	-0.045511	0.355469
H56	H	1.203676	-0.137677	0.384073
H57	H	1.283525	-0.301198	0.267888
H58	H	1.203020	-0.372547	0.123102
C59	C	0.937555	0.412357	0.586450
C60	C	0.869779	0.491117	0.641982
C61	C	0.885574	0.624490	0.676880
C62	C	0.969145	0.679104	0.656245
C63	C	1.036927	0.600344	0.600710
C64	C	1.021132	0.466970	0.565812
H65	H	0.807909	0.450689	0.657260
H66	H	0.835397	0.682794	0.717991
H67	H	0.980838	0.777835	0.682078
H68	H	1.098797	0.640771	0.585432
H69	H	1.071310	0.408667	0.524702
H70	H	0.915268	-0.390420	0.134326
H71	H	0.844671	-0.216656	0.000126
C72	C	0.411496	0.174294	-0.169358
C73	C	0.350604	0.246014	-0.236011
C74	C	0.325478	0.178228	-0.321098
C75	C	0.361243	0.038721	-0.339533
C76	C	0.422139	-0.033007	-0.272878
C77	C	0.447266	0.034779	-0.187790
H78	H	0.324125	0.349293	-0.222367
H79	H	0.280398	0.231326	-0.370441
H80	H	0.342643	-0.011459	-0.402519
H81	H	0.448618	-0.136285	-0.286522
H82	H	0.492345	-0.018319	-0.138448
H83	H	1.135706	-0.433981	0.000160
H84	H	0.404997	0.344468	-0.088098
C85	C	0.587606	-0.037697	0.081653
C86	C	0.529928	-0.098746	0.147575
C87	C	0.567881	-0.171826	0.229164
C88	C	0.663513	-0.183858	0.244830
C89	C	0.721197	-0.122807	0.178906
C90	C	0.683243	-0.049727	0.097317
H91	H	0.459131	-0.089841	0.135980
H92	H	0.525179	-0.217020	0.277966
H93	H	0.691608	-0.237957	0.305227
H94	H	0.791994	-0.131712	0.190501
H95	H	0.725946	-0.004533	0.048515
C96	C	1.076990	-0.249697	-0.155758
C97	C	1.042999	-0.276390	-0.248771
C98	C	1.089295	-0.235084	-0.331875
C99	C	1.169582	-0.167085	-0.321965
C100	C	1.203578	-0.140388	-0.228948
C101	C	1.157282	-0.181694	-0.145844
H102	H	0.983561	-0.326730	-0.256111
H103	H	1.064128	-0.254847	-0.400733
H104	H	1.203853	-0.136508	-0.383483
H105	H	1.263015	-0.090048	-0.221608
H106	H	1.182448	-0.161931	-0.076986
H107	H	1.129811	0.131304	0.576000
C108	C	1.148113	0.103613	0.415214
C109	C	1.201909	0.020292	0.482340
C110	C	1.272347	-0.079723	0.449291
C111	C	1.288989	-0.096417	0.349115
C112	C	1.235192	-0.013094	0.281983
C113	C	1.164753	0.086921	0.315032
H114	H	1.189590	0.032648	0.556501
H115	H	1.312171	-0.141404	0.498987
H116	H	1.341132	-0.170454	0.324650
H117	H	1.247510	-0.025450	0.207821
H118	H	1.124929	0.148602	0.265335
H119	H	0.433029	-0.022644	-0.059693
H120	H	0.915334	-0.390367	-0.134189
C121	C	0.586862	-0.038165	-0.081685
C122	C	0.574574	-0.180774	-0.093848
C123	C	0.611784	-0.254307	-0.175601
C124	C	0.661282	-0.185230	-0.245191
C125	C	0.673573	-0.042613	-0.233030
C126	C	0.636363	0.030920	-0.151277
H127	H	0.537930	-0.231916	-0.042331
H128	H	0.602685	-0.359882	-0.184602
H129	H	0.688827	-0.239664	-0.305709
H130	H	0.710217	0.008528	-0.284547
H131	H	0.645462	0.136495	-0.142275
C132	C	0.882798	0.011790	0.415470
C133	C	0.812813	-0.008001	0.482709
C134	C	0.725827	-0.037846	0.449760
C135	C	0.708826	-0.047900	0.349574
C136	C	0.778813	-0.028108	0.282329
C137	C	0.865799	0.001737	0.315277
H138	H	0.825396	-0.000559	0.556878
H139	H	0.674018	-0.052498	0.499540
H140	H	0.644433	-0.069993	0.325184
H141	H	0.766229	-0.035550	0.208159
H142	H	0.917608	0.016388	0.265498
C143	C	0.408148	0.183380	0.169827
C144	C	0.357647	0.066314	0.165596
C145	C	0.329526	0.004708	0.251879
C146	C	0.351907	0.060167	0.342394
C147	C	0.402411	0.177239	0.346629
C148	C	0.430532	0.238845	0.260345
H149	H	0.341077	0.025254	0.098588
H150	H	0.292139	-0.081956	0.248744
H151	H	0.331090	0.014563	0.406266
H152	H	0.418981	0.218299	0.413636
H153	H	0.467919	0.325510	0.263481
H154	H	0.933756	0.378654	0.424112
C155	C	0.834064	0.255991	0.414656
C156	C	0.763252	0.236851	0.481041
C157	C	0.675372	0.213497	0.446974
C158	C	0.658303	0.209283	0.346523
C159	C	0.729117	0.228424	0.280133
C160	C	0.816997	0.251778	0.314199
H161	H	0.775886	0.239970	0.555406
H162	H	0.622952	0.199329	0.496121
H163	H	0.593249	0.191995	0.321305
H164	H	0.716483	0.225305	0.205767
H165	H	0.869417	0.265947	0.265052
H166	H	0.856525	0.261942	0.576311
H167	H	0.548036	0.349484	-0.087343
H168	H	1.093361	0.301954	0.575099
C169	C	1.099878	0.333958	0.413457
C170	C	1.038737	0.414108	0.351243
C171	C	1.060936	0.544444	0.316441
C172	C	1.144277	0.594630	0.343852
C173	C	1.205423	0.514479	0.406069
C174	C	1.183224	0.384143	0.440871
H175	H	0.977038	0.376958	0.330949
H176	H	1.015671	0.603777	0.270383
H177	H	1.160710	0.691112	0.318089
H178	H	1.267122	0.551629	0.426363
H179	H	1.228489	0.324810	0.486929
H180	H	0.561384	0.197798	-0.146917
H181	H	0.909296	0.012784	0.577258
H182	H	1.016301	-0.039726	0.422705
C183	C	0.569888	0.177007	0.168742
C184	C	0.665003	0.169083	0.187042
C185	C	0.701783	0.101106	0.271078
C186	C	0.643448	0.041052	0.336814
C187	C	0.548328	0.048975	0.318516
C188	C	0.511547	0.116952	0.234480
H189	H	0.708190	0.213539	0.138378
H190	H	0.772198	0.095241	0.284622
H191	H	0.670676	-0.009268	0.399022
H192	H	0.505140	0.004518	0.367180
H193	H	0.441133	0.122816	0.220936
H194	H	0.549201	0.348072	0.089732
H195	H	0.405128	0.347796	0.084105
H196	H	1.021649	-0.036979	0.575596
