data_functionalizedCrystal
_audit_creation_method	'MofGen! by Chris Wilmer'
_symmetry_space_group_name_H-M	'P1'
_symmetry_Int_Tables_number	1
_symmetry_cell_setting	triclinic
loop_
_symmetry_equiv_pos_as_xyz
  x,y,z
_cell_length_a	13.032831
_cell_length_b	18.101396
_cell_length_c	13.032268
_cell_angle_alpha	97.146132
_cell_angle_beta	89.113023
_cell_angle_gamma	97.158357
loop_
_atom_site_label
_atom_site_type_symbol
_atom_site_fract_x
_atom_site_fract_y
_atom_site_fract_z
Zn1	Zn	1.498248	0.500110	0.780795
Zn2	Zn	1.998248	1.000110	1.280795
Zn3	Zn	1.519939	0.610443	0.608806
Zn4	Zn	2.019939	1.110443	1.108806
Zn5	Zn	1.348120	0.469175	0.587038
Zn6	Zn	1.848120	0.969175	1.087038
Zn7	Zn	1.326189	0.606439	0.758932
Zn8	Zn	1.826189	1.106439	1.258932
O9	O	1.423124	0.546542	0.683893
O10	O	1.923124	1.046542	1.183893
O11	O	1.645039	0.529368	0.776240
O12	O	2.145039	1.029368	1.276240
O13	O	1.515403	0.580432	0.462003
O14	O	2.015403	1.080432	0.962003
O15	O	1.368136	0.369658	0.612781
O16	O	1.868136	0.869658	1.112781
O17	O	1.660975	0.610429	0.649881
O18	O	2.160975	1.110429	1.149881
O19	O	1.478434	0.392386	0.755133
O20	O	1.978434	0.892386	1.255133
O21	O	1.389169	0.476643	0.446010
O22	O	1.889169	0.976643	0.946010
O23	O	1.201297	0.472761	0.591581
O24	O	1.701297	0.972761	1.091581
O25	O	1.330756	0.603605	0.905748
O26	O	1.830756	1.103605	1.405748
O27	O	1.185184	0.573608	0.717870
O28	O	1.685184	1.073608	1.217870
O29	O	1.457167	0.525486	0.921811
O30	O	1.957167	1.025486	1.421811
O31	O	1.494137	0.713532	0.628681
O32	O	1.994137	1.213532	1.128681
O33	O	1.351790	0.710590	0.738977
O34	O	1.851790	1.210590	1.238977
C35	C	1.155925	0.519394	0.649991
C36	C	1.655925	1.019394	1.149991
C37	C	1.041614	0.507800	0.635513
C38	C	1.541614	1.007800	1.135513
C39	C	0.982717	0.552593	0.691449
C40	C	1.482717	1.052593	1.191449
C41	C	0.864569	0.540611	0.676486
C42	C	1.364569	1.040611	1.176486
C43	C	1.422962	0.738933	0.683845
C44	C	1.922962	1.238933	1.183845
C45	C	1.422983	0.821251	0.683870
C46	C	1.922983	1.321251	1.183870
C47	C	1.423158	1.120366	0.683953
C48	C	1.923158	1.620366	1.183953
C49	C	1.333760	1.087255	0.753570
C50	C	1.833760	1.587255	1.253570
C51	C	1.333428	1.001580	0.753273
C52	C	1.833428	1.501580	1.253273
C53	C	1.423071	0.971972	0.683913
C54	C	1.923071	1.471972	1.183913
C55	C	1.407497	0.991635	0.571808
C56	C	1.907497	1.491635	1.071808
C57	C	1.406913	1.077265	0.572220
C58	C	1.906913	1.577265	1.072220
C59	C	1.528428	1.101936	0.725510
C60	C	2.028428	1.601936	1.225510
C61	C	1.527499	1.016408	0.727806
C62	C	2.027499	1.516408	1.227806
C63	C	1.423024	0.888105	0.683884
C64	C	1.923024	1.388105	1.183884
C65	C	1.423203	1.204231	0.683975
C66	C	1.923203	1.704231	1.183975
C67	C	1.691366	0.573796	0.717927
C68	C	2.191366	1.073796	1.217927
C69	C	1.805674	0.585410	0.732431
C70	C	2.305674	1.085410	1.232431
C71	C	1.389096	0.567549	0.952138
C72	C	1.889096	1.067549	1.452138
C73	C	1.374595	0.576502	1.066449
C74	C	1.874595	1.076502	1.566449
C75	C	1.423275	1.353400	0.683967
C76	C	1.923275	1.853400	1.183967
C77	C	1.423246	1.271086	0.683996
C78	C	1.923246	1.771086	1.183996
C79	C	1.457079	0.525568	0.416698
C80	C	1.957079	1.025568	0.916698
C81	C	1.471779	0.516427	0.302414
C82	C	1.971779	1.016427	0.802414
C83	C	1.430676	0.541841	1.125359
C84	C	1.930676	1.041841	1.625359
C85	C	1.415690	0.551093	1.243505
C86	C	1.915690	1.051093	1.743505
H87	H	1.004569	0.460577	0.576550
H88	H	1.504569	0.960577	1.076550
Cl89	Cl	1.505808	0.961565	0.488607
Cl90	Cl	2.005808	1.461565	0.988607
Cl91	Cl	1.212536	0.955173	0.709100
Cl92	Cl	1.712536	1.455173	1.209100
H93	H	1.530885	0.479896	1.265388
H94	H	2.030885	0.979896	1.765388
Cl95	Cl	1.283329	0.632889	1.123612
Cl96	Cl	1.783329	1.132889	1.623612
H97	H	1.596529	0.997087	0.681894
H98	H	2.096529	1.497087	1.181894
Cl99	Cl	1.039901	0.625502	0.782489
Cl100	Cl	1.539901	1.125502	1.282489
Cl101	Cl	0.807389	0.467697	0.585444
Cl102	Cl	1.307389	0.967697	1.085444
H103	H	1.356572	0.587614	1.280531
H104	H	1.856572	1.087614	1.780531
H105	H	1.341687	1.115977	0.836500
H106	H	1.841687	1.615977	1.336500
H107	H	0.842712	0.632629	0.791408
H108	H	1.342712	1.132629	1.291408
H109	H	1.331858	0.960382	0.537893
H110	H	1.831858	1.460382	1.037893
H111	H	1.341576	0.988689	0.835967
H112	H	1.841576	1.488689	1.335967
H113	H	1.330371	1.087386	0.538619
H114	H	1.830371	1.587386	1.038619
Cl115	Cl	1.504222	1.110473	0.488254
Cl116	Cl	2.004222	1.610473	0.988254
Cl117	Cl	1.213572	1.105834	0.709869
Cl118	Cl	1.713572	1.605834	1.209869
H119	H	1.545304	1.132298	0.806588
H120	H	2.045304	1.632298	1.306588
H121	H	1.539492	1.004553	0.810376
H122	H	2.039492	1.504553	1.310376
H123	H	1.489779	0.505314	1.088328
H124	H	1.989779	1.005314	1.588328
Cl125	Cl	1.631002	1.135444	0.647504
Cl126	Cl	2.131002	1.635444	1.147504
