data_functionalizedCrystal
_audit_creation_method	'MofGen! by Chris Wilmer'
_symmetry_space_group_name_H-M	'P1'
_symmetry_Int_Tables_number	1
_symmetry_cell_setting	triclinic
loop_
_symmetry_equiv_pos_as_xyz
  x,y,z
_cell_length_a	11.792254
_cell_length_b	11.792241
_cell_length_c	10.268362
_cell_angle_alpha	90.005428
_cell_angle_beta	89.995475
_cell_angle_gamma	95.803993
loop_
_atom_site_label
_atom_site_type_symbol
_atom_site_fract_x
_atom_site_fract_y
_atom_site_fract_z
O1	O	1.506900	-0.155637	-0.108300
O2	O	1.840234	0.177696	0.225034
O3	O	2.173567	0.511029	0.558367
O4	O	1.176561	-0.171655	-0.108303
O5	O	1.509894	0.161678	0.225031
O6	O	1.843228	0.495012	0.558364
O7	O	1.349747	0.001524	-0.108292
O8	O	1.683080	0.334857	0.225041
O9	O	2.016414	0.668191	0.558375
O10	O	1.333714	-0.328816	-0.108310
O11	O	1.667048	0.004517	0.225023
O12	O	2.000381	0.337850	0.558356
O13	O	1.349732	0.001531	0.108309
O14	O	1.683065	0.334865	0.441642
O15	O	2.016399	0.668198	0.774975
O16	O	1.176546	-0.171648	0.108298
O17	O	1.509879	0.161685	0.441631
O18	O	1.843213	0.495019	0.774965
O19	O	1.506885	-0.155630	0.108301
O20	O	1.840218	0.177703	0.441634
O21	O	2.173552	0.511037	0.774968
Cu22	Cu	1.341714	-0.163638	0.128077
Cu23	Cu	1.675047	0.169695	0.461410
Cu24	Cu	2.008381	0.503028	0.794744
Cu25	Cu	1.341732	-0.163647	-0.128079
Cu26	Cu	1.675065	0.169687	0.205255
Cu27	Cu	2.008399	0.503020	0.538588
O28	O	1.333699	-0.328809	0.108290
O29	O	1.667032	0.004524	0.441624
O30	O	2.000366	0.337858	0.774957
C31	C	1.134263	-0.170642	-0.000003
C32	C	1.467596	0.162691	0.333331
C33	C	1.800929	0.496024	0.666664
C34	C	1.008250	-0.167622	-0.000003
C35	C	1.341583	0.165711	0.333330
C36	C	1.674916	0.499044	0.666663
C37	C	0.905913	-0.165168	-0.000009
C38	C	1.239247	0.168165	0.333324
C39	C	1.572580	0.501498	0.666658
C40	C	0.777527	-0.162100	-0.000010
C41	C	1.110860	0.171233	0.333324
C42	C	1.444193	0.504567	0.666657
C43	C	1.348732	0.043819	0.000008
C44	C	1.682066	0.377152	0.333341
C45	C	2.015399	0.710485	0.666675
C46	C	1.345718	0.169832	0.000007
C47	C	1.679051	0.503166	0.333340
C48	C	2.012385	0.836499	0.666673
C49	C	1.549183	-0.156643	-0.000002
C50	C	1.882517	0.176691	0.333331
C51	C	2.215850	0.510024	0.666665
C52	C	1.675196	-0.159663	-0.000010
C53	C	2.008530	0.173671	0.333324
C54	C	2.341863	0.507004	0.666657
C55	C	1.334714	-0.371104	-0.000012
C56	C	1.668047	-0.037770	0.333321
C57	C	2.001380	0.295563	0.666654
C58	C	1.337728	-0.497118	-0.000020
C59	C	1.671061	-0.163784	0.333314
C60	C	2.004395	0.169549	0.666647
N61	N	1.341710	-0.163632	0.308243
N62	N	1.675043	0.169702	0.641576
N63	N	2.008376	0.503035	0.974909
C64	C	1.340175	0.400545	-0.000015
C65	C	1.673508	0.733878	0.333318
C66	C	2.006842	1.067212	0.666652
C67	C	1.343255	0.272160	-0.000003
C68	C	1.676588	0.605493	0.333330
C69	C	2.009921	0.938826	0.666663
N70	N	1.341745	-0.163645	-0.308244
N71	N	1.675079	0.169689	0.025089
N72	N	2.008412	0.503022	0.358422
C73	C	1.341726	-0.163644	0.573913
C74	C	1.675060	0.169689	0.907247
C75	C	2.008393	0.503022	1.240580
C76	C	1.341713	-0.163641	0.426075
C77	C	1.675047	0.169693	0.759409
C78	C	2.008380	0.503026	1.092742
