data_functionalizedCrystal
_audit_creation_method	'MofGen! by Chris Wilmer'
_symmetry_space_group_name_H-M	'P1'
_symmetry_Int_Tables_number	1
_symmetry_cell_setting	triclinic
loop_
_symmetry_equiv_pos_as_xyz
  x,y,z
_cell_length_a	6.817900
_cell_length_b	15.300992
_cell_length_c	19.551833
_cell_angle_alpha	95.690861
_cell_angle_beta	101.663477
_cell_angle_gamma	104.175078
loop_
_atom_site_label
_atom_site_type_symbol
_atom_site_fract_x
_atom_site_fract_y
_atom_site_fract_z
V1	V	-4.009808	-0.125704	-0.218070
O2	O	-3.994104	0.005068	-0.213702
O3	O	-3.964845	-0.248315	-0.216787
O4	O	-3.952460	-0.124198	-0.313083
O5	O	-4.006575	-0.119909	-0.116740
V6	V	-4.494150	-0.110012	-0.205925
O7	O	-4.269270	-0.160127	-0.244712
O8	O	-4.684885	-0.075590	-0.179283
O9	O	-4.315906	0.012599	-0.207208
O10	O	-4.627251	-0.240784	-0.210292
O11	O	-4.614779	-0.115808	-0.307255
O12	O	-4.328291	-0.111519	-0.110912
C13	C	-3.810972	-0.278192	-0.213400
C14	C	-3.855437	-0.378430	-0.212985
C15	C	-3.841714	-0.412367	-0.148780
C16	C	-3.883513	-0.506553	-0.148391
C17	C	-3.939020	-0.566800	-0.212208
C18	C	-3.952749	-0.532857	-0.276418
C19	C	-3.910965	-0.438673	-0.276806
C20	C	-4.039834	-0.729165	-0.275605
C21	C	-4.081618	-0.823355	-0.275218
C22	C	-4.012382	-0.797044	-0.147191
C23	C	-3.970597	-0.702861	-0.147578
C24	C	-3.984326	-0.668924	-0.211788
C25	C	-3.795172	-0.119866	-0.336235
C26	C	-3.829590	-0.119446	-0.413909
C27	C	-4.027660	-0.123774	-0.453964
C28	C	-4.060000	-0.123379	-0.526948
C29	C	-3.894267	-0.118673	-0.559876
C30	C	-3.696167	-0.114339	-0.519812
C31	C	-3.663828	-0.114725	-0.446828
C32	C	-3.832839	-0.167702	-0.679271
C33	C	-3.865188	-0.167322	-0.752254
C34	C	-3.994001	-0.117478	-0.784981
C35	C	-4.090501	-0.068027	-0.744719
C36	C	-4.058163	-0.068413	-0.671735
C37	C	-3.929313	-0.118254	-0.639014
C38	C	-4.227150	-0.121377	-0.904173
C39	C	-4.259480	-0.120976	-0.977158
C40	C	-3.895645	-0.111945	-0.970021
C41	C	-3.863316	-0.112337	-0.897037
C42	C	-4.029078	-0.117058	-0.864118
C43	C	-4.133122	0.042470	-0.210592
C44	C	-4.067895	0.142708	-0.211013
C45	C	-4.148922	-0.115853	-0.087756
C46	C	-4.093742	-0.116269	-0.010081
H47	H	-4.051049	-0.701539	-0.327892
H48	H	-4.136734	-0.028147	-0.638956
C49	C	-4.232181	-0.013184	-0.780706
C50	C	-4.267732	-0.012740	-0.860983
C51	C	-4.409405	0.042102	-0.896973
C52	C	-4.515528	0.096501	-0.852688
C53	C	-4.479981	0.096060	-0.772406
C54	C	-4.338307	0.041218	-0.736416
H55	H	-4.189171	-0.053012	-0.893770
H56	H	-4.435720	0.042429	-0.956403
H57	H	-4.620404	0.137099	-0.879330
H58	H	-4.558542	0.136331	-0.739619
H59	H	-4.311993	0.040891	-0.676986
H60	H	-4.126811	-0.872406	-0.327183
H61	H	-4.362122	-0.125218	-0.877369
H62	H	-3.502530	-0.111193	-0.414215
H63	H	-3.997961	-0.581918	-0.328379
C64	C	-3.868410	-0.543888	-0.077767
C65	C	-3.714334	-0.600640	-0.056573
C66	C	-3.699233	-0.637977	0.014054
C67	C	-3.838208	-0.618561	0.063488
C68	C	-3.992294	-0.561806	0.042295
C69	C	-4.007396	-0.524470	-0.028332
H70	H	-3.611446	-0.615016	-0.093167
H71	H	-3.585167	-0.679991	0.029742
H72	H	-3.827029	-0.646200	0.115770
H73	H	-4.095182	-0.547431	0.078889
H74	H	-4.121462	-0.482456	-0.044020
H75	H	-4.162638	-0.127614	-0.427166
C76	C	-3.926052	-0.401338	-0.347432
C77	C	-3.787058	-0.420745	-0.396860
C78	C	-3.802158	-0.383411	-0.467488
C79	C	-3.956252	-0.326669	-0.488688
C80	C	-4.095257	-0.307259	-0.439259
C81	C	-4.080158	-0.344593	-0.368631
H82	H	-3.672978	-0.462752	-0.381168
H83	H	-3.699256	-0.397781	-0.504079
H84	H	-3.967430	-0.299032	-0.540971
H85	H	-4.209337	-0.265252	-0.454951
H86	H	-4.183059	-0.330223	-0.332040
C87	C	-3.759030	-0.221716	-0.796534
C88	C	-3.519946	-0.199653	-0.780039
C89	C	-3.413778	-0.254048	-0.824315
C90	C	-3.546695	-0.330506	-0.885086
C91	C	-3.785793	-0.352573	-0.901585
C92	C	-3.891961	-0.298178	-0.857309
H93	H	-3.421541	-0.143051	-0.735049
H94	H	-3.236781	-0.237713	-0.812101
H95	H	-3.468103	-0.370773	-0.917862
H96	H	-3.884199	-0.409175	-0.946574
H97	H	-4.068958	-0.314514	-0.869522
H98	H	-3.796500	-0.363319	-0.096812
C99	C	-3.691144	-0.222539	-0.643276
C100	C	-3.585030	-0.276944	-0.687560
C101	C	-3.443341	-0.331778	-0.651566
C102	C	-3.407766	-0.332206	-0.571287
C103	C	-3.513882	-0.277799	-0.526998
C104	C	-3.655572	-0.222965	-0.562993
H105	H	-3.611363	-0.276629	-0.746991
H106	H	-3.364786	-0.372054	-0.684352
H107	H	-3.302879	-0.372798	-0.544642
H108	H	-3.487550	-0.278114	-0.467567
H109	H	-3.734126	-0.182689	-0.530206
H110	H	-3.760697	-0.108106	-0.996830
H111	H	-4.420772	-0.124495	-1.009769
C112	C	-3.997279	-0.834366	-0.076557
C113	C	-4.136247	-0.814943	-0.027123
C114	C	-4.121132	-0.852268	0.043509
C115	C	-3.967048	-0.909015	0.064708
C116	C	-3.828069	-0.928441	0.015273
C117	C	-3.843185	-0.891116	-0.055359
H118	H	-4.250319	-0.772933	-0.042814
H119	H	-4.224014	-0.837888	0.080104
H120	H	-3.955859	-0.936645	0.116994
H121	H	-3.713997	-0.970451	0.030964
H122	H	-3.740303	-0.905497	-0.091954
H123	H	-3.925389	-0.653809	-0.095613
H124	H	-4.221300	-0.126909	-0.559567
H125	H	-3.702032	-0.108822	-0.864425
H126	H	-3.561227	-0.110505	-0.546626
