data_functionalizedCrystal
_audit_creation_method	'MofGen! by Chris Wilmer'
_symmetry_space_group_name_H-M	'P1'
_symmetry_Int_Tables_number	1
_symmetry_cell_setting	triclinic
loop_
_symmetry_equiv_pos_as_xyz
  x,y,z
_cell_length_a	12.759401
_cell_length_b	16.625539
_cell_length_c	12.759399
_cell_angle_alpha	90.026183
_cell_angle_beta	89.983359
_cell_angle_gamma	89.981219
loop_
_atom_site_label
_atom_site_type_symbol
_atom_site_fract_x
_atom_site_fract_y
_atom_site_fract_z
Zn1	Zn	1.606241	-0.455883	0.418222
Zn2	Zn	2.106241	0.044117	0.918222
Zn3	Zn	1.606137	-0.321055	0.593923
Zn4	Zn	2.106137	0.178945	1.093923
Zn5	Zn	1.430546	-0.321068	0.418263
Zn6	Zn	1.930546	0.178932	0.918263
Zn7	Zn	1.430530	-0.455849	0.593864
Zn8	Zn	1.930530	0.044151	1.093864
O9	O	1.518364	-0.388464	0.506068
O10	O	2.018364	0.111536	1.006068
O11	O	1.753248	-0.438006	0.441536
O12	O	2.253248	0.061994	0.941536
O13	O	1.582808	-0.208224	0.570663
O14	O	2.082808	0.291776	1.070663
O15	O	1.453903	-0.338970	0.271237
O16	O	1.953903	0.161030	0.771237
O17	O	1.753172	-0.338949	0.570623
O18	O	2.253172	0.161051	1.070623
O19	O	1.582985	-0.438019	0.271206
O20	O	2.082985	0.061981	0.771206
O21	O	1.453802	-0.208233	0.441607
O22	O	1.953802	0.291767	0.941607
O23	O	1.283523	-0.338938	0.441550
O24	O	1.783523	0.161062	0.941550
O25	O	1.453875	-0.568686	0.570523
O26	O	1.953875	-0.068686	1.070523
O27	O	1.283511	-0.437961	0.570563
O28	O	1.783511	0.062039	1.070563
O29	O	1.582969	-0.568711	0.441479
O30	O	2.082969	-0.068711	0.941479
O31	O	1.582793	-0.338916	0.740936
O32	O	2.082793	0.161084	1.240936
O33	O	1.453775	-0.437949	0.740893
O34	O	1.953775	0.062051	1.240893
C35	C	1.245396	-0.388448	0.506055
C36	C	1.745396	0.111552	1.006055
C37	C	1.128620	-0.388460	0.506075
C38	C	1.628620	0.111540	1.006075
C39	C	1.518432	-0.598773	0.505990
C40	C	2.018432	-0.098773	1.005990
C41	C	1.518461	-0.688394	0.505956
C42	C	2.018461	-0.188394	1.005956
C43	C	1.073779	-0.439940	0.573354
C44	C	1.573779	0.060060	1.073354
C45	C	0.964055	-0.439956	0.573358
C46	C	1.464055	0.060044	1.073358
C47	C	0.964022	-0.337005	0.438801
C48	C	1.464022	0.162995	0.938801
C49	C	1.073744	-0.336993	0.438792
C50	C	1.573744	0.163007	0.938792
C51	C	1.518510	-1.016570	0.505839
C52	C	2.018510	-0.516570	1.005839
C53	C	1.518493	-0.925261	0.505875
C54	C	2.018493	-0.425261	1.005875
C55	C	1.518486	-0.852485	0.505898
C56	C	2.018486	-0.352485	1.005898
C57	C	1.518468	-0.761170	0.505933
C58	C	2.018468	-0.261170	1.005933
C59	C	1.792397	-0.388480	0.506082
C60	C	2.292397	0.111520	1.006082
C61	C	1.909174	-0.388487	0.506087
C62	C	2.409174	0.111513	1.006087
C63	C	1.518299	-0.388445	0.779035
C64	C	2.018299	0.111555	1.279035
C65	C	1.518368	-0.388464	0.895812
C66	C	2.018368	0.111536	1.395812
C67	C	1.518356	-0.178973	0.506070
C68	C	2.018356	0.321027	1.006070
C69	C	1.518531	-0.089352	0.505807
C70	C	2.018531	0.410648	1.005807
C71	C	1.518457	-0.388500	0.232035
C72	C	2.018457	0.111500	0.732035
C73	C	1.518497	-0.388515	0.115258
C74	C	2.018497	0.111485	0.615258
C75	C	1.585624	-0.336957	0.950661
C76	C	2.085624	0.163043	1.450661
C77	C	1.585692	-0.336984	1.060385
C78	C	2.085692	0.163016	1.560385
C79	C	1.451238	-0.440028	1.060401
C80	C	1.951238	0.059972	1.560401
C81	C	1.451176	-0.440005	0.950679
C82	C	1.951176	0.059995	1.450679
H83	H	1.118456	-0.481850	0.628138
H84	H	1.618456	0.018150	1.128138
H85	H	1.118396	-0.295072	0.383999
H86	H	1.618396	0.204928	0.883999
H87	H	1.396408	-0.481952	0.906017
H88	H	1.896408	0.018048	1.406017
H89	H	1.396531	-0.481990	1.105087
H90	H	1.896531	0.018010	1.605087
O91	O	0.904901	-0.495391	0.646040
O92	O	1.404901	0.004609	1.146040
H93	H	0.961497	-0.531139	0.692867
H94	H	1.461497	-0.031139	1.192867
O95	O	0.904836	-0.281469	0.366267
O96	O	1.404836	0.218531	0.866267
H97	H	0.819326	-0.290110	0.377592
H98	H	1.319326	0.209890	0.877592
O99	O	1.658108	-0.281385	0.891475
O100	O	2.158108	0.218615	1.391475
H101	H	1.640164	-0.218092	0.912609
H102	H	2.140164	0.281908	1.412609
O103	O	1.658225	-0.281425	1.119549
O104	O	2.158225	0.218575	1.619549
H105	H	1.704928	-0.245580	1.062959
H106	H	2.204928	0.254420	1.562959
