data_functionalizedCrystal
_audit_creation_method	'MofGen! by Chris Wilmer'
_symmetry_space_group_name_H-M	'P1'
_symmetry_Int_Tables_number	1
_symmetry_cell_setting	triclinic
loop_
_symmetry_equiv_pos_as_xyz
  x,y,z
_cell_length_a	16.120530
_cell_length_b	11.169416
_cell_length_c	11.169409
_cell_angle_alpha	89.969184
_cell_angle_beta	87.078668
_cell_angle_gamma	87.106171
loop_
_atom_site_label
_atom_site_type_symbol
_atom_site_fract_x
_atom_site_fract_y
_atom_site_fract_z
Zn1	Zn	1.274677	-0.570870	-0.771607
Zn2	Zn	1.774677	-0.070870	-0.271607
Zn3	Zn	1.274598	-0.771605	-0.570923
Zn4	Zn	1.774598	-0.271605	-0.070923
Zn5	Zn	1.135247	-0.560750	-0.560763
Zn6	Zn	1.635247	-0.060750	-0.060763
Zn7	Zn	1.135254	-0.761320	-0.761396
Zn8	Zn	1.635254	-0.261320	-0.261396
O9	O	1.204944	-0.666136	-0.666172
O10	O	1.704944	-0.166136	-0.166172
O11	O	1.391334	-0.606037	-0.753511
O12	O	1.891334	-0.106037	-0.253511
O13	O	1.256077	-0.743703	-0.401623
O14	O	1.756077	-0.243703	0.098377
O15	O	1.153773	-0.394145	-0.588753
O16	O	1.653773	0.105855	-0.088753
O17	O	1.391276	-0.753516	-0.606069
O18	O	1.891276	-0.253516	-0.106069
O19	O	1.256211	-0.401580	-0.743659
O20	O	1.756211	0.098420	-0.243659
O21	O	1.153697	-0.588789	-0.394158
O22	O	1.653697	-0.088789	0.105842
O23	O	1.018581	-0.578816	-0.578852
O24	O	1.518581	-0.078816	-0.078852
O25	O	1.153785	-0.735988	-0.930703
O26	O	1.653785	-0.235988	-0.430703
O27	O	1.018586	-0.726175	-0.726256
O28	O	1.518586	-0.226175	-0.226256
O29	O	1.256218	-0.596065	-0.938205
O30	O	1.756218	-0.096065	-0.438205
O31	O	1.256084	-0.938188	-0.596168
O32	O	1.756084	-0.438188	-0.096168
O33	O	1.153709	-0.930632	-0.736108
O34	O	1.653709	-0.430632	-0.236108
C35	C	1.204911	-0.977959	-0.666160
C36	C	1.704911	-0.477959	-0.166160
C37	C	1.204973	-1.111363	-0.666201
C38	C	1.704973	-0.611363	-0.166201
C39	C	0.988333	-0.650282	-0.650344
C40	C	1.488333	-0.150282	-0.150344
C41	C	0.895666	-0.643529	-0.643601
C42	C	1.395666	-0.143529	-0.143601
C43	C	0.726001	-0.631171	-0.631301
C44	C	1.226001	-0.131171	-0.131301
C45	C	0.684728	-0.701190	-0.701131
C46	C	1.184728	-0.201190	-0.201131
C47	C	0.590321	-0.694314	-0.694287
C48	C	1.090321	-0.194314	-0.194287
C49	C	0.820417	-0.638045	-0.638143
C50	C	1.320417	-0.138045	-0.138143
C51	C	1.422402	-0.682053	-0.682063
C52	C	1.922402	-0.182053	-0.182063
C53	C	1.515069	-0.688836	-0.688834
C54	C	2.015069	-0.188836	-0.188834
C55	C	1.205011	-0.666008	-0.979219
C56	C	1.705011	-0.166008	-0.479219
C57	C	1.205040	-0.665954	-1.112622
C58	C	1.705040	-0.165954	-0.612622
C59	C	1.205000	-0.353098	-0.666211
C60	C	1.705000	0.146902	-0.166211
C61	C	1.205024	-0.219700	-0.666228
C62	C	1.705024	0.280300	-0.166228
C63	C	1.204926	-0.666181	-0.354346
C64	C	1.704926	-0.166181	0.145654
C65	C	1.205059	-0.665909	-0.220956
C66	C	1.705059	-0.165909	0.279044
H67	H	0.720294	-0.766299	-0.766056
H68	H	1.220294	-0.266299	-0.266056
H69	H	0.690437	-0.566067	-0.566381
H70	H	1.190437	-0.066067	-0.066381
