data_functionalizedCrystal
_audit_creation_method	'MofGen! by Chris Wilmer'
_symmetry_space_group_name_H-M	'P1'
_symmetry_Int_Tables_number	1
_symmetry_cell_setting	triclinic
loop_
_symmetry_equiv_pos_as_xyz
  x,y,z
_cell_length_a	14.044220
_cell_length_b	14.519709
_cell_length_c	13.596369
_cell_angle_alpha	90.006934
_cell_angle_beta	90.000253
_cell_angle_gamma	88.434511
loop_
_atom_site_label
_atom_site_type_symbol
_atom_site_fract_x
_atom_site_fract_y
_atom_site_fract_z
O1	O	-1.258085	-0.222370	-0.081691
O2	O	-0.924751	0.110963	0.251642
O3	O	-0.591418	0.444297	0.584976
O4	O	-0.982102	-0.214346	-0.081716
O5	O	-0.648768	0.118988	0.251618
O6	O	-0.315435	0.452321	0.584951
O7	O	-1.127410	-0.084710	-0.081694
O8	O	-0.794077	0.248624	0.251640
O9	O	-0.460744	0.581957	0.584973
O10	O	-1.112776	-0.352006	-0.081713
O11	O	-0.779443	-0.018673	0.251620
O12	O	-0.446109	0.314661	0.584954
O13	O	-1.127396	-0.084701	0.081889
O14	O	-0.794063	0.248632	0.415222
O15	O	-0.460729	0.581966	0.748556
O16	O	-0.982087	-0.214337	0.081867
O17	O	-0.648754	0.118996	0.415201
O18	O	-0.315421	0.452330	0.748534
O19	O	-1.258070	-0.222361	0.081892
O20	O	-0.924737	0.110972	0.415225
O21	O	-0.591403	0.444305	0.748559
Zn22	Zn	-1.120076	-0.218348	0.107852
Zn23	Zn	-0.786743	0.114986	0.441185
Zn24	Zn	-0.453410	0.448319	0.774519
Zn25	Zn	-1.120095	-0.218359	-0.107676
Zn26	Zn	-0.786762	0.114974	0.225658
Zn27	Zn	-0.453429	0.448307	0.558991
O28	O	-1.112761	-0.351997	0.081870
O29	O	-0.779428	-0.018664	0.415203
O30	O	-0.446095	0.314669	0.748537
C31	C	-0.946774	-0.210829	0.000073
C32	C	-0.613441	0.122504	0.333406
C33	C	-0.280107	0.455838	0.666739
C34	C	-0.841531	-0.200352	0.000064
C35	C	-0.508197	0.132982	0.333397
C36	C	-0.174864	0.466315	0.666730
C37	C	-1.293398	-0.225878	0.000101
C38	C	-0.960064	0.107455	0.333435
C39	C	-0.626731	0.440789	0.666768
C40	C	-1.398641	-0.236355	0.000104
C41	C	-1.065308	0.096978	0.333437
C42	C	-0.731975	0.430311	0.666771
C43	C	-1.126721	-0.050290	0.000098
C44	C	-0.793388	0.283043	0.333431
C45	C	-0.460054	0.616376	0.666764
C46	C	-1.124677	0.052256	0.000098
C47	C	-0.791344	0.385589	0.333431
C48	C	-0.458011	0.718922	0.666765
C49	C	-0.648837	-0.181197	0.000084
C50	C	-0.315503	0.152136	0.333418
C51	C	0.017830	0.485469	0.666751
C52	C	-0.591329	-0.255505	0.000083
C53	C	-0.257996	0.077828	0.333417
C54	C	0.075337	0.411161	0.666750
C55	C	-0.484108	-0.244848	0.000095
C56	C	-0.150775	0.088486	0.333428
C57	C	0.182559	0.421819	0.666762
C58	C	-0.756068	-0.191854	0.000073
C59	C	-0.422735	0.141480	0.333406
C60	C	-0.089402	0.474813	0.666739
C61	C	-1.113451	-0.386416	0.000076
C62	C	-0.780117	-0.053083	0.333410
C63	C	-0.446784	0.280250	0.666743
C64	C	-1.115494	-0.488963	0.000070
C65	C	-0.782161	-0.155629	0.333403
C66	C	-0.448828	0.177704	0.666736
N67	N	-1.120070	-0.218340	0.254944
N68	N	-0.786737	0.114993	0.588277
N69	N	-0.453404	0.448327	0.921610
C70	C	-1.117153	0.427758	0.000072
C71	C	-0.783820	0.761092	0.333405
C72	C	-0.450487	1.094425	0.666739
C73	C	-1.119243	0.323282	0.000079
C74	C	-0.785909	0.656615	0.333413
C75	C	-0.452576	0.989949	0.666746
C76	C	-1.120915	0.240010	0.000086
C77	C	-0.787582	0.573344	0.333419
C78	C	-0.454248	0.906677	0.666753
C79	C	-1.123005	0.135527	0.000092
C80	C	-0.789672	0.468861	0.333425
C81	C	-0.456338	0.802194	0.666758
N82	N	-1.120109	-0.218360	-0.254767
N83	N	-0.786776	0.114973	0.078566
N84	N	-0.453442	0.448306	0.411899
C85	C	-1.120094	-0.218360	0.656235
C86	C	-0.786761	0.114973	0.989568
C87	C	-0.453428	0.448307	1.322901
C88	C	-1.120085	-0.218357	0.544583
C89	C	-0.786751	0.114976	0.877917
C90	C	-0.453418	0.448309	1.211250
C91	C	-1.120083	-0.218351	0.455593
C92	C	-0.786749	0.114983	0.788926
C93	C	-0.453416	0.448316	1.122259
C94	C	-1.120072	-0.218347	0.343934
C95	C	-0.786739	0.114987	0.677268
C96	C	-0.453406	0.448320	1.010601
H97	H	-0.622622	-0.327127	0.000073
H98	H	-0.289289	0.006206	0.333407
H99	H	0.044045	0.339540	0.666740
O100	O	-0.607399	-0.086329	0.000091
O101	O	-0.274065	0.247005	0.333424
O102	O	0.059268	0.580338	0.666757
H103	H	-0.528464	-0.092741	0.000089
H104	H	-0.195130	0.240592	0.333422
H105	H	0.138203	0.573926	0.666756
