data_functionalizedCrystal
_audit_creation_method	'MofGen! by Chris Wilmer'
_symmetry_space_group_name_H-M	'P1'
_symmetry_Int_Tables_number	1
_symmetry_cell_setting	triclinic
loop_
_symmetry_equiv_pos_as_xyz
  x,y,z
_cell_length_a	14.044209
_cell_length_b	14.519709
_cell_length_c	13.596369
_cell_angle_alpha	89.999684
_cell_angle_beta	89.997124
_cell_angle_gamma	88.434049
loop_
_atom_site_label
_atom_site_type_symbol
_atom_site_fract_x
_atom_site_fract_y
_atom_site_fract_z
O1	O	-0.124265	-1.233892	0.081669
O2	O	0.125735	-0.983892	0.331669
O3	O	0.375735	-0.733892	0.581669
O4	O	0.625735	-0.483892	0.831669
O5	O	-0.138899	-0.966596	0.081700
O6	O	0.111101	-0.716596	0.331700
O7	O	0.361101	-0.466596	0.581700
O8	O	0.611101	-0.216596	0.831700
O9	O	0.006409	-1.096233	0.081671
O10	O	0.256409	-0.846233	0.331671
O11	O	0.506409	-0.596233	0.581671
O12	O	0.756409	-0.346233	0.831671
O13	O	-0.269574	-1.104255	0.081698
O14	O	-0.019574	-0.854255	0.331698
O15	O	0.230426	-0.604255	0.581698
O16	O	0.480426	-0.354255	0.831698
O17	O	0.006401	-1.096216	-0.081912
O18	O	0.256401	-0.846216	0.168088
O19	O	0.506401	-0.596216	0.418088
O20	O	0.756401	-0.346216	0.668088
O21	O	-0.138907	-0.966579	-0.081883
O22	O	0.111093	-0.716579	0.168117
O23	O	0.361093	-0.466579	0.418117
O24	O	0.611093	-0.216579	0.668117
O25	O	-0.124273	-1.233876	-0.081914
O26	O	0.125727	-0.983876	0.168086
O27	O	0.375727	-0.733876	0.418086
O28	O	0.625727	-0.483876	0.668086
Zn29	Zn	-0.131591	-1.100225	-0.107871
Zn30	Zn	0.118409	-0.850225	0.142129
Zn31	Zn	0.368409	-0.600225	0.392129
Zn32	Zn	0.618409	-0.350225	0.642129
Zn33	Zn	-0.131581	-1.100247	0.107657
Zn34	Zn	0.118419	-0.850247	0.357657
Zn35	Zn	0.368419	-0.600247	0.607657
Zn36	Zn	0.618419	-0.350247	0.857657
O37	O	-0.269582	-1.104238	-0.081885
O38	O	-0.019582	-0.854238	0.168115
O39	O	0.230418	-0.604238	0.418115
O40	O	0.480418	-0.354238	0.668115
C41	C	0.041726	-1.092712	-0.000122
C42	C	0.291726	-0.842712	0.249878
C43	C	0.541726	-0.592712	0.499878
C44	C	0.791726	-0.342712	0.749878
C45	C	0.146969	-1.082236	-0.000125
C46	C	0.396969	-0.832236	0.249875
C47	C	0.646969	-0.582236	0.499875
C48	C	0.896969	-0.332236	0.749875
C49	C	-0.138221	-0.932173	-0.000088
C50	C	0.111779	-0.682173	0.249912
C51	C	0.361779	-0.432173	0.499912
C52	C	0.611779	-0.182173	0.749912
C53	C	-0.136178	-0.829626	-0.000077
C54	C	0.113822	-0.579626	0.249923
C55	C	0.363822	-0.329626	0.499923
C56	C	0.613822	-0.079626	0.749923
C57	C	-0.124951	-1.268299	-0.000124
C58	C	0.125049	-1.018299	0.249876
C59	C	0.375049	-0.768299	0.499876
C60	C	0.625049	-0.518299	0.749876
C61	C	-0.126995	-1.370845	-0.000129
C62	C	0.123005	-1.120845	0.249871
C63	C	0.373005	-0.870845	0.499871
C64	C	0.623005	-0.620845	0.749871
C65	C	0.339664	-1.063083	-0.000115
C66	C	0.589664	-0.813083	0.249885
C67	C	0.839664	-0.563083	0.499885
C68	C	1.089664	-0.313083	0.749885
C69	C	0.397171	-1.137392	-0.000122
C70	C	0.647171	-0.887392	0.249878
C71	C	0.897171	-0.637392	0.499878
C72	C	1.147171	-0.387392	0.749878
C73	C	0.504392	-1.126735	-0.000116
C74	C	0.754392	-0.876735	0.249884
C75	C	1.004392	-0.626735	0.499884
C76	C	1.254392	-0.376735	0.749884
C77	C	0.232432	-1.073739	-0.000120
C78	C	0.482432	-0.823739	0.249880
C79	C	0.732432	-0.573739	0.499880
C80	C	0.982432	-0.323739	0.749880
C81	C	0.695102	-1.107761	-0.000098
C82	C	0.945102	-0.857761	0.249902
C83	C	1.195102	-0.607761	0.499902
C84	C	1.445102	-0.357761	0.749902
C85	C	0.589859	-1.118243	-0.000112
C86	C	0.839859	-0.868243	0.249888
C87	C	1.089859	-0.618243	0.499888
C88	C	1.339859	-0.368243	0.749888
C89	C	-0.128654	-0.454124	-0.000122
C90	C	0.121346	-0.204124	0.249878
C91	C	0.371346	0.045876	0.499878
C92	C	0.621346	0.295876	0.749878
C93	C	-0.130743	-0.558600	-0.000109
C94	C	0.119257	-0.308600	0.249891
C95	C	0.369257	-0.058600	0.499891
C96	C	0.619257	0.191400	0.749891
C97	C	-0.132415	-0.641872	-0.000099
C98	C	0.117585	-0.391872	0.249901
C99	C	0.367585	-0.141872	0.499901
C100	C	0.617585	0.108128	0.749901
C101	C	-0.134505	-0.746355	-0.000087
C102	C	0.115495	-0.496355	0.249913
C103	C	0.365495	-0.246355	0.499913
C104	C	0.615495	0.003645	0.749913
N105	N	-0.131598	-1.100216	-0.254963
N106	N	0.118402	-0.850216	-0.004963
N107	N	0.368402	-0.600216	0.245037
N108	N	0.618402	-0.350216	0.495037
C109	C	-0.131600	-1.100221	-0.343961
C110	C	0.118400	-0.850221	-0.093961
C111	C	0.368400	-0.600221	0.156039
C112	C	0.618400	-0.350221	0.406039
C113	C	-0.131594	-1.100229	-0.455612
C114	C	0.118406	-0.850229	-0.205612
C115	C	0.368406	-0.600229	0.044388
C116	C	0.618406	-0.350229	0.294388
C117	C	-0.131583	-1.100241	-0.544603
C118	C	0.118417	-0.850241	-0.294603
C119	C	0.368417	-0.600241	-0.044603
C120	C	0.618417	-0.350241	0.205397
C121	C	-0.131577	-1.100251	-0.656261
C122	C	0.118423	-0.850251	-0.406261
C123	C	0.368423	-0.600251	-0.156261
C124	C	0.618423	-0.350251	0.093739
N125	N	-0.131567	-1.100262	0.254748
N126	N	0.118433	-0.850262	0.504748
N127	N	0.368433	-0.600262	0.754748
N128	N	0.618433	-0.350262	1.004748
H129	H	0.365878	-1.209013	-0.000063
H130	H	0.615878	-0.959013	0.249937
H131	H	0.865878	-0.709013	0.499937
H132	H	1.115878	-0.459013	0.749937
C133	C	0.381937	-0.966332	-0.000118
C134	C	0.631937	-0.716332	0.249882
C135	C	0.881937	-0.466332	0.499882
C136	C	1.131937	-0.216332	0.749882
N137	N	0.413788	-0.893460	-0.000128
N138	N	0.663788	-0.643460	0.249872
N139	N	0.913788	-0.393460	0.499872
N140	N	1.163788	-0.143460	0.749872
