data_functionalizedCrystal
_audit_creation_method	'MofGen! by Chris Wilmer'
_symmetry_space_group_name_H-M	'P1'
_symmetry_Int_Tables_number	1
_symmetry_cell_setting	triclinic
loop_
_symmetry_equiv_pos_as_xyz
  x,y,z
_cell_length_a	14.853554
_cell_length_b	9.065215
_cell_length_c	8.140239
_cell_angle_alpha	89.997810
_cell_angle_beta	90.002912
_cell_angle_gamma	95.677926
loop_
_atom_site_label
_atom_site_type_symbol
_atom_site_fract_x
_atom_site_fract_y
_atom_site_fract_z
O1	O	-0.132179	1.957770	-0.136592
O2	O	-0.143025	1.528269	-0.136599
O3	O	-0.006456	1.754502	-0.136587
O4	O	-0.268748	1.731537	-0.136604
O5	O	-0.006455	1.754490	0.136640
O6	O	-0.143023	1.528256	0.136628
O7	O	-0.132178	1.957758	0.136635
Zn8	Zn	-0.137600	1.743005	0.180012
Zn9	Zn	-0.137602	1.743021	-0.179976
O10	O	-0.268746	1.731524	0.136623
C11	C	-0.141982	1.473297	0.000013
C12	C	-0.138868	1.309516	0.000011
C13	C	-0.302344	1.732567	0.000007
C14	C	-0.402451	1.735675	0.000000
C15	C	-0.825728	1.748892	-0.148923
C16	C	-0.825712	1.748878	0.148959
C17	C	-0.731657	1.745940	0.148958
C18	C	-0.684633	1.744480	0.000014
C19	C	-0.731664	1.745958	-0.148929
C20	C	-0.684618	1.744477	0.297898
C21	C	-0.590557	1.741541	0.297903
C22	C	-0.543532	1.740070	0.148957
C23	C	-0.590569	1.741546	0.000008
C24	C	-0.543546	1.740087	-0.148937
C25	C	-0.590582	1.741552	-0.297887
C26	C	-0.684640	1.744487	-0.297876
C27	C	-0.449475	1.737135	0.148945
C28	C	-0.449482	1.737153	-0.148943
C29	C	0.027141	1.753459	0.000025
C30	C	0.127248	1.750352	0.000021
C31	C	-0.133220	2.012730	0.000019
C32	C	-0.136335	2.176511	0.000011
N33	N	-0.137598	1.743005	0.425695
N34	N	-0.137597	1.743034	-0.425659
H35	H	-0.552282	1.740372	-0.419158
H36	H	-0.552268	1.740346	0.419188
H37	H	-0.864003	1.750078	0.270223
H38	H	-0.411182	1.735947	0.270218
H39	H	-0.411203	1.735953	-0.270233
C40	C	-0.877461	1.750510	-0.312757
H41	H	-0.940214	1.752474	-0.291430
H42	H	-0.868223	1.664071	-0.373959
H43	H	-0.855871	1.836011	-0.373945
H44	H	-0.722944	1.745686	-0.419143
H45	H	-0.722910	1.745677	0.419160
