data_functionalizedCrystal
_audit_creation_method	'MofGen! by Chris Wilmer'
_symmetry_space_group_name_H-M	'P1'
_symmetry_Int_Tables_number	1
_symmetry_cell_setting	triclinic
loop_
_symmetry_equiv_pos_as_xyz
  x,y,z
_cell_length_a	10.685661
_cell_length_b	13.897447
_cell_length_c	10.686551
_cell_angle_alpha	85.594025
_cell_angle_beta	80.927378
_cell_angle_gamma	85.640892
loop_
_atom_site_label
_atom_site_type_symbol
_atom_site_fract_x
_atom_site_fract_y
_atom_site_fract_z
Zn1	Zn	1.995671	-0.450229	-0.866167
Zn2	Zn	2.495671	0.049771	-0.366167
Zn3	Zn	1.979231	-0.623046	-0.653904
Zn4	Zn	2.479231	-0.123046	-0.153904
Zn5	Zn	1.767106	-0.450273	-0.637692
Zn6	Zn	2.267106	0.049727	-0.137692
Zn7	Zn	1.783364	-0.599984	-0.849867
Zn8	Zn	2.283364	-0.099984	-0.349867
O9	O	1.881343	-0.530883	-0.751907
O10	O	2.381343	-0.030883	-0.251907
O11	O	2.171116	-0.482787	-0.851616
O12	O	2.671116	0.017213	-0.351616
O13	O	1.937408	-0.609797	-0.474125
O14	O	2.437408	-0.109797	0.025875
O15	O	1.797502	-0.315287	-0.668036
O16	O	2.297502	0.184713	-0.168036
O17	O	2.159038	-0.609755	-0.695668
O18	O	2.659038	-0.109755	-0.195668
O19	O	1.965428	-0.315255	-0.835895
O20	O	2.465428	0.184745	-0.335895
O21	O	1.781561	-0.482861	-0.462214
O22	O	2.281561	0.017139	0.037786
O23	O	1.591636	-0.460499	-0.652231
O24	O	2.091636	0.039501	-0.152231
O25	O	1.825211	-0.570448	-1.029658
O26	O	2.325211	-0.070448	-0.529658
O27	O	1.603581	-0.570491	-0.808115
O28	O	2.103581	-0.070491	-0.308115
O29	O	1.981192	-0.460424	-1.041633
O30	O	2.481192	0.039576	-0.541633
O31	O	1.953172	-0.754966	-0.679863
O32	O	2.453172	-0.254966	-0.179863
O33	O	1.809269	-0.738022	-0.823836
O34	O	2.309269	-0.238022	-0.323836
C35	C	1.551552	-0.512998	-0.726645
C36	C	2.051552	-0.012998	-0.226645
C37	C	1.410468	-0.505368	-0.715868
C38	C	1.910468	-0.005368	-0.215868
C39	C	1.881237	-0.781493	-0.751870
C40	C	2.381237	-0.281493	-0.251870
C41	C	1.881312	-0.888709	-0.751905
C42	C	2.381312	-0.388709	-0.251905
C43	C	1.881375	-0.975781	-0.751939
C44	C	2.381375	-0.475781	-0.251939
C45	C	1.881467	-1.085016	-0.751978
C46	C	2.381467	-0.585016	-0.251978
C47	C	2.212421	-0.548838	-0.777269
C48	C	2.712421	-0.048838	-0.277269
C49	C	2.353507	-0.556490	-0.788076
C50	C	2.853507	-0.056490	-0.288076
C51	C	1.906849	-0.512859	-1.082990
C52	C	2.406849	-0.012859	-0.582990
C53	C	1.917718	-0.505178	-1.224078
C54	C	2.417718	-0.005178	-0.724078
C55	C	1.881485	-0.279294	-0.751975
C56	C	2.381485	0.220706	-0.251975
C57	C	1.881546	-0.172082	-0.752004
C58	C	2.381546	0.327918	-0.252004
C59	C	1.856009	-0.548771	-0.422118
C60	C	2.356009	-0.048771	0.077882
C61	C	1.845386	-0.556193	-0.281050
C62	C	2.345386	-0.056193	0.218950
H63	H	1.351295	-0.455757	-0.645802
H64	H	1.851295	0.044243	-0.145802
C65	C	1.750508	-0.623152	-1.201144
C66	C	2.250508	-0.123152	-0.701144
H67	H	1.706598	-0.654137	-1.255803
H68	H	2.206598	-0.154137	-0.755803
H69	H	1.691279	-0.586052	-1.145189
H70	H	2.191279	-0.086052	-0.645189
H71	H	1.795129	-0.670596	-1.153151
H72	H	2.295129	-0.170596	-0.653151
C73	C	2.012622	-0.438233	-1.303992
C74	C	2.512622	0.061767	-0.803992
H75	H	2.056548	-0.407264	-1.249331
H76	H	2.556548	0.092736	-0.749331
H77	H	1.968034	-0.390790	-1.352005
H78	H	2.468034	0.109210	-0.852005
H79	H	2.071852	-0.475356	-1.359928
H80	H	2.571852	0.024644	-0.859928
C81	C	1.433428	-0.623511	-0.882720
C82	C	1.933428	-0.123511	-0.382720
H83	H	1.520947	-0.620027	-0.877782
H84	H	2.020947	-0.120027	-0.377782
H85	H	1.418363	-0.603706	-0.966409
H86	H	1.918363	-0.103706	-0.466409
H87	H	1.410296	-0.688161	-0.862336
H88	H	1.910296	-0.188161	-0.362336
