data_functionalizedCrystal
_audit_creation_method	'MofGen! by Chris Wilmer'
_symmetry_space_group_name_H-M	'P1'
_symmetry_Int_Tables_number	1
_symmetry_cell_setting	triclinic
loop_
_symmetry_equiv_pos_as_xyz
  x,y,z
_cell_length_a	16.992701
_cell_length_b	14.971506
_cell_length_c	14.048226
_cell_angle_alpha	90.001102
_cell_angle_beta	89.995125
_cell_angle_gamma	92.855221
loop_
_atom_site_label
_atom_site_type_symbol
_atom_site_fract_x
_atom_site_fract_y
_atom_site_fract_z
O1	O	1.040582	-0.189660	-0.079162
O2	O	0.812294	-0.187581	-0.079163
O3	O	0.932549	-0.058851	-0.079160
O4	O	0.920328	-0.318390	-0.079165
O5	O	0.932537	-0.058851	0.079161
O6	O	0.812283	-0.187582	0.079159
O7	O	1.040570	-0.189660	0.079159
Zn8	Zn	0.926425	-0.188621	0.104296
Zn9	Zn	0.926440	-0.188620	-0.104299
O10	O	0.920316	-0.318390	0.079157
C11	C	0.783073	-0.184905	-0.000002
C12	C	0.696021	-0.176919	-0.000002
C13	C	0.207008	-0.123259	-0.000005
C14	C	0.288802	-0.130770	0.000001
C15	C	0.320430	-0.215345	-0.000005
C16	C	0.270259	-0.292414	-0.000007
C17	C	0.188467	-0.284903	-0.000006
C18	C	0.564058	-0.246476	-0.000003
C19	C	0.645857	-0.253982	-0.000007
C20	C	0.664394	-0.092337	0.000003
C21	C	0.582599	-0.084833	-0.000002
C22	C	0.532436	-0.161902	0.000001
N23	N	0.404036	-0.223024	-0.000002
N24	N	0.448831	-0.154222	0.000005
C25	C	0.931993	-0.025488	-0.000001
C26	C	0.930347	0.073924	-0.000005
C27	C	1.069791	-0.192336	-0.000003
C28	C	1.156844	-0.200323	-0.000009
C29	C	0.920871	-0.351753	-0.000005
C30	C	0.922518	-0.451165	-0.000007
C31	C	0.994711	0.507685	-0.000004
C32	C	0.996252	0.414276	0.000002
C33	C	0.925598	0.362020	-0.000001
C34	C	0.853399	0.403176	-0.000001
C35	C	0.851859	0.496583	-0.000001
C36	C	0.856614	0.208487	-0.000005
C37	C	0.858153	0.115074	-0.000008
C38	C	1.001007	0.126181	-0.000002
C39	C	0.999467	0.219587	-0.000002
C40	C	0.927267	0.260737	-0.000003
N41	N	0.926420	-0.188621	0.246657
N42	N	0.926451	-0.188613	-0.246660
C43	C	0.878841	-0.130929	0.703525
C44	C	0.878838	-0.130926	0.603867
C45	C	0.926441	-0.188613	0.554027
C46	C	0.974056	-0.246300	0.603849
C47	C	0.974063	-0.246298	0.703504
C48	C	0.974037	-0.246302	0.396134
C49	C	0.974030	-0.246306	0.296472
C50	C	0.878813	-0.130930	0.296497
C51	C	0.878820	-0.130928	0.396153
C52	C	0.926434	-0.188617	0.445968
H53	H	0.556855	-0.015963	0.000003
H54	H	0.671604	-0.322857	0.000002
H55	H	1.012831	-0.293270	0.744063
H56	H	0.793071	0.530086	0.000005
H57	H	0.800621	0.072529	-0.000005
H58	H	1.057000	0.262133	-0.000005
H59	H	0.705246	-0.029592	0.000001
H60	H	0.296017	-0.361277	-0.000006
H61	H	1.012790	-0.293282	0.255894
H62	H	0.181263	-0.054389	-0.000006
H63	H	1.055040	0.380776	0.000005
H64	H	1.012819	-0.293265	0.563260
H65	H	0.797821	0.241988	0.000007
H66	H	0.329643	-0.068016	0.000009
H67	H	0.523224	-0.309232	-0.000005
H68	H	0.795871	0.360622	0.000001
H69	H	0.840073	-0.083958	0.744098
H70	H	0.147623	-0.347656	-0.000006
H71	H	1.052246	0.550226	-0.000009
H72	H	0.840053	-0.083959	0.436731
H73	H	1.059794	0.092672	-0.000089
H74	H	0.840072	-0.083951	0.563312
H75	H	0.840042	-0.083960	0.255933
H76	H	1.012812	-0.293276	0.436691
