data_functionalizedCrystal
_audit_creation_method	'MofGen! by Chris Wilmer'
_symmetry_space_group_name_H-M	'P1'
_symmetry_Int_Tables_number	1
_symmetry_cell_setting	triclinic
loop_
_symmetry_equiv_pos_as_xyz
  x,y,z
_cell_length_a	13.339070
_cell_length_b	15.944493
_cell_length_c	12.376457
_cell_angle_alpha	101.280268
_cell_angle_beta	75.589755
_cell_angle_gamma	99.552169
loop_
_atom_site_label
_atom_site_type_symbol
_atom_site_fract_x
_atom_site_fract_y
_atom_site_fract_z
O1	O	1.361605	0.409515	-0.093990
O2	O	1.861605	0.909515	0.406010
O3	O	1.067088	0.354244	-0.093991
O4	O	1.567088	0.854244	0.406009
O5	O	1.222422	0.261481	-0.094000
O6	O	1.722422	0.761481	0.406000
O7	O	1.206272	0.502277	-0.093981
O8	O	1.706272	1.002277	0.406019
O9	O	1.183602	0.284631	0.094014
O10	O	1.683602	0.784631	0.594014
O11	O	1.028269	0.377394	0.094023
O12	O	1.528269	0.877394	0.594023
O13	O	1.322786	0.432665	0.094024
O14	O	1.822786	0.932665	0.594024
Zn15	Zn	1.169364	0.408705	0.123875
Zn16	Zn	1.669364	0.908705	0.623875
Zn17	Zn	1.220510	0.378204	-0.123842
Zn18	Zn	1.720510	0.878204	0.376158
O19	O	1.167452	0.525427	0.094033
O20	O	1.667452	1.025427	0.594033
C21	C	1.009991	0.356483	0.000016
C22	C	1.509991	0.856483	0.500016
C23	C	0.897695	0.328653	0.000015
C24	C	1.397695	0.828653	0.500015
C25	C	1.202353	0.241607	0.000002
C26	C	1.702353	0.741607	0.500002
C27	C	1.200378	0.147896	-0.000012
C28	C	1.700378	0.647896	0.499988
C29	C	0.532862	0.545039	0.000014
C30	C	1.032862	1.045039	0.500014
C31	C	0.638371	0.571188	0.000011
C32	C	1.138371	1.071188	0.500011
C33	C	0.703207	0.510557	0.000013
C34	C	1.203207	1.010557	0.500013
C35	C	0.662524	0.423771	0.000016
C36	C	1.162524	0.923771	0.500016
C37	C	0.557007	0.397618	0.000009
C38	C	1.057007	0.897618	0.500009
C39	C	0.727352	0.363136	0.000008
C40	C	1.227352	0.863136	0.500008
C41	C	0.686669	0.276351	0.000011
C42	C	1.186669	0.776351	0.500011
C43	C	0.581162	0.250202	0.000005
C44	C	1.081162	0.750202	0.500005
C45	C	0.516326	0.310834	0.000004
C46	C	1.016326	0.810834	0.500004
C47	C	0.832869	0.389289	0.000014
C48	C	1.332869	0.889289	0.500014
C49	C	0.857014	0.241868	0.000010
C50	C	1.357014	0.741868	0.500010
C51	C	0.751505	0.215719	0.000012
C52	C	1.251505	0.715719	0.500012
C53	C	1.291805	-0.066556	0.000010
C54	C	1.791805	0.433444	0.500010
C55	C	1.261639	-0.140028	-0.092691
C56	C	1.761639	0.359972	0.407309
C57	C	1.196709	-0.023678	0.000002
C58	C	1.696709	0.476322	0.500002
C59	C	1.223344	-0.117185	0.092677
C60	C	1.723344	0.382815	0.592677
C61	C	1.193171	-0.189409	0.000020
C62	C	1.693171	0.310591	0.500020
C63	C	1.166584	-0.095924	-0.092775
C64	C	1.666584	0.404076	0.407225
C65	C	1.128286	-0.073065	0.092676
C66	C	1.628286	0.426935	0.592676
C67	C	1.098055	-0.146522	-0.000047
C68	C	1.598055	0.353478	0.499953
C69	C	1.198750	0.071796	-0.000010
C70	C	1.698750	0.571796	0.499990
C71	C	1.191124	-0.284882	0.000024
C72	C	1.691124	0.215118	0.500024
C73	C	1.379883	0.430426	0.000015
C74	C	1.879883	0.930426	0.500015
C75	C	1.492181	0.458254	0.000009
C76	C	1.992181	0.958254	0.500009
C77	C	1.187521	0.545301	0.000028
C78	C	1.687521	1.045301	0.500028
C79	C	1.189498	0.639012	0.000035
C80	C	1.689498	1.139012	0.500035
N81	N	1.134465	0.429522	0.292936
N82	N	1.634465	0.929522	0.792936
N83	N	1.255417	0.357382	-0.292902
N84	N	1.755417	0.857382	0.207098
C85	C	1.336428	0.309041	0.647909
C86	C	1.836428	0.809041	1.147909
C87	C	1.360848	0.294470	0.529568
C88	C	1.860848	0.794470	1.029568
C89	C	1.304254	0.328231	0.470404
C90	C	1.804254	0.828231	0.970404
C91	C	1.223236	0.376568	0.529593
C92	C	1.723236	0.876568	1.029593
C93	C	1.198819	0.391146	0.647946
C94	C	1.698819	0.891146	1.147946
C95	C	1.166645	0.410336	0.470441
C96	C	1.666645	0.910336	0.970441
C97	C	1.085628	0.458673	0.529630
C98	C	1.585628	0.958673	1.029630
C99	C	1.061214	0.473248	0.647971
C100	C	1.561214	0.973248	1.147971
C101	C	1.117808	0.439487	0.707135
C102	C	1.617808	0.939487	1.207135
C103	C	1.191063	0.395758	0.352088
C104	C	1.691063	0.895758	0.852088
C105	C	1.053454	0.477863	0.352124
C106	C	1.553454	0.977863	0.852124
C107	C	1.029034	0.492434	0.470466
C108	C	1.529034	0.992434	0.970466
H109	H	0.865981	0.459951	0.000016
H110	H	1.365981	0.959951	0.500016
H111	H	0.548045	0.179534	-0.000005
H112	H	1.048045	0.679534	0.499995
H113	H	1.373739	-0.031852	-0.000083
H114	H	1.873739	0.468148	0.499917
H115	H	0.430411	0.289547	0.000007
H116	H	0.930411	0.789547	0.500007
F117	F	1.054702	-0.034798	0.195119
F118	F	1.554702	0.465202	0.695119
F119	F	0.708195	0.123357	0.000015
F120	F	1.208195	0.623357	0.500015
F121	F	1.335281	-0.178246	-0.195128
F122	F	1.835281	0.321754	0.304872
F123	F	1.135297	-0.083110	-0.195324
F124	F	1.635297	0.416890	0.304676
F125	F	0.926013	0.177334	0.000004
F126	F	1.426013	0.677334	0.500004
H127	H	1.382505	0.281562	0.696088
H128	H	1.882505	0.781562	1.196088
H129	H	0.671489	0.641848	0.000000
H130	H	1.171489	1.141848	0.500000
F131	F	1.277284	0.344316	0.289108
F132	F	1.777284	0.844316	0.789108
H133	H	0.789116	0.531853	0.000008
H134	H	1.289116	1.031853	0.500008
H135	H	1.247345	-0.127104	0.171043
H136	H	1.747345	0.372896	0.671043
F137	F	1.330244	0.312721	0.344454
F138	F	1.830244	0.812721	0.844454
H139	H	1.097923	0.451347	0.803498
H140	H	1.597923	0.951347	1.303498
H141	H	1.016087	-0.181097	-0.000098
H142	H	1.516087	0.318903	0.499902
F143	F	1.447069	0.243030	0.466578
F144	F	1.947069	0.743030	0.966578
H145	H	0.995253	0.512614	0.696163
H146	H	1.495253	1.012614	1.196163
H147	H	0.963068	0.531791	0.518672
H148	H	1.463068	1.031791	1.018672
F149	F	0.463858	0.609555	-0.000003
F150	F	0.963858	1.109555	0.499997
F151	F	0.993222	0.513800	0.289163
F152	F	1.493222	1.013800	0.789163
