data_functionalizedCrystal
_audit_creation_method	'MofGen! by Chris Wilmer'
_symmetry_space_group_name_H-M	'P1'
_symmetry_Int_Tables_number	1
_symmetry_cell_setting	triclinic
loop_
_symmetry_equiv_pos_as_xyz
  x,y,z
_cell_length_a	17.038272
_cell_length_b	17.038272
_cell_length_c	16.098538
_cell_angle_alpha	87.079695
_cell_angle_beta	87.066048
_cell_angle_gamma	88.888444
loop_
_atom_site_label
_atom_site_type_symbol
_atom_site_fract_x
_atom_site_fract_y
_atom_site_fract_z
O1	O	1.052036	-0.167263	-0.069224
O2	O	0.824225	-0.164554	-0.069233
O3	O	0.936776	-0.052003	-0.069222
O4	O	0.939485	-0.279814	-0.069235
O5	O	0.930200	-0.058550	0.069290
O6	O	0.817648	-0.171101	0.069279
O7	O	1.045459	-0.173810	0.069288
Zn8	Zn	0.930510	-0.173495	0.091275
Zn9	Zn	0.939175	-0.164869	-0.091221
O10	O	0.932908	-0.286361	0.069277
C11	C	0.791644	-0.165365	0.000022
C12	C	0.704361	-0.158017	0.000019
C13	C	0.931025	-0.025984	0.000034
C14	C	0.923677	0.061300	0.000033
C15	C	1.078040	-0.172999	0.000031
C16	C	1.165324	-0.180347	0.000029
C17	C	1.210933	-0.112883	0.000030
C18	C	1.292945	-0.119792	0.000033
C19	C	1.329346	-0.194165	0.000028
C20	C	1.283731	-0.261634	0.000030
C21	C	1.201721	-0.254725	0.000033
C22	C	1.576735	-0.218576	0.000023
C23	C	1.658751	-0.225480	0.000018
C24	C	1.667960	-0.083638	0.000022
C25	C	1.585947	-0.076734	0.000020
C26	C	1.540339	-0.144203	0.000026
C27	C	1.413176	-0.201229	0.000028
C28	C	1.456511	-0.137139	0.000032
C29	C	0.938659	-0.312380	0.000019
C30	C	0.946008	-0.399663	0.000014
N31	N	0.924602	-0.179382	0.215824
C32	C	0.991140	0.106909	0.000037
C33	C	0.984232	0.188921	0.000029
C34	C	0.909859	0.225323	0.000023
C35	C	0.842391	0.179708	0.000017
C36	C	0.849300	0.097697	0.000019
C37	C	0.885449	0.472711	0.000010
C38	C	0.878544	0.554728	0.000011
C39	C	1.020386	0.563936	0.000021
C40	C	1.027289	0.481923	0.000028
C41	C	0.959821	0.436315	0.000018
C42	C	0.902795	0.309152	0.000017
C43	C	0.966886	0.352488	0.000017
N44	N	0.945088	-0.158976	-0.215769
C45	C	0.972393	-0.131630	0.259414
C46	C	0.968268	-0.135756	0.346602
C47	C	0.916355	-0.187639	0.390199
C48	C	0.868559	-0.235392	0.346604
C49	C	0.872680	-0.231262	0.259417
C50	C	0.901413	-0.202599	0.653448
C51	C	0.897297	-0.206728	0.740641
C52	C	0.997006	-0.107090	0.740634
C53	C	1.001126	-0.102967	0.653445
C54	C	0.953327	-0.150718	0.609857
C55	C	0.912139	-0.191859	0.479320
C56	C	0.957539	-0.146493	0.520738
H57	H	1.181302	-0.052321	0.000028
H58	H	1.051703	0.077277	0.000046
Cl59	Cl	0.832030	-0.271960	0.795443
H60	H	1.035921	-0.068213	0.776131
Cl61	Cl	0.846880	-0.257084	0.534132
Cl62	Cl	1.037662	-0.066406	0.204615
H63	H	1.087851	0.452291	0.000033
H64	H	0.862495	-0.241481	0.617965
H65	H	1.313375	-0.322191	0.000031
H66	H	0.999804	-0.104247	0.485238
Cl67	Cl	1.105198	0.621275	0.000031
Cl68	Cl	1.410748	-0.043645	0.000042
Cl69	Cl	0.803292	-0.300614	0.401410
Cl70	Cl	0.800631	0.415387	-0.000005
Cl71	Cl	1.350279	-0.034977	0.000039
H72	H	1.539610	-0.273514	0.000024
Cl73	Cl	0.812594	-0.291293	0.204619
Cl74	Cl	0.785039	0.600488	0.000009
Cl75	Cl	1.458945	-0.294724	0.000013
Cl76	Cl	1.704512	-0.318985	0.000013
H77	H	1.027441	0.322847	0.000004
Cl78	Cl	1.028349	-0.075723	0.401402
Cl79	Cl	1.540193	0.016768	-0.000004
H80	H	0.842240	0.338799	0.000014
Cl81	Cl	1.725300	0.001174	0.000021
Cl82	Cl	1.069048	0.246255	0.000035
Cl83	Cl	1.066389	-0.037744	0.598637
H84	H	0.781834	0.209352	0.000007
H85	H	1.164586	-0.309661	0.000035
H86	H	0.794364	0.060563	0.000016
