data_functionalizedCrystal
_audit_creation_method	'MofGen! by Chris Wilmer'
_symmetry_space_group_name_H-M	'P1'
_symmetry_Int_Tables_number	1
_symmetry_cell_setting	triclinic
loop_
_symmetry_equiv_pos_as_xyz
  x,y,z
_cell_length_a	20.919309
_cell_length_b	20.919319
_cell_length_c	19.902436
_cell_angle_alpha	57.457729
_cell_angle_beta	90.003080
_cell_angle_gamma	60.108551
loop_
_atom_site_label
_atom_site_type_symbol
_atom_site_fract_x
_atom_site_fract_y
_atom_site_fract_z
Zr1	Zr	0.668265	0.648473	-0.087160
O2	O	0.567668	0.789824	-0.204288
O3	O	0.695331	0.512845	-0.047663
O4	O	0.700767	0.645931	-0.193009
O5	O	0.562235	0.656746	0.051625
O6	O	0.810049	0.637416	-0.188196
O7	O	0.562232	0.656737	-0.058942
O8	O	0.800326	0.399349	0.071801
O9	O	0.571959	0.894813	-0.208372
O10	O	0.792988	0.560156	-0.031564
O11	O	0.711435	0.566517	0.047359
O12	O	0.717834	0.723210	-0.123767
O13	O	0.636281	0.729571	-0.044844
Zr14	Zr	0.842562	0.634906	0.096859
Zr15	Zr	0.842557	0.634892	-0.079483
Zr16	Zr	0.668270	0.648487	0.089182
Zr17	Zr	0.675108	0.815919	-0.093673
Zr18	Zr	0.835718	0.467460	0.103372
O19	O	0.815495	0.770534	0.057362
O20	O	0.815488	0.770514	-0.193373
O21	O	0.567675	0.789844	0.046448
O22	O	0.943159	0.493555	0.213987
O23	O	0.943152	0.493535	-0.036749
O24	O	0.695338	0.512865	0.203072
O25	O	0.948592	0.626633	-0.041926
O26	O	0.810060	0.637448	0.202708
O27	O	0.700778	0.645963	0.197895
O28	O	0.948595	0.626642	0.068641
O29	O	0.710497	0.884019	-0.202270
O30	O	0.800329	0.399360	0.211969
O31	O	0.938868	0.388566	0.218071
O32	O	0.938864	0.388555	0.077902
O33	O	0.571963	0.894824	-0.068204
O34	O	0.710501	0.884030	-0.062102
O35	O	0.792993	0.560169	0.133466
O36	O	0.874546	0.553808	0.054543
O37	O	0.799392	0.716862	-0.037660
O38	O	0.717839	0.723223	0.041263
C39	C	0.746853	0.432240	0.012997
C40	C	0.743948	0.361154	0.015762
C41	C	0.725653	-0.041033	0.033809
C42	C	0.728342	0.025807	0.031157
C43	C	0.772253	0.055908	-0.011373
C44	C	0.813483	0.019159	-0.051245
C45	C	0.810798	-0.047684	-0.048587
C46	C	0.782494	0.257562	-0.021453
C47	C	0.785174	0.324412	-0.024110
C48	C	0.700034	0.331054	0.058294
C49	C	0.697349	0.264213	0.060943
C50	C	0.738582	0.227466	0.021074
C51	C	0.775001	0.124231	-0.014087
C52	C	0.735839	0.159139	0.023794
C53	C	0.537401	0.658676	-0.004752
C54	C	0.463410	0.664442	-0.008011
C55	C	0.467876	0.582040	0.038582
C56	C	0.398350	0.587463	0.035518
C57	C	0.324360	0.675288	-0.014145
C58	C	0.319895	0.757695	-0.060740
C59	C	0.389420	0.752272	-0.057670
C60	C	0.112478	0.695921	-0.025816
C61	C	0.042951	0.701339	-0.028884
C62	C	0.121411	0.531106	0.067376
C63	C	0.190933	0.525690	0.070437
C64	C	0.186463	0.608097	0.023846
C65	C	0.253292	0.680833	-0.017280
C66	C	0.257530	0.602551	0.026986
C67	C	0.973426	0.624703	0.014451
C68	C	1.047417	0.618937	0.017710
C69	C	0.755407	0.641672	-0.215728
C70	C	0.755405	0.641666	-0.290589
C71	C	0.763973	0.851140	-0.003298
C72	C	0.766879	0.922225	-0.006063
C73	C	0.755411	0.641682	-0.427669
C74	C	0.802816	0.538833	-0.398026
C75	C	0.803092	0.538772	-0.475863
C76	C	0.755416	0.641697	-0.562632
C77	C	0.794682	0.688165	-0.560626
C78	C	0.795042	0.687482	-0.482345
C79	C	0.668740	0.698783	-0.488665
C80	C	0.668802	0.696932	-0.565519
C81	C	0.755419	0.641711	-0.638911
C82	C	0.755411	0.641671	-0.351392
C83	C	0.755420	0.641707	0.225426
C84	C	0.755422	0.641713	0.300288
C85	C	0.964866	0.415253	0.022599
C86	C	1.035952	0.338402	0.028622
C87	C	0.746860	0.432257	0.233574
C88	C	0.743957	0.361178	0.311201
C89	C	0.964872	0.415270	0.243176
C90	C	1.035960	0.338426	0.324061
C91	C	0.545955	0.868109	-0.233477
C92	C	0.474866	0.944954	-0.314362
C93	C	0.545961	0.868126	-0.012900
C94	C	0.474875	0.944977	-0.018924
C95	C	0.763967	0.851122	-0.223875
C96	C	0.766870	0.922201	-0.301502
C97	C	1.026763	0.305626	-0.013503
C98	C	1.093549	0.233426	-0.007860
C99	C	1.169525	0.194000	0.039914
C100	C	1.178713	0.226783	0.082040
C101	C	1.111927	0.298985	0.076392
C102	C	0.785166	0.324485	0.392610
C103	C	0.782435	0.257707	0.465555
C104	C	0.738500	0.227620	0.457089
C105	C	0.697286	0.264320	0.375672
C106	C	0.700012	0.331101	0.302728
C107	C	1.111922	0.299017	0.320849
C108	C	1.178724	0.226823	0.396843
C109	C	1.169563	0.194032	0.476048
C110	C	1.093594	0.233448	0.479258
C111	C	1.026793	0.305646	0.403265
C112	C	0.398906	0.984370	-0.311151
C113	C	0.332104	1.056585	-0.387146
C114	C	0.341265	1.089379	-0.466351
C115	C	0.417234	1.049959	-0.469560
C116	C	0.484034	0.977750	-0.393567
C117	C	0.484065	0.977760	0.023194
C118	C	0.417279	1.049978	0.017531
C119	C	0.341303	1.089407	-0.030245
C120	C	0.332115	1.056621	-0.072368
C121	C	0.398900	0.984409	-0.066710
C122	C	0.810813	0.952267	-0.293009
C123	C	0.813556	1.019044	-0.365940
C124	C	0.772352	1.055758	-0.447363
C125	C	0.728407	1.025686	-0.455854
C126	C	0.725669	0.958906	-0.382924
H127	H	0.661593	0.239708	0.095576
H128	H	0.810752	0.148747	-0.048716
F129	F	0.753097	0.785852	-0.513310
H130	H	0.666457	0.360968	0.236444
F131	F	0.885800	0.482003	-0.340305
F132	F	1.121690	0.333906	0.236561
H133	H	1.240575	0.194738	0.394215
F134	F	0.768282	0.490366	-0.346148
F135	F	0.251260	1.098524	-0.383711
H136	H	1.086146	0.206739	0.543757
H137	H	0.385779	0.819372	-0.095601
F138	F	0.251250	1.098592	-0.123211
F139	F	0.389107	0.949522	-0.111536
F140	F	0.945951	0.347576	0.406697
F141	F	0.427074	1.084856	0.062370
F142	F	0.877379	0.637308	-0.557367
F143	F	0.630505	0.652703	-0.564663
F144	F	0.426972	1.084869	-0.553864
H145	H	1.223962	0.135243	0.537921
F146	F	0.389137	0.949480	-0.226862
H147	H	0.964906	0.337726	-0.052416
H148	H	0.816066	0.227649	-0.053918
F149	F	0.831913	0.356445	-0.069376
H150	H	0.193042	0.752340	-0.057715
H151	H	0.820943	0.348974	0.399518
H152	H	0.545922	0.945663	0.062104
H153	H	0.849241	0.043667	-0.085869
H154	H	0.286866	1.148177	-0.528223
H155	H	0.545883	0.945657	-0.396192
H156	H	0.666464	0.360979	0.090753
F157	F	0.336276	0.509085	0.079846
H158	H	0.286929	1.148207	-0.034846
F159	F	0.854673	0.913204	-0.206359
F160	F	0.678890	0.926922	-0.391977
H161	H	0.849340	1.043521	-0.359010
F162	F	0.768398	0.490707	-0.473681
F163	F	0.775272	1.126834	-0.524976
F164	F	0.650529	0.232289	0.366676
H165	H	0.689892	-0.065532	0.068436
F166	F	0.684470	0.064901	0.073601
H167	H	0.694860	1.055589	-0.522159
H168	H	0.844370	-0.077601	-0.081054
H169	H	0.700090	0.134625	0.058424
H170	H	0.761968	0.763671	-0.621824
H171	H	0.528118	0.510524	0.079027
H172	H	0.816000	0.227833	0.531841
F173	F	0.878513	0.635510	-0.429209
H174	H	0.259646	0.829204	-0.101171
H175	H	1.086053	0.206744	-0.042165
F176	F	0.403109	0.499759	0.085117
F177	F	1.240598	0.117154	0.045919
F178	F	1.259578	0.184810	0.132885
H179	H	1.119421	0.325662	0.110701
H180	H	0.251176	0.454173	0.110862
F181	F	0.735606	0.156544	0.534731
H182	H	0.125041	0.464014	0.105308
H183	H	0.630219	0.772301	-0.627583
F184	F	-0.035798	0.794818	-0.081751
F185	F	0.622300	0.797875	-0.520594
F186	F	0.886579	0.481720	-0.467964
H187	H	0.636293	0.669350	-0.452384
F188	F	0.107711	0.783628	-0.075405
