data_functionalizedCrystal
_audit_creation_method	'MofGen! by Chris Wilmer'
_symmetry_space_group_name_H-M	'P1'
_symmetry_Int_Tables_number	1
_symmetry_cell_setting	triclinic
loop_
_symmetry_equiv_pos_as_xyz
  x,y,z
_cell_length_a	10.967874
_cell_length_b	11.026607
_cell_length_c	17.766277
_cell_angle_alpha	89.996915
_cell_angle_beta	77.861958
_cell_angle_gamma	96.380181
loop_
_atom_site_label
_atom_site_type_symbol
_atom_site_fract_x
_atom_site_fract_y
_atom_site_fract_z
O1	O	1.694059	0.170535	-0.282327
O2	O	2.194059	0.670535	0.217673
O3	O	1.334418	0.186855	-0.235679
O4	O	1.834418	0.686855	0.264321
O5	O	1.484432	0.001794	-0.255134
O6	O	1.984432	0.501794	0.244866
O7	O	1.544045	0.355596	-0.262872
O8	O	2.044045	0.855596	0.237128
O9	O	1.484396	0.001784	-0.129941
O10	O	1.984396	0.501784	0.370059
O11	O	1.334382	0.186845	-0.110486
O12	O	1.834382	0.686845	0.389514
O13	O	1.694024	0.170525	-0.157133
O14	O	2.194024	0.670525	0.342867
Cu15	Cu	1.514200	0.178684	-0.122379
Cu16	Cu	2.014200	0.678684	0.377621
Cu17	Cu	1.514242	0.178696	-0.270434
Cu18	Cu	2.014242	0.678696	0.229566
O19	O	1.544010	0.355587	-0.137679
O20	O	2.044010	0.855587	0.362321
C21	C	1.287642	0.185662	-0.167018
C22	C	1.787642	0.685662	0.332982
C23	C	1.148317	0.182107	-0.148947
C24	C	1.648317	0.682107	0.351053
C25	C	1.086219	0.180527	-0.205744
C26	C	1.586219	0.680527	0.294256
C27	C	0.942219	0.176853	-0.187068
C28	C	1.442219	0.676853	0.312932
C29	C	1.473416	-0.043514	-0.191112
C30	C	1.973416	0.456486	0.308888
C31	C	1.440632	-0.178501	-0.186862
C32	C	1.940632	0.321499	0.313138
C33	C	1.531155	-0.251552	-0.198605
C34	C	2.031155	0.248448	0.301395
C35	C	1.497273	-0.391069	-0.194213
C36	C	1.997273	0.108931	0.305787
C37	C	1.740799	0.171718	-0.225796
C38	C	2.240799	0.671718	0.274204
C39	C	1.880125	0.175273	-0.243873
C40	C	2.380125	0.675273	0.256127
C41	C	1.555025	0.400894	-0.201702
C42	C	2.055025	0.900894	0.298298
C43	C	1.587809	0.535881	-0.205957
C44	C	2.087809	1.035881	0.294043
N45	N	1.514179	0.178675	-0.018246
N46	N	2.014179	0.678675	0.481754
N47	N	1.514271	0.178695	-0.374568
N48	N	2.014271	0.678695	0.125432
C49	C	1.580641	0.096771	0.012522
C50	C	2.080641	0.596771	0.512522
C51	C	1.580647	0.096766	0.091323
C52	C	2.080647	0.596766	0.591323
C53	C	1.514207	0.178685	0.139351
C54	C	2.014207	0.678685	0.639351
C55	C	1.447730	0.260596	0.108576
C56	C	1.947730	0.760596	0.608576
C57	C	1.447715	0.260591	0.029778
C58	C	1.947715	0.760591	0.529778
C59	C	1.522699	0.289275	0.263086
C60	C	2.022699	0.789275	0.763086
C61	C	1.522723	0.289282	0.341882
C62	C	2.022723	0.789282	0.841882
C63	C	1.514244	0.178700	0.382393
C64	C	2.014244	0.678700	0.882393
C65	C	1.505767	0.068107	0.344095
C66	C	2.005767	0.568107	0.844095
C67	C	1.505753	0.068102	0.265297
C68	C	2.005753	0.568102	0.765297
C69	C	1.514215	0.178699	0.224796
C70	C	2.014215	0.678699	0.724796
C71	C	1.580716	0.096783	0.498605
C72	C	2.080716	0.596783	0.998605
C73	C	1.580713	0.096776	0.577409
C74	C	2.080713	0.596776	1.077409
C75	C	1.447804	0.260617	0.594659
C76	C	1.947804	0.760617	1.094659
C77	C	1.447799	0.260613	0.515858
C78	C	1.947799	0.760613	1.015858
C79	C	1.514262	0.178698	0.467835
C80	C	2.014262	0.678698	0.967835
H81	H	1.633739	-0.210806	-0.211906
H82	H	2.133739	0.289194	0.288094
H83	H	0.888780	0.175492	-0.124611
H84	H	1.388780	0.675492	0.375389
H85	H	1.094873	0.180746	-0.086494
H86	H	1.594873	0.680746	0.413506
H87	H	1.394683	-0.431810	-0.180911
H88	H	1.894683	0.068190	0.319089
H89	H	1.690400	-0.423380	-0.219320
H90	H	2.190400	0.076620	0.280680
H91	H	1.139664	0.181901	-0.268196
H92	H	1.639664	0.681901	0.231804
H93	H	1.338048	-0.219247	-0.173562
H94	H	1.838048	0.280753	0.326438
C95	C	1.653812	0.006664	0.445779
C96	C	2.153812	0.506664	0.945779
N97	N	1.708866	-0.061216	0.405992
N98	N	2.208866	0.438784	0.905992
H99	H	1.634756	0.030068	-0.026576
H100	H	2.134756	0.530068	0.473424
C101	C	1.496412	-0.053547	0.223174
C102	C	1.996412	0.446453	0.723174
N103	N	1.489369	-0.145176	0.191449
N104	N	1.989369	0.354824	0.691449
C105	C	1.653780	0.006673	0.125173
C106	C	2.153780	0.506673	0.625173
N107	N	1.708869	-0.061180	0.150666
N108	N	2.208869	0.438820	0.650666
C109	C	0.952312	0.177120	-0.328250
C110	C	1.452312	0.677120	0.171750
N111	N	1.006684	0.178510	-0.391802
N112	N	1.506684	0.678510	0.108198
H113	H	1.498862	-0.021939	0.377077
H114	H	1.998862	0.478061	0.877077
H115	H	1.634830	0.030073	0.602460
H116	H	2.134830	0.530073	1.102460
C117	C	1.532028	0.410932	0.218532
C118	C	2.032028	0.910932	0.718532
N119	N	1.539054	0.502561	0.184974
N120	N	2.039054	1.002561	0.684974
H121	H	1.393701	0.327313	0.633764
H122	H	1.893701	0.827313	1.133764
C123	C	1.374793	0.350805	0.481999
C124	C	1.874793	0.850805	0.981999
N125	N	1.319836	0.418768	0.456492
N126	N	1.819836	0.918768	0.956492
H127	H	1.529633	0.379333	0.373057
H128	H	2.029633	0.879333	0.873057
C129	C	1.374639	0.350702	0.161410
C130	C	1.874639	0.850702	0.661410
N131	N	1.319579	0.418569	0.201205
N132	N	1.819579	0.918569	0.701205
C133	C	1.374664	0.350749	-0.004075
C134	C	1.874664	0.850749	0.495925
N135	N	1.319666	0.418678	-0.029578
N136	N	1.819666	0.918678	0.470422
