data_functionalizedCrystal
_audit_creation_method	'MofGen! by Chris Wilmer'
_symmetry_space_group_name_H-M	'P1'
_symmetry_Int_Tables_number	1
_symmetry_cell_setting	triclinic
loop_
_symmetry_equiv_pos_as_xyz
  x,y,z
_cell_length_a	17.699083
_cell_length_b	16.109301
_cell_length_c	14.586319
_cell_angle_alpha	89.998390
_cell_angle_beta	90.000185
_cell_angle_gamma	83.372248
loop_
_atom_site_label
_atom_site_type_symbol
_atom_site_fract_x
_atom_site_fract_y
_atom_site_fract_z
O1	O	-1.004228	-0.105132	0.076115
O2	O	-0.754228	0.144868	0.326115
O3	O	-0.504228	0.394868	0.576115
O4	O	-0.254228	0.644868	0.826115
O5	O	-0.783869	-0.118811	0.076145
O6	O	-0.533869	0.131189	0.326145
O7	O	-0.283869	0.381189	0.576145
O8	O	-0.033869	0.631189	0.826145
O9	O	-0.900102	0.009070	0.076120
O10	O	-0.650102	0.259070	0.326120
O11	O	-0.400102	0.509070	0.576120
O12	O	-0.150102	0.759070	0.826120
O13	O	-0.887995	-0.233013	0.076140
O14	O	-0.637995	0.016987	0.326140
O15	O	-0.387995	0.266987	0.576140
O16	O	-0.137995	0.516987	0.826140
O17	O	-0.900088	0.009063	-0.076361
O18	O	-0.650088	0.259063	0.173639
O19	O	-0.400088	0.509063	0.423639
O20	O	-0.150088	0.759063	0.673639
O21	O	-0.783855	-0.118818	-0.076336
O22	O	-0.533855	0.131182	0.173664
O23	O	-0.283855	0.381182	0.423664
O24	O	-0.033855	0.631182	0.673664
O25	O	-1.004214	-0.105139	-0.076366
O26	O	-0.754214	0.144861	0.173634
O27	O	-0.504214	0.394861	0.423634
O28	O	-0.254214	0.644861	0.673634
Cu29	Cu	-0.894033	-0.111979	-0.090274
Cu30	Cu	-0.644033	0.138021	0.159726
Cu31	Cu	-0.394033	0.388021	0.409726
Cu32	Cu	-0.144033	0.638021	0.659726
Cu33	Cu	-0.894050	-0.111971	0.090053
Cu34	Cu	-0.644050	0.138029	0.340053
Cu35	Cu	-0.394050	0.388029	0.590053
Cu36	Cu	-0.144050	0.638029	0.840053
O37	O	-0.887981	-0.233020	-0.076341
O38	O	-0.637981	0.016980	0.173659
O39	O	-0.387981	0.266980	0.423659
O40	O	-0.137981	0.516980	0.673659
C41	C	-0.755664	-0.118324	-0.000091
C42	C	-0.505664	0.131676	0.249909
C43	C	-0.255664	0.381676	0.499909
C44	C	-0.005664	0.631676	0.749909
C45	C	-0.671644	-0.116854	-0.000080
C46	C	-0.421644	0.133146	0.249920
C47	C	-0.171644	0.383146	0.499920
C48	C	0.078356	0.633146	0.749920
C49	C	-0.899604	0.040040	-0.000121
C50	C	-0.649604	0.290040	0.249879
C51	C	-0.399604	0.540040	0.499879
C52	C	-0.149604	0.790040	0.749879
C53	C	-0.898134	0.132333	-0.000122
C54	C	-0.648134	0.382333	0.249878
C55	C	-0.398134	0.632333	0.499878
C56	C	-0.148134	0.882333	0.749878
C57	C	-1.032419	-0.105626	-0.000127
C58	C	-0.782419	0.144374	0.249873
C59	C	-0.532419	0.394374	0.499873
C60	C	-0.282419	0.644374	0.749873
C61	C	-1.116439	-0.107096	-0.000133
C62	C	-0.866439	0.142904	0.249867
C63	C	-0.616439	0.392904	0.499867
C64	C	-0.366439	0.642904	0.749867
C65	C	-0.623130	-0.191917	-0.000074
C66	C	-0.373130	0.058083	0.249926
C67	C	-0.123130	0.308083	0.499926
C68	C	0.126870	0.558083	0.749926
C69	C	-0.544185	-0.190531	-0.000086
C70	C	-0.294185	0.059469	0.249914
C71	C	-0.044185	0.309469	0.499914
C72	C	0.205815	0.559469	0.749914
C73	C	-0.513755	-0.114080	-0.000098
C74	C	-0.263755	0.135920	0.249902
C75	C	-0.013755	0.385920	0.499902
C76	C	0.236245	0.635920	0.749902
C77	C	-0.562275	-0.039011	-0.000106
C78	C	-0.312275	0.210989	0.249894
C79	C	-0.062275	0.460989	0.499894
C80	C	0.187725	0.710989	0.749894
C81	C	-0.641219	-0.040398	-0.000101
C82	C	-0.391219	0.209602	0.249899
C83	C	-0.141219	0.459602	0.499899
C84	C	0.108781	0.709602	0.749899
C85	C	-0.243904	-0.033414	-0.000130
C86	C	0.006096	0.216586	0.249870
C87	C	0.256096	0.466586	0.499870
C88	C	0.506096	0.716586	0.749870
C89	C	-0.164954	-0.032032	-0.000132
C90	C	0.085046	0.217968	0.249868
C91	C	0.335046	0.467968	0.499868
C92	C	0.585046	0.717968	0.749868
C93	C	-0.146870	-0.183546	-0.000115
C94	C	0.103130	0.066454	0.249885
C95	C	0.353130	0.316454	0.499885
C96	C	0.603130	0.566454	0.749885
C97	C	-0.225814	-0.184934	-0.000109
C98	C	0.024186	0.065066	0.249891
C99	C	0.274186	0.315066	0.499891
C100	C	0.524186	0.565066	0.749891
C101	C	-0.274327	-0.109865	-0.000123
C102	C	-0.024327	0.140135	0.249877
C103	C	0.225673	0.390135	0.499877
C104	C	0.475673	0.640135	0.749877
C105	C	-0.359928	-0.111369	-0.000112
C106	C	-0.109928	0.138631	0.249888
C107	C	0.140072	0.388631	0.499888
C108	C	0.390072	0.638631	0.749888
C109	C	-0.428155	-0.112575	-0.000102
C110	C	-0.178155	0.137425	0.249898
C111	C	0.071845	0.387425	0.499898
C112	C	0.321845	0.637425	0.749898
C113	C	-0.888478	-0.263990	-0.000098
C114	C	-0.638478	-0.013990	0.249902
C115	C	-0.388478	0.236010	0.499902
C116	C	-0.138478	0.486010	0.749902
C117	C	-0.889949	-0.356283	-0.000091
C118	C	-0.639949	-0.106283	0.249909
C119	C	-0.389949	0.143717	0.499909
C120	C	-0.139949	0.393717	0.749909
N121	N	-0.894027	-0.111985	-0.217105
N122	N	-0.644027	0.138015	0.032895
N123	N	-0.394027	0.388015	0.282895
N124	N	-0.144027	0.638015	0.532895
C125	C	-0.963686	0.354719	-0.000117
C126	C	-0.713686	0.604719	0.249883
C127	C	-0.463686	0.854719	0.499883
C128	C	-0.213686	1.104719	0.749883
C129	C	-0.962298	0.441437	-0.000109
C130	C	-0.712298	0.691437	0.249891
C131	C	-0.462298	0.941437	0.499891
C132	C	-0.212298	1.191437	0.749891
C133	C	-0.824392	0.421325	-0.000093
C134	C	-0.574392	0.671325	0.249907
C135	C	-0.324392	0.921325	0.499907
C136	C	-0.074392	1.171325	0.749907
C137	C	-0.825780	0.334608	-0.000095
C138	C	-0.575780	0.584608	0.249905
C139	C	-0.325780	0.834608	0.499905
C140	C	-0.075780	1.084608	0.749905
C141	C	-0.895429	0.301308	-0.000111
C142	C	-0.645429	0.551308	0.249889
C143	C	-0.395429	0.801308	0.499889
C144	C	-0.145429	1.051308	0.749889
C145	C	-0.892654	0.474742	-0.000102
C146	C	-0.642654	0.724742	0.249898
C147	C	-0.392654	0.974742	0.499898
C148	C	-0.142654	1.224742	0.749898
C149	C	-0.891149	0.568766	-0.000094
C150	C	-0.641149	0.818766	0.249906
C151	C	-0.391149	1.068766	0.499906
C152	C	-0.141149	1.318766	0.749906
C153	C	-0.896934	0.207278	-0.000118
C154	C	-0.646934	0.457278	0.249882
C155	C	-0.396934	0.707278	0.499882
C156	C	-0.146934	0.957278	0.749882
C157	C	-0.939929	-0.162335	-0.452114
C158	C	-0.689929	0.087665	-0.202114
C159	C	-0.439929	0.337665	0.047886
C160	C	-0.189929	0.587665	0.297886
C161	C	-0.939937	-0.162329	-0.548095
C162	C	-0.689937	0.087671	-0.298095
C163	C	-0.439937	0.337671	-0.048095
C164	C	-0.189937	0.587671	0.201905
C165	C	-0.848158	-0.061603	-0.548100
C166	C	-0.598158	0.188397	-0.298100
C167	C	-0.348158	0.438397	-0.048100
C168	C	-0.098158	0.688397	0.201900
C169	C	-0.848155	-0.061605	-0.452121
C170	C	-0.598155	0.188395	-0.202121
C171	C	-0.348155	0.438395	0.047879
C172	C	-0.098155	0.688395	0.297879
C173	C	-0.894039	-0.111976	-0.404130
C174	C	-0.644039	0.138024	-0.154130
C175	C	-0.394039	0.388024	0.095870
C176	C	-0.144039	0.638024	0.345870
C177	C	-0.894050	-0.111968	-0.596091
C178	C	-0.644050	0.138032	-0.346091
C179	C	-0.394050	0.388032	-0.096091
C180	C	-0.144050	0.638032	0.153909
C181	C	-0.894058	-0.111961	-0.700158
C182	C	-0.644058	0.138039	-0.450158
C183	C	-0.394058	0.388039	-0.200158
C184	C	-0.144058	0.638039	0.049842
C185	C	-0.894032	-0.111981	-0.300056
C186	C	-0.644032	0.138019	-0.050056
C187	C	-0.394032	0.388019	0.199944
C188	C	-0.144032	0.638019	0.449944
N189	N	-0.894062	-0.111958	0.216884
N190	N	-0.644062	0.138042	0.466884
N191	N	-0.394062	0.388042	0.716884
N192	N	-0.144062	0.638042	0.966884
H193	H	-0.647900	-0.254172	-0.000064
H194	H	-0.397900	-0.004172	0.249936
H195	H	-0.147900	0.245828	0.499936
H196	H	0.102100	0.495828	0.749936
Cl197	Cl	-0.264064	-0.281047	-0.000090
Cl198	Cl	-0.014064	-0.031047	0.249910
Cl199	Cl	0.235936	0.218953	0.499910
Cl200	Cl	0.485936	0.468953	0.749910
H201	H	-0.810800	-0.020594	-0.587186
H202	H	-0.560800	0.229406	-0.337186
H203	H	-0.310800	0.479406	-0.087186
H204	H	-0.060800	0.729406	0.162814
H205	H	-0.680719	0.020726	-0.000105
H206	H	-0.430719	0.270726	0.249895
H207	H	-0.180719	0.520726	0.499895
H208	H	0.069281	0.770726	0.749895
H209	H	-0.504688	-0.251655	-0.000080
H210	H	-0.254688	-0.001655	0.249920
H211	H	-0.004688	0.248345	0.499920
H212	H	0.245312	0.498345	0.749920
H213	H	-0.107361	-0.244671	-0.000109
H214	H	0.142639	0.005329	0.249891
H215	H	0.392639	0.255329	0.499891
H216	H	0.642639	0.505329	0.749891
H217	H	-1.020398	0.327608	-0.000128
H218	H	-0.770398	0.577608	0.249872
H219	H	-0.520398	0.827608	0.499872
H220	H	-0.270398	1.077608	0.749872
Cl221	Cl	-0.997617	-0.225651	-0.391786
Cl222	Cl	-0.747617	0.024349	-0.141786
Cl223	Cl	-0.497617	0.274349	0.108214
Cl224	Cl	-0.247617	0.524349	0.358214
Cl225	Cl	-0.739965	0.267458	-0.000079
Cl226	Cl	-0.489965	0.517458	0.249921
Cl227	Cl	-0.239965	0.767458	0.499921
Cl228	Cl	0.010035	1.017458	0.749921
Cl229	Cl	-0.997631	-0.225640	-0.608414
Cl230	Cl	-0.747631	0.024360	-0.358414
Cl231	Cl	-0.497631	0.274360	-0.108414
Cl232	Cl	-0.247631	0.524360	0.141586
H233	H	-0.140182	0.030227	-0.000143
H234	H	0.109818	0.280227	0.249857
H235	H	0.359818	0.530227	0.499857
H236	H	0.609818	0.780227	0.749857
Cl237	Cl	-1.048111	0.508578	-0.000114
Cl238	Cl	-0.798111	0.758578	0.249886
Cl239	Cl	-0.548111	1.008578	0.499886
Cl240	Cl	-0.298111	1.258578	0.749886
H241	H	-0.767686	0.448449	-0.000082
H242	H	-0.517686	0.698449	0.249918
H243	H	-0.267686	0.948449	0.499918
H244	H	-0.017686	1.198449	0.749918
H245	H	-0.810785	-0.020592	-0.413051
H246	H	-0.560785	0.229408	-0.163051
H247	H	-0.310785	0.479408	0.086949
H248	H	-0.060785	0.729408	0.336949
H249	H	-0.283394	0.027712	-0.000141
H250	H	-0.033394	0.277712	0.249859
H251	H	0.216606	0.527712	0.499859
H252	H	0.466606	0.777712	0.749859
Cl253	Cl	-0.524020	0.057100	-0.000127
Cl254	Cl	-0.274020	0.307100	0.249873
Cl255	Cl	-0.024020	0.557100	0.499873
Cl256	Cl	0.225980	0.807100	0.749873
