data_functionalizedCrystal
_audit_creation_method	'MofGen! by Chris Wilmer'
_symmetry_space_group_name_H-M	'P1'
_symmetry_Int_Tables_number	1
_symmetry_cell_setting	triclinic
loop_
_symmetry_equiv_pos_as_xyz
  x,y,z
_cell_length_a	9.065215
_cell_length_b	22.010155
_cell_length_c	9.065218
_cell_angle_alpha	89.990747
_cell_angle_beta	94.984675
_cell_angle_gamma	89.991674
loop_
_atom_site_label
_atom_site_type_symbol
_atom_site_fract_x
_atom_site_fract_y
_atom_site_fract_z
O1	O	-1.960377	-0.050512	0.216354
O2	O	-1.531091	-0.050516	0.234104
O3	O	-1.754607	-0.050513	0.010586
O4	O	-1.736861	-0.050515	0.439871
O5	O	-1.754642	0.050538	0.010547
O6	O	-1.531126	0.050535	0.234065
O7	O	-1.960411	0.050538	0.216314
Cu8	Cu	-1.745772	0.059763	0.225186
Cu9	Cu	-1.745731	-0.059741	0.225232
O10	O	-1.736895	0.050535	0.439832
C11	C	-1.476122	0.000009	0.232380
C12	C	-1.312279	0.000008	0.227282
N13	N	-1.745703	-0.143793	0.225254
C14	C	-1.844958	-0.563571	0.126435
C15	C	-1.844969	-0.627179	0.126429
O16	O	-1.929340	-0.660069	0.042466
N17	N	-1.745803	-0.659000	0.225188
C18	C	-1.646630	-0.627211	0.323969
O19	O	-1.562284	-0.660118	0.407972
C20	C	-1.646628	-0.563604	0.323982
C21	C	-1.745790	-0.531786	0.225206
C22	C	-1.944114	-0.531753	0.027669
C23	C	-1.944101	-0.468150	0.027673
C24	C	-1.844933	-0.436365	0.126445
C25	C	-1.745778	-0.468183	0.225211
C26	C	-1.547464	-0.531816	0.422770
C27	C	-1.547471	-0.468205	0.422774
C28	C	-1.646633	-0.436387	0.323999
C29	C	-1.646597	-0.372795	0.323987
N30	N	-1.745763	-0.340973	0.225228
C31	C	-1.844931	-0.372758	0.126457
C32	C	-1.646644	-0.760789	0.323938
C33	C	-1.646638	-0.824394	0.323919
C34	C	-1.844979	-0.824358	0.126380
C35	C	-1.844977	-0.760751	0.126392
C36	C	-1.745810	-0.728967	0.225179
C37	C	-1.844896	-0.239187	0.126474
C38	C	-1.844871	-0.175578	0.126483
C39	C	-1.646536	-0.175620	0.324027
C40	C	-1.646555	-0.239223	0.324013
C41	C	-1.745748	-0.271005	0.225231
O42	O	-1.562273	-0.339864	0.407911
O43	O	-1.929277	-0.339843	0.042482
C44	C	-1.015381	0.000011	0.218039
C45	C	-1.179224	0.000008	0.223136
C46	C	-1.752919	0.000011	-0.044420
C47	C	-1.747819	0.000009	-0.208263
N48	N	-1.745812	0.143816	0.225153
C49	C	-1.738584	0.000010	0.494838
C50	C	-1.743683	0.000008	0.658681
H51	H	-1.925670	-0.265057	0.046038
C52	C	-2.053228	-0.566710	-0.080964
H53	H	-2.039060	-0.609151	-0.066831
H54	H	-2.036100	-0.556277	-0.179717
H55	H	-2.151858	-0.556272	-0.063341
H56	H	-1.466718	-0.557713	0.503202
H57	H	-1.565790	-0.149731	0.404441
H58	H	-1.466719	-0.442330	0.503223
H59	H	-1.565794	-0.265130	0.404430
H60	H	-1.925729	-0.850249	0.045957
H61	H	-1.925621	-0.149674	0.046043
H62	H	-2.024852	-0.442247	-0.052754
C63	C	-1.954062	-0.725757	0.017749
H64	H	-2.013122	-0.753802	-0.041068
H65	H	-1.900300	-0.700939	-0.044525
H66	H	-2.016089	-0.700948	0.071822
C67	C	-1.537550	-0.859387	0.432563
H68	H	-1.478500	-0.831342	0.491390
H69	H	-1.475534	-0.884202	0.378508
H70	H	-1.591330	-0.884198	0.494848
H71	H	-1.565878	-0.734913	0.404378
