data_functionalizedCrystal
_audit_creation_method	'MofGen! by Chris Wilmer'
_symmetry_space_group_name_H-M	'P1'
_symmetry_Int_Tables_number	1
_symmetry_cell_setting	triclinic
loop_
_symmetry_equiv_pos_as_xyz
  x,y,z
_cell_length_a	19.288840
_cell_length_b	9.065215
_cell_length_c	17.766277
_cell_angle_alpha	89.994669
_cell_angle_beta	89.983415
_cell_angle_gamma	84.070357
loop_
_atom_site_label
_atom_site_type_symbol
_atom_site_fract_x
_atom_site_fract_y
_atom_site_fract_z
O1	O	0.922791	0.183856	-0.062719
O2	O	0.720721	0.208720	-0.062692
O3	O	0.825933	-0.018502	-0.062703
O4	O	0.817578	0.411077	-0.062708
O5	O	0.825915	-0.018514	0.062486
O6	O	0.720702	0.208708	0.062496
O7	O	0.922772	0.183844	0.062470
Cu8	Cu	0.821735	0.196275	0.073914
Cu9	Cu	0.821757	0.196289	-0.074136
O10	O	0.817559	0.411066	0.062480
C11	C	0.694828	0.207920	-0.000095
C12	C	0.617705	0.205537	-0.000085
C13	C	0.581503	0.204398	-0.068327
C14	C	0.509039	0.202143	-0.068336
C15	C	0.472781	0.200996	-0.000099
C16	C	0.508991	0.202143	0.068152
C17	C	0.581453	0.204414	0.068159
C18	C	0.362747	0.110986	0.052170
C19	C	0.290287	0.108706	0.052160
C20	C	0.249283	0.194000	-0.000119
C21	C	0.280750	0.281554	-0.052400
C22	C	0.353212	0.283824	-0.052393
C23	C	0.394208	0.198535	-0.000099
C24	C	0.134506	0.190418	-0.068376
C25	C	0.062040	0.188171	-0.068382
C26	C	0.061995	0.188157	0.068108
C27	C	0.134459	0.190418	0.068112
C28	C	0.170711	0.191541	-0.000131
C29	C	0.825122	-0.073466	-0.000109
C30	C	0.822722	-0.237225	-0.000111
C31	C	0.948664	0.184644	-0.000129
C32	C	1.025787	0.187027	-0.000144
C33	C	0.818371	0.466030	-0.000115
C34	C	0.820771	0.629789	-0.000118
N35	N	0.821725	0.196265	0.178044
N36	N	0.821773	0.196287	-0.178267
C37	C	0.868328	0.095700	0.217426
C38	C	0.868332	0.095693	0.296228
C39	C	0.821739	0.196276	0.335645
C40	C	0.775127	0.296849	0.296253
C41	C	0.775119	0.296843	0.217453
C42	C	0.813483	0.330694	0.460482
C43	C	0.813496	0.330701	0.539280
C44	C	0.821758	0.196294	0.578691
C45	C	0.830023	0.061873	0.539293
C46	C	0.830015	0.061867	0.460493
C47	C	0.821742	0.196293	0.421090
C48	C	0.868369	0.095714	0.703519
C49	C	0.868368	0.095705	0.782322
C50	C	0.775165	0.296873	0.782346
C51	C	0.775163	0.296869	0.703544
C52	C	0.821768	0.196291	0.664135
H53	H	0.032474	0.187232	0.123668
H54	H	0.264673	0.037407	0.094728
H55	H	0.163936	0.191335	0.123683
H56	H	0.737216	0.378764	0.671477
H57	H	0.906316	0.013812	0.671431
O58	O	0.913619	-0.002152	0.179263
C59	C	0.954766	-0.090891	0.230928
H60	H	0.926286	-0.092389	0.287112
H61	H	0.964622	-0.208770	0.208167
H62	H	1.006661	-0.043275	0.239281
H63	H	0.906284	0.013798	0.328299
H64	H	0.806770	0.440155	0.571352
O65	O	0.473799	0.200829	-0.134583
C66	C	0.438977	0.071756	-0.138669
H67	H	0.430461	0.028836	-0.079417
H68	H	0.386440	0.098880	-0.167558
H69	H	0.471871	-0.016819	-0.172338
H70	H	0.378829	0.355117	-0.094961
H71	H	0.610929	0.205342	0.123732
O72	O	0.026938	0.187265	-0.134725
C73	C	0.037574	0.315568	-0.176239
H74	H	0.087821	0.359801	-0.156831
H75	H	0.041668	0.286908	-0.238666
H76	H	-0.008165	0.403743	-0.166790
H77	H	0.247365	0.351014	-0.094969
O78	O	0.402475	0.027978	0.102985
C79	C	0.359166	-0.049770	0.149131
H80	H	0.308099	-0.061810	0.118568
H81	H	0.386482	-0.164417	0.162327
H82	H	0.347895	0.014043	0.203813
O83	O	0.805488	0.461402	0.422319
C84	C	0.798190	0.580040	0.473987
H85	H	0.822368	0.541921	0.530153
H86	H	0.825788	0.676010	0.451203
H87	H	0.740513	0.618124	0.482383
O88	O	0.729837	0.394354	0.334622
C89	C	0.686490	0.315587	0.380216
H90	H	0.713433	0.199995	0.392017
H91	H	0.675895	0.377228	0.435629
H92	H	0.635093	0.305845	0.349872
O93	O	0.473862	0.200829	0.134485
C94	C	0.498620	0.073626	0.175996
H95	H	0.553598	0.032694	0.156598
H96	H	0.499485	0.102428	0.238426
H97	H	0.462796	-0.017102	0.166533
O98	O	0.169769	0.191267	-0.134646
C99	C	0.218770	0.064859	-0.138723
H100	H	0.201865	-0.025114	-0.100001
H101	H	0.221984	0.022022	-0.199081
H102	H	0.272084	0.095451	-0.120386
H103	H	0.836743	-0.047583	0.428418
O104	O	0.837926	-0.068677	0.577594
C105	C	0.778907	-0.080249	0.623212
H106	H	0.732611	-0.006440	0.599483
H107	H	0.766237	-0.200315	0.624110
H108	H	0.790148	-0.043351	0.682929
O109	O	0.913709	-0.002043	0.820464
C110	C	0.954829	-0.090832	0.768779
H111	H	0.955984	-0.030352	0.712604
H112	H	1.010156	-0.113630	0.791527
H113	H	0.931599	-0.200307	0.760415
H114	H	0.737168	0.378736	0.185387
H115	H	0.737226	0.378764	0.814438
H116	H	0.611015	0.205313	-0.123896
