data_functionalizedCrystal
_audit_creation_method	'MofGen! by Chris Wilmer'
_symmetry_space_group_name_H-M	'P1'
_symmetry_Int_Tables_number	1
_symmetry_cell_setting	triclinic
loop_
_symmetry_equiv_pos_as_xyz
  x,y,z
_cell_length_a	12.759401
_cell_length_b	16.120444
_cell_length_c	12.759393
_cell_angle_alpha	92.863572
_cell_angle_beta	89.981425
_cell_angle_gamma	92.926867
loop_
_atom_site_label
_atom_site_type_symbol
_atom_site_fract_x
_atom_site_fract_y
_atom_site_fract_z
Zn1	Zn	1.584964	-0.331848	-0.615154
Zn2	Zn	1.918297	0.001485	-0.281821
Zn3	Zn	2.251631	0.334819	0.051513
Zn4	Zn	1.575912	-0.471287	-0.448369
Zn5	Zn	1.909246	-0.137953	-0.115036
Zn6	Zn	2.242579	0.195380	0.218297
Zn7	Zn	1.409263	-0.331893	-0.439496
Zn8	Zn	1.742597	0.001441	-0.106163
Zn9	Zn	2.075930	0.334774	0.227171
Zn10	Zn	1.400313	-0.471223	-0.624006
Zn11	Zn	1.733646	-0.137890	-0.290673
Zn12	Zn	2.066979	0.195444	0.042660
O13	O	1.492613	-0.401563	-0.531756
O14	O	1.825947	-0.068229	-0.198423
O15	O	2.159280	0.265104	0.134910
O16	O	1.730784	-0.350353	-0.593039
O17	O	2.064117	-0.017020	-0.259705
O18	O	2.397451	0.316314	0.073628
O19	O	1.553764	-0.452841	-0.300174
O20	O	1.887097	-0.119508	0.033159
O21	O	2.220431	0.213826	0.366493
O22	O	1.440105	-0.215221	-0.455379
O23	O	1.773438	0.118112	-0.122046
O24	O	2.106771	0.451446	0.211287
O25	O	1.724134	-0.452798	-0.470503
O26	O	2.057467	-0.119464	-0.137169
O27	O	2.390800	0.213869	0.196164
O28	O	1.569191	-0.215188	-0.584434
O29	O	1.902524	0.118145	-0.251101
O30	O	2.235858	0.451478	0.082232
O31	O	1.431327	-0.350429	-0.293655
O32	O	1.764661	-0.017095	0.039679
O33	O	2.097994	0.316238	0.373012
O34	O	1.261056	-0.350367	-0.463963
O35	O	1.594389	-0.017034	-0.130630
O36	O	1.927722	0.316300	0.202704
O37	O	1.424849	-0.452689	-0.769850
O38	O	1.758183	-0.119356	-0.436517
O39	O	2.091516	0.213977	-0.103184
O40	O	1.254480	-0.452732	-0.599522
O41	O	1.587813	-0.119399	-0.266189
O42	O	1.921146	0.213934	0.067145
O43	O	1.560512	-0.350291	-0.763347
O44	O	1.893845	-0.016958	-0.430013
O45	O	2.227179	0.316375	-0.096680
O46	O	1.545085	-0.587944	-0.479086
O47	O	1.878418	-0.254610	-0.145753
O48	O	2.211751	0.078723	0.187580
O49	O	1.416072	-0.587897	-0.608126
O50	O	1.749406	-0.254564	-0.274793
O51	O	2.082739	0.078770	0.058541
C52	C	1.219647	-0.401548	-0.531741
C53	C	1.552980	-0.068215	-0.198407
C54	C	1.886313	0.265119	0.134926
C55	C	1.102869	-0.401562	-0.531760
C56	C	1.436203	-0.068229	-0.198427
C57	C	1.769536	0.265105	0.134906
C58	C	1.051464	-0.348315	-0.595674
C59	C	1.384798	-0.014982	-0.262341
C60	C	1.718131	0.318351	0.070992
C61	C	0.941740	-0.348324	-0.595682
C62	C	1.275073	-0.014991	-0.262349
C63	C	1.608407	0.318343	0.070985
C64	C	0.934834	-0.454833	-0.467858
C65	C	1.268167	-0.121500	-0.134525
C66	C	1.601501	0.211834	0.198808
C67	C	1.044557	-0.454820	-0.467846
C68	C	1.377890	-0.121486	-0.134513
C69	C	1.711224	0.211847	0.198821
C70	C	1.478654	-0.618171	-0.545552
C71	C	1.811987	-0.284837	-0.212219
C72	C	2.145320	0.048496	0.121114
C73	C	1.472778	-0.710836	-0.551490
C74	C	1.806111	-0.377503	-0.218156
C75	C	2.139444	-0.044170	0.115177
C76	C	1.523352	-0.921781	-0.501183
C77	C	1.856685	-0.588448	-0.167850
C78	C	2.190018	-0.255115	0.165483
C79	C	1.462069	-0.880493	-0.562340
C80	C	1.795403	-0.547159	-0.229007
C81	C	2.128736	-0.213826	0.104326
C82	C	1.468029	-0.786087	-0.556301
C83	C	1.801363	-0.452754	-0.222968
C84	C	2.134696	-0.119420	0.110365
C85	C	1.517393	-1.016195	-0.507221
C86	C	1.850726	-0.682862	-0.173888
C87	C	2.184060	-0.349529	0.159445
C88	C	1.766645	-0.401578	-0.531773
C89	C	2.099979	-0.068244	-0.198440
C90	C	2.433312	0.265089	0.134894
C91	C	1.883422	-0.401584	-0.531780
C92	C	2.216755	-0.068251	-0.198447
C93	C	2.550088	0.265083	0.134887
C94	C	1.492692	-0.401478	-0.805785
C95	C	1.826025	-0.068145	-0.472451
C96	C	2.159359	0.265188	-0.139118
C97	C	1.492726	-0.401442	-0.922559
C98	C	1.826059	-0.068109	-0.589226
C99	C	2.159392	0.265224	-0.255892
C100	C	1.506656	-0.184109	-0.517930
C101	C	1.839989	0.149225	-0.184596
C102	C	2.173323	0.482558	0.148737
C103	C	1.512640	-0.091443	-0.512037
C104	C	1.845973	0.241891	-0.178704
C105	C	2.179307	0.575224	0.154629
C106	C	1.428998	-0.348107	-0.974025
C107	C	1.762331	-0.014773	-0.640692
C108	C	2.095664	0.318560	-0.307359
C109	C	1.429024	-0.348081	-1.083748
C110	C	1.762357	-0.014748	-0.750415
C111	C	2.095690	0.318586	-0.417081
C112	C	1.556514	-0.454729	-1.090528
C113	C	1.889848	-0.121396	-0.757195
C114	C	2.223181	0.211938	-0.423861
C115	C	1.556482	-0.454758	-0.980808
C116	C	1.889815	-0.121425	-0.647475
C117	C	2.223149	0.211908	-0.314141
C118	C	1.492599	-0.401586	-0.258791
C119	C	1.825932	-0.068253	0.074543
C120	C	2.159266	0.265080	0.407876
C121	C	1.492784	-0.401387	-0.142002
C122	C	1.826117	-0.068054	0.191332
C123	C	2.159451	0.265279	0.524665
H124	H	0.887343	-0.498194	-0.415823
H125	H	1.220676	-0.164861	-0.082490
H126	H	1.554009	0.168473	0.250844
H127	H	1.580289	-0.886233	-0.444293
H128	H	1.913622	-0.552900	-0.110959
H129	H	2.246955	-0.219566	0.222374
F130	F	1.099269	-0.511488	-0.399807
F131	F	1.432602	-0.178155	-0.066474
F132	F	1.765936	0.155179	0.266860
H133	H	1.377083	-0.304693	-0.926602
H134	H	1.710416	0.028640	-0.593269
H135	H	2.043749	0.361973	-0.259935
H136	H	0.899891	-0.304964	-0.647726
H137	H	1.233225	0.028369	-0.314392
H138	H	1.566558	0.361703	0.018941
H139	H	1.098940	-0.304947	-0.647714
H140	H	1.432273	0.028386	-0.314381
H141	H	1.765606	0.361720	0.018953
H142	H	1.608424	-0.498136	-1.137968
H143	H	1.941757	-0.164803	-0.804634
H144	H	2.275090	0.168530	-0.471301
H145	H	1.405127	-0.916045	-0.619234
H146	H	1.738461	-0.582712	-0.285901
H147	H	2.071794	-0.249378	0.047433
F148	F	1.361184	-0.291323	-1.138518
F149	F	1.694517	0.042011	-0.805184
F150	F	2.027850	0.375344	-0.471851
F151	F	1.624310	-0.511532	-0.926031
F152	F	1.957643	-0.178198	-0.592697
F153	F	2.290976	0.155135	-0.259364
