data_functionalizedCrystal
_audit_creation_method	'MofGen! by Chris Wilmer'
_symmetry_space_group_name_H-M	'P1'
_symmetry_Int_Tables_number	1
_symmetry_cell_setting	triclinic
loop_
_symmetry_equiv_pos_as_xyz
  x,y,z
_cell_length_a	14.519709
_cell_length_b	17.699083
_cell_length_c	16.776229
_cell_angle_alpha	89.995692
_cell_angle_beta	89.999854
_cell_angle_gamma	83.481580
loop_
_atom_site_label
_atom_site_type_symbol
_atom_site_fract_x
_atom_site_fract_y
_atom_site_fract_z
O1	O	-1.223448	-0.099212	0.066186
O2	O	-0.723448	0.400788	0.566186
O3	O	-0.954921	-0.110896	0.066211
O4	O	-0.454921	0.389104	0.566211
O5	O	-1.096771	0.005114	0.066191
O6	O	-0.596771	0.505114	0.566191
O7	O	-1.081598	-0.215221	0.066206
O8	O	-0.581598	0.284779	0.566206
O9	O	-1.096755	0.005114	-0.066386
O10	O	-0.596755	0.505114	0.433614
O11	O	-0.954905	-0.110895	-0.066366
O12	O	-0.454905	0.389105	0.433634
O13	O	-1.223432	-0.099212	-0.066390
O14	O	-0.723432	0.400788	0.433610
Zn15	Zn	-1.089166	-0.105053	-0.087428
Zn16	Zn	-0.589166	0.394947	0.412572
Zn17	Zn	-1.089187	-0.105054	0.087248
Zn18	Zn	-0.589187	0.394946	0.587248
O19	O	-1.081582	-0.215221	-0.066370
O20	O	-0.581582	0.284779	0.433630
C21	C	-1.096219	0.033312	-0.000098
C22	C	-0.596219	0.533312	0.499902
C23	C	-1.094588	0.117335	-0.000098
C24	C	-0.594588	0.617335	0.499902
C25	C	-0.920556	-0.110351	-0.000075
C26	C	-0.420556	0.389649	0.499925
C27	C	-0.818181	-0.108719	-0.000065
C28	C	-0.318181	0.391281	0.499935
C29	C	-1.257797	-0.099756	-0.000104
C30	C	-0.757797	0.400244	0.499896
C31	C	-1.360171	-0.101388	-0.000107
C32	C	-0.860171	0.398612	0.499893
C33	C	-0.443311	-0.102712	-0.000102
C34	C	0.056689	0.397288	0.499898
C35	C	-0.547612	-0.104380	-0.000092
C36	C	-0.047612	0.395620	0.499908
C37	C	-0.630743	-0.105716	-0.000083
C38	C	-0.130743	0.394284	0.499917
C39	C	-0.735050	-0.107384	-0.000074
C40	C	-0.235050	0.392616	0.499926
C41	C	-1.082134	-0.243420	-0.000080
C42	C	-0.582134	0.256580	0.499920
C43	C	-1.083765	-0.327442	-0.000075
C44	C	-0.583765	0.172558	0.499925
N45	N	-1.089158	-0.105053	-0.206639
N46	N	-0.589158	0.394947	0.293361
C47	C	-1.177851	0.165718	-0.000107
C48	C	-0.677851	0.665718	0.499893
C49	C	-1.176313	0.244665	-0.000099
C50	C	-0.676313	0.744665	0.499901
C51	C	-1.091511	0.275229	-0.000089
C52	C	-0.591511	0.775229	0.499911
C53	C	-1.008242	0.226840	-0.000078
C54	C	-0.508242	0.726840	0.499922
C55	C	-1.009781	0.147894	-0.000080
C56	C	-0.509781	0.647894	0.499920
C57	C	-1.002033	0.545221	-0.000071
C58	C	-0.502033	1.045221	0.499929
C59	C	-1.000501	0.624173	-0.000072
C60	C	-0.500501	1.124173	0.499928
C61	C	-1.168566	0.641992	-0.000091
C62	C	-0.668566	1.141992	0.499909
C63	C	-1.170105	0.563046	-0.000092
C64	C	-0.670105	1.063046	0.499908
C65	C	-1.086836	0.514664	-0.000077
C66	C	-0.586836	1.014664	0.499923
C67	C	-1.088505	0.429060	-0.000083
C68	C	-0.588505	0.929060	0.499917
C69	C	-1.089841	0.360831	-0.000089
C70	C	-0.589841	0.860831	0.499911
C71	C	-1.144983	-0.151061	-0.248354
C72	C	-0.644983	0.348939	0.251646
C73	C	-1.144993	-0.151058	-0.331807
C74	C	-0.644993	0.348942	0.168193
C75	C	-1.089173	-0.105050	-0.373542
C76	C	-0.589173	0.394950	0.126458
C77	C	-1.033346	-0.059037	-0.331820
C78	C	-0.533346	0.440963	0.168180
C79	C	-1.033342	-0.059036	-0.248370
C80	C	-0.533342	0.440964	0.251630
C81	C	-1.033365	-0.059038	-0.668367
C82	C	-0.533365	0.440962	-0.168367
C83	C	-1.033372	-0.059044	-0.751824
C84	C	-0.533372	0.440956	-0.251824
C85	C	-1.145016	-0.151060	-0.751804
C86	C	-0.645016	0.348940	-0.251804
C87	C	-1.145012	-0.151059	-0.668354
C88	C	-0.645012	0.348941	-0.168354
C89	C	-1.089189	-0.105043	-0.626640
C90	C	-0.589189	0.394957	-0.126640
C91	C	-1.089180	-0.105045	-0.536151
C92	C	-0.589180	0.394955	-0.036151
C93	C	-1.089177	-0.105051	-0.464028
C94	C	-0.589177	0.394949	0.035972
N95	N	-1.089202	-0.105049	0.206459
N96	N	-0.589202	0.394951	0.706459
H97	H	-1.246907	0.140840	-0.000120
H98	H	-0.746907	0.640840	0.499880
H99	H	-0.987914	-0.021576	-0.785802
H100	H	-0.487914	0.478424	-0.285802
H101	H	-1.244114	0.284056	-0.000108
H102	H	-0.744114	0.784056	0.499892
C103	C	-0.916143	0.259980	0.000100
C104	C	-0.416143	0.759980	0.500100
C105	C	-0.865839	0.235412	0.068324
C106	C	-0.365839	0.735412	0.568324
C107	C	-0.780998	0.265932	0.068518
C108	C	-0.280998	0.765932	0.568518
H109	H	-0.881747	0.243404	-0.046074
H110	H	-0.381747	0.743404	0.453926
H111	H	-0.927112	0.313930	0.000141
H112	H	-0.427112	0.813930	0.500141
H113	H	-0.854867	0.181474	0.068276
H114	H	-0.354867	0.681474	0.568276
H115	H	-0.900207	0.251987	0.114509
H116	H	-0.400207	0.751987	0.614509
H117	H	-0.791967	0.319882	0.068559
H118	H	-0.291967	0.819882	0.568559
H119	H	-0.746610	0.249353	0.022342
H120	H	-0.246610	0.749353	0.522342
H121	H	-0.746860	0.249273	0.114811
H122	H	-0.246860	0.749273	0.614811
C123	C	-0.919409	0.095324	0.000093
C124	C	-0.419409	0.595324	0.500093
C125	C	-0.915385	0.049491	0.068312
C126	C	-0.415385	0.549491	0.568312
C127	C	-0.832141	0.001062	0.068507
C128	C	-0.332141	0.501062	0.568507
H129	H	-0.916420	0.064086	-0.046084
H130	H	-0.416420	0.564086	0.453916
H131	H	-0.868656	0.124804	0.000141
H132	H	-0.368656	0.624804	0.500141
H133	H	-0.966124	0.020013	0.068256
H134	H	-0.466124	0.520013	0.568256
H135	H	-0.918358	0.080708	0.114500
H136	H	-0.418358	0.580708	0.614500
H137	H	-0.781388	0.030542	0.068556
H138	H	-0.281388	0.530542	0.568556
H139	H	-0.829159	-0.030170	0.022327
H140	H	-0.329159	0.469830	0.522327
H141	H	-0.829395	-0.030036	0.114796
H142	H	-0.329395	0.469964	0.614796
C143	C	-1.262270	0.530010	-0.000062
C144	C	-0.762270	1.030010	0.499938
C145	C	-1.334862	0.589281	-0.000046
C146	C	-0.834862	1.089281	0.499954
C147	C	-1.419779	0.558878	-0.000003
C148	C	-0.919779	1.058878	0.499997
H149	H	-1.266491	0.499598	-0.046282
H150	H	-0.766491	0.999598	0.453718
H151	H	-1.266416	0.499603	0.046189
H152	H	-0.766416	0.999603	0.546189
H153	H	-1.330718	0.619675	-0.046292
H154	H	-0.830718	1.119675	0.453708
H155	H	-1.330671	0.619698	0.046171
H156	H	-0.830671	1.119698	0.546171
H157	H	-1.423925	0.528471	0.046248
H158	H	-0.923925	1.028471	0.546248
H159	H	-1.423990	0.528466	-0.046224
H160	H	-0.923990	1.028466	0.453776
H161	H	-1.469042	0.599088	0.000015
H162	H	-0.969042	1.099088	0.500015
C163	C	-0.972652	-0.009060	-0.623229
C164	C	-0.472652	0.490940	-0.123229
C165	C	-0.923750	0.031211	-0.677643
C166	C	-0.423750	0.531211	-0.177643
C167	C	-0.867799	0.077252	-0.636087
C168	C	-0.367799	0.577252	-0.136087
H169	H	-1.010420	0.025770	-0.590674
H170	H	-0.510420	0.525770	-0.090674
H171	H	-0.930089	-0.039982	-0.590690
H172	H	-0.430089	0.460018	-0.090690
H173	H	-0.966308	0.062131	-0.710168
H174	H	-0.466308	0.562131	-0.210168
H175	H	-0.885965	-0.003599	-0.710199
H176	H	-0.385965	0.496401	-0.210199
H177	H	-0.825236	0.046329	-0.603549
H178	H	-0.325236	0.546329	-0.103549
H179	H	-0.905574	0.112077	-0.603534
H180	H	-0.405574	0.612077	-0.103534
H181	H	-0.834606	0.104576	-0.673001
H182	H	-0.334606	0.604576	-0.173001
H183	H	-1.190453	-0.188522	-0.365768
H184	H	-0.690453	0.311478	0.134232
H185	H	-1.236367	0.681395	-0.000099
H186	H	-0.736367	1.181395	0.499901
C187	C	-0.911656	0.492666	0.000104
C188	C	-0.411656	0.992666	0.500104
C189	C	-0.907619	0.446833	0.068324
C190	C	-0.407619	0.946833	0.568324
C191	C	-0.824367	0.398415	0.068518
C192	C	-0.324367	0.898415	0.568518
H193	H	-0.908662	0.461428	-0.046072
H194	H	-0.408662	0.961428	0.453928
H195	H	-0.860910	0.522154	0.000151
H196	H	-0.360910	1.022154	0.500151
H197	H	-0.958352	0.417347	0.068270
H198	H	-0.458352	0.917347	0.568270
H199	H	-0.910598	0.478051	0.114512
H200	H	-0.410598	0.978051	0.614512
H201	H	-0.773621	0.427903	0.068564
H202	H	-0.273621	0.927903	0.568564
H203	H	-0.821381	0.367182	0.022338
H204	H	-0.321381	0.867182	0.522338
H205	H	-0.821614	0.367317	0.114808
H206	H	-0.321614	0.867317	0.614808
C207	C	-1.205688	-0.201039	-0.203190
C208	C	-0.705688	0.298961	0.296810
C209	C	-1.254597	-0.241315	-0.257589
C210	C	-0.754597	0.258685	0.242411
C211	C	-1.310540	-0.287353	-0.216015
C212	C	-0.810540	0.212647	0.283985
H213	H	-1.167915	-0.235866	-0.170631
H214	H	-0.667915	0.264134	0.329369
H215	H	-1.248247	-0.170115	-0.170654
H216	H	-0.748247	0.329885	0.329346
H217	H	-1.212043	-0.272236	-0.290111
H218	H	-0.712043	0.227764	0.209889
H219	H	-1.292387	-0.206507	-0.290149
H220	H	-0.792387	0.293493	0.209851
H221	H	-1.353100	-0.256430	-0.183479
H222	H	-0.853100	0.243570	0.316521
H223	H	-1.272761	-0.322176	-0.183458
H224	H	-0.772761	0.177824	0.316542
H225	H	-1.343739	-0.314680	-0.252918
H226	H	-0.843739	0.185320	0.247082
H227	H	-0.931441	0.649055	-0.000065
H228	H	-0.431441	1.149055	0.499935
H229	H	-1.190463	-0.188526	-0.634377
H230	H	-0.690463	0.311474	-0.134377
H231	H	-0.987901	-0.021573	-0.365808
H232	H	-0.487901	0.478427	0.134192
H233	H	-1.190472	-0.188527	-0.785778
H234	H	-0.690472	0.311473	-0.285778
H235	H	-0.987883	-0.021571	-0.214406
H236	H	-0.487883	0.478429	0.285594
