data_functionalizedCrystal
_audit_creation_method	'MofGen! by Chris Wilmer'
_symmetry_space_group_name_H-M	'P1'
_symmetry_Int_Tables_number	1
_symmetry_cell_setting	triclinic
loop_
_symmetry_equiv_pos_as_xyz
  x,y,z
_cell_length_a	14.908183
_cell_length_b	18.101398
_cell_length_c	14.908308
_cell_angle_alpha	86.717290
_cell_angle_beta	89.779152
_cell_angle_gamma	86.686603
loop_
_atom_site_label
_atom_site_type_symbol
_atom_site_fract_x
_atom_site_fract_y
_atom_site_fract_z
Zn1	Zn	-0.387346	-1.090733	-0.487620
Zn2	Zn	0.112654	-0.590733	0.012380
Zn3	Zn	-0.529056	-1.091479	-0.328583
Zn4	Zn	-0.029056	-0.591479	0.171417
Zn5	Zn	-0.378703	-0.974425	-0.337289
Zn6	Zn	0.121297	-0.474425	0.162711
Zn7	Zn	-0.537669	-0.960163	-0.478907
Zn8	Zn	-0.037669	-0.460163	0.021093
O9	O	-0.458193	-1.029200	-0.408100
O10	O	0.041807	-0.529200	0.091900
O11	O	-0.406157	-1.194465	-0.466526
O12	O	0.093843	-0.694465	0.033474
O13	O	-0.501889	-1.082233	-0.203913
O14	O	-0.001889	-0.582233	0.296087
O15	O	-0.254015	-0.995510	-0.364521
O16	O	0.245985	-0.495510	0.135479
O17	O	-0.510271	-1.195013	-0.349682
O18	O	-0.010271	-0.695013	0.150318
O19	O	-0.260366	-1.080961	-0.474969
O20	O	0.239634	-0.580961	0.025031
O21	O	-0.391425	-0.996233	-0.210309
O22	O	0.108575	-0.496233	0.289691
O23	O	-0.399777	-0.868901	-0.356072
O24	O	0.100223	-0.368901	0.143928
O25	O	-0.524950	-0.971202	-0.605887
O26	O	-0.024950	-0.471202	-0.105887
O27	O	-0.516568	-0.858422	-0.460118
O28	O	-0.016568	-0.358422	0.039882
O29	O	-0.414509	-1.067132	-0.612289
O30	O	0.085491	-0.567132	-0.112289
O31	O	-0.656032	-1.068403	-0.341233
O32	O	-0.156032	-0.568403	0.158767
O33	O	-0.662360	-0.971926	-0.451676
O34	O	-0.162360	-0.471926	0.048324
C35	C	-0.458170	-0.836791	-0.408095
C36	C	0.041830	-0.336791	0.091905
C37	C	-0.458183	-0.754475	-0.408113
C38	C	0.041817	-0.254475	0.091887
C39	C	-0.458201	-0.603766	-0.408110
C40	C	0.041799	-0.103766	0.091890
C41	C	-0.531784	-0.565845	-0.473459
C42	C	-0.031784	-0.065845	0.026541
C43	C	-0.532055	-0.480225	-0.473237
C44	C	-0.032055	0.019775	0.026763
C45	C	-0.458219	-0.455383	-0.408109
C46	C	0.041781	0.044617	0.091891
C47	C	-0.478036	-0.490066	-0.311776
C48	C	0.021964	0.009934	0.188224
C49	C	-0.478554	-0.575669	-0.312149
C50	C	0.021446	-0.075669	0.187851
C51	C	-0.364580	-0.575233	-0.438276
C52	C	0.135420	-0.075233	0.061724
C53	C	-0.365222	-0.489455	-0.440335
C54	C	0.134778	0.010545	0.059665
C55	C	-0.458227	-0.371523	-0.408103
C56	C	0.041773	0.128477	0.091897
C57	C	-0.458194	-0.687626	-0.408110
C58	C	0.041806	-0.187626	0.091890
C59	C	-0.691825	-1.018717	-0.394584
C60	C	-0.191825	-0.518717	0.105416
C61	C	-0.791775	-1.014298	-0.388832
C62	C	-0.291775	-0.514298	0.111168
C63	C	-0.929416	-0.963622	-0.323173
C64	C	-0.429416	-0.463622	0.176827
C65	C	-0.835504	-0.967771	-0.328576
C66	C	-0.335504	-0.467771	0.171424
C67	C	-0.841965	-1.056678	-0.443691
C68	C	-0.341965	-0.556678	0.056309
C69	C	-0.935877	-1.052530	-0.438288
C70	C	-0.435877	-0.552530	0.061712
C71	C	-0.979599	-1.006001	-0.378026
C72	C	-0.479599	-0.506001	0.121974
C73	C	-1.073513	-1.001856	-0.372620
C74	C	-0.573513	-0.501856	0.127380
C75	C	-1.079972	-1.090759	-0.487738
C76	C	-0.579972	-0.590759	0.012262
C77	C	-0.986060	-1.094908	-0.493141
C78	C	-0.486060	-0.594908	0.006859
C79	C	-0.223651	-1.039743	-0.421688
C80	C	0.276349	-0.539743	0.078312
C81	C	-0.123703	-1.044236	-0.427479
C82	C	0.376297	-0.544236	0.072521
C83	C	-0.471654	-1.017493	-0.642626
C84	C	0.028346	-0.517493	-0.142626
C85	C	-0.477390	-1.012504	-0.742566
C86	C	0.022610	-0.512504	-0.242566
C87	C	-0.458220	-0.222360	-0.408105
C88	C	0.041780	0.277640	0.091895
C89	C	-0.458237	-0.304674	-0.408106
C90	C	0.041763	0.195326	0.091894
C91	C	-0.373146	-1.103020	-0.937035
C92	C	0.126854	-0.603020	-0.437035
C93	C	-0.378532	-1.098335	-1.030939
C94	C	0.121468	-0.598335	-0.530939
C95	C	-0.493545	-0.998446	-1.024279
C96	C	0.006455	-0.498446	-0.524279
C97	C	-0.488158	-1.003131	-0.930376
C98	C	0.011842	-0.503131	-0.430376
C99	C	-0.427958	-1.055421	-0.886757
C100	C	0.072042	-0.555421	-0.386757
C101	C	-0.422576	-1.060109	-0.792851
C102	C	0.077424	-0.560109	-0.292851
C103	C	-0.537583	-0.960217	-0.786194
C104	C	-0.037583	-0.460217	-0.286194
C105	C	-0.542970	-0.955532	-0.880097
C106	C	-0.042970	-0.455532	-0.380097
C107	C	-0.444720	-1.040907	-0.174490
C108	C	0.055280	-0.540907	0.325510
C109	C	-0.438731	-1.046051	-0.074564
C110	C	0.061269	-0.546051	0.425436
H111	H	-0.426956	-0.601244	-0.261493
H112	H	0.073044	-0.101244	0.238507
H113	H	-0.582218	-0.921459	-0.745247
H114	H	-0.082218	-0.421459	-0.245247
H115	H	-0.806354	-1.094555	-0.492760
H116	H	-0.306354	-0.594555	0.007240
H117	H	-0.542557	-0.955874	-1.059810
H118	H	-0.042557	-0.455874	-0.559810
C119	C	-0.625128	-0.591762	-0.446161
C120	C	-0.125128	-0.091762	0.053839
H121	H	-0.669190	-0.568595	-0.485988
H122	H	-0.169190	-0.068595	0.014012
H123	H	-0.638362	-0.578655	-0.386551
H124	H	-0.138362	-0.078655	0.113449
H125	H	-0.625419	-0.644034	-0.449119
H126	H	-0.125419	-0.144034	0.050881
C127	C	-0.570768	-0.599853	-0.278563
C128	C	-0.070768	-0.099853	0.221437
H129	H	-0.607562	-0.557372	-0.264825
H130	H	-0.107562	-0.057372	0.235175
H131	H	-0.562928	-0.631929	-0.226145
H132	H	-0.062928	-0.131929	0.273855
H133	H	-0.598714	-0.625167	-0.324016
H134	H	-0.098714	-0.125167	0.175984
H135	H	-0.545519	-0.466595	-0.286596
H136	H	-0.045519	0.033405	0.213404
C137	C	-0.977513	-0.912446	-0.256889
C138	C	-0.477513	-0.412446	0.243111
H139	H	-0.934175	-0.887798	-0.224996
H140	H	-0.434175	-0.387798	0.275004
H141	H	-1.011891	-0.941137	-0.215638
H142	H	-0.511891	-0.441137	0.284362
H143	H	-1.016138	-0.876816	-0.289149
H144	H	-0.516138	-0.376816	0.210851
C145	C	-0.609188	-0.898021	-0.928083
C146	C	-0.109188	-0.398021	-0.428083
H147	H	-0.604551	-0.902050	-0.991209
H148	H	-0.104551	-0.402050	-0.491209
H149	H	-0.595149	-0.849620	-0.913455
H150	H	-0.095149	-0.349620	-0.413455
H151	H	-0.668726	-0.906923	-0.909195
H152	H	-0.168726	-0.406923	-0.409195
C153	C	-0.407543	-0.469121	-0.243864
C154	C	0.092457	0.030879	0.256136
H155	H	-0.365301	-0.438963	-0.273729
H156	H	0.134699	0.061037	0.226271
H157	H	-0.377292	-0.512889	-0.218241
H158	H	0.122708	-0.012889	0.281759
H159	H	-0.436551	-0.442573	-0.197732
H160	H	0.063449	0.057427	0.302268
H161	H	-1.120841	-1.125269	-0.532402
H162	H	-0.620841	-0.625269	-0.032402
H163	H	-0.520335	-0.456406	-0.544483
H164	H	-0.020335	0.043594	-0.044483
C165	C	-0.338687	-0.601193	-0.531981
C166	C	0.161313	-0.101193	-0.031981
H167	H	-0.384736	-0.629682	-0.553583
H168	H	0.115264	-0.129682	-0.053583
H169	H	-0.283862	-0.630661	-0.528104
H170	H	0.216138	-0.130661	-0.028104
H171	H	-0.331520	-0.559236	-0.572081
H172	H	0.168480	-0.059236	-0.072081
C173	C	-0.780305	-0.921157	-0.268235
C174	C	-0.280305	-0.421157	0.231765
H175	H	-0.819798	-0.892858	-0.231570
H176	H	-0.319798	-0.392858	0.268430
H177	H	-0.745660	-0.888770	-0.304701
H178	H	-0.245660	-0.388770	0.195299
H179	H	-0.741412	-0.953091	-0.231191
H180	H	-0.241412	-0.453091	0.268809
H181	H	-0.950451	-1.132789	-0.542207
H182	H	-0.450451	-0.632789	-0.042207
H183	H	-0.373559	-1.102686	-0.757339
H184	H	0.126441	-0.602686	-0.257339
H185	H	-0.520261	-0.583623	-0.544913
H186	H	-0.020261	-0.083623	-0.044913
H187	H	-0.324132	-1.145600	-0.901520
H188	H	0.175868	-0.645600	-0.401520
H189	H	-0.601543	-0.457392	-0.452798
H190	H	-0.101543	0.042608	0.047202
C191	C	-0.344878	-0.458453	-0.536138
C192	C	0.155122	0.041547	-0.036138
H193	H	-0.392850	-0.424882	-0.556419
H194	H	0.107150	0.075118	-0.056419
H195	H	-0.338510	-0.498070	-0.575225
H196	H	0.161490	0.001930	-0.075225
H197	H	-0.290724	-0.433263	-0.535869
H198	H	0.209276	0.066737	-0.035869
H199	H	-0.333896	-1.137094	-1.071872
H200	H	0.166104	-0.637094	-0.571872
H201	H	-0.307944	-0.472846	-0.396687
H202	H	0.192056	0.027154	0.103313
H203	H	-0.309829	-0.600346	-0.390751
H204	H	0.190171	-0.100346	0.109249
C205	C	-1.121607	-0.950674	-0.306340
C206	C	-0.621607	-0.450674	0.193660
H207	H	-1.078266	-0.926023	-0.274453
H208	H	-0.578266	-0.426023	0.225547
H209	H	-1.155983	-0.979360	-0.265082
H210	H	-0.655983	-0.479360	0.234918
H211	H	-1.160232	-0.915047	-0.338604
H212	H	-0.660232	-0.415047	0.161396
