data_functionalizedCrystal
_audit_creation_method	'MofGen! by Chris Wilmer'
_symmetry_space_group_name_H-M	'P1'
_symmetry_Int_Tables_number	1
_symmetry_cell_setting	triclinic
loop_
_symmetry_equiv_pos_as_xyz
  x,y,z
_cell_length_a	21.395362
_cell_length_b	21.295417
_cell_length_c	21.395355
_cell_angle_alpha	90.020404
_cell_angle_beta	90.043940
_cell_angle_gamma	90.045579
loop_
_atom_site_label
_atom_site_type_symbol
_atom_site_fract_x
_atom_site_fract_y
_atom_site_fract_z
Zn1	Zn	0.957864	-0.250415	0.354577
Zn2	Zn	1.291197	0.082918	0.687911
Zn3	Zn	1.624531	0.416251	1.021244
Zn4	Zn	0.957768	-0.355667	0.249796
Zn5	Zn	1.291102	-0.022334	0.583130
Zn6	Zn	1.624435	0.311000	0.916463
Zn7	Zn	0.853079	-0.250445	0.249779
Zn8	Zn	1.186412	0.082889	0.583112
Zn9	Zn	1.519745	0.416222	0.916445
Zn10	Zn	0.853050	-0.355680	0.354501
Zn11	Zn	1.186383	-0.022346	0.687834
Zn12	Zn	1.519716	0.310987	1.021168
O13	O	0.905440	-0.303052	0.302163
O14	O	1.238774	0.030282	0.635497
O15	O	1.572107	0.363615	0.968830
O16	O	1.045529	-0.264359	0.340717
O17	O	1.378862	0.068974	0.674051
O18	O	1.712196	0.402307	1.007384
O19	O	0.943853	-0.341716	0.162116
O20	O	1.277186	-0.008382	0.495449
O21	O	1.610520	0.324951	0.828783
O22	O	0.867031	-0.162351	0.263705
O23	O	1.200364	0.170982	0.597038
O24	O	1.533698	0.504315	0.930372
O25	O	1.045459	-0.341687	0.263735
O26	O	1.378792	-0.008354	0.597069
O27	O	1.712125	0.324979	0.930402
O28	O	0.944016	-0.162330	0.340700
O29	O	1.277349	0.171004	0.674033
O30	O	1.610683	0.504337	1.007367
O31	O	0.866938	-0.264409	0.162103
O32	O	1.200272	0.068924	0.495436
O33	O	1.533605	0.402257	0.828770
O34	O	0.765397	-0.264422	0.263631
O35	O	1.098730	0.068911	0.596964
O36	O	1.432064	0.402245	0.930298
O37	O	0.866982	-0.341709	0.442189
O38	O	1.200315	-0.008376	0.775523
O39	O	1.533648	0.324957	1.108856
O40	O	0.765376	-0.341738	0.340570
O41	O	1.098709	-0.008404	0.673903
O42	O	1.432042	0.324929	1.007237
O43	O	0.943988	-0.264372	0.442245
O44	O	1.277321	0.068961	0.775579
O45	O	1.610655	0.402295	1.108912
O46	O	0.943825	-0.443758	0.263661
O47	O	1.277158	-0.110425	0.596995
O48	O	1.610492	0.222909	0.930328
O49	O	0.866889	-0.443767	0.340587
O50	O	1.200222	-0.110434	0.673921
O51	O	1.533555	0.222899	1.007254
C52	C	0.742652	-0.303085	0.302091
C53	C	1.075986	0.030248	0.635424
C54	C	1.409319	0.363582	0.968757
C55	C	0.673011	-0.303114	0.302074
C56	C	1.006345	0.030219	0.635408
C57	C	1.339678	0.363552	0.968741
C58	C	0.640303	-0.343426	0.342077
C59	C	0.973637	-0.010093	0.675410
C60	C	1.306970	0.323241	1.008743
C61	C	0.574868	-0.343411	0.342105
C62	C	0.908201	-0.010077	0.675438
C63	C	1.241535	0.323256	1.008771
C64	C	0.542143	-0.303090	0.302119
C65	C	0.875476	0.030243	0.635452
C66	C	1.208810	0.363577	0.968786
C67	C	0.574859	-0.262771	0.262114
C68	C	0.908192	0.070563	0.595447
C69	C	1.241525	0.403896	0.928781
C70	C	0.640293	-0.262783	0.262092
C71	C	0.973626	0.070551	0.595425
C72	C	1.306959	0.403884	0.928758
C73	C	0.438418	-0.298019	0.245714
C74	C	0.771751	0.035314	0.579047
C75	C	1.105085	0.368648	0.912381
C76	C	0.372985	-0.298011	0.245735
C77	C	0.706319	0.035322	0.579069
C78	C	1.039652	0.368655	0.912402
C79	C	0.340322	-0.303049	0.302188
C80	C	0.673656	0.030284	0.635522
C81	C	1.006989	0.363618	0.968855
C82	C	0.373100	-0.308108	0.358622
C83	C	0.706434	0.025226	0.691955
C84	C	1.039767	0.358559	1.025288
C85	C	0.438534	-0.308120	0.358599
C86	C	0.771868	0.025213	0.691933
C87	C	1.105201	0.358547	1.025266
C88	C	0.471191	-0.303072	0.302139
C89	C	0.804524	0.030261	0.635472
C90	C	1.137857	0.363595	0.968806
C91	C	0.236662	-0.343346	0.342224
C92	C	0.569995	-0.010013	0.675558
C93	C	0.903329	0.323321	1.008891
C94	C	0.171225	-0.343326	0.342253
C95	C	0.504559	-0.009993	0.675586
C96	C	0.837892	0.323340	1.008920
C97	C	0.171217	-0.262690	0.262257
C98	C	0.504551	0.070644	0.595590
C99	C	0.837884	0.403977	0.928924
C100	C	0.236653	-0.262706	0.262234
C101	C	0.569986	0.070627	0.595567
C102	C	0.903319	0.403961	0.928900
C103	C	0.269371	-0.303038	0.302216
C104	C	0.602704	0.030296	0.635550
C105	C	0.936038	0.363629	0.968883
C106	C	0.905360	-0.466603	0.302132
C107	C	1.238694	-0.133270	0.635465
C108	C	1.572027	0.200063	0.968798
C109	C	0.905383	-0.536571	0.302139
C110	C	1.238717	-0.203238	0.635472
C111	C	1.572050	0.130095	0.968806
C112	C	0.945447	-0.569370	0.342259
C113	C	1.278780	-0.236036	0.675592
C114	C	1.612113	0.097297	1.008926
C115	C	0.945469	-0.635112	0.342275
C116	C	1.278802	-0.301779	0.675608
C117	C	1.612135	0.031555	1.008941
C118	C	0.905434	-0.668054	0.302159
C119	C	1.238768	-0.334721	0.635492
C120	C	1.572101	-0.001387	0.968825
C121	C	0.865363	-0.635248	0.262036
C122	C	1.198697	-0.301914	0.595369
C123	C	1.532030	0.031419	0.928703
C124	C	0.865338	-0.569506	0.262026
C125	C	1.198671	-0.236173	0.595359
C126	C	1.532005	0.097160	0.928693
N127	N	0.900697	-0.771307	0.247324
N128	N	1.234030	-0.437974	0.580657
N129	N	1.567364	-0.104641	0.913990
N130	N	0.900725	-0.833759	0.247335
N131	N	1.234058	-0.500425	0.580668
N132	N	1.567392	-0.167092	0.914001
C133	C	0.905507	-0.866129	0.302187
C134	C	1.238841	-0.532795	0.635520
C135	C	1.572174	-0.199462	0.968854
N136	N	0.910273	-0.833688	0.357029
N137	N	1.243607	-0.500354	0.690363
N138	N	1.576940	-0.167021	1.023696
N139	N	0.910249	-0.771230	0.357017
N140	N	1.243582	-0.437897	0.690351
N141	N	1.576916	-0.104564	1.023684
C142	C	0.905457	-0.739339	0.302165
C143	C	1.238790	-0.406006	0.635499
C144	C	1.572124	-0.072673	0.968832
C145	C	0.945597	-0.970212	0.342327
C146	C	1.278930	-0.636879	0.675661
C147	C	1.612263	-0.303546	1.008994
C148	C	0.945615	-1.035956	0.342344
C149	C	1.278948	-0.702623	0.675677
C150	C	1.612281	-0.369289	1.009010
C151	C	0.865512	-1.036090	0.262100
C152	C	1.198846	-0.702757	0.595433
C153	C	1.532179	-0.369424	0.928766
C154	C	0.865491	-0.970348	0.262089
C155	C	1.198825	-0.637014	0.595422
C156	C	1.532158	-0.303681	0.928755
C157	C	0.905537	-0.937413	0.302202
C158	C	1.238870	-0.604079	0.635535
C159	C	1.572204	-0.270746	0.968868
C160	C	1.068864	-0.303019	0.302237
C161	C	1.402197	0.030315	0.635570
C162	C	1.735530	0.363648	0.968903
C163	C	1.138505	-0.303005	0.302268
C164	C	1.471838	0.030329	0.635601
C165	C	1.805171	0.363662	0.968935
C166	C	0.905492	-0.303039	0.465587
C167	C	1.238826	0.030294	0.798920
C168	C	1.572159	0.363628	1.132253
C169	C	0.905514	-0.303033	0.535228
C170	C	1.238848	0.030300	0.868561
C171	C	1.572181	0.363633	1.201895
C172	C	0.905537	-0.138861	0.302209
C173	C	1.238871	0.194472	0.635542
C174	C	1.572204	0.527805	0.968876
C175	C	0.905579	-0.068893	0.302228
C176	C	1.238912	0.264440	0.635562
C177	C	1.572246	0.597773	0.968895
C178	C	0.905424	-0.303019	0.139376
C179	C	1.238758	0.030314	0.472709
C180	C	1.572091	0.363648	0.806043
C181	C	0.905524	-0.302847	0.069735
C182	C	1.238857	0.030486	0.403068
C183	C	1.572190	0.363820	0.736402
C184	C	0.945610	-0.262762	0.567971
C185	C	1.278943	0.070571	0.901305
C186	C	1.612277	0.403904	1.234638
C187	C	0.945609	-0.262735	0.633407
C188	C	1.278942	0.070598	0.966740
C189	C	1.612276	0.403932	1.300073
C190	C	0.905519	-0.302991	0.666096
C191	C	1.238853	0.030343	0.999430
C192	C	1.572186	0.363676	1.332763
C193	C	0.865416	-0.343265	0.633345
C194	C	1.198749	-0.009931	0.966679
C195	C	1.532083	0.323402	1.300012
C196	C	0.865413	-0.343286	0.567911
C197	C	1.198747	-0.009953	0.901244
C198	C	1.532080	0.323381	1.234578
C199	C	0.900544	-0.359672	0.769758
C200	C	1.233878	-0.026339	1.103092
C201	C	1.567211	0.306995	1.436425
C202	C	0.900551	-0.359652	0.835191
C203	C	1.233884	-0.026318	1.168525
C204	C	1.567218	0.307015	1.501858
C205	C	0.905523	-0.302924	0.867917
C206	C	1.238856	0.030409	1.201251
C207	C	1.572190	0.363743	1.534584
C208	C	0.910501	-0.246215	0.835202
C209	C	1.243835	0.087118	1.168535
C210	C	1.577168	0.420452	1.501869
C211	C	0.910499	-0.246237	0.769768
C212	C	1.243832	0.087097	1.103101
C213	C	1.577166	0.420430	1.436435
C214	C	0.905517	-0.302971	0.737049
C215	C	1.238850	0.030362	1.070382
C216	C	1.572184	0.363695	1.403716
C217	C	0.945620	-0.262620	0.971613
C218	C	1.278953	0.070713	1.304947
C219	C	1.612287	0.404047	1.638280
C220	C	0.945615	-0.262592	1.037050
C221	C	1.278948	0.070741	1.370383
C222	C	1.612281	0.404075	1.703717
C223	C	0.865425	-0.343127	1.036987
C224	C	1.198758	-0.009794	1.370320
C225	C	1.532091	0.323540	1.703654
C226	C	0.865427	-0.343150	0.971552
C227	C	1.198760	-0.009816	1.304885
C228	C	1.532093	0.323517	1.638218
C229	C	0.905528	-0.302897	0.938869
C230	C	1.238861	0.030436	1.272202
C231	C	1.572194	0.363770	1.605535
H232	H	0.144573	-0.229857	0.229703
H233	H	0.477906	0.103476	0.563036
H234	H	0.811240	0.436810	0.896370
C235	C	0.135246	-0.387680	0.386249
C236	C	0.468580	-0.054347	0.719582
C237	C	0.801913	0.278986	1.052916
H238	H	0.164106	-0.411707	0.410049
H239	H	0.497440	-0.078374	0.743383
H240	H	0.830773	0.254960	1.076716
H241	H	0.109771	-0.363647	0.413608
H242	H	0.443104	-0.030314	0.746941
H243	H	0.776437	0.303019	1.080274
H244	H	0.109671	-0.415064	0.362226
H245	H	0.443005	-0.081730	0.695559
H246	H	0.776338	0.251603	1.028892
C247	C	0.989541	-0.671201	0.386405
C248	C	1.322874	-0.337868	0.719738
C249	C	1.656207	-0.004534	1.053072
H250	H	0.983817	-0.715071	0.380667
H251	H	1.317150	-0.381738	0.714001
H252	H	1.650484	-0.048404	1.047334
H253	H	1.031638	-0.660382	0.377284
H254	H	1.364971	-0.327049	0.710618
H255	H	1.698305	0.006285	1.043951
H256	H	0.980346	-0.660419	0.428493
H257	H	1.313680	-0.327086	0.761827
H258	H	1.647013	0.006248	1.095160
C259	C	0.989638	-0.933978	0.386452
C260	C	1.322971	-0.600645	0.719786
C261	C	1.656305	-0.267312	1.053119
H262	H	0.983891	-0.890127	0.380694
H263	H	1.317225	-0.556794	0.714028
H264	H	1.650558	-0.223460	1.047361
H265	H	0.980452	-0.944739	0.428540
H266	H	1.313785	-0.611406	0.761874
H267	H	1.647118	-0.278072	1.095207
H268	H	1.031746	-0.944709	0.377334
H269	H	1.365079	-0.611376	0.710668
H270	H	1.698413	-0.278043	1.044001
H271	H	0.978239	-1.062659	0.375017
H272	H	1.311572	-0.729326	0.708351
H273	H	1.644905	-0.395993	1.041684
C274	C	0.915965	-0.183862	0.733783
C275	C	1.249298	0.149471	1.067117
C276	C	1.582631	0.482805	1.400450
H277	H	0.918921	-0.150071	0.762641
H278	H	1.252255	0.183262	1.095974
H279	H	1.585588	0.516596	1.429307
H280	H	0.952280	-0.184678	0.708281
H281	H	1.285613	0.148655	1.041614
H282	H	1.618946	0.481989	1.374948
H283	H	0.880052	-0.178351	0.708235
H284	H	1.213385	0.154983	1.041568
H285	H	1.546719	0.488316	1.374901
H286	H	0.914551	-0.200022	0.861846
H287	H	1.247884	0.133311	1.195179
H288	H	1.581218	0.466645	1.528513
C289	C	0.989717	-0.218335	0.935659
C290	C	1.323051	0.114999	1.268993
C291	C	1.656384	0.448332	1.602326
H292	H	1.013590	-0.194337	0.964534
H293	H	1.346923	0.138996	1.297868
H294	H	1.680256	0.472329	1.631201
H295	H	1.017005	-0.242412	0.910151
H296	H	1.350338	0.090921	1.243485
H297	H	1.683672	0.424254	1.576818
H298	H	0.965757	-0.190921	0.910118
H299	H	1.299090	0.142412	1.243452
H300	H	1.632423	0.475746	1.576785
H301	H	0.346302	-0.293896	0.199784
H302	H	0.679636	0.039437	0.533117
H303	H	1.012969	0.372771	0.866450
H304	H	0.832911	-1.062911	0.229441
H305	H	1.166245	-0.729577	0.562774
H306	H	1.499578	-0.396244	0.896107
H307	H	0.263284	-0.229883	0.229656
H308	H	0.596617	0.103450	0.562990
H309	H	0.929950	0.436784	0.896323
H310	H	0.978264	-0.229795	1.063708
H311	H	1.311598	0.103539	1.397042
H312	H	1.644931	0.436872	1.730375
H313	H	0.832777	-0.375897	1.063602
H314	H	1.166110	-0.042564	1.396936
H315	H	1.499443	0.290769	1.730269
H316	H	0.832780	-0.375947	0.944892
H317	H	1.166114	-0.042613	1.278225
H318	H	1.499447	0.290720	1.611558
C319	C	0.821315	-0.387595	0.531892
C320	C	1.154649	-0.054262	0.865225
C321	C	1.487982	0.279071	1.198559
H322	H	0.797442	-0.411571	0.560730
H323	H	1.130775	-0.078237	0.894063
H324	H	1.464108	0.255096	1.227397
H325	H	0.794030	-0.363535	0.506341
H326	H	1.127363	-0.030202	0.839674
H327	H	1.460696	0.303131	1.173007
H328	H	0.845277	-0.415028	0.506389
H329	H	1.178610	-0.081695	0.839723
H330	H	1.511943	0.251639	1.173056
C331	C	0.989488	-0.533142	0.386386
C332	C	1.322822	-0.199808	0.719719
C333	C	1.656155	0.133525	1.053052
H334	H	0.983740	-0.489290	0.380632
H335	H	1.317073	-0.155957	0.713966
H336	H	1.650406	0.177376	1.047299
H337	H	0.980304	-0.543907	0.428473
H338	H	1.313637	-0.210574	0.761806
H339	H	1.646971	0.122760	1.095139
H340	H	1.031597	-0.543870	0.377265
H341	H	1.364930	-0.210536	0.710599
H342	H	1.698264	0.122797	1.043932
H343	H	0.896501	-0.405828	0.861823
H344	H	1.229835	-0.072494	1.195156
H345	H	1.563168	0.260839	1.528490
H346	H	0.832871	-0.943642	0.229417
H347	H	1.166204	-0.610308	0.562750
H348	H	1.499537	-0.276975	0.896083
H349	H	0.896328	-0.405855	0.743119
H350	H	1.229661	-0.072521	1.076452
H351	H	1.562995	0.260812	1.409785
C352	C	0.474341	-0.292442	0.183615
C353	C	0.807675	0.040891	0.516948
C354	C	1.141008	0.374224	0.850282
H355	H	0.445450	-0.289427	0.150010
H356	H	0.778783	0.043907	0.483344
H357	H	1.112117	0.377240	0.816677
H358	H	0.499891	-0.255951	0.184508
H359	H	0.833225	0.077382	0.517841
H360	H	1.166558	0.410715	0.851174
H361	H	0.499837	-0.328508	0.178013
H362	H	0.833171	0.004825	0.511347
H363	H	1.166504	0.338159	0.844680
C364	C	0.989714	-0.218481	0.532023
C365	C	1.323047	0.114852	0.865357
C366	C	1.656381	0.448185	1.198690
H367	H	1.013590	-0.194489	0.560900
H368	H	1.346923	0.138844	0.894233
H369	H	1.680256	0.472177	1.227567
H370	H	1.016998	-0.242563	0.506515
H371	H	1.350331	0.090771	0.839848
H372	H	1.683664	0.424104	1.173182
H373	H	0.965758	-0.191062	0.506483
H374	H	1.299091	0.142271	0.839817
H375	H	1.632425	0.475604	1.173150
H376	H	0.978258	-0.229938	0.660072
H377	H	1.311592	0.103395	0.993405
H378	H	1.644925	0.436729	1.326738
H379	H	0.832766	-0.662073	0.229375
H380	H	1.166099	-0.328740	0.562708
H381	H	1.499432	0.004594	0.896042
H382	H	0.832773	-0.376039	0.659965
H383	H	1.166106	-0.042706	0.993299
H384	H	1.499439	0.290628	1.326632
H385	H	0.548232	-0.376237	0.374682
H386	H	0.881565	-0.042904	0.708015
H387	H	1.214899	0.290430	1.041348
C388	C	0.676293	-0.387800	0.386042
C389	C	1.009626	-0.054467	0.719376
C390	C	1.342960	0.278867	1.052709
H391	H	0.719949	-0.382043	0.380293
H392	H	1.053282	-0.048710	0.713626
H393	H	1.386615	0.284623	1.046960
H394	H	0.665632	-0.378666	0.428166
H395	H	0.998966	-0.045333	0.761499
H396	H	1.332299	0.288000	1.094832
H397	H	0.665509	-0.430076	0.376777
H398	H	0.998842	-0.096742	0.710110
H399	H	1.332176	0.236591	1.043444
C400	C	0.474591	-0.313681	0.420669
C401	C	0.807924	0.019652	0.754002
C402	C	1.141258	0.352985	1.087335
H403	H	0.518238	-0.312972	0.412567
H404	H	0.851571	0.020361	0.745900
H405	H	1.184905	0.353695	1.079233
H406	H	0.463933	-0.279477	0.447093
H407	H	0.797266	0.053856	0.780426
H408	H	1.130600	0.387190	1.113760
H409	H	0.463853	-0.352037	0.440635
H410	H	0.797187	-0.018703	0.773968
H411	H	1.130520	0.314630	1.107301
C412	C	0.337180	-0.313647	0.420724
C413	C	0.670514	0.019686	0.754057
C414	C	1.003847	0.353019	1.087390
H415	H	0.293516	-0.312908	0.412658
H416	H	0.626849	0.020425	0.745991
H417	H	0.960183	0.353759	1.079324
H418	H	0.347886	-0.352001	0.440686
H419	H	0.681220	-0.018668	0.774019
H420	H	1.014553	0.314666	1.107352
H421	H	0.347970	-0.279440	0.447136
H422	H	0.681304	0.053893	0.780469
H423	H	1.014637	0.387226	1.113802
H424	H	0.263303	-0.376183	0.374784
H425	H	0.596636	-0.042850	0.708117
H426	H	0.929969	0.290483	1.041450
H427	H	0.548210	-0.229940	0.229559
H428	H	0.881543	0.103393	0.562892
H429	H	1.214876	0.436726	0.896225
C430	C	0.676273	-0.218441	0.218084
C431	C	1.009606	0.114892	0.551417
C432	C	1.342940	0.448225	0.884751
H433	H	0.647414	-0.194426	0.194271
H434	H	0.980747	0.138907	0.527604
H435	H	1.314080	0.472240	0.860938
H436	H	0.701855	-0.191056	0.242091
H437	H	1.035189	0.142277	0.575425
H438	H	1.368522	0.475610	0.908758
H439	H	0.701741	-0.242492	0.190728
H440	H	1.035075	0.090842	0.524062
H441	H	1.368408	0.424175	0.857395
H442	H	0.832713	-0.542801	0.229355
H443	H	1.166046	-0.209468	0.562688
H444	H	1.499380	0.123865	0.896022
