data_functionalizedCrystal
_audit_creation_method	'MofGen! by Chris Wilmer'
_symmetry_space_group_name_H-M	'P1'
_symmetry_Int_Tables_number	1
_symmetry_cell_setting	triclinic
loop_
_symmetry_equiv_pos_as_xyz
  x,y,z
_cell_length_a	10.654550
_cell_length_b	15.995350
_cell_length_c	9.130313
_cell_angle_alpha	90.000982
_cell_angle_beta	89.996220
_cell_angle_gamma	83.988639
loop_
_atom_site_label
_atom_site_type_symbol
_atom_site_fract_x
_atom_site_fract_y
_atom_site_fract_z
O1	O	1.666298	0.117599	-0.121912
O2	O	1.300673	0.128803	-0.121888
O3	O	1.493480	0.001371	-0.121899
O4	O	1.473491	0.245030	-0.121900
O5	O	1.493478	0.001375	0.121700
O6	O	1.300671	0.128807	0.121711
O7	O	1.666295	0.117602	0.121687
Cu8	Cu	1.483483	0.123205	0.143942
Cu9	Cu	1.483486	0.123201	-0.144142
O10	O	1.473488	0.245034	0.121698
C11	C	1.253885	0.127982	-0.000085
C12	C	1.114473	0.125521	-0.000076
C13	C	1.034008	0.200551	-0.000098
C14	C	0.903017	0.198233	-0.000123
C15	C	0.932971	0.045849	-0.000111
C16	C	1.063959	0.048168	-0.000075
C17	C	1.016713	0.288528	-0.000111
C18	C	0.885722	0.286211	-0.000137
C19	C	1.492652	-0.029827	-0.000102
C20	C	1.490175	-0.122791	-0.000110
C21	C	1.481278	-0.460591	-0.000105
C22	C	1.343964	-0.413954	-0.000642
C23	C	1.346442	-0.317249	-0.000093
C24	C	1.485691	-0.293004	-0.000108
C25	C	1.553417	-0.333687	0.138991
C26	C	1.549968	-0.430342	0.139108
C27	C	1.552807	-0.430688	-0.137910
C28	C	1.552775	-0.333743	-0.139748
C29	C	1.488192	-0.198292	-0.000106
C30	C	1.478780	-0.555303	-0.000098
C31	C	1.713084	0.118423	-0.000119
C32	C	1.852495	0.120884	-0.000137
C33	C	1.474316	0.276232	-0.000101
C34	C	1.476793	0.369197	-0.000103
N35	N	1.483490	0.123207	0.346564
N36	N	1.483488	0.123192	-0.346765
C37	C	1.568887	0.066800	0.423211
C38	C	1.568883	0.066789	0.576548
C39	C	1.398083	0.179602	0.576578
C40	C	1.398081	0.179607	0.423244
C41	C	1.667501	0.001671	0.423195
C42	C	1.667497	0.001661	0.576532
H43	H	1.045593	0.322938	0.101840
C44	C	1.270134	-0.440849	0.133357
H45	H	1.187275	-0.412388	0.132183
H46	H	1.312048	-0.426950	0.220475
H47	H	1.265513	-0.499810	0.130061
C48	C	1.064396	0.326377	-0.142176
H49	H	0.994987	0.341631	-0.205462
H50	H	1.122544	0.286020	-0.189368
H51	H	1.105059	0.374843	-0.119338
C52	C	1.304119	0.241625	0.660922
H53	H	1.253247	0.275212	0.593309
H54	H	1.349258	0.276765	0.720761
H55	H	1.251854	0.211153	0.720715
C56	C	0.823543	0.322130	0.141927
H57	H	0.886494	0.339734	0.205206
H58	H	0.781612	0.280006	0.189130
H59	H	0.764173	0.368822	0.119081
C60	C	1.274507	-0.279267	-0.134778
H61	H	1.243498	-0.322936	-0.190319
H62	H	1.329841	-0.250655	-0.193643
H63	H	1.205772	-0.240787	-0.103454
H64	H	1.289082	-0.432806	-0.100393
H65	H	1.129471	-0.012929	-0.000037
C66	C	1.689969	-0.312222	-0.151098
H67	H	1.728147	-0.337639	-0.236395
H68	H	1.735744	-0.332777	-0.066975
H69	H	1.690658	-0.252973	-0.156940
C70	C	1.274056	-0.280020	0.134858
H71	H	1.243029	-0.324009	0.189566
H72	H	1.205331	-0.241448	0.103854
H73	H	1.329168	-0.251647	0.194434
H74	H	0.843557	0.319358	-0.102090
C75	C	1.797611	0.021044	0.632763
H76	H	1.797605	0.021029	0.736816
H77	H	1.814793	0.074672	0.598102
H78	H	1.860702	-0.020624	0.598077
H79	H	1.654048	-0.461861	-0.138855
C80	C	1.639633	-0.085256	0.366954
H81	H	1.639637	-0.085248	0.262901
H82	H	1.559369	-0.097208	0.401638
H83	H	1.702713	-0.126937	0.401609
C84	C	1.790321	0.029210	0.358928
H85	H	1.845020	0.041466	0.436414
H86	H	1.771173	0.077966	0.300372
H87	H	1.830557	-0.014825	0.300365
C88	C	1.485981	-0.297252	-0.278768
H89	H	1.417501	-0.257352	-0.251838
H90	H	1.455136	-0.341332	-0.333386
H91	H	1.544103	-0.270539	-0.336834
H92	H	1.328534	0.225531	0.360839
H93	H	1.637779	-0.059156	0.624082
H94	H	0.891826	-0.017130	-0.000133
C95	C	1.483234	-0.455455	0.279574
H96	H	1.458478	-0.406605	0.336026
H97	H	1.539337	-0.493099	0.335189
H98	H	1.410693	-0.482139	0.254160
C99	C	1.686147	-0.473124	0.147659
H100	H	1.684963	-0.532431	0.147784
H101	H	1.724832	-0.456299	0.235059
H102	H	1.732653	-0.457042	0.065394
C103	C	1.691615	-0.313799	0.145982
H104	H	1.709277	-0.280425	0.063937
H105	H	1.746068	-0.364769	0.144688
H106	H	1.704750	-0.283914	0.233630
H107	H	1.507914	-0.451490	-0.243339
C108	C	1.489861	-0.295728	0.278846
H109	H	1.422063	-0.255098	0.252765
H110	H	1.549835	-0.269640	0.335127
H111	H	1.458446	-0.339034	0.334916
