data_functionalizedCrystal
_audit_creation_method	'MofGen! by Chris Wilmer'
_symmetry_space_group_name_H-M	'P1'
_symmetry_Int_Tables_number	1
_symmetry_cell_setting	triclinic
loop_
_symmetry_equiv_pos_as_xyz
  x,y,z
_cell_length_a	10.908937
_cell_length_b	11.792254
_cell_length_c	9.482900
_cell_angle_alpha	99.398945
_cell_angle_beta	83.036371
_cell_angle_gamma	72.142277
loop_
_atom_site_label
_atom_site_type_symbol
_atom_site_fract_x
_atom_site_fract_y
_atom_site_fract_z
O1	O	1.722481	-0.196576	-0.120935
O2	O	1.349240	-0.108066	-0.120930
O3	O	1.544908	-0.319246	-0.120922
O4	O	1.526814	0.014604	-0.120943
O5	O	1.505165	-0.276208	0.120869
O6	O	1.309497	-0.065028	0.120861
O7	O	1.682738	-0.153539	0.120856
Cu8	Cu	1.492488	-0.105354	0.142936
Cu9	Cu	1.539490	-0.156250	-0.143010
O10	O	1.487070	0.057641	0.120848
C11	C	1.281585	-0.078275	-0.000033
C12	C	1.139206	-0.053642	-0.000031
C13	C	0.942416	-0.118080	-0.000053
C14	C	1.089569	-0.143539	-0.000034
C15	C	1.523897	-0.339796	-0.000027
C16	C	1.520484	-0.465147	-0.000029
C17	C	1.517713	-0.566946	-0.000034
C18	C	1.514248	-0.694662	-0.000047
C19	C	1.750393	-0.183329	-0.000044
C20	C	1.892774	-0.207964	-0.000056
C21	C	1.508082	0.078192	-0.000050
C22	C	1.511496	0.203541	-0.000058
N23	N	1.459440	-0.069558	0.344055
N24	N	1.572549	-0.192057	-0.344129
C25	C	1.529733	-0.145697	0.416257
C26	C	1.502245	-0.115907	0.583673
H27	H	0.959216	-0.303766	-0.000053
H28	H	0.875977	-0.022282	-0.000074
H29	H	1.653080	-0.279305	0.593750
H30	H	1.156008	-0.239347	-0.000031
H31	H	1.378904	0.017677	0.406182
C32	C	0.921115	0.075887	-0.000068
C33	C	1.049533	0.075698	-0.000051
H34	H	0.865756	0.155737	-0.000073
H35	H	0.919115	0.021029	-0.084380
H36	H	0.891376	0.051043	0.084256
H37	H	1.079275	0.100534	-0.084381
H38	H	1.051538	0.130574	0.084270
H39	H	1.610260	-0.232939	0.354132
C40	C	1.273141	0.001295	0.630875
C41	C	1.393519	0.001868	0.667526
H42	H	1.206021	0.073999	0.682652
H43	H	1.277358	-0.003265	0.529382
H44	H	1.254399	-0.067232	0.655760
H45	H	1.412266	0.070390	0.642632
H46	H	1.389304	0.006440	0.769042
