data_functionalizedCrystal
_audit_creation_method	'MofGen! by Chris Wilmer'
_symmetry_space_group_name_H-M	'P1'
_symmetry_Int_Tables_number	1
_symmetry_cell_setting	triclinic
loop_
_symmetry_equiv_pos_as_xyz
  x,y,z
_cell_length_a	19.288840
_cell_length_b	15.995292
_cell_length_c	17.766277
_cell_angle_alpha	89.996830
_cell_angle_beta	89.983415
_cell_angle_gamma	83.297316
loop_
_atom_site_label
_atom_site_type_symbol
_atom_site_fract_x
_atom_site_fract_y
_atom_site_fract_z
O1	O	0.921617	0.104355	-0.062715
O2	O	1.421617	0.604355	0.437285
O3	O	0.719388	0.118467	-0.062688
O4	O	1.219388	0.618467	0.437312
O5	O	0.826052	-0.010502	-0.062703
O6	O	1.326052	0.489498	0.437297
O7	O	0.814953	0.233323	-0.062699
O8	O	1.314953	0.733323	0.437301
O9	O	0.826033	-0.010508	0.062485
O10	O	1.326033	0.489492	0.562485
O11	O	0.719369	0.118461	0.062501
O12	O	1.219369	0.618461	0.562501
O13	O	0.921598	0.104348	0.062474
O14	O	1.421598	0.604348	0.562474
Cu15	Cu	0.820482	0.111404	0.073918
Cu16	Cu	1.320482	0.611404	0.573918
Cu17	Cu	0.820504	0.111411	-0.074132
Cu18	Cu	1.320504	0.611411	0.425868
O19	O	0.814935	0.233317	0.062489
O20	O	1.314935	0.733317	0.562489
C21	C	0.693501	0.118013	-0.000090
C22	C	1.193501	0.618013	0.499910
C23	C	0.616393	0.116661	-0.000080
C24	C	1.116393	0.616661	0.499920
C25	C	0.580198	0.116014	-0.068323
C26	C	1.080198	0.616014	0.431677
C27	C	0.507748	0.114734	-0.068332
C28	C	1.007748	0.614734	0.431668
C29	C	0.471498	0.114083	-0.000095
C30	C	0.971498	0.614083	0.499905
C31	C	0.507701	0.114734	0.068156
C32	C	1.007701	0.614734	0.568156
C33	C	0.580148	0.116023	0.068164
C34	C	1.080148	0.616023	0.568164
C35	C	0.362038	0.062994	0.052173
C36	C	0.862038	0.562994	0.552173
C37	C	0.289593	0.061701	0.052163
C38	C	0.789593	0.561701	0.552163
C39	C	0.248044	0.110112	-0.000115
C40	C	0.748044	0.610112	0.499885
C41	C	0.278952	0.159807	-0.052394
C42	C	0.778952	0.659807	0.447606
C43	C	0.351400	0.161096	-0.052387
C44	C	0.851400	0.661096	0.447613
C45	C	0.392940	0.112686	-0.000095
C46	C	0.892940	0.612686	0.499905
C47	C	0.133291	0.108079	-0.068372
C48	C	0.633291	0.608079	0.431628
C49	C	0.060839	0.106804	-0.068378
C50	C	0.560839	0.606804	0.431622
C51	C	0.060794	0.106796	0.068112
C52	C	0.560794	0.606796	0.568112
C53	C	0.133243	0.108079	0.068116
C54	C	0.633243	0.608079	0.568116
C55	C	0.169488	0.108717	-0.000127
C56	C	0.669488	0.608717	0.499873
C57	C	0.825591	-0.041699	-0.000111
C58	C	1.325591	0.458301	0.499889
C59	C	0.824236	-0.134646	-0.000116
C60	C	1.324236	0.365354	0.499884
C61	C	0.819258	-0.472366	-0.000109
C62	C	1.319258	0.027634	0.499891
C63	C	0.896245	-0.449352	0.000161
C64	C	1.396245	0.050648	0.500161
C65	C	0.897708	-0.352682	-0.000124
C66	C	1.397708	0.147318	0.499876
C67	C	0.821728	-0.304819	-0.000112
C68	C	1.321728	0.195181	0.499888
C69	C	0.783249	-0.333767	-0.071593
C70	C	1.283249	0.166233	0.428407
C71	C	0.782322	-0.430554	-0.071650
C72	C	1.282322	0.069446	0.428350
C73	C	0.780729	-0.430413	0.070713
C74	C	1.280729	0.069587	0.570713
C75	C	0.783582	-0.333931	0.071654
C76	C	1.283582	0.166069	0.571654
C77	C	0.823120	-0.210129	-0.000116
C78	C	1.323120	0.289871	0.499884
C79	C	0.817864	-0.567056	-0.000109
C80	C	1.317864	-0.067056	0.499891
C81	C	0.947485	0.104802	-0.000125
C82	C	1.447485	0.604802	0.499875
C83	C	1.024593	0.106155	-0.000140
C84	C	1.524593	0.606155	0.499860
C85	C	0.815396	0.264514	-0.000105
C86	C	1.315396	0.764514	0.499895
C87	C	0.816750	0.357462	-0.000105
C88	C	1.316750	0.857462	0.499895
N89	N	0.820472	0.111398	0.178048
N90	N	1.320472	0.611398	0.678048
N91	N	0.820520	0.111411	-0.178262
N92	N	1.320520	0.611411	0.321738
C93	C	0.867717	0.054318	0.217428
C94	C	1.367717	0.554318	0.717428
C95	C	0.867721	0.054314	0.296230
C96	C	1.367721	0.554314	0.796230
C97	C	0.820486	0.111404	0.335649
C98	C	1.320486	0.611404	0.835649
C99	C	0.773231	0.168488	0.296259
C100	C	1.273231	0.668488	0.796259
C101	C	0.773224	0.168485	0.217459
C102	C	1.273224	0.668485	0.717459
C103	C	0.811372	0.187698	0.460489
C104	C	1.311372	0.687698	0.960489
C105	C	0.811384	0.187703	0.539287
C106	C	1.311384	0.687703	1.039287
C107	C	0.820505	0.111415	0.578695
C108	C	1.320505	0.611415	1.078695
C109	C	0.829628	0.035119	0.539294
C110	C	1.329628	0.535119	1.039294
C111	C	0.829620	0.035115	0.460494
C112	C	1.329620	0.535115	0.960494
C113	C	0.820489	0.111414	0.421094
C114	C	1.320489	0.611414	0.921094
C115	C	0.867758	0.054326	0.703521
C116	C	1.367758	0.554326	1.203521
C117	C	0.867757	0.054321	0.782324
C118	C	1.367757	0.554321	1.282324
C119	C	0.773270	0.168502	0.782352
C120	C	1.273270	0.668502	1.282352
C121	C	0.773268	0.168500	0.703550
C122	C	1.273268	0.668500	1.203550
C123	C	0.820515	0.111413	0.664140
C124	C	1.320515	0.611413	1.164140
H125	H	0.395862	0.023570	0.094747
H126	H	0.895862	0.523570	0.594747
H127	H	0.925762	-0.478482	-0.050822
H128	H	1.425762	0.021518	0.449178
H129	H	0.264434	0.021232	0.094728
H130	H	0.764434	0.521232	0.594728
O131	O	0.619193	0.116731	0.141770
O132	O	1.119193	0.616731	0.641770
H133	H	0.581817	0.116067	0.189220
H134	H	1.081817	0.616067	0.689220
H135	H	0.724061	-0.444183	0.071203
H136	H	1.224061	0.055817	0.571203
O137	O	0.812662	-0.467965	0.142484
O138	O	1.312662	0.032035	0.642484
H139	H	0.832623	-0.417748	0.176544
H140	H	1.332623	0.082252	0.676544
O141	O	0.817699	-0.466413	-0.142339
O142	O	1.317699	0.033587	0.357661
H143	H	0.863390	-0.511884	-0.126845
H144	H	1.363390	-0.011884	0.373155
H145	H	0.837054	-0.027003	0.571378
H146	H	1.337054	0.472997	1.071378
O147	O	0.801549	0.269988	0.581783
O148	O	1.301549	0.769988	1.081783
H149	H	0.847948	0.275217	0.617655
H150	H	1.347948	0.775217	1.117655
H151	H	0.928038	-0.334392	-0.051462
H152	H	1.428038	0.165608	0.448538
H153	H	0.925911	-0.477467	0.051423
H154	H	1.425911	0.022533	0.551423
O155	O	0.918705	-0.007252	0.661005
O156	O	1.418705	0.492748	1.161005
H157	H	0.951551	-0.046956	0.701631
H158	H	1.451551	0.453044	1.201631
O159	O	0.709188	-0.291273	-0.075116
O160	O	1.209188	0.208727	0.424884
H161	H	0.709716	-0.222014	-0.077627
H162	H	1.209716	0.277986	0.422373
O163	O	0.707557	-0.449550	-0.075939
O164	O	1.207557	0.050450	0.424061
H165	H	0.700343	-0.486831	-0.127450
H166	H	1.200343	0.013169	0.372550
O167	O	0.818834	-0.307644	-0.142074
O168	O	1.318834	0.192356	0.357926
H169	H	0.863896	-0.274014	-0.126374
H170	H	1.363896	0.225986	0.373626
H171	H	0.478272	0.114209	-0.123905
H172	H	0.978272	0.614209	0.376095
O173	O	0.839447	-0.047167	0.417994
O174	O	1.339447	0.452833	0.917994
H175	H	0.845785	-0.100219	0.458628
H176	H	1.345785	0.399781	0.958628
O177	O	0.918724	-0.007237	0.824805
O178	O	1.418724	0.492763	1.324805
H179	H	0.951582	-0.046922	0.784158
H180	H	1.451582	0.453078	1.284158
O181	O	0.468469	0.114137	0.141676
O182	O	0.968469	0.614137	0.641676
H183	H	0.488452	0.057366	0.174518
H184	H	0.988452	0.557366	0.674518
H185	H	0.811600	-0.315477	0.124536
H186	H	1.311600	0.184523	0.624536
H187	H	0.734808	0.214983	0.814446
H188	H	1.234808	0.714983	1.314446
H189	H	0.376562	0.201561	-0.094954
H190	H	0.876562	0.701561	0.405046
H191	H	0.609704	0.116534	-0.123892
H192	H	1.109704	0.616534	0.376108
O193	O	0.710127	-0.289960	0.077407
O194	O	1.210127	0.210040	0.577407
H195	H	0.699610	-0.246484	0.028983
H196	H	1.199610	0.253516	0.528983
H197	H	0.906187	0.007833	0.185343
H198	H	1.406187	0.507833	0.685343
O199	O	0.918688	-0.007243	0.338720
O200	O	1.418688	0.492757	0.838720
H201	H	0.951544	-0.046934	0.298076
H202	H	1.451544	0.453066	0.798076
O203	O	0.722317	0.230074	0.661068
O204	O	1.222317	0.730074	1.161068
H205	H	0.689475	0.269778	0.701714
H206	H	1.189475	0.769778	1.201714
H207	H	0.927845	-0.333777	0.051115
H208	H	1.427845	0.166223	0.551115
O209	O	0.801540	0.269985	0.417986
O210	O	1.301540	0.769985	0.917986
H211	H	0.795210	0.323037	0.458620
H212	H	1.295210	0.823037	0.958620
H213	H	0.734771	0.214971	0.328358
H214	H	1.234771	0.714971	0.828358
H215	H	0.245124	0.199232	-0.094961
H216	H	0.745124	0.699232	0.405039
O217	O	0.172390	0.108782	-0.141972
O218	O	0.672390	0.608782	0.358028
H219	H	0.135045	0.108133	-0.189429
H220	H	0.635045	0.608133	0.310571
H221	H	0.734750	0.214967	0.185395
H222	H	1.234750	0.714967	0.685395
H223	H	0.031279	0.106271	0.123672
H224	H	0.531279	0.606271	0.623672
O225	O	0.021797	0.106077	-0.141985
O226	O	0.521797	0.606077	0.358015
H227	H	0.059177	0.106718	-0.189434
H228	H	0.559177	0.606718	0.310566
H229	H	0.162714	0.108600	0.123687
H230	H	0.662714	0.608600	0.623687
