data_functionalizedCrystal
_audit_creation_method	'MofGen! by Chris Wilmer'
_symmetry_space_group_name_H-M	'P1'
_symmetry_Int_Tables_number	1
_symmetry_cell_setting	triclinic
loop_
_symmetry_equiv_pos_as_xyz
  x,y,z
_cell_length_a	6.394989
_cell_length_b	10.908937
_cell_length_c	9.482900
_cell_angle_alpha	83.036371
_cell_angle_beta	80.390180
_cell_angle_gamma	106.708167
loop_
_atom_site_label
_atom_site_type_symbol
_atom_site_fract_x
_atom_site_fract_y
_atom_site_fract_z
O1	O	0.360231	1.718033	-0.120949
O2	O	0.198034	1.346795	-0.120937
O3	O	0.585027	1.537683	-0.120944
O4	O	-0.026763	1.527144	-0.120942
O5	O	0.506160	1.498914	0.120850
O6	O	0.119166	1.308025	0.120857
O7	O	0.281364	1.679263	0.120845
Cu8	Cu	0.193064	1.490104	0.142929
Cu9	Cu	0.286334	1.535954	-0.143021
O10	O	-0.105630	1.488374	0.120852
C11	C	0.143442	1.279814	-0.000039
C12	C	0.098301	1.137992	-0.000035
C13	C	0.216386	0.939744	-0.000061
C14	C	0.263039	1.086321	-0.000043
N15	N	0.127468	1.457865	0.344050
C16	C	0.622693	1.516216	-0.000053
C17	C	0.856716	1.509848	-0.000054
C18	C	0.335957	1.746244	-0.000056
C19	C	0.381101	1.888067	-0.000070
N20	N	0.351950	1.568202	-0.344142
C21	C	0.266993	1.526436	0.416247
C22	C	0.212403	1.499622	0.583665
H23	H	0.438611	1.150591	-0.000047
C24	C	-0.135988	1.052426	0.000183
C25	C	-0.283709	1.057474	0.124567
C26	C	-0.499553	0.978680	0.124806
H27	H	-0.136566	0.965248	0.000245
H28	H	-0.181639	1.082750	-0.084089
H29	H	-0.238071	1.027143	0.208817
H30	H	-0.283201	1.144632	0.124531
H31	H	-0.545204	1.009004	0.040534
H32	H	-0.500107	0.891507	0.124864
H33	H	-0.599811	0.982104	0.209191
H34	H	0.052531	1.421056	0.645792
H35	H	0.426868	1.604988	0.354116
H36	H	0.556661	0.952342	-0.000073
C37	C	-0.017654	0.854166	-0.000372
C38	C	-0.084180	0.899093	-0.124783
C39	C	-0.299755	0.820283	-0.125130
H40	H	-0.118442	0.857356	0.083851
H41	H	-0.017960	0.767034	-0.000463
H42	H	-0.083890	0.986202	-0.124679
H43	H	0.016548	0.895898	-0.209026
H44	H	-0.300062	0.733152	-0.125221
H45	H	-0.400523	0.823479	-0.040901
H46	H	-0.344913	0.850748	-0.209547
C47	C	0.565319	1.672662	0.572771
C48	C	0.577246	1.678337	0.423236
C49	C	0.773908	1.774430	0.346652
H50	H	0.690708	1.652147	0.597654
H51	H	0.565222	1.754523	0.597359
H52	H	0.577363	1.596494	0.398658
H53	H	0.451903	1.698869	0.398310
H54	H	0.773811	1.856292	0.371240
H55	H	0.899281	1.753907	0.371546
H56	H	0.782016	1.778302	0.245185
C57	C	-0.085647	1.353214	0.427146
C58	C	-0.097459	1.347454	0.576681
C59	C	-0.293766	1.251075	0.653269
H60	H	-0.085181	1.271449	0.402469
H61	H	-0.211278	1.373525	0.402356
H62	H	0.028139	1.327135	0.601461
H63	H	-0.097962	1.429195	0.601401
H64	H	-0.419397	1.271386	0.628479
H65	H	-0.293282	1.169317	0.628581
H66	H	-0.301816	1.247162	0.754736
