data_functionalizedCrystal
_audit_creation_method	'MofGen! by Chris Wilmer'
_symmetry_space_group_name_H-M	'P1'
_symmetry_Int_Tables_number	1
_symmetry_cell_setting	triclinic
loop_
_symmetry_equiv_pos_as_xyz
  x,y,z
_cell_length_a	12.827893
_cell_length_b	12.645330
_cell_length_c	12.827885
_cell_angle_alpha	89.971022
_cell_angle_beta	89.980538
_cell_angle_gamma	90.017662
loop_
_atom_site_label
_atom_site_type_symbol
_atom_site_fract_x
_atom_site_fract_y
_atom_site_fract_z
Zn1	Zn	1.597655	-0.421989	-0.590855
Zn2	Zn	1.597541	-0.599290	-0.416117
Zn3	Zn	1.422896	-0.422040	-0.416128
Zn4	Zn	1.422875	-0.599211	-0.590817
O5	O	1.510242	-0.510632	-0.503479
O6	O	1.743876	-0.445520	-0.567686
O7	O	1.574336	-0.575832	-0.269883
O8	O	1.446134	-0.273686	-0.439326
O9	O	1.743792	-0.575782	-0.439308
O10	O	1.574529	-0.273648	-0.567697
O11	O	1.446024	-0.445608	-0.269891
O12	O	1.276657	-0.445531	-0.439290
O13	O	1.446098	-0.575647	-0.737058
O14	O	1.276641	-0.575697	-0.567633
O15	O	1.574509	-0.445443	-0.737086
O16	O	1.574315	-0.747626	-0.439271
O17	O	1.445988	-0.747568	-0.567623
C18	C	1.238732	-0.510612	-0.503459
C19	C	1.122579	-0.510629	-0.503476
C20	C	1.070814	-0.575140	-0.566886
C21	C	0.950763	-0.575159	-0.566904
C22	C	1.510165	-0.786062	-0.503465
C23	C	1.510228	-0.903892	-0.503493
C24	C	1.429831	-1.071464	-0.584488
C25	C	1.429419	-0.948904	-0.584228
C26	C	1.480415	-0.948494	-0.393362
C27	C	1.479925	-1.071093	-0.393854
C28	C	1.620931	-1.070979	-0.531736
C29	C	1.620252	-0.948372	-0.534144
C30	C	1.782812	-0.510654	-0.503500
C31	C	1.898965	-0.510663	-0.503509
C32	C	1.510314	-0.510531	-0.776050
C33	C	1.510344	-0.510487	-0.892203
C34	C	1.510347	-0.234127	-0.503517
C35	C	1.510391	-0.116297	-0.503533
C36	C	1.446872	-0.446036	-0.943992
C37	C	1.446902	-0.445989	-1.064042
C38	C	1.510230	-0.510657	-0.231969
C39	C	1.510402	-0.510402	-0.115817
H40	H	1.448312	-1.100870	-0.666417
N41	N	0.954812	-0.441369	-0.435413
N42	N	1.015769	-0.373912	-0.472343
H43	H	1.055220	-0.324972	-0.424252
N44	N	1.699520	-0.909957	-0.465552
N45	N	1.752523	-0.973546	-0.413055
H46	H	1.808505	-0.946420	-0.364603
H47	H	1.564706	-0.565633	-0.936741
H48	H	1.078020	-0.455408	-0.449206
N49	N	0.894926	-0.644433	-0.635027
N50	N	0.907078	-0.637522	-0.731475
H51	H	0.867640	-0.686448	-0.779590
H52	H	1.642735	-0.919216	-0.615195
N53	N	1.578563	-0.579645	-1.059959
N54	N	1.571605	-0.677471	-1.072049
H55	H	1.619743	-0.726375	-1.032591
H56	H	1.448072	-0.918744	-0.665889
N57	N	1.380104	-0.910089	-0.362854
N58	N	1.330398	-0.849883	-0.422030
H59	H	1.259551	-0.822758	-0.400489
H60	H	1.348394	-1.102366	-0.566042
N61	N	1.378667	-0.376868	-0.888113
N62	N	1.378736	-0.377007	-0.790671
H63	H	1.330563	-0.328157	-0.751207
N64	N	1.378745	-0.376759	-1.119920
N65	N	1.378871	-0.376814	-1.217362
H66	H	1.330734	-0.327917	-1.256829
H67	H	1.115373	-0.630352	-0.621164
H68	H	1.347471	-0.919671	-0.565543
N69	N	1.655041	-1.109677	-0.630766
N70	N	1.598288	-1.171134	-0.681763
H71	H	1.622368	-1.198467	-0.751705
H72	H	1.399120	-1.099786	-0.369962
H73	H	1.536055	-1.100754	-0.331479
N74	N	1.551698	-0.911922	-0.315634
N75	N	1.625442	-0.852433	-0.340599
H76	H	1.675789	-0.826602	-0.285705
N77	N	1.696215	-1.107348	-0.457759
N78	N	1.668721	-1.166384	-0.384554
H79	H	1.721882	-1.192073	-0.332302
