data_functionalizedCrystal
_audit_creation_method	'MofGen! by Chris Wilmer'
_symmetry_space_group_name_H-M	'P1'
_symmetry_Int_Tables_number	1
_symmetry_cell_setting	triclinic
loop_
_symmetry_equiv_pos_as_xyz
  x,y,z
_cell_length_a	11.026607
_cell_length_b	10.654550
_cell_length_c	9.482900
_cell_angle_alpha	99.426343
_cell_angle_beta	78.636152
_cell_angle_gamma	96.535460
loop_
_atom_site_label
_atom_site_type_symbol
_atom_site_fract_x
_atom_site_fract_y
_atom_site_fract_z
O1	O	1.633381	0.511463	-0.120893
O2	O	1.279571	0.451467	-0.120895
O3	O	1.464610	0.300492	-0.120889
O4	O	1.448342	0.662438	-0.120899
O5	O	1.427025	0.331316	0.120903
O6	O	1.241986	0.482291	0.120896
O7	O	1.595797	0.542287	0.120898
Cu8	Cu	1.415460	0.515103	0.142975
Cu9	Cu	1.459908	0.478650	-0.142971
O10	O	1.410758	0.693262	0.120892
C11	C	1.215474	0.455811	0.000000
C12	C	1.080483	0.422816	-0.000001
C13	C	1.007444	0.513919	-0.000004
C14	C	0.867923	0.479820	-0.000005
C15	C	1.444623	0.268847	0.000005
C16	C	1.441050	0.128627	0.000000
C17	C	1.549998	0.072791	0.000005
C18	C	1.546634	-0.058961	-0.000005
C19	C	1.325364	-0.079031	-0.000019
C20	C	1.328730	0.052718	-0.000019
C21	C	1.662318	0.148701	0.000025
C22	C	1.771274	0.092866	0.000031
C23	C	1.767910	-0.038887	0.000021
C24	C	1.655590	-0.114805	0.000004
C25	C	1.659894	0.537943	-0.000000
C26	C	1.794887	0.570936	-0.000009
C27	C	1.430745	0.724907	-0.000005
C28	C	1.434319	0.865125	-0.000010
N29	N	1.384206	0.540743	0.344094
N30	N	1.491171	0.453003	-0.344091
C31	C	1.450681	0.486205	0.416295
C32	C	1.424686	0.507549	0.583712
H33	H	1.048204	0.617161	0.000001
C34	C	1.651892	-0.259731	-0.000015
H35	H	1.732864	-0.282114	-0.000006
H36	H	1.623376	-0.303985	-0.084334
H37	H	1.597165	-0.282496	0.084313
C38	C	0.849931	0.710414	-0.000021
H39	H	0.936486	0.715037	-0.000032
H40	H	0.810535	0.761881	0.084290
H41	H	0.836749	0.740364	-0.084356
C42	C	0.812878	0.340340	-0.000009
H43	H	0.726328	0.335717	-0.000022
H44	H	0.826061	0.310370	0.084306
H45	H	0.852276	0.288886	-0.084341
C46	C	1.025432	0.283343	-0.000005
H47	H	0.938882	0.278720	-0.000017
H48	H	1.038615	0.253374	0.084310
H49	H	1.064830	0.231889	-0.084336
H50	H	1.665069	0.255982	0.000038
H51	H	1.862727	0.154682	0.000009
H52	H	1.856630	-0.084345	0.000012
H53	H	1.233917	-0.140853	-0.000031
C54	C	1.208891	0.114142	-0.000023
H55	H	1.141512	0.050069	-0.000014
H56	H	1.218717	0.154374	-0.084341
H57	H	1.192497	0.175869	0.084305
H58	H	1.308046	0.603233	0.406221
H59	H	1.526832	0.423704	0.354170
C60	C	1.321782	0.591959	0.667616
H61	H	1.283437	0.623395	0.600607
H62	H	1.356917	0.661674	0.726998
H63	H	1.261486	0.542861	0.726992
C64	C	1.594086	0.368608	0.572002
H65	H	1.598077	0.365354	0.470487
H66	H	1.576141	0.284803	0.596864
H67	H	1.671551	0.403634	0.596874
