data_functionalizedCrystal
_audit_creation_method	'MofGen! by Chris Wilmer'
_symmetry_space_group_name_H-M	'P1'
_symmetry_Int_Tables_number	1
_symmetry_cell_setting	triclinic
loop_
_symmetry_equiv_pos_as_xyz
  x,y,z
_cell_length_a	19.188923
_cell_length_b	19.188925
_cell_length_c	9.798715
_cell_angle_alpha	89.997209
_cell_angle_beta	90.005757
_cell_angle_gamma	96.857936
loop_
_atom_site_label
_atom_site_type_symbol
_atom_site_fract_x
_atom_site_fract_y
_atom_site_fract_z
O1	O	-0.926146	0.087140	-0.113555
O2	O	-0.592813	0.420474	0.219778
O3	O	-0.259479	0.753807	0.553112
O4	O	-0.722834	0.098880	-0.113543
O5	O	-0.389500	0.432214	0.219790
O6	O	-0.056167	0.765547	0.553123
O7	O	-0.830359	-0.008646	-0.113542
O8	O	-0.497026	0.324687	0.219792
O9	O	-0.163692	0.658021	0.553125
O10	O	-0.818621	0.194666	-0.113557
O11	O	-0.485287	0.528000	0.219777
O12	O	-0.151954	0.861333	0.553110
O13	O	-0.830351	-0.008646	0.113440
O14	O	-0.497018	0.324687	0.446774
O15	O	-0.163684	0.658021	0.780107
O16	O	-0.722826	0.098880	0.113439
O17	O	-0.389492	0.432213	0.446772
O18	O	-0.056159	0.765547	0.780106
O19	O	-0.926138	0.087140	0.113427
O20	O	-0.592805	0.420473	0.446760
O21	O	-0.259471	0.753807	0.780094
Zn22	Zn	-0.824481	0.093010	0.149471
Zn23	Zn	-0.491147	0.426343	0.482805
Zn24	Zn	-0.157814	0.759677	0.816138
Zn25	Zn	-0.824491	0.093010	-0.149587
Zn26	Zn	-0.491158	0.426344	0.183746
Zn27	Zn	-0.157824	0.759677	0.517079
O28	O	-0.818613	0.194666	0.113426
O29	O	-0.485279	0.527999	0.446759
O30	O	-0.151946	0.861333	0.780092
C31	C	-0.696819	0.098501	-0.000051
C32	C	-0.363485	0.431834	0.333283
C33	C	-0.030152	0.765168	0.666616
C34	C	-0.619314	0.097362	-0.000046
C35	C	-0.285980	0.430696	0.333287
C36	C	0.047353	0.764029	0.666621
C37	C	-0.057542	0.152831	-0.000032
C38	C	0.275791	0.486165	0.333302
C39	C	0.609125	0.819498	0.666635
C40	C	-0.130365	0.153907	-0.000042
C41	C	0.202968	0.487240	0.333291
C42	C	0.536302	0.820574	0.666625
C43	C	-0.175301	0.090814	-0.000037
C44	C	0.158033	0.424148	0.333297
C45	C	0.491366	0.757481	0.666630
C46	C	-0.147408	0.026641	-0.000056
C47	C	0.185925	0.359974	0.333277
C48	C	0.519259	0.693308	0.666611
C49	C	-0.074586	0.025567	-0.000059
C50	C	0.258747	0.358900	0.333274
C51	C	0.592081	0.692234	0.666607
N52	N	-0.295976	0.045137	0.077228
N53	N	0.037357	0.378470	0.410562
N54	N	0.370690	0.711804	0.743895
N55	N	-0.365154	0.046162	0.077235
N56	N	-0.031820	0.379495	0.410568
N57	N	0.301513	0.712828	0.743901
C58	C	-0.394710	0.094047	-0.000029
C59	C	-0.061377	0.427380	0.333304
C60	C	0.271957	0.760713	0.666637
N61	N	-0.352475	0.140879	-0.077282
N62	N	-0.019141	0.474212	0.256051
N63	N	0.314192	0.807546	0.589384
N64	N	-0.283291	0.139856	-0.077282
N65	N	0.050043	0.473190	0.256051
N66	N	0.383376	0.806523	0.589384
C67	C	-0.254265	0.091972	-0.000034
C68	C	0.079068	0.425305	0.333300
C69	C	0.412402	0.758639	0.666633
C70	C	-0.501558	0.159382	-0.000031
C71	C	-0.168225	0.492716	0.333303
C72	C	0.165109	0.826049	0.666636
C73	C	-0.574383	0.160456	-0.000049
C74	C	-0.241050	0.493789	0.333284
C75	C	0.092284	0.827122	0.666617
C76	C	-0.591425	0.033188	-0.000049
C77	C	-0.258091	0.366521	0.333284
C78	C	0.075242	0.699855	0.666617
C79	C	-0.518601	0.032116	-0.000045
C80	C	-0.185268	0.365450	0.333289
C81	C	0.148066	0.698783	0.666622
C82	C	-0.473672	0.095216	-0.000029
C83	C	-0.140338	0.428549	0.333305
C84	C	0.192995	0.761882	0.666638
C85	C	-0.829975	-0.034657	-0.000052
C86	C	-0.496642	0.298676	0.333282
C87	C	-0.163309	0.632010	0.666615
C88	C	-0.828836	-0.112162	-0.000054
C89	C	-0.495503	0.221172	0.333279
C90	C	-0.162170	0.554505	0.666612
C91	C	-0.884300	-0.673933	-0.000092
C92	C	-0.550967	-0.340600	0.333241
C93	C	-0.217634	-0.007267	0.666575
C94	C	-0.885377	-0.601110	-0.000080
C95	C	-0.552044	-0.267777	0.333254
C96	C	-0.218710	0.065556	0.666587
C97	C	-0.822285	-0.556174	-0.000077
C98	C	-0.488951	-0.222841	0.333257
C99	C	-0.155618	0.110493	0.666590
C100	C	-0.758111	-0.584066	-0.000051
C101	C	-0.424778	-0.250733	0.333283
C102	C	-0.091444	0.082600	0.666616
C103	C	-0.757036	-0.656888	-0.000049
C104	C	-0.423703	-0.323555	0.333284
C105	C	-0.090370	0.009778	0.666617
N106	N	-0.776611	-0.435492	-0.077333
N107	N	-0.443278	-0.102159	0.256001
N108	N	-0.109944	0.231174	0.589334
N109	N	-0.777636	-0.366315	-0.077337
N110	N	-0.444303	-0.032982	0.255996
N111	N	-0.110970	0.300352	0.589330
C112	C	-0.825519	-0.336765	-0.000078
C113	C	-0.492185	-0.003432	0.333256
C114	C	-0.158852	0.329902	0.666589
N115	N	-0.872348	-0.379007	0.077169
N116	N	-0.539015	-0.045674	0.410502
N117	N	-0.205681	0.287660	0.743836
N118	N	-0.871325	-0.448191	0.077167
N119	N	-0.537991	-0.114858	0.410500
N120	N	-0.204658	0.218476	0.743834
C121	C	-0.823443	-0.477210	-0.000077
C122	C	-0.490109	-0.143877	0.333256
C123	C	-0.156776	0.189457	0.666590
C124	C	-0.890855	-0.229918	-0.000081
C125	C	-0.557522	0.103416	0.333253
C126	C	-0.224189	0.436749	0.666586
C127	C	-0.891929	-0.157093	-0.000060
C128	C	-0.558596	0.176240	0.333274
C129	C	-0.225263	0.509574	0.666607
C130	C	-0.764661	-0.140050	-0.000044
C131	C	-0.431328	0.193283	0.333289
C132	C	-0.097995	0.526616	0.666622
C133	C	-0.763589	-0.212874	-0.000051
C134	C	-0.430256	0.120459	0.333282
C135	C	-0.096923	0.453793	0.666615
C136	C	-0.826688	-0.257804	-0.000076
C137	C	-0.493355	0.075530	0.333257
C138	C	-0.160022	0.408863	0.666591
C139	C	0.047847	0.087522	-0.000059
C140	C	0.381181	0.420855	0.333275
C141	C	0.714514	0.754188	0.666608
C142	C	-0.029657	0.088666	-0.000043
C143	C	0.303677	0.422000	0.333290
C144	C	0.637010	0.755333	0.666623
C145	C	-0.818996	0.220677	-0.000068
C146	C	-0.485663	0.554011	0.333266
C147	C	-0.152329	0.887344	0.666599
C148	C	-0.820135	0.298182	-0.000074
C149	C	-0.486802	0.631515	0.333259
C150	C	-0.153469	0.964849	0.666593
N151	N	-0.824478	0.093009	0.353571
N152	N	-0.491145	0.426343	0.686904
N153	N	-0.157812	0.759676	1.020238
N154	N	-0.824499	0.093005	-0.353687
N155	N	-0.491165	0.426339	-0.020354
N156	N	-0.157832	0.759672	0.312979
C157	C	-0.869628	0.047666	0.421349
C158	C	-0.536294	0.380999	0.754682
C159	C	-0.202961	0.714332	1.088015
C160	C	-0.869639	0.047663	0.578511
C161	C	-0.536306	0.380996	0.911845
C162	C	-0.202972	0.714330	1.245178
H163	H	-0.495897	-0.020134	-0.000046
H164	H	-0.162564	0.313200	0.333287
H165	H	0.170769	0.646533	0.666621
O166	O	-0.958907	-0.278386	-0.000081
O167	O	-0.625574	0.054948	0.333253
O168	O	-0.292240	0.388281	0.666586
H169	H	-1.003708	-0.246758	-0.000066
H170	H	-0.670374	0.086575	0.333268
H171	H	-0.337041	0.419909	0.666601
H172	H	-0.944182	-0.134392	-0.000066
H173	H	-0.610849	0.198941	0.333267
H174	H	-0.277516	0.532275	0.666601
H175	H	-0.153074	0.206159	-0.000020
H176	H	0.180260	0.539493	0.333314
H177	H	0.513593	0.872826	0.666647
O178	O	-0.773297	0.144438	0.430829
O179	O	-0.439963	0.477771	0.764163
O180	O	-0.106630	0.811105	1.097496
H181	H	-0.782171	0.198813	0.403464
H182	H	-0.448838	0.532146	0.736797
H183	H	-0.115504	0.865480	1.070130
H184	H	-0.713290	-0.103464	-0.000030
H185	H	-0.379957	0.229870	0.333303
H186	H	-0.046624	0.563203	0.666637
H187	H	-0.908271	0.008844	0.363026
H188	H	-0.574938	0.342177	0.696360
H189	H	-0.241605	0.675510	1.029693
H190	H	-0.628011	-0.018183	-0.000056
H191	H	-0.294677	0.315150	0.333278
H192	H	0.038656	0.648483	0.666611
H193	H	-0.935681	-0.710511	-0.000105
H194	H	-0.602347	-0.377178	0.333229
H195	H	-0.269014	-0.043845	0.666562
O196	O	-0.920844	-0.003765	0.655701
O197	O	-0.587511	0.329568	0.989034
O198	O	-0.254177	0.662901	1.322368
H199	H	-0.912814	0.004299	0.767029
H200	H	-0.579481	0.337633	1.100362
H201	H	-0.246147	0.670966	1.433695
H202	H	-0.937630	-0.578402	-0.000094
H203	H	-0.604296	-0.245069	0.333239
H204	H	-0.270963	0.088265	0.666572
H205	H	-0.597085	0.212708	-0.000051
H206	H	-0.263751	0.546042	0.333282
H207	H	0.069582	0.879375	0.666616
O208	O	-0.773285	0.144422	0.569116
O209	O	-0.439952	0.477755	0.902450
O210	O	-0.106618	0.811089	1.235783
H211	H	-0.802695	0.178156	0.503983
H212	H	-0.469361	0.511490	0.837316
H213	H	-0.136028	0.844823	1.170649
H214	H	-0.051883	-0.026685	-0.000069
H215	H	0.281450	0.306648	0.333264
H216	H	0.614783	0.639981	0.666597
O217	O	-0.009082	0.220886	-0.000020
O218	O	0.324251	0.554219	0.333313
O219	O	0.657584	0.887552	0.666647
H220	H	-0.018975	0.251606	-0.092535
H221	H	0.314358	0.584939	0.240798
H222	H	0.647691	0.918273	0.574131
O223	O	-0.195868	-0.041411	-0.000036
O224	O	0.137465	0.291922	0.333298
O225	O	0.470798	0.625255	0.666631
H226	H	-0.251192	-0.029886	-0.000013
H227	H	0.082142	0.303448	0.333321
H228	H	0.415475	0.636781	0.666654
H229	H	-0.704784	-0.679590	-0.000031
H230	H	-0.371450	-0.346257	0.333302
H231	H	-0.038117	-0.012924	0.666635
O232	O	-0.453091	0.227434	-0.000036
O233	O	-0.119757	0.560768	0.333297
O234	O	0.213576	0.894101	0.666630
H235	H	-0.484719	0.272235	-0.000055
H236	H	-0.151385	0.605568	0.333279
H237	H	0.181948	0.938902	0.666612
H238	H	-0.711339	-0.235577	-0.000047
H239	H	-0.378006	0.097756	0.333287
H240	H	-0.044673	0.431090	0.666620
O241	O	-0.690059	-0.535606	-0.000049
O242	O	-0.356725	-0.202272	0.333284
O243	O	-0.023392	0.131061	0.666618
H244	H	-0.701585	-0.480282	-0.000067
H245	H	-0.368252	-0.146949	0.333266
H246	H	-0.034918	0.186384	0.666600
