data_functionalizedCrystal
_audit_creation_method	'MofGen! by Chris Wilmer'
_symmetry_space_group_name_H-M	'P1'
_symmetry_Int_Tables_number	1
_symmetry_cell_setting	triclinic
loop_
_symmetry_equiv_pos_as_xyz
  x,y,z
_cell_length_a	17.699083
_cell_length_b	19.288865
_cell_length_c	17.766277
_cell_angle_alpha	90.011603
_cell_angle_beta	90.003333
_cell_angle_gamma	83.209632
loop_
_atom_site_label
_atom_site_type_symbol
_atom_site_fract_x
_atom_site_fract_y
_atom_site_fract_z
O1	O	-1.003958	-0.087837	-0.062497
O2	O	-0.503958	0.412163	0.437503
O3	O	-0.783563	-0.099265	-0.062523
O4	O	-0.283563	0.400735	0.437477
O5	O	-0.900129	0.007572	-0.062495
O6	O	-0.400129	0.507572	0.437505
O7	O	-0.887392	-0.194674	-0.062526
O8	O	-0.387392	0.305326	0.437474
O9	O	-0.900108	0.007577	0.062694
O10	O	-0.400108	0.507577	0.562694
O11	O	-0.783543	-0.099260	0.062665
O12	O	-0.283543	0.400740	0.562665
O13	O	-1.003937	-0.087832	0.062691
O14	O	-0.503937	0.412168	0.562691
Cu15	Cu	-0.893738	-0.093545	0.074109
Cu16	Cu	-0.393738	0.406455	0.574109
Cu17	Cu	-0.893762	-0.093552	-0.073941
Cu18	Cu	-0.393762	0.406448	0.426059
O19	O	-0.887372	-0.194668	0.062663
O20	O	-0.387372	0.305332	0.562663
C21	C	-0.755356	-0.098853	0.000068
C22	C	-0.255356	0.401147	0.500068
C23	C	-0.671340	-0.097624	0.000059
C24	C	-0.171340	0.402376	0.500059
C25	C	-1.032144	-0.088244	0.000098
C26	C	-0.532144	0.411756	0.500098
C27	C	-1.116160	-0.089472	0.000103
C28	C	-0.616160	0.410528	0.500103
C29	C	-0.622631	-0.160335	0.000049
C30	C	-0.122631	0.339665	0.500049
C31	C	-0.543689	-0.159177	0.000059
C32	C	-0.043689	0.340823	0.500059
C33	C	-0.513458	-0.095307	0.000073
C34	C	-0.013458	0.404693	0.500073
C35	C	-0.562174	-0.032591	0.000085
C36	C	-0.062174	0.467409	0.500085
C37	C	-0.641114	-0.033750	0.000080
C38	C	-0.141114	0.466250	0.500080
C39	C	-0.243817	-0.027915	0.000104
C40	C	0.256183	0.472085	0.500104
C41	C	-0.164871	-0.026761	0.000107
C42	C	0.335129	0.473239	0.500107
C43	C	-0.146393	-0.153342	0.000083
C44	C	0.353607	0.346658	0.500083
C45	C	-0.225333	-0.154501	0.000079
C46	C	0.274667	0.345499	0.500079
C47	C	-0.274041	-0.091785	0.000094
C48	C	0.225959	0.408215	0.500094
C49	C	-0.359639	-0.093042	0.000085
C50	C	0.140361	0.406958	0.500085
C51	C	-0.427862	-0.094049	0.000077
C52	C	0.072138	0.405951	0.500077
C53	C	-0.899709	0.033451	0.000102
C54	C	-0.399709	0.533451	0.500102
C55	C	-0.898478	0.110556	0.000108
C56	C	-0.398478	0.610556	0.500108
C57	C	-0.887792	-0.220548	0.000064
C58	C	-0.387792	0.279452	0.500064
C59	C	-0.889022	-0.297653	0.000053
C60	C	-0.389022	0.202347	0.500053
N61	N	-0.893727	-0.093540	0.178239
N62	N	-0.393727	0.406460	0.678239
C63	C	-0.966874	0.155172	0.000120
C64	C	-0.466874	0.655172	0.500120
C65	C	-0.965718	0.227620	0.000108
C66	C	-0.465718	0.727620	0.500108
C67	C	-0.896163	0.255450	0.000099
C68	C	-0.396163	0.755450	0.500099
C69	C	-0.827759	0.210825	0.000083
C70	C	-0.327759	0.710825	0.500083
C71	C	-0.828916	0.138378	0.000088
C72	C	-0.328916	0.638378	0.500088
C73	C	-0.841477	0.363804	0.043944
C74	C	-0.341477	0.863804	0.543944
C75	C	-0.840323	0.436250	0.043944
C76	C	-0.340323	0.936250	0.543944
C77	C	-0.892589	0.478900	0.000082
C78	C	-0.392589	0.978900	0.500082
C79	C	-0.946024	0.449097	-0.043770
C80	C	-0.446024	0.949097	0.456230
C81	C	-0.947182	0.376650	-0.043766
C82	C	-0.447182	0.876650	0.456234
C83	C	-0.894900	0.334006	0.000094
C84	C	-0.394900	0.834006	0.500094
C85	C	-0.959736	0.602073	0.000080
C86	C	-0.459736	1.102073	0.500080
C87	C	-0.958578	0.674522	0.000063
C88	C	-0.458578	1.174522	0.500063
C89	C	-0.820616	0.657725	0.000046
C90	C	-0.320616	1.157725	0.500046
C91	C	-0.821777	0.585277	0.000055
C92	C	-0.321777	1.085277	0.500055
C93	C	-0.891339	0.557456	0.000075
C94	C	-0.391339	1.057456	0.500075
N95	N	-0.893780	-0.093551	-0.178071
N96	N	-0.393780	0.406449	0.321929
C97	C	-0.945358	-0.046256	0.217639
C98	C	-0.445358	0.453744	0.717639
C99	C	-0.945363	-0.046253	0.296441
C100	C	-0.445363	0.453747	0.796441
C101	C	-0.893743	-0.093546	0.335840
C102	C	-0.393743	0.406454	0.835840
C103	C	-0.842101	-0.140833	0.296431
C104	C	-0.342101	0.359167	0.796431
C105	C	-0.842093	-0.140831	0.217630
C106	C	-0.342093	0.359169	0.717630
C107	C	-0.883610	-0.156821	0.460667
C108	C	-0.383610	0.343179	0.960667
C109	C	-0.883623	-0.156825	0.539466
C110	C	-0.383623	0.343175	1.039466
C111	C	-0.893763	-0.093554	0.578886
C112	C	-0.393763	0.406446	1.078886
C113	C	-0.903905	-0.030277	0.539498
C114	C	-0.403905	0.469723	1.039498
C115	C	-0.903897	-0.030274	0.460697
C116	C	-0.403897	0.469726	0.960697
C117	C	-0.893745	-0.093554	0.421286
C118	C	-0.393745	0.406446	0.921286
C119	C	-0.945402	-0.046263	0.703732
C120	C	-0.445402	0.453737	1.203732
C121	C	-0.945401	-0.046258	0.782535
C122	C	-0.445401	0.453742	1.282535
C123	C	-0.842143	-0.140845	0.782524
C124	C	-0.342143	0.359155	1.282524
C125	C	-0.842140	-0.140843	0.703722
C126	C	-0.342140	0.359157	1.203722
C127	C	-0.893774	-0.093553	0.664331
C128	C	-0.393774	0.406447	1.164331
H129	H	-0.647238	-0.212346	0.000037
H130	H	-0.147238	0.287654	0.500037
N131	N	-0.693648	0.033891	0.000089
N132	N	-0.193648	0.533891	0.500089
H133	H	-0.726815	0.036232	-0.046318
H134	H	-0.226815	0.536232	0.453682
H135	H	-0.726760	0.036192	0.046527
H136	H	-0.226760	0.536192	0.546527
H137	H	-0.987444	-0.007750	0.814615
H138	H	-0.487444	0.492250	1.314615
H139	H	-0.283467	0.023152	0.000118
H140	H	0.216533	0.523152	0.500118
H141	H	-0.798914	0.329084	0.079665
H142	H	-0.298914	0.829084	0.579665
N143	N	-0.529572	0.036299	0.000112
N144	N	-0.029572	0.536299	0.500112
H145	H	-0.472172	0.027519	0.000113
H146	H	0.027828	0.527519	0.500113
H147	H	-0.547406	0.063738	-0.046290
H148	H	-0.047406	0.563738	0.453710
N149	N	-0.745591	0.687725	0.000045
N150	N	-0.245591	1.187725	0.500045
H151	H	-0.715642	0.671434	-0.046364
H152	H	-0.215642	1.171434	0.453636
H153	H	-0.755292	0.740386	0.000073
H154	H	-0.255292	1.240386	0.500073
H155	H	-0.766082	0.548950	0.000050
H156	H	-0.266082	1.048950	0.500050
H157	H	-0.796810	0.460509	0.079647
H158	H	-0.296810	0.960509	0.579647
H159	H	-0.140260	0.025253	0.000119
H160	H	0.359740	0.525253	0.500119
N161	N	-0.786399	-0.191834	0.175136
N162	N	-0.286399	0.308166	0.675136
H163	H	-0.794942	-0.241123	0.188836
H164	H	-0.294942	0.258877	0.688836
H165	H	-0.794253	-0.184598	0.119252
H166	H	-0.294253	0.315402	0.619252
H167	H	-1.021416	0.263953	0.000114
H168	H	-0.521416	0.763953	0.500114
H169	H	-0.771126	0.233489	0.000075
H170	H	-0.271126	0.733489	0.500075
N171	N	-1.004805	0.344505	-0.091066
N172	N	-0.504805	0.844505	0.408934
H173	H	-0.997605	0.292140	-0.084404
H174	H	-0.497605	0.792140	0.415596
H175	H	-1.057827	0.363650	-0.074661
H176	H	-0.557827	0.863650	0.425339
H177	H	-0.773219	0.102051	0.000079
H178	H	-0.273219	0.602051	0.500079
N179	N	-1.001044	0.004750	0.175153
N180	N	-0.501044	0.504750	0.675153
H181	H	-1.033753	0.034706	0.212075
H182	H	-0.533753	0.534706	0.712075
H183	H	-0.972174	0.035427	0.142472
H184	H	-0.472174	0.535427	0.642472
N185	N	-1.041898	0.125164	0.000141
N186	N	-0.541898	0.625164	0.500141
H187	H	-1.085051	0.164425	0.000146
H188	H	-0.585051	0.664425	0.500146
H189	H	-1.045394	0.095462	-0.046266
H190	H	-0.545394	0.595462	0.453734
H191	H	-0.987409	-0.007747	0.328526
H192	H	-0.487409	0.492253	0.828526
H193	H	-0.504033	-0.210242	0.000051
H194	H	-0.004033	0.289758	0.500051
H195	H	-0.912161	0.021245	0.571592
H196	H	-0.412161	0.521245	1.071592
N197	N	-0.914833	0.037968	0.418213
N198	N	-0.414833	0.537968	0.918213
H199	H	-0.921259	0.078053	0.455136
H200	H	-0.421259	0.578053	0.955136
H201	H	-0.868865	0.041970	0.385527
H202	H	-0.368865	0.541970	0.885527
N203	N	-1.002405	0.495086	-0.091080
N204	N	-0.502405	0.995086	0.408920
H205	H	-0.993564	0.545503	-0.084434
H206	H	-0.493564	1.045503	0.415566
H207	H	-0.995541	0.481546	-0.145786
H208	H	-0.495541	0.981546	0.354214
N209	N	-1.034759	0.572058	0.000098
N210	N	-0.534759	1.072058	0.500098
H211	H	-1.077913	0.611318	0.000098
H212	H	-0.577913	1.111318	0.500098
H213	H	-1.038251	0.542351	-0.046306
H214	H	-0.538251	1.042351	0.453694
H215	H	-0.249942	-0.206510	0.000064
H216	H	0.250058	0.293490	0.500064
H217	H	-0.987443	-0.007754	0.671658
H218	H	-0.487443	0.492246	1.171658
H219	H	-1.014276	0.710848	0.000068
H220	H	-0.514276	1.210848	0.500068
N221	N	-0.786460	-0.191850	0.825007
N222	N	-0.286460	0.308150	1.325007
H223	H	-0.794297	-0.184676	0.880906
H224	H	-0.294297	0.315324	1.380906
H225	H	-0.795028	-0.241116	0.811220
H226	H	-0.295028	0.258884	1.311220
H227	H	-0.875340	-0.208348	0.428578
H228	H	-0.375340	0.291652	0.928578
H229	H	-0.800100	-0.179349	0.671640
H230	H	-0.300100	0.320651	1.171640
H231	H	-0.875370	-0.208349	0.571530
H232	H	-0.375370	0.291651	1.071530
H233	H	-0.800070	-0.179339	0.328514
H234	H	-0.300070	0.320661	0.828514
H235	H	-0.106724	-0.204407	0.000074
H236	H	0.393276	0.295593	0.500074
