data_functionalizedCrystal
_audit_creation_method	'MofGen! by Chris Wilmer'
_symmetry_space_group_name_H-M	'P1'
_symmetry_Int_Tables_number	1
_symmetry_cell_setting	triclinic
loop_
_symmetry_equiv_pos_as_xyz
  x,y,z
_cell_length_a	11.026607
_cell_length_b	11.792241
_cell_length_c	10.065875
_cell_angle_alpha	98.849501
_cell_angle_beta	79.302338
_cell_angle_gamma	96.389716
loop_
_atom_site_label
_atom_site_type_symbol
_atom_site_fract_x
_atom_site_fract_y
_atom_site_fract_z
O1	O	1.630965	0.462836	-0.113504
O2	O	1.277303	0.408644	-0.113505
O3	O	1.462715	0.272275	-0.113495
O4	O	1.445553	0.599205	-0.113514
O5	O	1.427360	0.298412	0.113492
O6	O	1.241948	0.434781	0.113482
O7	O	1.595611	0.488973	0.113483
Zn8	Zn	1.413166	0.466027	0.149522
Zn9	Zn	1.459747	0.431590	-0.149543
O10	O	1.410198	0.625342	0.113473
C11	C	1.214349	0.411715	-0.000011
C12	C	1.079439	0.381912	-0.000011
C13	C	1.006175	0.464202	-0.000017
C14	C	0.866738	0.433401	-0.000017
C15	C	1.443960	0.242838	-0.000002
C16	C	1.440732	0.116183	-0.000003
C17	C	1.434802	-0.115710	-0.000026
C18	C	1.438097	0.013332	-0.000013
C19	C	1.658565	0.485901	-0.000014
C20	C	1.793477	0.515703	-0.000023
C21	C	1.428954	0.654778	-0.000023
C22	C	1.432183	0.781432	-0.000031
N23	N	1.381384	0.489530	0.353626
N24	N	1.491539	0.408079	-0.353647
C25	C	1.448682	0.439759	0.421408
C26	C	1.424231	0.457858	0.578574
H27	H	1.524395	0.383742	0.363088
H28	H	1.348504	0.513868	0.636891
C29	C	0.848179	0.641693	-0.000027
C30	C	0.837841	0.707294	-0.117898
C31	C	0.892545	0.833281	-0.117900
C32	C	0.957588	0.893667	-0.000032
C33	C	0.967929	0.828065	0.117848
C34	C	0.913224	0.702079	0.117851
H35	H	0.789690	0.662593	-0.205159
H36	H	0.884890	0.881843	-0.205163
H37	H	0.998083	0.986930	-0.000034
H38	H	1.016080	0.872767	0.205109
H39	H	0.920880	0.653517	0.205114
C40	C	1.060888	0.590184	-0.000033
C41	C	1.125938	0.650577	0.117826
C42	C	1.180650	0.776560	0.117806
C43	C	1.170311	0.842151	-0.000074
C44	C	1.105258	0.781758	-0.117943
C45	C	1.050546	0.655774	-0.117922
H46	H	1.133594	0.602023	0.205096
H47	H	1.228806	0.821267	0.205060
H48	H	1.210812	0.935411	-0.000090
H49	H	1.097602	0.830312	-0.205212
H50	H	1.002390	0.611068	-0.205176
C51	C	0.812038	0.307411	-0.000010
C52	C	0.710277	0.274166	0.117859
C53	C	0.655575	0.148179	0.117866
C54	C	0.702634	0.055437	0.000003
C55	C	0.804401	0.088679	-0.117876
C56	C	0.859102	0.214667	-0.117882
H57	H	0.675436	0.342822	0.205117
H58	H	0.580241	0.123571	0.205128
H59	H	0.662140	-0.037827	0.000008
H60	H	0.839241	0.020024	-0.205133
H61	H	0.934437	0.239275	-0.205144
C62	C	1.279091	0.565200	0.432402
C63	C	1.312208	0.673001	0.530655
C64	C	1.209912	0.748673	0.609427
C65	C	1.074500	0.716544	0.589945
C66	C	1.041377	0.608738	0.491688
C67	C	1.143673	0.533066	0.412916
H68	H	1.412454	0.696790	0.545080
H69	H	1.234433	0.828479	0.682163
H70	H	0.998775	0.772561	0.648257
H71	H	0.941131	0.584950	0.477263
H72	H	1.119152	0.453261	0.340179
H73	H	1.038938	0.288655	-0.000041
H74	H	1.567257	0.352060	0.588036
