data_functionalizedCrystal
_audit_creation_method	'MofGen! by Chris Wilmer'
_symmetry_space_group_name_H-M	'P1'
_symmetry_Int_Tables_number	1
_symmetry_cell_setting	triclinic
loop_
_symmetry_equiv_pos_as_xyz
  x,y,z
_cell_length_a	12.759401
_cell_length_b	21.295416
_cell_length_c	12.759393
_cell_angle_alpha	90.036697
_cell_angle_beta	89.981433
_cell_angle_gamma	89.970624
loop_
_atom_site_label
_atom_site_type_symbol
_atom_site_fract_x
_atom_site_fract_y
_atom_site_fract_z
Zn1	Zn	1.606141	0.250588	-0.593946
Zn2	Zn	1.605988	0.355872	-0.418250
Zn3	Zn	1.430443	0.250619	-0.418285
Zn4	Zn	1.430384	0.355822	-0.593891
O5	O	1.518239	0.303225	-0.506093
O6	O	1.753142	0.264563	-0.570648
O7	O	1.582662	0.341944	-0.271234
O8	O	1.453839	0.162526	-0.441624
O9	O	1.753029	0.341914	-0.441565
O10	O	1.582924	0.162503	-0.570681
O11	O	1.453690	0.264615	-0.271259
O12	O	1.283414	0.264566	-0.441571
O13	O	1.453738	0.341828	-0.740920
O14	O	1.283371	0.341858	-0.570589
O15	O	1.582866	0.264514	-0.740960
O16	O	1.582604	0.443955	-0.441512
O17	O	1.453589	0.443918	-0.570555
C18	C	1.245272	0.303210	-0.506079
C19	C	1.128495	0.303219	-0.506097
C20	C	1.073685	0.263018	-0.573415
C21	C	0.963961	0.263030	-0.573421
C22	C	0.963867	0.343450	-0.438790
C23	C	1.073589	0.343434	-0.438779
C24	C	1.128591	0.222803	-0.640733
C25	C	1.073781	0.182600	-0.708057
C26	C	0.964057	0.182612	-0.708064
C27	C	0.909143	0.222828	-0.640746
C28	C	1.518102	0.466777	-0.506047
C29	C	1.518140	0.536745	-0.506062
C30	C	1.585378	0.569610	-0.438941
C31	C	1.585427	0.635353	-0.438969
C32	C	1.518220	0.668227	-0.506108
C33	C	1.450977	0.635354	-0.573242
C34	C	1.450937	0.569613	-0.573219
N35	N	1.426313	0.771492	-0.514120
N36	N	1.426355	0.833943	-0.514135
C37	C	1.518339	0.866302	-0.506182
N38	N	1.610282	0.833850	-0.498193
N39	N	1.610240	0.771393	-0.498171
C40	C	1.518257	0.739513	-0.506140
C41	C	1.585636	0.970453	-0.439088
C42	C	1.585688	1.036196	-0.439124
C43	C	1.451228	1.036197	-0.573391
C44	C	1.451186	0.970455	-0.573361
C45	C	1.518389	0.937586	-0.506204
C46	C	1.792272	0.303241	-0.506108
C47	C	1.909049	0.303247	-0.506115
C48	C	1.518313	0.303162	-0.780127
C49	C	1.518344	0.303135	-0.896903
C50	C	1.518406	1.139035	-0.506181
C51	C	1.518481	1.069067	-0.506264
C52	C	1.585590	0.262873	-0.951788
C53	C	1.585615	0.262850	-1.061512
C54	C	1.451145	0.343356	-1.061457
C55	C	1.451115	0.343375	-0.951735
C56	C	1.652819	0.222633	-0.896956
C57	C	1.720072	0.182368	-0.951841
C58	C	1.720097	0.182345	-1.061565
C59	C	1.652869	0.222587	-1.116404
C60	C	1.518226	0.303243	-0.233126
C61	C	1.518398	0.303093	-0.116350
H62	H	0.819798	0.222821	-0.640735
O63	O	1.126956	0.143477	-0.773479
C64	C	1.055046	0.108008	-0.832915
H65	H	0.976819	0.105804	-0.789891
H66	H	1.043393	0.131120	-0.912635
C67	C	1.193993	0.043724	-0.901109
C68	C	1.097914	0.041013	-0.848262
H69	H	1.220436	0.002399	-0.910581
H70	H	1.242441	0.067622	-0.861070
H71	H	1.184268	0.062987	-0.967537
H72	H	1.107642	0.021757	-0.781831
H73	H	1.049468	0.017111	-0.888291
H74	H	0.919147	0.376193	-0.383985
H75	H	1.640448	1.062954	-0.384467
O76	O	1.650514	0.537657	-0.373600
C77	C	1.590718	0.499682	-0.305694
H78	H	1.507984	0.519537	-0.299141
H79	H	1.587058	0.449843	-0.338155
C80	C	1.743719	0.474319	-0.204567
C81	C	1.642106	0.498708	-0.196511
H82	H	1.775419	0.473716	-0.137219
H83	H	1.784006	0.499902	-0.250318
H84	H	1.740655	0.432789	-0.231621
H85	H	1.645172	0.540241	-0.169470
H86	H	1.601821	0.473133	-0.150752
O87	O	1.386002	0.382516	-1.114772
C88	C	1.445797	0.423155	-1.178235
H89	H	1.528530	0.427052	-1.145168
H90	H	1.449460	0.403678	-1.261403
C91	C	1.292793	0.483806	-1.220494
C92	C	1.394404	0.488597	-1.179875
H93	H	1.261090	0.524173	-1.221510
H94	H	1.252507	0.456426	-1.177740
H95	H	1.295860	0.467573	-1.289797
H96	H	1.391335	0.504822	-1.110569
H97	H	1.434689	0.515981	-1.222617
O98	O	1.650775	0.667189	-0.373661
C99	C	1.710100	0.624082	-0.314404
H100	H	1.667047	0.577241	-0.310717
H101	H	1.789874	0.617032	-0.352934
C102	C	1.778180	0.707320	-0.207135
C103	C	1.725297	0.649791	-0.202599
H104	H	1.787559	0.723179	-0.138170
H105	H	1.738215	0.736363	-0.247060
H106	H	1.844653	0.701437	-0.239248
H107	H	1.658821	0.655676	-0.170499
H108	H	1.765252	0.620749	-0.162666
O109	O	0.910650	0.143580	-0.773357
C110	C	0.802032	0.152225	-0.758954
H111	H	0.787000	0.172781	-0.677810
H112	H	0.770904	0.185798	-0.821168
C113	C	0.764198	0.063300	-0.868455
C114	C	0.745735	0.088542	-0.768788
H115	H	0.729470	0.024018	-0.874526
H116	H	0.837376	0.057476	-0.878163
H117	H	0.738258	0.091284	-0.920288
H118	H	0.771686	0.060562	-0.716958
H119	H	0.672560	0.094359	-0.759072
O120	O	1.385782	0.382557	-0.898576
C121	C	1.326450	0.418070	-0.970497
H122	H	1.369488	0.420226	-1.048721
H123	H	1.246669	0.395026	-0.982158
C124	C	1.258410	0.482430	-0.831568
C125	C	1.311275	0.485083	-0.927640
H126	H	1.249044	0.523766	-0.805131
H127	H	1.298380	0.458504	-0.783112
H128	H	1.191931	0.463224	-0.841298
H129	H	1.377756	0.504281	-0.917907
H130	H	1.271316	0.509015	-0.976094
H131	H	1.217934	0.222789	-0.640735
H132	H	1.396511	1.062963	-0.628062
O133	O	1.385837	0.667356	-0.638511
C134	C	1.445640	0.705307	-0.706448
H135	H	1.525285	0.715133	-0.669463
H136	H	1.457129	0.679927	-0.784308
C137	C	1.290041	0.755707	-0.770865
C138	C	1.387858	0.767779	-0.725436
H139	H	1.254397	0.794242	-0.782583
H140	H	1.249749	0.730137	-0.725098
H141	H	1.299628	0.734555	-0.835744
H142	H	1.378269	0.788924	-0.660553
H143	H	1.428147	0.793355	-0.771193
O144	O	1.785517	0.143213	-1.114719
C145	C	1.844823	0.107691	-1.042790
H146	H	1.848412	0.133491	-0.964563
H147	H	1.806401	0.059880	-1.031142
C148	C	1.952255	0.066932	-1.181703
C149	C	1.956670	0.098623	-1.085626
H150	H	2.021245	0.061335	-1.208127
H151	H	1.912297	0.090862	-1.230164
H152	H	1.920231	0.027093	-1.171983
H153	H	1.988680	0.138463	-1.095350
H154	H	1.996636	0.074699	-1.037168
H155	H	1.118216	0.376169	-0.383963
O156	O	1.651016	0.938617	-0.373826
C157	C	1.710363	0.981726	-0.314573
H158	H	1.714013	1.028563	-0.357631
H159	H	1.671934	0.988784	-0.234752
C160	C	1.817685	0.898487	-0.246626
C161	C	1.822176	0.956012	-0.299515
H162	H	1.886655	0.882625	-0.237333
H163	H	1.777700	0.869443	-0.286542
H164	H	1.785656	0.904377	-0.180114
H165	H	1.854192	0.950120	-0.366031
H166	H	1.862169	0.985054	-0.259610
H167	H	1.396183	0.542854	-0.627879
H168	H	1.396430	0.943694	-0.628013
H169	H	1.652808	0.222648	-0.807613
O170	O	1.653059	0.222623	-1.222991
C171	C	1.753751	0.238773	-1.259647
H172	H	1.797142	0.266228	-1.196402
H173	H	1.799316	0.194205	-1.279147
C174	C	1.690283	0.245807	-1.436456
C175	C	1.743573	0.279533	-1.358781
H176	H	1.684007	0.270948	-1.497610
H177	H	1.622446	0.234924	-1.411762
H178	H	1.728261	0.208670	-1.452693
H179	H	1.705588	0.316666	-1.342536
H180	H	1.811404	0.290424	-1.383475
H181	H	1.774799	0.149601	-0.907183
