data_functionalizedCrystal
_audit_creation_method	'MofGen! by Chris Wilmer'
_symmetry_space_group_name_H-M	'P1'
_symmetry_Int_Tables_number	1
_symmetry_cell_setting	triclinic
loop_
_symmetry_equiv_pos_as_xyz
  x,y,z
_cell_length_a	14.395555
_cell_length_b	23.096457
_cell_length_c	14.395555
_cell_angle_alpha	90.001571
_cell_angle_beta	119.995344
_cell_angle_gamma	59.997040
loop_
_atom_site_label
_atom_site_type_symbol
_atom_site_fract_x
_atom_site_fract_y
_atom_site_fract_z
Zr1	Zr	1.016833	0.557734	0.121941
O2	O	1.210615	0.465285	0.270255
O3	O	0.823035	0.586080	0.076473
O4	O	1.016814	0.586080	0.270260
O5	O	1.016855	0.465278	-0.076393
O6	O	1.016817	0.681361	0.270266
O7	O	1.016836	0.465284	0.076468
O8	O	0.670182	0.681359	-0.076383
O9	O	1.363490	0.465280	0.270257
O10	O	0.902754	0.669270	0.057088
O11	O	0.902767	0.598158	-0.056995
O12	O	1.130917	0.598159	0.171164
O13	O	1.130929	0.527048	0.057082
Zr14	Zr	1.016868	0.709686	-0.121845
Zr15	Zr	1.016837	0.709695	0.121950
Zr16	Zr	1.016864	0.557725	-0.121854
Zr17	Zr	1.260652	0.557726	0.121944
Zr18	Zr	0.773049	0.709694	-0.121848
O19	O	1.210665	0.681341	-0.076378
O20	O	1.210621	0.681354	0.270268
O21	O	1.210659	0.465271	-0.076391
O22	O	0.823086	0.802135	-0.270160
O23	O	0.823041	0.802149	0.076486
O24	O	0.823080	0.586066	-0.270172
O25	O	1.016845	0.802142	0.076488
O26	O	1.016886	0.681340	-0.270165
O27	O	1.016883	0.586059	-0.270170
O28	O	1.016864	0.802136	-0.076373
O29	O	1.363494	0.586068	0.270264
O30	O	0.670207	0.681352	-0.270168
O31	O	0.670210	0.802140	-0.270161
O32	O	0.670185	0.802148	-0.076376
O33	O	1.363515	0.465272	0.076472
O34	O	1.363518	0.586061	0.076479
O35	O	0.902784	0.669261	-0.171069
O36	O	0.902771	0.740372	-0.056986
O37	O	1.130933	0.669262	0.057090
O38	O	1.130946	0.598150	-0.056992
C39	C	0.711870	0.633721	0.000045
C40	C	0.608362	0.633724	0.000044
C41	C	0.547777	0.672491	0.062257
C42	C	0.409682	0.700584	-0.045005
C43	C	0.562022	0.605635	0.107293
C44	C	0.471568	0.661857	-0.107281
C45	C	0.623981	0.566870	0.045094
C46	C	0.485896	0.594947	-0.062231
C47	C	1.016845	0.443630	0.000037
C48	C	1.016843	0.379118	0.000033
C49	C	0.897749	0.385931	-0.059503
C50	C	0.897747	0.325316	-0.059508
C51	C	1.016846	0.257888	0.000045
C52	C	1.135957	0.251077	0.059584
C53	C	1.135955	0.311692	0.059578
N54	N	1.105492	0.135093	0.096964
N55	N	1.105485	0.077513	0.096968
C56	C	1.016858	0.075255	0.000065
N57	N	0.928218	0.132758	-0.096839
N58	N	0.928221	0.190343	-0.096841
C59	C	1.016861	0.192156	0.000058
C60	C	0.897753	0.016344	-0.059481
C61	C	0.897756	-0.044274	-0.059489
C62	C	1.135970	-0.118512	0.059613
C63	C	1.135963	-0.057894	0.059610
C64	C	1.016851	0.009531	0.000066
C65	C	1.321831	0.633699	0.000051
C66	C	1.425338	0.633696	0.000052
C67	C	1.016811	0.633722	0.304999
C68	C	1.016798	0.633726	0.408496
C69	C	1.016855	0.823790	0.000059
C70	C	1.016857	0.888302	0.000063
C71	C	0.892389	0.672504	0.406883
C72	C	0.954572	0.605644	0.499898
C73	C	0.954604	0.700576	0.499903
C74	C	1.078982	0.566827	0.500148
C75	C	1.078996	0.661807	0.500139
C76	C	1.141271	0.594907	0.593170
C77	C	1.016868	0.633707	0.695086
C78	C	1.016820	0.633729	0.591558
C79	C	0.711875	0.823801	0.000056
C80	C	0.608369	0.888316	0.000059
C81	C	0.711909	0.633709	-0.304906
C82	C	0.608414	0.633708	-0.408405
C83	C	0.711914	0.823789	-0.304895
C84	C	0.608421	0.888300	-0.408390
C85	C	1.321787	0.443631	0.304991
C86	C	1.425279	0.379120	0.408486
C87	C	1.321826	0.443619	0.000040
C88	C	1.425331	0.379104	0.000037
C89	C	1.321792	0.633711	0.305002
C90	C	1.425286	0.633712	0.408501
C91	C	0.559753	0.881498	0.059616
C92	C	0.462512	0.942111	0.059641
C93	C	0.413882	1.009541	0.000102
C94	C	0.462507	1.016358	-0.059457
C95	C	0.559753	0.955745	-0.059475
C96	C	0.559813	0.955721	-0.397442
C97	C	0.462585	1.016341	-0.494677
C98	C	0.413959	1.009540	-0.602859
C99	C	0.462576	0.942112	-0.613805
C100	C	0.559810	0.881493	-0.516571
C101	C	1.473899	0.311699	0.397538
C102	C	1.571158	0.251079	0.494773
C103	C	1.619789	0.257880	0.602955
C104	C	1.571165	0.325308	0.613900
C105	C	1.473914	0.385927	0.516666
C106	C	1.473958	0.385922	-0.059510
C107	C	1.571226	0.325309	-0.059508
C108	C	1.619859	0.257879	0.000034
C109	C	1.571229	0.251063	0.059588
C110	C	1.473969	0.311675	0.059593
C111	C	0.547826	0.594938	-0.406794
C112	C	0.409733	0.661803	-0.499805
C113	C	0.562069	0.566866	-0.499816
C114	C	0.471622	0.700612	-0.500053
C115	C	0.624031	0.605627	-0.500050
C116	C	0.485948	0.672531	-0.593079
H117	H	0.458875	0.562159	-0.114913
H118	H	1.610804	0.330873	-0.108009
Br119	Br	0.625760	0.789995	-0.531449
Br120	Br	0.281997	1.091817	-0.734810
H121	H	1.246550	0.562069	0.672794
H122	H	0.334696	1.058890	0.000125
H123	H	1.434329	0.440823	0.525593
H124	H	1.610731	0.196182	0.485839
H125	H	0.422898	1.071267	-0.107931
H126	H	0.800765	0.071246	-0.107990
H127	H	1.232943	-0.173413	0.108104
Br128	Br	1.297601	-0.067140	0.140418
Br129	Br	0.625791	0.964971	-0.250637
H130	H	0.574900	0.562204	-0.327041
Br131	Br	0.717065	0.727071	0.273955
H132	H	0.574852	0.705325	0.114777
Br133	Br	0.625714	0.965011	-0.140317
Br134	Br	0.440920	0.727255	-0.725790
Br135	Br	0.776732	0.472673	0.108646
Br136	Br	0.396621	1.107841	-0.479796
Br137	Br	0.409259	0.701542	-0.258521
H138	H	0.715688	0.581849	-0.499065
H139	H	1.698976	0.208514	0.682120
Br140	Br	0.396570	0.932894	-0.760632
H141	H	1.434309	0.306148	0.309460
Br142	Br	1.637176	0.334527	0.760727
Br143	Br	1.166567	0.701422	0.498522
Br144	Br	1.407981	0.477426	-0.140323
H145	H	0.599242	0.510336	-0.500735
Br146	Br	1.297594	0.159569	0.140396
H147	H	0.901991	0.581891	0.500827
Br148	Br	1.637242	0.159545	0.140388
H149	H	0.318058	0.757110	-0.083110
H150	H	1.699054	0.208530	0.000021
H151	H	0.800762	0.330863	-0.107990
Br152	Br	1.407982	0.302409	0.140409
Br153	Br	1.166557	0.472555	0.498783
H154	H	0.318109	0.685564	-0.500731
H155	H	0.599209	0.581891	0.197989
Br156	Br	0.866932	0.794800	0.501422
Br157	Br	0.409319	0.794881	-0.498684
H158	H	0.800758	0.440828	-0.107982
Br159	Br	0.396538	0.932844	0.140474
Br160	Br	1.297597	0.302445	0.140381
H161	H	0.800771	-0.038720	-0.107979
H162	H	0.599347	0.826599	0.108113
