data_functionalizedCrystal
_audit_creation_method	'MofGen! by Chris Wilmer'
_symmetry_space_group_name_H-M	'P1'
_symmetry_Int_Tables_number	1
_symmetry_cell_setting	triclinic
loop_
_symmetry_equiv_pos_as_xyz
  x,y,z
_cell_length_a	10.654543
_cell_length_b	9.730223
_cell_length_c	10.654550
_cell_angle_alpha	90.001209
_cell_angle_beta	95.516448
_cell_angle_gamma	90.004437
loop_
_atom_site_label
_atom_site_type_symbol
_atom_site_fract_x
_atom_site_fract_y
_atom_site_fract_z
O1	O	-1.667839	0.114142	0.176353
O2	O	-1.302359	0.114177	0.193168
O3	O	-1.493502	0.114150	0.002021
O4	O	-1.476696	0.114169	0.367500
O5	O	-1.493500	-0.114430	0.002026
O6	O	-1.302357	-0.114403	0.193173
O7	O	-1.667837	-0.114438	0.176358
Zn8	Zn	-1.485097	-0.150713	0.184766
Zn9	Zn	-1.485099	0.150451	0.184760
O10	O	-1.476694	-0.114411	0.367505
C11	C	-1.255560	-0.000109	0.191938
C12	C	-1.116116	-0.000095	0.188249
C13	C	-1.036631	-0.000092	0.300793
C14	C	-0.905609	-0.000112	0.297319
C15	C	-0.933573	-0.000135	0.068749
C16	C	-1.064591	-0.000124	0.072224
N17	N	-1.485104	-0.356249	0.184770
C18	C	-1.569764	-0.428187	0.100159
C19	C	-1.569760	-0.572070	0.100144
C20	C	-1.400433	-0.572064	0.269361
C21	C	-1.400431	-0.428184	0.269370
C22	C	-1.654436	-0.356252	0.015559
C23	C	-1.739104	-0.428190	-0.069057
C24	C	-1.739101	-0.572073	-0.069073
C25	C	-1.654429	-0.644018	0.015529
C26	C	-0.714635	-0.000143	0.177595
C27	C	-0.854077	-0.000127	0.181301
C28	C	-1.492267	-0.000139	-0.044774
C29	C	-1.488575	-0.000137	-0.184217
N30	N	-1.485102	0.355988	0.184746
C31	C	-1.601117	-0.000147	-0.263706
C32	C	-1.597641	-0.000130	-0.394726
C33	C	-1.369070	-0.000098	-0.366758
C34	C	-1.372548	-0.000105	-0.235740
C35	C	-1.477929	-0.000119	0.414301
C36	C	-1.481621	-0.000113	0.553744
H37	H	-1.654449	-0.239095	0.015567
H38	H	-1.129313	-0.000131	-0.019428
H39	H	-1.331498	-0.630651	0.338242
O40	O	-0.877990	-0.000159	-0.056384
H41	H	-0.955277	-0.000176	-0.134060
O42	O	-1.251151	-0.000104	-0.150002
H43	H	-1.247265	0.093066	-0.089644
H44	H	-1.808034	-0.369605	-0.137945
H45	H	-1.274605	-0.000075	-0.408724
O46	O	-0.819878	-0.000116	0.418707
H47	H	-0.759490	0.093033	0.422585
O48	O	-1.092212	-0.000089	0.425927
H49	H	-1.014923	-0.000108	0.503601
H50	H	-1.808032	-0.630644	-0.137979
H51	H	-1.654425	-0.761177	0.015501
O52	O	-1.719028	-0.000161	-0.480459
H53	H	-1.774513	0.092983	-0.462003
O54	O	-1.309130	-0.350577	0.360632
H55	H	-1.250267	-0.424767	0.419473
O56	O	-1.726253	-0.000153	-0.208128
H57	H	-1.803925	-0.000139	-0.285419
