data_functionalizedCrystal
_audit_creation_method	'MofGen! by Chris Wilmer'
_symmetry_space_group_name_H-M	'P1'
_symmetry_Int_Tables_number	1
_symmetry_cell_setting	triclinic
loop_
_symmetry_equiv_pos_as_xyz
  x,y,z
_cell_length_a	8.559649
_cell_length_b	19.188930
_cell_length_c	7.681481
_cell_angle_alpha	84.272277
_cell_angle_beta	94.913240
_cell_angle_gamma	76.461723
loop_
_atom_site_label
_atom_site_type_symbol
_atom_site_fract_x
_atom_site_fract_y
_atom_site_fract_z
O1	O	2.105137	-0.016273	-0.146396
O2	O	1.639679	0.019799	-0.146415
O3	O	1.885844	-0.100597	-0.146371
O4	O	1.858973	0.104122	-0.146440
O5	O	1.916143	-0.115446	0.146493
O6	O	1.669978	0.004950	0.146449
O7	O	2.135436	-0.031122	0.146467
Zn8	Zn	1.907518	-0.015443	0.192956
Zn9	Zn	1.867598	0.004120	-0.192904
O10	O	1.889272	0.089274	0.146423
C11	C	1.595280	0.015108	0.000015
C12	C	1.417842	0.023245	0.000010
C13	C	1.900124	-0.133987	0.000066
C14	C	1.897514	-0.211356	0.000081
C15	C	2.041954	-0.263833	0.000095
C16	C	2.039498	-0.336527	0.000067
C17	C	1.892597	-0.356742	0.000060
C18	C	1.748137	-0.304254	0.000036
C19	C	1.750595	-0.231561	0.000047
N20	N	1.790620	-0.463929	0.099722
N21	N	1.788294	-0.532986	0.099716
C22	C	1.885180	-0.575761	0.000024
N23	N	1.984505	-0.546875	-0.099639
N24	N	1.986836	-0.477813	-0.099625
C25	C	1.889914	-0.435564	0.000047
C26	C	2.026966	-0.707062	0.000005
C27	C	2.024502	-0.779757	-0.000034
C28	C	1.733139	-0.747483	-0.000048
C29	C	1.735605	-0.674790	-0.000026
C30	C	1.882524	-0.654585	0.000008
C31	C	2.179835	-0.026431	0.000033
C32	C	2.357272	-0.034568	0.000027
C33	C	1.874991	0.122664	-0.000018
C34	C	1.877600	0.200033	-0.000044
N35	N	1.934774	-0.028796	0.456295
N36	N	1.840354	0.017467	-0.456243
H37	H	1.333944	0.078971	-0.000019
H38	H	1.628528	-0.320718	0.000026
H39	H	1.441159	-0.090289	0.000037
H40	H	1.617987	-0.632061	-0.000028
O41	O	2.184797	-0.244325	0.000039
C42	C	2.311763	-0.306240	0.000092
H43	H	2.261566	-0.350512	-0.055365
H44	H	2.370821	-0.326066	0.140598
C45	C	2.500135	-0.232910	-0.046626
C46	C	2.438484	-0.287284	-0.114753
H47	H	2.578307	-0.221217	-0.117460
H48	H	2.414598	-0.191197	-0.046655
H49	H	2.549338	-0.249439	0.070461
H50	H	2.389265	-0.270751	-0.231828
H51	H	2.524017	-0.328994	-0.114746
H52	H	2.157121	-0.379261	0.000071
O53	O	2.169804	-0.687547	-0.000071
C54	C	2.296771	-0.749459	-0.000046
H55	H	2.246570	-0.793731	-0.055496
H56	H	2.355852	-0.769287	0.140451
C57	C	2.485124	-0.676122	-0.046798
C58	C	2.423468	-0.730496	-0.114917
H59	H	2.563281	-0.664425	-0.117649
H60	H	2.399586	-0.634411	-0.046808
H61	H	2.534347	-0.692653	0.070281
H62	H	2.374229	-0.713961	-0.231985
H63	H	2.509001	-0.772204	-0.114929
H64	H	2.142127	-0.822484	-0.000033
H65	H	1.743971	0.064688	0.468543
H66	H	1.632971	-0.188832	0.000036
H67	H	1.613528	-0.763941	-0.000062
O68	O	2.049897	-0.085156	0.545749
C69	C	2.133568	-0.126183	0.425041
H70	H	2.121758	-0.091041	0.293565
H71	H	2.079848	-0.174267	0.405523
C72	C	2.327995	-0.196678	0.658634
C73	C	2.313500	-0.153514	0.497157
H74	H	2.438984	-0.213541	0.703120
H75	H	2.271622	-0.169040	0.739959
H76	H	2.283218	-0.236743	0.642347
H77	H	2.358258	-0.113447	0.513450
H78	H	2.369886	-0.181147	0.415836
