data_functionalizedCrystal
_audit_creation_method	'MofGen! by Chris Wilmer'
_symmetry_space_group_name_H-M	'P1'
_symmetry_Int_Tables_number	1
_symmetry_cell_setting	triclinic
loop_
_symmetry_equiv_pos_as_xyz
  x,y,z
_cell_length_a	16.959453
_cell_length_b	12.759401
_cell_length_c	16.959447
_cell_angle_alpha	90.016152
_cell_angle_beta	90.029791
_cell_angle_gamma	90.019073
loop_
_atom_site_label
_atom_site_type_symbol
_atom_site_fract_x
_atom_site_fract_y
_atom_site_fract_z
Zn1	Zn	-0.314695	1.606190	0.446866
Zn2	Zn	0.185305	2.106190	0.946866
Zn3	Zn	-0.446885	1.606076	0.314686
Zn4	Zn	0.053115	2.106076	0.814686
Zn5	Zn	-0.314722	1.430500	0.314708
Zn6	Zn	0.185278	1.930500	0.814708
Zn7	Zn	-0.446833	1.430464	0.446829
Zn8	Zn	0.053167	1.930464	0.946829
O9	O	-0.380784	1.518307	0.380772
O10	O	0.119216	2.018307	0.880772
O11	O	-0.332241	1.753196	0.429339
O12	O	0.167759	2.253196	0.929339
O13	O	-0.429386	1.582753	0.204078
O14	O	0.070614	2.082753	0.704078
O15	O	-0.204108	1.453868	0.332264
O16	O	0.295892	1.953868	0.832264
O17	O	-0.429360	1.753112	0.332227
O18	O	0.070640	2.253112	0.832227
O19	O	-0.204088	1.582947	0.429360
O20	O	0.295912	2.082947	0.929360
O21	O	-0.332286	1.453758	0.204094
O22	O	0.167714	1.953758	0.704094
O23	O	-0.332237	1.283474	0.332228
O24	O	0.167763	1.783474	0.832228
O25	O	-0.429272	1.453807	0.557445
O26	O	0.070728	1.953807	1.057445
O27	O	-0.429298	1.283448	0.429296
O28	O	0.070702	1.783448	0.929296
O29	O	-0.332191	1.582912	0.557472
O30	O	0.167809	2.082912	1.057472
O31	O	-0.557489	1.582718	0.332190
O32	O	-0.057489	2.082718	0.832190
O33	O	-0.557451	1.453697	0.429275
O34	O	-0.057451	1.953697	0.929275
C35	C	-0.380765	1.245340	0.380761
C36	C	0.119235	1.745340	0.880761
C37	C	-0.380777	1.128563	0.380774
C38	C	0.119223	1.628563	0.880774
C39	C	-0.330316	0.964009	0.431424
C40	C	0.169684	1.464009	0.931424
C41	C	-0.330301	1.073733	0.431419
C42	C	0.169699	1.573733	0.931419
C43	C	-0.431277	1.073665	0.330137
C44	C	0.068723	1.573665	0.830137
C45	C	-0.431296	0.963943	0.330147
C46	C	0.068704	1.463943	0.830147
C47	C	-0.586150	1.518220	0.380743
C48	C	-0.086150	2.018220	0.880743
C49	C	-0.674007	1.518279	0.380757
C50	C	-0.174007	2.018279	0.880757
C51	C	-1.045413	1.585605	0.431426
C52	C	-0.545413	2.085605	0.931426
C53	C	-1.045551	1.451304	0.330236
C54	C	-0.545551	1.951304	0.830236
C55	C	-0.963005	1.451265	0.330218
C56	C	-0.463005	1.951265	0.830218
C57	C	-0.921660	1.518396	0.380805
C58	C	-0.421660	2.018396	0.880805
C59	C	-0.962860	1.585566	0.431411
C60	C	-0.462860	2.085566	0.931411
C61	C	-0.921799	1.384088	0.279619
C62	C	-0.421799	1.884088	0.779619
C63	C	-0.839248	1.384046	0.279600
C64	C	-0.339248	1.884046	0.779600
C65	C	-0.797901	1.451183	0.330184
C66	C	-0.297901	1.951183	0.830184
C67	C	-0.839106	1.518357	0.380790
C68	C	-0.339106	2.018357	0.880790
C69	C	-0.797761	1.585488	0.431378
C70	C	-0.297761	2.085488	0.931378
C71	C	-0.838965	1.652667	0.481981
C72	C	-0.338965	2.152667	0.981981
C73	C	-0.921513	1.652703	0.481995
C74	C	-0.421513	2.152703	0.981995
C75	C	-0.715352	1.451147	0.330170
C76	C	-0.215352	1.951147	0.830170
C77	C	-0.715207	1.585449	0.431363
C78	C	-0.215207	2.085449	0.931363
C79	C	-0.174616	1.518424	0.380819
C80	C	0.325384	2.018424	0.880819
C81	C	-0.086759	1.518474	0.380838
C82	C	0.413241	2.018474	0.880838
C83	C	-0.380723	1.518369	0.586941
C84	C	0.119277	2.018369	1.086941
C85	C	-0.380697	1.518395	0.674797
C86	C	0.119303	2.018395	1.174797
C87	C	-0.380803	1.792341	0.380784
C88	C	0.119197	2.292341	0.880784
C89	C	-0.380811	1.909117	0.380790
C90	C	0.119189	2.409117	0.880790
C91	C	-0.380787	1.518307	0.175406
C92	C	0.119213	2.018307	0.675406
C93	C	-0.380591	1.518485	0.087550
C94	C	0.119409	2.018485	0.587550
C95	C	-0.431239	1.585570	0.716064
C96	C	0.068761	2.085570	1.216064
C97	C	-0.330135	1.451238	0.716084
C98	C	0.169865	1.951238	1.216084
C99	C	-0.330112	1.451256	0.798630
C100	C	0.169888	1.951256	1.298630
C101	C	-0.380654	1.518431	0.839897
C102	C	0.119346	2.018431	1.339897
C103	C	-0.431219	1.585588	0.798618
C104	C	0.068781	2.085588	1.298618
C105	C	-0.279553	1.384092	0.839914
C106	C	0.220447	1.884092	1.339914
C107	C	-0.279529	1.384107	0.922465
C108	C	0.220471	1.884107	1.422465
C109	C	-0.330067	1.451288	0.963734
C110	C	0.169933	1.951288	1.463734
C111	C	-0.380634	1.518449	0.922450
C112	C	0.119366	2.018449	1.422450
C113	C	-0.431176	1.585624	0.963718
C114	C	0.068824	2.085624	1.463718
C115	C	-0.481739	1.652790	0.922435
C116	C	0.018261	2.152790	1.422435
C117	C	-0.481758	1.652769	0.839887
C118	C	0.018242	2.152769	1.339887
C119	C	-0.330049	1.451309	1.046283
C120	C	0.169951	1.951309	1.546283
C121	C	-0.431156	1.585642	1.046271
C122	C	0.068844	2.085642	1.546271
H123	H	-0.681549	1.640119	0.472554
H124	H	-0.181549	2.140119	0.972554
H125	H	-0.472419	0.919249	0.288914
H126	H	0.027581	1.419249	0.788914
N127	N	-0.485769	1.658017	0.671546
N128	N	0.014231	2.158017	1.171546
H129	H	-0.478204	1.647699	0.612989
H130	H	0.021796	2.147699	1.112989
H131	H	-0.542211	1.641753	0.686052
H132	H	-0.042211	2.141753	1.186052
H133	H	-0.238410	1.329395	0.806309
H134	H	0.261590	1.829395	1.306309
H135	H	-0.522924	1.707451	0.806267
H136	H	-0.022924	2.207451	1.306267
H137	H	-0.805292	1.707321	0.523173
H138	H	-0.305292	2.207321	1.023173
H139	H	-0.955069	1.707396	0.523194
H140	H	-0.455069	2.207396	1.023194
H141	H	-0.472378	1.118317	0.288905
H142	H	0.027622	1.618317	0.788905
N143	N	-1.089847	1.658065	0.485999
N144	N	-0.589847	2.158065	0.985999
H145	H	-1.148416	1.647911	0.478334
H146	H	-0.648416	2.147911	0.978334
H147	H	-1.075388	1.641662	0.542438
H148	H	-0.575388	2.141662	1.042438
H149	H	-0.289184	1.118420	0.472652
H150	H	0.210816	1.618420	0.972652
H151	H	-0.289208	0.919373	0.472660
H152	H	0.210792	1.419373	0.972660
N153	N	-0.485677	1.658096	1.090771
N154	N	0.014323	2.158096	1.590771
H155	H	-0.522299	1.615388	1.125003
H156	H	-0.022299	2.115388	1.625003
H157	H	-0.453495	1.706794	1.124992
H158	H	0.046505	2.206794	1.624992
H159	H	-1.079219	1.396644	0.289054
H160	H	-0.579219	1.896644	0.789054
H161	H	-0.522893	1.707481	0.956046
H162	H	-0.022893	2.207481	1.456046
H163	H	-0.238357	1.329416	0.956070
H164	H	0.261643	1.829416	1.456070
N165	N	-0.966389	1.311695	0.225055
N166	N	-0.466389	1.811695	0.725055
H167	H	-1.024936	1.321924	0.232737
H168	H	-0.524936	1.821924	0.732737
H169	H	-0.951984	1.328095	0.168614
H170	H	-0.451984	1.828095	0.668614
N171	N	-0.275630	1.378781	0.671579
N172	N	0.224370	1.878781	1.171579
H173	H	-0.283317	1.388958	0.613020
H174	H	0.216683	1.888958	1.113020
H175	H	-0.219174	1.395166	0.686022
H176	H	0.280826	1.895166	1.186022
N177	N	-0.275526	1.378868	1.090809
N178	N	0.224474	1.878868	1.590809
H179	H	-0.243515	1.336306	1.052141
H180	H	0.256485	1.836306	1.552141
H181	H	-0.238936	1.421655	1.125073
H182	H	0.261064	1.921655	1.625073
N183	N	-0.794809	1.311599	0.225020
N184	N	-0.294809	1.811599	0.725020
H185	H	-0.833528	1.269079	0.192976
H186	H	-0.333528	1.769079	0.692976
H187	H	-0.760568	1.354385	0.188462
H188	H	-0.260568	1.854385	0.688462
H189	H	-0.681808	1.396446	0.288973
H190	H	-0.181808	1.896446	0.788973
