data_functionalizedCrystal
_audit_creation_method	'MofGen! by Chris Wilmer'
_symmetry_space_group_name_H-M	'P1'
_symmetry_Int_Tables_number	1
_symmetry_cell_setting	triclinic
loop_
_symmetry_equiv_pos_as_xyz
  x,y,z
_cell_length_a	14.971491
_cell_length_b	19.188930
_cell_length_c	14.048226
_cell_angle_alpha	90.008728
_cell_angle_beta	90.006698
_cell_angle_gamma	83.380508
loop_
_atom_site_label
_atom_site_type_symbol
_atom_site_fract_x
_atom_site_fract_y
_atom_site_fract_z
O1	O	1.186462	0.091002	0.079212
O2	O	0.926005	0.101894	0.079207
O3	O	1.063749	-0.005183	0.079191
O4	O	1.048717	0.198080	0.079228
O5	O	1.063736	-0.005184	-0.079130
O6	O	0.925992	0.101894	-0.079115
O7	O	1.186449	0.091001	-0.079109
Zn8	Zn	1.056218	0.096447	-0.104249
Zn9	Zn	1.056235	0.096449	0.104347
O10	O	1.048704	0.198079	-0.079093
C11	C	0.892676	0.101406	0.000045
C12	C	0.793387	0.099945	0.000042
C13	C	0.365722	0.093638	0.086364
C14	C	0.459015	0.095009	0.086361
C15	C	0.505650	0.095699	0.000056
C16	C	0.458988	0.095010	-0.086250
C17	C	0.365698	0.093634	-0.086246
C18	C	0.653435	0.097880	-0.086253
C19	C	0.746731	0.099258	-0.086258
C20	C	0.746752	0.099256	0.086353
C21	C	0.653461	0.097879	0.086358
C22	C	0.606806	0.097192	0.000051
C23	C	1.063256	-0.031196	0.000028
C24	C	1.061795	-0.108705	0.000020
C25	C	1.142619	-0.153368	0.000017
C26	C	1.141246	-0.226196	0.000032
C27	C	1.059044	-0.254358	0.000031
C28	C	0.978210	-0.209686	0.000039
C29	C	0.979585	-0.136859	0.000033
N30	N	0.996207	-0.362567	-0.053850
N31	N	0.994906	-0.431750	-0.053847
C32	C	1.054896	-0.473780	0.000050
N33	N	1.116250	-0.444016	0.053932
N34	N	1.117554	-0.374827	0.053924
C35	C	1.057544	-0.333326	0.000038
C36	C	1.134237	-0.597412	0.000065
C37	C	1.132861	-0.670242	0.000086
C38	C	0.969822	-0.653730	0.000084
C39	C	0.971201	-0.580902	0.000072
C40	C	1.053411	-0.552748	0.000058
C41	C	1.219777	0.091490	0.000055
C42	C	1.319066	0.092951	0.000064
C43	C	1.049197	0.224092	0.000072
C44	C	1.050659	0.301601	0.000087
N45	N	1.056213	0.096446	-0.246609
C46	C	1.110291	0.138864	-0.296414
C47	C	1.110303	0.138861	-0.396072
C48	C	1.056230	0.096443	-0.445923
C49	C	1.002150	0.054020	-0.396111
C50	C	1.002144	0.054020	-0.296455
C51	C	1.002165	0.054025	-0.603826
C52	C	1.002169	0.054026	-0.703488
C53	C	1.110324	0.138866	-0.703442
C54	C	1.110317	0.138866	-0.603786
C55	C	1.056236	0.096444	-0.553981
N56	N	1.056248	0.096444	0.246707
H57	H	0.327758	0.093081	0.156643
O58	O	1.211356	-0.713657	0.000256
C59	C	1.215442	-0.756273	0.082248
H60	H	1.169606	-0.729631	0.139557
H61	H	1.192500	-0.809253	0.063722
C62	C	1.369113	-0.799964	0.049035
C63	C	1.312821	-0.767240	0.119426
H64	H	1.429181	-0.806733	0.071966
H65	H	1.366359	-0.771256	-0.006207
H66	H	1.349984	-0.844111	0.033602
H67	H	1.331944	-0.723090	0.134848
H68	H	1.315581	-0.795942	0.174671
H69	H	1.154344	0.173410	-0.563199
O70	O	0.889915	-0.680996	-0.000043
C71	C	0.840661	-0.658208	-0.082052
H72	H	0.864834	-0.607682	-0.109397
H73	H	0.851182	-0.700350	-0.139464
C74	C	0.710302	-0.706695	-0.023559
C75	C	0.739987	-0.644636	-0.057139
H76	H	0.648201	-0.698326	-0.008194
H77	H	0.743486	-0.722051	0.031691
H78	H	0.719077	-0.741808	-0.071407
H79	H	0.731222	-0.609528	-0.009287
H80	H	0.706798	-0.629274	-0.112381
H81	H	0.784743	0.099816	0.156627
O82	O	0.949625	0.012752	-0.751765
C83	C	0.901882	-0.024681	-0.686435
H84	H	0.938919	-0.028705	-0.615390
H85	H	0.831557	0.003984	-0.675843
C86	C	0.849205	-0.093914	-0.812607
C87	C	0.894699	-0.098862	-0.725351
H88	H	0.844770	-0.139671	-0.836614
H89	H	0.881368	-0.068693	-0.856623
H90	H	0.790606	-0.070024	-0.803769
H91	H	0.953300	-0.122743	-0.734193
H92	H	0.862545	-0.124088	-0.681338
H93	H	1.209561	-0.130450	0.000009
O94	O	0.949579	0.012916	-0.555338
C95	C	0.888364	0.055412	-0.497713
H96	H	0.915992	0.107254	-0.482769
H97	H	0.821091	0.066012	-0.536129
C98	C	0.841116	-0.046191	-0.421414
C99	C	0.875053	0.017480	-0.403053
H100	H	0.832901	-0.069590	-0.363025
H101	H	0.882356	-0.074822	-0.460239
H102	H	0.785059	-0.037349	-0.453429
H103	H	0.931114	0.008636	-0.371049
H104	H	0.833822	0.046109	-0.364219
O105	O	1.219844	-0.269492	-0.000016
C106	C	1.292698	-0.229026	-0.000001
H107	H	1.269780	-0.174695	-0.029975
H108	H	1.317923	-0.223811	0.075951
C109	C	1.397311	-0.331988	-0.025282
C110	C	1.369165	-0.265260	-0.062103
H111	H	1.444481	-0.354339	-0.063585
H112	H	1.348229	-0.359252	-0.025288
H113	H	1.418326	-0.327633	0.038011
H114	H	1.348140	-0.269616	-0.125390
H115	H	1.418245	-0.237997	-0.062109
O116	O	0.898303	-0.236957	-0.000089
C117	C	0.849047	-0.214163	-0.082096
H118	H	0.873221	-0.163637	-0.109436
H119	H	0.859565	-0.256302	-0.139511
C120	C	0.718688	-0.262651	-0.023604
C121	C	0.748373	-0.200590	-0.057180
H122	H	0.656587	-0.254282	-0.008237
H123	H	0.751873	-0.278010	0.031644
H124	H	0.727461	-0.297761	-0.071456
H125	H	0.739611	-0.165485	-0.009324
H126	H	0.715184	-0.185225	-0.112419
H127	H	0.905385	-0.544537	0.000069
H128	H	0.913766	-0.100494	0.000035
H129	H	0.958128	0.019479	-0.436708
H130	H	0.496998	0.095564	0.156635
O131	O	0.608302	0.097180	0.170277
C132	C	0.669481	0.098098	0.246453
H133	H	0.739770	0.076994	0.221149
H134	H	0.669798	0.154213	0.273005
C135	C	0.554600	0.077725	0.359056
C136	C	0.640929	0.051799	0.327979
H137	H	0.536987	0.049169	0.409347
H138	H	0.513381	0.077110	0.307735
H139	H	0.554875	0.124488	0.381176
H140	H	0.640650	0.005041	0.305849
H141	H	0.682147	0.052406	0.379298
H142	H	0.784699	0.099823	-0.156534
H143	H	0.615449	0.097329	-0.156533
O144	O	0.949557	0.012916	-0.247968
C145	C	0.888339	0.055410	-0.190342
H146	H	0.915965	0.107252	-0.175395
H147	H	0.821067	0.066010	-0.228759
C148	C	0.841094	-0.046196	-0.114049
C149	C	0.875028	0.017475	-0.095684
H150	H	0.832879	-0.069596	-0.055662
H151	H	0.882334	-0.074825	-0.152875
H152	H	0.785037	-0.037353	-0.146066
H153	H	0.931089	0.008632	-0.063679
H154	H	0.833796	0.046103	-0.056851
H155	H	0.327711	0.093082	-0.156520
O156	O	0.504402	0.095588	-0.170026
C157	C	0.568721	0.035955	-0.175217
H158	H	0.586165	0.016015	-0.100291
H159	H	0.540024	-0.006884	-0.217817
C160	C	0.632754	0.080111	-0.316583
C161	C	0.654185	0.055624	-0.224556
H162	H	0.685472	0.092242	-0.347021
H163	H	0.589420	0.120286	-0.313088
H164	H	0.608839	0.044407	-0.352070
H165	H	0.678089	0.091330	-0.189067
H166	H	0.697525	0.015456	-0.228046
O167	O	1.214170	-0.570174	0.000111
C168	C	1.285216	-0.625216	0.000102
H169	H	1.260337	-0.674704	0.030076
H170	H	1.310136	-0.635511	-0.075849
C171	C	1.393322	-0.543799	0.025382
C172	C	1.362768	-0.604580	0.062205
H173	H	1.441162	-0.531070	0.063687
H174	H	1.345458	-0.506715	0.025385
H175	H	1.414083	-0.552386	-0.037909
H176	H	1.341997	-0.595989	0.125491
H177	H	1.410630	-0.641662	0.062215
O178	O	1.162900	0.180090	-0.248140
C179	C	1.210616	0.217541	-0.313474
H180	H	1.215955	0.188643	-0.384517
H181	H	1.173553	0.272297	-0.324069
C182	C	1.299039	0.259011	-0.187306
C183	C	1.305602	0.223515	-0.274560
H184	H	1.357629	0.262700	-0.163302
H185	H	1.266889	0.233783	-0.143289
H186	H	1.268149	0.304639	-0.196148
H187	H	1.336482	0.177887	-0.265716
H188	H	1.337759	0.248737	-0.318576
O189	O	1.162706	0.180105	-0.444560
C190	C	1.107982	0.227684	-0.502194
H191	H	1.041707	0.205867	-0.517140
H192	H	1.094077	0.280152	-0.463784
C193	C	1.237915	0.265046	-0.578488
C194	C	1.156518	0.238247	-0.596852
H195	H	1.267854	0.271566	-0.636876
H196	H	1.274784	0.232994	-0.539657
H197	H	1.226316	0.308767	-0.546478
H198	H	1.168119	0.194524	-0.628850
H199	H	1.119652	0.270293	-0.635691
H200	H	1.154355	0.173411	-0.743997
