data_functionalizedCrystal
_audit_creation_method	'MofGen! by Chris Wilmer'
_symmetry_space_group_name_H-M	'P1'
_symmetry_Int_Tables_number	1
_symmetry_cell_setting	triclinic
loop_
_symmetry_equiv_pos_as_xyz
  x,y,z
_cell_length_a	27.732048
_cell_length_b	10.723024
_cell_length_c	9.198806
_cell_angle_alpha	90.002012
_cell_angle_beta	89.993586
_cell_angle_gamma	96.444738
loop_
_atom_site_label
_atom_site_type_symbol
_atom_site_fract_x
_atom_site_fract_y
_atom_site_fract_z
O1	O	0.641849	-0.148462	-0.120972
O2	O	0.501195	-0.171036	-0.120956
O3	O	0.574767	0.021961	-0.120959
O4	O	0.568278	-0.341460	-0.120969
O5	O	0.574761	0.021962	0.120826
O6	O	0.501190	-0.171036	0.120829
O7	O	0.641843	-0.148462	0.120813
Cu8	Cu	0.571516	-0.159749	0.142898
Cu9	Cu	0.571523	-0.159749	-0.143041
O10	O	0.568272	-0.341459	0.120816
C11	C	0.574291	0.068442	-0.000068
C12	C	0.572879	0.206937	-0.000073
C13	C	0.483183	-0.170562	-0.000061
C14	C	0.429519	-0.169135	-0.000055
C15	C	0.659856	-0.148936	-0.000084
C16	C	0.713519	-0.150363	-0.000100
C17	C	1.051682	-0.045297	-0.000047
C18	C	1.253375	-0.050591	-0.000042
O19	O	1.284034	0.045485	0.000023
N20	N	1.273209	-0.165030	-0.000050
C21	C	1.242617	-0.278154	-0.000049
O22	O	1.264115	-0.375614	-0.000040
C23	C	1.040925	-0.272859	-0.000043
C24	C	1.021094	-0.158412	-0.000050
C25	C	1.031850	0.069141	-0.000053
C26	C	0.981430	0.070463	-0.000062
C27	C	0.950842	-0.042652	-0.000065
C28	C	0.970674	-0.157090	-0.000059
C29	C	1.010334	-0.385982	-0.000032
C30	C	0.959908	-0.384648	-0.000026
C31	C	0.940077	-0.270201	-0.000034
C32	C	0.889665	-0.268883	-0.000072
N33	N	0.869831	-0.154443	-0.000064
C34	C	0.900419	-0.041328	-0.000061
C35	C	1.348508	-0.280927	-0.000055
C36	C	1.398931	-0.282251	-0.000059
C37	C	1.409685	-0.054687	-0.000050
C38	C	1.359261	-0.053364	-0.000056
C39	C	1.328674	-0.166487	-0.000047
C40	C	0.794533	-0.038560	-0.000081
C41	C	0.744108	-0.037247	-0.000096
C42	C	0.733358	-0.264811	-0.000098
C43	C	0.783778	-0.266124	-0.000090
C44	C	0.814365	-0.152988	-0.000077
O45	O	0.858978	-0.364907	-0.000120
O46	O	0.878911	0.056117	-0.000038
C47	C	1.102102	-0.046619	-0.000038
C48	C	1.121934	-0.161057	-0.000032
C49	C	1.091346	-0.274172	-0.000035
C50	C	1.172357	-0.162381	-0.000036
C51	C	1.202945	-0.049265	-0.000033
C52	C	1.183111	0.065174	-0.000025
C53	C	1.132691	0.066496	-0.000034
C54	C	1.111180	-0.388612	-0.000043
C55	C	1.161601	-0.389925	-0.000035
C56	C	1.192189	-0.276809	-0.000032
C57	C	0.568747	-0.387939	-0.000078
C58	C	0.570160	-0.526435	-0.000082
N59	N	0.571514	-0.159748	0.344012
C60	C	0.614045	0.283624	-0.000079
C61	C	0.612586	0.426767	-0.000085
N62	N	0.571528	-0.159740	-0.344155
C63	C	0.602405	-0.078362	0.416208
C64	C	0.602412	-0.078357	0.583620
H65	H	0.727964	0.055953	-0.000106
H66	H	1.177742	-0.483128	-0.000040
H67	H	1.434599	0.037416	-0.000052
H68	H	0.628861	-0.008684	0.645706
H69	H	0.628844	-0.008682	0.354081
H70	H	0.545072	-0.229418	0.406141
H71	H	1.343119	0.039829	-0.000061
H72	H	0.534916	0.407681	-0.000067
H73	H	0.965288	0.163658	-0.000062
H74	H	0.819431	0.053567	-0.000071
H75	H	1.056751	0.161259	-0.000045
H76	H	1.415073	-0.375445	-0.000073
H77	H	0.650369	0.243305	-0.000075
H78	H	0.536554	0.247256	-0.000078
H79	H	0.545082	-0.229426	0.593769
H80	H	1.323607	-0.373051	-0.000050
H81	H	1.086280	-0.480726	-0.000044
H82	H	0.647828	0.492658	-0.000084
H83	H	0.935006	-0.476769	-0.000013
H84	H	1.026472	-0.479177	-0.000032
H85	H	0.799926	-0.359316	-0.000086
H86	H	0.708444	-0.356906	-0.000108
H87	H	1.116549	0.159691	-0.000040
H88	H	1.208025	0.157277	-0.000031
