data_functionalizedCrystal
_audit_creation_method	'MofGen! by Chris Wilmer'
_symmetry_space_group_name_H-M	'P1'
_symmetry_Int_Tables_number	1
_symmetry_cell_setting	triclinic
loop_
_symmetry_equiv_pos_as_xyz
  x,y,z
_cell_length_a	10.654550
_cell_length_b	27.732048
_cell_length_c	26.210047
_cell_angle_alpha	90.011237
_cell_angle_beta	90.021209
_cell_angle_gamma	83.563793
loop_
_atom_site_label
_atom_site_type_symbol
_atom_site_fract_x
_atom_site_fract_y
_atom_site_fract_z
O1	O	1.665024	0.067886	0.042397
O2	O	1.299274	0.074353	0.042407
O3	O	1.493508	0.000793	0.042392
O4	O	1.470789	0.141445	0.042412
O5	O	1.493418	0.000792	-0.042466
O6	O	1.299184	0.074352	-0.042451
O7	O	1.664934	0.067884	-0.042461
Cu8	Cu	1.482051	0.071118	-0.050204
Cu9	Cu	1.482157	0.071119	0.050150
O10	O	1.470700	0.141444	-0.042446
C11	C	1.252451	0.073878	-0.000021
C12	C	1.113067	0.072457	-0.000017
C13	C	1.492986	-0.017217	-0.000038
C14	C	1.491550	-0.070881	-0.000042
C15	C	1.031761	0.115768	-0.000013
C16	C	0.900796	0.114430	-0.000022
C17	C	0.932457	0.026466	-0.000038
C18	C	1.063419	0.027805	-0.000033
C19	C	1.597290	-0.409038	-0.000019
C20	C	1.591962	-0.610730	-0.000012
O21	O	1.688653	-0.641384	0.000008
N22	N	1.476789	-0.630571	-0.000009
C23	C	1.362940	-0.599986	-0.000005
O24	O	1.264855	-0.621490	0.000003
C25	C	1.368269	-0.398294	-0.000009
C26	C	1.483449	-0.378456	-0.000016
C27	C	1.712461	-0.389199	-0.000026
C28	C	1.713792	-0.338779	-0.000031
C29	C	1.599951	-0.308197	-0.000028
C30	C	1.484780	-0.328036	-0.000021
C31	C	1.254421	-0.367709	-0.000001
C32	C	1.255764	-0.317284	-0.000000
C33	C	1.370944	-0.297446	-0.000008
C34	C	1.372271	-0.247034	-0.000023
N35	N	1.487444	-0.227193	-0.000026
C36	C	1.601284	-0.257774	-0.000028
C37	C	1.360150	-0.705877	-0.000004
C38	C	1.358817	-0.756300	-0.000004
C39	C	1.587840	-0.767041	-0.000010
C40	C	1.589171	-0.716617	-0.000014
C41	C	1.475323	-0.686036	-0.000007
C42	C	1.604070	-0.151888	-0.000038
C43	C	1.605391	-0.101463	-0.000045
C44	C	1.376369	-0.090726	-0.000037
C45	C	1.375047	-0.141147	-0.000033
C46	C	1.488908	-0.171727	-0.000032
O47	O	1.275631	-0.216352	-0.000037
O48	O	1.699354	-0.236261	-0.000025
C49	C	1.595959	-0.459458	-0.000015
C50	C	1.480788	-0.479296	-0.000007
C51	C	1.366947	-0.448715	-0.000005
C52	C	1.479455	-0.529719	-0.000007
C53	C	1.593296	-0.560301	-0.000010
C54	C	1.708469	-0.540460	-0.000013
C55	C	1.709799	-0.490040	-0.000017
C56	C	1.251774	-0.468556	-0.000002
C57	C	1.250453	-0.518976	0.000002
C58	C	1.364293	-0.549558	-0.000001
C59	C	1.711757	0.068360	-0.000032
C60	C	1.851141	0.069781	-0.000032
C61	C	1.471221	0.159455	-0.000014
C62	C	1.472657	0.213118	-0.000007
N63	N	1.481986	0.071116	-0.120788
C64	C	1.396068	0.103676	-0.526749
C65	C	1.396007	0.103676	-0.313090
O66	O	1.322807	0.131353	-0.285466
N67	N	1.482026	0.071115	-0.286372
C68	C	1.568060	0.038550	-0.313071
O69	O	1.641213	0.010852	-0.285443
C70	C	1.568113	0.038548	-0.526729
C71	C	1.482098	0.071114	-0.553445
C72	C	1.310058	0.136239	-0.553465
C73	C	1.310079	0.136240	-0.606876
C74	C	1.396109	0.103679	-0.633572
C75	C	1.482118	0.071116	-0.606856
C76	C	1.654140	0.005981	-0.553427
C77	C	1.654144	0.005983	-0.606845
C78	C	1.568128	0.038549	-0.633561
C79	C	1.568169	0.038556	-0.686963
N80	N	1.482150	0.071116	-0.713682
C81	C	1.396120	0.103678	-0.686986
C82	C	1.568027	0.038554	-0.200898
C83	C	1.568015	0.038555	-0.147484
C84	C	1.395961	0.103680	-0.147506
C85	C	1.395980	0.103681	-0.200922
C86	C	1.482009	0.071115	-0.227616
C87	C	1.396171	0.103679	-0.799154
C88	C	1.396202	0.103679	-0.852570
C89	C	1.568252	0.038552	-0.852543
C90	C	1.568225	0.038554	-0.799131
C91	C	1.482174	0.071119	-0.772438
O92	O	1.641321	0.010889	-0.714620
O93	O	1.322959	0.131364	-0.714623
C94	C	1.396047	0.103674	-0.473337
C95	C	1.482057	0.071111	-0.446622
C96	C	1.568086	0.038550	-0.473317
C97	C	1.482045	0.071112	-0.393208
C98	C	1.396015	0.103674	-0.366512
C99	C	1.309997	0.136234	-0.393230
C100	C	1.310017	0.136236	-0.446642
C101	C	1.654105	0.005989	-0.446599
C102	C	1.654078	0.005991	-0.393187
C103	C	1.568048	0.038552	-0.366492
N104	N	1.482232	0.071117	0.120734
H105	H	1.072179	0.152126	-0.000004
H106	H	0.834601	0.149698	-0.000019
H107	H	1.696787	-0.176781	-0.000036
H108	H	1.156652	-0.535123	0.000004
H109	H	0.892017	-0.009888	-0.000054
H110	H	1.129623	-0.007466	-0.000038
Cl111	Cl	1.750200	-0.076527	-0.000054
Cl112	Cl	1.858598	-0.313847	-0.000026
Cl113	Cl	1.287809	0.144613	-0.113936
H114	H	1.265026	-0.772447	-0.000007
Cl115	Cl	1.855595	-0.427636	-0.000031
H116	H	1.682961	-0.700469	-0.000020
H117	H	1.724133	-0.020527	-0.371439
Cl118	Cl	1.730952	-0.805496	-0.000011
Cl119	Cl	1.217010	-0.667439	0.000004
H120	H	1.160629	-0.383852	0.000009
H121	H	1.638300	0.012042	-0.874287
H122	H	1.163052	-0.292386	0.000006
H123	H	1.724198	-0.020538	-0.628578
Cl124	Cl	1.230248	-0.166087	-0.000032
Cl125	Cl	1.676375	-0.002383	-0.765547
H126	H	1.239997	0.162754	-0.531734
H127	H	1.724181	-0.020537	-0.531683
H128	H	1.638085	0.012034	-0.222629
H129	H	1.283683	-0.065817	-0.000036
Cl130	Cl	1.854606	-0.465108	-0.000023
H131	H	1.801162	-0.565368	-0.000017
H132	H	1.240035	0.162757	-0.628625
Cl133	Cl	1.676170	-0.002380	-0.113904
H134	H	1.239975	0.162754	-0.468390
H135	H	1.724159	-0.020527	-0.468330
Cl136	Cl	1.201849	0.177169	-0.359660
H137	H	1.159069	-0.443660	0.000001
Cl138	Cl	1.288063	0.144622	-0.886153
Cl139	Cl	1.287992	0.144619	-0.765605
H140	H	1.325938	0.130199	-0.222670
