data_functionalizedCrystal
_audit_creation_method	'MofGen! by Chris Wilmer'
_symmetry_space_group_name_H-M	'P1'
_symmetry_Int_Tables_number	1
_symmetry_cell_setting	triclinic
loop_
_symmetry_equiv_pos_as_xyz
  x,y,z
_cell_length_a	10.686220
_cell_length_b	19.120904
_cell_length_c	19.121063
_cell_angle_alpha	94.741613
_cell_angle_beta	96.652836
_cell_angle_gamma	96.594686
loop_
_atom_site_label
_atom_site_type_symbol
_atom_site_fract_x
_atom_site_fract_y
_atom_site_fract_z
Zn1	Zn	1.887718	-0.325674	-0.212808
Zn2	Zn	1.887561	-0.213032	-0.325462
Zn3	Zn	1.684730	-0.217070	-0.216874
Zn4	Zn	1.665723	-0.340535	-0.340349
O5	O	1.781433	-0.274078	-0.273873
O6	O	2.065489	-0.302822	-0.219820
O7	O	1.868543	-0.114756	-0.306529
O8	O	1.719677	-0.226947	-0.117513
O9	O	2.065373	-0.220065	-0.302586
O10	O	1.868811	-0.306738	-0.114526
O11	O	1.719524	-0.117722	-0.226749
O12	O	1.504417	-0.241357	-0.241185
O13	O	1.687283	-0.437375	-0.327959
O14	O	1.490453	-0.332066	-0.331902
O15	O	1.850382	-0.426457	-0.234255
O16	O	1.850114	-0.234475	-0.426257
O17	O	1.687130	-0.328151	-0.437195
C18	C	1.451336	-0.288763	-0.288600
C19	C	1.310116	-0.295063	-0.294919
C20	C	1.766730	-0.458253	-0.282314
C21	C	1.760464	-0.536738	-0.285911
C22	C	1.842433	-0.567927	-0.238817
C23	C	1.836530	-0.641672	-0.242195
C24	C	1.748664	-0.684227	-0.292671
C25	C	1.666686	-0.653033	-0.339767
C26	C	1.672584	-0.579289	-0.336386
C27	C	1.726604	-0.907171	-0.305319
C28	C	1.720715	-0.980919	-0.308698
C29	C	1.890558	-0.969553	-0.211124
C30	C	1.896453	-0.895808	-0.207750
C31	C	1.814471	-0.864621	-0.254844
C32	C	1.742631	-0.759607	-0.296126
C33	C	1.820499	-0.789243	-0.251385
C34	C	2.112819	-0.259335	-0.259089
C35	C	2.254036	-0.253053	-0.252788
C36	C	1.766576	-0.282501	-0.457349
C37	C	1.760334	-0.286123	-0.535836
C38	C	1.796156	-0.090613	-0.265411
C39	C	1.802684	-0.012108	-0.261604
C40	C	1.842318	-0.239087	-0.566991
C41	C	1.836455	-0.242497	-0.640738
C42	C	1.748601	-0.292941	-0.683330
C43	C	1.666613	-0.339982	-0.652171
C44	C	1.672483	-0.336574	-0.578424
C45	C	1.726634	-0.305671	-0.906282
C46	C	1.720768	-0.309073	-0.980034
C47	C	1.890612	-0.211590	-0.968596
C48	C	1.896470	-0.208184	-0.894849
C49	C	1.814486	-0.255227	-0.863696
C50	C	1.742603	-0.296426	-0.758712
C51	C	1.820491	-0.251744	-0.788315
C52	C	1.796382	-0.265635	-0.089680
C53	C	1.802752	-0.262038	-0.011188
H54	H	1.903281	-0.667063	-0.203847
H55	H	1.659878	-0.343974	-0.880924
O56	O	1.981936	-0.159166	-0.853580
C57	C	2.149745	-0.062817	-0.850021
C58	C	2.053035	-0.118305	-0.896841
H59	H	2.207236	-0.029757	-0.884979
H60	H	2.216373	-0.090683	-0.813990
H61	H	2.097148	-0.026897	-0.816427
H62	H	2.105526	-0.154241	-0.930479
H63	H	1.986411	-0.090393	-0.932826
O64	O	1.238567	-0.343652	-0.343816
C65	C	1.185379	-0.385082	-0.467353
C66	C	1.266460	-0.330002	-0.412056
H67	H	1.207922	-0.374075	-0.522536
H68	H	1.080402	-0.381667	-0.463992
H69	H	1.207854	-0.440319	-0.456459
H70	H	1.244096	-0.274740	-0.422914
H71	H	1.371414	-0.333479	-0.415429
O72	O	1.906001	-0.202811	-0.746973
C73	C	2.126685	-0.157928	-0.713125
C74	C	2.029991	-0.213397	-0.759980
H75	H	2.226951	-0.166458	-0.723636
H76	H	2.116902	-0.163573	-0.655053
H77	H	2.107770	-0.102650	-0.726036
H78	H	2.048845	-0.268700	-0.747132
H79	H	2.039796	-0.207690	-0.818039
H80	H	1.605724	-0.374876	-0.553059
H81	H	1.913854	-0.198008	-0.532317
H82	H	1.595139	-0.687688	-0.380864
H83	H	1.605824	-0.553897	-0.374728
H84	H	1.595085	-0.381057	-0.686855
H85	H	1.649160	-1.015566	-0.349804
H86	H	1.671069	-0.337496	-0.793399
H87	H	1.314061	-0.212266	-0.211886
O88	O	1.927825	-0.526697	-0.189720
C89	C	2.095707	-0.523214	-0.093322
C90	C	1.999043	-0.569988	-0.148881
H91	H	2.153330	-0.558196	-0.060298
H92	H	2.043198	-0.489604	-0.057367
H93	H	2.162217	-0.487206	-0.121209
H94	H	1.932506	-0.606038	-0.121054
H95	H	2.051634	-0.603550	-0.184833
O96	O	1.635391	-0.358145	-1.021305
C97	C	1.467514	-0.454458	-1.024872
C98	C	1.564153	-0.398935	-0.978050
H99	H	1.409873	-0.487442	-0.989920
H100	H	1.520045	-0.490449	-1.058432
H101	H	1.401016	-0.426550	-1.060936
H102	H	1.630677	-0.426784	-0.941944
H103	H	1.511539	-0.362948	-0.944537
H104	H	1.968006	-0.861164	-0.166649
H105	H	1.892034	-0.754592	-0.210285
O106	O	1.970052	-0.999965	-0.165408
C107	C	2.036290	-1.108533	-0.127394
C108	C	1.946171	-1.074185	-0.179204
H109	H	2.017033	-1.168544	-0.138540
H110	H	2.019750	-1.092466	-0.070771
H111	H	2.138881	-1.090005	-0.134549
H112	H	1.843547	-1.092695	-0.172113
H113	H	1.962821	-1.090250	-0.235808
H114	H	1.957360	-0.173291	-0.993969
H115	H	1.659866	-0.881787	-0.343676
O116	O	1.657349	-0.800872	-0.345252
C117	C	1.584186	-0.831731	-0.469160
C118	C	1.680825	-0.784940	-0.413602
H119	H	1.603149	-0.818877	-0.524434
H120	H	1.483876	-0.821211	-0.460729
H121	H	1.594043	-0.889788	-0.463443
H122	H	1.671084	-0.726867	-0.419286
H123	H	1.781096	-0.795520	-0.422050
O124	O	1.915995	-0.196876	-0.671139
C125	C	1.934501	-0.104763	-0.749426
C126	C	1.844219	-0.156344	-0.715025
H127	H	1.876506	-0.071969	-0.784904
H128	H	1.995406	-0.135951	-0.782434
H129	H	1.998443	-0.068145	-0.706360
H130	H	1.780197	-0.192973	-0.758045
H131	H	1.783402	-0.125111	-0.682001
