data_functionalizedCrystal
_audit_creation_method	'MofGen! by Chris Wilmer'
_symmetry_space_group_name_H-M	'P1'
_symmetry_Int_Tables_number	1
_symmetry_cell_setting	triclinic
loop_
_symmetry_equiv_pos_as_xyz
  x,y,z
_cell_length_a	19.805405
_cell_length_b	21.295418
_cell_length_c	19.805398
_cell_angle_alpha	89.964511
_cell_angle_beta	90.030326
_cell_angle_gamma	89.955382
loop_
_atom_site_label
_atom_site_type_symbol
_atom_site_fract_x
_atom_site_fract_y
_atom_site_fract_z
Zn1	Zn	-0.269143	-0.962297	0.383116
Zn2	Zn	-0.382333	-0.962230	0.269924
Zn3	Zn	-0.269200	-0.857043	0.269896
Zn4	Zn	-0.382331	-0.856997	0.383027
O5	O	-0.325752	-0.909642	0.326491
O6	O	-0.284135	-1.050377	0.368150
O7	O	-0.367351	-0.948267	0.175204
O8	O	-0.174476	-0.871052	0.284940
O9	O	-0.367296	-1.050328	0.284988
O10	O	-0.174434	-0.948382	0.368122
O11	O	-0.284232	-0.870987	0.175183
O12	O	-0.284230	-0.768947	0.284854
O13	O	-0.367292	-0.870974	0.477755
O14	O	-0.367347	-0.768914	0.367971
O15	O	-0.284133	-0.948338	0.477820
O16	O	-0.477050	-0.948223	0.284902
O17	O	-0.477048	-0.870909	0.367998
C18	C	-0.501608	-0.909571	0.326458
C19	C	-0.576840	-0.909598	0.326466
C20	C	-0.325795	-0.746090	0.326400
C21	C	-0.325830	-0.676122	0.326377
C22	C	-0.612162	-0.949894	0.283244
C23	C	-0.682851	-0.949921	0.283259
C24	C	-0.718215	-0.909648	0.326493
C25	C	-0.682888	-0.869350	0.369721
C26	C	-0.612201	-0.869327	0.369709
C27	C	-0.967961	-0.869442	0.369771
C28	C	-1.038653	-0.869467	0.369778
C29	C	-1.038611	-0.950037	0.283321
C30	C	-0.967924	-0.950014	0.283309
C31	C	-0.932603	-0.909718	0.326539
C32	C	-0.855954	-0.909691	0.326523
C33	C	-0.794863	-0.909672	0.326506
C34	C	-0.369168	-0.643254	0.369589
C35	C	-0.369154	-0.577512	0.369614
C36	C	-0.325809	-0.544639	0.326416
C37	C	-0.282463	-0.577515	0.283201
C38	C	-0.282473	-0.643256	0.283182
N39	N	-0.320527	-0.441375	0.267208
N40	N	-0.320521	-0.378923	0.267228
C41	C	-0.325775	-0.346565	0.326472
N42	N	-0.331048	-0.379017	0.385697
N43	N	-0.331057	-0.441474	0.385676
C44	C	-0.325793	-0.473354	0.326432
C45	C	-0.369100	-0.242411	0.369715
C46	C	-0.369082	-0.176668	0.369741
C47	C	-0.282394	-0.176672	0.283323
C48	C	-0.282409	-0.242415	0.283302
C49	C	-0.325766	-0.275280	0.326497
C50	C	-0.149209	-0.909730	0.326538
C51	C	-0.073977	-0.909767	0.326559
C52	C	-0.325706	-0.909658	0.503033
C53	C	-0.325687	-0.909666	0.578265
C54	C	-0.325721	-0.073832	0.326562
C55	C	-0.325736	-0.143800	0.326543
C56	C	-0.325749	-0.909661	0.150635
C57	C	-0.325577	-0.909776	0.075403
C58	C	-0.368859	-0.950005	1.040065
C59	C	-0.368877	-0.949987	0.969376
C60	C	-0.325610	-0.909744	0.934027
C61	C	-0.282327	-0.869510	0.969370
C62	C	-0.282312	-0.869525	1.040058
C63	C	-0.282385	-0.869450	0.684297
C64	C	-0.282401	-0.869439	0.613605
C65	C	-0.368950	-0.949912	0.613616
C66	C	-0.368935	-0.949926	0.684303
C67	C	-0.325655	-0.909691	0.719640
C68	C	-0.325636	-0.909710	0.796288
C69	C	-0.325625	-0.909728	0.857380
H70	H	-0.583373	-0.982687	0.248034
H71	H	-0.939132	-0.982806	0.248101
F72	F	-0.236349	-0.826604	0.575985
H73	H	-1.067378	-0.982850	0.248124
F74	F	-0.414907	-0.992842	1.077680
F75	F	-0.720440	-0.992812	0.237257
H76	H	-1.067445	-0.836673	0.404990
H77	H	-0.939208	-0.836631	0.404969
F78	F	-0.720528	-0.826491	0.415739
H79	H	-0.247144	-0.836687	0.713060
H80	H	-0.247101	-0.836741	0.940584
H81	H	-0.583442	-0.836514	0.404906
H82	H	-0.404193	-0.982671	0.584836
H83	H	-0.404471	-0.670009	0.404763
H84	H	-0.404372	-0.149908	0.404934
F85	F	-0.236330	-0.542529	0.237229
H86	H	-0.247099	-0.149908	0.248153
H87	H	-0.404445	-0.550746	0.404805
F88	F	-0.236244	-0.826711	1.077667
F89	F	-0.236344	-0.678237	0.237189
H90	H	-0.247122	-0.269176	0.248111
F91	F	-0.415240	-0.277392	0.415690
F92	F	-0.414943	-0.992805	0.931770
H93	H	-0.404165	-0.982699	0.713081
