data_functionalizedCrystal
_audit_creation_method	'MofGen! by Chris Wilmer'
_symmetry_space_group_name_H-M	'P1'
_symmetry_Int_Tables_number	1
_symmetry_cell_setting	triclinic
loop_
_symmetry_equiv_pos_as_xyz
  x,y,z
_cell_length_a	27.732048
_cell_length_b	15.944493
_cell_length_c	26.809956
_cell_angle_alpha	90.015497
_cell_angle_beta	90.009578
_cell_angle_gamma	83.058849
loop_
_atom_site_label
_atom_site_type_symbol
_atom_site_fract_x
_atom_site_fract_y
_atom_site_fract_z
O1	O	0.062206	1.113755	0.041478
O2	O	0.069921	0.869098	0.041482
O3	O	-0.004301	0.999025	0.041470
O4	O	0.136428	0.983828	0.041490
O5	O	-0.004301	0.998985	-0.041489
O6	O	0.069921	0.869058	-0.041478
O7	O	0.062206	1.113716	-0.041481
Zn8	Zn	0.066063	0.991381	-0.054651
Zn9	Zn	0.066064	0.991433	0.054652
O10	O	0.136428	0.983788	-0.041470
C11	C	0.069606	0.837788	0.000002
C12	C	0.068660	0.744551	0.000003
C13	C	0.112349	0.508220	0.000009
C14	C	0.088789	0.457950	-0.040899
C15	C	0.066909	0.573853	0.000002
C16	C	0.088779	0.457994	0.040892
C17	C	0.065220	0.408966	0.000003
C18	C	0.043361	0.524811	-0.040941
C19	C	0.043357	0.524859	0.040888
C20	C	0.019764	0.474622	-0.000031
C21	C	0.067883	0.668840	0.000001
C22	C	0.064242	0.313981	0.000000
C23	C	-0.022310	0.998686	-0.000011
C24	C	-0.075968	0.997726	-0.000015
C25	C	-0.414486	1.068457	0.000010
C26	C	-0.616160	1.064893	0.000017
O27	O	-0.647144	1.129571	0.000038
N28	N	-0.635608	0.987851	0.000018
C29	C	-0.604635	0.911696	0.000020
O30	O	-0.625804	0.846085	0.000025
C31	C	-0.402961	0.915260	0.000016
C32	C	-0.383516	0.992307	0.000011
C33	C	-0.395040	1.145497	0.000005
C34	C	-0.344624	1.146387	0.000001
C35	C	-0.313654	1.070237	0.000001
C36	C	-0.333100	0.993197	0.000006
C37	C	-0.371988	0.839106	0.000022
C38	C	-0.321567	0.840004	0.000022
C39	C	-0.302122	0.917050	0.000017
C40	C	-0.251714	0.917937	0.000002
N41	N	-0.232266	0.994979	0.000002
C42	C	-0.263236	1.071129	0.000001
C43	C	-0.710516	0.909829	0.000020
C44	C	-0.760935	0.908938	0.000020
C45	C	-0.772457	1.062136	0.000019
C46	C	-0.722038	1.063026	0.000015
C47	C	-0.691068	0.986871	0.000020
C48	C	-0.157359	1.072992	-0.000009
C49	C	-0.106938	1.073876	-0.000015
C50	C	-0.095421	0.920679	-0.000011
C51	C	-0.145837	0.919795	-0.000007
C52	C	-0.176805	0.995958	-0.000004
O53	O	-0.220703	0.853293	-0.000013
O54	O	-0.242057	1.136729	0.000007
C55	C	-0.464901	1.067567	0.000015
C56	C	-0.484347	0.990526	0.000020
C57	C	-0.453377	0.914377	0.000020
C58	C	-0.534765	0.989635	0.000020
C59	C	-0.565735	1.065785	0.000019
C60	C	-0.546287	1.142826	0.000018
C61	C	-0.495871	1.143717	0.000014
C62	C	-0.472825	0.837335	0.000021
C63	C	-0.523241	0.836451	0.000025
C64	C	-0.554211	0.912601	0.000024
C65	C	0.154436	0.984127	0.000013
C66	C	0.208095	0.985088	0.000020
C67	C	0.062521	1.145026	-0.000000
C68	C	0.063467	1.238262	0.000002
N69	N	0.066063	0.991351	-0.129247
C70	C	0.095387	1.041984	-0.473869
C71	C	0.095387	1.042011	-0.682747
O72	O	0.120314	1.085038	-0.709748
N73	N	0.066059	0.991453	-0.708874
C74	C	0.036726	0.940889	-0.682778
O75	O	0.011777	0.897894	-0.709793
C76	C	0.036724	0.940867	-0.473901
C77	C	0.066058	0.991422	-0.447777
C78	C	0.124718	1.092535	-0.447745
C79	C	0.124720	1.092524	-0.395529
C80	C	0.095391	1.041962	-0.369437
C81	C	0.066060	0.991411	-0.395561
C82	C	0.007389	0.890308	-0.447806
C83	C	0.007391	0.890309	-0.395584
C84	C	0.036724	0.940863	-0.369460
C85	C	0.036732	0.940838	-0.317252
N86	N	0.066060	0.991396	-0.291126
C87	C	0.095390	1.041958	-0.317218
C88	C	0.036730	0.940903	-0.792441
C89	C	0.036731	0.940907	-0.844660
C90	C	0.095391	1.042030	-0.844626
C91	C	0.095392	1.042021	-0.792406
C92	C	0.066058	0.991461	-0.766314
C93	C	0.095391	1.041931	-0.207560
C94	C	0.095392	1.041913	-0.155339
C95	C	0.036730	0.940794	-0.155378
C96	C	0.036731	0.940808	-0.207594
C97	C	0.066063	0.991383	-0.233684
O98	O	0.011814	0.897840	-0.290219
O99	O	0.120327	1.084961	-0.290193
C100	C	0.095385	1.041994	-0.526086
C101	C	0.066054	0.991443	-0.552210
C102	C	0.036725	0.940881	-0.526118
C103	C	0.066055	0.991447	-0.604429
C104	C	0.095385	1.042009	-0.630521
C105	C	0.124713	1.092567	-0.604394
C106	C	0.124715	1.092556	-0.552178
C107	C	0.007397	0.890323	-0.552244
C108	C	0.007398	0.890338	-0.604461
C109	C	0.036727	0.940900	-0.630553
N110	N	0.066060	0.991469	0.129248
H111	H	-0.091109	1.136619	-0.000021
O112	O	0.123900	1.091104	-0.130040
C113	C	0.149793	1.135718	-0.164271
H114	H	0.129781	1.140885	-0.201496
H115	H	0.187726	1.100620	-0.169828
C116	C	0.178448	1.218535	-0.098154
C117	C	0.153867	1.224888	-0.143872
H118	H	0.180963	1.273539	-0.085570
H119	H	0.161005	1.188476	-0.075091
H120	H	0.210056	1.189284	-0.102791
H121	H	0.122257	1.254130	-0.139234
H122	H	0.171305	1.254955	-0.166934
H123	H	-0.016488	0.849162	-0.625727
H124	H	0.107978	0.428821	0.075472
O125	O	0.159014	0.526411	-0.000007
C126	C	0.159292	0.614776	0.000423
H127	H	0.123507	0.646250	0.016390
H128	H	0.163926	0.638129	-0.039274
C129	C	0.245625	0.598582	0.013340
C130	C	0.201675	0.637239	0.032954
H131	H	0.271771	0.612439	0.033404
H132	H	0.245439	0.539049	0.013048
H133	H	0.249481	0.618047	-0.019741
H134	H	0.197818	0.617766	0.066032
H135	H	0.201862	0.696770	0.033253
O136	O	0.020519	0.559606	-0.082229
C137	C	0.021708	0.647757	-0.081734
H138	H	0.053209	0.663336	-0.057489
H139	H	-0.013896	0.680274	-0.065924
C140	C	-0.010140	0.659940	-0.165083
C141	C	0.028553	0.679075	-0.135307
H142	H	-0.005920	0.679261	-0.198129
H143	H	-0.010943	0.600552	-0.165415
H144	H	-0.039806	0.687040	-0.151901
H145	H	0.058218	0.651968	-0.148485
H146	H	0.029361	0.738460	-0.134978
O147	O	-0.703174	1.137889	0.000103
C148	C	-0.719009	1.184295	0.043061
H149	H	-0.729492	1.139243	0.073091
H150	H	-0.751871	1.231529	0.033345
C151	C	-0.664878	1.287373	0.025663
C152	C	-0.677750	1.232038	0.062547
H153	H	-0.639429	1.316827	0.037682
H154	H	-0.654211	1.256111	-0.003280
H155	H	-0.692267	1.326727	0.017570
H156	H	-0.650363	1.192680	0.070635
H157	H	-0.688412	1.263295	0.091492
O158	O	-0.065400	0.846633	-0.000029
C159	C	-0.093370	0.778435	-0.000008
H160	H	-0.131002	0.800234	-0.015718
H161	H	-0.096955	0.754818	0.039794
C162	C	-0.022026	0.679620	-0.013237
C163	C	-0.068245	0.706392	-0.032536
H164	H	-0.006527	0.635179	-0.033300
H165	H	-0.003182	0.725566	-0.013249
H166	H	-0.025020	0.659945	0.019931
H167	H	-0.065250	0.726076	-0.065702
H168	H	-0.087088	0.660448	-0.032531
O169	O	0.123914	1.090936	-0.232953
C170	C	0.156893	1.039295	-0.263154
H171	H	0.141833	0.977174	-0.271001
H172	H	0.193222	1.025950	-0.243022
C173	C	0.182684	1.161122	-0.303104
C174	C	0.164185	1.084828	-0.312745
H175	H	0.187185	1.189210	-0.333693
H176	H	0.160467	1.195915	-0.282756
H177	H	0.212957	1.149991	-0.286326
H178	H	0.133911	1.095961	-0.329517
H179	H	0.186398	1.050038	-0.333097
O180	O	-0.187368	1.147053	-0.000030
C181	C	-0.159385	1.215233	-0.000023
H182	H	-0.121759	1.193392	-0.015730
H183	H	-0.155785	1.238901	0.039775
C184	C	-0.230716	1.314066	-0.013268
C185	C	-0.184506	1.287242	-0.032564
H186	H	-0.246213	1.358487	-0.033339
H187	H	-0.249570	1.268133	-0.013271
H188	H	-0.227710	1.333784	0.019897
H189	H	-0.187513	1.267515	-0.065725
H190	H	-0.165653	1.333174	-0.032567
O191	O	0.111603	0.423072	-0.082185
C192	C	0.078581	0.382353	-0.110702
H193	H	0.039880	0.410767	-0.101573
H194	H	0.083217	0.312027	-0.101523
C195	C	0.136058	0.359589	-0.177799
C196	C	0.088525	0.394493	-0.166589
H197	H	0.142193	0.367073	-0.212273
H198	H	0.158307	0.387019	-0.158586
H199	H	0.139916	0.300987	-0.170146
H200	H	0.084669	0.453095	-0.174236
H201	H	0.066275	0.367072	-0.185805
O202	O	-0.026973	0.456815	-0.000152
C203	C	-0.050750	0.491185	-0.043330
H204	H	-0.022682	0.500029	-0.073332
H205	H	-0.072065	0.554914	-0.033963
C206	C	-0.120320	0.419834	-0.025773
C207	C	-0.085846	0.430690	-0.062623
H208	H	-0.141971	0.382521	-0.037673
H209	H	-0.104302	0.396680	0.003319
H210	H	-0.138077	0.472946	-0.017970
H211	H	-0.068086	0.377581	-0.070421
H212	H	-0.101862	0.453833	-0.091716
O213	O	0.153248	1.141708	-0.629668
C214	C	0.179128	1.186352	-0.595418
H215	H	0.181948	1.151544	-0.558200
H216	H	0.159230	1.252540	-0.589854
C217	C	0.227008	1.235483	-0.661508
C218	C	0.230474	1.192726	-0.615797
H219	H	0.258679	1.239419	-0.674080
H220	H	0.209570	1.205408	-0.684584
H221	H	0.210423	1.290635	-0.656865
H222	H	0.247053	1.137572	-0.620442
H223	H	0.247916	1.222792	-0.592723
O224	O	0.008222	0.891702	-0.767177
C225	C	-0.017667	0.847100	-0.801441
H226	H	0.002346	0.841951	-0.838660
H227	H	-0.055601	0.882197	-0.806997
C228	C	-0.046322	0.764251	-0.735375
C229	C	-0.021739	0.757920	-0.781086
H230	H	-0.048836	0.709241	-0.722819
H231	H	-0.028881	0.794302	-0.712291
H232	H	-0.077931	0.793501	-0.740012
H233	H	0.009871	0.728680	-0.776448
H234	H	-0.039174	0.727862	-0.804170
O235	O	-0.425170	1.219420	-0.000063
C236	C	-0.454674	1.223483	-0.043035
H237	H	-0.457233	1.156839	-0.057356
H238	H	-0.438085	1.261602	-0.073123
C239	C	-0.502713	1.348307	-0.012399
C240	C	-0.505859	1.266453	-0.029986
H241	H	-0.534286	1.374816	-0.004350
H242	H	-0.482834	1.345572	0.016552
H243	H	-0.488887	1.380062	-0.037475
H244	H	-0.519680	1.234697	-0.004908
H245	H	-0.525742	1.269184	-0.058932
H246	H	-0.797682	1.124140	0.000018
H247	H	-0.016488	0.849150	-0.531005
H248	H	0.148605	1.133695	-0.374263
O249	O	-0.477009	1.218582	0.000101
C250	C	-0.492843	1.264986	0.043060
H251	H	-0.503322	1.219931	0.073091
H252	H	-0.525708	1.312215	0.033347
C253	C	-0.438719	1.368073	0.025657
C254	C	-0.451585	1.312735	0.062543
H255	H	-0.413271	1.397530	0.037674
H256	H	-0.428053	1.336812	-0.003287
H257	H	-0.466110	1.407423	0.017566
H258	H	-0.424197	1.273380	0.070628
H259	H	-0.462246	1.343991	0.091488
H260	H	0.024181	0.554072	0.075469
O261	O	-0.325819	1.221305	0.000021
C262	C	-0.363973	1.288316	0.000010
H263	H	-0.398219	1.265221	0.015716
H264	H	-0.371115	1.311755	-0.039789
C265	C	-0.307683	1.389417	0.013253
C266	C	-0.349743	1.361052	0.032548
H267	H	-0.298905	1.434286	0.033322
H268	H	-0.281978	1.344271	0.013259
H269	H	-0.313641	1.408944	-0.019912
H270	H	-0.343783	1.341516	0.065711
H271	H	-0.375447	1.406197	0.032549
H272	H	0.012850	0.899730	-0.865926
O273	O	0.123897	1.091211	-0.767108
C274	C	0.149793	1.135816	-0.801342
H275	H	0.129783	1.140977	-0.838568
H276	H	0.187726	1.100716	-0.806895
C277	C	0.178445	1.218647	-0.735229
C278	C	0.153867	1.224991	-0.780949
H279	H	0.180961	1.273652	-0.722650
H280	H	0.161001	1.188594	-0.712165
H281	H	0.210054	1.189393	-0.739863
H282	H	0.122257	1.254234	-0.776314
H283	H	0.171306	1.255051	-0.804013
O284	O	-0.680505	0.835770	-0.000002
C285	C	-0.708488	0.767590	0.000010
H286	H	-0.746119	0.789416	-0.015694
H287	H	-0.712074	0.743958	0.039809
C288	C	-0.637161	0.668745	-0.013239
C289	C	-0.683378	0.695551	-0.032531
H290	H	-0.621671	0.624306	-0.033309
H291	H	-0.618307	0.714678	-0.013245
H292	H	-0.640156	0.649058	0.019927
H293	H	-0.680382	0.715247	-0.065693
H294	H	-0.702231	0.649619	-0.032532
H295	H	-0.016498	0.849142	-0.469068
O296	O	-0.390789	0.764187	0.000052
C297	C	-0.352633	0.697178	0.000043
H298	H	-0.318383	0.720293	0.015744
H299	H	-0.345504	0.673696	-0.039755
C300	C	-0.408917	0.596088	0.013300
C301	C	-0.366851	0.624476	0.032589
H302	H	-0.417687	0.551240	0.033374
H303	H	-0.434623	0.641232	0.013304
H304	H	-0.402970	0.576525	-0.019864
H305	H	-0.372800	0.644048	0.065750
H306	H	-0.341146	0.579333	0.032591
H307	H	-0.571512	1.204830	0.000016
H308	H	-0.776762	0.846199	0.000016
H309	H	-0.296353	0.777987	0.000027
O310	O	0.153257	1.141675	-0.473009
C311	C	0.179131	1.186301	-0.438743
H312	H	0.181934	1.151483	-0.401528
H313	H	0.159237	1.252493	-0.433180
C314	C	0.227041	1.235431	-0.504808
C315	C	0.230486	1.192663	-0.459101
H316	H	0.258718	1.239359	-0.517367
H317	H	0.209608	1.205368	-0.527894
H318	H	0.210460	1.290587	-0.500166
H319	H	0.247061	1.137506	-0.463745
H320	H	0.247923	1.222717	-0.436016
H321	H	-0.161670	0.857057	-0.000016
O322	O	-0.021118	0.841113	-0.370317
C323	C	-0.047014	0.796515	-0.404577
H324	H	-0.027005	0.791361	-0.441798
H325	H	-0.084947	0.831619	-0.410130
C326	C	-0.075668	0.713675	-0.338506
C327	C	-0.051089	0.707338	-0.384220
H328	H	-0.078184	0.658668	-0.325949
H329	H	-0.058222	0.743723	-0.315424
H330	H	-0.107276	0.742931	-0.343139
H331	H	-0.019480	0.678092	-0.379585
H332	H	-0.068530	0.677283	-0.407301
H333	H	-0.539068	0.773706	0.000025
H334	H	-0.447614	0.775323	0.000022
H335	H	0.012851	0.899631	-0.228866
H336	H	0.119274	1.083197	-0.865879
H337	H	0.012852	0.899625	-0.134124
H338	H	0.148601	1.133723	-0.530912
