data_functionalizedCrystal
_audit_creation_method	'MofGen! by Chris Wilmer'
_symmetry_space_group_name_H-M	'P1'
_symmetry_Int_Tables_number	1
_symmetry_cell_setting	triclinic
loop_
_symmetry_equiv_pos_as_xyz
  x,y,z
_cell_length_a	23.532407
_cell_length_b	19.188879
_cell_length_c	18.266242
_cell_angle_alpha	90.014926
_cell_angle_beta	89.996399
_cell_angle_gamma	97.013622
loop_
_atom_site_label
_atom_site_type_symbol
_atom_site_fract_x
_atom_site_fract_y
_atom_site_fract_z
O1	O	-0.755431	0.084758	0.060805
O2	O	-0.589591	0.097022	0.060829
O3	O	-0.677312	-0.010783	0.060793
O4	O	-0.667710	0.192564	0.060840
O5	O	-0.677297	-0.010786	-0.060969
O6	O	-0.589577	0.097019	-0.060933
O7	O	-0.755416	0.084755	-0.060957
Zn8	Zn	-0.672494	0.090887	-0.080278
Zn9	Zn	-0.672513	0.090891	0.080149
O10	O	-0.667695	0.192561	-0.060922
C11	C	-0.568367	0.096709	-0.000050
C12	C	-0.505148	0.095770	-0.000042
C13	C	-0.676998	-0.036795	-0.000092
C14	C	-0.676079	-0.114299	-0.000105
C15	C	-0.776640	0.085069	-0.000077
C16	C	-0.839859	0.086008	-0.000080
C17	C	-0.106160	0.153677	-0.000061
C18	C	-0.046758	0.152805	-0.000066
O19	O	-0.010119	0.206486	-0.000080
N20	N	-0.024005	0.088715	-0.000080
C21	C	-0.060658	0.025493	-0.000096
O22	O	-0.035850	-0.029101	-0.000109
C23	C	-0.120059	0.026366	-0.000097
C24	C	-0.142808	0.090460	-0.000076
C25	C	-0.128910	0.217767	-0.000041
C26	C	-0.188307	0.218638	-0.000035
C27	C	-0.224955	0.155421	-0.000049
C28	C	-0.202206	0.091332	-0.000070
C29	C	-0.156710	-0.036856	-0.000119
C30	C	-0.216114	-0.035977	-0.000120
C31	C	-0.238864	0.028117	-0.000099
C32	C	-0.298252	0.028987	-0.000078
N33	N	-0.321004	0.093077	-0.000064
C34	C	-0.284356	0.156294	-0.000050
C35	C	0.064088	0.023664	-0.000096
C36	C	0.123488	0.022791	-0.000091
C37	C	0.137384	0.150103	-0.000062
C38	C	0.077983	0.150976	-0.000062
C39	C	0.041336	0.087754	-0.000083
C40	C	-0.409097	0.158121	-0.000037
C41	C	-0.468500	0.158987	-0.000028
C42	C	-0.482391	0.031675	-0.000060
C43	C	-0.422993	0.030808	-0.000065
C44	C	-0.386346	0.094036	-0.000056
O45	O	-0.334925	-0.024666	-0.000067
O46	O	-0.309172	0.210879	-0.000047
C47	C	-0.668009	0.218573	-0.000035
C48	C	-0.668928	0.296076	-0.000017
C49	C	-0.669366	0.332456	-0.066393
C50	C	-0.670245	0.405276	-0.066406
C51	C	-0.670697	0.441712	-0.000039
C52	C	-0.670256	0.405325	0.066346
C53	C	-0.669371	0.332507	0.066357
N54	N	-0.704502	0.550625	0.049342
N55	N	-0.705344	0.619799	0.049327
C56	C	-0.673362	0.661108	-0.000068
N57	N	-0.640513	0.630630	-0.049459
N58	N	-0.639674	0.561449	-0.049446
C59	C	-0.671656	0.520671	-0.000043
C60	C	-0.674752	0.776448	-0.066463
C61	C	-0.675628	0.849270	-0.066473
C62	C	-0.675645	0.849316	0.066281
C63	C	-0.674764	0.776496	0.066289
C64	C	-0.674320	0.740066	-0.000085
N65	N	-0.672484	0.090884	-0.189764
C66	C	-0.706907	0.133020	-0.228062
C67	C	-0.706917	0.133018	-0.304707
C68	C	-0.672493	0.090888	-0.343051
C69	C	-0.638068	0.048743	-0.304745
C70	C	-0.638064	0.048741	-0.228101
N71	N	-0.622616	0.089327	-0.463398
N72	N	-0.622621	0.089333	-0.536206
C73	C	-0.672504	0.090891	-0.573974
N74	N	-0.722382	0.092455	-0.536183
N75	N	-0.722376	0.092453	-0.463368
C76	C	-0.672494	0.090885	-0.426158
C77	C	-0.706940	0.133027	-0.695378
C78	C	-0.706951	0.133020	-0.772025
C79	C	-0.638096	0.048749	-0.772061
C80	C	-0.638091	0.048751	-0.695416
C81	C	-0.672512	0.090895	-0.657079
N82	N	-0.672527	0.090888	0.189636
H83	H	-0.487019	0.211182	-0.000010
N84	N	-0.674344	0.737244	0.137881
H85	H	-0.674781	0.771371	0.179924
H86	H	-0.709292	0.701135	0.140727
H87	H	-0.610068	0.014444	-0.803280
N88	N	-0.670729	0.444521	-0.138002
H89	H	-0.671360	0.496179	-0.127935
H90	H	-0.635277	0.437708	-0.166990
H91	H	-0.675983	0.878889	-0.120527
H92	H	0.167234	0.201578	-0.000054
N93	N	-0.600930	0.003293	-0.186795
H94	H	-0.572972	0.033865	-0.154992
H95	H	-0.625854	-0.031030	-0.155043
N96	N	-0.744078	0.178475	-0.813333
H97	H	-0.738860	0.172081	-0.867704
H98	H	-0.785532	0.164429	-0.799931
N99	N	-0.668875	0.293175	-0.137985
H100	H	-0.633209	0.268885	-0.140933
H101	H	-0.703826	0.257075	-0.140910
H102	H	-0.404469	-0.021383	-0.000072
H103	H	-0.512240	-0.019795	-0.000069
H104	H	-0.674386	0.746786	-0.120508
N105	N	-0.600962	0.003306	-0.654104
H106	H	-0.579155	-0.023385	-0.690022
H107	H	-0.573039	0.033921	-0.622298
N108	N	-0.670694	0.444627	0.137929
H109	H	-0.671307	0.496280	0.127851
H110	H	-0.705824	0.426014	0.166954
N111	N	-0.744039	0.178474	-0.346028
H112	H	-0.771998	0.147906	-0.377835
H113	H	-0.765806	0.205164	-0.310068
N114	N	0.024560	-0.044527	-0.000102
H115	H	-0.000394	-0.047011	-0.045240
H116	H	0.048030	-0.085218	-0.000081
N117	N	-0.132187	-0.105990	-0.000149
H118	H	-0.107853	-0.109189	-0.045290
H119	H	-0.107881	-0.109161	0.045014
H120	H	-0.676007	0.878983	0.120319
N121	N	-0.744038	0.178464	-0.186713
H122	H	-0.765849	0.205155	-0.222610
H123	H	-0.771957	0.147841	-0.154923
N124	N	-0.600941	0.003297	-0.346096
H125	H	-0.606166	0.009693	-0.400462
H126	H	-0.559486	0.017347	-0.332701
N127	N	-0.668927	0.293270	0.137958
H128	H	-0.633796	0.311865	0.166999
H129	H	-0.704413	0.300065	0.166884
N130	N	-0.369576	0.226315	-0.000044
H131	H	-0.393009	0.267043	-0.000034
H132	H	-0.344622	0.228741	0.045088
N133	N	-0.212840	0.287769	-0.000009
H134	H	-0.180603	0.327679	-0.000000
H135	H	-0.237182	0.290910	-0.045145
H136	H	-0.734968	0.167342	-0.664163
H137	H	0.059465	0.203167	-0.000049
N138	N	-0.089402	0.285968	-0.000056
H139	H	-0.096707	0.313959	0.045081
H140	H	-0.048328	0.275663	-0.000095
N141	N	0.148025	-0.046337	-0.000105
H142	H	0.134647	-0.074013	0.045026
H143	H	0.134641	-0.073957	-0.045278
N144	N	-0.255641	-0.104168	-0.000146
H145	H	-0.232212	-0.144899	-0.000161
H146	H	-0.280591	-0.106584	0.044993
