data_functionalizedCrystal
_audit_creation_method	'MofGen! by Chris Wilmer'
_symmetry_space_group_name_H-M	'P1'
_symmetry_Int_Tables_number	1
_symmetry_cell_setting	triclinic
loop_
_symmetry_equiv_pos_as_xyz
  x,y,z
_cell_length_a	18.101395
_cell_length_b	18.101398
_cell_length_c	19.805399
_cell_angle_alpha	90.023953
_cell_angle_beta	89.974882
_cell_angle_gamma	89.973629
loop_
_atom_site_label
_atom_site_type_symbol
_atom_site_fract_x
_atom_site_fract_y
_atom_site_fract_z
Zn1	Zn	-0.294940	-1.132118	-0.382810
Zn2	Zn	-0.044940	-0.882118	-0.132810
Zn3	Zn	0.205060	-0.632118	0.117190
Zn4	Zn	0.455060	-0.382118	0.367190
Zn5	Zn	-0.418784	-1.132015	-0.269627
Zn6	Zn	-0.168784	-0.882015	-0.019627
Zn7	Zn	0.081216	-0.632015	0.230373
Zn8	Zn	0.331216	-0.382015	0.480373
Zn9	Zn	-0.294950	-1.008278	-0.269626
Zn10	Zn	-0.044950	-0.758278	-0.019626
Zn11	Zn	0.205050	-0.508278	0.230374
Zn12	Zn	0.455050	-0.258278	0.480374
Zn13	Zn	-0.418734	-1.008228	-0.382765
Zn14	Zn	-0.168734	-0.758228	-0.132765
Zn15	Zn	0.081266	-0.508228	0.117235
Zn16	Zn	0.331266	-0.258228	0.367235
O17	O	-0.356852	-1.070160	-0.326207
O18	O	-0.106852	-0.820160	-0.076207
O19	O	0.143148	-0.570160	0.173793
O20	O	0.393148	-0.320160	0.423793
O21	O	-0.311385	-1.235737	-0.367815
O22	O	-0.061385	-0.985737	-0.117815
O23	O	0.188615	-0.735737	0.132185
O24	O	0.438615	-0.485737	0.382185
O25	O	-0.402382	-1.115579	-0.174910
O26	O	-0.152382	-0.865579	0.075090
O27	O	0.097618	-0.615579	0.325090
O28	O	0.347618	-0.365579	0.575090
O29	O	-0.191316	-1.024770	-0.284659
O30	O	0.058684	-0.774770	-0.034659
O31	O	0.308684	-0.524770	0.215341
O32	O	0.558684	-0.274770	0.465341
O33	O	-0.402372	-1.235662	-0.284660
O34	O	-0.152372	-0.985662	-0.034660
O35	O	0.097628	-0.735662	0.215340
O36	O	0.347628	-0.485662	0.465340
O37	O	-0.191309	-1.115755	-0.367815
O38	O	0.058691	-0.865755	-0.117815
O39	O	0.308691	-0.615755	0.132185
O40	O	0.558691	-0.365755	0.382185
O41	O	-0.311402	-1.024670	-0.174910
O42	O	-0.061402	-0.774670	0.075090
O43	O	0.188598	-0.524670	0.325090
O44	O	0.438598	-0.274670	0.575090
O45	O	-0.311354	-0.904638	-0.284615
O46	O	-0.061354	-0.654638	-0.034615
O47	O	0.188646	-0.404638	0.215385
O48	O	0.438646	-0.154638	0.465385
O49	O	-0.402288	-1.024685	-0.477488
O50	O	-0.152288	-0.774685	-0.227488
O51	O	0.097712	-0.524685	0.022512
O52	O	0.347712	-0.274685	0.272512
O53	O	-0.402298	-0.904602	-0.367738
O54	O	-0.152298	-0.654602	-0.117738
O55	O	0.097702	-0.404602	0.132262
O56	O	0.347702	-0.154602	0.382262
O57	O	-0.311337	-1.115706	-0.477521
O58	O	-0.061337	-0.865706	-0.227521
O59	O	0.188663	-0.615706	0.022479
O60	O	0.438663	-0.365706	0.272479
O61	O	-0.522410	-1.115530	-0.284616
O62	O	-0.272410	-0.865530	-0.034616
O63	O	-0.022410	-0.615530	0.215384
O64	O	0.227590	-0.365530	0.465384
O65	O	-0.522374	-1.024584	-0.367738
O66	O	-0.272374	-0.774584	-0.117738
O67	O	-0.022374	-0.524584	0.132262
O68	O	0.227626	-0.274584	0.382262
C69	C	-0.549263	-1.070061	-0.326187
C70	C	-0.299263	-0.820061	-0.076187
C71	C	-0.049263	-0.570061	0.173813
C72	C	0.200737	-0.320061	0.423813
C73	C	-0.631577	-1.070086	-0.326201
C74	C	-0.381577	-0.820086	-0.076201
C75	C	-0.131577	-0.570086	0.173799
C76	C	0.118423	-0.320086	0.423799
C77	C	-0.356822	-0.877749	-0.326172
C78	C	-0.106822	-0.627749	-0.076172
C79	C	0.143178	-0.377749	0.173828
C80	C	0.393178	-0.127749	0.423828
C81	C	-0.356827	-0.795435	-0.326173
C82	C	-0.106827	-0.545435	-0.076173
C83	C	0.143173	-0.295435	0.173827
C84	C	0.393173	-0.045435	0.423827
C85	C	-0.356806	-1.070201	-0.502750
C86	C	-0.106806	-0.820201	-0.252750
C87	C	0.143194	-0.570201	-0.002750
C88	C	0.393194	-0.320201	0.247250
C89	C	-0.356786	-1.070219	-0.577982
C90	C	-0.106786	-0.820219	-0.327982
C91	C	0.143214	-0.570219	-0.077982
C92	C	0.393214	-0.320219	0.172018
C93	C	-0.930668	-1.070249	-0.326238
C94	C	-0.680668	-0.820249	-0.076238
C95	C	-0.430668	-0.570249	0.173762
C96	C	-0.180668	-0.320249	0.423762
C97	C	-0.899351	-1.013161	-0.378666
C98	C	-0.649351	-0.763161	-0.128666
C99	C	-0.399351	-0.513161	0.121334
C100	C	-0.149351	-0.263161	0.371334
C101	C	-0.813733	-1.012889	-0.378502
C102	C	-0.563733	-0.762889	-0.128502
C103	C	-0.313733	-0.512889	0.121498
C104	C	-0.063733	-0.262889	0.371498
C105	C	-0.782285	-1.070168	-0.326220
C106	C	-0.532285	-0.820168	-0.076220
C107	C	-0.282285	-0.570168	0.173780
C108	C	-0.032285	-0.320168	0.423780
C109	C	-0.813432	-1.049039	-0.254884
C110	C	-0.563432	-0.799039	-0.004884
C111	C	-0.313432	-0.549039	0.245116
C112	C	-0.063432	-0.299039	0.495116
C113	C	-0.899077	-1.048671	-0.255198
C114	C	-0.649077	-0.798671	-0.005198
C115	C	-0.399077	-0.548671	0.244802
C116	C	-0.149077	-0.298671	0.494802
C117	C	-0.899019	-1.148590	-0.344518
C118	C	-0.649019	-0.898590	-0.094518
C119	C	-0.399019	-0.648590	0.155482
C120	C	-0.149019	-0.398590	0.405482
C121	C	-0.813368	-1.148129	-0.346082
C122	C	-0.563368	-0.898129	-0.096082
C123	C	-0.313368	-0.648129	0.153918
C124	C	-0.063368	-0.398129	0.403918
C125	C	-0.698426	-1.070124	-0.326206
C126	C	-0.448426	-0.820124	-0.076206
C127	C	-0.198426	-0.570124	0.173794
C128	C	0.051574	-0.320124	0.423794
C129	C	-1.014527	-1.070291	-0.326247
C130	C	-0.764527	-0.820291	-0.076247
C131	C	-0.514527	-0.570291	0.173753
C132	C	-0.264527	-0.320291	0.423753
C133	C	-0.163690	-1.070279	-0.326242
C134	C	0.086310	-0.820279	-0.076242
C135	C	0.336310	-0.570279	0.173758
C136	C	0.586310	-0.320279	0.423758
C137	C	-0.081376	-1.070330	-0.326257
C138	C	0.168624	-0.820330	-0.076257
C139	C	0.418624	-0.570330	0.173743
C140	C	0.668624	-0.320330	0.423743
C141	C	-0.356883	-1.263322	-0.326243
C142	C	-0.106883	-1.013322	-0.076243
C143	C	0.143117	-0.763322	0.173757
C144	C	0.393117	-0.513322	0.423757
C145	C	-0.356896	-1.345636	-0.326258
C146	C	-0.106896	-1.095636	-0.076258
C147	C	0.143104	-0.845636	0.173742
C148	C	0.393104	-0.595636	0.423742
C149	C	-0.356873	-0.496344	-0.326230
C150	C	-0.106873	-0.246344	-0.076230
C151	C	0.143127	0.003656	0.173770
C152	C	0.393127	0.253656	0.423770
C153	C	-0.299368	-0.527668	-0.274186
C154	C	-0.049368	-0.277668	-0.024186
C155	C	0.200632	-0.027668	0.225814
C156	C	0.450632	0.222332	0.475814
C157	C	-0.299522	-0.613286	-0.273964
C158	C	-0.049522	-0.363286	-0.023964
C159	C	0.200478	-0.113286	0.226036
C160	C	0.450478	0.136714	0.476036
C161	C	-0.356850	-0.644727	-0.326201
C162	C	-0.106850	-0.394727	-0.076201
C163	C	0.143150	-0.144727	0.173799
C164	C	0.393150	0.105273	0.423799
C165	C	-0.434861	-0.613609	-0.306714
C166	C	-0.184861	-0.363609	-0.056714
C167	C	0.065139	-0.113609	0.193286
C168	C	0.315139	0.136391	0.443286
C169	C	-0.434541	-0.527964	-0.306352
C170	C	-0.184541	-0.277964	-0.056352
C171	C	0.065459	-0.027964	0.193648
C172	C	0.315459	0.222036	0.443648
C173	C	-0.337046	-0.527958	-0.397883
C174	C	-0.087046	-0.277958	-0.147883
C175	C	0.162954	-0.027958	0.102117
C176	C	0.412954	0.222042	0.352117
C177	C	-0.335308	-0.613609	-0.397492
C178	C	-0.085308	-0.363609	-0.147492
C179	C	0.164692	-0.113609	0.102508
C180	C	0.414692	0.136391	0.352508
C181	C	-0.356841	-0.728586	-0.326187
C182	C	-0.106841	-0.478586	-0.076187
C183	C	0.143159	-0.228586	0.173813
C184	C	0.393159	0.021414	0.423813
C185	C	-0.356887	-0.412485	-0.326243
C186	C	-0.106887	-0.162485	-0.076243
C187	C	0.143113	0.087515	0.173757
C188	C	0.393113	0.337515	0.423757
C189	C	-0.309425	-1.117615	-0.613344
C190	C	-0.059425	-0.867615	-0.363344
C191	C	0.190575	-0.617615	-0.113344
C192	C	0.440575	-0.367615	0.136656
C193	C	-0.309404	-1.117623	-0.684033
C194	C	-0.059404	-0.867623	-0.434033
C195	C	0.190596	-0.617623	-0.184033
C196	C	0.440596	-0.367623	0.065967
C197	C	-0.356747	-1.070237	-0.719358
C198	C	-0.106747	-0.820237	-0.469358
C199	C	0.143253	-0.570237	-0.219358
C200	C	0.393253	-0.320237	0.030642
C201	C	-0.404110	-1.022836	-0.683990
C202	C	-0.154110	-0.772836	-0.433990
C203	C	0.095890	-0.522836	-0.183990
C204	C	0.345890	-0.272836	0.066010
C205	C	-0.404127	-1.022825	-0.613303
C206	C	-0.154127	-0.772825	-0.363303
C207	C	0.095873	-0.522825	-0.113303
C208	C	0.345873	-0.272825	0.136697
C209	C	-0.404041	-1.022878	-0.969063
C210	C	-0.154041	-0.772878	-0.719063
C211	C	0.095959	-0.522878	-0.469063
C212	C	0.345959	-0.272878	-0.219063
C213	C	-0.404021	-1.022894	-1.039756
C214	C	-0.154021	-0.772894	-0.789756
C215	C	0.095979	-0.522894	-0.539756
C216	C	0.345979	-0.272894	-0.289756
C217	C	-0.309317	-1.117675	-1.039794
C218	C	-0.059317	-0.867675	-0.789794
C219	C	0.190683	-0.617675	-0.539794
C220	C	0.440683	-0.367675	-0.289794
C221	C	-0.309335	-1.117665	-0.969106
C222	C	-0.059335	-0.867665	-0.719106
C223	C	0.190665	-0.617665	-0.469106
C224	C	0.440665	-0.367665	-0.219106
C225	C	-0.356694	-1.070261	-0.933745
C226	C	-0.106694	-0.820261	-0.683745
C227	C	0.143306	-0.570261	-0.433745
C228	C	0.393306	-0.320261	-0.183745
C229	C	-0.356716	-1.070252	-0.857097
C230	C	-0.106716	-0.820252	-0.607097
C231	C	0.143284	-0.570252	-0.357097
C232	C	0.393284	-0.320252	-0.107097
C233	C	-0.356730	-1.070249	-0.796005
C234	C	-0.106730	-0.820249	-0.546005
C235	C	0.143270	-0.570249	-0.296005
C236	C	0.393270	-0.320249	-0.046005
C237	C	-0.356845	-1.070161	-0.150351
C238	C	-0.106845	-0.820161	0.099649
C239	C	0.143155	-0.570161	0.349649
C240	C	0.393155	-0.320161	0.599649
C241	C	-0.356656	-1.070287	-0.075120
C242	C	-0.106656	-0.820287	0.174880
C243	C	0.143344	-0.570287	0.424880
C244	C	0.393344	-0.320287	0.674880
H245	H	-0.792672	-1.026108	-0.431397
H246	H	-0.542672	-0.776108	-0.181397
H247	H	-0.292672	-0.526108	0.068603
H248	H	-0.042672	-0.276108	0.318603
H249	H	-0.241674	-0.634326	-0.286179
H250	H	0.008326	-0.384326	-0.036179
H251	H	0.258326	-0.134326	0.213821
H252	H	0.508326	0.115674	0.463821
H253	H	-0.281150	-0.506386	-0.415602
H254	H	-0.031150	-0.256386	-0.165602
H255	H	0.218850	-0.006386	0.084398
H256	H	0.468850	0.243614	0.334398
H257	H	-0.270840	-1.156219	-0.712822
H258	H	-0.020840	-0.906219	-0.462822
H259	H	0.229160	-0.656219	-0.212822
H260	H	0.479160	-0.406219	0.037178
H261	H	-0.793008	-1.164063	-0.398582
H262	H	-0.543008	-0.914063	-0.148582
H263	H	-0.293008	-0.664063	0.101418
H264	H	-0.043008	-0.414063	0.351418
H265	H	-0.451357	-0.507952	-0.253969
H266	H	-0.201357	-0.257952	-0.003969
H267	H	0.048643	-0.007952	0.246031
H268	H	0.298643	0.242048	0.496031
H269	H	-0.919796	-1.088448	-0.214803
H270	H	-0.669796	-0.838448	0.035197
H271	H	-0.419796	-0.588448	0.285197
H272	H	-0.169796	-0.338448	0.535197
H273	H	-0.919115	-0.991404	-0.239714
H274	H	-0.669115	-0.741404	0.010286
H275	H	-0.419115	-0.491404	0.260286
H276	H	-0.169115	-0.241404	0.510286
H277	H	-0.793063	-1.089311	-0.214756
H278	H	-0.543063	-0.839311	0.035244
H279	H	-0.293063	-0.589311	0.285244
H280	H	-0.043063	-0.339311	0.535244
H281	H	-0.919901	-1.026248	-0.431732
H282	H	-0.669901	-0.776248	-0.181732
H283	H	-0.419901	-0.526248	0.068268
H284	H	-0.169901	-0.276248	0.318268
H285	H	-0.442575	-0.984304	-1.068515
H286	H	-0.192575	-0.734304	-0.818515
H287	H	0.057425	-0.484304	-0.568515
H288	H	0.307425	-0.234304	-0.318515
H289	H	-0.241343	-0.507097	-0.286267
H290	H	0.008657	-0.257097	-0.036267
H291	H	0.258657	-0.007097	0.213733
H292	H	0.508657	0.242903	0.463733
H293	H	-0.920570	-1.167854	-0.395650
H294	H	-0.670570	-0.917854	-0.145650
H295	H	-0.420570	-0.667854	0.104350
H296	H	-0.170570	-0.417854	0.354350
H297	H	-0.793304	-0.954821	-0.366392
H298	H	-0.543304	-0.704821	-0.116392
H299	H	-0.293304	-0.454821	0.133608
H300	H	-0.043304	-0.204821	0.383608
H301	H	-0.920932	-0.955445	-0.366709
H302	H	-0.670932	-0.705445	-0.116709
H303	H	-0.420932	-0.455445	0.133291
H304	H	-0.170932	-0.205445	0.383291
H305	H	-0.277901	-0.633953	-0.412187
H306	H	-0.027901	-0.383953	-0.162187
H307	H	0.222099	-0.133953	0.087813
H308	H	0.472099	0.116047	0.337813
H309	H	-0.270785	-1.156253	-0.940349
H310	H	-0.020785	-0.906253	-0.690349
H311	H	0.229215	-0.656253	-0.440349
H312	H	0.479215	-0.406253	-0.190349
H313	H	-0.451968	-0.635024	-0.254897
H314	H	-0.201968	-0.385024	-0.004897
H315	H	0.048032	-0.135024	0.245103
H316	H	0.298032	0.114976	0.495103
H317	H	-0.442614	-0.984290	-0.940281
H318	H	-0.192614	-0.734290	-0.690281
H319	H	0.057386	-0.484290	-0.440281
H320	H	0.307386	-0.234290	-0.190281
H321	H	-0.791957	-1.192913	-0.310680
H322	H	-0.541957	-0.942913	-0.060680
H323	H	-0.291957	-0.692913	0.189320
H324	H	-0.041957	-0.442913	0.439320
H325	H	-0.442685	-0.984223	-0.584512
H326	H	-0.192685	-0.734223	-0.334512
H327	H	0.057315	-0.484223	-0.084512
H328	H	0.307315	-0.234223	0.165488
H329	H	-0.312328	-0.506119	-0.221401
H330	H	-0.062328	-0.256119	0.028599
H331	H	0.187672	-0.006119	0.278599
H332	H	0.437672	0.243881	0.528599
H333	H	-0.312630	-0.633740	-0.220869
H334	H	-0.062630	-0.383740	0.029131
H335	H	0.187370	-0.133740	0.279131
H336	H	0.437370	0.116260	0.529131
H337	H	-0.270752	-1.156271	-1.068593
H338	H	-0.020752	-0.906271	-0.818593
H339	H	0.229248	-0.656271	-0.568593
H340	H	0.479248	-0.406271	-0.318593
H341	H	-0.442655	-0.984252	-0.712757
H342	H	-0.192655	-0.734252	-0.462757
H343	H	0.057345	-0.484252	-0.212757
H344	H	0.307345	-0.234252	0.037243
H345	H	-0.478838	-0.507241	-0.342605
H346	H	-0.228838	-0.257241	-0.092605
H347	H	0.021162	-0.007241	0.157395
H348	H	0.271162	0.242759	0.407395
H349	H	-0.919270	-1.191123	-0.306333
H350	H	-0.669270	-0.941123	-0.056333
H351	H	-0.419270	-0.691123	0.193667
H352	H	-0.169270	-0.441123	0.443667
H353	H	-0.792042	-0.992379	-0.239122
H354	H	-0.542042	-0.742379	0.010878
H355	H	-0.292042	-0.492379	0.260878
H356	H	-0.042042	-0.242379	0.510878
H357	H	-0.478854	-0.633973	-0.343433
H358	H	-0.228854	-0.383973	-0.093433
H359	H	0.021146	-0.133973	0.156567
H360	H	0.271146	0.116027	0.406567
H361	H	-0.374140	-0.635014	-0.438346
H362	H	-0.124140	-0.385014	-0.188346
H363	H	0.125860	-0.135014	0.061654
H364	H	0.375860	0.114986	0.311654
H365	H	-0.378930	-0.507701	-0.436660
H366	H	-0.128930	-0.257701	-0.186660
H367	H	0.121070	-0.007701	0.063340
H368	H	0.371070	0.242299	0.313340
H369	H	-0.270875	-1.156204	-0.584588
H370	H	-0.020875	-0.906204	-0.334588
H371	H	0.229125	-0.656204	-0.084588
H372	H	0.479125	-0.406204	0.165412
