data_functionalizedCrystal
_audit_creation_method	'MofGen! by Chris Wilmer'
_symmetry_space_group_name_H-M	'P1'
_symmetry_Int_Tables_number	1
_symmetry_cell_setting	triclinic
loop_
_symmetry_equiv_pos_as_xyz
  x,y,z
_cell_length_a	17.699083
_cell_length_b	17.038272
_cell_length_c	16.776229
_cell_angle_alpha	89.993292
_cell_angle_beta	89.998886
_cell_angle_gamma	87.197286
loop_
_atom_site_label
_atom_site_type_symbol
_atom_site_fract_x
_atom_site_fract_y
_atom_site_fract_z
O1	O	1.010620	0.098861	-0.066177
O2	O	1.510620	0.598861	0.433823
O3	O	0.791093	0.111723	-0.066203
O4	O	1.291093	0.611723	0.433797
O5	O	0.899552	-0.008521	-0.066184
O6	O	1.399552	0.491479	0.433816
O7	O	0.902161	0.219105	-0.066196
O8	O	1.402161	0.719105	0.433804
O9	O	0.899536	-0.008529	0.066393
O10	O	1.399536	0.491471	0.566393
O11	O	0.791077	0.111716	0.066374
O12	O	1.291077	0.611716	0.566374
O13	O	1.010604	0.098854	0.066400
O14	O	1.510604	0.598854	0.566400
Zn15	Zn	0.900838	0.105283	0.087436
Zn16	Zn	1.400838	0.605283	0.587436
Zn17	Zn	0.900859	0.105293	-0.087239
Zn18	Zn	1.400859	0.605293	0.412761
O19	O	0.902145	0.219098	0.066381
O20	O	1.402145	0.719098	0.566381
C21	C	0.762857	0.111258	0.000082
C22	C	1.262857	0.611258	0.500082
C23	C	0.678748	0.109876	0.000072
C24	C	1.178748	0.609876	0.500072
C25	C	0.634797	0.180457	0.000069
C26	C	1.134797	0.680457	0.500069
C27	C	0.555767	0.179153	0.000079
C28	C	1.055767	0.679153	0.500079
C29	C	0.520690	0.107267	0.000087
C30	C	1.020690	0.607267	0.500087
C31	C	0.564647	0.036681	0.000093
C32	C	1.064647	0.536681	0.500093
C33	C	0.643675	0.037986	0.000089
C34	C	1.143675	0.537986	0.500089
C35	C	0.245935	0.031418	0.000113
C36	C	0.745935	0.531418	0.500113
C37	C	0.166901	0.030119	0.000116
C38	C	0.666901	0.530119	0.500116
C39	C	0.158028	0.172585	0.000104
C40	C	0.658028	0.672585	0.500104
C41	C	0.237056	0.173890	0.000099
C42	C	0.737056	0.673890	0.500099
C43	C	0.281006	0.103304	0.000109
C44	C	0.781006	0.603304	0.500109
C45	C	0.366699	0.104719	0.000100
C46	C	0.866699	0.604719	0.500100
C47	C	0.434999	0.105852	0.000091
C48	C	0.934999	0.605852	0.500091
C49	C	0.897170	-0.037649	0.000104
C50	C	1.397170	0.462351	0.500104
C51	C	0.890090	-0.124431	0.000103
C52	C	1.390090	0.375569	0.500103
C53	C	0.955100	-0.174651	0.000112
C54	C	1.455100	0.325349	0.500112
C55	C	0.948442	-0.256191	0.000103
C56	C	1.448442	0.243809	0.500103
C57	C	0.876773	-0.287509	0.000092
C58	C	1.376773	0.212491	0.500092
C59	C	0.811758	-0.237282	0.000081
C60	C	1.311758	0.262718	0.500081
C61	C	0.818417	-0.155744	0.000084
C62	C	1.318417	0.344256	0.500084
C63	C	0.853251	-0.533228	0.000079
C64	C	1.353251	-0.033228	0.500079
C65	C	0.846597	-0.614773	0.000078
C66	C	1.346597	-0.114773	0.500078
C67	C	0.983282	-0.633676	0.000099
C68	C	1.483282	-0.133676	0.500099
C69	C	0.989934	-0.552135	0.000106
C70	C	1.489934	-0.052135	0.500106
C71	C	0.924919	-0.501916	0.000091
C72	C	1.424919	-0.001916	0.500091
C73	C	0.869967	-0.370855	0.000086
C74	C	1.369967	0.129145	0.500086
C75	C	0.931726	-0.418571	0.000092
C76	C	1.431726	0.081429	0.500092
C77	C	1.038840	0.099318	0.000113
C78	C	1.538840	0.599318	0.500113
C79	C	1.122949	0.100701	0.000118
C80	C	1.622949	0.600701	0.500118
C81	C	0.904526	0.248226	0.000091
C82	C	1.404526	0.748226	0.500091
C83	C	0.911607	0.335007	0.000087
C84	C	1.411607	0.835007	0.500087
N85	N	0.900829	0.105276	0.206647
N86	N	1.400829	0.605276	0.706647
N87	N	0.900873	0.105294	-0.206450
N88	N	1.400873	0.605294	0.293550
C89	C	0.948872	0.052054	0.248373
C90	C	1.448872	0.552054	0.748373
C91	C	0.948876	0.052053	0.331825
C92	C	1.448876	0.552053	0.831825
C93	C	0.900841	0.105279	0.373550
C94	C	1.400841	0.605279	0.873550
C95	C	0.852793	0.158504	0.331819
C96	C	1.352793	0.658504	0.831819
C97	C	0.852785	0.158501	0.248368
C98	C	1.352785	0.658501	0.748368
C99	C	0.852821	0.158520	0.668366
C100	C	1.352821	0.658520	1.168366
C101	C	0.852834	0.158521	0.751823
C102	C	1.352834	0.658521	1.251823
C103	C	0.948912	0.052072	0.751823
C104	C	1.448912	0.552072	1.251823
C105	C	0.948904	0.052069	0.668372
C106	C	1.448904	0.552069	1.168372
C107	C	0.900854	0.105290	0.626648
C108	C	1.400854	0.605290	1.126648
C109	C	0.900849	0.105289	0.536160
C110	C	1.400849	0.605289	1.036160
C111	C	0.900849	0.105285	0.464037
C112	C	1.400849	0.605285	0.964037
H113	H	0.265612	0.232426	0.000089
H114	H	0.765612	0.732426	0.500089
H115	H	1.048294	-0.526642	0.000116
H116	H	1.548294	-0.026642	0.500116
O117	O	0.800986	0.215915	0.376823
O118	O	1.300986	0.715915	0.876823
H119	H	0.814549	0.276843	0.360785
H120	H	1.314549	0.776843	0.860785
O121	O	1.000675	-0.005370	0.203383
O122	O	1.500675	0.494630	0.703383
H123	H	0.966361	-0.043321	0.165377
H124	H	1.466361	0.456679	0.665377
H125	H	0.765478	-0.114855	0.000077
H126	H	1.265478	0.385145	0.500077
O127	O	0.801005	0.215927	0.623367
O128	O	1.301005	0.715927	1.123367
H129	H	0.767614	0.252944	0.666404
H130	H	1.267614	0.752944	1.166404
H131	H	0.536080	-0.021849	0.000112
H132	H	1.036080	0.478151	0.500112
O133	O	0.110619	0.248718	0.000107
O134	O	0.610619	0.748718	0.500107
H135	H	0.123649	0.283125	-0.053937
H136	H	0.623649	0.783125	0.446063
O137	O	0.293334	-0.044709	0.000124
O138	O	0.793334	0.455291	0.500124
H139	H	0.255663	-0.094912	0.000124
H140	H	0.755663	0.405088	0.500124
O141	O	0.792666	-0.404633	0.000078
O142	O	1.292666	0.095367	0.500078
H143	H	0.761167	-0.384455	0.054110
H144	H	1.261167	0.115545	0.554110
H145	H	0.679459	-0.019489	0.000091
H146	H	1.179459	0.480511	0.500091
H147	H	0.813663	0.201839	0.214396
H148	H	1.313663	0.701839	0.714396
O149	O	0.129063	-0.047417	0.000138
O150	O	0.629063	0.452583	0.500138
H151	H	0.172900	-0.096282	0.000155
H152	H	0.672900	0.403718	0.500155
O153	O	1.000695	-0.005353	0.376826
O154	O	1.500695	0.494647	0.876826
H155	H	0.992625	0.003582	0.441864
H156	H	1.492625	0.503582	0.941864
O157	O	0.783132	-0.479066	0.000066
O158	O	1.283132	0.020934	0.500066
H159	H	0.782893	-0.441466	0.054099
H160	H	1.282893	0.058534	0.554099
O161	O	1.000709	-0.005343	0.623366
O162	O	1.500709	0.494657	1.123366
H163	H	1.034111	-0.042359	0.666402
H164	H	1.534111	0.457641	1.166402
H165	H	0.663351	0.238994	0.000061
H166	H	1.163351	0.738994	0.500061
H167	H	1.013460	-0.149159	0.000126
H168	H	1.513460	0.350841	0.500126
O169	O	0.734456	-0.271056	0.000066
O170	O	1.234456	0.228944	0.500066
H171	H	0.702956	-0.250870	0.054095
H172	H	1.202956	0.249130	0.554095
O173	O	0.508360	0.255278	0.000076
O174	O	1.008360	0.755278	0.500076
H175	H	0.546029	0.305484	0.000060
H176	H	1.046029	0.805484	0.500060
H177	H	0.990079	-0.393068	0.000083
H178	H	1.490079	0.106932	0.500083
H179	H	1.001381	-0.297077	0.000112
H180	H	1.501381	0.202923	0.500112
H181	H	1.036213	-0.674572	0.000110
H182	H	1.536213	-0.174572	0.500110
O183	O	1.000734	-0.005342	0.796824
O184	O	1.500734	0.494658	1.296824
H185	H	0.992666	0.003592	0.861862
H186	H	1.492666	0.503592	1.361862
O187	O	0.769294	-0.648556	0.000057
O188	O	1.269294	-0.148556	0.500057
H189	H	0.725202	-0.599938	0.000038
H190	H	1.225202	-0.099938	0.500038
O191	O	0.801035	0.215943	0.796831
O192	O	1.301035	0.715943	1.296831
H193	H	0.767621	0.252952	0.753799
H194	H	1.267621	0.752952	1.253799
