data_functionalizedCrystal
_audit_creation_method	'MofGen! by Chris Wilmer'
_symmetry_space_group_name_H-M	'P1'
_symmetry_Int_Tables_number	1
_symmetry_cell_setting	triclinic
loop_
_symmetry_equiv_pos_as_xyz
  x,y,z
_cell_length_a	27.440280
_cell_length_b	27.440280
_cell_length_c	27.440280
_cell_angle_alpha	60.004012
_cell_angle_beta	60.001221
_cell_angle_gamma	60.012987
loop_
_atom_site_label
_atom_site_type_symbol
_atom_site_fract_x
_atom_site_fract_y
_atom_site_fract_z
Zr1	Zr	0.064004	0.469379	0.469559
O2	O	0.141814	0.493248	0.391745
O3	O	0.040145	0.391568	0.493404
O4	O	0.141808	0.391581	0.493402
O5	O	-0.040035	0.573413	0.391758
O6	O	0.141810	0.391573	0.573603
O7	O	0.040151	0.493235	0.391746
O8	O	-0.040046	0.391549	0.573606
O9	O	0.141821	0.573437	0.391756
O10	O	0.029979	0.443544	0.563438
O11	O	-0.029865	0.503387	0.503595
O12	O	0.089830	0.503402	0.503593
O13	O	0.029986	0.563245	0.443749
Zr14	Zr	-0.063880	0.597241	0.597491
Zr15	Zr	0.064008	0.469365	0.597471
Zr16	Zr	-0.063884	0.597254	0.469580
Zr17	Zr	0.064015	0.597270	0.469578
Zr18	Zr	-0.063892	0.469349	0.597472
O19	O	-0.040021	0.675051	0.573647
O20	O	0.141819	0.493229	0.573618
O21	O	-0.040026	0.675070	0.391773
O22	O	-0.141690	0.573371	0.675306
O23	O	0.040150	0.391549	0.675277
O24	O	-0.141695	0.573390	0.493432
O25	O	0.040159	0.493206	0.675292
O26	O	-0.141684	0.675038	0.573648
O27	O	-0.141686	0.675047	0.493447
O28	O	-0.040027	0.573384	0.675305
O29	O	0.141824	0.573426	0.493429
O30	O	-0.141700	0.493193	0.573622
O31	O	-0.141697	0.493182	0.675294
O32	O	-0.040043	0.391538	0.675278
O33	O	0.040167	0.675081	0.391772
O34	O	0.040170	0.675070	0.493445
O35	O	-0.089706	0.563217	0.563457
O36	O	-0.029862	0.503374	0.623301
O37	O	0.029989	0.563232	0.563456
O38	O	-0.029855	0.623075	0.503612
C39	C	0.000048	0.373337	0.533502
C40	C	0.000043	0.319043	0.533494
C41	C	-0.044119	0.084314	0.577715
C42	C	-0.044121	0.135338	0.577710
O43	O	-0.081681	0.161715	0.615294
N44	N	0.000055	0.160861	0.533519
C45	C	0.044240	0.135353	0.489335
O46	O	0.081815	0.161747	0.451748
C47	C	0.044244	0.084327	0.489344
C48	C	0.000062	0.058811	0.533533
C49	C	-0.088297	0.058797	0.621902
C50	C	-0.088295	0.007777	0.621906
C51	C	-0.044115	-0.017726	0.577724
C52	C	0.000063	0.007791	0.533538
C53	C	0.088430	0.058818	0.445163
C54	C	0.088431	0.007789	0.445175
C55	C	0.044249	-0.017728	0.489365
C56	C	0.044245	-0.068732	0.489361
N57	N	0.000069	-0.094255	0.533551
C58	C	-0.044111	-0.068752	0.577733
C59	C	0.044228	0.242510	0.489322
C60	C	0.044222	0.293537	0.489310
C61	C	-0.044138	0.293518	0.577685
C62	C	-0.044134	0.242492	0.577694
C63	C	0.000052	0.216987	0.533512
C64	C	-0.044104	-0.175898	0.577739
C65	C	-0.044100	-0.226921	0.577738
C66	C	0.044262	-0.226899	0.489365
C67	C	0.044256	-0.175878	0.489364
C68	C	0.000071	-0.150380	0.533556
O69	O	0.081788	-0.095143	0.451797
O70	O	-0.081675	-0.095157	0.615318
C71	C	-0.159921	0.533289	0.533527
C72	C	-0.214217	0.533282	0.533528
C73	C	-0.582187	0.564557	0.564768
C74	C	-0.633210	0.564562	0.564766
O75	O	-0.686163	0.591141	0.591323
N76	N	-0.627491	0.533331	0.533520
C77	C	-0.570745	0.502097	0.502268
O78	O	-0.570566	0.475534	0.475690
C79	C	-0.519724	0.502096	0.502266
C80	C	-0.525448	0.533324	0.533520
C81	C	-0.587908	0.595783	0.596018
C82	C	-0.536889	0.595777	0.596020
C83	C	-0.480150	0.564544	0.564773
C84	C	-0.474429	0.533318	0.533522
C85	C	-0.462980	0.470866	0.471011
C86	C	-0.411958	0.470867	0.471012
C87	C	-0.417682	0.502096	0.502266
C88	C	-0.366670	0.502078	0.502277
N89	N	-0.372389	0.533310	0.533523
C90	C	-0.429129	0.564542	0.564771
C91	C	-0.677895	0.502104	0.502272
C92	C	-0.728915	0.502102	0.502277
C93	C	-0.791376	0.564568	0.564775
C94	C	-0.740355	0.564566	0.564773
C95	C	-0.683614	0.533335	0.533519
C96	C	-0.321983	0.564526	0.564774
C97	C	-0.270957	0.564515	0.564776
C98	C	-0.208500	0.502052	0.502276
C99	C	-0.259522	0.502060	0.502277
C100	C	-0.316265	0.533302	0.533527
O101	O	-0.313698	0.475515	0.475731
O102	O	-0.429297	0.591108	0.591338
C103	C	0.160044	0.533330	0.533523
C104	C	0.214341	0.533337	0.533523
C105	C	0.000057	0.533326	0.373527
C106	C	0.000056	0.533332	0.319226
C107	C	0.000076	0.693283	0.533549
C108	C	0.000081	0.747576	0.533557
C109	C	-0.044126	0.577484	0.084546
C110	C	-0.044127	0.577487	0.135565
O111	O	-0.081708	0.615041	0.161972
N112	N	0.000051	0.533318	0.161071
C113	C	0.044230	0.489140	0.135559
O114	O	0.081806	0.451571	0.161939
C115	C	0.044228	0.489135	0.084543
C116	C	0.000050	0.533310	0.059036
C117	C	-0.088300	0.621655	0.059039
C118	C	-0.088298	0.621652	0.008022
C119	C	-0.044122	0.577479	-0.017488
C120	C	0.000052	0.533308	0.008019
C121	C	0.088404	0.444955	0.059034
C122	C	0.088398	0.444954	0.008014
C123	C	0.044220	0.489129	-0.017493
C124	C	0.044231	0.489132	-0.068508
N125	N	0.000053	0.533300	-0.094014
C126	C	-0.044124	0.577474	-0.068504
C127	C	0.044230	0.489153	0.242697
C128	C	0.044234	0.489160	0.293709
C129	C	-0.044123	0.577506	0.293713
C130	C	-0.044125	0.577501	0.242697
C131	C	0.000051	0.533322	0.217191
C132	C	-0.044116	0.577466	-0.175643
C133	C	-0.044108	0.577461	-0.226665
C134	C	0.044247	0.489113	-0.226662
C135	C	0.044242	0.489120	-0.175646
C136	C	0.000055	0.533299	-0.150136
O137	O	0.081791	0.451595	-0.094945
O138	O	-0.081699	0.615032	-0.094885
C139	C	0.000066	0.533293	0.693523
C140	C	0.000068	0.533287	0.747825
C141	C	0.160030	0.373357	0.533500
C142	C	0.214322	0.319071	0.533491
C143	C	0.000052	0.373320	0.693500
C144	C	0.000049	0.319021	0.747794
C145	C	-0.159916	0.533272	0.693525
C146	C	-0.214211	0.533260	0.747827
C147	C	0.160040	0.533347	0.373525
C148	C	0.214335	0.533360	0.319223
C149	C	0.000071	0.693299	0.373551
C150	C	0.000075	0.747598	0.319257
C151	C	-0.159906	0.693262	0.533551
C152	C	-0.214198	0.747548	0.533559
C153	C	0.271065	0.324823	0.502249
C154	C	0.322083	0.273820	0.502243
C155	C	0.316356	0.217066	0.533477
C156	C	0.259607	0.211315	0.564723
C157	C	0.208591	0.262317	0.564732
C158	C	0.031289	0.262285	0.742043
C159	C	0.031298	0.211261	0.793053
C160	C	0.000063	0.216973	0.849813
C161	C	-0.031178	0.273714	0.855562
C162	C	-0.031183	0.324738	0.804553
C163	C	-0.208471	0.502017	0.804572
C164	C	-0.259482	0.502007	0.855599
C165	C	-0.316233	0.533237	0.849882
C166	C	-0.321972	0.564484	0.793132
C167	C	-0.270961	0.564497	0.742105
C168	C	0.208594	0.564609	0.262479
C169	C	0.259605	0.564634	0.211451
C170	C	0.316356	0.533407	0.217169
C171	C	0.322096	0.502157	0.273919
C172	C	0.271085	0.502135	0.324945
C173	C	-0.031160	0.804334	0.325008
C174	C	-0.031155	0.855358	0.273998
C175	C	0.000082	0.849646	0.217238
C176	C	0.031320	0.792905	0.211488
C177	C	0.031318	0.741881	0.262497
C178	C	-0.208453	0.804292	0.502319
C179	C	-0.259461	0.855305	0.502315
C180	C	-0.316214	0.849572	0.533555
C181	C	-0.321958	0.792822	0.564796
C182	C	-0.270951	0.741811	0.564796
H183	H	-0.124271	-0.012996	0.657892
Br184	Br	-0.278763	0.606900	0.665097
H185	H	-0.368185	0.589911	0.788485
Br186	Br	0.385580	0.533442	0.147912
Br187	Br	0.278853	0.401840	0.459861
H188	H	0.357902	0.175541	0.533465
Br189	Br	-0.073555	0.932356	0.281815
Br190	Br	0.399119	0.459777	0.281668
H191	H	0.254954	0.165099	0.590154
H192	H	0.056752	0.788263	0.165267
Br193	Br	-0.398983	0.606926	0.607185
H194	H	0.368285	0.278514	0.476796
H195	H	-0.254798	0.476560	0.901803
H196	H	-0.124275	0.079555	0.657883
Br197	Br	0.104197	0.207905	0.429351
H198	H	0.162390	0.590035	0.257812
H199	H	0.056738	0.165065	0.788360
H200	H	-0.368173	0.788164	0.590230
Br201	Br	-0.278759	0.664803	0.607200
H202	H	-0.745021	0.589996	0.590221
Br203	Br	-0.104097	0.207868	0.637667
Br204	Br	-0.148263	0.681611	0.093652
H205	H	-0.080081	-0.247693	0.613723
Br206	Br	0.278886	0.459717	0.401954
Br207	Br	-0.131458	0.459631	0.812348
Br208	Br	0.104214	-0.141243	0.429387
Br209	Br	0.000076	0.147720	0.919035
Br210	Br	-0.073567	0.281456	0.932599
H211	H	-0.056601	0.808996	0.371220
Br212	Br	0.073709	0.664885	0.254682
Br213	Br	0.000078	0.918899	0.148016
Br214	Br	-0.104084	0.637423	-0.141030
Br215	Br	-0.131437	0.812089	0.459919
H216	H	-0.056626	0.370932	0.809244
H217	H	0.080220	0.453153	-0.154883
H218	H	-0.254772	0.901508	0.476875
H219	H	-0.080112	0.314292	0.613661
H220	H	-0.357742	0.891114	0.533549
Br221	Br	0.251802	0.607047	0.134441
H222	H	0.162390	0.257626	0.590171
H223	H	-0.080084	-0.155143	0.613724
H224	H	-0.357764	0.533222	0.891436
H225	H	0.080193	0.314315	0.453320
Br226	Br	0.073686	0.254517	0.665018
H227	H	0.124413	0.079581	0.409183
Br228	Br	-0.251755	0.459662	0.459878
H229	H	0.080231	-0.247671	0.453392
Br230	Br	0.148404	-0.026825	0.385213
H231	H	-0.275624	0.589945	0.590228
H232	H	-0.541557	0.621207	0.621469
H233	H	-0.837584	0.590004	0.590214
Br234	Br	-0.664908	0.638178	0.638430
H235	H	0.080213	0.453194	0.314468
Br236	Br	-0.600890	0.459711	0.459856
Br237	Br	-0.721139	0.459709	0.459870
Br238	Br	-0.455197	0.428489	0.428586
H239	H	-0.365758	0.445435	0.445560
Br240	Br	-0.104066	0.637418	-0.261281
Br241	Br	-0.131489	0.459669	0.459867
H242	H	-0.124273	0.657622	-0.012741
Br243	Br	-0.104083	0.637455	0.208086
H244	H	-0.080095	0.613474	0.314493
H245	H	0.080208	0.453178	0.221929
H246	H	0.080217	0.453149	-0.247442
H247	H	0.124377	0.408984	0.079795
H248	H	0.124372	0.408976	-0.012749
