data_functionalizedCrystal
_audit_creation_method	'MofGen! by Chris Wilmer'
_symmetry_space_group_name_H-M	'P1'
_symmetry_Int_Tables_number	1
_symmetry_cell_setting	triclinic
loop_
_symmetry_equiv_pos_as_xyz
  x,y,z
_cell_length_a	16.120490
_cell_length_b	16.120484
_cell_length_c	16.625539
_cell_angle_alpha	92.868615
_cell_angle_beta	87.083784
_cell_angle_gamma	90.164100
loop_
_atom_site_label
_atom_site_type_symbol
_atom_site_fract_x
_atom_site_fract_y
_atom_site_fract_z
Zn1	Zn	1.254483	-0.395672	-0.536709
Zn2	Zn	1.587816	-0.062338	-0.203376
Zn3	Zn	1.921150	0.270995	0.129957
Zn4	Zn	1.247324	-0.534732	-0.408338
Zn5	Zn	1.580658	-0.201399	-0.075005
Zn6	Zn	1.913991	0.131934	0.258329
Zn7	Zn	1.115420	-0.388632	-0.394737
Zn8	Zn	1.448754	-0.055299	-0.061403
Zn9	Zn	1.782087	0.278034	0.271930
Zn10	Zn	1.108335	-0.527617	-0.535975
Zn11	Zn	1.441668	-0.194283	-0.202641
Zn12	Zn	1.775002	0.139050	0.130692
O13	O	1.181391	-0.461663	-0.468940
O14	O	1.514724	-0.128330	-0.135606
O15	O	1.848057	0.205003	0.197727
O16	O	1.369899	-0.420042	-0.525680
O17	O	1.703232	-0.086709	-0.192347
O18	O	2.036566	0.246624	0.140986
O19	O	1.229796	-0.515383	-0.293701
O20	O	1.563130	-0.182050	0.039632
O21	O	1.896463	0.151283	0.372965
O22	O	1.139828	-0.273203	-0.408185
O23	O	1.473162	0.060130	-0.074852
O24	O	1.806495	0.393463	0.258482
O25	O	1.364640	-0.522209	-0.431366
O26	O	1.697973	-0.188876	-0.098033
O27	O	2.031306	0.144457	0.235300
O28	O	1.241997	-0.278375	-0.512492
O29	O	1.575331	0.054958	-0.179158
O30	O	1.908664	0.388291	0.154175
O31	O	1.132887	-0.408045	-0.283709
O32	O	1.466220	-0.074711	0.049625
O33	O	1.799554	0.258622	0.382958
O34	O	0.998115	-0.401145	-0.407473
O35	O	1.331448	-0.067812	-0.074139
O36	O	1.664781	0.265522	0.259194
O37	O	1.127753	-0.510082	-0.648905
O38	O	1.461086	-0.176749	-0.315571
O39	O	1.794419	0.156584	0.017762
O40	O	0.992909	-0.503256	-0.511239
O41	O	1.326242	-0.169923	-0.177906
O42	O	1.659576	0.163410	0.155427
O43	O	1.235127	-0.413143	-0.649444
O44	O	1.568460	-0.079809	-0.316111
O45	O	1.901794	0.253524	0.017222
O46	O	1.222926	-0.650151	-0.430654
O47	O	1.556259	-0.316818	-0.097321
O48	O	1.889593	0.016516	0.236013
O49	O	1.120811	-0.644923	-0.524428
O50	O	1.454144	-0.311590	-0.191095
O51	O	1.787478	0.021743	0.142239
C52	C	0.965340	-0.450665	-0.457801
C53	C	1.298673	-0.117332	-0.124468
C54	C	1.632006	0.216001	0.208866
C55	C	0.872911	-0.445980	-0.453056
C56	C	1.206244	-0.112647	-0.119722
C57	C	1.539578	0.220686	0.213611
C58	C	0.659942	-0.485958	-0.493555
C59	C	0.993275	-0.152625	-0.160221
C60	C	1.326608	0.180708	0.173112
C61	C	0.703687	-0.437435	-0.444391
C62	C	1.037021	-0.104101	-0.111058
C63	C	1.370354	0.229232	0.222275
C64	C	0.797852	-0.442191	-0.449214
C65	C	1.131185	-0.108858	-0.115880
C66	C	1.464519	0.224476	0.217453
C67	C	0.565768	-0.481203	-0.488734
C68	C	0.899102	-0.147870	-0.155400
C69	C	1.232435	0.185464	0.177933
C70	C	1.170345	-0.677710	-0.478956
C71	C	1.503679	-0.344377	-0.145623
C72	C	1.837012	-0.011043	0.187711
C73	C	1.165696	-0.770140	-0.483272
C74	C	1.499030	-0.436806	-0.149939
C75	C	1.832363	-0.103473	0.183395
C76	C	1.157213	-0.939370	-0.491168
C77	C	1.490546	-0.606037	-0.157835
C78	C	1.823880	-0.272703	0.175498
C79	C	1.205717	-0.983124	-0.446732
C80	C	1.539051	-0.649790	-0.113399
C81	C	1.872384	-0.316457	0.219935
C82	C	1.200997	-1.077289	-0.451126
C83	C	1.534331	-0.743956	-0.117792
C84	C	1.867664	-0.410623	0.215541
C85	C	1.161932	-0.845196	-0.486776
C86	C	1.495265	-0.511862	-0.153442
C87	C	1.828599	-0.178529	0.179891
C88	C	1.398285	-0.472705	-0.480123
C89	C	1.731619	-0.139371	-0.146789
C90	C	2.064952	0.193962	0.186544
C91	C	1.490713	-0.477410	-0.484888
C92	C	1.824046	-0.144077	-0.151555
C93	C	2.157380	0.189257	0.181779
C94	C	1.181448	-0.461604	-0.679249
C95	C	1.514781	-0.128271	-0.345915
C96	C	1.848115	0.205063	-0.012582
C97	C	1.181472	-0.461579	-0.768870
C98	C	1.514806	-0.128246	-0.435536
C99	C	1.848139	0.205088	-0.102203
C100	C	1.192502	-0.244774	-0.458903
C101	C	1.525835	0.088559	-0.125570
C102	C	1.859168	0.421893	0.207764
C103	C	1.197237	-0.152349	-0.454626
C104	C	1.530570	0.180985	-0.121293
C105	C	1.863903	0.514318	0.212041
C106	C	1.181515	-0.461488	-1.097043
C107	C	1.514849	-0.128154	-0.763710
C108	C	1.848182	0.205179	-0.430377
C109	C	1.181501	-0.461516	-1.005735
C110	C	1.514834	-0.128182	-0.672402
C111	C	1.848168	0.205151	-0.339069
C112	C	1.181494	-0.461534	-0.932959
C113	C	1.514828	-0.128201	-0.599626
C114	C	1.848161	0.205133	-0.266293
C115	C	1.181479	-0.461560	-0.841646
C116	C	1.514812	-0.128227	-0.508312
C117	C	1.848146	0.205106	-0.174979
C118	C	1.181385	-0.461665	-0.259449
C119	C	1.514718	-0.128331	0.073885
C120	C	1.848051	0.205002	0.407218
C121	C	1.181533	-0.461464	-0.169825
C122	C	1.514867	-0.128130	0.163508
C123	C	1.848200	0.205203	0.496841
H124	H	0.670419	-0.392320	-0.398680
H125	H	1.003753	-0.058987	-0.065346
H126	H	1.337086	0.274347	0.267987
H127	H	1.250788	-0.949861	-0.405388
H128	H	1.584121	-0.616528	-0.072055
H129	H	1.917454	-0.283195	0.261278
H130	H	1.112145	-0.972630	-0.532508
H131	H	1.445479	-0.639297	-0.199174
H132	H	1.778812	-0.305963	0.134159
H133	H	0.693208	-0.531070	-0.539262
H134	H	1.026541	-0.197737	-0.205929
H135	H	1.359874	0.135597	0.127404
