data_functionalizedCrystal
_audit_creation_method	'MofGen! by Chris Wilmer'
_symmetry_space_group_name_H-M	'P1'
_symmetry_Int_Tables_number	1
_symmetry_cell_setting	triclinic
loop_
_symmetry_equiv_pos_as_xyz
  x,y,z
_cell_length_a	25.639239
_cell_length_b	25.639242
_cell_length_c	25.639233
_cell_angle_alpha	89.976404
_cell_angle_beta	90.018747
_cell_angle_gamma	89.966288
loop_
_atom_site_label
_atom_site_type_symbol
_atom_site_fract_x
_atom_site_fract_y
_atom_site_fract_z
Zn1	Zn	-0.208284	-0.799225	0.295762
Zn2	Zn	0.291716	-0.299225	0.795762
Zn3	Zn	-0.295703	-0.799149	0.208327
Zn4	Zn	0.204297	-0.299149	0.708327
Zn5	Zn	-0.208275	-0.711801	0.208324
Zn6	Zn	0.291725	-0.211801	0.708324
Zn7	Zn	-0.295682	-0.711746	0.295714
Zn8	Zn	0.204318	-0.211746	0.795714
O9	O	-0.251986	-0.755480	0.252032
O10	O	0.248014	-0.255480	0.752032
O11	O	-0.219892	-0.872380	0.284185
O12	O	0.280108	-0.372380	0.784185
O13	O	-0.284110	-0.787553	0.135161
O14	O	0.215890	-0.287553	0.635161
O15	O	-0.135111	-0.723453	0.219942
O16	O	0.364889	-0.223453	0.719942
O17	O	-0.284118	-0.872324	0.219946
O18	O	0.215882	-0.372324	0.719946
O19	O	-0.135117	-0.787683	0.284182
O20	O	0.364883	-0.287683	0.784182
O21	O	-0.219878	-0.723379	0.135159
O22	O	0.280122	-0.223379	0.635159
O23	O	-0.219858	-0.638629	0.219895
O24	O	0.280142	-0.138629	0.719895
O25	O	-0.284084	-0.723360	0.368886
O26	O	0.215916	-0.223360	0.868886
O27	O	-0.284076	-0.638589	0.284101
O28	O	0.215924	-0.138589	0.784101
O29	O	-0.219872	-0.787630	0.368921
O30	O	0.280128	-0.287630	0.868921
O31	O	-0.368865	-0.787499	0.219900
O32	O	0.131135	-0.287499	0.719900
O33	O	-0.368850	-0.723286	0.284103
O34	O	0.131150	-0.223286	0.784103
C35	C	-0.251964	-0.619638	0.251993
C36	C	0.248036	-0.119638	0.751993
C37	C	-0.251967	-0.561524	0.251989
C38	C	0.248033	-0.061524	0.751989
C39	C	-0.285475	-0.201149	0.285418
C40	C	0.214525	0.298851	0.785418
C41	C	-0.285478	-0.146544	0.285425
C42	C	0.214522	0.353456	0.785425
O43	O	-0.313944	-0.118297	0.313824
O44	O	0.186056	0.381703	0.813824
N45	N	-0.251995	-0.119241	0.252050
N46	N	0.248005	0.380759	0.752050
C47	C	-0.218503	-0.146545	0.218670
C48	C	0.281497	0.353455	0.718670
O49	O	-0.190023	-0.118308	0.190283
O50	O	0.309977	0.381692	0.690283
C51	C	-0.218498	-0.201149	0.218666
C52	C	0.281502	0.298851	0.718666
C53	C	-0.251987	-0.228449	0.252039
C54	C	0.248013	0.271551	0.752039
C55	C	-0.318961	-0.228449	0.318789
C56	C	0.181039	0.271551	0.818789
C57	C	-0.318959	-0.283049	0.318781
C58	C	0.181041	0.216951	0.818781
C59	C	-0.285471	-0.310350	0.285402
C60	C	0.214529	0.189650	0.785402
C61	C	-0.251985	-0.283049	0.252032
C62	C	0.248015	0.216951	0.752032
C63	C	-0.185004	-0.228452	0.185289
C64	C	0.314996	0.271548	0.685289
C65	C	-0.185002	-0.283059	0.185288
C66	C	0.314998	0.216941	0.685288
C67	C	-0.218491	-0.310359	0.218661
C68	C	0.281509	0.189641	0.718661
C69	C	-0.218495	-0.364950	0.218645
C70	C	0.281505	0.135050	0.718645
N71	N	-0.251978	-0.392253	0.252020
N72	N	0.248022	0.107747	0.752020
C73	C	-0.285466	-0.364953	0.285399
C74	C	0.214534	0.135047	0.785399
C75	C	-0.218516	-0.031875	0.218681
C76	C	0.281484	0.468125	0.718681
C77	C	-0.218523	0.022728	0.218682
C78	C	0.281477	0.522728	0.718682
C79	C	-0.285497	0.022725	0.285438
C80	C	0.214503	0.522725	0.785438
C81	C	-0.285492	-0.031878	0.285434
C82	C	0.214508	0.468122	0.785434
C83	C	-0.251999	-0.059178	0.252056
C84	C	0.248001	0.440822	0.752056
C85	C	-0.285459	-0.479618	0.285380
C86	C	0.214541	0.020382	0.785380
C87	C	-0.285455	-0.534223	0.285367
C88	C	0.214545	-0.034223	0.785367
C89	C	-0.218480	-0.534216	0.218614
C90	C	0.281520	-0.034216	0.718614
C91	C	-0.218485	-0.479615	0.218624
C92	C	0.281515	0.020385	0.718624
C93	C	-0.251976	-0.452318	0.252011
C94	C	0.248024	0.047682	0.752011
O95	O	-0.190042	-0.393232	0.190262
O96	O	0.309958	0.106768	0.690262
O97	O	-0.313936	-0.393197	0.313786
O98	O	0.186064	0.106803	0.813786
C99	C	-0.387829	-0.755392	0.252008
C100	C	0.112171	-0.255392	0.752008
C101	C	-0.445943	-0.755403	0.252015
C102	C	0.054057	-0.255403	0.752015
C103	C	-0.806301	-0.789004	0.218658
C104	C	-0.306301	-0.289004	0.718658
C105	C	-0.860905	-0.789024	0.218665
C106	C	-0.360905	-0.289024	0.718665
O107	O	-0.889138	-0.817502	0.190277
O108	O	-0.389138	-0.317502	0.690277
N109	N	-0.888225	-0.755572	0.252066
N110	N	-0.388225	-0.255572	0.752066
C111	C	-0.860938	-0.722102	0.285467
C112	C	-0.360938	-0.222102	0.785467
O113	O	-0.889190	-0.693651	0.313878
O114	O	-0.389190	-0.193651	0.813878
C115	C	-0.806335	-0.722085	0.285462
C116	C	-0.306335	-0.222085	0.785462
C117	C	-0.779017	-0.755535	0.252055
C118	C	-0.279017	-0.255535	0.752055
C119	C	-0.778984	-0.822452	0.185254
C120	C	-0.278984	-0.322452	0.685254
C121	C	-0.724383	-0.822431	0.185246
C122	C	-0.224383	-0.322431	0.685246
C123	C	-0.697100	-0.788962	0.218643
C124	C	-0.197100	-0.288962	0.718643
C125	C	-0.724417	-0.755514	0.252047
C126	C	-0.224417	-0.255514	0.752047
C127	C	-0.779048	-0.688617	0.318865
C128	C	-0.279048	-0.188617	0.818865
C129	C	-0.724441	-0.688603	0.318857
C130	C	-0.224441	-0.188603	0.818857
C131	C	-0.697124	-0.722053	0.285450
C132	C	-0.197124	-0.222053	0.785450
C133	C	-0.642533	-0.722024	0.285436
C134	C	-0.142533	-0.222024	0.785436
N135	N	-0.615213	-0.755475	0.252035
N136	N	-0.115213	-0.255475	0.752035
C137	C	-0.642496	-0.788944	0.218638
C138	C	-0.142496	-0.288944	0.718638
C139	C	-0.975608	-0.722141	0.285475
C140	C	-0.475608	-0.222141	0.785475
C141	C	-1.030211	-0.722155	0.285477
C142	C	-0.530211	-0.222155	0.785477
C143	C	-1.030174	-0.789078	0.218676
C144	C	-0.530174	-0.289078	0.718676
C145	C	-0.975571	-0.789061	0.218671
C146	C	-0.475571	-0.289061	0.718671
C147	C	-0.948289	-0.755593	0.252073
C148	C	-0.448289	-0.255593	0.752073
C149	C	-0.527831	-0.788897	0.218625
C150	C	-0.027831	-0.288897	0.718625
C151	C	-0.473226	-0.788872	0.218618
C152	C	0.026774	-0.288872	0.718618
C153	C	-0.473267	-0.721951	0.285421
C154	C	0.026733	-0.221951	0.785421
C155	C	-0.527868	-0.721974	0.285426
C156	C	-0.027868	-0.221974	0.785426
C157	C	-0.555149	-0.755452	0.252026
C158	C	-0.055149	-0.255452	0.752026
O159	O	-0.614266	-0.693562	0.313811
O160	O	-0.114266	-0.193562	0.813811
O161	O	-0.614238	-0.817396	0.190236
O162	O	-0.114238	-0.317396	0.690236
C163	C	-0.115613	-0.755583	0.252067
C164	C	0.384387	-0.255583	0.752067
C165	C	-0.057499	-0.755627	0.252082
C166	C	0.442501	-0.255627	0.752082
C167	C	-0.251977	-0.755497	0.388405
C168	C	0.248023	-0.255497	0.888405
C169	C	-0.251973	-0.755504	0.446519
C170	C	0.248027	-0.255504	0.946519
C171	C	-0.252006	0.108147	0.252065
C172	C	0.247994	0.608147	0.752065
C173	C	-0.252009	0.050033	0.252063
C174	C	0.247991	0.550033	0.752063
C175	C	-0.251957	-0.755494	0.116189
C176	C	0.248043	-0.255494	0.616189
C177	C	-0.251814	-0.755588	0.058076
C178	C	0.248186	-0.255588	0.558076
C179	C	-0.218439	-0.789012	0.806906
C180	C	0.281561	-0.289012	1.306906
C181	C	-0.218424	-0.789019	0.861510
C182	C	0.281576	-0.289019	1.361510
O183	O	-0.189974	-0.817466	0.889768
O184	O	0.310026	-0.317466	1.389768
N185	N	-0.251850	-0.755562	0.888802
N186	N	0.248150	-0.255562	1.388802
C187	C	-0.285289	-0.722093	0.861486
C188	C	0.214711	-0.222093	1.361486
O189	O	-0.313719	-0.693636	0.889713
O190	O	0.186281	-0.193636	1.389713
C191	C	-0.285301	-0.722084	0.806882
C192	C	0.214699	-0.222084	1.306882
C193	C	-0.251876	-0.755547	0.779594
C194	C	0.248124	-0.255547	1.279594
C195	C	-0.185016	-0.822472	0.779618
C196	C	0.314984	-0.322472	1.279618
C197	C	-0.185032	-0.822466	0.725017
C198	C	0.314968	-0.322466	1.225017
C199	C	-0.218469	-0.789000	0.697705
C200	C	0.281531	-0.289000	1.197705
C201	C	-0.251892	-0.755541	0.724993
C202	C	0.248108	-0.255541	1.224993
C203	C	-0.318737	-0.688613	0.779567
C204	C	0.181263	-0.188613	1.279567
C205	C	-0.318745	-0.688607	0.724960
C206	C	0.181255	-0.188607	1.224960
C207	C	-0.285320	-0.722069	0.697672
C208	C	0.214680	-0.222069	1.197672
C209	C	-0.285344	-0.722070	0.643081
C210	C	0.214656	-0.222070	1.143081
N211	N	-0.251918	-0.755526	0.615789
N212	N	0.248082	-0.255526	1.115789
C213	C	-0.218481	-0.788992	0.643102
C214	C	0.281519	-0.288992	1.143102
C215	C	-0.285262	-0.722113	0.976156
C216	C	0.214738	-0.222113	1.476156
C217	C	-0.285254	-0.722124	1.030759
C218	C	0.214746	-0.222124	1.530759
C219	C	-0.218388	-0.789049	1.030780
C220	C	0.281612	-0.289049	1.530780
C221	C	-0.218399	-0.789041	0.976176
C222	C	0.281601	-0.289041	1.476176
C223	C	-0.251836	-0.755570	0.948865
C224	C	0.248164	-0.255570	1.448865
C225	C	-0.218516	-0.788977	0.528436
C226	C	0.281484	-0.288977	1.028436
C227	C	-0.218535	-0.788970	0.473831
C228	C	0.281465	-0.288970	0.973831
C229	C	-0.285399	-0.722043	0.473815
C230	C	0.214601	-0.222043	0.973815
C231	C	-0.285382	-0.722052	0.528415
C232	C	0.214618	-0.222052	1.028415
C233	C	-0.251936	-0.755521	0.555725
C234	C	0.248064	-0.255521	1.055725
O235	O	-0.313779	-0.693635	0.614789
O236	O	0.186221	-0.193635	1.114789
O237	O	-0.190051	-0.817439	0.614868
O238	O	0.309949	-0.317439	1.114868
H239	H	-0.191216	-0.556454	0.191436
H240	H	0.308784	-0.056454	0.691436
C241	C	-0.443662	-0.825249	0.182327
C242	C	0.056338	-0.325249	0.682327
C243	C	-0.479248	-0.854574	0.153093
C244	C	0.020752	-0.354574	0.653093
C245	C	-0.452035	-0.888095	0.119663
C246	C	0.047965	-0.388095	0.619663
H247	H	-0.422390	-0.805316	0.159474
H248	H	0.077610	-0.305316	0.659474
H249	H	-0.422342	-0.848037	0.202337
H250	H	0.077658	-0.348037	0.702337
H251	H	-0.500559	-0.831789	0.133084
H252	H	-0.000559	-0.331789	0.633084
H253	H	-0.500521	-0.874518	0.175933
H254	H	-0.000521	-0.374518	0.675933
H255	H	-0.430714	-0.910883	0.139674
H256	H	0.069286	-0.410883	0.639674
H257	H	-0.430763	-0.868157	0.096813
H258	H	0.069237	-0.368157	0.596813
H259	H	-0.476175	-0.907999	0.099828
H260	H	0.023825	-0.407999	0.599828
C261	C	-0.148794	-0.858838	0.809334
C262	C	0.351206	-0.358838	1.309334
C263	C	-0.178393	-0.892327	0.840696
C264	C	0.321607	-0.392327	1.340696
C265	C	-0.145043	-0.925835	0.868079
C266	C	0.354957	-0.425835	1.368079
H267	H	-0.128880	-0.878811	0.785316
H268	H	0.371120	-0.378811	1.285316
H269	H	-0.126011	-0.838876	0.830662
H270	H	0.373989	-0.338876	1.330662
H271	H	-0.201168	-0.912288	0.819369
H272	H	0.298832	-0.412288	1.319369
H273	H	-0.198306	-0.872369	0.864723
H274	H	0.301694	-0.372369	1.364723
H275	H	-0.122260	-0.905872	0.889407
H276	H	0.377740	-0.405872	1.389407
H277	H	-0.125131	-0.945804	0.844057
H278	H	0.374869	-0.445804	1.344057
H279	H	-0.165121	-0.948557	0.889365
H280	H	0.334879	-0.448557	1.389365
C281	C	-0.355334	-0.312591	0.355077
C282	C	0.144666	0.187409	0.855077
C283	C	-0.384648	-0.276986	0.384317
C284	C	0.115352	0.223014	0.884317
C285	C	-0.418157	-0.304176	0.417767
C286	C	0.081843	0.195824	0.917767
H287	H	-0.378134	-0.333872	0.335097
H288	H	0.121866	0.166128	0.835097
H289	H	-0.335378	-0.333901	0.377922
H290	H	0.164622	0.166099	0.877922
H291	H	-0.404603	-0.255685	0.361475
H292	H	0.095397	0.244315	0.861475
H293	H	-0.361862	-0.255703	0.404308
H294	H	0.138138	0.244297	0.904308
H295	H	-0.398201	-0.325486	0.440612
H296	H	0.101799	0.174514	0.940612
H297	H	-0.440954	-0.325457	0.397782
H298	H	0.059046	0.174543	0.897782
H299	H	-0.438047	-0.280023	0.437613
H300	H	0.061953	0.219977	0.937613
H301	H	-0.312728	-0.556449	0.312544
H302	H	0.187272	-0.056449	0.812544
H303	H	-0.345955	-0.661364	0.801776
H304	H	0.154045	-0.161364	1.301776
C305	C	-0.321854	-0.449921	0.321542
C306	C	0.178146	0.050079	0.821542
C307	C	-0.355317	-0.418530	0.291885
C308	C	0.144683	0.081470	0.791885
C309	C	-0.388848	-0.391161	0.325177
C310	C	0.111152	0.108839	0.825177
H311	H	-0.341843	-0.473947	0.341424
H312	H	0.158157	0.026053	0.841424
H313	H	-0.301907	-0.428613	0.344358
H314	H	0.198093	0.071387	0.844358
H315	H	-0.375262	-0.439836	0.269078
H316	H	0.124738	0.060164	0.769078
H317	H	-0.335342	-0.394493	0.272004
H318	H	0.164658	0.105507	0.772004
H319	H	-0.368901	-0.369853	0.347993
H320	H	0.131099	0.130147	0.847993
H321	H	-0.408834	-0.415191	0.345057
H322	H	0.091166	0.084809	0.845057
H323	H	-0.411554	-0.369856	0.305060
H324	H	0.088446	0.130144	0.805060
C325	C	-0.808792	-0.652324	0.355085
C326	C	-0.308792	-0.152324	0.855085
C327	C	-0.862453	-0.659488	0.347944
C328	C	-0.362453	-0.159488	0.847944
C329	C	-0.889868	-0.626059	0.381301
C330	C	-0.389868	-0.126059	0.881301
H331	H	-0.799877	-0.659924	0.390240
H332	H	-0.299877	-0.159924	0.890240
H333	H	-0.799908	-0.617184	0.347395
H334	H	-0.299908	-0.117184	0.847395
H335	H	-0.871333	-0.694620	0.355639
H336	H	-0.371333	-0.194620	0.855639
H337	H	-0.871384	-0.651884	0.312797
H338	H	-0.371384	-0.151884	0.812797
H339	H	-0.880984	-0.590919	0.373610
H340	H	-0.380984	-0.090919	0.873610
H341	H	-0.880948	-0.633662	0.416454
H342	H	-0.380948	-0.133662	0.916454
H343	H	-0.926280	-0.630912	0.376457
H344	H	-0.426280	-0.130912	0.876457
C345	C	-0.182293	-0.825275	0.444110
C346	C	0.317707	-0.325275	0.944110
C347	C	-0.189466	-0.818117	0.390444
C348	C	0.310534	-0.318117	0.890444
C349	C	-0.156091	-0.851552	0.363051
C350	C	0.343909	-0.351552	0.863051
H351	H	-0.147141	-0.817676	0.453000
H352	H	0.352859	-0.317676	0.953000
H353	H	-0.189947	-0.860413	0.453037
H354	H	0.310053	-0.360413	0.953037
H355	H	-0.181808	-0.782987	0.381521
H356	H	0.318192	-0.282987	0.881521
H357	H	-0.224611	-0.825719	0.381539
H358	H	0.275389	-0.325719	0.881539
H359	H	-0.163745	-0.886690	0.371978
H360	H	0.336255	-0.386690	0.871978
H361	H	-0.120941	-0.843950	0.371946
H362	H	0.379059	-0.343950	0.871946
H363	H	-0.160957	-0.846703	0.326636
H364	H	0.339043	-0.346703	0.826636
H365	H	-0.953398	-0.694883	0.312673
H366	H	-0.453398	-0.194883	0.812673
H367	H	-0.312761	-0.054103	0.312610
H368	H	0.187239	0.445897	0.812610
C369	C	-0.321587	-0.685691	0.558110
C370	C	0.178413	-0.185691	1.058110
C371	C	-0.291965	-0.652212	0.589453
C372	C	0.208035	-0.152212	1.089453
C373	C	-0.325296	-0.618708	0.616815
C374	C	0.174704	-0.118708	1.116815
H375	H	-0.341515	-0.665711	0.534080
H376	H	0.158485	-0.165711	1.034080
H377	H	-0.344359	-0.705656	0.579450
H378	H	0.155641	-0.205656	1.079450
H379	H	-0.269203	-0.632248	0.568115
H380	H	0.230797	-0.132248	1.068115
H381	H	-0.272039	-0.672177	0.613493
H382	H	0.227961	-0.172177	1.113493
H383	H	-0.348068	-0.638673	0.638155
H384	H	0.151932	-0.138673	1.138155
H385	H	-0.345222	-0.598732	0.592781
H386	H	0.154778	-0.098732	1.092781
H387	H	-0.305203	-0.595991	0.638088
H388	H	0.194797	-0.095991	1.138088
H389	H	-0.702231	-0.661350	0.346059
H390	H	-0.202231	-0.161350	0.846059
C391	C	-0.443703	-0.685651	0.321768
C392	C	0.056297	-0.185651	0.821768
C393	C	-0.456960	-0.697004	0.373511
C394	C	0.043040	-0.197004	0.873511
C395	C	-0.429738	-0.663576	0.407012
C396	C	0.070262	-0.163576	0.907012
H397	H	-0.407264	-0.690403	0.317048
H398	H	0.092736	-0.190403	0.817048
H399	H	-0.452692	-0.650517	0.314118
H400	H	0.047308	-0.150517	0.814118
H401	H	-0.447967	-0.732129	0.381158
H402	H	0.052033	-0.232129	0.881158
H403	H	-0.493394	-0.692248	0.378247
H404	H	0.006606	-0.192248	0.878247
H405	H	-0.438728	-0.628442	0.399362
H406	H	0.061272	-0.128442	0.899362
H407	H	-0.393301	-0.668331	0.402287
H408	H	0.106699	-0.168331	0.902287
H409	H	-0.438733	-0.671271	0.442122
H410	H	0.061267	-0.171271	0.942122
H411	H	-0.191279	-0.816229	0.550665
H412	H	0.308721	-0.316229	1.050665
C413	C	-0.808607	-0.858893	0.149096
C414	C	-0.308607	-0.358893	0.649096
C415	C	-0.839879	-0.892408	0.178758
C416	C	-0.339879	-0.392408	0.678758
C417	C	-0.867157	-0.926004	0.145472
C418	C	-0.367157	-0.426004	0.645472
H419	H	-0.829990	-0.839012	0.126264
H420	H	-0.329990	-0.339012	0.626264
H421	H	-0.784510	-0.878837	0.129233
H422	H	-0.284510	-0.378837	0.629233
H423	H	-0.863973	-0.872466	0.198613
H424	H	-0.363973	-0.372466	0.698613
H425	H	-0.818509	-0.912299	0.201589
H426	H	-0.318509	-0.412299	0.701589
H427	H	-0.843060	-0.945948	0.125608
H428	H	-0.343060	-0.445948	0.625608
H429	H	-0.888537	-0.906120	0.122641
H430	H	-0.388537	-0.406120	0.622641
H431	H	-0.888374	-0.948751	0.165593
H432	H	-0.388374	-0.448751	0.665593
H433	H	-0.191181	-0.816288	0.953962
H434	H	0.308819	-0.316288	1.453962
H435	H	-0.953333	-0.816300	0.191469
H436	H	-0.453333	-0.316300	0.691469
C437	C	-1.059894	-0.685770	0.321658
C438	C	-0.559894	-0.185770	0.821658
C439	C	-1.091278	-0.652278	0.292024
C440	C	-0.591278	-0.152278	0.792024
C441	C	-1.118622	-0.618750	0.325339
C442	C	-0.618622	-0.118750	0.825339
H443	H	-1.081207	-0.705700	0.344476
H444	H	-0.581207	-0.205700	0.844476
H445	H	-1.035837	-0.665805	0.341536
H446	H	-0.535837	-0.165805	0.841536
H447	H	-1.115332	-0.672241	0.272155
H448	H	-0.615332	-0.172241	0.772155
H449	H	-1.069978	-0.632336	0.269208
H450	H	-0.569978	-0.132336	0.769208
H451	H	-1.094565	-0.598785	0.345217
H452	H	-0.594565	-0.098785	0.845217
H453	H	-1.139932	-0.638685	0.348155
H454	H	-0.639932	-0.138685	0.848155
H455	H	-1.139916	-0.596019	0.305238
H456	H	-0.639916	-0.096019	0.805238
H457	H	-0.550111	-0.694738	0.312630
H458	H	-0.050111	-0.194738	0.812630
C459	C	-0.355115	-0.652254	0.695403
C460	C	0.144885	-0.152254	1.195403
C461	C	-0.384392	-0.622966	0.730993
C462	C	0.115608	-0.122966	1.230993
C463	C	-0.417910	-0.589482	0.703785
C464	C	0.082090	-0.089482	1.203785
H465	H	-0.335181	-0.629437	0.674091
H466	H	0.164819	-0.129437	1.174091
H467	H	-0.377932	-0.672228	0.674122
H468	H	0.122068	-0.172228	1.174122
H469	H	-0.361577	-0.602994	0.752265
H470	H	0.138423	-0.102994	1.252265
H471	H	-0.404336	-0.645769	0.752306
H472	H	0.095664	-0.145769	1.252306
H473	H	-0.440727	-0.609456	0.682504
H474	H	0.059273	-0.109456	1.182504
H475	H	-0.397972	-0.566668	0.682474
H476	H	0.102028	-0.066668	1.182474
H477	H	-0.437782	-0.569610	0.727929
H478	H	0.062218	-0.069610	1.227929
H479	H	-0.191217	-0.457387	0.191448
H480	H	0.308783	0.042613	0.691448
C481	C	-0.148679	-0.858812	0.695489
C482	C	0.351321	-0.358812	1.195489
C483	C	-0.119386	-0.888106	0.731104
C484	C	0.380614	-0.388106	1.231104
C485	C	-0.085884	-0.921589	0.703925
C486	C	0.414116	-0.421589	1.203925
H487	H	-0.168624	-0.881626	0.674189
H488	H	0.331376	-0.381626	1.174189
H489	H	-0.125870	-0.838837	0.674198
H490	H	0.374130	-0.338837	1.174198
H491	H	-0.142192	-0.908080	0.752386
H492	H	0.357808	-0.408080	1.252386
H493	H	-0.099430	-0.865307	0.752404
H494	H	0.400570	-0.365307	1.252404
H495	H	-0.063075	-0.901614	0.682634
H496	H	0.436925	-0.401614	1.182634
H497	H	-0.105833	-0.944399	0.682627
H498	H	0.394167	-0.444399	1.182627
H499	H	-0.066001	-0.941465	0.728086
H500	H	0.433999	-0.441465	1.228086
H501	H	-0.312625	-0.694798	0.451567
H502	H	0.187375	-0.194798	0.951567
H503	H	-0.312477	-0.694881	1.052972
H504	H	0.187523	-0.194881	1.552972
C505	C	-0.355238	-0.198787	0.355095
C506	C	0.144762	0.301213	0.855095
C507	C	-0.325696	-0.167479	0.388679
C508	C	0.174304	0.332521	0.888679
C509	C	-0.359102	-0.140157	0.422135
C510	C	0.140898	0.359843	0.922135
H511	H	-0.378004	-0.177424	0.335117
H512	H	0.121996	0.322576	0.835117
H513	H	-0.375168	-0.222857	0.374997
H514	H	0.124832	0.277143	0.874997
H515	H	-0.305775	-0.143411	0.368780
H516	H	0.194225	0.356589	0.868780
H517	H	-0.302931	-0.188828	0.408669
H518	H	0.197069	0.311172	0.908669
H519	H	-0.379031	-0.164227	0.442036
H520	H	0.120969	0.335773	0.942036
H521	H	-0.381866	-0.118797	0.402152
H522	H	0.118134	0.381203	0.902152
H523	H	-0.339062	-0.118915	0.444928
H524	H	0.160938	0.381085	0.944928
C525	C	-0.557467	-0.825316	0.182452
C526	C	-0.057467	-0.325316	0.682452
C527	C	-0.588753	-0.858833	0.212097
C528	C	-0.088753	-0.358833	0.712097
C529	C	-0.616053	-0.892394	0.178793
C530	C	-0.116053	-0.392394	0.678793
H531	H	-0.578843	-0.805410	0.159635
H532	H	-0.078843	-0.305410	0.659635
H533	H	-0.533383	-0.845260	0.162572
H534	H	-0.033383	-0.345260	0.662572
H535	H	-0.612834	-0.838891	0.231968
H536	H	-0.112834	-0.338891	0.731968
H537	H	-0.567391	-0.878750	0.234913
H538	H	-0.067391	-0.378750	0.734913
H539	H	-0.591969	-0.912338	0.158914
H540	H	-0.091969	-0.412338	0.658914
H541	H	-0.637426	-0.872484	0.155978
H542	H	-0.137426	-0.372484	0.655978
H543	H	-0.637280	-0.915142	0.198903
H544	H	-0.137280	-0.415142	0.698903
H545	H	-0.191160	-0.816298	1.053027
H546	H	0.308840	-0.316298	1.553027
C547	C	-0.694823	-0.858813	0.148961
C548	C	-0.194823	-0.358813	0.648961
C549	C	-0.730413	-0.888135	0.119731
C550	C	-0.230413	-0.388135	0.619731
C551	C	-0.703206	-0.921665	0.086306
C552	C	-0.203206	-0.421665	0.586306
H553	H	-0.673547	-0.838886	0.126106
H554	H	-0.173547	-0.338886	0.626106
H555	H	-0.673507	-0.881602	0.168975
H556	H	-0.173507	-0.381602	0.668975
H557	H	-0.751721	-0.865349	0.099719
H558	H	-0.251721	-0.365349	0.599719
H559	H	-0.751691	-0.908072	0.142574
H560	H	-0.251691	-0.408072	0.642574
H561	H	-0.681889	-0.944454	0.106320
H562	H	-0.181889	-0.444454	0.606320
H563	H	-0.681931	-0.901734	0.063454
H564	H	-0.181931	-0.401734	0.563454
H565	H	-0.727349	-0.941568	0.066473
H566	H	-0.227349	-0.441568	0.566473
H567	H	-0.191258	0.044951	0.191501
H568	H	0.308742	0.544951	0.691501
C569	C	-0.321488	-0.685712	0.946480
C570	C	0.178512	-0.185712	1.446480
C571	C	-0.291893	-0.652203	0.915136
C572	C	0.208107	-0.152203	1.415136
C573	C	-0.325246	-0.618660	0.887800
C574	C	0.174754	-0.118660	1.387800
H575	H	-0.344289	-0.705631	0.925141
H576	H	0.155711	-0.205631	1.425141
H577	H	-0.341383	-0.665761	0.970542
H578	H	0.158617	-0.165761	1.470542
H579	H	-0.272008	-0.672152	0.891076
H580	H	0.227992	-0.172152	1.391076
H581	H	-0.269094	-0.632273	0.936462
H582	H	0.230906	-0.132273	1.436462
H583	H	-0.345141	-0.598708	0.911862
H584	H	0.154859	-0.098708	1.411862
H585	H	-0.348045	-0.638583	0.866463
H586	H	0.151955	-0.138583	1.366463
H587	H	-0.305171	-0.595917	0.866533
H588	H	0.194829	-0.095917	1.366533
H589	H	-0.191242	-0.054099	0.191497
H590	H	0.308758	0.445901	0.691497
C591	C	-0.321796	0.052466	0.321663
C592	C	0.178204	0.552466	0.821663
C593	C	-0.314617	0.106127	0.314531
C594	C	0.185383	0.606127	0.814531
C595	C	-0.348039	0.133542	0.347895
C596	C	0.151961	0.633542	0.847895
H597	H	-0.356936	0.043607	0.313984
H598	H	0.143064	0.543607	0.813984
H599	H	-0.314188	0.043527	0.356817
H600	H	0.185812	0.543527	0.856817
H601	H	-0.322229	0.115063	0.279385
H602	H	0.177771	0.615063	0.779385
H603	H	-0.279483	0.115002	0.322214
H604	H	0.220517	0.615002	0.822214
H605	H	-0.340431	0.124603	0.383049
H606	H	0.159569	0.624603	0.883049
H607	H	-0.383178	0.124679	0.340213
H608	H	0.116822	0.624679	0.840213
H609	H	-0.343170	0.169954	0.343064
H610	H	0.156830	0.669954	0.843064
H611	H	-1.052398	-0.816333	0.191485
H612	H	-0.552398	-0.316333	0.691485
C613	C	-0.148583	-0.198916	0.149038
C614	C	0.351417	0.301084	0.649038
C615	C	-0.119247	-0.234522	0.119823
C616	C	0.380753	0.265478	0.619823
C617	C	-0.085682	-0.207333	0.086427
C618	C	0.414318	0.292667	0.586427
H619	H	-0.168485	-0.177589	0.126171
H620	H	0.331515	0.322411	0.626171
H621	H	-0.125804	-0.177651	0.169072
H622	H	0.374196	0.322349	0.669072
H623	H	-0.142023	-0.255778	0.099790
H624	H	0.357977	0.244222	0.599790
H625	H	-0.099335	-0.255849	0.142676
H626	H	0.400665	0.244151	0.642676
H627	H	-0.062903	-0.186068	0.106461
H628	H	0.437097	0.313932	0.606461
H629	H	-0.105588	-0.186008	0.063564
H630	H	0.394412	0.313992	0.563564
H631	H	-0.065770	-0.231488	0.066604
H632	H	0.434230	0.268512	0.566604
H633	H	-0.157724	-0.305283	0.158110
H634	H	0.342276	0.194717	0.658110
