data_functionalizedCrystal
_audit_creation_method	'MofGen! by Chris Wilmer'
_symmetry_space_group_name_H-M	'P1'
_symmetry_Int_Tables_number	1
_symmetry_cell_setting	triclinic
loop_
_symmetry_equiv_pos_as_xyz
  x,y,z
_cell_length_a	15.995350
_cell_length_b	16.109301
_cell_length_c	15.186229
_cell_angle_alpha	90.000638
_cell_angle_beta	89.998487
_cell_angle_gamma	96.523072
loop_
_atom_site_label
_atom_site_type_symbol
_atom_site_fract_x
_atom_site_fract_y
_atom_site_fract_z
O1	O	0.107624	-1.103160	-0.073168
O2	O	0.121018	-0.861101	-0.073182
O3	O	-0.007569	-0.988747	-0.073174
O4	O	0.236210	-0.975514	-0.073176
O5	O	-0.007570	-0.988739	0.073283
O6	O	0.121016	-0.861093	0.073275
O7	O	0.107622	-1.103151	0.073289
Zn8	Zn	0.114319	-0.982121	0.096535
Zn9	Zn	0.114321	-0.982132	-0.096428
O10	O	0.236208	-0.975505	0.073281
C11	C	0.120474	-0.830122	0.000045
C12	C	0.118848	-0.737826	0.000040
C13	C	-0.038764	-0.988196	0.000053
C14	C	-0.131714	-0.986556	0.000048
N15	N	0.114317	-0.982119	0.228228
C16	C	-0.469460	-0.980665	0.000050
C17	C	-0.422001	-0.889758	-0.000283
C18	C	-0.325311	-0.891399	0.000047
C19	C	-0.301900	-0.983587	0.000049
C20	C	-0.342991	-1.028421	0.083684
C21	C	-0.439626	-1.026137	0.083754
C22	C	-0.439983	-1.028025	-0.082795
C23	C	-0.343037	-1.028003	-0.083901
C24	C	-0.207203	-0.985243	0.000051
C25	C	-0.564157	-0.979012	0.000054
C26	C	0.267404	-0.976056	0.000052
C27	C	0.360354	-0.977697	0.000051
C28	C	0.108166	-1.134130	0.000060
C29	C	0.109792	-1.226426	0.000059
C30	C	0.191366	-0.515573	0.000049
C31	C	0.189831	-0.428853	0.000055
C32	C	0.037268	-0.448686	0.000053
C33	C	0.038804	-0.535405	0.000053
C34	C	0.115855	-0.568846	0.000047
C35	C	0.112785	-0.395406	0.000052
C36	C	0.111120	-0.301380	0.000058
C37	C	0.117520	-0.662879	0.000043
N38	N	0.114317	-0.982140	-0.228121
C39	C	0.057398	-1.038660	0.453954
C40	C	0.057396	-1.038662	0.546144
C41	C	0.171238	-0.925593	0.546146
C42	C	0.171236	-0.925587	0.453958
C43	C	0.114316	-0.982125	0.407865
C44	C	0.114317	-0.982134	0.592242
C45	C	0.114315	-0.982136	0.692198
C46	C	0.114317	-0.982122	0.307902
H47	H	-0.440522	-0.853427	-0.060260
C48	C	0.039261	-1.151808	0.649813
C49	C	-0.005168	-1.100808	0.596809
H50	H	0.000632	-1.190171	0.681094
H51	H	0.074116	-1.181709	0.613847
H52	H	0.073155	-1.118131	0.690457
H53	H	-0.039059	-1.134484	0.556161
H54	H	-0.040038	-1.070905	0.632778
C55	C	-0.343212	-1.023854	-0.241946
C56	C	-0.306168	-0.983822	-0.167432
H57	H	-0.320447	-0.996574	-0.293513
H58	H	-0.332027	-1.080510	-0.242468
H59	H	-0.402284	-1.021614	-0.240398
H60	H	-0.247096	-0.986067	-0.168978
H61	H	-0.317346	-0.927152	-0.166911
C62	C	0.285182	-0.907539	0.350272
C63	C	0.233808	-0.863442	0.403288
H64	H	0.323804	-0.869173	0.318988
H65	H	0.315310	-0.942138	0.386232
H66	H	0.251270	-0.941202	0.309632
H67	H	0.267719	-0.829783	0.443933
H68	H	0.203677	-0.828829	0.367326
C69	C	-0.113379	-0.477001	0.000050
C70	C	-0.047425	-0.411925	0.000049
H71	H	-0.165665	-0.454306	0.000051
H72	H	-0.109603	-0.510412	-0.051017
H73	H	-0.109605	-0.510410	0.051129
H74	H	-0.051195	-0.378519	-0.051033
H75	H	-0.051203	-0.378500	0.051122
H76	H	0.217582	-0.879562	0.583685
H77	H	-0.327694	-1.095231	-0.088949
C78	C	0.342013	-0.487256	0.000063
C79	C	0.276060	-0.552333	0.000054
H80	H	0.394299	-0.509950	0.000073
H81	H	0.338246	-0.453847	-0.051008
H82	H	0.338228	-0.453843	0.051138
H83	H	0.279841	-0.585742	-0.051025
H84	H	0.279829	-0.585755	0.051130
H85	H	-0.296879	-0.856156	-0.059906
C86	C	-0.511639	-0.920073	-0.147771
C87	C	-0.467689	-0.987905	-0.168373
H88	H	-0.528738	-0.895296	-0.200600
H89	H	-0.559832	-0.938949	-0.113635
H90	H	-0.476146	-0.879963	-0.115116
H91	H	-0.503185	-1.028018	-0.201023
H92	H	-0.419489	-0.969030	-0.202523
C93	C	0.039199	-1.151768	0.350226
C94	C	-0.005193	-1.100761	0.403265
H95	H	0.000548	-1.190097	0.318932
H96	H	0.073110	-1.118097	0.309602
H97	H	0.074036	-1.181714	0.386178
H98	H	-0.040025	-1.070810	0.367312
H99	H	-0.039118	-1.134436	0.443893
H100	H	0.251320	-0.385481	0.000058
H101	H	-0.022690	-0.578782	0.000054
H102	H	-0.471762	-1.095050	-0.083356
H103	H	-0.441586	-0.853581	0.059355
H104	H	-0.297438	-0.855912	0.060099
H105	H	-0.457919	-0.993437	0.146271
C106	C	-0.368239	-0.955731	0.217395
C107	C	-0.304679	-0.986376	0.167708
H108	H	-0.344587	-0.929776	0.269268
H109	H	-0.393956	-0.916026	0.183559
H110	H	-0.409274	-1.000614	0.233066
H111	H	-0.263648	-0.941492	0.152031
H112	H	-0.278949	-1.026085	0.201550
H113	H	-0.471892	-1.092880	0.087550
H114	H	-0.328884	-1.096149	0.086795
