data_functionalizedCrystal
_audit_creation_method	'MofGen! by Chris Wilmer'
_symmetry_space_group_name_H-M	'P1'
_symmetry_Int_Tables_number	1
_symmetry_cell_setting	triclinic
loop_
_symmetry_equiv_pos_as_xyz
  x,y,z
_cell_length_a	15.072220
_cell_length_b	19.288864
_cell_length_c	19.288865
_cell_angle_alpha	83.136245
_cell_angle_beta	89.993617
_cell_angle_gamma	89.973672
loop_
_atom_site_label
_atom_site_type_symbol
_atom_site_fract_x
_atom_site_fract_y
_atom_site_fract_z
O1	O	0.074077	-0.921357	-0.086643
O2	O	0.324077	-0.671357	0.163357
O3	O	0.574077	-0.421357	0.413357
O4	O	0.824077	-0.171357	0.663357
O5	O	0.074018	-0.719096	-0.098332
O6	O	0.324018	-0.469096	0.151668
O7	O	0.574018	-0.219096	0.401668
O8	O	0.824018	0.030904	0.651668
O9	O	0.074032	-0.826071	0.008643
O10	O	0.324032	-0.576071	0.258643
O11	O	0.574032	-0.326071	0.508643
O12	O	0.824032	-0.076071	0.758643
O13	O	0.074063	-0.814382	-0.193618
O14	O	0.324063	-0.564382	0.056382
O15	O	0.574063	-0.314382	0.306382
O16	O	0.824063	-0.064382	0.556382
O17	O	-0.073534	-0.826045	0.008637
O18	O	0.176466	-0.576045	0.258637
O19	O	0.426466	-0.326045	0.508637
O20	O	0.676466	-0.076045	0.758637
O21	O	-0.073547	-0.719070	-0.098338
O22	O	0.176453	-0.469070	0.151662
O23	O	0.426453	-0.219070	0.401662
O24	O	0.676453	0.030930	0.651662
O25	O	-0.073488	-0.921331	-0.086649
O26	O	0.176512	-0.671331	0.163351
O27	O	0.426512	-0.421331	0.413351
O28	O	0.676512	-0.171331	0.663351
Zn29	Zn	-0.096947	-0.820196	-0.092494
Zn30	Zn	0.153053	-0.570196	0.157506
Zn31	Zn	0.403053	-0.320196	0.407506
Zn32	Zn	0.653053	-0.070196	0.657506
Zn33	Zn	0.097477	-0.820231	-0.092486
Zn34	Zn	0.347477	-0.570231	0.157514
Zn35	Zn	0.597477	-0.320231	0.407514
Zn36	Zn	0.847477	-0.070231	0.657514
O37	O	-0.073502	-0.814356	-0.193624
O38	O	0.176498	-0.564356	0.056376
O39	O	0.426498	-0.314356	0.306376
O40	O	0.676498	-0.064356	0.556376
C41	C	0.000227	-0.693207	-0.097959
C42	C	0.250227	-0.443207	0.152041
C43	C	0.500227	-0.193207	0.402041
C44	C	0.750227	0.056793	0.652041
C45	C	0.000204	-0.616103	-0.096830
C46	C	0.250204	-0.366103	0.153170
C47	C	0.500204	-0.116103	0.403170
C48	C	0.750204	0.133897	0.653170
N49	N	-0.229636	-0.820177	-0.092499
N50	N	0.020364	-0.570177	0.157501
N51	N	0.270364	-0.320177	0.407501
N52	N	0.520364	-0.070177	0.657501
C53	C	0.000246	-0.825682	0.034516
C54	C	0.250246	-0.575682	0.284516
C55	C	0.500246	-0.325682	0.534516
C56	C	0.750246	-0.075682	0.784516
C57	C	0.000238	-0.824553	0.111620
C58	C	0.250238	-0.574553	0.361620
C59	C	0.500238	-0.324553	0.611620
C60	C	0.750238	-0.074553	0.861620
C61	C	-0.588837	-0.820229	-0.092484
C62	C	-0.338837	-0.570229	0.157516
C63	C	-0.088837	-0.320229	0.407516
C64	C	0.161163	-0.070229	0.657516
C65	C	-0.551238	-0.762798	-0.149533
C66	C	-0.301238	-0.512798	0.100467
C67	C	-0.051238	-0.262798	0.350467
C68	C	0.198762	-0.012798	0.600467
C69	C	-0.448412	-0.762929	-0.149740
C70	C	-0.198412	-0.512929	0.100260
C71	C	0.051588	-0.262929	0.350260
C72	C	0.301588	-0.012929	0.600260
C73	C	-0.410633	-0.820203	-0.092492
C74	C	-0.160633	-0.570203	0.157508
C75	C	0.089367	-0.320203	0.407508
C76	C	0.339367	-0.070203	0.657508
C77	C	-0.447900	-0.892628	-0.108094
C78	C	-0.197900	-0.642628	0.141906
C79	C	0.052100	-0.392628	0.391906
C80	C	0.302100	-0.142628	0.641906
C81	C	-0.550758	-0.892306	-0.108499
C82	C	-0.300758	-0.642306	0.141501
C83	C	-0.050758	-0.392306	0.391501
C84	C	0.199242	-0.142306	0.641501
C85	C	-0.550954	-0.805882	-0.019661
C86	C	-0.300954	-0.555882	0.230339
C87	C	-0.050954	-0.305882	0.480339
C88	C	0.199046	-0.055882	0.730339
C89	C	-0.448091	-0.804218	-0.020152
C90	C	-0.198091	-0.554218	0.229848
C91	C	0.051909	-0.304218	0.479848
C92	C	0.301909	-0.054218	0.729848
C93	C	-0.309920	-0.820193	-0.092494
C94	C	-0.059920	-0.570193	0.157506
C95	C	0.190080	-0.320193	0.407506
C96	C	0.440080	-0.070193	0.657506
C97	C	-0.689550	-0.820245	-0.092482
C98	C	-0.439550	-0.570245	0.157518
C99	C	-0.189550	-0.320245	0.407518
C100	C	0.060450	-0.070245	0.657518
N101	N	0.230165	-0.820255	-0.092476
N102	N	0.480165	-0.570255	0.157524
N103	N	0.730165	-0.320255	0.407524
N104	N	0.980165	-0.070255	0.657524
C105	C	0.000304	-0.947220	-0.087022
C106	C	0.250304	-0.697220	0.162978
C107	C	0.500304	-0.447220	0.412978
C108	C	0.750304	-0.197220	0.662978
C109	C	0.000334	-1.024324	-0.088151
C110	C	0.250334	-0.774324	0.161849
C111	C	0.500334	-0.524324	0.411849
C112	C	0.750334	-0.274324	0.661849
C113	C	0.000228	-0.571407	-0.159598
C114	C	0.250228	-0.321407	0.090402
C115	C	0.500228	-0.071407	0.340402
C116	C	0.750228	0.178593	0.590402
C117	C	0.000237	-0.498960	-0.158537
C118	C	0.250237	-0.248960	0.091463
C119	C	0.500237	0.001040	0.341463
C120	C	0.750237	0.251040	0.591463
C121	C	0.000241	-0.471212	-0.094705
C122	C	0.250241	-0.221212	0.155295
C123	C	0.500241	0.028788	0.405295
C124	C	0.750241	0.278788	0.655295
C125	C	0.000212	-0.515918	-0.031929
C126	C	0.250212	-0.265918	0.218071
C127	C	0.500212	-0.015918	0.468071
C128	C	0.750212	0.234082	0.718071
C129	C	0.000194	-0.588364	-0.032991
C130	C	0.250194	-0.338364	0.217009
C131	C	0.500194	-0.088364	0.467009
C132	C	0.750194	0.161636	0.717009
C133	C	0.051962	-0.362959	-0.044523
C134	C	0.301962	-0.112959	0.205477
C135	C	0.551962	0.137041	0.455477
C136	C	0.801962	0.387041	0.705477
C137	C	0.051986	-0.290515	-0.043464
C138	C	0.301986	-0.040515	0.206536
C139	C	0.551986	0.209485	0.456536
C140	C	0.801986	0.459485	0.706536
C141	C	0.000294	-0.247767	-0.091425
C142	C	0.250294	0.002233	0.158575
C143	C	0.500294	0.252233	0.408575
C144	C	0.750294	0.502233	0.658575
C145	C	-0.051410	-0.277470	-0.140458
C146	C	0.198590	-0.027470	0.109542
C147	C	0.448590	0.222530	0.359542
C148	C	0.698590	0.472530	0.609542
C149	C	-0.051428	-0.349915	-0.141521
C150	C	0.198572	-0.099915	0.108479
C151	C	0.448572	0.150085	0.358479
C152	C	0.698572	0.400085	0.608479
C153	C	0.000261	-0.392658	-0.093546
C154	C	0.250261	-0.142658	0.156454
C155	C	0.500261	0.107342	0.406454
C156	C	0.750261	0.357342	0.656454
C157	C	0.000327	-0.124514	-0.153047
C158	C	0.250327	0.125486	0.096953
C159	C	0.500327	0.375486	0.346953
C160	C	0.750327	0.625486	0.596953
C161	C	0.000331	-0.052066	-0.151984
C162	C	0.250331	0.197934	0.098016
C163	C	0.500331	0.447934	0.348016
C164	C	0.750331	0.697934	0.598016
C165	C	0.000315	-0.069026	-0.025374
C166	C	0.250315	0.180974	0.224626
C167	C	0.500315	0.430974	0.474626
C168	C	0.750315	0.680974	0.724626
C169	C	0.000302	-0.141473	-0.026439
C170	C	0.250302	0.108527	0.223561
C171	C	0.500302	0.358527	0.473561
C172	C	0.750302	0.608527	0.723561
C173	C	0.000312	-0.169212	-0.090278
C174	C	0.250312	0.080788	0.159722
C175	C	0.500312	0.330788	0.409722
C176	C	0.750312	0.580788	0.659722
C177	C	0.000285	-0.814745	-0.219497
C178	C	0.250285	-0.564745	0.030503
C179	C	0.500285	-0.314745	0.280503
C180	C	0.750285	-0.064745	0.530503
C181	C	0.000299	-0.815874	-0.296601
C182	C	0.250299	-0.565874	-0.046601
C183	C	0.500299	-0.315874	0.203399
C184	C	0.750299	-0.065874	0.453399
C185	C	0.000252	-0.887321	0.156316
C186	C	0.250252	-0.637321	0.406316
C187	C	0.500252	-0.387321	0.656316
C188	C	0.750252	-0.137321	0.906316
C189	C	0.000266	-0.886260	0.228763
C190	C	0.250266	-0.636260	0.478763
C191	C	0.500266	-0.386260	0.728763
C192	C	0.750266	-0.136260	0.978763
C193	C	0.000248	-0.822428	0.256511
C194	C	0.250248	-0.572428	0.506511
C195	C	0.500248	-0.322428	0.756511
C196	C	0.750248	-0.072428	1.006511
C197	C	0.000239	-0.759652	0.211805
C198	C	0.250239	-0.509652	0.461805
C199	C	0.500239	-0.259652	0.711805
C200	C	0.750239	-0.009652	0.961805
C201	C	0.000234	-0.760714	0.139359
C202	C	0.250234	-0.510714	0.389359
C203	C	0.500234	-0.260714	0.639359
C204	C	0.750234	-0.010714	0.889359
C205	C	-0.051456	-0.772239	0.364796
C206	C	0.198544	-0.522239	0.614796
C207	C	0.448544	-0.272239	0.864796
C208	C	0.698544	-0.022239	1.114796
C209	C	-0.051456	-0.771179	0.437241
C210	C	0.198544	-0.521179	0.687241
C211	C	0.448544	-0.271179	0.937241
C212	C	0.698544	-0.021179	1.187241
C213	C	0.000267	-0.819148	0.479956
C214	C	0.250267	-0.569148	0.729956
C215	C	0.500267	-0.319148	0.979956
C216	C	0.750267	-0.069148	1.229956
C217	C	0.051979	-0.868189	0.450220
C218	C	0.301979	-0.618189	0.700220
C219	C	0.551979	-0.368189	0.950220
C220	C	0.801979	-0.118189	1.200220
C221	C	0.051974	-0.869251	0.377775
C222	C	0.301974	-0.619251	0.627775
C223	C	0.551974	-0.369251	0.877775
C224	C	0.801974	-0.119251	1.127775
C225	C	0.000254	-0.821269	0.335065
C226	C	0.250254	-0.571269	0.585065
C227	C	0.500254	-0.321269	0.835065
C228	C	0.750254	-0.071269	1.085065
C229	C	0.000297	-0.880770	0.603209
C230	C	0.250297	-0.630770	0.853209
C231	C	0.500297	-0.380770	1.103209
C232	C	0.750297	-0.130770	1.353209
C233	C	0.000316	-0.879707	0.675657
C234	C	0.250316	-0.629707	0.925657
C235	C	0.500316	-0.379707	1.175657
C236	C	0.750316	-0.129707	1.425657
C237	C	0.000280	-0.753097	0.658697
C238	C	0.250280	-0.503097	0.908697
C239	C	0.500280	-0.253097	1.158697
C240	C	0.750280	-0.003097	1.408697
C241	C	0.000270	-0.754162	0.586250
C242	C	0.250270	-0.504162	0.836250
C243	C	0.500270	-0.254162	1.086250
C244	C	0.750270	-0.004162	1.336250
C245	C	0.000274	-0.818001	0.558511
C246	C	0.250274	-0.568001	0.808511
C247	C	0.500274	-0.318001	1.058511
C248	C	0.750274	-0.068001	1.308511
H249	H	-0.423219	-0.709087	-0.140478
H250	H	-0.173219	-0.459087	0.109522
H251	H	0.076781	-0.209087	0.359522
H252	H	0.326781	0.040913	0.609522
Cl253	Cl	0.000212	-0.481037	0.048318
Cl254	Cl	0.250212	-0.231037	0.298318
Cl255	Cl	0.500212	0.018963	0.548318
Cl256	Cl	0.750212	0.268963	0.798318
H257	H	0.000346	-0.015674	-0.203099
H258	H	0.250346	0.234326	0.046901
H259	H	0.500346	0.484326	0.296901
H260	H	0.750346	0.734326	0.546901
H261	H	-0.577064	-0.771809	-0.203274
H262	H	-0.327064	-0.521809	0.046726
H263	H	-0.077064	-0.271809	0.296726
H264	H	0.172936	-0.021809	0.546726
H265	H	0.000304	-0.932751	0.580622
H266	H	0.250304	-0.682751	0.830622
H267	H	0.500304	-0.432751	1.080622
H268	H	0.750304	-0.182751	1.330622
H269	H	-0.574726	-0.904983	-0.161601
H270	H	-0.324726	-0.654983	0.088399
H271	H	-0.074726	-0.404983	0.338399
H272	H	0.175274	-0.154983	0.588399
Cl273	Cl	-0.410117	-0.960174	-0.045634
Cl274	Cl	-0.160117	-0.710174	0.204366
Cl275	Cl	0.089883	-0.460174	0.454366
Cl276	Cl	0.339883	-0.210174	0.704366
H277	H	0.000175	-0.624756	0.018124
H278	H	0.250175	-0.374756	0.268124
H279	H	0.500175	-0.124756	0.518124
H280	H	0.750175	0.125244	0.768124
H281	H	0.000259	-0.939303	0.133736
H282	H	0.250259	-0.689303	0.383736
H283	H	0.500259	-0.439303	0.633736
H284	H	0.750259	-0.189303	0.883736
H285	H	0.000254	-0.462561	-0.209652
H286	H	0.250254	-0.212561	0.040348
H287	H	0.500254	0.037439	0.290348
H288	H	0.750254	0.287439	0.540348
H289	H	0.000332	-0.930822	0.712049
H290	H	0.250332	-0.680822	0.962049
H291	H	0.500332	-0.430822	1.212049
H292	H	0.750332	-0.180822	1.462049
H293	H	0.000323	-0.147101	-0.205028
H294	H	0.250323	0.102899	0.044972
H295	H	0.500323	0.352899	0.294972
H296	H	0.750323	0.602899	0.544972
Cl297	Cl	0.000278	-0.197666	0.052474
Cl298	Cl	0.250278	0.052334	0.302474
Cl299	Cl	0.500278	0.302334	0.552474
Cl300	Cl	0.750278	0.552334	0.802474
H301	H	0.000222	-0.709599	0.102967
H302	H	0.250222	-0.459599	0.352967
H303	H	0.500222	-0.209599	0.602967
H304	H	0.750222	0.040401	0.852967
Cl305	Cl	0.116993	-0.253180	0.018171
Cl306	Cl	0.366993	-0.003180	0.268171
Cl307	Cl	0.616993	0.246820	0.518171
Cl308	Cl	0.866993	0.496820	0.768171
Cl309	Cl	0.000237	-0.606275	-0.239852
Cl310	Cl	0.250237	-0.356275	0.010148
Cl311	Cl	0.500237	-0.106275	0.260148
Cl312	Cl	0.750237	0.143725	0.510148
H313	H	0.094082	-0.909180	0.353567
H314	H	0.344082	-0.659180	0.603567
H315	H	0.594082	-0.409180	0.853567
H316	H	0.844082	-0.159180	1.103567
H317	H	-0.576963	-0.754230	-0.004602
H318	H	-0.326963	-0.504230	0.245398
H319	H	-0.076963	-0.254230	0.495398
H320	H	0.173037	-0.004230	0.745398
Cl321	Cl	0.000262	-0.672850	0.693572
Cl322	Cl	0.250262	-0.422850	0.943572
Cl323	Cl	0.500262	-0.172850	1.193572
Cl324	Cl	0.750262	0.077150	1.443572
Cl325	Cl	-0.410384	-0.777009	-0.233190
Cl326	Cl	-0.160384	-0.527009	0.016810
Cl327	Cl	0.089616	-0.277009	0.266810
Cl328	Cl	0.339616	-0.027009	0.516810
H329	H	-0.093580	-0.733175	0.330022
H330	H	0.156420	-0.483175	0.580022
H331	H	0.406420	-0.233175	0.830022
H332	H	0.656420	0.016825	1.080022
Cl333	Cl	-0.116428	-0.387256	-0.203156
Cl334	Cl	0.133572	-0.137256	0.046844
Cl335	Cl	0.383572	0.112744	0.296844
Cl336	Cl	0.633572	0.362744	0.546844
Cl337	Cl	0.000309	-0.034151	0.054873
Cl338	Cl	0.250309	0.215849	0.304873
Cl339	Cl	0.500309	0.465849	0.554873
Cl340	Cl	0.750309	0.715849	0.804873
H341	H	0.000253	-0.703049	0.549857
H342	H	0.250253	-0.453049	0.799857
H343	H	0.500253	-0.203049	1.049857
H344	H	0.750253	0.046951	1.299857
H345	H	-0.423738	-0.750943	-0.008306
H346	H	-0.173738	-0.500943	0.241694
H347	H	0.076262	-0.250943	0.491694
H348	H	0.326262	-0.000943	0.741694
Cl349	Cl	-0.116469	-0.709532	0.474616
Cl350	Cl	0.133531	-0.459532	0.724616
Cl351	Cl	0.383531	-0.209532	0.974616
Cl352	Cl	0.633531	0.040468	1.224616
H353	H	-0.093502	-0.242665	-0.179513
H354	H	0.156498	0.007335	0.070487
H355	H	0.406498	0.257335	0.320487
H356	H	0.656498	0.507335	0.570487
Cl357	Cl	0.116951	-0.416693	0.015777
Cl358	Cl	0.366951	-0.166693	0.265777
Cl359	Cl	0.616951	0.083307	0.515777
Cl360	Cl	0.866951	0.333307	0.765777
H361	H	-0.575626	-0.936364	-0.068573
H362	H	-0.325626	-0.686364	0.181427
H363	H	-0.075626	-0.436364	0.431427
H364	H	0.174374	-0.186364	0.681427
Cl365	Cl	0.000284	-0.965174	0.284963
Cl366	Cl	0.250284	-0.715174	0.534963
Cl367	Cl	0.500284	-0.465174	0.784963
Cl368	Cl	0.750284	-0.215174	1.034963
Cl369	Cl	0.000223	-0.679405	0.246686
Cl370	Cl	0.250223	-0.429405	0.496686
Cl371	Cl	0.500223	-0.179405	0.746686
Cl372	Cl	0.750223	0.070595	0.996686
H373	H	0.094097	-0.907249	0.484999
H374	H	0.344097	-0.657249	0.734999
H375	H	0.594097	-0.407249	0.984999
H376	H	0.844097	-0.157249	1.234999
H377	H	-0.422117	-0.905614	-0.160589
H378	H	-0.172117	-0.655614	0.089411
H379	H	0.077883	-0.405614	0.339411
H380	H	0.327883	-0.155614	0.589411
Cl381	Cl	-0.408408	-0.864639	0.048438
Cl382	Cl	-0.158408	-0.614639	0.298438
Cl383	Cl	0.091592	-0.364639	0.548438
Cl384	Cl	0.341592	-0.114639	0.798438
Cl385	Cl	-0.589473	-0.679395	-0.135464
Cl386	Cl	-0.339473	-0.429395	0.114536
Cl387	Cl	-0.089473	-0.179395	0.364536
Cl388	Cl	0.160527	0.070605	0.614536
H389	H	-0.575267	-0.847767	0.022790
H390	H	-0.325267	-0.597767	0.272790
H391	H	-0.075267	-0.347767	0.522790
H392	H	0.174733	-0.097767	0.772790
