data_functionalizedCrystal
_audit_creation_method	'MofGen! by Chris Wilmer'
_symmetry_space_group_name_H-M	'P1'
_symmetry_Int_Tables_number	1
_symmetry_cell_setting	triclinic
loop_
_symmetry_equiv_pos_as_xyz
  x,y,z
_cell_length_a	16.959454
_cell_length_b	19.077105
_cell_length_c	16.959455
_cell_angle_alpha	92.299293
_cell_angle_beta	90.010582
_cell_angle_gamma	87.716588
loop_
_atom_site_label
_atom_site_type_symbol
_atom_site_fract_x
_atom_site_fract_y
_atom_site_fract_z
Zn1	Zn	-0.363425	1.075880	0.495439
Zn2	Zn	0.136575	1.575880	0.995439
Zn3	Zn	-0.495578	1.075837	0.363267
Zn4	Zn	0.004422	1.575837	0.863267
Zn5	Zn	-0.358101	0.958218	0.357972
Zn6	Zn	0.141899	1.458218	0.857972
Zn7	Zn	-0.490244	0.958160	0.490100
Zn8	Zn	0.009756	1.458160	0.990100
O9	O	-0.426837	1.017024	0.426695
O10	O	0.073163	1.517024	0.926695
O11	O	-0.385415	1.174364	0.482357
O12	O	0.114585	1.674364	0.982357
O13	O	-0.477345	1.060241	0.251954
O14	O	0.022655	1.560241	0.751954
O15	O	-0.248198	0.973868	0.376225
O16	O	0.251802	1.473868	0.876225
O17	O	-0.482508	1.174333	0.385251
O18	O	0.017492	1.674333	0.885251
O19	O	-0.252109	1.060314	0.477222
O20	O	0.247891	1.560314	0.977222
O21	O	-0.376341	0.973826	0.248064
O22	O	0.123659	1.473826	0.748064
O23	O	-0.371169	0.859720	0.371048
O24	O	0.128831	1.359720	0.871048
O25	O	-0.473417	0.973770	0.601419
O26	O	0.026583	1.473770	1.101419
O27	O	-0.468254	0.859678	0.468122
O28	O	0.031746	1.359678	0.968122
O29	O	-0.380243	1.060258	0.605342
O30	O	0.119757	1.560258	1.105342
O31	O	-0.605479	1.060185	0.380073
O32	O	-0.105479	1.560185	0.880073
O33	O	-0.601560	0.973728	0.473257
O34	O	-0.101560	1.473728	0.973257
C35	C	-0.418556	0.834162	0.418431
C36	C	0.081444	1.334162	0.918431
C37	C	-0.415032	0.755932	0.414915
C38	C	0.084968	1.255932	0.914915
C39	C	-0.632200	1.016965	0.426678
C40	C	-0.132200	1.516965	0.926678
C41	C	-0.720059	1.017004	0.426701
C42	C	-0.220059	1.517004	0.926701
C43	C	-0.464000	0.719176	0.463725
C44	C	0.036000	1.219176	0.963725
C45	C	-0.460679	0.645672	0.460424
C46	C	0.039321	1.145672	0.960424
C47	C	-0.408393	0.608924	0.408310
C48	C	0.091607	1.108924	0.908310
C49	C	-0.359420	0.645685	0.359498
C50	C	0.140580	1.145685	0.859498
C51	C	-0.362738	0.719189	0.362803
C52	C	0.137262	1.219189	0.862803
C53	C	-0.393038	0.389093	0.393019
C54	C	0.106962	0.889093	0.893019
C55	C	-0.389726	0.315585	0.389716
C56	C	0.110274	0.815585	0.889716
C57	C	-0.490984	0.315576	0.490644
C58	C	0.009016	0.815576	0.990644
C59	C	-0.494300	0.389081	0.493941
C60	C	0.005700	0.889081	0.993941
C61	C	-0.445324	0.425836	0.445132
C62	C	0.054676	0.925836	0.945132
N63	N	-0.404999	0.533791	0.404934
N64	N	0.095001	1.033791	0.904934
N65	N	-0.448715	0.500968	0.448513
N66	N	0.051285	1.000968	0.948513
C67	C	-1.089527	0.972071	0.475213
C68	C	-0.589527	1.472071	0.975213
C69	C	-1.093552	1.062172	0.378266
C70	C	-0.593552	1.562172	0.878266
C71	C	-1.011005	1.062148	0.378257
C72	C	-0.511005	1.562148	0.878257
C73	C	-0.967715	1.017083	0.426726
C74	C	-0.467715	1.517083	0.926726
C75	C	-1.006973	0.972044	0.475204
C76	C	-0.506973	1.472044	0.975204
C77	C	-0.971741	1.107182	0.329775
C78	C	-0.471741	1.607182	0.829775
C79	C	-0.889189	1.107158	0.329764
C80	C	-0.389189	1.607158	0.829764
C81	C	-0.845898	1.062097	0.378238
C82	C	-0.345898	1.562097	0.878238
C83	C	-0.885160	1.017056	0.426718
C84	C	-0.385160	1.517056	0.926718
C85	C	-0.841871	0.971991	0.475187
C86	C	-0.341871	1.471991	0.975187
C87	C	-0.881132	0.926953	0.523672
C88	C	-0.381132	1.426953	1.023672
C89	C	-0.963682	0.926982	0.523678
C90	C	-0.463682	1.426982	1.023678
C91	C	-0.763348	1.062068	0.378232
C92	C	-0.263348	1.562068	0.878232
C93	C	-0.759316	0.971964	0.475178
C94	C	-0.259316	1.471964	0.975178
C95	C	-0.220672	1.017102	0.426729
C96	C	0.279328	1.517102	0.926729
C97	C	-0.132817	1.017135	0.426743
C98	C	0.367183	1.517135	0.926743
C99	C	-0.426829	1.017012	0.632862
C100	C	0.073171	1.517012	1.132862
C101	C	-0.426826	1.017007	0.720719
C102	C	0.073174	1.517007	1.220719
C103	C	-0.435151	1.200600	0.434991
C104	C	0.064849	1.700600	0.934991
C105	C	-0.438693	1.278829	0.438526
C106	C	0.061307	1.778829	0.938526
C107	C	-0.475359	0.971987	1.090155
C108	C	0.024641	1.471987	1.590155
C109	C	-0.378336	1.062048	1.094235
C110	C	0.121664	1.562048	1.594235
C111	C	-0.378330	1.062046	1.011689
C112	C	0.121670	1.562046	1.511689
C113	C	-0.426839	1.017014	0.968372
C114	C	0.073161	1.517014	1.468372
C115	C	-0.475355	0.971985	1.007601
C116	C	0.024645	1.471985	1.507601
C117	C	-0.329820	1.107079	0.972454
C118	C	0.170180	1.607079	1.472454
C119	C	-0.329812	1.107079	0.889903
C120	C	0.170188	1.607079	1.389903
C121	C	-0.378318	1.062043	0.846584
C122	C	0.121682	1.562043	1.346584
C123	C	-0.426836	1.017012	0.885818
C124	C	0.073164	1.517012	1.385818
C125	C	-0.475345	0.971980	0.842501
C126	C	0.024655	1.471980	1.342501
C127	C	-0.523859	0.926945	0.881734
C128	C	-0.023859	1.426945	1.381734
C129	C	-0.523861	0.926949	0.964282
C130	C	-0.023861	1.426949	1.464282
C131	C	-0.378316	1.062039	0.764035
C132	C	0.121684	1.562039	1.264035
C133	C	-0.475342	0.971978	0.759948
C134	C	0.024658	1.471978	1.259948
C135	C	-0.426858	1.017026	1.221328
C136	C	0.073142	1.517026	1.721328
C137	C	-0.426849	1.017019	1.133471
C138	C	0.073151	1.517019	1.633471
H139	H	-0.506579	0.749091	0.506159
H140	H	-0.006579	1.249091	1.006159
H141	H	-0.724075	0.935270	0.514651
H142	H	-0.224075	1.435270	1.014651
Br143	Br	-0.589697	0.865839	0.822937
Br144	Br	-0.089697	1.365839	1.322937
H145	H	-1.006993	1.143865	0.290308
H146	H	-0.506993	1.643865	0.790308
Br147	Br	-0.312514	1.123166	1.153022
Br148	Br	0.187486	1.623166	1.653022
Br149	Br	-0.822372	0.865792	0.589443
Br150	Br	-0.322372	1.365792	1.089443
H151	H	-0.995656	0.890314	0.563151
H152	H	-0.495656	1.390314	1.063151
Br153	Br	-0.326566	0.438965	0.326782
Br154	Br	0.173434	0.938965	0.826782
H155	H	-0.347139	0.285667	0.347283
H156	H	0.152861	0.785667	0.847283
H157	H	-0.514855	0.935318	1.122101
H158	H	-0.014855	1.435318	1.622101
H159	H	-0.290309	1.143749	0.857967
H160	H	0.209691	1.643749	1.357967
Br161	Br	-1.142807	0.910956	0.541016
Br162	Br	-0.642807	1.410956	1.041016
Br163	Br	-1.152301	1.123327	0.312488
Br164	Br	-0.652301	1.623327	0.812488
H165	H	-0.857227	1.143831	0.290286
H166	H	-0.357227	1.643831	0.790286
H167	H	-0.500554	0.615748	0.500170
H168	H	-0.000554	1.115748	1.000170
Br169	Br	-0.710067	1.123176	0.312425
Br170	Br	-0.210067	1.623176	0.812425
H171	H	-0.514837	0.935301	0.724684
H172	H	-0.014837	1.435301	1.224684
H173	H	-0.536878	0.418996	0.536376
H174	H	-0.036878	0.918996	1.036376
Br175	Br	-0.589698	0.865838	1.017531
Br176	Br	-0.089698	1.365838	1.517531
Br177	Br	-0.312490	1.123160	0.710795
Br178	Br	0.187510	1.623160	1.210795
H179	H	-0.530856	0.285643	0.530382
H180	H	-0.030856	0.785643	1.030382
Br181	Br	-0.263999	1.168197	1.031243
Br182	Br	0.236001	1.668197	1.531243
H183	H	-0.316845	0.615760	0.317069
H184	H	0.183155	1.115760	0.817069
H185	H	-0.322859	0.749114	0.323061
H186	H	0.177141	1.249114	0.823061
