data_functionalizedCrystal
_audit_creation_method	'MofGen! by Chris Wilmer'
_symmetry_space_group_name_H-M	'P1'
_symmetry_Int_Tables_number	1
_symmetry_cell_setting	triclinic
loop_
_symmetry_equiv_pos_as_xyz
  x,y,z
_cell_length_a	14.519731
_cell_length_b	19.188930
_cell_length_c	12.996460
_cell_angle_alpha	89.988736
_cell_angle_beta	89.994327
_cell_angle_gamma	83.416817
loop_
_atom_site_label
_atom_site_type_symbol
_atom_site_fract_x
_atom_site_fract_y
_atom_site_fract_z
O1	O	1.223288	0.091595	-0.085581
O2	O	1.473288	0.341595	0.164419
O3	O	1.723288	0.591595	0.414419
O4	O	1.973288	0.841595	0.664419
O5	O	0.954747	0.102358	-0.085584
O6	O	1.204747	0.352358	0.164416
O7	O	1.454747	0.602358	0.414416
O8	O	1.704747	0.852358	0.664416
O9	O	1.096767	-0.004651	-0.085562
O10	O	1.346767	0.245349	0.164438
O11	O	1.596767	0.495349	0.414438
O12	O	1.846767	0.745349	0.664438
O13	O	1.081268	0.198604	-0.085603
O14	O	1.331268	0.448604	0.164397
O15	O	1.581268	0.698604	0.414397
O16	O	1.831268	0.948604	0.664397
O17	O	1.096752	-0.004657	0.085571
O18	O	1.346752	0.245343	0.335571
O19	O	1.596752	0.495343	0.585571
O20	O	1.846752	0.745343	0.835571
O21	O	0.954732	0.102352	0.085550
O22	O	1.204732	0.352352	0.335550
O23	O	1.454732	0.602352	0.585550
O24	O	1.704732	0.852352	0.835550
O25	O	1.223273	0.091589	0.085553
O26	O	1.473273	0.341589	0.335553
O27	O	1.723273	0.591589	0.585553
O28	O	1.973273	0.841589	0.835553
Cu29	Cu	1.089001	0.096970	0.101177
Cu30	Cu	1.339001	0.346970	0.351177
Cu31	Cu	1.589001	0.596970	0.601177
Cu32	Cu	1.839001	0.846970	0.851177
Cu33	Cu	1.089018	0.096977	-0.101208
Cu34	Cu	1.339018	0.346977	0.148792
Cu35	Cu	1.589018	0.596977	0.398792
Cu36	Cu	1.839018	0.846977	0.648792
O37	O	1.081253	0.198598	0.085531
O38	O	1.331253	0.448598	0.335531
O39	O	1.581253	0.698598	0.585531
O40	O	1.831253	0.948598	0.835531
C41	C	0.920383	0.101851	-0.000017
C42	C	1.170383	0.351851	0.249983
C43	C	1.420383	0.601851	0.499983
C44	C	1.670383	0.851851	0.749983
C45	C	0.818012	0.100339	-0.000018
C46	C	1.068012	0.350339	0.249982
C47	C	1.318012	0.600339	0.499982
C48	C	1.568012	0.850339	0.749982
C49	C	1.096257	-0.030667	0.000007
C50	C	1.346257	0.219333	0.250007
C51	C	1.596257	0.469333	0.500007
C52	C	1.846257	0.719333	0.750007
C53	C	1.094751	-0.108177	0.000016
C54	C	1.344751	0.141823	0.250016
C55	C	1.594751	0.391823	0.500016
C56	C	1.844751	0.641823	0.750016
C57	C	0.734876	0.099112	-0.000021
C58	C	0.984876	0.349112	0.249979
C59	C	1.234876	0.599112	0.499979
C60	C	1.484876	0.849112	0.749979
C61	C	0.630576	0.097577	-0.000022
C62	C	0.880576	0.347577	0.249978
C63	C	1.130576	0.597577	0.499978
C64	C	1.380576	0.847577	0.749978
C65	C	0.547445	0.096360	-0.000021
C66	C	0.797445	0.346360	0.249979
C67	C	1.047445	0.596360	0.499979
C68	C	1.297445	0.846360	0.749979
C69	C	0.443139	0.094826	-0.000023
C70	C	0.693139	0.344826	0.249977
C71	C	0.943139	0.594826	0.499977
C72	C	1.193139	0.844826	0.749977
C73	C	1.178083	-0.152799	0.000022
C74	C	1.428083	0.097201	0.250022
C75	C	1.678083	0.347201	0.500022
C76	C	1.928083	0.597201	0.750022
C77	C	1.176668	-0.225628	0.000006
C78	C	1.426668	0.024372	0.250006
C79	C	1.676668	0.274372	0.500006
C80	C	1.926668	0.524372	0.750006
C81	C	1.091915	-0.253831	0.000004
C82	C	1.341915	-0.003831	0.250004
C83	C	1.591915	0.246169	0.500004
C84	C	1.841915	0.496169	0.750004
C85	C	1.008571	-0.209199	-0.000008
C86	C	1.258571	0.040801	0.249992
C87	C	1.508571	0.290801	0.499992
C88	C	1.758571	0.540801	0.749992
C89	C	1.009989	-0.136372	-0.000002
C90	C	1.259989	0.113628	0.249998
C91	C	1.509989	0.363628	0.499998
C92	C	1.759989	0.613628	0.749998
N93	N	1.027126	-0.362073	0.058243
N94	N	1.277126	-0.112073	0.308243
N95	N	1.527126	0.137927	0.558243
N96	N	1.777126	0.387927	0.808243
N97	N	1.025785	-0.431256	0.058240
N98	N	1.275785	-0.181256	0.308240
N99	N	1.525785	0.068744	0.558240
N100	N	1.775785	0.318744	0.808240
C101	C	1.087638	-0.473255	-0.000017
C102	C	1.337638	-0.223255	0.249983
C103	C	1.587638	0.026745	0.499983
C104	C	1.837638	0.276745	0.749983
N105	N	1.150897	-0.443459	-0.058257
N106	N	1.400897	-0.193459	0.191743
N107	N	1.650897	0.056541	0.441743
N108	N	1.900897	0.306541	0.691743
N109	N	1.152241	-0.374269	-0.058248
N110	N	1.402241	-0.124269	0.191752
N111	N	1.652241	0.125731	0.441752
N112	N	1.902241	0.375731	0.691752
C113	C	1.090368	-0.332799	-0.000003
C114	C	1.340368	-0.082799	0.249997
C115	C	1.590368	0.167201	0.499997
C116	C	1.840368	0.417201	0.749997
C117	C	1.169442	-0.596848	-0.000030
C118	C	1.419442	-0.346848	0.249970
C119	C	1.669442	-0.096848	0.499970
C120	C	1.919442	0.153152	0.749970
C121	C	1.168023	-0.669678	-0.000053
C122	C	1.418023	-0.419678	0.249947
C123	C	1.668023	-0.169678	0.499947
C124	C	1.918023	0.080322	0.749947
C125	C	0.999924	-0.653247	-0.000056
C126	C	1.249924	-0.403247	0.249944
C127	C	1.499924	-0.153247	0.499944
C128	C	1.749924	0.096753	0.749944
C129	C	1.001345	-0.580419	-0.000044
C130	C	1.251345	-0.330419	0.249956
C131	C	1.501345	-0.080419	0.499956
C132	C	1.751345	0.169581	0.749956
C133	C	1.086106	-0.552224	-0.000026
C134	C	1.336106	-0.302224	0.249974
C135	C	1.586106	-0.052224	0.499974
C136	C	1.836106	0.197776	0.749974
C137	C	1.257637	0.092097	-0.000016
C138	C	1.507637	0.342097	0.249984
C139	C	1.757637	0.592097	0.499984
C140	C	2.007637	0.842097	0.749984
C141	C	1.360007	0.093608	-0.000023
C142	C	1.610007	0.343608	0.249977
C143	C	1.860007	0.593608	0.499977
C144	C	2.110007	0.843608	0.749977
C145	C	1.081762	0.224614	-0.000041
C146	C	1.331762	0.474614	0.249959
C147	C	1.581762	0.724614	0.499959
C148	C	1.831762	0.974614	0.749959
C149	C	1.083269	0.302124	-0.000057
C150	C	1.333269	0.552124	0.249943
C151	C	1.583269	0.802124	0.499943
C152	C	1.833269	1.052124	0.749943
N153	N	1.088996	0.096965	0.243524
N154	N	1.338996	0.346965	0.493524
N155	N	1.588996	0.596965	0.743524
N156	N	1.838996	0.846965	0.993524
N157	N	1.089031	0.096977	-0.243556
N158	N	1.339031	0.346977	0.006444
N159	N	1.589031	0.596977	0.256444
N160	N	1.839031	0.846977	0.506444
C161	C	1.089017	0.096978	0.663338
C162	C	1.339017	0.346978	0.913338
C163	C	1.589017	0.596978	1.163338
C164	C	1.839017	0.846978	1.413338
C165	C	1.089008	0.096977	0.546533
C166	C	1.339008	0.346977	0.796533
C167	C	1.589008	0.596977	1.046533
C168	C	1.839008	0.846977	1.296533
C169	C	1.089007	0.096972	0.453435
C170	C	1.339007	0.346972	0.703435
C171	C	1.589007	0.596972	0.953435
C172	C	1.839007	0.846972	1.203435
C173	C	1.088997	0.096969	0.336622
C174	C	1.338997	0.346969	0.586622
C175	C	1.588997	0.596969	0.836622
C176	C	1.838997	0.846969	1.086622
H177	H	1.247103	-0.129848	0.000033
H178	H	1.497103	0.120152	0.250033
H179	H	1.747103	0.370152	0.500033
H180	H	1.997103	0.620152	0.750033
H181	H	0.942127	-0.100039	-0.000006
H182	H	1.192127	0.149961	0.249994
H183	H	1.442127	0.399961	0.499994
H184	H	1.692127	0.649961	0.749994
H185	H	1.238459	-0.573890	-0.000021
H186	H	1.488459	-0.323890	0.249979
H187	H	1.738459	-0.073890	0.499979
H188	H	1.988459	0.176110	0.749979
H189	H	1.244530	-0.261967	0.000006
H190	H	1.494530	-0.011967	0.250006
H191	H	1.744530	0.238033	0.500006
H192	H	1.994530	0.488033	0.750006
H193	H	0.933486	-0.544086	-0.000043
H194	H	1.183486	-0.294086	0.249957
H195	H	1.433486	-0.044086	0.499957
H196	H	1.683486	0.205914	0.749957
H197	H	0.939565	-0.232167	-0.000011
H198	H	1.189565	0.017833	0.249989
H199	H	1.439565	0.267833	0.499989
H200	H	1.689565	0.517833	0.749989
H201	H	1.235885	-0.706009	-0.000054
H202	H	1.485885	-0.456009	0.249946
H203	H	1.735885	-0.206009	0.499946
H204	H	1.985885	0.043991	0.749946
H205	H	0.930916	-0.676209	-0.000063
H206	H	1.180916	-0.426209	0.249937
H207	H	1.430916	-0.176209	0.499937
H208	H	1.680916	0.073791	0.749937
