data_functionalizedCrystal
_audit_creation_method	'MofGen! by Chris Wilmer'
_symmetry_space_group_name_H-M	'P1'
_symmetry_Int_Tables_number	1
_symmetry_cell_setting	triclinic
loop_
_symmetry_equiv_pos_as_xyz
  x,y,z
_cell_length_a	19.805407
_cell_length_b	19.077068
_cell_length_c	19.805399
_cell_angle_alpha	92.269429
_cell_angle_beta	89.980427
_cell_angle_gamma	92.327086
loop_
_atom_site_label
_atom_site_type_symbol
_atom_site_fract_x
_atom_site_fract_y
_atom_site_fract_z
Zn1	Zn	1.023904	-0.280218	-0.393534
Zn2	Zn	1.019269	-0.397917	-0.284888
Zn3	Zn	0.910718	-0.280237	-0.280359
Zn4	Zn	0.906134	-0.397880	-0.398033
O5	O	0.965006	-0.339063	-0.339204
O6	O	1.118005	-0.295839	-0.379134
O7	O	1.004848	-0.382330	-0.189571
O8	O	0.929590	-0.181744	-0.291594
O9	O	1.114600	-0.382312	-0.299312
O10	O	1.012748	-0.181729	-0.374743
O11	O	0.925096	-0.295872	-0.186244
O12	O	0.815394	-0.295835	-0.295957
O13	O	0.921778	-0.382248	-0.492152
O14	O	0.812026	-0.382267	-0.382411
O15	O	1.008303	-0.295802	-0.488846
O16	O	1.000404	-0.496403	-0.303675
O17	O	0.917284	-0.496376	-0.386802
C18	C	0.789151	-0.339050	-0.339181
C19	C	0.713918	-0.339061	-0.339188
C20	C	0.676836	-0.384133	-0.384138
C21	C	0.606147	-0.384135	-0.384147
C22	C	0.572543	-0.339066	-0.339204
C23	C	0.609630	-0.293989	-0.294252
C24	C	0.680318	-0.293985	-0.294246
C25	C	0.324556	-0.294004	-0.294275
C26	C	0.253864	-0.294014	-0.294283
C27	C	0.250386	-0.384154	-0.384176
C28	C	0.321073	-0.384150	-0.384170
C29	C	0.358155	-0.339070	-0.339221
C30	C	0.434804	-0.339069	-0.339212
C31	C	0.495895	-0.339071	-0.339209
C32	C	0.957862	-0.521927	-0.346233
C33	C	0.954867	-0.600157	-0.349263
C34	C	0.996770	-0.636901	-0.307443
C35	C	0.993957	-0.710406	-0.310296
C36	C	0.949238	-0.747167	-0.354968
C37	C	0.907333	-0.710418	-0.396793
C38	C	0.910150	-0.636914	-0.393942
C39	C	0.936174	-0.967002	-0.368135
C40	C	0.933359	-1.040511	-0.370981
C41	C	1.019984	-1.040494	-0.284485
C42	C	1.022794	-0.966989	-0.281635
C43	C	0.980892	-0.930246	-0.323463
N44	N	0.946361	-0.822301	-0.357884
N45	N	0.983773	-0.855113	-0.320549
C46	C	1.141548	-0.339077	-0.339226
C47	C	1.216780	-0.339083	-0.339236
C48	C	0.965046	-0.339019	-0.515745
C49	C	0.965063	-0.339000	-0.590976
C50	C	0.972197	-0.155485	-0.332161
C51	C	0.975262	-0.077255	-0.329160
C52	C	1.010118	-0.293985	-0.624600
C53	C	1.010125	-0.293965	-0.695288
C54	C	0.965081	-0.338963	-0.732350
C55	C	0.920022	-0.383980	-0.698721
C56	C	0.920011	-0.383996	-0.628035
C57	C	0.920062	-0.383914	-0.983792
C58	C	0.920078	-0.383896	-1.054484
C59	C	1.010177	-0.293883	-1.051045
C60	C	1.010166	-0.293899	-0.980358
C61	C	0.965104	-0.338913	-0.946736
C62	C	0.965096	-0.338934	-0.870088
C63	C	0.965093	-0.338947	-0.808997
C64	C	0.965008	-0.339056	-0.163347
C65	C	0.965130	-0.338877	-0.088109
H66	H	0.220186	-0.420858	-0.420778
C67	C	0.147048	-0.254013	-0.254363
C68	C	0.216923	-0.244479	-0.244871
H69	H	0.124243	-0.223440	-0.223853
H70	H	0.135881	-0.243770	-0.299455
H71	H	0.133629	-0.301296	-0.246205
H72	H	0.230342	-0.197197	-0.253033
H73	H	0.228094	-0.254717	-0.199767
H74	H	0.704191	-0.420836	-0.420734
C75	C	0.906896	-0.478680	-0.552161
C76	C	0.870492	-0.433478	-0.591066
H77	H	0.876322	-0.509224	-0.529334
H78	H	0.935327	-0.505599	-0.580776
H79	H	0.933721	-0.451871	-0.519980
H80	H	0.843671	-0.460287	-0.623251
H81	H	0.842050	-0.406557	-0.562449
H82	H	1.046848	-0.257260	-0.950185
H83	H	0.575957	-0.420838	-0.420749
C84	C	0.880095	-0.423844	-1.164370
C85	C	0.870562	-0.433362	-1.095226
H86	H	0.849532	-0.454386	-1.189521
H87	H	0.872044	-0.376557	-1.174137
H88	H	0.925174	-0.434148	-1.176345
H89	H	0.825485	-0.423053	-1.083249
H90	H	0.878608	-0.480660	-1.085455
C91	C	1.056710	-0.944418	-0.166181
C92	C	1.071958	-0.926589	-0.232534
H93	H	1.087065	-0.919480	-0.135869
H94	H	1.011706	-0.932410	-0.155769
H95	H	1.061028	-0.993455	-0.161904
H96	H	1.067635	-0.877552	-0.236812
H97	H	1.116973	-0.938592	-0.242950
C98	C	1.039549	-0.524219	-0.264661
C99	C	1.045926	-0.596496	-0.258336
H100	H	1.069895	-0.499278	-0.234341
H101	H	1.049892	-0.512135	-0.309673
H102	H	0.994535	-0.512226	-0.254246
H103	H	1.090938	-0.608491	-0.268757
H104	H	1.035587	-0.608585	-0.213314
C105	C	0.434453	-0.253965	-0.254346
C106	C	0.365311	-0.244460	-0.244863
H107	H	0.459614	-0.223374	-0.223841
H108	H	0.444186	-0.301235	-0.246183
H109	H	0.446451	-0.243721	-0.299446
H110	H	0.353312	-0.254709	-0.199765
H111	H	0.355574	-0.197180	-0.253021
C112	C	0.899467	-1.063108	-0.486445
C113	C	0.884207	-1.080925	-0.420091
H114	H	0.869127	-1.088063	-0.516760
H115	H	0.895141	-1.014080	-0.490735
H116	H	0.944483	-1.075110	-0.496843
H117	H	0.839193	-1.068918	-0.409691
H118	H	0.888527	-1.129963	-0.415799
H119	H	0.348430	-0.420852	-0.420766
C120	C	0.530485	-0.284086	-0.202848
C121	C	0.572693	-0.244447	-0.244851
H122	H	0.507686	-0.253499	-0.172347
H123	H	0.498287	-0.310925	-0.229619
H124	H	0.556862	-0.314710	-0.178085
H125	H	0.546315	-0.213827	-0.269618
H126	H	0.604896	-0.217596	-0.218076
C127	C	0.676660	-0.204892	-0.205379
C128	C	0.721081	-0.244446	-0.244831
H129	H	0.701827	-0.174311	-0.174869
H130	H	0.650154	-0.178010	-0.233878
H131	H	0.647879	-0.235533	-0.180624
H132	H	0.749859	-0.213805	-0.269589
H133	H	0.747599	-0.271330	-0.216327
C134	C	0.929874	-0.884303	-0.455975
C135	C	0.890108	-0.926626	-0.414108
H136	H	0.901430	-0.859380	-0.484361
H137	H	0.956901	-0.851888	-0.428968
H138	H	0.958250	-0.912943	-0.482999
H139	H	0.861735	-0.897986	-0.387080
H140	H	0.863069	-0.959045	-0.441118
C141	C	1.047748	-0.174814	-0.598275
C142	C	1.059631	-0.244519	-0.583864
H143	H	1.078313	-0.144274	-0.573124
H144	H	1.054203	-0.168368	-0.645180
H145	H	1.002671	-0.164523	-0.586282
H146	H	1.104707	-0.254811	-0.595861
H147	H	1.053181	-0.250968	-0.536948
H148	H	1.046866	-0.257228	-1.078429
C149	C	0.882398	-0.503091	-0.966606
C150	C	0.870524	-0.433390	-0.946847
H151	H	0.851812	-0.533634	-0.943794
H152	H	0.875968	-0.509512	-1.014004
H153	H	0.927466	-0.513400	-0.955409
H154	H	0.825458	-0.423080	-0.958048
H155	H	0.876948	-0.426966	-0.899438
C156	C	0.873436	-0.733004	-0.512252
C157	C	0.858179	-0.750826	-0.445899
H158	H	0.843091	-0.757953	-0.542566
H159	H	0.869113	-0.683975	-0.516537
H160	H	0.918449	-0.745008	-0.522655
H161	H	0.813168	-0.738816	-0.435494
H162	H	0.862496	-0.799866	-0.441611
H163	H	0.883343	-0.420615	-0.728903
H164	H	1.028079	-0.740320	-0.276241
H165	H	1.054099	-1.070418	-0.250432
C166	C	0.876008	-0.524242	-0.427980
C167	C	0.864089	-0.596522	-0.439912
H168	H	0.847575	-0.499308	-0.456367
H169	H	0.866586	-0.512240	-0.382035
H170	H	0.921945	-0.512160	-0.437460
H171	H	0.818153	-0.608605	-0.430428
H172	H	0.873507	-0.608529	-0.485869
C173	C	1.023244	-0.199259	-0.771131
C174	C	1.059648	-0.244475	-0.732240
H175	H	1.053819	-0.168699	-0.793938
H176	H	0.996430	-0.226053	-0.803323
H177	H	0.994804	-0.172353	-0.742505
H178	H	1.088085	-0.271385	-0.760867
H179	H	1.086474	-0.217678	-0.700045
