data_functionalizedCrystal
_audit_creation_method	'MofGen! by Chris Wilmer'
_symmetry_space_group_name_H-M	'P1'
_symmetry_Int_Tables_number	1
_symmetry_cell_setting	triclinic
loop_
_symmetry_equiv_pos_as_xyz
  x,y,z
_cell_length_a	12.759401
_cell_length_b	12.645330
_cell_length_c	12.759393
_cell_angle_alpha	89.972126
_cell_angle_beta	89.980186
_cell_angle_gamma	90.019217
loop_
_atom_site_label
_atom_site_type_symbol
_atom_site_fract_x
_atom_site_fract_y
_atom_site_fract_z
Zn1	Zn	1.606233	-0.421956	-0.594031
Zn2	Zn	1.606118	-0.599254	-0.418356
Zn3	Zn	1.430535	-0.422009	-0.418366
Zn4	Zn	1.430514	-0.599183	-0.593993
O5	O	1.518350	-0.510601	-0.506187
O6	O	1.753239	-0.445483	-0.570739
O7	O	1.582787	-0.575794	-0.271336
O8	O	1.453898	-0.273655	-0.441689
O9	O	1.753154	-0.575742	-0.441671
O10	O	1.582983	-0.273616	-0.570749
O11	O	1.453787	-0.445573	-0.271344
O12	O	1.283511	-0.445504	-0.441652
O13	O	1.453863	-0.575622	-0.741019
O14	O	1.283496	-0.575673	-0.570684
O15	O	1.582963	-0.445414	-0.741047
O16	O	1.582767	-0.747592	-0.441634
O17	O	1.453752	-0.747540	-0.570674
C18	C	1.245383	-0.510588	-0.506166
C19	C	1.128606	-0.510608	-0.506182
C20	C	1.518273	-0.786030	-0.506172
C21	C	1.518337	-0.903860	-0.506201
C22	C	1.073764	-0.578490	-0.573263
C23	C	0.964040	-0.578494	-0.573284
C24	C	0.964010	-0.442731	-0.439133
C25	C	1.073732	-0.442722	-0.439118
C26	C	0.814139	-0.616535	-0.697146
C27	C	0.759293	-0.684433	-0.764218
C28	C	0.794885	-0.787889	-0.780168
C29	C	0.885322	-0.823468	-0.729031
C30	C	0.940162	-0.755575	-0.661951
C31	C	0.904572	-0.652104	-0.646021
C32	C	1.223634	-0.404692	-0.315255
C33	C	1.278477	-0.336804	-0.248169
C34	C	1.242887	-0.233346	-0.232208
C35	C	1.152447	-0.197771	-0.283327
C36	C	1.097605	-0.265660	-0.350413
C37	C	1.133202	-0.369116	-0.366376
C38	C	1.437508	-1.071436	-0.587630
C39	C	1.437094	-0.948876	-0.587368
C40	C	1.488364	-0.948461	-0.395479
C41	C	1.487870	-1.071060	-0.395973
C42	C	1.629633	-1.070945	-0.534596
C43	C	1.628951	-0.948338	-0.537017
C44	C	1.792383	-0.510614	-0.506208
C45	C	1.909160	-0.510620	-0.506217
C46	C	1.518423	-0.510504	-0.780220
C47	C	1.518455	-0.510463	-0.896997
C48	C	1.518456	-0.234095	-0.506224
C49	C	1.518501	-0.116265	-0.506241
C50	C	1.585628	-0.578239	-0.951859
C51	C	1.585659	-0.578186	-1.061583
C52	C	1.451333	-0.442580	-1.061574
C53	C	1.451308	-0.442627	-0.951852
C54	C	1.709583	-0.616006	-1.211546
C55	C	1.776748	-0.683798	-1.266412
C56	C	1.792829	-0.787254	-1.230797
C57	C	1.741730	-0.822939	-1.140319
C58	C	1.674557	-0.755152	-1.085459
C59	C	1.658496	-0.651682	-1.121072
C60	C	1.327383	-0.404819	-0.801886
C61	C	1.260205	-0.337037	-0.747024
C62	C	1.244113	-0.233579	-0.782637
C63	C	1.295193	-0.197898	-0.873118
C64	C	1.362372	-0.265680	-0.927980
C65	C	1.378465	-0.369137	-0.892360
C66	C	1.518338	-0.510620	-0.233219
C67	C	1.518510	-0.510363	-0.116443
H68	H	1.118439	-0.633764	-0.627873
H69	H	1.689975	-1.099935	-0.475316
N70	N	1.032523	-0.791910	-0.609703
N71	N	1.027653	-0.869270	-0.548873
H72	H	1.092887	-0.894934	-0.511975
H73	H	1.640313	-0.633465	-0.907199
H74	H	1.123457	-0.113534	-0.270314
H75	H	0.914287	-0.907717	-0.742015
H76	H	1.656976	-1.101784	-0.613962
H77	H	1.818354	-0.654734	-1.340078
H78	H	1.340486	-0.489061	-0.772877
N79	N	1.460601	-0.911026	-0.690360
N80	N	1.395980	-0.854382	-0.737983
H81	H	1.412581	-0.827652	-0.810725
N82	N	0.738847	-0.857236	-0.848677
N83	N	0.658103	-0.825464	-0.894318
H84	H	0.618521	-0.874434	-0.942705
N85	N	0.666919	-0.648078	-0.816441
N86	N	0.635154	-0.555696	-0.802204
H87	H	0.569912	-0.530024	-0.839083
N88	N	0.777777	-0.510850	-0.680880
N89	N	0.697030	-0.479108	-0.726538
H90	H	0.671344	-0.404467	-0.715050
H91	H	1.252627	-0.488934	-0.328255
H92	H	1.847510	-0.842454	-1.275482
N93	N	0.907939	-0.373398	-0.370640
N94	N	0.809974	-0.373414	-0.370660
H95	H	0.770374	-0.324447	-0.322284
N96	N	1.005234	-0.229301	-0.402638
N97	N	0.973469	-0.136920	-0.388390
H98	H	0.908237	-0.111238	-0.425280
H99	H	1.396663	-0.387352	-1.106250
N100	N	1.298911	-0.164017	-0.163664
N101	N	1.379649	-0.195790	-0.118013
H102	H	1.419214	-0.146826	-0.069606
H103	H	1.651555	-0.919183	-0.618502
H104	H	1.544302	-1.100719	-0.333264
N105	N	1.387505	-0.910098	-0.364785
N106	N	1.349342	-0.936760	-0.278485
H107	H	1.278108	-0.909670	-0.256812
H108	H	1.403978	-0.236615	-1.001646
N109	N	1.334784	-1.110169	-0.564373
N110	N	1.258831	-1.083528	-0.620305
H111	H	1.186281	-1.110880	-0.603875
H112	H	1.354706	-0.919645	-0.568583
H113	H	1.456089	-1.100843	-0.669999
N114	N	1.708645	-0.909920	-0.468056
N115	N	1.761931	-0.973506	-0.415278
H116	H	1.818215	-0.946377	-0.366565
N117	N	1.622384	-0.791582	-0.993029
N118	N	1.637514	-0.745995	-0.907455
H119	H	1.600673	-0.771725	-0.842170
N120	N	1.370887	-0.373109	-0.195976
N121	N	1.419856	-0.312478	-0.136102
H122	H	1.485129	-0.338112	-0.099252
H123	H	1.696507	-0.531761	-1.240545
N124	N	1.385957	-1.107048	-0.365831
N125	N	1.315689	-1.041620	-0.344579
H126	H	1.243709	-1.067031	-0.323290
H127	H	1.545485	-0.919305	-0.333180
N128	N	1.758151	-0.928631	-1.103968
N129	N	1.818126	-0.989143	-1.152961
H130	H	1.829726	-1.063791	-1.127287
N131	N	1.278740	-0.092219	-0.909496
N132	N	1.218758	-0.031711	-0.860505
H133	H	1.207130	0.042926	-0.886196
N134	N	1.175474	-0.164358	-0.726593
N135	N	1.129857	-0.196226	-0.645817
H136	H	1.081382	-0.147339	-0.606239
H137	H	1.218603	-0.366101	-0.673356
