data_functionalizedCrystal
_audit_creation_method	'MofGen! by Chris Wilmer'
_symmetry_space_group_name_H-M	'P1'
_symmetry_Int_Tables_number	1
_symmetry_cell_setting	triclinic
loop_
_symmetry_equiv_pos_as_xyz
  x,y,z
_cell_length_a	13.262402
_cell_length_b	13.339070
_cell_length_c	9.730223
_cell_angle_alpha	90.000049
_cell_angle_beta	74.086107
_cell_angle_gamma	99.431904
loop_
_atom_site_label
_atom_site_type_symbol
_atom_site_fract_x
_atom_site_fract_y
_atom_site_fract_z
O1	O	1.432383	0.136467	-0.421181
O2	O	1.131123	0.151292	-0.308559
O3	O	1.247178	-0.003531	-0.351949
O4	O	1.316328	0.291290	-0.377791
O5	O	1.247164	-0.003530	-0.580523
O6	O	1.131109	0.151293	-0.537134
O7	O	1.432369	0.136468	-0.649755
Zn8	Zn	1.281737	0.143881	-0.629736
Zn9	Zn	1.281755	0.143879	-0.328579
O10	O	1.316314	0.291291	-0.606366
C11	C	1.091770	0.150460	-0.408137
C12	C	0.974529	0.147967	-0.364308
C13	C	0.919456	0.146794	-0.219117
C14	C	0.809304	0.144461	-0.177941
C15	C	0.754213	0.143294	-0.281950
C16	C	0.809285	0.144460	-0.427144
C17	C	0.919450	0.146800	-0.468325
C18	C	0.754207	0.143300	-0.531158
C19	C	0.809279	0.144466	-0.676352
C20	C	0.919432	0.146806	-0.717526
C21	C	0.974523	0.147973	-0.613516
C22	C	0.644042	0.140960	-0.489977
C23	C	0.644036	0.140966	-0.739185
C24	C	0.754188	0.143299	-0.780362
C25	C	1.235490	-0.041269	-0.461867
C26	C	1.200673	-0.153718	-0.448846
C27	C	1.471395	-0.517363	-0.550052
C28	C	1.504111	-0.411712	-0.562296
C29	C	1.428255	-0.347208	-0.533934
C30	C	1.319676	-0.388366	-0.493327
C31	C	1.286957	-0.494028	-0.481094
C32	C	1.243816	-0.323873	-0.464975
C33	C	1.135237	-0.365032	-0.424369
C34	C	1.102523	-0.470683	-0.412136
C35	C	1.178380	-0.535187	-0.440498
C36	C	1.276535	-0.218212	-0.477209
C37	C	1.092096	-0.194877	-0.408250
C38	C	1.059380	-0.300528	-0.396007
C39	C	1.471721	0.137300	-0.550174
C40	C	1.588962	0.139793	-0.593994
C41	C	1.328002	0.329029	-0.496444
C42	C	1.362819	0.441478	-0.509457
N43	N	1.281731	0.143881	-0.835270
C44	C	1.230324	0.212406	-0.888012
C45	C	1.230345	0.212404	-1.031902
C46	C	1.333180	0.075343	-1.070297
C47	C	1.333165	0.075351	-0.926411
C48	C	1.170949	0.291534	-0.865845
C49	C	1.170970	0.291532	-1.009735
N50	N	1.281766	0.143871	-0.123047
H51	H	0.664522	0.141395	-0.248415
H52	H	1.375057	0.019548	-1.144520
H53	H	1.210812	0.369319	-0.841699
H54	H	1.030327	-0.142358	-0.385162
Br55	Br	0.994226	0.148387	-0.077980
Br56	Br	1.402956	-0.017632	-0.854839
Br57	Br	1.032474	0.250977	-0.739717
H58	H	1.533146	-0.569890	-0.573152
H59	H	1.064217	0.149865	-0.647035
Br60	Br	1.248036	0.413965	-1.112928
Br61	Br	0.994176	0.148413	-0.914576
Br62	Br	1.028542	0.263167	-1.021630
H63	H	0.799044	0.144249	-0.898581
Br64	Br	0.569315	0.139380	-0.292936
H65	H	1.592516	-0.378208	-0.595360
Br66	Br	0.569281	0.139392	-0.880352
H67	H	0.764471	0.143513	-0.059724
Br68	Br	0.955167	-0.526539	-0.357053
H69	H	1.151748	-0.621218	-0.430526
Br70	Br	1.423886	-0.162367	-0.532320
H71	H	1.454899	-0.261183	-0.543905
Br72	Br	0.912027	-0.356398	-0.340891
