data_functionalizedCrystal
_audit_creation_method	'MofGen! by Chris Wilmer'
_symmetry_space_group_name_H-M	'P1'
_symmetry_Int_Tables_number	1
_symmetry_cell_setting	triclinic
loop_
_symmetry_equiv_pos_as_xyz
  x,y,z
_cell_length_a	14.971486
_cell_length_b	10.489741
_cell_length_c	14.048226
_cell_angle_alpha	89.993872
_cell_angle_beta	89.998499
_cell_angle_gamma	84.076651
loop_
_atom_site_label
_atom_site_type_symbol
_atom_site_fract_x
_atom_site_fract_y
_atom_site_fract_z
O1	O	1.187893	0.166222	-0.079050
O2	O	0.927606	0.186127	-0.079076
O3	O	1.063672	-0.009492	-0.079057
O4	O	1.051827	0.361841	-0.079070
O5	O	1.063656	-0.009503	0.079264
O6	O	0.927590	0.186116	0.079245
O7	O	1.187876	0.166211	0.079271
Zn8	Zn	1.057730	0.176161	0.104395
Zn9	Zn	1.057752	0.176177	-0.104200
O10	O	1.051810	0.361830	0.079252
C11	C	0.894268	0.185232	0.000081
C12	C	0.794956	0.182564	0.000071
C13	C	0.738385	0.297485	0.000069
C14	C	0.645071	0.294971	0.000083
C15	C	0.608330	0.177534	0.000093
C16	C	0.664909	0.062604	0.000098
C17	C	0.758221	0.065120	0.000091
C18	C	0.470416	0.057369	0.000112
C19	C	0.377098	0.054853	0.000117
C20	C	0.357267	0.287220	0.000104
C21	C	0.450579	0.289736	0.000096
C22	C	0.507151	0.174805	0.000100
C23	C	1.062769	-0.057019	0.000103
C24	C	1.060093	-0.198617	0.000101
C25	C	0.973518	-0.265755	0.000085
C26	C	1.014407	-0.358357	0.078150
C27	C	1.014444	-0.358320	-0.077942
C28	C	1.101017	-0.289354	0.078230
C29	C	1.101042	-0.289308	-0.077933
C30	C	1.141994	-0.381882	0.000151
C31	C	1.221215	0.167106	0.000111
C32	C	1.320527	0.169774	0.000115
C33	C	1.052713	0.409357	0.000090
C34	C	1.055390	0.550955	0.000085
N35	N	1.057722	0.176150	0.246755
N36	N	1.057768	0.176178	-0.246561
C37	C	1.117991	0.089566	0.296582
C38	C	1.117997	0.089565	0.396240
C39	C	1.057738	0.176156	0.446069
C40	C	0.997462	0.262744	0.396235
C41	C	0.997452	0.262738	0.296580
C42	C	0.997488	0.262754	0.603950
C43	C	0.997498	0.262762	0.703612
C44	C	1.118033	0.089581	0.703610
C45	C	1.118023	0.089574	0.603954
C46	C	1.057748	0.176165	0.554127
H47	H	0.311201	0.380801	0.000105
H48	H	0.948428	0.333272	0.744178
O49	O	1.149497	-0.249100	0.165749
H50	H	1.113760	-0.277407	0.230398
H51	H	1.167073	0.019061	0.436808
O52	O	0.965921	-0.398791	-0.165368
H53	H	0.896008	-0.351814	-0.165203
O54	O	0.625282	-0.064060	0.000111
H55	H	0.647943	-0.119283	0.064647
O56	O	0.879239	-0.198868	0.000174
H57	H	0.830311	-0.271477	0.000888
O58	O	0.965887	-0.398883	0.165569
H59	H	0.895967	-0.351928	0.165405
H60	H	1.167065	0.019059	0.256018
H61	H	0.599014	0.388551	0.000080
H62	H	1.167095	0.019072	0.563383
O63	O	0.932483	0.356151	0.550202
H64	H	0.890589	0.416376	0.601592
O65	O	1.183041	-0.003826	0.757342
H66	H	1.172918	0.010709	0.835010
H67	H	0.480489	0.385363	0.000079
O68	O	1.236360	-0.448464	0.000212
H69	H	1.272063	-0.420851	0.065076
O70	O	1.149586	-0.248781	-0.165328
H71	H	1.151722	-0.143338	-0.164162
H72	H	0.948393	0.333244	0.436812
O73	O	0.819237	-0.058835	0.000099
H74	H	0.890295	-0.037358	0.000105
O75	O	0.778011	0.424149	0.000067
H76	H	0.722993	0.503637	0.000080
O77	O	0.337464	-0.071806	0.000141
H78	H	0.392477	-0.151302	0.000158
O79	O	0.932449	0.356115	0.242822
H80	H	0.944482	0.455585	0.261918
O81	O	0.531439	-0.066587	0.000111
H82	H	0.490216	-0.148672	0.000108
