data_functionalizedCrystal
_audit_creation_method	'MofGen! by Chris Wilmer'
_symmetry_space_group_name_H-M	'P1'
_symmetry_Int_Tables_number	1
_symmetry_cell_setting	triclinic
loop_
_symmetry_equiv_pos_as_xyz
  x,y,z
_cell_length_a	6.817900
_cell_length_b	14.858572
_cell_length_c	17.982865
_cell_angle_alpha	95.367744
_cell_angle_beta	102.450232
_cell_angle_gamma	104.524003
loop_
_atom_site_label
_atom_site_type_symbol
_atom_site_fract_x
_atom_site_fract_y
_atom_site_fract_z
V1	V	-4.033210	-0.290361	-0.105894
O2	O	-4.025834	-0.284423	0.004595
O3	O	-3.979649	-0.288770	-0.209495
O4	O	-3.989918	-0.416817	-0.104482
O5	O	-4.015494	-0.155489	-0.101146
V6	V	-4.516845	-0.274181	-0.092653
O7	O	-4.294223	-0.325853	-0.134940
O8	O	-4.706029	-0.238690	-0.063607
O9	O	-4.347199	-0.275772	0.010949
O10	O	-4.641617	-0.280119	-0.203142
O11	O	-4.651957	-0.409053	-0.097401
O12	O	-4.336930	-0.147725	-0.094065
C13	C	-3.823230	-0.284291	-0.234744
C14	C	-3.860758	-0.283834	-0.319441
C15	C	-4.047938	-0.195726	-0.828293
C16	C	-4.012677	-0.196169	-0.748713
C17	C	-4.038163	-0.281599	-0.719952
C18	C	-4.098894	-0.366591	-0.770775
C19	C	-4.134140	-0.366147	-0.850353
C20	C	-3.956751	-0.368383	-0.449844
C21	C	-3.921505	-0.368821	-0.370260
C22	C	-3.835288	-0.198405	-0.348205
C23	C	-3.870534	-0.197961	-0.427783
C24	C	-3.931251	-0.282953	-0.478599
C25	C	-3.969481	-0.282472	-0.564888
C26	C	-3.999949	-0.282081	-0.633664
C27	C	-3.836327	-0.447627	-0.100788
C28	C	-3.882181	-0.551008	-0.100319
C29	C	-4.050006	-0.929570	-0.098604
C30	C	-4.003303	-0.824243	-0.099081
C31	C	-3.966095	-0.740293	-0.099462
C32	C	-3.919389	-0.634958	-0.099938
C33	C	-4.166960	-0.280248	0.036194
C34	C	-4.108670	-0.280712	0.120890
C35	C	-4.153863	-0.116910	-0.097761
C36	C	-4.087248	-0.013528	-0.098226
H37	H	-4.119630	-0.436149	-0.747351
Cl38	Cl	-4.015904	-0.088323	-0.864442
H39	H	-3.849786	-0.128396	-0.451196
Cl40	Cl	-3.936326	-0.089324	-0.684832
Cl41	Cl	-3.758962	-0.091557	-0.284317
H42	H	-3.942270	-0.438392	-0.346846
Cl43	Cl	-4.032901	-0.475225	-0.513713
H44	H	-4.183586	-0.435351	-0.891728
