data_functionalizedCrystal
_audit_creation_method	'MofGen! by Chris Wilmer'
_symmetry_space_group_name_H-M	'P1'
_symmetry_Int_Tables_number	1
_symmetry_cell_setting	triclinic
loop_
_symmetry_equiv_pos_as_xyz
  x,y,z
_cell_length_a	15.298853
_cell_length_b	13.033299
_cell_length_c	13.033109
_cell_angle_alpha	89.116825
_cell_angle_beta	86.247575
_cell_angle_gamma	105.396873
loop_
_atom_site_label
_atom_site_type_symbol
_atom_site_fract_x
_atom_site_fract_y
_atom_site_fract_z
Zn1	Zn	-0.578090	-1.745556	-0.252948
Zn2	Zn	-0.707000	-1.745823	-0.052348
Zn3	Zn	-0.540650	-1.545307	-0.111201
Zn4	Zn	-0.711720	-1.596589	-0.245085
O5	O	-0.634365	-1.658319	-0.165395
O6	O	-0.608884	-1.891852	-0.204998
O7	O	-0.667289	-1.697874	0.079828
O8	O	-0.420074	-1.550297	-0.157924
O9	O	-0.703594	-1.892047	-0.057618
O10	O	-0.447581	-1.697420	-0.262065
O11	O	-0.545072	-1.550556	0.036589
O12	O	-0.549649	-1.405850	-0.150300
O13	O	-0.711638	-1.637700	-0.386111
O14	O	-0.675333	-1.443526	-0.248665
O15	O	-0.613461	-1.747146	-0.391888
O16	O	-0.833169	-1.747600	-0.049994
O17	O	-0.836636	-1.637958	-0.191598
C18	C	-0.608941	-1.386764	-0.205016
C19	C	-0.598089	-1.270600	-0.221985
C20	C	-0.640015	-1.218878	-0.156554
C21	C	-0.628800	-1.098815	-0.174091
C22	C	-0.867460	-1.698404	-0.113574
C23	C	-0.967192	-1.715654	-0.091424
C24	C	-1.012218	-1.780899	-0.007341
C25	C	-1.105922	-1.797115	0.013467
C26	C	-1.154608	-1.748081	-0.049801
C27	C	-1.109581	-1.682828	-0.133882
C28	C	-1.015869	-1.666617	-0.154697
C29	C	-1.158259	-1.633799	-0.197156
C30	C	-1.113232	-1.568546	-0.281237
C31	C	-1.019529	-1.552337	-0.302048
C32	C	-0.970842	-1.601372	-0.238780
C33	C	-1.251972	-1.650010	-0.176341
C34	C	-1.255623	-1.535728	-0.323697
C35	C	-1.161918	-1.519512	-0.344505
C36	C	-0.400366	-1.618109	-0.217437
C37	C	-0.300649	-1.600974	-0.239614
C38	C	-0.667252	-1.698113	-0.426310
C39	C	-0.681267	-1.715072	-0.537497
C40	C	-0.659880	-0.930931	-0.125615
C41	C	-0.670731	-1.047096	-0.108651
C42	C	-0.627045	-1.649742	-0.608461
C43	C	-0.641528	-1.667267	-0.723378
C44	C	-0.601546	-1.618728	0.094499
C45	C	-0.587298	-1.601929	0.205658
H46	H	-0.714940	-1.091698	-0.039651
H47	H	-0.684215	-1.263484	-0.087556
H48	H	-0.530151	-1.533016	-0.770027
C49	C	-1.113184	-1.448601	-0.435819
C50	C	-1.175865	-1.409107	-0.486766
C51	C	-1.131003	-1.343774	-0.570882
H52	H	-1.085818	-1.488772	-0.481835
H53	H	-1.067606	-1.390886	-0.412296
H54	H	-1.221427	-1.466813	-0.510290
H55	H	-1.203235	-1.368920	-0.440778
H56	H	-1.085425	-1.286059	-0.547359
H57	H	-1.103638	-1.383952	-0.616890
H58	H	-1.173524	-1.316961	-0.605454
H59	H	-0.738412	-1.783976	-0.561818
H60	H	-0.569904	-1.580833	-0.584139
C61	C	-1.256378	-1.765817	-0.027379
C62	C	-1.301828	-1.812304	-0.111873
C63	C	-1.395583	-1.828671	-0.091244
H64	H	-1.269261	-1.699480	-0.015176
H65	H	-1.276266	-1.811745	0.031722
H66	H	-1.281948	-1.766378	-0.170958
H67	H	-1.288973	-1.878649	-0.124090
H68	H	-1.415471	-1.874599	-0.032142
H69	H	-1.408456	-1.762330	-0.079039
H70	H	-1.426433	-1.860223	-0.148565
C71	C	-0.570004	-1.039256	-0.266149
C72	C	-0.623147	-0.995104	-0.327930
C73	C	-0.569015	-0.940219	-0.412734
H74	H	-0.545134	-1.087166	-0.305044
H75	H	-0.522108	-0.984047	-0.242868
H76	H	-0.671026	-1.050307	-0.351212
H77	H	-0.648017	-0.947180	-0.289067
H78	H	-0.521120	-0.885009	-0.389453
H79	H	-0.544148	-0.988135	-0.451620
H80	H	-0.605063	-0.910247	-0.454658
H81	H	-0.972573	-1.820823	0.044160
H82	H	-0.982869	-1.499214	-0.370518
C83	C	-0.717598	-1.759270	-0.755855
C84	C	-0.680574	-1.826627	-0.817358
C85	C	-0.750617	-1.911397	-0.847283
H86	H	-0.758087	-1.732320	-0.793826
H87	H	-0.749730	-1.798048	-0.696455
H88	H	-0.648457	-1.787855	-0.876748
H89	H	-0.640092	-1.853604	-0.779407
H90	H	-0.782749	-1.950175	-0.787883
H91	H	-0.791102	-1.884437	-0.885250
H92	H	-0.725506	-1.957114	-0.889007
C93	C	-1.308624	-1.482537	-0.392245
C94	C	-1.400321	-1.510675	-0.356004
C95	C	-1.449177	-1.461694	-0.419113
H96	H	-1.303240	-1.505330	-0.460688
H97	H	-1.284953	-1.407421	-0.391178
H98	H	-1.423985	-1.585775	-0.357081
H99	H	-1.405732	-1.487882	-0.287569
H100	H	-1.425506	-1.386578	-0.418047
H101	H	-1.443786	-1.484490	-0.487553
H102	H	-1.511396	-1.480770	-0.394527
C103	C	-0.539296	-1.211036	-0.314039
C104	C	-0.592440	-1.166885	-0.375820
C105	C	-0.538307	-1.111999	-0.460623
H106	H	-0.514426	-1.258946	-0.352933
H107	H	-0.491401	-1.155827	-0.290757
H108	H	-0.640319	-1.222087	-0.399102
H109	H	-0.617309	-1.118960	-0.336956
H110	H	-0.490412	-1.056790	-0.437342
H111	H	-0.513441	-1.159916	-0.499509
H112	H	-0.574355	-1.082027	-0.502547
C113	C	-1.154634	-1.867946	0.104831
C114	C	-1.091939	-1.907395	0.155801
C115	C	-1.136778	-1.972639	0.239983
H116	H	-1.200225	-1.925688	0.081405
H117	H	-1.181976	-1.827691	0.150800
H118	H	-1.064612	-1.947649	0.109840
H119	H	-1.046347	-1.849677	0.179251
H120	H	-1.164119	-1.932384	0.285953
H121	H	-1.182367	-2.030375	0.216548
H122	H	-1.094245	-1.999405	0.274583
C123	C	-0.869095	-1.583571	-0.261498
C124	C	-0.840074	-1.515909	-0.348656
C125	C	-0.746346	-1.499468	-0.369597
H126	H	-0.856201	-1.649886	-0.273795
H127	H	-0.838091	-1.551980	-0.204283
H128	H	-0.871067	-1.547502	-0.405858
H129	H	-0.852944	-1.449581	-0.336382
H130	H	-0.715342	-1.467877	-0.312382
H131	H	-0.733461	-1.565788	-0.381890
H132	H	-0.726642	-1.453551	-0.428729
H133	H	-1.288624	-1.703141	-0.107883
