data_functionalizedCrystal
_audit_creation_method	'MofGen! by Chris Wilmer'
_symmetry_space_group_name_H-M	'P1'
_symmetry_Int_Tables_number	1
_symmetry_cell_setting	triclinic
loop_
_symmetry_equiv_pos_as_xyz
  x,y,z
_cell_length_a	18.101398
_cell_length_b	12.759399
_cell_length_c	12.759393
_cell_angle_alpha	90.030434
_cell_angle_beta	90.013487
_cell_angle_gamma	90.011773
loop_
_atom_site_label
_atom_site_type_symbol
_atom_site_fract_x
_atom_site_fract_y
_atom_site_fract_z
Zn1	Zn	1.132225	-0.418340	0.593812
Zn2	Zn	1.632225	0.081660	1.093812
Zn3	Zn	1.132145	-0.594056	0.418132
Zn4	Zn	1.632145	-0.094056	0.918132
Zn5	Zn	1.008376	-0.418378	0.418170
Zn6	Zn	1.508376	0.081622	0.918170
Zn7	Zn	1.008367	-0.593964	0.593792
Zn8	Zn	1.508367	-0.093964	1.093792
O9	O	1.070278	-0.506184	0.505976
O10	O	1.570278	-0.006184	1.005976
O11	O	1.235847	-0.441672	0.570500
O12	O	1.735847	0.058328	1.070500
O13	O	1.115697	-0.570806	0.271116
O14	O	1.615697	-0.070806	0.771116
O15	O	1.024842	-0.271352	0.441493
O16	O	1.524842	0.228648	0.941493
O17	O	1.235788	-0.570769	0.441429
O18	O	1.735788	-0.070769	0.941429
O19	O	1.115833	-0.271324	0.570536
O20	O	1.615833	0.228676	1.070536
O21	O	1.024764	-0.441736	0.271144
O22	O	1.524764	0.058264	0.771144
O23	O	0.904742	-0.441647	0.441474
O24	O	1.404742	0.058353	0.941474
O25	O	1.024827	-0.570613	0.740816
O26	O	1.524827	-0.070613	1.240816
O27	O	0.904735	-0.570649	0.570503
O28	O	1.404735	-0.070649	1.070503
O29	O	1.115825	-0.441583	0.740830
O30	O	1.615825	0.058417	1.240830
O31	O	1.115688	-0.741065	0.441410
O32	O	1.615688	-0.241065	0.941410
O33	O	1.024749	-0.740997	0.570466
O34	O	1.524749	-0.240997	1.070466
C35	C	1.070229	-0.779152	0.505955
C36	C	1.570229	-0.279152	1.005955
C37	C	1.070276	-0.895928	0.505981
C38	C	1.570276	-0.395928	1.005981
C39	C	0.877868	-0.506143	0.505991
C40	C	1.377868	-0.006143	1.005991
C41	C	0.795553	-0.506151	0.506022
C42	C	1.295553	-0.006151	1.006022
C43	C	1.022964	-0.950898	0.438758
C44	C	1.522964	-0.450898	0.938758
C45	C	1.023016	-1.060622	0.438785
C46	C	1.523016	-0.560622	0.938785
C47	C	1.117694	-1.060397	0.573265
C48	C	1.617694	-0.560397	1.073265
C49	C	1.117645	-0.950675	0.573233
C50	C	1.617645	-0.450675	1.073233
C51	C	0.996668	-1.210706	0.314896
C52	C	1.496668	-0.710706	0.814896
C53	C	0.949345	-1.265680	0.247683
C54	C	1.449345	-0.765680	0.747683
C55	C	0.877074	-1.230168	0.231465
C56	C	1.377074	-0.730168	0.731465
C57	C	0.852111	-1.139686	0.282477
C58	C	1.352111	-0.639686	0.782477
C59	C	0.899431	-1.084718	0.349698
C60	C	1.399431	-0.584718	0.849698
C61	C	0.971712	-1.120228	0.365895
C62	C	1.471712	-0.620228	0.865895
C63	C	1.143986	-0.800589	0.697123
C64	C	1.643986	-0.300589	1.197123
C65	C	1.191302	-0.745619	0.764350
C66	C	1.691302	-0.245619	1.264350
C67	C	1.263574	-0.781128	0.780578
C68	C	1.763574	-0.281128	1.280578
C69	C	1.288534	-0.871614	0.729585
C70	C	1.788534	-0.371614	1.229585
C71	C	1.241217	-0.926584	0.662358
C72	C	1.741217	-0.426584	1.162358
C73	C	1.168946	-0.891067	0.646128
C74	C	1.668946	-0.391067	1.146128
C75	C	0.496462	-0.506213	0.505978
C76	C	0.996462	-0.006213	1.005978
C77	C	0.527808	-0.587770	0.586759
C78	C	1.027808	-0.087770	1.086759
C79	C	0.613427	-0.587515	0.587091
C80	C	1.113427	-0.087515	1.087091
C81	C	0.644845	-0.506183	0.506000
C82	C	1.144845	-0.006183	1.006000
C83	C	0.613772	-0.395520	0.536250
C84	C	1.113772	0.104480	1.036250
C85	C	0.528127	-0.396010	0.536825
C86	C	1.028127	0.103990	1.036825
C87	C	0.528010	-0.534342	0.394752
C88	C	1.028010	-0.034342	0.894752
C89	C	0.613660	-0.536770	0.395347
C90	C	1.113660	-0.036770	0.895347
C91	C	0.728705	-0.506159	0.506011
C92	C	1.228705	-0.006159	1.006011
C93	C	0.412603	-0.506229	0.505970
C94	C	0.912603	-0.006229	1.005970
C95	C	1.263440	-0.506227	0.505962
C96	C	1.763440	-0.006227	1.005962
C97	C	1.345754	-0.506245	0.505956
C98	C	1.845754	-0.006245	1.005956
C99	C	1.070333	-0.506084	0.780010
C100	C	1.570333	-0.006084	1.280010
C101	C	1.070357	-0.506041	0.896786
C102	C	1.570357	-0.006041	1.396786
C103	C	1.070348	-0.232151	0.506021
C104	C	1.570348	0.267849	1.006021
C105	C	1.070377	-0.115374	0.506040
C106	C	1.570377	0.384626	1.006040
C107	C	1.070265	-0.506209	0.233009
C108	C	1.570265	-0.006209	0.733009
C109	C	1.070385	-0.505956	0.116233
C110	C	1.570385	-0.005956	0.616233
C111	C	1.117743	-0.438844	0.951658
C112	C	1.617743	0.061156	1.451658
C113	C	1.117756	-0.438799	1.061382
C114	C	1.617756	0.061201	1.561382
C115	C	1.022994	-0.573156	1.061354
C116	C	1.522994	-0.073156	1.561354
C117	C	1.022978	-0.573195	0.951632
C118	C	1.522978	-0.073195	1.451632
C119	C	1.144270	-0.314846	1.211355
C120	C	1.644270	0.185154	1.711355
C121	C	1.191668	-0.247659	1.266230
C122	C	1.691668	0.252341	1.766230
C123	C	1.263928	-0.231559	1.230625
C124	C	1.763928	0.268441	1.730625
C125	C	1.288805	-0.282662	1.140147
C126	C	1.788805	0.217338	1.640147
C127	C	1.241411	-0.349857	1.085278
C128	C	1.741411	0.150143	1.585278
C129	C	1.169141	-0.365937	1.120881
C130	C	1.669141	0.134063	1.620881
C131	C	0.996471	-0.697149	0.801657
C132	C	1.496471	-0.197149	1.301657
C133	C	0.949081	-0.764350	0.746786
C134	C	1.449081	-0.264350	1.246786
C135	C	0.876819	-0.780461	0.782388
C136	C	1.376819	-0.280461	1.282388
C137	C	0.851945	-0.729377	0.872869
C138	C	1.351945	-0.229377	1.372869
C139	C	0.899336	-0.662175	0.927741
C140	C	1.399336	-0.162175	1.427741
C141	C	0.971596	-0.646063	0.892131
C142	C	1.471596	-0.146063	1.392131
H143	H	0.984394	-0.906326	0.383996
H144	H	1.484394	-0.406326	0.883996
F145	F	1.168102	-1.118672	0.644839
F146	F	1.668102	-0.618672	1.144839
H147	H	1.261667	-0.391468	1.011616
H148	H	1.761667	0.108532	1.511616
H149	H	0.507391	-0.333066	0.480685
H150	H	1.007391	0.166934	0.980685
F151	F	0.500877	-0.695383	0.562264
F152	F	1.000877	-0.195383	1.062264
H153	H	1.347649	-0.269555	1.111170
H154	H	1.847649	0.230445	1.611170
H155	H	0.507738	-0.474936	0.334563
H156	H	1.007738	0.025064	0.834563
H157	H	0.506298	-0.569394	0.668694
H158	H	1.006298	-0.069394	1.168694
F159	F	0.775185	-1.101909	0.265227
F160	F	1.275185	-0.601909	0.765227
F161	F	1.314372	-0.160054	1.289032
F162	F	1.814372	0.339946	1.789032
F163	F	1.165190	-0.193274	1.362520
F164	F	1.665190	0.306726	1.862520
H165	H	0.838543	-1.274936	0.176739
H166	H	1.338543	-0.774936	0.676739
F167	F	1.073374	-0.679979	0.763739
F168	F	1.573374	-0.179979	1.263739
F169	F	0.640229	-0.563186	0.694809
F170	F	1.140229	-0.063186	1.194809
F171	F	1.067359	-0.331963	1.249247
F172	F	1.567359	0.168037	1.749247
F173	F	1.164735	-0.649314	0.818621
F174	F	1.664735	-0.149314	1.318621
H175	H	0.879107	-1.011049	0.391230
H176	H	1.379107	-0.511049	0.891230
F177	F	1.313928	-0.722626	0.852137
F178	F	1.813928	-0.222626	1.352137
H179	H	0.984421	-0.627833	1.106022
H180	H	1.484421	-0.127833	1.606022
H181	H	0.635236	-0.371232	0.616677
H182	H	1.135236	0.128768	1.116677
H183	H	1.085142	-0.771651	0.683891
H184	H	1.585142	-0.271651	1.183891
H185	H	0.633978	-0.618202	0.372532
H186	H	1.133978	-0.118202	0.872532
H187	H	0.969676	-1.339351	0.206150
H188	H	1.469676	-0.839351	0.706150
H189	H	0.879077	-0.620580	1.001416
H190	H	1.379077	-0.120580	1.501416
H191	H	1.055519	-1.239621	0.328084
H192	H	1.555519	-0.739621	0.828084
F193	F	0.775037	-0.746525	0.910766
F194	F	1.275037	-0.246525	1.410766
F195	F	1.267784	-1.022890	0.608088
F196	F	1.767784	-0.522890	1.108088
F197	F	0.502033	-0.364829	0.643104
F198	F	1.002033	0.135171	1.143104
H199	H	1.347364	-0.900576	0.742866
H200	H	1.847364	-0.400576	1.242866
F201	F	0.640889	-0.694783	0.562345
F202	F	1.140889	-0.194783	1.062345
F203	F	0.640372	-0.313937	0.461750
F204	F	1.140372	0.186063	0.961750
H205	H	1.156320	-0.384160	0.907006
H206	H	1.656320	0.115840	1.407006
H207	H	0.506410	-0.613658	0.367260
H208	H	1.006410	-0.113658	0.867260
F209	F	0.826388	-0.852003	0.723997
F210	F	1.326388	-0.352003	1.223997
H211	H	0.635047	-0.481682	0.331927
H212	H	1.135047	0.018318	0.831927
H213	H	0.969343	-0.805956	0.673118
H214	H	1.469343	-0.305956	1.173118
