data_functionalizedCrystal
_audit_creation_method	'MofGen! by Chris Wilmer'
_symmetry_space_group_name_H-M	'P1'
_symmetry_Int_Tables_number	1
_symmetry_cell_setting	triclinic
loop_
_symmetry_equiv_pos_as_xyz
  x,y,z
_cell_length_a	6.817900
_cell_length_b	24.040840
_cell_length_c	17.078481
_cell_angle_alpha	84.681938
_cell_angle_beta	80.693839
_cell_angle_gamma	103.140658
loop_
_atom_site_label
_atom_site_type_symbol
_atom_site_fract_x
_atom_site_fract_y
_atom_site_fract_z
V1	V	-3.976887	-0.078716	0.245604
O2	O	-3.968182	0.003920	0.242740
O3	O	-3.926022	-0.156212	0.242182
O4	O	-3.907978	-0.077445	0.353515
O5	O	-3.986351	-0.075393	0.130636
V6	V	-4.463492	-0.068839	0.232065
O7	O	-4.231385	-0.100382	0.275304
O8	O	-4.659192	-0.047173	0.202365
O9	O	-4.291151	0.008657	0.235487
O10	O	-4.589595	-0.151474	0.234928
O11	O	-4.571425	-0.072162	0.347033
O12	O	-4.309196	-0.070110	0.124153
C13	C	-3.771087	-0.175106	0.237858
C14	C	-3.810648	-0.238459	0.235779
C15	C	-4.010487	-0.271124	0.238695
C16	C	-4.047649	-0.330651	0.236747
C17	C	-3.884968	-0.357513	0.231877
C18	C	-3.685114	-0.324845	0.228963
C19	C	-3.647956	-0.265319	0.230917
C20	C	-3.976662	-0.535232	0.225620
C21	C	-4.013835	-0.594762	0.223664
C22	C	-4.376369	-0.600564	0.231449
C23	C	-4.339192	-0.541036	0.233398
C24	C	-4.139344	-0.508374	0.230489
N25	N	-3.922948	-0.418360	0.229883
N26	N	-4.101369	-0.447529	0.232489
C27	C	-4.109443	0.027548	0.239809
C28	C	-4.047992	0.092091	0.241944
V29	V	-4.208945	0.197080	0.238157
O30	O	-4.169480	0.281162	0.233365
O31	O	-4.188621	0.116367	0.239044
O32	O	-4.169924	0.195111	0.350409
O33	O	-4.188306	0.201873	0.121229
V34	V	-4.662169	0.223109	0.202927
O35	O	-4.464970	0.182959	0.257716
O36	O	-4.831925	0.251866	0.163710
O37	O	-4.471393	0.296566	0.211786
O38	O	-4.812664	0.142844	0.202593
O39	O	-4.793838	0.222133	0.314729
O40	O	-4.490090	0.217822	0.100421
C41	C	-3.748068	-0.074630	0.379874
C42	C	-3.772994	-0.074104	0.468080
C43	C	-4.132448	-0.072927	0.097791
C44	C	-4.086761	-0.073450	0.009584
C45	C	-4.293615	0.309897	0.223578
C46	C	-4.213673	0.372574	0.226580
C47	C	-4.024150	0.192535	0.384006
C48	C	-4.069290	0.193043	0.472227
C49	C	-3.965946	-0.076701	0.513498
C50	C	-3.989354	-0.076206	0.596377
C51	C	-3.819811	-0.073118	0.633838
C52	C	-3.626843	-0.070518	0.588414
C53	C	-3.603434	-0.071009	0.505535
C54	C	-3.870384	-0.071341	0.881281
C55	C	-3.893809	-0.070852	0.964166
C56	C	-4.256319	-0.076539	0.972123
C57	C	-4.232895	-0.077033	0.889244
C58	C	-4.039928	-0.074431	0.843826
N59	N	-3.843735	-0.072614	0.718554
N60	N	-4.016004	-0.074931	0.759111
C61	C	-4.317465	0.209452	0.081520
C62	C	-4.252689	0.208271	-0.005795
C63	C	-4.263946	0.196239	0.509851
C64	C	-4.306378	0.196726	0.592742
C65	C	-4.154156	0.194012	0.638008
C66	C	-3.959481	0.190817	0.600378
C67	C	-3.917047	0.190335	0.517488
C68	C	-4.060218	0.199142	-0.035126
C69	C	-3.999321	0.198038	-0.117167
C70	C	-4.130903	0.206058	-0.169875
C71	C	-4.323388	0.215189	-0.140539
C72	C	-4.384276	0.216298	-0.058500
H73	H	-4.142963	-0.249256	0.242653
H74	H	-3.713275	-0.069242	0.844316
H75	H	-4.541010	0.223728	-0.034626
C76	C	-4.267483	-0.366579	0.239952
N77	N	-4.433071	-0.393640	0.242366
C78	C	-4.468111	0.224008	-0.198529
N79	N	-4.577119	0.230647	-0.242210
C80	C	-3.787596	0.187981	-0.149417
N81	N	-3.628131	0.180402	-0.173705
H82	H	-4.539080	-0.627165	0.233818
H83	H	-4.471673	-0.519170	0.237370
C84	C	-3.834864	-0.624309	0.218313
N85	N	-3.700070	-0.646564	0.214283
C86	C	-3.756824	-0.499309	0.222408
N87	N	-3.591230	-0.472250	0.219985
C88	C	-3.915434	0.190323	0.022838
N89	N	-3.806363	0.183684	0.066492
H90	H	-4.146471	-0.078318	0.633353
C91	C	-4.063899	0.204832	-0.260118
N92	N	-4.013424	0.203905	-0.328088
H93	H	-4.413426	-0.078657	1.009111
C94	C	-3.428119	-0.229388	0.227707
N95	N	-3.262532	-0.202326	0.225290
H96	H	-3.552660	-0.346721	0.225003
H97	H	-3.835553	0.188608	0.637247
C98	C	-4.152463	-0.080098	0.472299
N99	N	-4.292952	-0.082654	0.441270
C100	C	-3.702917	0.186808	0.476114
N101	N	-3.541629	0.184148	0.444956
H102	H	-3.755735	-0.068336	0.994663
C103	C	-4.419405	-0.080424	0.848042
N104	N	-4.559887	-0.082977	0.817009
H105	H	-3.488797	-0.068000	0.618920
H106	H	-3.446305	-0.068880	0.468554
H107	H	-4.387920	0.198448	0.473006
H108	H	-4.464904	0.199325	0.623368
H109	H	-4.188735	0.194405	0.705502
