data_functionalizedCrystal
_audit_creation_method	'MofGen! by Chris Wilmer'
_symmetry_space_group_name_H-M	'P1'
_symmetry_Int_Tables_number	1
_symmetry_cell_setting	triclinic
loop_
_symmetry_equiv_pos_as_xyz
  x,y,z
_cell_length_a	16.109301
_cell_length_b	17.038272
_cell_length_c	15.186229
_cell_angle_alpha	89.995962
_cell_angle_beta	89.999362
_cell_angle_gamma	87.286518
loop_
_atom_site_label
_atom_site_type_symbol
_atom_site_fract_x
_atom_site_fract_y
_atom_site_fract_z
O1	O	1.110268	0.100495	-0.073174
O2	O	1.610268	0.600495	0.426826
O3	O	0.869094	0.113001	-0.073188
O4	O	1.369094	0.613001	0.426812
O5	O	0.988247	-0.007067	-0.073174
O6	O	1.488247	0.492933	0.426826
O7	O	0.991114	0.220563	-0.073187
O8	O	1.491114	0.720563	0.426813
O9	O	0.988239	-0.007069	0.073284
O10	O	1.488239	0.492931	0.573284
O11	O	0.869085	0.113000	0.073270
O12	O	1.369085	0.613000	0.573270
O13	O	1.110259	0.100493	0.073284
O14	O	1.610259	0.600493	0.573284
Zn15	Zn	0.989671	0.106746	0.096530
Zn16	Zn	1.489671	0.606746	0.596530
Zn17	Zn	0.989682	0.106748	-0.096434
Zn18	Zn	1.489682	0.606748	0.403566
O19	O	0.991105	0.220562	0.073270
O20	O	1.491105	0.720562	0.573270
C21	C	0.838079	0.112494	0.000039
C22	C	1.338079	0.612494	0.500039
C23	C	0.745676	0.110975	0.000034
C24	C	1.245676	0.610975	0.500034
C25	C	0.528212	0.178690	0.000040
C26	C	1.028212	0.678690	0.500040
C27	C	0.441390	0.177257	0.000046
C28	C	0.941390	0.677257	0.500046
C29	C	0.451147	0.034799	0.000051
C30	C	0.951147	0.534799	0.500051
C31	C	0.537968	0.036233	0.000051
C32	C	1.037968	0.536233	0.500051
C33	C	0.576498	0.108181	0.000042
C34	C	1.076498	0.608181	0.500042
C35	C	0.402855	0.105314	0.000047
C36	C	0.902855	0.605314	0.500047
C37	C	0.308719	0.103759	0.000053
C38	C	0.808719	0.603759	0.500053
C39	C	0.670640	0.109736	0.000037
C40	C	1.170640	0.609736	0.500037
C41	C	0.985636	-0.036196	0.000055
C42	C	1.485636	0.463804	0.500055
C43	C	0.977857	-0.122989	0.000054
C44	C	1.477857	0.377011	0.500054
C45	C	1.049277	-0.173104	0.000059
C46	C	1.549277	0.326896	0.500059
C47	C	1.041963	-0.254654	0.000050
C48	C	1.541963	0.245346	0.500050
C49	C	0.963228	-0.286089	0.000043
C50	C	1.463228	0.213911	0.500043
C51	C	0.891802	-0.235967	0.000035
C52	C	1.391802	0.264033	0.500035
C53	C	0.899116	-0.154418	0.000038
C54	C	1.399116	0.345582	0.500038
C55	C	0.937385	-0.531846	0.000029
C56	C	1.437385	-0.031846	0.500029
C57	C	0.930076	-0.613402	0.000029
C58	C	1.430076	-0.113402	0.500029
C59	C	1.080238	-0.632083	0.000043
C60	C	1.580238	-0.132083	0.500043
C61	C	1.087546	-0.550532	0.000051
C62	C	1.587546	-0.050532	0.500051
C63	C	1.016120	-0.500418	0.000038
C64	C	1.516120	-0.000418	0.500038
C65	C	0.955749	-0.369446	0.000037
C66	C	1.455749	0.130554	0.500037
C67	C	1.023599	-0.417062	0.000038
C68	C	1.523599	0.082938	0.500038
C69	C	1.141274	0.101001	0.000055
C70	C	1.641274	0.601001	0.500055
C71	C	1.233677	0.102519	0.000054
C72	C	1.733677	0.602519	0.500054
C73	C	0.993717	0.249691	0.000039
C74	C	1.493717	0.749691	0.500039
C75	C	1.001496	0.336484	0.000034
C76	C	1.501496	0.836484	0.500034
N77	N	0.989669	0.106744	0.228223
N78	N	1.489669	0.606744	0.728223
N79	N	0.989690	0.106744	-0.228126
N80	N	1.489690	0.606744	0.271874
C81	C	1.042451	0.053596	0.453952
C82	C	1.542451	0.553596	0.953952
C83	C	1.042453	0.053594	0.546141
C84	C	1.542453	0.553594	1.046141
C85	C	0.936902	0.159895	0.546138
C86	C	1.436902	0.659895	1.046138
C87	C	0.936896	0.159893	0.453950
C88	C	1.436896	0.659893	0.953950
C89	C	0.989675	0.106744	0.407859
C90	C	1.489675	0.606744	0.907859
C91	C	0.989684	0.106745	0.592237
C92	C	1.489684	0.606745	1.092237
C93	C	0.989686	0.106743	0.692193
C94	C	1.489686	0.606743	1.192193
C95	C	0.989672	0.106744	0.307897
C96	C	1.489672	0.606744	0.807897
H97	H	1.100122	-0.295455	0.000056
H98	H	1.600122	0.204545	0.500056
H99	H	0.559580	0.237274	0.000039
H100	H	1.059580	0.737274	0.500039
H101	H	0.419765	-0.023778	0.000064
H102	H	0.919765	0.476222	0.500064
O103	O	1.125780	-0.142609	-0.000091
O104	O	1.625780	0.357391	0.499909
C105	C	1.169677	-0.168231	-0.075931
C106	C	1.669677	0.331769	0.424069
H107	H	1.123737	-0.185178	-0.128948
H108	H	1.623737	0.314822	0.371052
H109	H	1.208544	-0.118838	-0.101391
H110	H	1.708544	0.381162	0.398609
H111	H	1.212244	-0.221394	-0.058783
H112	H	1.712244	0.278606	0.441217
H113	H	1.085425	0.010318	0.416427
H114	H	1.585425	0.510318	0.916427
H115	H	1.085427	0.010315	0.583667
H116	H	1.585427	0.510315	1.083667
O117	O	0.394609	0.245822	0.000002
O118	O	0.894609	0.745822	0.500002
C119	C	0.447238	0.309627	0.000018
C120	C	0.947238	0.809627	0.500018
H121	H	0.510556	0.289767	-0.027711
H122	H	1.010556	0.789767	0.472289
H123	H	0.418742	0.359030	-0.042505
H124	H	0.918742	0.859030	0.457495
H125	H	0.454974	0.331679	0.070279
H126	H	0.954974	0.831679	0.570279
H127	H	0.891642	-0.395049	0.000032
H128	H	1.391642	0.104951	0.500032
O129	O	1.164094	-0.520129	0.000022
O130	O	1.664094	-0.020129	0.500022
C131	C	1.225565	-0.581850	0.000051
C132	C	1.725565	-0.081850	0.500051
H133	H	1.198347	-0.637239	-0.027687
H134	H	1.698347	-0.137239	0.472313
H135	H	1.280196	-0.564816	-0.042457
H136	H	1.780196	-0.064816	0.457543
H137	H	1.247860	-0.593404	0.070317
H138	H	1.747860	-0.093404	0.570317
H139	H	0.893916	0.203173	0.416419
H140	H	1.393916	0.703173	0.916419
H141	H	0.577284	-0.021187	0.000055
H142	H	1.077284	0.478813	0.500055
O143	O	0.885720	0.211497	0.591049
O144	O	1.385720	0.711497	1.091049
C145	C	0.897028	0.200093	0.682301
C146	C	1.397028	0.700093	1.182301
H147	H	0.961060	0.170887	0.694889
H148	H	1.461060	0.670887	1.194889
H149	H	0.891969	0.259301	0.717329
H150	H	1.391969	0.759301	1.217329
H151	H	0.847199	0.160869	0.708473
H152	H	1.347199	0.660869	1.208473
O153	O	0.815300	-0.266464	-0.000131
O154	O	1.315300	0.233536	0.499869
C155	C	0.771411	-0.240833	-0.075975
C156	C	1.271411	0.259167	0.424025
H157	H	0.817356	-0.223878	-0.128987
H158	H	1.317356	0.276122	0.371013
H159	H	0.732548	-0.290224	-0.101440
H160	H	1.232548	0.209776	0.398560
H161	H	0.728839	-0.187674	-0.058830
H162	H	1.228839	0.312326	0.441170
O163	O	1.149532	-0.680875	0.000008
O164	O	1.649532	-0.180875	0.500008
C165	C	1.126197	-0.759593	0.000026
C166	C	1.626197	-0.259593	0.500026
H167	H	1.060675	-0.762702	-0.027703
H168	H	1.560675	-0.262702	0.472297
H169	H	1.171369	-0.796548	-0.042495
H170	H	1.671369	-0.296548	0.457505
H171	H	1.127679	-0.783185	0.070288
H172	H	1.627679	-0.283185	0.570288
O173	O	0.853570	-0.643903	-0.000142
O174	O	1.353570	-0.143903	0.499858
C175	C	0.809685	-0.618279	-0.075991
C176	C	1.309685	-0.118279	0.424009
H177	H	0.855632	-0.601319	-0.128999
H178	H	1.355632	-0.101319	0.371001
H179	H	0.770831	-0.667675	-0.101458
H180	H	1.270831	-0.167675	0.398542
H181	H	0.767105	-0.565124	-0.058852
H182	H	1.267105	-0.065124	0.441148
O183	O	0.868067	-0.483091	0.000140
O184	O	1.368067	0.016909	0.500140
C185	C	0.867788	-0.435376	0.076001
C186	C	1.367788	0.064624	0.576001
H187	H	0.934069	-0.431272	0.101294
H188	H	1.434069	0.068728	0.601294
H189	H	0.841157	-0.374076	0.058937
H190	H	1.341157	0.125924	0.558937
H191	H	0.827914	-0.462196	0.129113
H192	H	1.327914	0.037804	0.629113
H193	H	0.840958	-0.113615	0.000033
H194	H	1.340958	0.386385	0.500033
H195	H	1.087705	-0.391465	0.000025
H196	H	1.587705	0.108535	0.500025
