data_functionalizedCrystal
_audit_creation_method	'MofGen! by Chris Wilmer'
_symmetry_space_group_name_H-M	'P1'
_symmetry_Int_Tables_number	1
_symmetry_cell_setting	triclinic
loop_
_symmetry_equiv_pos_as_xyz
  x,y,z
_cell_length_a	15.944557
_cell_length_b	15.944551
_cell_length_c	7.540329
_cell_angle_alpha	89.995457
_cell_angle_beta	90.001110
_cell_angle_gamma	96.499947
loop_
_atom_site_label
_atom_site_type_symbol
_atom_site_fract_x
_atom_site_fract_y
_atom_site_fract_z
O1	O	-1.114519	0.108357	-0.147410
O2	O	-0.869970	0.121707	-0.147431
O3	O	-0.998923	-0.007243	-0.147404
O4	O	-0.985567	0.237307	-0.147437
O5	O	-0.998915	-0.007244	0.147561
O6	O	-0.869962	0.121706	0.147534
O7	O	-1.114511	0.108355	0.147555
Cu8	Cu	-0.992236	0.115030	0.174477
Cu9	Cu	-0.992245	0.115032	-0.174353
O10	O	-0.985559	0.237305	0.147528
C11	C	-0.838672	0.121151	0.000049
C12	C	-0.745427	0.119487	0.000042
C13	C	-0.474796	0.034581	0.000082
C14	C	-0.525373	0.075511	0.145512
C15	C	-0.409785	0.113551	0.000085
C16	C	-0.525361	0.075534	-0.145301
C17	C	-0.574697	0.116463	0.000061
C18	C	-0.459134	0.154460	0.145635
C19	C	-0.459119	0.154471	-0.145308
C20	C	-0.509664	0.195460	0.000158
C21	C	-0.314783	0.111871	0.000100
C22	C	-0.669696	0.118149	0.000058
C23	C	-0.998364	-0.038538	0.000079
C24	C	-0.996702	-0.131784	0.000080
C25	C	-0.912798	-0.346642	0.000048
C26	C	-0.951757	-0.407659	0.145487
C27	C	-0.993695	-0.302510	0.000066
C28	C	-0.951783	-0.407641	-0.145325
C29	C	-0.990784	-0.467422	0.000045
C30	C	-1.032676	-0.362299	0.145625
C31	C	-1.032691	-0.362274	-0.145318
C32	C	-1.071708	-0.423274	0.000156
C33	C	-0.995369	-0.207507	0.000080
C34	C	-0.989116	-0.562423	0.000044
C35	C	-0.145811	0.108900	0.000080
C36	C	-0.239061	0.110530	0.000101
C37	C	-0.986117	0.268600	0.000041
C38	C	-0.987779	0.361846	0.000029
N39	N	-0.992236	0.115028	0.419826
N40	N	-0.992252	0.115027	-0.419701
H41	H	-0.430176	0.187794	-0.268272
H42	H	-0.917560	-0.427718	-0.268291
O43	O	-0.528302	0.276609	0.000162
C44	C	-0.637633	0.369299	-0.001070
C45	C	-0.616641	0.277363	-0.001134
H46	H	-0.709055	0.369940	-0.002080
H47	H	-0.609265	0.403225	-0.123910
H48	H	-0.610111	0.402800	0.122967
H49	H	-0.644160	0.243790	-0.125087
H50	H	-0.644995	0.243501	0.121789
H51	H	-0.430322	0.187785	0.268719
O52	O	-1.151897	-0.462800	0.000567
C53	C	-1.285101	-0.484477	0.154221
C54	C	-1.194307	-0.439674	0.153987
H55	H	-1.319421	-0.465783	0.278229
H56	H	-1.283305	-0.555750	0.153160
H57	H	-1.319813	-0.465021	0.031357
H58	H	-1.159542	-0.459061	0.276830
H59	H	-1.196164	-0.368410	0.154956
O60	O	-0.559777	0.035621	-0.291928
C61	C	-0.581507	-0.094275	-0.457518
C62	C	-0.542475	-0.049164	-0.291424
H63	H	-0.567547	-0.162835	-0.457148
H64	H	-0.553212	-0.061353	-0.581523
H65	H	-0.652717	-0.092041	-0.456785
H66	H	-0.471265	-0.051384	-0.291986
H67	H	-0.570836	-0.082098	-0.167494
H68	H	-0.845650	-0.313336	0.000188
O69	O	-1.073489	-0.338109	-0.291863
C70	C	-1.121314	-0.222629	-0.455223
C71	C	-1.075120	-0.249887	-0.289146
H72	H	-1.122632	-0.151299	-0.453100
H73	H	-1.188708	-0.255323	-0.456503
H74	H	-1.086746	-0.241089	-0.579095
H75	H	-1.109618	-0.231432	-0.165186
H76	H	-1.007724	-0.217200	-0.288024
O77	O	-0.456154	-0.046568	0.000567
C78	C	-0.468939	-0.179877	0.154400
C79	C	-0.490094	-0.087995	0.154082
H80	H	-0.496385	-0.213403	0.278485
H81	H	-0.397506	-0.180435	0.153247
H82	H	-0.497316	-0.213834	0.031614
H83	H	-0.461772	-0.053983	0.276847
H84	H	-0.561534	-0.087498	0.155143
O85	O	-0.910802	-0.431600	0.292035
C86	C	-0.780779	-0.419336	0.457790
C87	C	-0.827058	-0.392176	0.291740
H88	H	-0.713068	-0.387460	0.457625
H89	H	-0.780382	-0.490789	0.457050
H90	H	-0.814652	-0.399820	0.581703
H91	H	-0.793221	-0.411634	0.167739
H92	H	-0.827462	-0.320724	0.292636
H93	H	-0.554301	0.042159	0.268471
H94	H	-1.066860	-0.342308	0.268717
