data_functionalizedCrystal
_audit_creation_method	'MofGen! by Chris Wilmer'
_symmetry_space_group_name_H-M	'P1'
_symmetry_Int_Tables_number	1
_symmetry_cell_setting	triclinic
loop_
_symmetry_equiv_pos_as_xyz
  x,y,z
_cell_length_a	16.120530
_cell_length_b	25.639239
_cell_length_c	16.120256
_cell_angle_alpha	92.870449
_cell_angle_beta	90.128265
_cell_angle_gamma	87.134054
loop_
_atom_site_label
_atom_site_type_symbol
_atom_site_fract_x
_atom_site_fract_y
_atom_site_fract_z
Zn1	Zn	1.247329	-0.264893	-0.534538
Zn2	Zn	1.580663	0.068440	-0.201205
Zn3	Zn	1.913996	0.401774	0.132129
Zn4	Zn	1.254246	-0.348122	-0.395471
Zn5	Zn	1.587579	-0.014789	-0.062138
Zn6	Zn	1.920912	0.318545	0.271196
Zn7	Zn	1.115324	-0.256055	-0.388456
Zn8	Zn	1.448657	0.077278	-0.055123
Zn9	Zn	1.781990	0.410611	0.278210
Zn10	Zn	1.108202	-0.347643	-0.527441
Zn11	Zn	1.441535	-0.014310	-0.194107
Zn12	Zn	1.774869	0.319024	0.139226
O13	O	1.181275	-0.304178	-0.461477
O14	O	1.514609	0.029155	-0.128143
O15	O	1.847942	0.362488	0.205190
O16	O	1.364612	-0.279833	-0.521996
O17	O	1.697945	0.053501	-0.188663
O18	O	2.031278	0.386834	0.144670
O19	O	1.241692	-0.332411	-0.278175
O20	O	1.575025	0.000922	0.055158
O21	O	1.908359	0.334256	0.388492
O22	O	1.132920	-0.184066	-0.407869
O23	O	1.466254	0.149267	-0.074536
O24	O	1.799587	0.482600	0.258797
O25	O	1.369693	-0.340981	-0.419824
O26	O	1.703026	-0.007647	-0.086491
O27	O	2.036359	0.325686	0.246842
O28	O	1.229905	-0.190559	-0.515195
O29	O	1.563238	0.142774	-0.181861
O30	O	1.896571	0.476107	0.151472
O31	O	1.139627	-0.264770	-0.273021
O32	O	1.472960	0.068563	0.060312
O33	O	1.806293	0.401897	0.393645
O34	O	0.998014	-0.264306	-0.400987
O35	O	1.331348	0.069028	-0.067654
O36	O	1.664681	0.402361	0.265679
O37	O	1.120783	-0.340164	-0.644748
O38	O	1.454116	-0.006831	-0.311414
O39	O	1.787450	0.326502	0.021919
O40	O	0.992782	-0.331595	-0.503098
O41	O	1.326115	0.001739	-0.169765
O42	O	1.659449	0.335072	0.163568
O43	O	1.222999	-0.279368	-0.649962
O44	O	1.556332	0.053965	-0.316629
O45	O	1.889666	0.387298	0.016705
O46	O	1.234787	-0.421220	-0.412942
O47	O	1.568120	-0.087887	-0.079609
O48	O	1.901453	0.245447	0.253724
O49	O	1.127489	-0.420868	-0.509900
O50	O	1.460822	-0.087535	-0.176567
O51	O	1.794156	0.245799	0.156767
C52	C	0.965226	-0.296940	-0.450512
C53	C	1.298559	0.036394	-0.117179
C54	C	1.631893	0.369727	0.216155
C55	C	0.872798	-0.293856	-0.445841
C56	C	1.206132	0.039477	-0.112508
C57	C	1.539465	0.372811	0.220826
C58	C	0.703571	-0.288214	-0.437320
C59	C	1.036904	0.045119	-0.103987
C60	C	1.370238	0.378453	0.229346
C61	C	0.659817	-0.320183	-0.485694
C62	C	0.993150	0.013150	-0.152360
C63	C	1.326483	0.346484	0.180973
C64	C	0.565653	-0.317044	-0.480953
C65	C	0.898986	0.016289	-0.147619
C66	C	1.232319	0.349623	0.185714
C67	C	0.797744	-0.291352	-0.442060
C68	C	1.131077	0.041981	-0.108727
C69	C	1.464410	0.375314	0.224607
C70	C	1.181137	-0.440015	-0.461431
C71	C	1.514471	-0.106682	-0.128098
C72	C	1.847804	0.226652	0.205235
C73	C	1.181153	-0.498130	-0.461444
C74	C	1.514486	-0.164797	-0.128110
C75	C	1.847820	0.168537	0.205223
C76	C	1.237279	-0.858676	-0.411088
C77	C	1.570612	-0.525343	-0.077755
C78	C	1.903946	-0.192009	0.255578
C79	C	1.237311	-0.913282	-0.411101
C80	C	1.570644	-0.579948	-0.077768
C81	C	1.903977	-0.246615	0.255566
O82	O	1.284888	-0.941668	-0.368238
O83	O	1.618222	-0.608335	-0.034905
O84	O	1.951555	-0.275001	0.298429
N85	N	1.181419	-0.940424	-0.461539
N86	N	1.514752	-0.607091	-0.128206
N87	N	1.848085	-0.273757	0.205128
C88	C	1.125497	-0.912958	-0.511974
C89	C	1.458830	-0.579625	-0.178641
C90	C	1.792163	-0.246291	0.154693
O91	O	1.077959	-0.941059	-0.554877
O92	O	1.411293	-0.607725	-0.221544
O93	O	1.744626	-0.274392	0.111790
C94	C	1.125470	-0.858354	-0.511965
C95	C	1.458803	-0.525020	-0.178632
C96	C	1.792136	-0.191687	0.154702
C97	C	1.181360	-0.831214	-0.461517
C98	C	1.514693	-0.497880	-0.128184
C99	C	1.848027	-0.164547	0.205149
C100	C	1.293166	-0.831536	-0.360646
C101	C	1.626499	-0.498203	-0.027312
C102	C	1.959832	-0.164870	0.306021
C103	C	1.293133	-0.776934	-0.360632
C104	C	1.626466	-0.443601	-0.027299
C105	C	1.959799	-0.110268	0.306035
C106	C	1.237213	-0.749472	-0.411061
C107	C	1.570547	-0.416139	-0.077728
C108	C	1.903880	-0.082805	0.255606
C109	C	1.181327	-0.776612	-0.461504
C110	C	1.514660	-0.443278	-0.128170
C111	C	1.847994	-0.109945	0.205163
C112	C	1.069552	-0.830889	-0.562404
C113	C	1.402886	-0.497555	-0.229070
C114	C	1.736219	-0.164222	0.104263
C115	C	1.069530	-0.776281	-0.562391
C116	C	1.402864	-0.442947	-0.229057
C117	C	1.736197	-0.109614	0.104276
C118	C	1.125421	-0.749141	-0.511943
C119	C	1.458754	-0.415808	-0.178610
C120	C	1.792087	-0.082474	0.154724
C121	C	1.125375	-0.694548	-0.511919
C122	C	1.458708	-0.361214	-0.178586
C123	C	1.792041	-0.027881	0.154748
N124	N	1.181267	-0.667405	-0.461481
N125	N	1.514600	-0.334072	-0.128148
N126	N	1.847934	-0.000739	0.205186
C127	C	1.237186	-0.694868	-0.411052
C128	C	1.570520	-0.361534	-0.077719
C129	C	1.903853	-0.028201	0.255615
C130	C	1.125559	-1.027631	-0.511990
C131	C	1.458892	-0.694298	-0.178656
C132	C	1.792225	-0.360964	0.154677
C133	C	1.125581	-1.082234	-0.511995
C134	C	1.458914	-0.748901	-0.178662
C135	C	1.792248	-0.415568	0.154672
C136	C	1.237396	-1.082554	-0.411123
C137	C	1.570730	-0.749221	-0.077790
C138	C	1.904063	-0.415888	0.255544
C139	C	1.237369	-1.027950	-0.411114
C140	C	1.570703	-0.694617	-0.077781
C141	C	1.904036	-0.361283	0.255552
C142	C	1.181451	-1.000489	-0.461552
C143	C	1.514784	-0.667156	-0.128219
C144	C	1.848118	-0.333822	0.205115
C145	C	1.237112	-0.580199	-0.411026
C146	C	1.570446	-0.246866	-0.077693
C147	C	1.903779	0.086467	0.255640
C148	C	1.237072	-0.525592	-0.411015
C149	C	1.570406	-0.192259	-0.077681
C150	C	1.903739	0.141074	0.255652
C151	C	1.125260	-0.525277	-0.511889
C152	C	1.458593	-0.191944	-0.178556
C153	C	1.791927	0.141389	0.154777
C154	C	1.125297	-0.579879	-0.511898
C155	C	1.458630	-0.246546	-0.178565
C156	C	1.791964	0.086787	0.154768
C157	C	1.181230	-0.607339	-0.461464
C158	C	1.514563	-0.274006	-0.128131
C159	C	1.847897	0.059328	0.205202
O160	O	1.077824	-0.666127	-0.554763
O161	O	1.411157	-0.332794	-0.221429
O162	O	1.744490	0.000540	0.111904
O163	O	1.284723	-0.666761	-0.368164
O164	O	1.618056	-0.333427	-0.034831
O165	O	1.951390	-0.000094	0.298503
C166	C	1.398168	-0.311446	-0.472484
C167	C	1.731501	0.021887	-0.139151
C168	C	2.064835	0.355221	0.194182
C169	C	1.490595	-0.314543	-0.477175
C170	C	1.823928	0.018790	-0.143842
C171	C	2.157261	0.352124	0.189491
C172	C	1.170325	-0.310699	-0.678371
C173	C	1.503658	0.022635	-0.345038
C174	C	1.836992	0.355968	-0.011704
C175	C	1.165659	-0.313477	-0.770798
C176	C	1.498992	0.019856	-0.437465
C177	C	1.832326	0.353189	-0.104132
C178	C	1.181435	-0.167813	-0.461541
C179	C	1.514769	0.165521	-0.128208
C180	C	1.848102	0.498854	0.205125
C181	C	1.181504	-0.109701	-0.461569
C182	C	1.514837	0.223632	-0.128235
C183	C	1.848170	0.556965	0.205098
C184	C	1.205608	-0.289675	-0.983785
C185	C	1.538941	0.043658	-0.650452
C186	C	1.872274	0.376992	-0.317118
C187	C	1.157112	-0.318528	-0.940018
C188	C	1.490445	0.014806	-0.606685
C189	C	1.823778	0.348139	-0.273351
C190	C	1.161869	-0.315717	-0.845855
C191	C	1.495202	0.017617	-0.512522
C192	C	1.828535	0.350950	-0.179189
C193	C	1.200852	-0.292485	-1.077956
C194	C	1.534185	0.040848	-0.744623
C195	C	1.867518	0.374181	-0.411289
C196	C	1.192230	-0.297647	-0.245428
C197	C	1.525564	0.035686	0.087905
C198	C	1.858897	0.369019	0.421238
C199	C	1.197058	-0.294727	-0.153010
C200	C	1.530391	0.038606	0.180324
C201	C	1.863725	0.371940	0.513657
H202	H	1.282585	-0.503497	-0.369931
H203	H	1.615918	-0.170163	-0.036598
H204	H	1.949251	0.163170	0.296735
H205	H	0.670313	-0.258490	-0.392349
H206	H	1.003647	0.074844	-0.059015
H207	H	1.336980	0.408177	0.274318
H208	H	1.282660	-0.602551	-0.369960
H209	H	1.615993	-0.269218	-0.036627
H210	H	1.949327	0.064116	0.296706
F211	F	1.352628	-0.748058	-0.306948
F212	F	1.685962	-0.414724	0.026385
F213	F	2.019295	-0.081391	0.359718
F214	F	1.352689	-0.860756	-0.306969
F215	F	1.686022	-0.527422	0.026365
F216	F	2.019356	-0.194089	0.359698
H217	H	1.024037	-0.852976	-0.603479
H218	H	1.357370	-0.519643	-0.270146
H219	H	1.690703	-0.186310	0.063187
F220	F	1.264533	-0.254626	-0.940329
F221	F	1.597866	0.078707	-0.606996
F222	F	1.931200	0.412041	-0.273663
F223	F	1.066086	-1.111112	-0.565678
F224	F	1.399419	-0.777779	-0.232345
F225	F	1.732753	-0.444445	0.100988
H226	H	1.282880	-1.005856	-0.370036
H227	H	1.616214	-0.672523	-0.036703
H228	H	1.949547	-0.339189	0.296631
F229	F	0.703287	-0.359036	-0.544484
F230	F	1.036620	-0.025703	-0.211151
F231	F	1.369954	0.307631	0.122183
F232	F	1.296910	-1.111791	-0.357450
F233	F	1.630244	-0.778458	-0.024117
F234	F	1.963577	-0.445125	0.309216
H235	H	1.080016	-1.005275	-0.553059
H236	H	1.413350	-0.671941	-0.219726
H237	H	1.746683	-0.338608	0.113607
F238	F	1.010014	-0.747058	-0.616077
F239	F	1.343347	-0.413725	-0.282743
F240	F	1.676681	-0.080391	0.050590
H241	H	1.112016	-0.345337	-0.973266
H242	H	1.445349	-0.012004	-0.639933
H243	H	1.778682	0.321330	-0.306599
H244	H	1.079729	-0.502909	-0.552946
H245	H	1.413062	-0.169575	-0.219612
H246	H	1.746395	0.163758	0.113721
F247	F	1.065798	-0.608763	-0.565574
F248	F	1.399132	-0.275430	-0.232240
F249	F	1.732465	0.057903	0.101093
