data_functionalizedCrystal
_audit_creation_method	'MofGen! by Chris Wilmer'
_symmetry_space_group_name_H-M	'P1'
_symmetry_Int_Tables_number	1
_symmetry_cell_setting	triclinic
loop_
_symmetry_equiv_pos_as_xyz
  x,y,z
_cell_length_a	14.560438
_cell_length_b	21.606444
_cell_length_c	21.606444
_cell_angle_alpha	59.991153
_cell_angle_beta	90.002037
_cell_angle_gamma	60.002939
loop_
_atom_site_label
_atom_site_type_symbol
_atom_site_fract_x
_atom_site_fract_y
_atom_site_fract_z
Zr1	Zr	0.884764	0.677508	-0.081330
O2	O	0.738109	0.806643	-0.180179
O3	O	0.929720	0.548376	-0.051012
O4	O	0.929712	0.677512	-0.180156
O5	O	0.738126	0.677503	0.050819
O6	O	1.080852	0.677511	-0.180155
O7	O	0.738118	0.677507	-0.051035
O8	O	1.080868	0.446510	0.050860
O9	O	0.738110	0.908503	-0.180196
O10	O	1.061689	0.601488	-0.038099
O11	O	0.948901	0.601485	0.037913
O12	O	0.948890	0.753526	-0.114138
O13	O	0.836102	0.753523	-0.038126
Zr14	Zr	1.125827	0.677499	0.081118
Zr15	Zr	1.125815	0.677506	-0.081328
Zr16	Zr	0.884776	0.677501	0.081116
Zr17	Zr	0.884765	0.839963	-0.081357
Zr18	Zr	1.125826	0.515044	0.081145
O19	O	1.080871	0.806631	0.050800
O20	O	1.080853	0.806641	-0.180177
O21	O	0.738127	0.806633	0.050798
O22	O	1.272482	0.548364	0.179967
O23	O	1.272464	0.548374	-0.051009
O24	O	0.929738	0.548366	0.179965
O25	O	1.272465	0.677504	-0.051031
O26	O	1.080879	0.677495	0.179944
O27	O	0.929739	0.677496	0.179943
O28	O	1.272473	0.677500	0.050823
O29	O	0.929714	0.908502	-0.180195
O30	O	1.080877	0.446505	0.179983
O31	O	1.272481	0.446504	0.179984
O32	O	1.272471	0.446509	0.050862
O33	O	0.738120	0.908498	-0.051074
O34	O	0.929723	0.908496	-0.051072
O35	O	1.061701	0.601481	0.113926
O36	O	1.174489	0.601484	0.037914
O37	O	1.061690	0.753522	-0.038124
O38	O	0.948902	0.753519	0.037887
C39	C	1.005294	0.474297	-0.000072
C40	C	1.005293	0.405330	-0.000060
C41	C	0.922022	0.429068	-0.056189
C42	C	0.922024	0.364279	-0.056205
C43	C	1.005295	0.275752	-0.000088
C44	C	1.088576	0.252015	0.056044
C45	C	1.088576	0.316804	0.056056
C46	C	1.088575	-0.009272	0.055996
C47	C	1.088566	-0.074061	0.055981
C48	C	0.922023	0.038203	-0.056264
C49	C	0.922024	0.102992	-0.056253
C50	C	1.005307	0.079249	-0.000123
C51	C	1.005304	0.149502	-0.000108
C52	C	1.005295	0.205500	-0.000100
C53	C	0.703777	0.677505	-0.000108
C54	C	0.601445	0.677506	-0.000109
C55	C	0.553364	0.677510	-0.056222
C56	C	0.457216	0.677505	-0.056218
C57	C	0.457236	0.677494	0.056016
C58	C	0.553386	0.677493	0.056015
C59	C	0.363647	0.626501	-0.098122
C60	C	0.315552	0.626521	-0.154246
C61	C	0.308900	0.677542	-0.229307
C62	C	0.350325	0.728566	-0.248256
C63	C	0.398409	0.728555	-0.192135
C64	C	0.405078	0.677512	-0.117066
C65	C	0.646952	0.728504	0.097911
C66	C	0.695033	0.728498	0.154030
C67	C	0.701683	0.677482	0.229092
C68	C	0.660245	0.626472	0.248041
C69	C	0.612164	0.626477	0.191922
C70	C	0.605522	0.677492	0.116860
C71	C	1.306814	0.677501	-0.000104
C72	C	1.409146	0.677501	-0.000103
C73	C	1.005280	0.677512	-0.203301
C74	C	1.005275	0.677515	-0.272263
C75	C	1.005297	0.880710	-0.000140
C76	C	1.005298	0.949677	-0.000151
C77	C	0.946395	0.756877	-0.344353
C78	C	0.946404	0.756874	-0.409148
C79	C	1.005289	0.677509	-0.401851
C80	C	1.064176	0.598141	-0.329753
C81	C	1.064172	0.598145	-0.264960
C82	C	1.064194	0.598126	-0.591056
C83	C	1.064190	0.598129	-0.655857
C84	C	0.946426	0.756856	-0.735244
C85	C	0.946422	0.756859	-0.670451
C86	C	1.005314	0.677492	-0.598359
C87	C	1.005305	0.677496	-0.528102
C88	C	1.005292	0.677505	-0.472107
C89	C	1.005311	0.677495	0.203089
C90	C	1.005316	0.677492	0.272051
C91	C	1.306812	0.474295	-0.000070
C92	C	1.409144	0.405328	-0.000057
C93	C	1.005309	0.474288	0.203123
C94	C	1.005314	0.405319	0.272097
C95	C	1.306827	0.474286	0.203125
C96	C	1.409165	0.405316	0.272100
C97	C	0.703764	0.880721	-0.203337
C98	C	0.601426	0.949691	-0.272311
C99	C	0.703779	0.880712	-0.000142
C100	C	0.601447	0.949679	-0.000154
C101	C	1.005282	0.880719	-0.203335
C102	C	1.005277	0.949688	-0.272308
C103	C	1.398320	0.372942	-0.039737
C104	C	1.494463	0.308149	-0.039740
C105	C	1.601428	0.275738	-0.000060
C106	C	1.612250	0.308130	0.039621
C107	C	1.516109	0.372927	0.039619
C108	C	1.064196	0.372928	0.344173
C109	C	1.064196	0.308133	0.408987
C110	C	1.005320	0.275725	0.401724
C111	C	0.946430	0.308122	0.329641
C112	C	0.946424	0.372921	0.264828
C113	C	1.516108	0.372928	0.264814
C114	C	1.612274	0.308133	0.329616
C115	C	1.601494	0.275721	0.401705
C116	C	1.494540	0.308115	0.408989
C117	C	1.398376	0.372914	0.344187
C118	C	0.494483	0.982086	-0.265025
C119	C	0.398317	1.046902	-0.329828
C120	C	0.409097	1.079317	-0.401916
C121	C	0.516052	1.046919	-0.409201
C122	C	0.612215	0.982108	-0.344399
C123	C	0.612271	0.982072	0.039518
C124	C	0.516129	1.046882	0.039504
C125	C	0.409163	1.079295	-0.000179
C126	C	0.398341	1.046900	-0.039856
C127	C	0.494482	0.982095	-0.039846
C128	C	1.064165	0.982075	-0.265021
C129	C	1.064183	1.046871	-0.329823
C130	C	1.005305	1.079283	-0.401912
C131	C	0.946415	1.046889	-0.409198
C132	C	0.946405	0.982090	-0.344396
H133	H	0.854212	0.175073	-0.101946
Br134	Br	1.253164	0.416916	-0.093598
H135	H	1.005322	1.132046	-0.454671
H136	H	1.524906	0.399308	0.206121
H137	H	1.679704	0.222976	-0.000064
Br138	Br	1.757427	0.264133	0.093472
H139	H	1.311302	0.399276	0.350130
Br140	Br	1.144105	1.090823	-0.319917
Br141	Br	0.253180	1.090856	-0.319924
H142	H	0.578424	0.584939	0.207356
Br143	Br	0.479822	0.938107	-0.167199
H144	H	0.330785	1.132089	-0.454676
Br145	Br	0.259331	0.557279	-0.128531
Br146	Br	0.808998	0.549209	-0.132348
H147	H	1.524938	0.399287	0.071935
H148	H	1.112127	0.533521	-0.323817
Br149	Br	1.201594	-0.041502	0.132176
Br150	Br	1.144116	0.416891	0.354051
Br151	Br	0.766919	0.677488	0.305252
Br152	Br	0.866467	0.938152	-0.354300
Br153	Br	1.144126	0.264178	0.506805
Br154	Br	0.618585	0.677525	-0.132388
Br155	Br	0.392008	0.677479	0.132180
H156	H	0.898478	0.399285	0.206143
H157	H	0.369078	0.584941	-0.037002
Br158	Br	0.866531	0.264131	0.319796
Br159	Br	0.243622	0.677571	-0.305474
Br160	Br	1.479749	0.264200	-0.093594
H161	H	1.005334	0.222962	0.454505
Br162	Br	0.757349	0.938146	-0.354301
Br163	Br	0.530662	1.090917	-0.507041
Br164	Br	1.757411	0.264181	0.319712
H165	H	1.679806	0.222958	0.454464
Br166	Br	1.479929	0.264120	0.506829
H167	H	0.485653	0.955723	-0.072150
Br168	Br	1.144109	0.490412	-0.645950
H169	H	1.156381	0.179931	0.101732
Br170	Br	0.757427	0.938100	0.093377
Br171	Br	0.530842	1.090831	0.093358
Br172	Br	1.144102	0.490435	-0.167120
H173	H	0.728762	0.770044	0.138594
H174	H	1.112148	0.533500	-0.532364
Br175	Br	1.144080	0.938102	-0.167194
H176	H	0.330887	1.132064	-0.000181
H177	H	0.898479	1.073289	-0.467901
H178	H	0.854216	0.383615	-0.101910
Br179	Br	0.808994	0.070424	-0.132442
Br180	Br	0.866471	0.864593	-0.354265
Br181	Br	1.201583	-0.194209	0.132146
H182	H	1.156385	0.297470	0.101762
H183	H	0.311236	1.073301	-0.072165
H184	H	0.344887	0.770120	-0.309380
Br185	Br	0.454626	0.797794	-0.217843
H186	H	0.665657	0.584933	0.309163
Br187	Br	0.866500	0.864571	-0.833088
Br188	Br	0.866492	0.864585	-0.506985
Br189	Br	0.637955	0.797728	-0.003961
H190	H	0.898468	0.821486	-0.676399
