data_functionalizedCrystal
_audit_creation_method	'MofGen! by Chris Wilmer'
_symmetry_space_group_name_H-M	'P1'
_symmetry_Int_Tables_number	1
_symmetry_cell_setting	triclinic
loop_
_symmetry_equiv_pos_as_xyz
  x,y,z
_cell_length_a	19.902436
_cell_length_b	23.196402
_cell_length_c	23.196401
_cell_angle_alpha	60.008822
_cell_angle_beta	90.014541
_cell_angle_gamma	59.997492
loop_
_atom_site_label
_atom_site_type_symbol
_atom_site_fract_x
_atom_site_fract_y
_atom_site_fract_z
Zr1	Zr	0.647320	0.630934	-0.075582
O2	O	0.540006	0.751211	-0.167636
O3	O	0.680214	0.510665	-0.047366
O4	O	0.680185	0.630932	-0.167632
O5	O	0.540062	0.630942	0.047500
O6	O	0.790764	0.630920	-0.167624
O7	O	0.540035	0.630944	-0.047371
O8	O	0.790817	0.415785	0.047509
O9	O	0.540009	0.846078	-0.167632
O10	O	0.776771	0.560121	-0.035323
O11	O	0.694267	0.560129	0.035473
O12	O	0.694232	0.701728	-0.106124
O13	O	0.611728	0.701735	-0.035328
Zr14	Zr	0.823722	0.630913	0.075739
Zr15	Zr	0.823680	0.630916	-0.075570
Zr16	Zr	0.647362	0.630931	0.075727
Zr17	Zr	0.647324	0.782236	-0.075576
Zr18	Zr	0.823717	0.479611	0.075732
O19	O	0.790827	0.751182	0.047523
O20	O	0.790767	0.751186	-0.167619
O21	O	0.540066	0.751208	0.047506
O22	O	0.931036	0.510636	0.167793
O23	O	0.930976	0.510639	-0.047349
O24	O	0.680274	0.510661	0.167775
O25	O	0.930980	0.630904	-0.047344
O26	O	0.790857	0.630915	0.167788
O27	O	0.680278	0.630926	0.167781
O28	O	0.931007	0.630903	0.047528
O29	O	0.680192	0.846064	-0.167622
O30	O	0.790850	0.415783	0.167779
O31	O	0.931033	0.415769	0.167789
O32	O	0.931000	0.415770	0.047518
O33	O	0.540042	0.846076	-0.047362
O34	O	0.680225	0.846062	-0.047352
O35	O	0.776810	0.560119	0.106280
O36	O	0.859314	0.560112	0.035485
O37	O	0.776775	0.701718	-0.035316
O38	O	0.694271	0.701725	0.035479
C39	C	0.735515	0.441667	0.000070
C40	C	0.735513	0.377435	0.000067
C41	C	0.514921	0.630946	0.000063
C42	C	0.440051	0.630953	0.000058
C43	C	0.778573	0.347261	-0.036890
C44	C	0.778581	0.286900	-0.036884
C45	C	0.735513	0.256727	0.000069
C46	C	0.692450	0.286905	0.037035
C47	C	0.692450	0.347259	0.037034
C48	C	0.663357	0.194705	-0.005210
C49	C	0.663354	0.134356	-0.005214
C50	C	0.735514	0.070572	0.000076
C51	C	0.807675	0.067153	0.005357
C52	C	0.807675	0.127507	0.005356
C53	C	0.735508	0.191283	0.000075
C54	C	0.778587	-0.025053	-0.036876
C55	C	0.778597	-0.085419	-0.036866
C56	C	0.692458	-0.085407	0.037049
C57	C	0.692456	-0.025048	0.037042
C58	C	0.735518	0.005128	0.000076
C59	C	0.168049	0.630913	0.000085
C60	C	0.144473	0.720241	-0.044364
C61	C	0.222311	0.720297	-0.044610
C62	C	0.302992	0.630934	0.000072
C63	C	0.300571	0.586572	-0.032500
C64	C	0.222343	0.587144	-0.032829
C65	C	0.223361	0.585307	0.077126
C66	C	0.300282	0.586986	0.077007
C67	C	0.379259	0.630940	0.000064
C68	C	0.091784	0.630904	0.000090
C69	C	0.956121	0.630901	0.000094
C70	C	1.030991	0.630894	0.000099
C71	C	0.735468	0.630926	-0.189186
C72	C	0.735450	0.630927	-0.253421
C73	C	0.735527	0.820180	0.000086
C74	C	0.735529	0.884412	0.000089
C75	C	0.692370	0.704842	-0.320551
C76	C	0.692391	0.704843	-0.380906
C77	C	0.735481	0.630925	-0.374127
C78	C	0.778571	0.557001	-0.306984
C79	C	0.778555	0.557002	-0.246631
C80	C	0.729360	0.574298	-0.441447
C81	C	0.729369	0.574300	-0.501801
C82	C	0.735533	0.630919	-0.560275
C83	C	0.741670	0.687550	-0.558395
C84	C	0.741655	0.687551	-0.498041
C85	C	0.735503	0.630916	-0.439566
C86	C	0.692473	0.704840	-0.692852
C87	C	0.692500	0.704838	-0.753207
C88	C	0.778674	0.556994	-0.679282
C89	C	0.778653	0.556998	-0.618930
C90	C	0.735548	0.630923	-0.625719
C91	C	0.735574	0.630920	0.189343
C92	C	0.735592	0.630919	0.253577
C93	C	0.956115	0.441645	0.000086
C94	C	1.030982	0.377405	0.000088
C95	C	0.735568	0.441664	0.189335
C96	C	0.735583	0.377431	0.253566
C97	C	0.956168	0.441642	0.189350
C98	C	1.031053	0.377402	0.253587
C99	C	0.514874	0.820205	-0.189193
C100	C	0.439989	0.884445	-0.253430
C101	C	0.514927	0.820202	0.000071
C102	C	0.440059	0.884441	0.000069
C103	C	0.735474	0.820183	-0.189178
C104	C	0.735458	0.884415	-0.253410
C105	C	1.023054	0.347243	-0.036878
C106	C	1.093393	0.286891	-0.036890
C107	C	1.171660	0.256700	0.000069
C108	C	1.179587	0.286868	0.037036
C109	C	1.109248	0.347223	0.037043
C110	C	0.778678	0.347262	0.320697
C111	C	0.778690	0.286917	0.381056
C112	C	0.735611	0.256738	0.374282
C113	C	0.692512	0.286913	0.307144
C114	C	0.692496	0.347262	0.246787
C115	C	1.109294	0.347230	0.246799
C116	C	1.179663	0.286877	0.307151
C117	C	1.171791	0.256694	0.374290
C118	C	1.093542	0.286872	0.381077
C119	C	1.023174	0.347227	0.320726
C120	C	0.361748	0.914624	-0.246642
C121	C	0.291378	0.974995	-0.306994
C122	C	0.299251	1.005182	-0.374133
C123	C	0.377500	0.975001	-0.380920
C124	C	0.447868	0.914635	-0.320569
C125	C	0.447988	0.914610	0.037028
C126	C	0.377648	0.974978	0.037023
C127	C	0.299382	1.005172	0.000063
C128	C	0.291455	0.975001	-0.036901
C129	C	0.361793	0.914638	-0.036900
C130	C	0.778545	0.914575	-0.246613
C131	C	0.778546	0.974921	-0.306960
C132	C	0.735455	1.005110	-0.374103
C133	C	0.692368	0.974944	-0.380898
C134	C	0.692372	0.914595	-0.320552
H135	H	0.813640	0.371827	-0.066988
H136	H	0.735631	0.207599	0.423434
C137	C	0.353076	0.881430	-0.172795
H138	H	0.406186	0.841150	-0.137817
H139	H	0.323855	0.924760	-0.167502
H140	H	0.323842	0.857891	-0.167506
H141	H	0.813656	0.496816	-0.301468
H142	H	0.657391	-0.109973	0.067137
C143	C	0.735453	1.071493	-0.440479
H144	H	0.703624	1.085154	-0.481444
H145	H	0.712397	1.118579	-0.440476
H146	H	0.790343	1.051692	-0.440471
C147	C	0.644964	1.008164	-0.454757
H148	H	0.651129	1.048432	-0.489718
H149	H	0.666221	0.964848	-0.460067
H150	H	0.588285	1.031728	-0.460057
H151	H	0.657282	0.890046	-0.326096
C152	C	0.645099	0.380437	0.172945
H153	H	0.651249	0.420705	0.137963
H154	H	0.666373	0.337099	0.167664
H155	H	0.588421	0.403990	0.167650
H156	H	0.511710	0.890031	0.067131
H157	H	0.657422	0.765031	-0.807869
H158	H	0.355327	0.890076	-0.066995
C159	C	0.825950	0.881373	-0.172762
H160	H	0.819783	0.841115	-0.137789
H161	H	0.882623	0.857820	-0.167467
H162	H	0.804680	0.924705	-0.167468
C163	C	0.887057	-0.003008	0.011187
H164	H	0.876728	-0.038471	0.010442
H165	H	0.904560	0.018682	-0.027450
H166	H	0.928853	-0.032532	0.054177
C167	C	0.936970	0.380447	-0.077540
H168	H	0.942334	0.353840	-0.099561
H169	H	0.907740	0.370558	-0.045647
H170	H	0.907733	0.437433	-0.112514
H171	H	0.227672	0.999559	-0.301454
H172	H	0.813648	0.262328	-0.066980
H173	H	0.866431	0.124719	0.009658
H174	H	0.813632	0.999475	-0.301413
H175	H	0.657307	0.765035	-0.435574
H176	H	0.813789	0.262355	0.435716
H177	H	0.241947	1.054336	-0.423269
H178	H	1.087144	0.262287	0.435750
H179	H	0.227721	0.999594	-0.066994
C180	C	0.825968	0.008130	-0.077524
H181	H	0.851627	-0.018499	-0.099524
H182	H	0.788782	0.065112	-0.112501
H183	H	0.866740	-0.001771	-0.045613
H184	H	0.724367	0.528191	-0.503326
C185	C	0.644967	0.786154	-0.328017
H186	H	0.651123	0.775572	-0.282459
H187	H	0.666239	0.816522	-0.353079
H188	H	0.588289	0.816529	-0.353110
C189	C	0.825965	-0.118610	-0.077522
H190	H	0.851603	-0.091986	-0.099541
H191	H	0.866741	-0.175592	-0.045623
H192	H	0.788766	-0.108712	-0.112496
H193	H	1.115720	0.371796	0.192136
C194	C	1.249028	0.190305	0.000064
H195	H	1.296780	0.176642	0.027366
H196	H	1.249025	0.143223	0.019845
H197	H	1.249012	0.210097	-0.047028
C198	C	0.222014	1.071567	0.000068
H199	H	0.174262	1.085236	-0.027241
H200	H	0.222032	1.051780	0.047156
H201	H	0.222015	1.118654	-0.019721
C202	C	0.826079	0.475683	-0.671814
H203	H	0.851738	0.431660	-0.623186
H204	H	0.788908	0.472609	-0.693840
H205	H	0.866854	0.472609	-0.693803
C206	C	0.386150	1.008205	-0.454775
H207	H	0.333031	1.048470	-0.489740
H208	H	0.415378	1.031749	-0.460080
H209	H	0.415364	0.964874	-0.460073
H210	H	0.604588	0.246648	-0.009533
H211	H	0.511573	0.890063	-0.326104
H212	H	0.384118	0.999534	0.067127
H213	H	0.657388	-0.000477	0.067134
H214	H	0.813757	0.371827	0.326227
H215	H	0.241697	0.521605	-0.002548
H216	H	0.657439	0.262333	0.301639
H217	H	0.746654	0.733660	-0.496513
H218	H	1.243371	0.262313	0.301612
C219	C	1.084664	0.253708	-0.077547
H220	H	1.137760	0.213444	-0.072269
H221	H	1.055442	0.230165	-0.059290
H222	H	1.055412	0.297046	-0.126171
H223	H	0.604596	0.137148	-0.009518
H224	H	0.657384	0.262334	0.067123
H225	H	0.657383	0.371828	0.067129
C226	C	1.265682	0.253645	0.077693
H227	H	1.306431	0.213374	0.072398
H228	H	1.271867	0.296959	0.059456
H229	H	1.271869	0.230085	0.126320
H230	H	0.221039	0.755280	-0.022932
C231	C	1.117975	0.380397	0.077708
H232	H	1.064879	0.420672	0.072419
H233	H	1.147224	0.337061	0.126328
H234	H	1.147200	0.403941	0.059450
C235	C	0.091595	0.767605	-0.014992
H236	H	0.078037	0.821353	-0.042537
H237	H	0.042519	0.769997	-0.016892
H238	H	0.121624	0.740685	0.032584
C239	C	0.090553	0.767371	-0.120678
H240	H	0.082349	0.732845	-0.125569
H241	H	0.038848	0.813553	-0.131183
H242	H	0.117213	0.784776	-0.152363
C243	C	1.249200	0.190298	0.440670
H244	H	1.296922	0.176650	0.427005
H245	H	1.249224	0.210070	0.467980
H246	H	1.249217	0.143202	0.467969
H247	H	0.220521	0.755314	-0.101439
C248	C	0.937112	0.380406	0.328198
H249	H	0.896324	0.420679	0.282643
H250	H	0.930961	0.337071	0.353279
H251	H	0.930952	0.403953	0.353276
C252	C	0.377330	0.497812	0.009123
H253	H	0.411620	0.486996	0.046823
H254	H	0.360906	0.461833	0.027621
H255	H	0.406829	0.489854	-0.021398
C256	C	0.172949	0.629739	-0.109412
H257	H	0.200785	0.646535	-0.140031
H258	H	0.167822	0.592923	-0.112896
H259	H	0.119768	0.676052	-0.122563
H260	H	0.302107	0.617383	-0.088652
H261	H	0.299913	0.619331	0.101340
C262	C	0.174327	0.623931	0.113878
H263	H	0.119658	0.668237	0.082576
H264	H	0.173194	0.584268	0.155092
H265	H	0.199872	0.643138	0.126622
H266	H	0.243285	0.519504	0.110400
C267	C	0.377908	0.498908	0.125513
H268	H	0.413141	0.487732	0.099361
H269	H	0.405951	0.492551	0.163637
H270	H	0.362519	0.462095	0.143456
C271	C	0.748451	0.749836	-0.622707
H272	H	0.752098	0.783564	-0.612945
H273	H	0.796286	0.721793	-0.632216
H274	H	0.701136	0.782589	-0.662640
C275	C	0.645069	0.786151	-0.700311
H276	H	0.651220	0.775566	-0.654752
H277	H	0.666341	0.816520	-0.725369
H278	H	0.588392	0.816525	-0.725408
H279	H	0.724335	0.528192	-0.393839
C280	C	0.826031	0.475690	-0.545084
H281	H	0.851692	0.431666	-0.549688
H282	H	0.866789	0.472611	-0.519983
H283	H	0.788835	0.472625	-0.520025
H284	H	0.813637	0.496810	-0.191969
