data_functionalizedCrystal
_audit_creation_method	'MofGen! by Chris Wilmer'
_symmetry_space_group_name_H-M	'P1'
_symmetry_Int_Tables_number	1
_symmetry_cell_setting	triclinic
loop_
_symmetry_equiv_pos_as_xyz
  x,y,z
_cell_length_a	6.817900
_cell_length_b	16.417825
_cell_length_c	16.305550
_cell_angle_alpha	95.393303
_cell_angle_beta	103.455250
_cell_angle_gamma	103.385495
loop_
_atom_site_label
_atom_site_type_symbol
_atom_site_fract_x
_atom_site_fract_y
_atom_site_fract_z
V1	V	-4.025833	-0.116593	-0.263329
O2	O	-4.013858	0.004875	-0.258012
O3	O	-3.976882	-0.230485	-0.261820
O4	O	-3.977245	-0.115119	-0.378042
O5	O	-4.013493	-0.111289	-0.140986
V6	V	-4.509557	-0.102026	-0.248660
O7	O	-4.286651	-0.148546	-0.295506
O8	O	-4.698937	-0.070073	-0.216483
O9	O	-4.335302	0.011865	-0.250168
O10	O	-4.638929	-0.223495	-0.253977
O11	O	-4.639295	-0.107330	-0.371003
O12	O	-4.334939	-0.103501	-0.133947
C13	C	-3.821754	-0.258239	-0.257742
C14	C	-3.863016	-0.351349	-0.257273
C15	C	-3.917930	-0.553403	-0.178925
C16	C	-3.956722	-0.640891	-0.178491
C17	C	-4.036841	-0.665217	-0.333073
C18	C	-3.998063	-0.577730	-0.333506
C19	C	-3.938597	-0.521825	-0.256429
C20	C	-4.016167	-0.696800	-0.255563
C21	C	-4.058228	-0.791658	-0.255093
C22	C	-3.896538	-0.426960	-0.256899
C23	C	-3.822216	-0.111077	-0.405993
C24	C	-3.863770	-0.110625	-0.499774
C25	C	-4.014863	-0.108875	-0.840515
C26	C	-3.778833	-0.103678	-0.799573
C27	C	-3.735637	-0.104494	-0.702080
C28	C	-3.939902	-0.109743	-0.671469
C29	C	-4.106643	-0.192464	-0.722307
C30	C	-4.148508	-0.191996	-0.819855
C31	C	-4.069890	-0.032013	-0.794475
C32	C	-4.021963	-0.031358	-0.696631
C33	C	-3.897551	-0.110236	-0.575932
C34	C	-4.057223	-0.108387	-0.936052
C35	C	-4.153772	0.039616	-0.254245
C36	C	-4.091748	0.132725	-0.254719
C37	C	-4.153310	-0.107545	-0.105991
C38	C	-4.090995	-0.107992	-0.012210
H39	H	-4.085258	-0.710745	-0.395826
C40	C	-4.020692	-0.542985	-0.418760
H41	H	-3.989071	-0.482875	-0.407977
H42	H	-3.926980	-0.559593	-0.447719
H43	H	-4.159987	-0.565043	-0.453174
H44	H	-3.939892	-0.666597	-0.115380
C45	C	-3.565012	-0.024157	-0.654558
H46	H	-3.521527	0.009273	-0.694799
H47	H	-3.619247	0.007691	-0.617834
H48	H	-3.448962	-0.039874	-0.621733
C49	C	-3.635720	-0.022959	-0.816077
H50	H	-3.718624	0.008295	-0.848088
H51	H	-3.555686	0.010874	-0.763110
H52	H	-3.544578	-0.038253	-0.847236
H53	H	-3.733547	-0.158900	-0.831226
H54	H	-3.669013	-0.160354	-0.685929
H55	H	-4.112157	-0.250183	-0.850385
H56	H	-3.869510	-0.507886	-0.116164
C57	C	-4.383306	-0.201807	-0.857701
H58	H	-4.452710	-0.206067	-0.813446
H59	H	-4.401834	-0.153836	-0.883863
H60	H	-4.440239	-0.251596	-0.899134
H61	H	-4.259775	-0.199296	-0.703411
H62	H	-4.051003	-0.250666	-0.705642
H63	H	-4.241944	-0.035084	-0.821299
C64	C	-3.946706	0.052659	-0.812309
H65	H	-3.860553	0.041924	-0.848003
H66	H	-4.041567	0.081958	-0.839987
H67	H	-3.861948	0.086325	-0.759933
C68	C	-3.858737	0.051300	-0.649985
H69	H	-3.741069	0.038104	-0.615314
H70	H	-3.815984	0.084189	-0.690721
H71	H	-3.918454	0.082594	-0.615124
C72	C	-4.220918	-0.029954	-0.667777
H73	H	-4.256712	-0.077370	-0.639889
H74	H	-4.196388	0.020838	-0.629472
H75	H	-4.332422	-0.032484	-0.716177
