data_functionalizedCrystal
_audit_creation_method	'MofGen! by Chris Wilmer'
_symmetry_space_group_name_H-M	'P1'
_symmetry_Int_Tables_number	1
_symmetry_cell_setting	triclinic
loop_
_symmetry_equiv_pos_as_xyz
  x,y,z
_cell_length_a	11.026607
_cell_length_b	9.730223
_cell_length_c	11.026607
_cell_angle_alpha	89.999947
_cell_angle_beta	71.413983
_cell_angle_gamma	90.000202
loop_
_atom_site_label
_atom_site_type_symbol
_atom_site_fract_x
_atom_site_fract_y
_atom_site_fract_z
O1	O	1.726725	0.114287	-0.533617
O2	O	1.360145	0.114289	-0.472853
O3	O	1.513053	0.114283	-0.319945
O4	O	1.573817	0.114292	-0.686525
O5	O	1.513052	-0.114297	-0.319949
O6	O	1.360144	-0.114291	-0.472857
O7	O	1.726724	-0.114293	-0.533621
Zn8	Zn	1.543433	-0.150584	-0.503240
Zn9	Zn	1.543435	0.150580	-0.503234
O10	O	1.573815	-0.114288	-0.686529
C11	C	1.312485	-0.000001	-0.461645
C12	C	1.170471	-0.000000	-0.428228
N13	N	1.543442	-0.356121	-0.503245
C14	C	1.116821	0.000003	-0.520498
C15	C	0.970043	0.000004	-0.485962
C16	C	1.611178	-0.428049	-0.435571
C17	C	1.611171	-0.571932	-0.435555
C18	C	1.475690	-0.571945	-0.570897
C19	C	1.475690	-0.428065	-0.570905
C20	C	1.678929	-0.356105	-0.367912
C21	C	1.746672	-0.428034	-0.300233
C22	C	1.746665	-0.571917	-0.300217
C23	C	1.678916	-0.643871	-0.367879
C24	C	1.774384	-0.000001	-0.544828
C25	C	1.916398	0.000007	-0.578245
C26	C	1.501843	-0.000005	-0.272287
C27	C	1.468426	-0.000000	-0.130273
N28	N	1.543435	0.356116	-0.503221
C29	C	1.585026	0.000004	-0.734187
C30	C	1.618443	0.000008	-0.876200
C31	C	1.560695	0.000001	-0.076624
C32	C	1.526160	0.000006	0.070155
H33	H	1.179555	-0.000002	-0.625061
H34	H	1.723013	0.000110	0.061072
H35	H	0.907314	0.000037	-0.381393
O36	O	1.343726	0.000188	-0.055312
C37	C	1.177512	0.118661	0.107239
C38	C	1.318770	0.118603	0.022447
H39	H	1.157285	0.214404	0.170109
H40	H	1.157210	0.023070	0.170312
H41	H	1.113438	0.118592	0.043992
H42	H	1.382937	0.118720	0.085596
H43	H	1.338968	0.214185	-0.040636
O44	O	1.685460	0.000247	-0.151401
C45	C	1.887865	0.118633	-0.209816
C46	C	1.746587	0.118539	-0.125081
H47	H	1.937334	0.214247	-0.188548
H48	H	1.893564	0.118722	-0.314882
H49	H	1.937309	0.022931	-0.188687
H50	H	1.697055	0.214224	-0.146097
H51	H	1.740979	0.118378	-0.020041
O52	O	1.812258	-0.358020	-0.234367
C53	C	1.801284	-0.195706	-0.066148
C54	C	1.726877	-0.274864	-0.140693
H55	H	1.732281	-0.128477	0.009622
H56	H	1.876957	-0.128234	-0.134988
H57	H	1.849698	-0.271892	-0.017833
H58	H	1.678384	-0.198777	-0.189014
H59	H	1.651276	-0.342356	-0.071794
H60	H	0.979125	0.000001	-0.682816
H61	H	1.107738	0.000032	-0.323666
O62	O	1.812573	-0.641577	-0.234453
C63	C	1.946892	-0.626371	-0.100155
C64	C	1.872322	-0.547314	-0.174600
H65	H	1.995197	-0.550193	-0.051723
H66	H	2.022643	-0.693702	-0.169066
H67	H	1.877957	-0.693761	-0.024486
H68	H	1.941158	-0.479849	-0.250271
H69	H	1.796555	-0.480070	-0.105609
H70	H	1.420533	-0.630540	-0.625986
H71	H	1.678905	-0.761030	-0.367850
O72	O	1.409877	-0.358397	-0.636760
C73	C	1.275442	-0.373581	-0.770943
C74	C	1.349951	-0.452651	-0.696444
H75	H	1.226950	-0.449751	-0.819195
H76	H	1.344321	-0.306261	-0.846730
H77	H	1.199816	-0.306180	-0.701969
H78	H	1.425577	-0.520127	-0.765319
H79	H	1.280992	-0.519884	-0.620640
H80	H	1.678943	-0.238948	-0.367922
H81	H	1.421590	0.000016	0.132884
