data_functionalizedCrystal
_audit_creation_method	'MofGen! by Chris Wilmer'
_symmetry_space_group_name_H-M	'P1'
_symmetry_Int_Tables_number	1
_symmetry_cell_setting	triclinic
loop_
_symmetry_equiv_pos_as_xyz
  x,y,z
_cell_length_a	17.000371
_cell_length_b	17.038272
_cell_length_c	10.268362
_cell_angle_alpha	89.994496
_cell_angle_beta	89.994912
_cell_angle_gamma	83.355402
loop_
_atom_site_label
_atom_site_type_symbol
_atom_site_fract_x
_atom_site_fract_y
_atom_site_fract_z
O1	O	1.058002	0.028043	-0.108306
O2	O	1.558002	0.528043	0.391694
O3	O	0.828181	0.056288	-0.108308
O4	O	1.328181	0.556288	0.391692
O5	O	0.941726	-0.071556	-0.108297
O6	O	1.441726	0.428444	0.391703
O7	O	0.944457	0.155887	-0.108317
O8	O	1.444457	0.655887	0.391683
O9	O	0.941715	-0.071560	0.108304
O10	O	1.441715	0.428440	0.608304
O11	O	0.828170	0.056284	0.108293
O12	O	1.328170	0.556284	0.608293
O13	O	1.057991	0.028039	0.108295
O14	O	1.557991	0.528039	0.608295
Cu15	Cu	0.943080	0.042161	0.128071
Cu16	Cu	1.443080	0.542161	0.628071
Cu17	Cu	0.943092	0.042166	-0.128084
Cu18	Cu	1.443092	0.542166	0.371916
O19	O	0.944446	0.155883	0.108283
O20	O	1.444446	0.655883	0.608283
C21	C	0.798625	0.057803	-0.000008
C22	C	1.298625	0.557803	0.499992
C23	C	0.710572	0.062314	-0.000008
C24	C	1.210572	0.562314	0.499992
C25	C	0.673845	-0.007108	0.000000
C26	C	1.173845	0.492892	0.500000
C27	C	0.591110	-0.002864	-0.000009
C28	C	1.091110	0.497136	0.499991
C29	C	0.545102	0.070802	-0.000018
C30	C	1.045102	0.570802	0.499982
C31	C	0.581834	0.140229	-0.000031
C32	C	1.081834	0.640229	0.499969
C33	C	0.664568	0.135985	-0.000030
C34	C	1.164568	0.635985	0.499970
C35	C	0.295066	0.087196	-0.000029
C36	C	0.795066	0.587196	0.499971
C37	C	0.212327	0.091434	-0.000025
C38	C	0.712327	0.591434	0.499975
C39	C	0.221608	-0.051659	-0.000006
C40	C	0.721608	0.448341	0.499994
C41	C	0.304344	-0.055897	0.000002
C42	C	0.804344	0.444103	0.500002
C43	C	0.341068	0.013530	-0.000017
C44	C	0.841068	0.513530	0.499983
C45	C	0.460533	0.075141	-0.000024
C46	C	0.960533	0.575141	0.499976
C47	C	0.425636	0.009190	-0.000021
C48	C	0.925636	0.509190	0.499979
C49	C	0.939235	-0.100516	0.000003
C50	C	1.439235	0.399484	0.500003
C51	C	0.931823	-0.186802	0.000003
C52	C	1.431823	0.313198	0.500003
C53	C	0.999881	-0.241577	0.000005
C54	C	1.499881	0.258423	0.500005
C55	C	0.992911	-0.322650	-0.000008
C56	C	1.492911	0.177350	0.499992
C57	C	0.917882	-0.348946	-0.000013
C58	C	1.417882	0.151054	0.499987
C59	C	0.849819	-0.294164	-0.000018
C60	C	1.349819	0.205836	0.499982
C61	C	0.856789	-0.213093	-0.000015
C62	C	1.356789	0.286907	0.499985
C63	C	0.893256	-0.593018	-0.000031
C64	C	1.393256	-0.093018	0.499969
C65	C	0.886291	-0.674096	-0.000030
C66	C	1.386291	-0.174096	0.499970
C67	C	1.029384	-0.702577	-0.000021
C68	C	1.529384	-0.202577	0.499979
C69	C	1.036348	-0.621502	-0.000010
C70	C	1.536348	-0.121502	0.499990
C71	C	0.968285	-0.566727	-0.000023
C72	C	1.468285	-0.066727	0.499977
C73	C	0.910756	-0.431816	-0.000021
C74	C	1.410756	0.068184	0.499979
C75	C	0.975411	-0.483859	-0.000024
C76	C	1.475411	0.016141	0.499976
C77	C	1.087547	0.026524	-0.000009
C78	C	1.587547	0.526524	0.499991
C79	C	1.175600	0.022013	-0.000017
C80	C	1.675600	0.522013	0.499983
C81	C	0.946936	0.184843	-0.000020
C82	C	1.446936	0.684843	0.499980
C83	C	0.954349	0.271129	-0.000028
C84	C	1.454349	0.771129	0.499972
N85	N	0.943076	0.042157	0.308237
N86	N	1.443076	0.542157	0.808237
N87	N	0.943102	0.042164	-0.308250
N88	N	1.443102	0.542164	0.191750
C89	C	0.943088	0.042165	0.573907
C90	C	1.443088	0.542165	1.073907
C91	C	0.943079	0.042163	0.426069
C92	C	1.443079	0.542163	0.926069
H93	H	0.463099	-0.050788	-0.000021
H94	H	0.963099	0.449212	0.499979
H95	H	0.341798	-0.115883	0.000015
H96	H	0.841798	0.384117	0.500015
H97	H	0.849667	-0.453235	-0.000022
H98	H	1.349667	0.046765	0.499978
Cl99	Cl	0.175435	-0.138933	0.000011
Cl100	Cl	0.675435	0.361067	0.500011
Cl101	Cl	0.710738	0.223261	-0.000047
Cl102	Cl	1.210738	0.723261	0.499953
H103	H	1.048332	-0.367246	-0.000003
H104	H	1.548332	0.132754	0.499997
H105	H	1.036500	-0.462446	-0.000049
H106	H	1.536500	0.037554	0.499951
Cl107	Cl	0.731676	-0.099721	0.000020
Cl108	Cl	1.231676	0.400279	0.500020
Cl109	Cl	0.544943	-0.090142	-0.000036
Cl110	Cl	1.044943	0.409858	0.499964
Cl111	Cl	1.094208	-0.208528	0.000025
Cl112	Cl	1.594208	0.291472	0.500025
H113	H	1.097445	-0.600099	-0.000006
H114	H	1.597445	-0.100099	0.499994
Cl115	Cl	0.154489	0.184050	-0.000024
Cl116	Cl	0.654489	0.684050	0.499976
H117	H	1.084797	-0.747183	-0.000014
H118	H	1.584797	-0.247183	0.499986
Cl119	Cl	0.791962	-0.707152	-0.000028
Cl120	Cl	1.291962	-0.207152	0.499972
H121	H	0.423064	0.135120	-0.000030
H122	H	0.923064	0.635120	0.499970
H123	H	0.544368	0.200209	-0.000047
H124	H	1.044368	0.700209	0.499953
H125	H	0.324957	0.143728	-0.000053
H126	H	0.824957	0.643728	0.499947
H127	H	0.837834	-0.548429	-0.000040
H128	H	1.337834	-0.048429	0.499960
Cl129	Cl	0.755496	-0.327222	-0.000041
Cl130	Cl	1.255496	0.172778	0.499959
H131	H	0.801369	-0.168494	-0.000017
H132	H	1.301369	0.331506	0.499983
