data_functionalizedCrystal
_audit_creation_method	'MofGen! by Chris Wilmer'
_symmetry_space_group_name_H-M	'P1'
_symmetry_Int_Tables_number	1
_symmetry_cell_setting	triclinic
loop_
_symmetry_equiv_pos_as_xyz
  x,y,z
_cell_length_a	19.805407
_cell_length_b	29.839131
_cell_length_c	19.805399
_cell_angle_alpha	89.970435
_cell_angle_beta	89.980427
_cell_angle_gamma	90.041420
loop_
_atom_site_label
_atom_site_type_symbol
_atom_site_fract_x
_atom_site_fract_y
_atom_site_fract_z
Zn1	Zn	1.034665	-0.178864	-0.382710
Zn2	Zn	1.534665	0.321136	0.117290
Zn3	Zn	1.034550	-0.253991	-0.269518
Zn4	Zn	1.534550	0.246009	0.230482
Zn5	Zn	0.921480	-0.178876	-0.269535
Zn6	Zn	1.421480	0.321124	0.230465
Zn7	Zn	0.921414	-0.253967	-0.382665
Zn8	Zn	1.421414	0.246033	0.117335
O9	O	0.978027	-0.216425	-0.326107
O10	O	1.478027	0.283575	0.173893
O11	O	1.129366	-0.188834	-0.367707
O12	O	1.629366	0.311166	0.132293
O13	O	1.019531	-0.244042	-0.174804
O14	O	1.519531	0.255958	0.325196
O15	O	0.936570	-0.116007	-0.284574
O16	O	1.436570	0.383993	0.215426
O17	O	1.129282	-0.244030	-0.284545
O18	O	1.629282	0.255970	0.215455
O19	O	1.019727	-0.115998	-0.367723
O20	O	1.519727	0.384002	0.132277
O21	O	0.936458	-0.188856	-0.174816
O22	O	1.436458	0.311144	0.325184
O23	O	0.826754	-0.188832	-0.284530
O24	O	1.326754	0.311168	0.215470
O25	O	0.936457	-0.243990	-0.477388
O26	O	1.436457	0.256010	0.022612
O27	O	0.826706	-0.244002	-0.367646
O28	O	1.326706	0.255998	0.132354
O29	O	1.019662	-0.188811	-0.477421
O30	O	1.519662	0.311189	0.022579
O31	O	1.019467	-0.316855	-0.284501
O32	O	1.519467	0.183145	0.215499
O33	O	0.936346	-0.316838	-0.367630
O34	O	1.436346	0.183162	0.132370
C35	C	0.802171	-0.216416	-0.326085
C36	C	1.302171	0.283584	0.173915
C37	C	0.726939	-0.216423	-0.326092
C38	C	1.226939	0.283577	0.173908
C39	C	0.977905	-0.333147	-0.326073
C40	C	1.477905	0.166853	0.173927
C41	C	0.977915	-0.383082	-0.326082
C42	C	1.477915	0.116918	0.173918
C43	C	0.691587	-0.245193	-0.369300
C44	C	1.191587	0.254807	0.130700
C45	C	0.620899	-0.245194	-0.369310
C46	C	1.120899	0.254806	0.130690
C47	C	0.585564	-0.216427	-0.326107
C48	C	1.085564	0.283573	0.173893
C49	C	0.620920	-0.187654	-0.282897
C50	C	1.120920	0.312346	0.217103
C51	C	0.691607	-0.187651	-0.282891
C52	C	1.191607	0.312349	0.217109
C53	C	0.335847	-0.187664	-0.282919
C54	C	0.835847	0.312336	0.217081
C55	C	0.265155	-0.187669	-0.282927
C56	C	0.765155	0.312331	0.217073
C57	C	0.265139	-0.245207	-0.369338
C58	C	0.765139	0.254793	0.130662
C59	C	0.335826	-0.245204	-0.369332
C60	C	0.835826	0.254796	0.130668
C61	C	0.371176	-0.216429	-0.326125
C62	C	0.871176	0.283571	0.173875
C63	C	0.447825	-0.216428	-0.326116
C64	C	0.947825	0.283572	0.173884
C65	C	0.508916	-0.216430	-0.326112
C66	C	1.008916	0.283570	0.173888
C67	C	1.021387	-0.692722	-0.282885
C68	C	1.521387	-0.192722	0.217115
C69	C	1.021471	-0.880395	-0.282912
C70	C	1.521471	-0.380395	0.217088
O71	O	1.058335	-0.904656	-0.246159
O72	O	1.558335	-0.404656	0.253841
N73	N	0.978168	-0.903867	-0.326158
N74	N	1.478168	-0.403867	0.173842
C75	C	0.934844	-0.880418	-0.369404
C76	C	1.434844	-0.380418	0.130596
O77	O	0.898019	-0.904688	-0.406194
O78	O	1.398019	-0.404688	0.093806
C79	C	0.934764	-0.692746	-0.369381
C80	C	1.434764	-0.192746	0.130619
C81	C	0.978065	-0.669276	-0.326127
C82	C	1.478065	-0.169276	0.173873
C83	C	1.064685	-0.669252	-0.239635
C84	C	1.564685	-0.169252	0.260365
C85	C	1.064661	-0.622336	-0.239626
C86	C	1.564661	-0.122336	0.260374
C87	C	1.021339	-0.598891	-0.282868
C88	C	1.521339	-0.098891	0.217132
C89	C	0.978041	-0.622360	-0.326118
C90	C	1.478041	-0.122360	0.173882
C91	C	0.891444	-0.669297	-0.412630
C92	C	1.391444	-0.169297	0.087370
C93	C	0.891429	-0.622376	-0.412621
C94	C	1.391429	-0.122376	0.087379
C95	C	0.934730	-0.598907	-0.369367
C96	C	1.434730	-0.098907	0.130633
C97	C	0.934695	-0.551999	-0.369351
C98	C	1.434695	-0.051999	0.130649
N99	N	0.977998	-0.528527	-0.326104
N100	N	1.477998	-0.028527	0.173896
C101	C	1.021320	-0.551973	-0.282863
C102	C	1.521320	-0.051973	0.217137
C103	C	0.934888	-0.978948	-0.369412
C104	C	1.434888	-0.478948	0.130588
C105	C	0.934907	-1.025866	-0.369418
C106	C	1.434907	-0.525866	0.130582
C107	C	1.021534	-1.025840	-0.282926
C108	C	1.521534	-0.525840	0.217074
C109	C	1.021512	-0.978921	-0.282918
C110	C	1.521512	-0.478921	0.217082
C111	C	0.978191	-0.955476	-0.326166
C112	C	1.478191	-0.455476	0.173834
C113	C	1.021266	-0.453447	-0.282847
C114	C	1.521266	0.046553	0.217153
C115	C	1.021237	-0.406527	-0.282840
C116	C	1.521237	0.093473	0.217160
C117	C	0.934611	-0.406558	-0.369334
C118	C	1.434611	0.093442	0.130666
C119	C	0.934638	-0.453473	-0.369339
C120	C	1.434638	0.046527	0.130661
C121	C	0.977971	-0.476917	-0.326093
C122	C	1.477971	0.023083	0.173907
O123	O	0.897855	-0.527708	-0.406090
O124	O	1.397855	-0.027708	0.093910
O125	O	1.058150	-0.527694	-0.246090
O126	O	1.558150	-0.027694	0.253910
C127	C	1.021411	-0.739637	-0.282894
C128	C	1.521411	-0.239637	0.217106
C129	C	0.978113	-0.763107	-0.326144
C130	C	1.478113	-0.263107	0.173856
C131	C	0.934791	-0.739661	-0.369386
C132	C	1.434791	-0.239661	0.130614
C133	C	0.978132	-0.810025	-0.326149
C134	C	1.478132	-0.310025	0.173851
C135	C	1.021454	-0.833470	-0.282908
C136	C	1.521454	-0.333470	0.217092
C137	C	1.064757	-0.809998	-0.239661
C138	C	1.564757	-0.309998	0.260339
C139	C	1.064733	-0.763083	-0.239653
C140	C	1.564733	-0.263083	0.260347
C141	C	0.891488	-0.763133	-0.412632
C142	C	1.391488	-0.263133	0.087368
C143	C	0.891515	-0.810049	-0.412637
C144	C	1.391515	-0.310049	0.087363
C145	C	0.934837	-0.833494	-0.369395
C146	C	1.434837	-0.333494	0.130605
C147	C	1.154570	-0.216434	-0.326129
C148	C	1.654570	0.283566	0.173871
C149	C	1.229802	-0.216437	-0.326139
C150	C	1.729802	0.283563	0.173861
C151	C	0.978065	-0.216396	-0.502650
C152	C	1.478065	0.283604	-0.002650
C153	C	0.978081	-0.216384	-0.577882
C154	C	1.478081	0.283616	-0.077882
C155	C	0.978168	-0.099246	-0.326156
C156	C	1.478168	0.400754	0.173844
C157	C	0.978228	-0.049312	-0.326176
C158	C	1.478228	0.450688	0.173824
C159	C	1.021407	-0.187652	-0.613244
C160	C	1.521407	0.312348	-0.113244
C161	C	1.021414	-0.187638	-0.683933
C162	C	1.521414	0.312362	-0.183933
C163	C	0.978098	-0.216361	-0.719258
C164	C	1.478098	0.283639	-0.219258
C165	C	0.934767	-0.245095	-0.683890
C166	C	1.434767	0.254905	-0.183890
C167	C	0.934757	-0.245105	-0.613203
C168	C	1.434757	0.254895	-0.113203
C169	C	0.934806	-0.245053	-0.968963
C170	C	1.434806	0.254947	-0.468963
C171	C	0.934820	-0.245041	-1.039656
C172	C	1.434820	0.254959	-0.539656
C173	C	1.021462	-0.187586	-1.039694
C174	C	1.521462	0.312414	-0.539694
C175	C	1.021453	-0.187597	-0.969006
C176	C	1.521453	0.312403	-0.469006
C177	C	0.978120	-0.216329	-0.933645
C178	C	1.478120	0.283671	-0.433645
C179	C	0.978112	-0.216342	-0.856997
C180	C	1.478112	0.283658	-0.356997
C181	C	0.978109	-0.216350	-0.795905
C182	C	1.478109	0.283650	-0.295905
C183	C	0.978028	-0.216420	-0.150251
C184	C	1.478028	0.283580	0.349749
C185	C	0.978143	-0.216306	-0.075019
C186	C	1.478143	0.283694	0.424981
H187	H	0.720352	-0.268620	-0.404479
H188	H	1.220352	0.231380	0.095521
H189	H	0.236348	-0.268634	-0.404522
H190	H	0.736348	0.231366	0.095478
F191	F	1.067558	-0.157028	-0.931415
F192	F	1.567558	0.342972	-0.431415
H193	H	0.364592	-0.268631	-0.404510
H194	H	0.864592	0.231369	0.095490
F195	F	1.067386	-0.478391	-0.236820
F196	F	1.567386	0.021609	0.263180
F197	F	1.067598	-0.953947	-0.236882
F198	F	1.567598	-0.453947	0.263118
H199	H	1.099993	-0.743977	-0.204431
H200	H	1.599993	-0.243977	0.295569
F201	F	1.067325	-0.381552	-0.236801
F202	F	1.567325	0.118448	0.263199
F203	F	0.227550	-0.157049	-0.236943
F204	F	0.727550	0.342951	0.263057
F205	F	0.373461	-0.157038	-0.236935
F206	F	0.873461	0.342962	0.263065
H207	H	0.720390	-0.164221	-0.247710
H208	H	1.220390	0.335779	0.252290
F209	F	0.888664	-0.275662	-0.721487
F210	F	1.388664	0.224338	-0.221487
H211	H	1.056696	-0.164242	-0.712722
H212	H	1.556696	0.335758	-0.212722
H213	H	1.099922	-0.603230	-0.204407
H214	H	1.599922	-0.103230	0.295593
H215	H	1.056744	-0.164189	-1.068493
H216	H	1.556744	0.335811	-0.568493
F217	F	0.583312	-0.157035	-0.236921
F218	F	1.083312	0.342965	0.263079
H219	H	1.099967	-0.688336	-0.204423
H220	H	1.599967	-0.188336	0.295577
F221	F	0.583278	-0.275815	-0.415299
F222	F	1.083278	0.224185	0.084701
F223	F	1.067640	-1.050800	-0.236903
F224	F	1.567640	-0.550800	0.263097
H225	H	0.899544	-0.268431	-1.068415
H226	H	1.399544	0.231569	-0.568415
F227	F	0.888812	-1.050839	-0.415447
F228	F	1.388812	-0.550839	0.084553
H229	H	0.899470	-0.268498	-0.584411
H230	H	1.399470	0.231502	-0.084411
H231	H	0.899609	-0.959863	-0.404631
H232	H	1.399609	-0.459863	0.095369
F233	F	0.845362	-0.694266	-0.458674
F234	F	1.345362	-0.194266	0.041326
F235	F	0.845321	-0.597427	-0.458655
F236	F	1.345321	-0.097427	0.041345
F237	F	0.888541	-0.478452	-0.415362
F238	F	1.388541	0.021548	0.084638
F239	F	0.888509	-0.381597	-0.415355
F240	F	1.388509	0.118403	0.084645
H241	H	0.899531	-0.268455	-0.940181
H242	H	1.399531	0.231545	-0.440181
H243	H	1.100029	-0.829096	-0.204451
H244	H	1.600029	-0.329096	0.295549
F245	F	0.845423	-0.835022	-0.458675
F246	F	1.345423	-0.335022	0.041325
H247	H	1.056683	-0.164264	-0.584488
H248	H	1.556683	0.335736	-0.084488
F249	F	0.845377	-0.738187	-0.458659
F250	F	1.345377	-0.238187	0.041341
