data_functionalizedCrystal
_audit_creation_method	'MofGen! by Chris Wilmer'
_symmetry_space_group_name_H-M	'P1'
_symmetry_Int_Tables_number	1
_symmetry_cell_setting	triclinic
loop_
_symmetry_equiv_pos_as_xyz
  x,y,z
_cell_length_a	16.959455
_cell_length_b	16.959453
_cell_length_c	16.959447
_cell_angle_alpha	89.972501
_cell_angle_beta	89.982507
_cell_angle_gamma	90.016935
loop_
_atom_site_label
_atom_site_type_symbol
_atom_site_fract_x
_atom_site_fract_y
_atom_site_fract_z
Zn1	Zn	1.208409	-0.314758	-0.446905
Zn2	Zn	1.708409	0.185242	0.053095
Zn3	Zn	1.208324	-0.446942	-0.314724
Zn4	Zn	1.708324	0.053058	0.185276
Zn5	Zn	1.076230	-0.314775	-0.314742
Zn6	Zn	1.576230	0.185225	0.185258
Zn7	Zn	1.076202	-0.446892	-0.446863
Zn8	Zn	1.576202	0.053108	0.053137
O9	O	1.142291	-0.380842	-0.380808
O10	O	1.642291	0.119158	0.119192
O11	O	1.319009	-0.332307	-0.429381
O12	O	1.819009	0.167693	0.070619
O13	O	1.190778	-0.429438	-0.204116
O14	O	1.690778	0.070562	0.295884
O15	O	1.093811	-0.204162	-0.332299
O16	O	1.593811	0.295838	0.167701
O17	O	1.318946	-0.429422	-0.332268
O18	O	1.818946	0.070578	0.167732
O19	O	1.190922	-0.204149	-0.429398
O20	O	1.690922	0.295851	0.070602
O21	O	1.093729	-0.332335	-0.204129
O22	O	1.593729	0.167665	0.295871
O23	O	0.965616	-0.332286	-0.332258
O24	O	1.465616	0.167714	0.167742
O25	O	1.093764	-0.429336	-0.557479
O26	O	1.593764	0.070664	-0.057479
O27	O	0.965595	-0.429352	-0.429327
O28	O	1.465595	0.070648	0.070673
O29	O	1.190895	-0.332258	-0.557510
O30	O	1.690895	0.167742	-0.057510
O31	O	1.190751	-0.557547	-0.332228
O32	O	1.690751	-0.057547	0.167772
O33	O	1.093682	-0.557509	-0.429310
O34	O	1.593682	-0.057509	0.070690
C35	C	0.936925	-0.380816	-0.380790
C36	C	1.436925	0.119184	0.119210
C37	C	0.849069	-0.380823	-0.380801
C38	C	1.349069	0.119177	0.119199
C39	C	1.142226	-0.586208	-0.380780
C40	C	1.642226	-0.086208	0.119220
C41	C	1.142270	-0.674065	-0.380794
C42	C	1.642270	-0.174065	0.119206
C43	C	0.477579	-0.330258	-0.330370
C44	C	0.977579	0.169742	0.169630
C45	C	0.477607	-0.431490	-0.431292
C46	C	0.977607	0.068510	0.068708
C47	C	0.560153	-0.431479	-0.431287
C48	C	1.060153	0.068521	0.068713
C49	C	0.601416	-0.380857	-0.380822
C50	C	1.101416	0.119143	0.119178
C51	C	0.560133	-0.330247	-0.330362
C52	C	1.060133	0.169753	0.169638
C53	C	0.601442	-0.482094	-0.481740
C54	C	1.101442	0.017906	0.018260
C55	C	0.683993	-0.482085	-0.481737
C56	C	1.183993	0.017915	0.018263
C57	C	0.725257	-0.431459	-0.431275
C58	C	1.225257	0.068541	0.068725
C59	C	0.683969	-0.380846	-0.380814
C60	C	1.183969	0.119154	0.119186
C61	C	0.725232	-0.330224	-0.330350
C62	C	1.225232	0.169776	0.169650
C63	C	0.683946	-0.279607	-0.279892
C64	C	1.183946	0.220393	0.220108
C65	C	0.601397	-0.279621	-0.279901
C66	C	1.101397	0.220379	0.220099
C67	C	0.807806	-0.431445	-0.431266
C68	C	1.307806	0.068555	0.068734
C69	C	0.807786	-0.330213	-0.330341
C70	C	1.307786	0.169787	0.169659
C71	C	1.192922	-1.045475	-0.431463
C72	C	1.692922	-0.545475	0.068537
C73	C	1.091882	-1.045605	-0.330271
C74	C	1.591882	-0.545605	0.169729
C75	C	1.091852	-0.963059	-0.330253
C76	C	1.591852	-0.463059	0.169747
C77	C	1.142358	-0.921717	-0.380842
C78	C	1.642358	-0.421717	0.119158
C79	C	1.192893	-0.962922	-0.431449
C80	C	1.692893	-0.462922	0.068551
C81	C	1.041313	-0.921849	-0.279652
C82	C	1.541313	-0.421849	0.220348
C83	C	1.041281	-0.839298	-0.279633
C84	C	1.541281	-0.339298	0.220367
C85	C	1.091791	-0.797955	-0.330218
C86	C	1.591791	-0.297955	0.169782
C87	C	1.142328	-0.839164	-0.380827
C88	C	1.642328	-0.339164	0.119173
C89	C	1.192834	-0.797822	-0.431415
C90	C	1.692834	-0.297822	0.068585
C91	C	1.243376	-0.839030	-0.482021
C92	C	1.743376	-0.339030	0.017979
C93	C	1.243403	-0.921579	-0.482034
C94	C	1.743403	-0.421579	0.017966
C95	C	1.091764	-0.715406	-0.330205
C96	C	1.591764	-0.215406	0.169795
C97	C	1.192804	-0.715269	-0.431401
C98	C	1.692804	-0.215269	0.068599
C99	C	1.348460	-0.380868	-0.380827
C100	C	1.848460	0.119132	0.119173
C101	C	1.436316	-0.380880	-0.380835
C102	C	1.936316	0.119120	0.119165
C103	C	1.142336	-0.380789	-0.586977
C104	C	1.642336	0.119211	-0.086977
C105	C	1.142355	-0.380767	-0.674833
C106	C	1.642355	0.119233	-0.174833
C107	C	1.142379	-0.174673	-0.380855
C108	C	1.642379	0.325327	0.119145
C109	C	1.142417	-0.086817	-0.380875
C110	C	1.642417	0.413183	0.119125
C111	C	1.091792	-0.431301	-0.716093
C112	C	1.591792	0.068699	-0.216093
C113	C	1.192930	-0.330206	-0.716127
C114	C	1.692930	0.169794	-0.216127
C115	C	1.192946	-0.330181	-0.798673
C116	C	1.692946	0.169819	-0.298673
C117	C	1.142384	-0.380715	-0.839933
C118	C	1.642384	0.119285	-0.339933
C119	C	1.091806	-0.431275	-0.798647
C120	C	1.591806	0.068725	-0.298647
C121	C	1.243518	-0.279616	-0.839966
C122	C	1.743518	0.220384	-0.339966
C123	C	1.243536	-0.279587	-0.922517
C124	C	1.743536	0.220413	-0.422517
C125	C	1.192977	-0.330126	-0.963778
C126	C	1.692977	0.169874	-0.463778
C127	C	1.142397	-0.380689	-0.922487
C128	C	1.642397	0.119311	-0.422487
C129	C	1.091835	-0.431223	-0.963746
C130	C	1.591835	0.068777	-0.463746
C131	C	1.041259	-0.481790	-0.922456
C132	C	1.541259	0.018210	-0.422456
C133	C	1.041247	-0.481814	-0.839908
C134	C	1.541247	0.018186	-0.339908
C135	C	1.192989	-0.330103	-1.046326
C136	C	1.692989	0.169897	-0.546326
C137	C	1.091848	-0.431197	-1.046300
C138	C	1.591848	0.068803	-0.546300
C139	C	1.142293	-0.380837	-0.175442
C140	C	1.642293	0.119163	0.324558
C141	C	1.142427	-0.380637	-0.087586
C142	C	1.642427	0.119363	0.412414
H143	H	0.717553	-0.238394	-0.238800
H144	H	1.217553	0.261606	0.261200
C145	C	0.508651	-0.493205	-0.588046
C146	C	1.008651	0.006795	-0.088046
C147	C	0.556079	-0.537728	-0.537209
C148	C	1.056079	-0.037728	-0.037209
H149	H	0.480645	-0.527551	-0.622295
H150	H	0.980645	-0.027551	-0.122295
H151	H	0.472260	-0.463066	-0.557994
H152	H	0.972260	0.036934	-0.057994
H153	H	0.540886	-0.458810	-0.618338
H154	H	1.040886	0.041190	-0.118338
H155	H	0.523843	-0.572119	-0.506913
H156	H	1.023843	-0.072119	-0.006913
H157	H	0.592474	-0.567880	-0.567265
H158	H	1.092474	-0.067880	-0.067265
H159	H	1.000128	-0.805751	-0.238427
H160	H	1.500128	-0.305751	0.261573
H161	H	1.284551	-0.955137	-0.523234
H162	H	1.784551	-0.455137	-0.023234
H163	H	0.567774	-0.238412	-0.238820
H164	H	1.067774	0.261588	0.261180
C165	C	0.996379	-0.526630	-1.048988
C166	C	1.496379	-0.026630	-0.548988
C167	C	0.985683	-0.537339	-0.967815
C168	C	1.485683	-0.037339	-0.467815
H169	H	0.962073	-0.560927	-1.076991
H170	H	1.462073	-0.060927	-0.576991
H171	H	0.984827	-0.473522	-1.062512
H172	H	1.484827	0.026478	-0.562512
H173	H	1.049489	-0.538193	-1.062513
H174	H	1.549489	-0.038193	-0.562513
H175	H	0.932574	-0.525770	-0.954289
H176	H	1.432574	-0.025770	-0.454289
H177	H	0.997229	-0.590459	-0.954285
H178	H	1.497229	-0.090459	-0.454285
C179	C	1.030227	-0.588149	-0.747038
C180	C	1.530227	-0.088149	-0.247038
C181	C	0.985660	-0.537387	-0.794509
C182	C	1.485660	-0.037387	-0.294509
H183	H	0.995910	-0.622452	-0.719003
H184	H	1.495910	-0.122452	-0.219003
H185	H	1.064648	-0.618380	-0.779242
H186	H	1.564648	-0.118380	-0.279242
H187	H	1.060340	-0.558039	-0.710666
H188	H	1.560340	-0.058039	-0.210666
H189	H	0.955552	-0.567497	-0.830885
H190	H	1.455552	-0.067497	-0.330885
H191	H	0.951226	-0.507154	-0.762302
H192	H	1.451226	-0.007154	-0.262302
C193	C	1.231342	-1.070773	-0.565351
C194	C	1.731342	-0.570773	-0.065351
C195	C	1.248466	-1.090769	-0.487094
C196	C	1.748466	-0.590769	0.012906
H197	H	1.265634	-1.098735	-0.599696
H198	H	1.765634	-0.598735	-0.099696
H199	H	1.178236	-1.084330	-0.576860
H200	H	1.678236	-0.584330	-0.076860
H201	H	1.238556	-1.015692	-0.572573
H202	H	1.738556	-0.515692	-0.072573
H203	H	1.241246	-1.145850	-0.479871
H204	H	1.741246	-0.645850	0.020129
H205	H	1.301585	-1.077217	-0.475582
H206	H	1.801585	-0.577217	0.024418
H207	H	0.443960	-0.289044	-0.289291
H208	H	0.943960	0.210956	0.210709
C209	C	1.080772	-0.537652	-0.623241
C210	C	1.580772	-0.037652	-0.123241
C211	C	1.036205	-0.486881	-0.670703
C212	C	1.536205	0.013119	-0.170703
H213	H	1.046454	-0.571961	-0.595214
H214	H	1.546454	-0.071961	-0.095214
H215	H	1.115194	-0.567875	-0.655449
H216	H	1.615194	-0.067875	-0.155449
H217	H	1.110882	-0.507549	-0.586862
H218	H	1.610882	-0.007549	-0.086862
H219	H	1.006100	-0.516984	-0.707087
H220	H	1.506100	-0.016984	-0.207087
H221	H	1.001769	-0.456655	-0.638492
H222	H	1.501769	0.043345	-0.138492
H223	H	1.050610	-0.681859	-0.289007
H224	H	1.550610	-0.181859	0.210993
H225	H	1.234092	-0.289060	-0.682529
H226	H	1.734092	0.210940	-0.182529
H227	H	1.284720	-0.238413	-0.956128
H228	H	1.784720	0.261587	-0.456128
H229	H	1.234162	-0.288925	-1.079941
H230	H	1.734162	0.211075	-0.579941
H231	H	0.841376	-0.288986	-0.289251
H232	H	1.341376	0.211014	0.210749
C233	C	1.288432	-0.234807	-0.713439
C234	C	1.788432	0.265193	-0.213439
C235	C	1.299112	-0.224090	-0.794613
C236	C	1.799112	0.275910	-0.294613
H237	H	1.322765	-0.200535	-0.685439
H238	H	1.822765	0.299465	-0.185439
H239	H	1.235338	-0.223222	-0.699899
H240	H	1.735338	0.276778	-0.199899
H241	H	1.299964	-0.287930	-0.699927
H242	H	1.799964	0.212070	-0.199927
H243	H	1.287575	-0.170968	-0.808127
H244	H	1.787575	0.329032	-0.308127
H245	H	1.352218	-0.235669	-0.808159
H246	H	1.852218	0.264331	-0.308159
H247	H	0.444005	-0.472709	-0.472373
H248	H	0.944005	0.027291	0.027627
H249	H	1.050759	-1.079270	-0.289087
H250	H	1.550759	-0.579270	0.210913
C251	C	0.675719	-0.582147	-0.581501
C252	C	1.175719	-0.082147	-0.081501
C253	C	0.729371	-0.537715	-0.537205
C254	C	1.229371	-0.037715	-0.037205
H255	H	0.703736	-0.616485	-0.615749
H256	H	1.203736	-0.116485	-0.115749
H257	H	0.643509	-0.612344	-0.547011
H258	H	1.143509	-0.112344	-0.047011
H259	H	0.643534	-0.547744	-0.611794
H260	H	1.143534	-0.047744	-0.111794
H261	H	0.761552	-0.572119	-0.506907
H262	H	1.261552	-0.072119	-0.006907
H263	H	0.761594	-0.507516	-0.571700
H264	H	1.261594	-0.007516	-0.071700
H265	H	1.000192	-0.955515	-0.238468
H266	H	1.500192	-0.455515	0.261532
H267	H	1.050677	-0.472351	-1.079887
H268	H	1.550677	0.027649	-0.579887
C269	C	1.203689	-0.622360	-0.537719
C270	C	1.703689	-0.122360	-0.037719
C271	C	1.248321	-0.669826	-0.487010
C272	C	1.748321	-0.169826	0.012990
H273	H	1.237964	-0.594302	-0.572046
H274	H	1.737964	-0.094302	-0.072046
H275	H	1.169255	-0.654569	-0.567927
H276	H	1.669255	-0.154569	-0.067927
H277	H	1.173590	-0.586007	-0.507573
H278	H	1.673590	-0.086007	-0.007573
H279	H	1.278417	-0.706182	-0.517156
H280	H	1.778417	-0.206182	-0.017156
H281	H	1.282770	-0.637614	-0.456799
H282	H	1.782770	-0.137614	0.043201
C283	C	0.934358	-0.476381	-0.476059
C284	C	1.434358	0.023619	0.023941
C285	C	0.853189	-0.487080	-0.486721
C286	C	1.353189	0.012920	0.013279
H287	H	0.962373	-0.510733	-0.510294
H288	H	1.462373	-0.010733	-0.010294
H289	H	0.947894	-0.423293	-0.487727
H290	H	1.447894	0.076707	0.012273
H291	H	0.947856	-0.487874	-0.422925
H292	H	1.447856	0.012126	0.077075
H293	H	0.839689	-0.475581	-0.539853
H294	H	1.339689	0.024419	-0.039853
H295	H	0.839647	-0.540180	-0.475057
H296	H	1.339647	-0.040180	0.024943
C297	C	1.254249	-0.746114	-0.588332
C298	C	1.754249	-0.246114	-0.088332
C299	C	1.298888	-0.793579	-0.537627
C300	C	1.798888	-0.293579	-0.037627
H301	H	1.288520	-0.718048	-0.622656
H302	H	1.788520	-0.218048	-0.122656
H303	H	1.219819	-0.778325	-0.618542
H304	H	1.719819	-0.278325	-0.118542
H305	H	1.224145	-0.709768	-0.558182
H306	H	1.724145	-0.209768	-0.058182
H307	H	1.328988	-0.829928	-0.567777
H308	H	1.828988	-0.329928	-0.067777
H309	H	1.333332	-0.761365	-0.507414
H310	H	1.833332	-0.261365	-0.007414
