data_functionalizedCrystal
_audit_creation_method	'MofGen! by Chris Wilmer'
_symmetry_space_group_name_H-M	'P1'
_symmetry_Int_Tables_number	1
_symmetry_cell_setting	triclinic
loop_
_symmetry_equiv_pos_as_xyz
  x,y,z
_cell_length_a	42.784839
_cell_length_b	42.784841
_cell_length_c	42.784893
_cell_angle_alpha	90.002418
_cell_angle_beta	120.002220
_cell_angle_gamma	60.000137
loop_
_atom_site_label
_atom_site_type_symbol
_atom_site_fract_x
_atom_site_fract_y
_atom_site_fract_z
O1	O	-0.275695	-0.214412	-0.009300
O2	O	-0.211692	-0.168961	0.009253
O3	O	-0.275692	-0.168961	-0.054750
O4	O	-0.211694	-0.214412	0.054702
O5	O	-0.223708	-0.220945	-0.054749
O6	O	-0.159708	-0.220945	0.009253
O7	O	-0.223710	-0.266397	-0.009300
Zn8	Zn	-0.183455	-0.251924	-0.000023
Zn9	Zn	-0.251947	-0.183433	-0.000024
O10	O	-0.159710	-0.266396	0.054703
C11	C	-0.051021	-0.022778	0.028112
C12	C	-0.013142	-0.041761	0.028375
C13	C	-0.051018	-0.079378	0.028116
C14	C	-0.013139	-0.098275	0.028379
C15	C	0.005578	-0.079377	0.028112
C16	C	-0.069652	-0.041762	0.028379
C17	C	-0.152948	0.113708	0.017863
C18	C	-0.173786	0.152360	0.014965
C19	C	-0.155902	0.171750	0.013509
C20	C	-0.178499	0.213661	0.010359
C21	C	-0.117177	0.152485	0.014953
C22	C	-0.096339	0.113835	0.017857
C23	C	-0.114226	0.094447	0.019312
C24	C	0.131813	-0.113936	0.017859
C25	C	0.167567	-0.131750	0.014961
C26	C	0.185502	-0.169024	0.013506
C27	C	0.224264	-0.188340	0.010358
C28	C	0.167685	-0.188485	0.014954
C29	C	0.131938	-0.170675	0.017859
C30	C	0.114002	-0.133396	0.019309
C31	C	-0.152939	-0.113943	0.017877
C32	C	-0.173778	-0.131757	0.014977
C33	C	-0.155892	-0.169032	0.013523
C34	C	-0.178486	-0.188349	0.010377
C35	C	-0.117170	-0.188491	0.014967
C36	C	-0.096334	-0.170675	0.017865
C37	C	-0.114220	-0.133401	0.019323
C38	C	-0.091629	0.052537	0.022456
C39	C	-0.073617	0.019131	0.024964
C40	C	-0.073613	-0.098693	0.024971
C41	C	-0.091623	-0.114089	0.022466
C42	C	0.044339	-0.098690	0.024964
C43	C	0.075237	-0.114084	0.022456
C44	C	-0.384390	-0.079141	-0.361606
C45	C	-0.422270	-0.041526	-0.380503
C46	C	-0.384390	-0.079141	-0.305008
C47	C	-0.422270	-0.041526	-0.323990
C48	C	-0.440988	-0.022543	-0.361606
C49	C	-0.365758	-0.098038	-0.323991
C50	C	-0.282465	-0.170819	-0.396168
C51	C	-0.261627	-0.188759	-0.413983
C52	C	-0.279513	-0.169420	-0.451257
C53	C	-0.256917	-0.188867	-0.470572
C54	C	-0.318239	-0.132140	-0.470717
C55	C	-0.339076	-0.114205	-0.452905
C56	C	-0.321187	-0.133546	-0.415628
C57	C	-0.567227	0.113942	-0.453282
C58	C	-0.602981	0.152594	-0.471222
C59	C	-0.620916	0.171985	-0.451883
C60	C	-0.659678	0.213894	-0.471328
C61	C	-0.603097	0.152719	-0.414603
C62	C	-0.567349	0.114068	-0.396667
C63	C	-0.549414	0.094682	-0.416011
C64	C	-0.282465	-0.170819	-0.168522
C65	C	-0.261624	-0.188757	-0.129868
C66	C	-0.279510	-0.169418	-0.110479
C67	C	-0.256914	-0.188865	-0.068568
C68	C	-0.318233	-0.132140	-0.129742
C69	C	-0.339070	-0.114203	-0.168394
C70	C	-0.321184	-0.133548	-0.187782
C71	C	-0.343783	-0.114094	-0.396315
C72	C	-0.361794	-0.098590	-0.380920
C73	C	-0.361794	-0.098590	-0.263099
C74	C	-0.343783	-0.114094	-0.229693
C75	C	-0.479750	0.019366	-0.381054
C76	C	-0.510649	0.052771	-0.396557
C77	C	-0.440758	-0.356212	-0.028193
C78	C	-0.422041	-0.393827	-0.028459
C79	C	-0.384158	-0.356213	-0.028190
C80	C	-0.365526	-0.393828	-0.028456
C81	C	-0.384160	-0.412810	-0.028193
C82	C	-0.422038	-0.337315	-0.028456
C83	C	-0.567000	-0.264532	-0.017949
C84	C	-0.602755	-0.246591	-0.015053
C85	C	-0.620692	-0.265931	-0.013601
C86	C	-0.659455	-0.246483	-0.010453
C87	C	-0.602873	-0.303210	-0.015048
C88	C	-0.567125	-0.321146	-0.017949
C89	C	-0.549188	-0.301805	-0.019399
C90	C	-0.339356	-0.549295	-0.017951
C91	C	-0.318645	-0.587947	-0.015055
C92	C	-0.279915	-0.607338	-0.013597
C93	C	-0.257452	-0.649247	-0.010452
C94	C	-0.261899	-0.588073	-0.015042
C95	C	-0.282613	-0.549422	-0.017945
C96	C	-0.321343	-0.530035	-0.019397
C97	C	-0.339344	-0.264537	-0.017936
C98	C	-0.318628	-0.246599	-0.015032
C99	C	-0.279898	-0.265939	-0.013577
C100	C	-0.257433	-0.246493	-0.010426
C101	C	-0.261884	-0.303217	-0.015022
C102	C	-0.282601	-0.321153	-0.017924
C103	C	-0.321334	-0.301808	-0.019385
C104	C	-0.510421	-0.321258	-0.022542
C105	C	-0.479522	-0.336762	-0.025048
C106	C	-0.361696	-0.336765	-0.025041
C107	C	-0.343793	-0.321261	-0.022532
C108	C	-0.361701	-0.454719	-0.025047
C109	C	-0.343799	-0.488125	-0.022541
O110	O	0.327856	-0.266388	-0.009322
O111	O	0.236954	-0.220935	0.009228
O112	O	0.236950	-0.220939	-0.054773
O113	O	0.327860	-0.266385	0.054680
O114	O	0.236948	-0.168954	-0.054776
O115	O	0.236952	-0.168950	0.009225
O116	O	0.327854	-0.214403	-0.009325
Zn117	Zn	0.282403	-0.183423	-0.000050
Zn118	Zn	0.282405	-0.251916	-0.000046
O119	O	0.327858	-0.214400	0.054676
O120	O	-0.223728	0.336934	-0.009323
O121	O	-0.159726	0.227482	0.009227
O122	O	-0.223729	0.291478	-0.054775
O123	O	-0.159725	0.272938	0.054678
O124	O	-0.275711	0.291477	-0.054771
O125	O	-0.211707	0.227481	0.009230
O126	O	-0.275710	0.336932	-0.009320
Zn127	Zn	-0.251962	0.282206	-0.000045
Zn128	Zn	-0.183474	0.282208	-0.000049
O129	O	-0.211707	0.272936	0.054681
O130	O	-0.763271	0.337164	-0.496871
O131	O	-0.672367	0.227713	-0.451422
O132	O	-0.672365	0.291711	-0.451418
O133	O	-0.763273	0.273165	-0.496876
O134	O	-0.672366	0.291712	-0.503402
O135	O	-0.672368	0.227714	-0.503407
O136	O	-0.763272	0.337165	-0.548856
Zn137	Zn	-0.717820	0.282440	-0.534385
Zn138	Zn	-0.717819	0.282438	-0.465893
O139	O	-0.763275	0.273167	-0.548860
O140	O	-0.211690	-0.214417	-0.548617
O141	O	-0.275691	-0.168962	-0.503167
O142	O	-0.211689	-0.168964	-0.503163
O143	O	-0.275692	-0.214415	-0.548621
O144	O	-0.159706	-0.220947	-0.451179
O145	O	-0.223708	-0.220945	-0.451183
O146	O	-0.159707	-0.266400	-0.496633
Zn147	Zn	-0.183454	-0.251926	-0.465654
Zn148	Zn	-0.251944	-0.183436	-0.534146
O149	O	-0.223709	-0.266398	-0.496637
C150	C	0.005343	-0.412572	0.361558
C151	C	-0.013375	-0.393590	0.380456
C152	C	-0.051255	-0.355974	0.304961
C153	C	-0.069887	-0.337077	0.323944
C154	C	-0.051254	-0.355974	0.361560
C155	C	-0.013375	-0.393589	0.323943
C156	C	0.131582	-0.549057	0.396116
C157	C	0.167336	-0.587709	0.413930
C158	C	0.185271	-0.607098	0.451205
C159	C	0.224034	-0.649009	0.470519
C160	C	0.167452	-0.587833	0.470666
C161	C	0.131705	-0.549184	0.452854
C162	C	0.113770	-0.529796	0.415578
C163	C	-0.096061	-0.321414	0.453239
C164	C	-0.116773	-0.303600	0.471179
C165	C	-0.155502	-0.266327	0.451842
C166	C	-0.177965	-0.247011	0.471288
C167	C	-0.173517	-0.246866	0.414562
C168	C	-0.152802	-0.264677	0.396625
C169	C	-0.114073	-0.301955	0.415968
C170	C	-0.096064	-0.321412	0.168474
C171	C	-0.116779	-0.303599	0.129820
C172	C	-0.155508	-0.266324	0.110432
C173	C	-0.177972	-0.247009	0.068521
C174	C	-0.173522	-0.246865	0.129696
C175	C	-0.152807	-0.264680	0.168348
C176	C	-0.114075	-0.301953	0.187735
C177	C	0.075004	-0.487887	0.396265
C178	C	0.044106	-0.454481	0.380871
C179	C	-0.073715	-0.336660	0.263052
C180	C	-0.091618	-0.321265	0.229646
C181	C	-0.073714	-0.336661	0.381009
C182	C	-0.091616	-0.321267	0.396513
C183	C	-0.051046	-0.022794	-0.361634
C184	C	-0.069679	-0.041778	-0.380530
C185	C	0.005555	-0.079390	-0.305034
C186	C	-0.013163	-0.098288	-0.324016
C187	C	-0.051045	-0.079393	-0.361631
C188	C	-0.013164	-0.041775	-0.324018
C189	C	-0.095858	0.113693	-0.396200
C190	C	-0.116571	0.152344	-0.414015
C191	C	-0.155302	0.171732	-0.451290
C192	C	-0.177767	0.213642	-0.470607
C193	C	-0.173317	0.152465	-0.470750
C194	C	-0.152600	0.113815	-0.452936
C195	C	-0.113869	0.094429	-0.415659
C196	C	-0.152973	-0.113959	-0.453306
C197	C	-0.173810	-0.131775	-0.471245
C198	C	-0.155926	-0.169048	-0.451906
C199	C	-0.178519	-0.188366	-0.471350
C200	C	-0.117198	-0.188507	-0.414626
C201	C	-0.096358	-0.170694	-0.396690
C202	C	-0.114251	-0.133416	-0.416035
C203	C	0.131801	-0.113944	-0.168548
C204	C	0.167554	-0.131755	-0.129895
C205	C	0.185491	-0.169029	-0.110504
C206	C	0.224255	-0.188343	-0.068593
C207	C	0.167671	-0.188490	-0.129767
C208	C	0.131918	-0.170677	-0.168418
C209	C	0.113988	-0.133404	-0.187808
C210	C	-0.091411	0.052521	-0.396344
C211	C	-0.073508	0.019115	-0.380949
C212	C	0.044320	-0.098701	-0.263125
C213	C	0.075220	-0.114094	-0.229719
C214	C	-0.073641	-0.098707	-0.381079
C215	C	-0.091652	-0.114103	-0.396582
C216	C	0.615853	-0.356193	0.361535
C217	C	0.634487	-0.393808	0.380433
C218	C	0.559253	-0.356195	0.304938
C219	C	0.577972	-0.393810	0.323921
C220	C	0.615854	-0.412792	0.361537
C221	C	0.577972	-0.337297	0.323920
C222	C	0.660661	-0.264512	0.396093
C223	C	0.681373	-0.246571	0.413906
C224	C	0.720104	-0.265909	0.451181
C225	C	0.742568	-0.246461	0.470495
C226	C	0.738120	-0.303189	0.470643
C227	C	0.717405	-0.321125	0.452831
C228	C	0.678674	-0.301785	0.415554
C229	C	0.717784	-0.549275	0.453218
C230	C	0.738622	-0.587926	0.471159
C231	C	0.720740	-0.607319	0.451822
C232	C	0.743333	-0.649227	0.471268
C233	C	0.682012	-0.588055	0.414542
C234	C	0.661170	-0.549403	0.396604
C235	C	0.679063	-0.530016	0.415946
C236	C	0.433006	-0.264522	0.168449
C237	C	0.397253	-0.246585	0.129796
C238	C	0.379317	-0.265926	0.110407
C239	C	0.340553	-0.246480	0.068496
C240	C	0.397138	-0.303204	0.129672
C241	C	0.432891	-0.321139	0.168324
C242	C	0.450820	-0.301793	0.187711
C243	C	0.656216	-0.321238	0.396242
C244	C	0.638314	-0.336743	0.380848
C245	C	0.520488	-0.336748	0.263028
C246	C	0.489588	-0.321245	0.229622
C247	C	0.638451	-0.454700	0.380987
C248	C	0.656463	-0.488106	0.396492
C249	C	-0.440756	0.310302	-0.361620
C250	C	-0.422038	0.310564	-0.380518
C251	C	-0.384160	0.310312	-0.305026
C252	C	-0.365528	0.310574	-0.324010
C253	C	-0.384159	0.310303	-0.361624
C254	C	-0.422038	0.310573	-0.324006
C255	C	-0.566989	0.300046	-0.396172
C256	C	-0.602741	0.297145	-0.413984
C257	C	-0.620675	0.295684	-0.451257
C258	C	-0.659436	0.292531	-0.470569
C259	C	-0.602857	0.297127	-0.470719
C260	C	-0.567111	0.300033	-0.452909
C261	C	-0.549177	0.301493	-0.415634
C262	C	-0.339351	0.300042	-0.453303
C263	C	-0.318640	0.297142	-0.471244
C264	C	-0.279912	0.295690	-0.451908
C265	C	-0.257449	0.292541	-0.471354
C266	C	-0.261899	0.297143	-0.414629
C267	C	-0.282613	0.300049	-0.396692
C268	C	-0.321341	0.301496	-0.416033
C269	C	-0.339354	0.300088	-0.168540
C270	C	-0.318640	0.297192	-0.129888
C271	C	-0.279912	0.295742	-0.110501
C272	C	-0.257450	0.292601	-0.068591
C273	C	-0.261898	0.297184	-0.129766
C274	C	-0.282612	0.300078	-0.168417
C275	C	-0.321344	0.301533	-0.187802
C276	C	-0.510413	0.304640	-0.396323
C277	C	-0.479516	0.307151	-0.380931
C278	C	-0.361701	0.307173	-0.263117
C279	C	-0.343799	0.304671	-0.229712
C280	C	-0.361700	0.307154	-0.381073
C281	C	-0.343798	0.304644	-0.396578
O282	O	-0.275503	0.336913	-0.548651
O283	O	-0.211494	0.227461	-0.503201
O284	O	-0.275490	0.291455	-0.503192
O285	O	-0.211507	0.272919	-0.548659
O286	O	-0.223502	0.291457	-0.451211
O287	O	-0.159506	0.227463	-0.451219
O288	O	-0.223515	0.336915	-0.496669
Zn289	Zn	-0.183256	0.282189	-0.465691
Zn290	Zn	-0.251753	0.282187	-0.534179
O291	O	-0.159519	0.272921	-0.496677
C292	C	-0.051032	0.254111	0.361530
C293	C	-0.013154	0.253851	0.380425
C294	C	-0.051031	0.254102	0.304932
C295	C	-0.013153	0.253842	0.323913
C296	C	0.005564	0.254113	0.361527
C297	C	-0.069663	0.253840	0.323916
C298	C	-0.152954	0.264360	0.396096
C299	C	-0.173791	0.267260	0.413911
C300	C	-0.155906	0.268721	0.451185
C301	C	-0.178502	0.271871	0.470501
C302	C	-0.117182	0.267279	0.470643
C303	C	-0.096345	0.264374	0.452830
C304	C	-0.114233	0.262915	0.415555
C305	C	0.131796	0.264379	0.453195
C306	C	0.167548	0.267281	0.471133
C307	C	0.185483	0.268734	0.451793
C308	C	0.224243	0.271886	0.471236
C309	C	0.167664	0.267282	0.414515
C310	C	0.131919	0.264374	0.396581
C311	C	0.113984	0.262925	0.415925
C312	C	-0.152952	0.264325	0.168451
C313	C	-0.173792	0.267221	0.129798
C314	C	-0.155907	0.268673	0.110407
C315	C	-0.178502	0.271814	0.068498
C316	C	-0.117186	0.267232	0.129669
C317	C	-0.096350	0.264339	0.168320
C318	C	-0.114234	0.262881	0.187709
C319	C	-0.091638	0.259769	0.396240
C320	C	-0.073627	0.257260	0.380845
C321	C	-0.073626	0.257242	0.263024
C322	C	-0.091636	0.259743	0.229619
C323	C	0.044324	0.257264	0.380973
C324	C	0.075221	0.259775	0.396474
H325	H	0.182070	-0.115902	0.013781
H326	H	-0.267945	0.301232	-0.366341
H327	H	0.732075	-0.351477	0.468678
H328	H	-0.167518	0.263140	0.184235
O329	O	0.114315	0.263033	0.471947
C330	C	0.049696	0.292636	0.472453
C331	C	0.069441	0.294211	0.451185
H332	H	0.013410	0.317836	0.455672
H333	H	0.068539	0.294194	0.502172
H334	H	0.052517	0.264691	0.475250
H335	H	0.066624	0.322151	0.448360
H336	H	0.050594	0.292631	0.421480
H337	H	0.562326	-0.306401	0.308670
O338	O	-0.440904	-0.023399	-0.305754
C339	C	-0.437375	-0.027609	-0.247777
C340	C	-0.416240	-0.048190	-0.268389
H341	H	-0.417437	-0.047641	-0.217561
H342	H	-0.472753	-0.019016	-0.264262
H343	H	-0.437564	-0.000919	-0.246242
H344	H	-0.416019	-0.074893	-0.269929
H345	H	-0.380872	-0.056754	-0.251897
H346	H	-0.064808	0.098152	0.019035
O347	O	-0.336159	0.295794	-0.507475
C348	C	-0.366482	0.325392	-0.572675
C349	C	-0.346658	0.326971	-0.531662
H350	H	-0.374968	0.350591	-0.592240
H351	H	-0.397737	0.326948	-0.583444
H352	H	-0.341387	0.297446	-0.572697
H353	H	-0.371720	0.354912	-0.531608
H354	H	-0.315395	0.325393	-0.520910
H355	H	-0.100165	-0.026535	-0.411435
O356	O	-0.440751	0.311133	-0.417410
C357	C	-0.474568	0.344845	-0.482462
C358	C	-0.453397	0.344252	-0.440702
H359	H	-0.484789	0.371615	-0.501304
H360	H	-0.504930	0.345006	-0.492796
H361	H	-0.449626	0.318332	-0.484195
H362	H	-0.478305	0.370760	-0.438936
H363	H	-0.423026	0.344071	-0.430386
O364	O	-0.549809	0.095054	-0.472051
C365	C	-0.533585	0.042638	-0.496767
C366	C	-0.553318	0.063990	-0.475502
H367	H	-0.536424	0.017524	-0.499571
H368	H	-0.497299	0.031549	-0.480016
H369	H	-0.552453	0.063054	-0.526483
H370	H	-0.534484	0.043598	-0.445786
H371	H	-0.589607	0.075085	-0.492282
H372	H	-0.167522	0.263171	0.365746
H373	H	-0.205320	0.268435	0.398066
O374	O	0.114112	-0.530168	0.359911
C375	C	0.059032	-0.470551	0.307348
C376	C	0.078761	-0.491904	0.348344
H377	H	0.030453	-0.439609	0.297987
H378	H	0.046465	-0.485122	0.287059
H379	H	0.085598	-0.471109	0.306661
H380	H	0.052219	-0.491352	0.349069
H381	H	0.091339	-0.477326	0.368615
H382	H	-0.102103	-0.319447	0.501532
H383	H	-0.101900	0.168027	-0.398169
H384	H	-0.617485	0.168277	-0.501573
O385	O	-0.336129	0.295840	-0.111148
C386	C	-0.366506	0.325492	-0.076322
C387	C	-0.346694	0.327062	-0.097526
H388	H	-0.375062	0.350736	-0.065309
H389	H	-0.341421	0.297579	-0.051166
H390	H	-0.397731	0.327011	-0.096819
H391	H	-0.315474	0.325558	-0.077058
H392	H	-0.371807	0.354973	-0.122686
O393	O	-0.099883	0.268723	0.506839
C394	C	-0.106888	0.273191	0.559430
C395	C	-0.126532	0.271564	0.518435
H396	H	-0.128420	0.275480	0.568821
H397	H	-0.105661	0.299209	0.560155
H398	H	-0.072016	0.246057	0.579677
H399	H	-0.161412	0.298680	0.498164
H400	H	-0.127726	0.245529	0.517741
O401	O	0.114416	-0.077761	-0.187415
C402	C	0.098139	-0.036809	-0.239856
C403	C	0.117853	-0.077805	-0.218519
H404	H	0.100903	-0.036829	-0.265012
H405	H	0.117016	-0.025948	-0.219471
H406	H	0.061869	-0.017293	-0.250895
H407	H	0.154120	-0.097350	-0.207478
H408	H	0.098943	-0.088634	-0.238918
H409	H	-0.167516	0.097925	0.019049
H410	H	-0.102606	-0.218843	0.013783
O411	O	-0.058746	0.262996	0.471777
C412	C	-0.004786	0.263301	0.529932
C413	C	-0.047373	0.264873	0.508515
H414	H	0.004428	0.264810	0.559642
H415	H	-0.010416	0.288525	0.513262
H416	H	0.023179	0.235375	0.532756
H417	H	-0.075358	0.292783	0.505687
H418	H	-0.041706	0.239629	0.525195
H419	H	-0.205343	-0.115928	-0.501596
O420	O	-0.440893	-0.023393	-0.417368
C421	C	-0.437423	-0.027634	-0.471844
C422	C	-0.416281	-0.048211	-0.430094
H423	H	-0.417538	-0.047693	-0.482148
H424	H	-0.437597	-0.000954	-0.473611
H425	H	-0.472809	-0.019027	-0.490691
H426	H	-0.380886	-0.056843	-0.411222
H427	H	-0.416141	-0.074874	-0.428357
H428	H	0.382532	-0.318952	0.113884
O429	O	-0.211112	-0.210637	0.110919
C430	C	-0.245137	-0.144603	0.107694
C431	C	-0.202540	-0.185612	0.128998
H432	H	-0.238219	-0.124358	0.122297
H433	H	-0.271866	-0.143864	0.108236
H434	H	-0.256855	-0.135225	0.076756
H435	H	-0.190782	-0.195016	0.159944
H436	H	-0.175838	-0.186329	0.128424
H437	H	-0.267931	-0.351506	-0.019101
H438	H	-0.335043	-0.409068	-0.028878
O439	O	-0.329180	0.311106	-0.305783
C440	C	-0.275449	0.311845	-0.247826
C441	C	-0.316615	0.311250	-0.268423
H442	H	-0.265272	0.311954	-0.217614
H443	H	-0.283370	0.338638	-0.264327
H444	H	-0.247209	0.285354	-0.246283
H445	H	-0.344873	0.337723	-0.269971
H446	H	-0.308658	0.284440	-0.251914
H447	H	-0.370598	-0.083850	-0.184076
O448	O	-0.549508	0.301455	-0.359961
C449	C	-0.494401	0.305961	-0.307387
C450	C	-0.514151	0.304361	-0.348393
H451	H	-0.465818	0.308319	-0.298024
H452	H	-0.481835	0.278818	-0.287110
H453	H	-0.520954	0.331962	-0.306681
H454	H	-0.487621	0.278377	-0.349136
H455	H	-0.526728	0.331522	-0.368652
H456	H	0.182052	0.268464	0.501484
O457	O	0.664705	-0.606949	0.395804
C458	C	0.671703	-0.666543	0.398354
C459	C	0.691355	-0.645193	0.419616
H460	H	0.693236	-0.697465	0.417600
H461	H	0.670468	-0.666045	0.371105
H462	H	0.636834	-0.651915	0.390625
H463	H	0.726231	-0.659805	0.427372
H464	H	0.692556	-0.645688	0.446848
O465	O	0.379983	-0.210367	0.111145
C466	C	0.383880	-0.156107	0.115342
C467	C	0.403476	-0.197121	0.136511
H468	H	0.402872	-0.145388	0.135840
H469	H	0.347615	-0.136511	0.104304
H470	H	0.386663	-0.156069	0.090200
H471	H	0.400725	-0.197195	0.161669
H472	H	0.439732	-0.216699	0.147522
H473	H	-0.552607	0.301210	-0.468757
O474	O	0.005378	-0.411821	0.417331
C475	C	0.064142	-0.469743	0.471829
C476	C	0.042933	-0.449153	0.430061
H477	H	0.094514	-0.499927	0.482137
H478	H	0.039255	-0.471347	0.473632
H479	H	0.074375	-0.453183	0.490649
H480	H	0.032700	-0.465696	0.411216
H481	H	0.067833	-0.447545	0.428288
O482	O	-0.265138	-0.189549	-0.359956
C483	C	-0.272167	-0.187017	-0.307378
C484	C	-0.291828	-0.165762	-0.348385
H485	H	-0.293742	-0.167798	-0.298013
H486	H	-0.237310	-0.194728	-0.287103
H487	H	-0.270907	-0.214278	-0.306671
H488	H	-0.293118	-0.138489	-0.349129
H489	H	-0.326673	-0.158081	-0.368641
H490	H	-0.167477	-0.248833	0.184031
O491	O	-0.099221	-0.322491	0.111143
C492	C	-0.036243	-0.353455	0.108155
C493	C	-0.056081	-0.332056	0.129336
H494	H	-0.001358	-0.361201	0.122861
H495	H	-0.057669	-0.334328	0.077202
H496	H	-0.035008	-0.380703	0.108736
H497	H	-0.057318	-0.304807	0.128785
H498	H	-0.034648	-0.351209	0.160279
H499	H	-0.437704	0.310998	-0.308766
O500	O	-0.224268	0.295715	-0.395893
C501	C	-0.167225	0.291267	-0.398444
C502	C	-0.209835	0.292873	-0.419704
H503	H	-0.155548	0.288977	-0.417689
H504	H	-0.140475	0.265256	-0.371193
H505	H	-0.174127	0.318408	-0.390718
H506	H	-0.202976	0.265751	-0.427457
H507	H	-0.236572	0.318902	-0.446939
H508	H	-0.267897	-0.186572	-0.184305
H509	H	-0.230097	-0.219111	-0.398135
H510	H	0.664969	-0.409045	0.411340
O511	O	-0.550078	0.095321	-0.360483
C512	C	-0.533943	0.043027	-0.319465
C513	C	-0.553525	0.064226	-0.360463
H514	H	-0.536714	0.017878	-0.319434
H515	H	-0.552905	0.063501	-0.308713
H516	H	-0.497679	0.031994	-0.299890
H517	H	-0.589786	0.075261	-0.380067
H518	H	-0.534530	0.043738	-0.371184
H519	H	0.770155	-0.603608	0.501511
O520	O	0.184822	-0.112803	-0.111245
C521	C	0.180919	-0.054644	-0.115445
C522	C	0.161327	-0.076066	-0.136613
H523	H	0.161926	-0.024935	-0.135944
H524	H	0.217184	-0.071310	-0.104405
H525	H	0.178134	-0.051820	-0.090304
H526	H	0.164080	-0.078895	-0.161770
H527	H	0.125071	-0.059391	-0.147625
H528	H	0.562304	-0.409050	0.308680
H529	H	-0.267943	-0.533739	-0.019121
H530	H	-0.064825	-0.186540	-0.366338
H531	H	-0.552621	-0.351498	-0.019128
H532	H	-0.552400	-0.248780	-0.019131
H533	H	0.002524	-0.026519	0.028802
H534	H	-0.370892	0.301275	-0.184323
O535	O	0.735086	-0.530388	0.471989
C536	C	0.723616	-0.477975	0.496708
C537	C	0.703966	-0.499324	0.475441
H538	H	0.698468	-0.452860	0.499513
H539	H	0.732063	-0.466887	0.479959
H540	H	0.754881	-0.498393	0.526424
H541	H	0.672689	-0.478930	0.445724
H542	H	0.695550	-0.510418	0.492218
O543	O	-0.335546	-0.113402	-0.110850
C544	C	-0.328487	-0.115910	-0.051231
C545	C	-0.308849	-0.137182	-0.072585
H546	H	-0.306906	-0.135124	-0.020287
H547	H	-0.363348	-0.108185	-0.065800
H548	H	-0.329730	-0.088657	-0.051792
H549	H	-0.307575	-0.164448	-0.072030
H550	H	-0.273999	-0.144878	-0.058009
H551	H	-0.230346	-0.318966	-0.013835
H552	H	-0.205048	-0.216515	0.398819
H553	H	-0.205322	0.268398	0.114116
H554	H	-0.370892	-0.533512	-0.019136
O555	O	-0.620337	-0.321946	-0.013617
C556	C	-0.675485	-0.319395	-0.009173
C557	C	-0.655744	-0.298135	-0.010780
H558	H	-0.704121	-0.300150	-0.006887
H559	H	-0.648972	-0.346643	0.016841
H560	H	-0.687995	-0.327125	-0.036313
H561	H	-0.643237	-0.290378	0.016341
H562	H	-0.682272	-0.270903	-0.036812
H563	H	-0.064523	-0.351759	0.184259
H564	H	-0.617241	0.295963	-0.398133
O565	O	0.185125	0.268712	0.395775
C566	C	0.240266	0.273164	0.398319
C567	C	0.220529	0.271555	0.419583
H568	H	0.268899	0.275455	0.417562
H569	H	0.213750	0.299175	0.371068
H570	H	0.252779	0.246023	0.390592
H571	H	0.208019	0.298677	0.427336
H572	H	0.247060	0.245526	0.446817
H573	H	-0.617258	-0.216240	-0.013873
H574	H	-0.064526	-0.351765	0.468991
O575	O	0.450392	-0.245724	0.187316
C576	C	0.466670	-0.221045	0.239758
C577	C	0.446954	-0.242326	0.218420
H578	H	0.463905	-0.218298	0.264914
H579	H	0.447794	-0.191309	0.219374
H580	H	0.502939	-0.237798	0.250797
H581	H	0.410687	-0.225605	0.207379
H582	H	0.465863	-0.272064	0.238818
O583	O	-0.099883	0.268697	0.110782
C584	C	-0.111351	0.304878	0.058367
C585	C	-0.131003	0.303264	0.079714
H586	H	-0.136499	0.332827	0.033249
H587	H	-0.102900	0.279678	0.047283
H588	H	-0.080088	0.303332	0.078786
H589	H	-0.162278	0.304822	0.059318
H590	H	-0.139423	0.328462	0.090804
H591	H	-0.332799	-0.116397	-0.501067
H592	H	0.117415	0.263190	0.366230
H593	H	-0.230365	-0.603862	-0.013858
O594	O	0.114440	-0.530532	0.471806
C595	C	0.118348	-0.534725	0.529968
C596	C	0.137936	-0.555896	0.508545
H597	H	0.137343	-0.555221	0.559679
H598	H	0.082083	-0.523683	0.513304
H599	H	0.121137	-0.509585	0.532789
H600	H	0.135180	-0.581052	0.505720
H601	H	0.174193	-0.566910	0.525219
O602	O	0.184583	-0.606366	0.394969
C603	C	0.180723	-0.602153	0.336831
C604	C	0.161139	-0.580982	0.358256
H605	H	0.161783	-0.581637	0.307147
H606	H	0.177914	-0.627280	0.333953
H607	H	0.216996	-0.613213	0.353545
H608	H	0.124860	-0.569898	0.341560
H609	H	0.163982	-0.555874	0.361137
O610	O	0.184914	-0.606729	0.506864
C611	C	0.240056	-0.666323	0.559457
C612	C	0.220319	-0.644973	0.518458
H613	H	0.268690	-0.697245	0.568847
H614	H	0.213540	-0.665823	0.560189
H615	H	0.252567	-0.651696	0.579700
H616	H	0.207811	-0.659585	0.498191
H617	H	0.246849	-0.645471	0.517757
O618	O	0.005454	-0.023537	-0.305857
C619	C	-0.004255	0.030046	-0.283317
C620	C	-0.025397	0.009439	-0.303901
H621	H	-0.029185	0.056708	-0.281722
H622	H	0.005987	0.038678	-0.299840
H623	H	0.026102	0.009990	-0.253125
H624	H	-0.055768	0.029475	-0.334093
H625	H	-0.035607	0.000801	-0.287350
O626	O	0.663951	-0.210382	0.395021
C627	C	0.675209	-0.169375	0.370095
C628	C	0.694997	-0.210375	0.391495
H629	H	0.700297	-0.169357	0.367230
H630	H	0.666701	-0.149782	0.386782
H631	H	0.643960	-0.158637	0.340403
H632	H	0.726258	-0.221148	0.421188
H633	H	0.703473	-0.229942	0.374778
H634	H	0.002509	-0.129196	-0.308775
H635	H	0.629125	-0.248761	0.365741
H636	H	-0.204850	0.168253	-0.501099
O637	O	-0.620559	0.171613	-0.395865
C638	C	-0.675703	0.231206	-0.398412
C639	C	-0.655965	0.209857	-0.419675
H640	H	-0.704338	0.262128	-0.417657
H641	H	-0.649188	0.230707	-0.371163
H642	H	-0.688213	0.216578	-0.390683
H643	H	-0.643457	0.224469	-0.427431
H644	H	-0.682494	0.210354	-0.446908
O645	O	-0.105990	0.253277	0.305715
C646	C	-0.137298	0.219524	0.274537
C647	C	-0.096131	0.220118	0.295135
H648	H	-0.129340	0.192713	0.265985
H649	H	-0.165558	0.246001	0.247828
H650	H	-0.147466	0.219408	0.294577
H651	H	-0.085924	0.220221	0.275126
H652	H	-0.067898	0.193643	0.321849
O653	O	-0.224321	0.295844	-0.110938
C654	C	-0.188810	0.325462	-0.075935
C655	C	-0.231396	0.327029	-0.097253
H656	H	-0.194513	0.350668	-0.064858
H657	H	-0.179491	0.327014	-0.096335
H658	H	-0.160887	0.297522	-0.050806
H659	H	-0.259347	0.354965	-0.122382
H660	H	-0.240677	0.325456	-0.076828
O661	O	-0.058777	0.263002	0.187029
C662	C	-0.023199	0.292623	0.221895
C663	C	-0.065782	0.294187	0.200709
H664	H	-0.028844	0.317828	0.232968
H665	H	-0.013988	0.294180	0.201408
H666	H	0.004774	0.264683	0.247017
H667	H	-0.093782	0.322123	0.175588
H668	H	-0.074954	0.292609	0.221221
O669	O	-0.170367	-0.245726	0.360409
C670	C	-0.228814	-0.187564	0.306155
C671	C	-0.208975	-0.208986	0.347165
H672	H	-0.260027	-0.157853	0.295438
H673	H	-0.237375	-0.204228	0.286553
H674	H	-0.203705	-0.184746	0.306124
H675	H	-0.234063	-0.211810	0.347233
H676	H	-0.200404	-0.192314	0.366750
H677	H	-0.167543	-0.083608	-0.469060
O678	O	0.775755	-0.321925	0.506840
C679	C	0.832807	-0.319376	0.559433
C680	C	0.790190	-0.298114	0.518434
H681	H	0.844485	-0.300131	0.568822
H682	H	0.859553	-0.346624	0.560163
H683	H	0.825914	-0.327108	0.579677
H684	H	0.797040	-0.290356	0.498166
H685	H	0.763457	-0.270883	0.517735
O686	O	-0.058227	0.094915	-0.359996
C687	C	-0.004145	0.098880	-0.305596
C688	C	-0.046756	0.120189	-0.346598
H689	H	0.005137	0.119306	-0.294748
H690	H	0.023799	0.073748	-0.305588
H691	H	-0.009845	0.087812	-0.286085
H692	H	-0.041100	0.131282	-0.366133
H693	H	-0.074686	0.145302	-0.346575
O694	O	-0.620317	0.295688	-0.506916
C695	C	-0.675459	0.291229	-0.559508
C696	C	-0.655722	0.292847	-0.518509
H697	H	-0.704093	0.288940	-0.568896
H698	H	-0.648943	0.265214	-0.560240
H699	H	-0.687971	0.318366	-0.579752
H700	H	-0.643212	0.265729	-0.498241
H701	H	-0.682252	0.318880	-0.517809
H702	H	-0.370885	0.301223	-0.469054
H703	H	0.629638	-0.533721	0.366252
H704	H	0.002525	-0.129181	0.028805
O705	O	-0.170169	0.095164	-0.471884
C706	C	-0.228627	0.099357	-0.530040
C707	C	-0.208781	0.120527	-0.508623
H708	H	-0.259843	0.119852	-0.559750
H709	H	-0.237184	0.088320	-0.513371
H710	H	-0.203523	0.074214	-0.532861
H711	H	-0.233863	0.145686	-0.505797
H712	H	-0.200214	0.131536	-0.525301
H713	H	-0.437704	-0.306410	-0.028878
O714	O	-0.105999	-0.023534	0.028909
C715	C	-0.159732	0.034426	0.029641
C716	C	-0.118566	0.013827	0.029047
H717	H	-0.169910	0.064639	0.029744
H718	H	-0.151810	0.017929	0.056437
H719	H	-0.187971	0.035965	0.003151
H720	H	-0.090308	0.012283	0.055518
H721	H	-0.126524	0.030332	0.002233
H722	H	0.447397	-0.351491	0.184007
H723	H	-0.205307	-0.115910	0.013801
H724	H	0.182279	-0.218843	-0.113977
O725	O	-0.170383	-0.077728	0.019271
C726	C	-0.228713	-0.023344	0.018999
C727	C	-0.209014	-0.064352	0.017408
H728	H	-0.259944	-0.012521	0.017502
H729	H	-0.237211	-0.003800	-0.006224
H730	H	-0.203545	-0.023364	0.046928
H731	H	-0.234161	-0.064369	-0.010504
H732	H	-0.200505	-0.083879	0.042650
O733	O	-0.329384	-0.134903	-0.305747
C734	C	-0.275690	-0.189376	-0.247799
C735	C	-0.316875	-0.147626	-0.268412
H736	H	-0.265570	-0.199678	-0.217614
H737	H	-0.247411	-0.191147	-0.246196
H738	H	-0.283621	-0.208222	-0.264343
H739	H	-0.308987	-0.128755	-0.251886
H740	H	-0.345142	-0.145886	-0.270021
O741	O	-0.211410	0.171020	0.013546
C742	C	-0.265348	0.166812	0.013879
C743	C	-0.222741	0.145636	0.015483
H744	H	-0.274517	0.146297	0.015453
H745	H	-0.293345	0.191934	-0.014060
H746	H	-0.259706	0.177879	0.039088
H747	H	-0.228340	0.134545	-0.009707
H748	H	-0.194759	0.120533	0.043438
H749	H	-0.102618	0.168275	0.013770
H750	H	-0.102633	-0.218858	-0.398880
H751	H	0.117412	-0.186525	-0.184100
O752	O	-0.265069	0.301495	-0.187078
C753	C	-0.206594	0.301165	-0.182875
C754	C	-0.226420	0.299565	-0.161697
H755	H	-0.175338	0.299597	-0.162361
H756	H	-0.231662	0.329100	-0.208001
H757	H	-0.198089	0.275952	-0.193936
H758	H	-0.234924	0.324758	-0.150611
H759	H	-0.201340	0.271613	-0.136589
H760	H	-0.437709	-0.409066	-0.028885
H761	H	0.002510	0.253416	0.308669
O762	O	-0.336093	-0.606712	-0.013660
C763	C	-0.329311	-0.666209	-0.009168
C764	C	-0.309509	-0.645001	-0.010754
H765	H	-0.307821	-0.697171	-0.006809
H766	H	-0.364176	-0.651567	-0.036318
H767	H	-0.330579	-0.665594	0.016828
H768	H	-0.308210	-0.645609	-0.036732
H769	H	-0.274655	-0.659649	0.016414
H770	H	-0.100368	-0.306171	0.308703
O771	O	0.005458	0.253382	0.417284
C772	C	0.001963	0.252658	0.471748
C773	C	-0.019159	0.253187	0.430009
H774	H	-0.017926	0.252492	0.482051
H775	H	0.002121	0.279173	0.473493
H776	H	0.037354	0.225888	0.490610
H777	H	-0.054558	0.279940	0.411121
H778	H	-0.019283	0.226655	0.428294
O779	O	-0.058753	-0.189598	0.019216
C780	C	-0.024805	-0.220529	-0.012810
C781	C	-0.067394	-0.199111	-0.014385
H782	H	-0.031779	-0.228220	-0.039977
H783	H	0.001870	-0.247804	0.013176
H784	H	-0.012983	-0.201394	-0.010470
H785	H	-0.079256	-0.218216	-0.016738
H786	H	-0.094042	-0.171833	-0.040366
H787	H	0.117214	-0.083584	0.019042
H788	H	0.117435	-0.186523	0.019040
O789	O	0.185072	-0.224668	0.013475
C790	C	0.201343	-0.265621	-0.022692
C791	C	0.181630	-0.224625	-0.021068
H792	H	0.198575	-0.265601	-0.050615
H793	H	0.182467	-0.276482	-0.021184
H794	H	0.237613	-0.285138	0.002537
H795	H	0.145363	-0.205080	-0.046293
H796	H	0.200539	-0.213796	-0.022558
O797	O	-0.223978	-0.224948	-0.111181
C798	C	-0.148402	-0.266729	-0.090720
C799	C	-0.191011	-0.225728	-0.111903
H800	H	-0.121734	-0.267371	-0.091289
H801	H	-0.155316	-0.286945	-0.105390
H802	H	-0.136603	-0.276221	-0.059771
H803	H	-0.202832	-0.216200	-0.142852
H804	H	-0.184072	-0.205537	-0.097202
O805	O	-0.376677	-0.077987	-0.471854
C806	C	-0.430641	-0.023730	-0.530013
C807	C	-0.388051	-0.064743	-0.508593
H808	H	-0.439855	-0.013013	-0.559723
H809	H	-0.425013	-0.004133	-0.513345
H810	H	-0.458604	-0.023694	-0.532834
H811	H	-0.360068	-0.064816	-0.505767
H812	H	-0.393716	-0.084323	-0.525270
H813	H	-0.333296	-0.216247	-0.013853
H814	H	0.002293	-0.408830	0.308704
O815	O	-0.376952	-0.245700	-0.019327
C816	C	-0.431055	-0.187646	-0.019042
C817	C	-0.388461	-0.208934	-0.017458
H818	H	-0.440379	-0.157914	-0.017540
H819	H	-0.425373	-0.204375	0.006182
H820	H	-0.458967	-0.184882	-0.046970
H821	H	-0.360529	-0.211703	0.010453
H822	H	-0.394180	-0.192196	-0.042701
