data_functionalizedCrystal
_audit_creation_method	'MofGen! by Chris Wilmer'
_symmetry_space_group_name_H-M	'P1'
_symmetry_Int_Tables_number	1
_symmetry_cell_setting	triclinic
loop_
_symmetry_equiv_pos_as_xyz
  x,y,z
_cell_length_a	12.827892
_cell_length_b	12.827893
_cell_length_c	12.827885
_cell_angle_alpha	89.980538
_cell_angle_beta	89.970214
_cell_angle_gamma	90.015362
loop_
_atom_site_label
_atom_site_type_symbol
_atom_site_fract_x
_atom_site_fract_y
_atom_site_fract_z
Zn1	Zn	-0.415983	1.597672	-0.590849
Zn2	Zn	0.084017	2.097672	-0.090849
Zn3	Zn	-0.590761	1.597565	-0.416109
Zn4	Zn	-0.090761	2.097565	0.083891
Zn5	Zn	-0.416034	1.422912	-0.416122
Zn6	Zn	0.083966	1.922912	0.083878
Zn7	Zn	-0.590683	1.422898	-0.590809
Zn8	Zn	-0.090683	1.922898	-0.090809
O9	O	-0.503365	1.510262	-0.503472
O10	O	-0.003365	2.010262	-0.003472
O11	O	-0.439179	1.743893	-0.567680
O12	O	0.060821	2.243893	-0.067680
O13	O	-0.567637	1.574358	-0.269875
O14	O	-0.067637	2.074358	0.230125
O15	O	-0.269791	1.446145	-0.439322
O16	O	0.230209	1.946145	0.060678
O17	O	-0.567587	1.743815	-0.439300
O18	O	-0.067587	2.243815	0.060700
O19	O	-0.269754	1.574540	-0.567693
O20	O	0.230246	2.074540	-0.067693
O21	O	-0.439266	1.446042	-0.269884
O22	O	0.060734	1.946042	0.230116
O23	O	-0.439190	1.276674	-0.439284
O24	O	0.060810	1.776674	0.060716
O25	O	-0.567455	1.446121	-0.737050
O26	O	-0.067455	1.946121	-0.237050
O27	O	-0.567504	1.276664	-0.567625
O28	O	-0.067504	1.776664	-0.067625
O29	O	-0.439104	1.574526	-0.737080
O30	O	0.060896	2.074526	-0.237080
O31	O	-0.736986	1.574345	-0.439261
O32	O	-0.236986	2.074345	0.060739
O33	O	-0.736929	1.446018	-0.567612
O34	O	-0.236929	1.946018	-0.067612
C35	C	-0.503345	1.238752	-0.503452
C36	C	-0.003345	1.738752	-0.003452
C37	C	-0.503362	1.122599	-0.503469
C38	C	-0.003362	1.622599	-0.003469
C39	C	-0.774875	1.510196	-0.503454
C40	C	-0.274875	2.010196	-0.003454
C41	C	-0.891028	1.510264	-0.503481
C42	C	-0.391028	2.010264	-0.003481
C43	C	-0.566954	1.070837	-0.566878
C44	C	-0.066954	1.570837	-0.066878
C45	C	-0.566973	0.950786	-0.566896
C46	C	-0.066973	1.450786	-0.066896
C47	C	-0.942807	1.573840	-0.440039
C48	C	-0.442807	2.073840	0.059961
C49	C	-1.062857	1.573911	-0.440066
C50	C	-0.562857	2.073911	0.059934
C51	C	-0.230795	1.510356	-0.503514
C52	C	0.269205	2.010356	-0.003514
C53	C	-0.114642	1.510396	-0.503531
C54	C	0.385358	2.010396	-0.003531
C55	C	-0.503265	1.510334	-0.776043
C56	C	-0.003265	2.010334	-0.276043
C57	C	-0.503222	1.510365	-0.892196
C58	C	-0.003222	2.010365	-0.392196
C59	C	-0.503386	1.782832	-0.503493
C60	C	-0.003386	2.282832	-0.003493
C61	C	-0.503395	1.898985	-0.503502
C62	C	-0.003395	2.398985	-0.003502
C63	C	-0.439688	1.446890	-0.943985
C64	C	0.060312	1.946890	-0.443985
C65	C	-0.439642	1.446920	-1.064036
C66	C	0.060358	1.946920	-0.564036
C67	C	-0.503390	1.510250	-0.231962
C68	C	-0.003390	2.010250	0.268038
C69	C	-0.503138	1.510422	-0.115810
C70	C	-0.003138	2.010422	0.384190
H71	H	-0.621381	1.115398	-0.621155
H72	H	-0.121381	1.615398	-0.121155
H73	H	-0.621420	0.906272	-0.621181
H74	H	-0.121420	1.406272	-0.121181
H75	H	-1.107385	1.628338	-0.385748
H76	H	-0.607385	2.128338	0.114252
H77	H	-0.448952	0.943493	-0.449208
H78	H	0.051048	1.443493	0.050792
H79	H	-0.448927	1.078038	-0.449199
H80	H	0.051073	1.578038	0.050801
H81	H	-1.070121	1.455959	-0.557845
H82	H	-0.570121	1.955959	-0.057845
H83	H	-0.898262	1.628221	-0.385708
H84	H	-0.398262	2.128221	0.114292
C85	C	-0.951205	1.436799	-0.576886
C86	C	-0.451205	1.936799	-0.076886
N87	N	-0.996528	1.381462	-0.632175
N88	N	-0.496528	1.881462	-0.132175
H89	H	-0.385332	1.392520	-0.899448
H90	H	0.114668	1.892520	-0.399448
H91	H	-0.557531	1.564772	-1.071279
H92	H	-0.057531	2.064772	-0.571279
C93	C	-0.366154	1.373503	-1.124201
C94	C	0.133846	1.873503	-0.624201
N95	N	-0.310802	1.318201	-1.169521
N96	N	0.189198	1.818201	-0.669521
H97	H	-0.557583	1.564729	-0.936734
H98	H	-0.057583	2.064729	-0.436734
