data_functionalizedCrystal
_audit_creation_method	'MofGen! by Chris Wilmer'
_symmetry_space_group_name_H-M	'P1'
_symmetry_Int_Tables_number	1
_symmetry_cell_setting	triclinic
loop_
_symmetry_equiv_pos_as_xyz
  x,y,z
_cell_length_a	27.732064
_cell_length_b	27.732048
_cell_length_c	26.210046
_cell_angle_alpha	90.035371
_cell_angle_beta	89.996567
_cell_angle_gamma	82.646040
loop_
_atom_site_label
_atom_site_type_symbol
_atom_site_fract_x
_atom_site_fract_y
_atom_site_fract_z
O1	O	0.640919	0.057573	0.042343
O2	O	1.140919	0.557573	0.542343
O3	O	0.500127	0.066311	0.042365
O4	O	1.000127	0.566311	0.542365
O5	O	0.574896	-0.008455	0.042344
O6	O	1.074896	0.491545	0.542344
O7	O	0.566150	0.132338	0.042365
O8	O	1.066150	0.632338	0.542365
O9	O	0.574895	-0.008493	-0.042514
O10	O	1.074895	0.491507	0.457486
O11	O	0.500126	0.066272	-0.042493
O12	O	1.000126	0.566272	0.457507
O13	O	0.640918	0.057535	-0.042515
O14	O	1.140918	0.557535	0.457485
Cu15	Cu	0.570522	0.061900	-0.050252
Cu16	Cu	1.070522	0.561900	0.449748
Cu17	Cu	0.570523	0.061946	0.050103
Cu18	Cu	1.070523	0.561946	0.550103
O19	O	0.566149	0.132300	-0.042493
O20	O	1.066149	0.632300	0.457507
C21	C	0.482120	0.066106	-0.000061
C22	C	0.982120	0.566106	0.499939
C23	C	0.428465	0.065550	-0.000053
C24	C	0.928465	0.565550	0.499947
C25	C	0.051392	0.017583	-0.000089
C26	C	0.551392	0.517583	0.499911
C27	C	0.253053	0.019630	-0.000076
C28	C	0.753053	0.519630	0.499924
O29	O	0.284305	-0.017592	-0.000100
O30	O	0.784305	0.482408	0.499900
N31	N	0.272180	0.063964	-0.000067
N32	N	0.772180	0.563964	0.499933
C33	C	0.240889	0.107790	-0.000065
C34	C	0.740889	0.607790	0.499935
O35	O	0.261785	0.145546	-0.000062
O36	O	0.761785	0.645546	0.499938
C37	C	0.039230	0.105743	-0.000082
C38	C	0.539230	0.605743	0.499918
C39	C	0.020105	0.061406	-0.000086
C40	C	0.520105	0.561406	0.499914
C41	C	0.032267	-0.026750	-0.000094
C42	C	0.532267	0.473250	0.499906
C43	C	-0.018145	-0.027261	-0.000094
C44	C	0.481855	0.472739	0.499906
C45	C	-0.049432	0.016561	-0.000091
C46	C	0.450568	0.516561	0.499909
C47	C	-0.030307	0.060895	-0.000086
C48	C	0.469693	0.560895	0.499914
C49	C	0.007940	0.149568	-0.000084
C50	C	0.507940	0.649568	0.499916
C51	C	-0.042478	0.149053	-0.000089
C52	C	0.457522	0.649053	0.499911
C53	C	-0.061602	0.104715	-0.000093
C54	C	0.438398	0.604715	0.499907
C55	C	-0.112006	0.104206	-0.000084
C56	C	0.387994	0.604206	0.499916
N57	N	-0.131133	0.059872	-0.000092
N58	N	0.368867	0.559872	0.499908
C59	C	-0.099846	0.016049	-0.000096
C60	C	0.400154	0.516049	0.499904
C61	C	0.346763	0.108861	-0.000055
C62	C	0.846763	0.608861	0.499945
C63	C	0.397178	0.109373	-0.000050
C64	C	0.897178	0.609373	0.499950
C65	C	0.409338	0.021213	-0.000062
C66	C	0.909338	0.521213	0.499938
C67	C	0.358923	0.020701	-0.000063
C68	C	0.858923	0.520701	0.499937
C69	C	0.327636	0.064527	-0.000064
C70	C	0.827636	0.564527	0.499936
C71	C	-0.205716	0.014979	-0.000097
C72	C	0.294284	0.514979	0.499903
C73	C	-0.256133	0.014472	-0.000095
C74	C	0.243867	0.514472	0.499905
C75	C	-0.268289	0.102632	-0.000086
C76	C	0.231711	0.602632	0.499914
C77	C	-0.217876	0.103140	-0.000085
C78	C	0.282124	0.603140	0.499915
C79	C	-0.186590	0.059309	-0.000092
C80	C	0.313410	0.559309	0.499908
O81	O	-0.143287	0.141407	-0.000065
O82	O	0.356713	0.641407	0.499935
O83	O	-0.120752	-0.021701	-0.000110
O84	O	0.379248	0.478299	0.499890
C85	C	0.101805	0.018094	-0.000089
C86	C	0.601805	0.518094	0.499911
C87	C	0.120930	0.062428	-0.000085
C88	C	0.620930	0.562428	0.499915
C89	C	0.089642	0.106250	-0.000081
C90	C	0.589642	0.606250	0.499919
C91	C	0.171344	0.062940	-0.000079
C92	C	0.671344	0.562940	0.499921
C93	C	0.202631	0.019117	-0.000083
C94	C	0.702631	0.519117	0.499917
C95	C	0.183504	-0.025217	-0.000092
C96	C	0.683504	0.474783	0.499908
C97	C	0.133092	-0.025728	-0.000092
C98	C	0.633092	0.474272	0.499908
C99	C	0.108770	0.150585	-0.000072
C100	C	0.608770	0.650585	0.499928
C101	C	0.159183	0.151092	-0.000071
C102	C	0.659183	0.651092	0.499929
C103	C	0.190470	0.107270	-0.000075
C104	C	0.690470	0.607270	0.499925
C105	C	0.574712	-0.026481	-0.000087
C106	C	1.074712	0.473519	0.499913
C107	C	0.574159	-0.080136	-0.000091
C108	C	1.074159	0.419864	0.499909
C109	C	0.614862	-0.418948	-0.000071
C110	C	1.114862	0.081052	0.499929
C111	C	0.612811	-0.620608	-0.000063
C112	C	1.112811	-0.120608	0.499937
O113	O	0.650032	-0.651862	-0.000047
O114	O	1.150032	-0.151862	0.499953
N115	N	0.568476	-0.639735	-0.000057
N116	N	1.068476	-0.139735	0.499943
C117	C	0.524651	-0.608442	-0.000049
C118	C	1.024651	-0.108442	0.499951
O119	O	0.486895	-0.629338	-0.000038
O120	O	0.986895	-0.129338	0.499962
C121	C	0.526703	-0.406784	-0.000053
C122	C	1.026703	0.093216	0.499947
C123	C	0.571040	-0.387660	-0.000064
C124	C	1.071040	0.112340	0.499936
C125	C	0.659196	-0.399825	-0.000082
C126	C	1.159196	0.100175	0.499918
C127	C	0.659709	-0.349413	-0.000086
C128	C	1.159709	0.150587	0.499914
C129	C	0.615887	-0.318124	-0.000080
C130	C	1.115887	0.181876	0.499920
C131	C	0.571553	-0.337248	-0.000069
C132	C	1.071553	0.162752	0.499931
C133	C	0.482878	-0.375493	-0.000041
C134	C	0.982878	0.124507	0.499959
C135	C	0.483395	-0.325075	-0.000041
C136	C	0.983395	0.174925	0.499959
C137	C	0.527733	-0.305952	-0.000053
C138	C	1.027733	0.194048	0.499947
C139	C	0.528243	-0.255548	-0.000067
C140	C	1.028243	0.244452	0.499933
N141	N	0.572578	-0.236422	-0.000074
N142	N	1.072578	0.263578	0.499926
C143	C	0.616400	-0.267710	-0.000080
C144	C	1.116400	0.232290	0.499920
C145	C	0.523577	-0.714317	-0.000048
C146	C	1.023577	-0.214317	0.499952
C147	C	0.523064	-0.764731	-0.000048
C148	C	1.023064	-0.264731	0.499952
C149	C	0.611225	-0.776893	-0.000061
C150	C	1.111225	-0.276893	0.499939
C151	C	0.611737	-0.726478	-0.000065
C152	C	1.111737	-0.226478	0.499935
C153	C	0.567912	-0.695190	-0.000054
C154	C	1.067912	-0.195190	0.499946
C155	C	0.617472	-0.161841	-0.000090
C156	C	1.117472	0.338159	0.499910
C157	C	0.617981	-0.111424	-0.000097
C158	C	1.117981	0.388576	0.499903
C159	C	0.529821	-0.099266	-0.000081
C160	C	1.029821	0.400734	0.499919
C161	C	0.529312	-0.149679	-0.000077
C162	C	1.029312	0.350321	0.499923
C163	C	0.573142	-0.180965	-0.000080
C164	C	1.073142	0.319035	0.499920
O165	O	0.491043	-0.224267	-0.000078
O166	O	0.991043	0.275733	0.499922
O167	O	0.654151	-0.246805	-0.000080
O168	O	1.154151	0.253195	0.499920
C169	C	0.614350	-0.469360	-0.000066
C170	C	1.114350	0.030640	0.499934
C171	C	0.570016	-0.488484	-0.000055
C172	C	1.070016	0.011516	0.499945
C173	C	0.526194	-0.457196	-0.000049
C174	C	1.026194	0.042804	0.499951
C175	C	0.569503	-0.538899	-0.000055
C176	C	1.069503	-0.038899	0.499945
C177	C	0.613325	-0.570187	-0.000061
C178	C	1.113325	-0.070187	0.499939
C179	C	0.657660	-0.551060	-0.000068
C180	C	1.157660	-0.051060	0.499932
C181	C	0.658172	-0.500648	-0.000072
C182	C	1.158172	-0.000648	0.499928
C183	C	0.481859	-0.476323	-0.000042
C184	C	0.981859	0.023677	0.499958
C185	C	0.481351	-0.526735	-0.000038
C186	C	0.981351	-0.026735	0.499962
C187	C	0.525172	-0.558023	-0.000045
C188	C	1.025172	-0.058023	0.499955
C189	C	0.658925	0.057739	-0.000087
C190	C	1.158925	0.557739	0.499913
C191	C	0.712580	0.058295	-0.000092
C192	C	1.212580	0.558295	0.499908
C193	C	0.566333	0.150326	-0.000062
C194	C	1.066333	0.650326	0.499938
C195	C	0.566886	0.203981	-0.000054
C196	C	1.066886	0.703981	0.499946
N197	N	0.570524	0.061867	-0.120836
N198	N	1.070524	0.561867	0.379164
N199	N	0.570525	0.061974	0.120686
N200	N	1.070525	0.561974	0.620686
C201	C	0.599567	0.091095	0.526659
C202	C	1.099567	0.591095	1.026659
C203	C	0.599563	0.091125	0.313001
C204	C	1.099563	0.591125	0.813001
O205	O	0.624268	0.115931	0.285387
O206	O	1.124268	0.615931	0.785387
N207	N	0.570530	0.061949	0.286270
N208	N	1.070530	0.561949	0.786270
C209	C	0.541498	0.032760	0.312957
C210	C	1.041498	0.532760	0.812957
O211	O	0.516807	0.007941	0.285319
O212	O	1.016807	0.507941	0.785319
C213	C	0.541504	0.032727	0.526615
C214	C	1.041504	0.532727	1.026615
C215	C	0.570536	0.061909	0.553343
C216	C	1.070536	0.561909	1.053343
C217	C	0.628596	0.120274	0.553387
C218	C	1.128596	0.620274	1.053387
C219	C	0.628595	0.120268	0.606799
C220	C	1.128595	0.620268	1.106799
C221	C	0.599564	0.091083	0.633482
C222	C	1.099564	0.591083	1.133482
C223	C	0.570534	0.061903	0.606754
C224	C	1.070534	0.561903	1.106754
C225	C	0.512475	0.003536	0.553301
C226	C	1.012475	0.503536	1.053301
C227	C	0.512480	0.003530	0.606719
C228	C	1.012480	0.503530	1.106719
C229	C	0.541512	0.032712	0.633447
C230	C	1.041512	0.532712	1.133447
C231	C	0.541502	0.032712	0.686849
C232	C	1.041502	0.532712	1.186849
N233	N	0.570535	0.061888	0.713580
N234	N	1.070535	0.561888	1.213580
C235	C	0.599566	0.091074	0.686896
C236	C	1.099566	0.591074	1.186896
C237	C	0.541496	0.032780	0.200784
C238	C	1.041496	0.532780	0.700784
C239	C	0.541494	0.032789	0.147370
C240	C	1.041494	0.532789	0.647370
C241	C	0.599560	0.091154	0.147417
C242	C	1.099560	0.591154	0.647417
C243	C	0.599559	0.091147	0.200832
C244	C	1.099559	0.591147	0.700832
C245	C	0.570529	0.061957	0.227515
C246	C	1.070529	0.561957	0.727515
C247	C	0.599561	0.091059	0.799064
C248	C	1.099561	0.591059	1.299064
C249	C	0.599555	0.091052	0.852481
C250	C	1.099555	0.591052	1.352481
C251	C	0.541491	0.032686	0.852429
C252	C	1.041491	0.532686	1.352429
C253	C	0.541495	0.032695	0.799017
C254	C	1.041495	0.532695	1.299017
C255	C	0.570533	0.061883	0.772336
C256	C	1.070533	0.561883	1.272336
O257	O	0.516815	0.007916	0.714496
O258	O	1.016815	0.507916	1.214496
O259	O	0.624262	0.115881	0.714544
O260	O	1.124262	0.615881	1.214544
C261	C	0.599568	0.091100	0.473248
C262	C	1.099568	0.591100	0.973248
C263	C	0.570539	0.061921	0.446520
C264	C	1.070539	0.561921	0.946520
C265	C	0.541508	0.032736	0.473204
C266	C	1.041508	0.532736	0.973204
C267	C	0.570536	0.061930	0.393106
C268	C	1.070536	0.561930	0.893106
C269	C	0.599567	0.091115	0.366422
C270	C	1.099567	0.591115	0.866422
C271	C	0.628601	0.120292	0.393153
C272	C	1.128601	0.620292	0.893153
C273	C	0.628599	0.120286	0.446564
C274	C	1.128599	0.620286	0.946564
C275	C	0.512475	0.003559	0.446473
C276	C	1.012475	0.503559	0.946473
C277	C	0.512478	0.003568	0.393061
C278	C	1.012478	0.503568	0.893061
C279	C	0.541509	0.032753	0.366378
C280	C	1.041509	0.532753	0.866378
H281	H	-0.293772	0.138311	-0.000081
H282	H	0.206228	0.638311	0.499919
C283	C	0.656954	0.148837	0.195501
C284	C	1.156954	0.648837	0.695501
C285	C	0.631475	0.123221	0.230209
C286	C	1.131475	0.623221	0.730209
H287	H	0.676661	0.168636	0.213636
H288	H	1.176661	0.668636	0.713636
H289	H	0.634524	0.168761	0.174689
H290	H	1.134524	0.668761	0.674689
H291	H	0.676962	0.126486	0.174645
H292	H	1.176962	0.626486	0.674645
H293	H	0.611464	0.145572	0.251063
H294	H	1.111464	0.645572	0.751063
H295	H	0.653907	0.103295	0.251029
H296	H	1.153907	0.603295	0.751029
H297	H	0.321293	0.144551	-0.000055
H298	H	0.821293	0.644551	0.499945
H299	H	0.446774	-0.391054	-0.000029
H300	H	0.946774	0.108946	0.499971
C301	C	0.231059	0.191034	-0.000054
C302	C	0.731059	0.691034	0.499946
C303	C	0.180201	0.199832	-0.000057
C304	C	0.680201	0.699832	0.499943
H305	H	0.244032	0.221124	-0.000044
H306	H	0.744032	0.721124	0.499956
H307	H	0.241823	0.172999	-0.029648
H308	H	0.741823	0.672999	0.470352
H309	H	0.241812	0.173019	0.029536
H310	H	0.741812	0.673019	0.529536
H311	H	0.169448	0.217844	-0.029650
H312	H	0.669448	0.717844	0.470350
H313	H	0.169432	0.217875	0.029539
H314	H	0.669432	0.717875	0.529539
H315	H	0.646906	-0.802377	-0.000067
H316	H	1.146906	-0.302377	0.499933
H317	H	0.447706	-0.299603	-0.000032
H318	H	0.947706	0.200397	0.499968
C319	C	0.744858	-0.558033	-0.000083
C320	C	1.244858	-0.058033	0.499917
C321	C	0.705830	-0.585459	-0.000074
C322	C	1.205830	-0.085459	0.499926
H323	H	0.774594	-0.579271	-0.000087
H324	H	1.274594	-0.079271	0.499913
H325	H	0.743227	-0.538098	0.029506
H326	H	1.243227	-0.038098	0.529506
H327	H	0.743226	-0.538134	-0.029678
H328	H	1.243226	-0.038134	0.470322
H329	H	0.707461	-0.605354	0.029524
H330	H	1.207461	-0.105354	0.529524
H331	H	0.707462	-0.605402	-0.029666
H332	H	1.207462	-0.105402	0.470334
C333	C	0.656952	0.148755	0.804491
C334	C	1.156952	0.648755	1.304491
C335	C	0.631477	0.123146	0.769742
C336	C	1.131477	0.623146	1.269742
H337	H	0.676651	0.168567	0.786387
H338	H	1.176651	0.668567	1.286387
H339	H	0.676962	0.126403	0.825303
H340	H	1.176962	0.626403	1.325303
H341	H	0.634516	0.168669	0.825342
H342	H	1.134516	0.668669	1.325342
H343	H	0.653912	0.103229	0.748893
H344	H	1.153912	0.603229	1.248893
H345	H	0.611464	0.145501	0.748921
H346	H	1.111464	0.645501	1.248921
C347	C	0.709374	0.138883	0.376713
C348	C	1.209374	0.638883	0.876713
C349	C	0.660514	0.152372	0.363817
C350	C	1.160514	0.652372	0.863817
H351	H	0.729076	0.158688	0.358602
H352	H	1.229076	0.658688	0.858602
H353	H	0.718659	0.105761	0.367934
H354	H	1.218659	0.605761	0.867934
H355	H	0.713526	0.143060	0.412350
H356	H	1.213526	0.643060	0.912350
H357	H	0.656362	0.148191	0.328180
H358	H	1.156362	0.648191	0.828180
H359	H	0.651226	0.185502	0.372593
H360	H	1.151226	0.685502	0.872593
H361	H	0.694884	-0.425295	-0.000085
H362	H	1.194884	0.074705	0.499915
H363	H	-0.202304	0.139243	-0.000081
H364	H	0.297696	0.639243	0.499919
C365	C	0.435975	-0.747633	-0.000031
C366	C	0.935975	-0.247633	0.499969
C367	C	0.474327	-0.785748	-0.000039
C368	C	0.974327	-0.285748	0.499961
H369	H	0.405886	-0.760608	-0.000020
H370	H	0.905886	-0.260608	0.499980
H371	H	0.438009	-0.728242	-0.029622
H372	H	0.938009	-0.228242	0.470378
H373	H	0.438017	-0.728204	0.029562
H374	H	0.938017	-0.228204	0.529562
H375	H	0.472287	-0.805174	-0.029634
H376	H	0.972287	-0.305174	0.470366
H377	H	0.472292	-0.805147	0.029555
H378	H	0.972292	-0.305147	0.529555
C379	C	0.484096	-0.024905	0.195361
C380	C	0.984096	0.475095	0.695361
C381	C	0.509579	0.000696	0.230109
C382	C	1.009579	0.500696	0.730109
H383	H	0.464388	-0.044709	0.213464
H384	H	0.964388	0.455291	0.713464
H385	H	0.506523	-0.044822	0.174512
H386	H	1.006523	0.455178	0.674512
H387	H	0.464088	-0.002545	0.174546
H388	H	0.964088	0.497455	0.674546
H389	H	0.529589	-0.021665	0.250922
H390	H	1.029589	0.478335	0.750922
H391	H	0.487149	0.020615	0.250967
H392	H	0.987149	0.520615	0.750967
C393	C	0.698826	-0.743575	-0.000075
C394	C	1.198826	-0.243575	0.499925
C395	C	0.660474	-0.705460	-0.000070
C396	C	1.160474	-0.205460	0.499930
H397	H	0.728915	-0.730600	-0.000073
H398	H	1.228915	-0.230600	0.499927
H399	H	0.696791	-0.762999	-0.029666
H400	H	1.196791	-0.262999	0.470334
H401	H	0.696785	-0.762970	0.029518
H402	H	1.196785	-0.262970	0.529518
H403	H	0.662513	-0.686067	-0.029664
H404	H	1.162513	-0.186067	0.470336
H405	H	0.662509	-0.686028	0.029525
H406	H	1.162509	-0.186028	0.529525
C407	C	0.668058	-0.225556	0.043528
C408	C	1.168058	0.274444	0.543528
C409	C	0.665650	-0.196226	-0.000096
C410	C	1.165650	0.303774	0.499904
H411	H	0.697802	-0.246781	0.043523
H412	H	1.197802	0.253219	0.543523
H413	H	0.641588	-0.244165	0.043532
H414	H	1.141588	0.255835	0.543532
H415	H	0.666423	-0.205612	0.073116
H416	H	1.166423	0.294388	0.573116
H417	H	0.667281	-0.216170	-0.029683
H418	H	1.167281	0.283830	0.470317
H419	H	0.692128	-0.177615	-0.000104
H420	H	1.192128	0.322385	0.499896
H421	H	0.487888	-0.688846	-0.000040
H422	H	0.987888	-0.188846	0.499960
H423	H	0.117526	-0.061832	-0.000096
H424	H	0.617526	0.438168	0.499904
C425	C	0.266188	-0.063569	-0.000098
C426	C	0.766188	0.436431	0.499902
C427	C	0.217902	-0.073388	-0.000098
C428	C	0.717902	0.426612	0.499902
H429	H	0.287425	-0.093306	-0.000107
H430	H	0.787425	0.406694	0.499893
H431	H	0.271943	-0.045364	0.029496
H432	H	0.771943	0.454636	0.529496
H433	H	0.271947	-0.045385	-0.029688
H434	H	0.771947	0.454615	0.470312
H435	H	0.212142	-0.091569	0.029494
H436	H	0.712142	0.408431	0.529494
H437	H	0.212145	-0.091601	-0.029695
H438	H	0.712145	0.408399	0.470305
H439	H	-0.067950	0.184742	-0.000092
H440	H	0.432050	0.684742	0.499908
H441	H	0.493209	-0.165249	-0.000082
H442	H	0.993209	0.334751	0.499918
H443	H	0.494142	-0.073782	-0.000078
H444	H	0.994142	0.426218	0.499922
H445	H	0.694276	-0.485083	-0.000082
H446	H	1.194276	0.014917	0.499918
H447	H	0.023502	0.185672	-0.000079
H448	H	0.523502	0.685672	0.499921
C449	C	0.101825	0.237775	-0.000054
C450	C	0.601825	0.737775	0.499946
C451	C	0.074383	0.198759	-0.000064
C452	C	0.574383	0.698759	0.499936
H453	H	0.080596	0.267517	-0.000043
H454	H	0.580596	0.767517	0.499957
H455	H	0.121742	0.236126	-0.029645
H456	H	0.621742	0.736126	0.470355
H457	H	0.121741	0.236146	0.029539
H458	H	0.621741	0.736146	0.529539
H459	H	0.054470	0.200386	-0.029659
H460	H	0.554470	0.700386	0.470341
H461	H	0.054457	0.200408	0.029531
H462	H	0.554457	0.700408	0.529531
H463	H	0.654087	-0.095857	-0.000108
H464	H	1.154087	0.404143	0.499892
C465	C	0.455067	-0.054139	0.558637
C466	C	0.955067	0.445861	1.058637
C467	C	0.480568	-0.028546	0.523929
C468	C	0.980568	0.471454	1.023929
H469	H	0.435371	-0.073949	0.540503
H470	H	0.935371	0.426051	1.040503
H471	H	0.435050	-0.031778	0.579467
H472	H	0.935050	0.468222	1.079467
H473	H	0.477486	-0.074054	0.579476
H474	H	0.977486	0.425946	1.079476
H475	H	0.458148	-0.008628	0.503093
H476	H	0.958148	0.491372	1.003093
H477	H	0.500586	-0.050910	0.503091
H478	H	1.000586	0.449090	1.003091
C479	C	0.394258	-0.509636	-0.000016
C480	C	0.894258	-0.009636	0.499984
C481	C	0.432610	-0.547751	-0.000024
C482	C	0.932610	-0.047751	0.499976
H483	H	0.364169	-0.522611	-0.000000
H484	H	0.864169	-0.022611	0.500000
H485	H	0.396289	-0.490249	-0.029610
H486	H	0.896289	0.009751	0.470390
H487	H	0.396302	-0.490205	0.029574
H488	H	0.896302	0.009795	0.529574
H489	H	0.430568	-0.567181	-0.029616
H490	H	0.930568	-0.067181	0.470384
H491	H	0.430577	-0.567147	0.029573
H492	H	0.930577	-0.067147	0.529573
C493	C	0.486711	-0.022369	0.311165
C494	C	0.986711	0.477631	0.811165
C495	C	0.480563	-0.028511	0.363685
C496	C	0.980563	0.471489	0.863685
H497	H	0.467008	-0.042173	0.293032
H498	H	0.967008	0.457827	0.793032
H499	H	0.519858	-0.031525	0.302421
H500	H	1.019858	0.468475	0.802421
H501	H	0.477428	0.010757	0.302424
H502	H	0.977428	0.510757	0.802424
H503	H	0.489849	-0.061636	0.372427
H504	H	0.989849	0.438364	0.872427
H505	H	0.447408	-0.019358	0.372433
H506	H	0.947408	0.480642	0.872433
H507	H	-0.271701	-0.021634	-0.000097
H508	H	0.228299	0.478366	0.499903
H509	H	0.057737	-0.062438	-0.000098
H510	H	0.557737	0.437562	0.499902
H511	H	0.446173	-0.450852	-0.000036
H512	H	0.946173	0.049148	0.499964
H513	H	0.623196	0.114818	0.874240
H514	H	1.123196	0.614818	1.374240
C515	C	0.746797	-0.366514	-0.000094
C516	C	1.246797	0.133486	0.499906
C517	C	0.708447	-0.328397	-0.000092
C518	C	1.208447	0.171603	0.499908
H519	H	0.776886	-0.353541	-0.000093
H520	H	1.276886	0.146459	0.499907
H521	H	0.744761	-0.385939	-0.029684
H522	H	1.244761	0.114061	0.470316
H523	H	0.744754	-0.385906	0.029500
H524	H	1.244754	0.114094	0.529500
H525	H	0.710487	-0.309006	-0.029688
H526	H	1.210487	0.190994	0.470312
H527	H	0.710483	-0.308963	0.029501
H528	H	1.210483	0.191037	0.529501
C529	C	0.685995	0.177951	0.601463
C530	C	1.185995	0.677951	1.101463
C531	C	0.660514	0.152339	0.636173
C532	C	1.160514	0.652339	1.136173
H533	H	0.705705	0.197748	0.619597
H534	H	1.205705	0.697748	1.119597
H535	H	0.663567	0.197876	0.580651
H536	H	1.163567	0.697876	1.080651
H537	H	0.706000	0.155597	0.580608
H538	H	1.206000	0.655597	1.080608
H539	H	0.640506	0.174694	0.657027
H540	H	1.140506	0.674694	1.157027
H541	H	0.682945	0.132413	0.656994
H542	H	1.182945	0.632413	1.156994
C543	C	0.447511	0.000813	0.666785
C544	C	0.947511	0.500813	1.166785
C545	C	0.480567	-0.028556	0.636049
C546	C	0.980567	0.471444	1.136049
H547	H	0.427811	-0.018995	0.684893
H548	H	0.927811	0.481005	1.184893
H549	H	0.427501	0.023159	0.645965
H550	H	0.927501	0.523159	1.145965
H551	H	0.464805	0.018187	0.690349
H552	H	0.964805	0.518187	1.190349
H553	H	0.463273	-0.045927	0.612483
H554	H	0.963273	0.454073	1.112483
H555	H	0.500579	-0.050910	0.656871
H556	H	1.000579	0.449090	1.156871
H557	H	0.652239	0.144040	0.531667
H558	H	1.152239	0.644040	1.031667
H559	H	0.488834	-0.020208	0.468193
H560	H	0.988834	0.479792	0.968193
H561	H	0.623196	0.114919	0.125682
H562	H	1.123196	0.614919	0.625682
H563	H	0.517848	0.009032	0.125613
H564	H	1.017848	0.509032	0.625613
H565	H	0.517849	0.008938	0.777254
H566	H	1.017849	0.508938	1.277254
H567	H	0.652240	0.144049	0.468322
H568	H	1.152240	0.644049	0.968322
C569	C	-0.198774	-0.072215	-0.000098
C570	C	0.301226	0.427785	0.499902
C571	C	-0.171332	-0.033199	-0.000098
C572	C	0.328668	0.466801	0.499902
H573	H	-0.177546	-0.101958	-0.000092
H574	H	0.322454	0.398042	0.499908
H575	H	-0.218683	-0.070596	-0.029690
H576	H	0.281317	0.429404	0.470310
H577	H	-0.218699	-0.070555	0.029494
H578	H	0.281301	0.429445	0.529494
H579	H	-0.151409	-0.034857	-0.029692
H580	H	0.348591	0.465143	0.470308
H581	H	-0.151415	-0.034819	0.029497
H582	H	0.348585	0.465181	0.529497
C583	C	-0.001046	-0.114350	-0.000116
C584	C	0.498954	0.385650	0.499884
C585	C	-0.039162	-0.075999	-0.000108
C586	C	0.460838	0.424001	0.499892
H587	H	-0.014019	-0.144439	-0.000129
H588	H	0.485981	0.355561	0.499871
H589	H	0.018356	-0.112303	0.029478
H590	H	0.518356	0.387697	0.529478
H591	H	0.018371	-0.112320	-0.029706
H592	H	0.518371	0.387680	0.470294
H593	H	-0.058577	-0.078026	0.029484
H594	H	0.441423	0.421974	0.529484
H595	H	-0.058572	-0.078047	-0.029705
H596	H	0.441428	0.421953	0.470295
H597	H	0.517854	0.008925	0.874164
H598	H	1.017854	0.508925	1.374164
H599	H	0.434821	-0.014469	-0.000063
H600	H	0.934821	0.485531	0.499937
C601	C	0.376018	-0.066388	-0.000074
C602	C	0.876018	0.433612	0.499926
C603	C	0.337904	-0.028035	-0.000072
C604	C	0.837904	0.471965	0.499928
H605	H	0.363042	-0.096476	-0.000084
H606	H	0.863042	0.403524	0.499916
H607	H	0.395419	-0.064338	0.029519
H608	H	0.895419	0.435662	0.529519
H609	H	0.395436	-0.064363	-0.029665
H610	H	0.895436	0.435637	0.470335
H611	H	0.318488	-0.030058	0.029520
H612	H	0.818488	0.469942	0.529520
H613	H	0.318494	-0.030086	-0.029669
H614	H	0.818494	0.469914	0.470331
H615	H	0.412744	0.145477	-0.000040
H616	H	0.912744	0.645477	0.499960
