data_functionalizedCrystal
_audit_creation_method	'MofGen! by Chris Wilmer'
_symmetry_space_group_name_H-M	'P1'
_symmetry_Int_Tables_number	1
_symmetry_cell_setting	triclinic
loop_
_symmetry_equiv_pos_as_xyz
  x,y,z
_cell_length_a	11.169416
_cell_length_b	11.169417
_cell_length_c	11.169409
_cell_angle_alpha	89.980487
_cell_angle_beta	89.968635
_cell_angle_gamma	90.011398
loop_
_atom_site_label
_atom_site_type_symbol
_atom_site_fract_x
_atom_site_fract_y
_atom_site_fract_z
Zn1	Zn	-0.477670	1.834964	-0.678541
Zn2	Zn	-0.144337	2.168297	-0.345208
Zn3	Zn	0.188997	2.501631	-0.011874
Zn4	Zn	-0.678410	1.834854	-0.477861
Zn5	Zn	-0.345077	2.168187	-0.144528
Zn6	Zn	-0.011744	2.501521	0.188805
Zn7	Zn	-0.477744	1.634250	-0.477876
Zn8	Zn	-0.144411	1.967583	-0.144543
Zn9	Zn	0.188922	2.300916	0.188790
Zn10	Zn	-0.678314	1.634258	-0.678507
Zn11	Zn	-0.344981	1.967591	-0.345174
Zn12	Zn	-0.011647	2.300925	-0.011840
O13	O	-0.578035	1.734581	-0.578196
O14	O	-0.244701	2.067915	-0.244863
O15	O	0.088632	2.401248	0.088470
O16	O	-0.504308	2.002899	-0.651928
O17	O	-0.170974	2.336232	-0.318595
O18	O	0.162359	2.669566	0.014739
O19	O	-0.651863	1.808194	-0.309913
O20	O	-0.318530	2.141527	0.023420
O21	O	0.014803	2.474861	0.356753
O22	O	-0.309785	1.660918	-0.504515
O23	O	0.023549	1.994251	-0.171182
O24	O	0.356882	2.327584	0.162151
O25	O	-0.651791	2.002818	-0.504490
O26	O	-0.318458	2.336152	-0.171156
O27	O	0.014876	2.669485	0.162177
O28	O	-0.309730	1.808381	-0.651943
O29	O	0.023603	2.141715	-0.318609
O30	O	0.356937	2.475048	0.014724
O31	O	-0.504435	1.660811	-0.309925
O32	O	-0.171101	1.994144	0.023409
O33	O	0.162232	2.327478	0.356742
O34	O	-0.504341	1.466301	-0.504483
O35	O	-0.171008	1.799635	-0.171149
O36	O	0.162325	2.132968	0.162184
O37	O	-0.651627	1.660931	-0.846461
O38	O	-0.318293	1.994265	-0.513128
O39	O	0.015040	2.327598	-0.179795
O40	O	-0.651699	1.466307	-0.651885
O41	O	-0.318366	1.799641	-0.318552
O42	O	0.014968	2.132974	0.014781
O43	O	-0.504214	1.808389	-0.846486
O44	O	-0.170881	2.141723	-0.513153
O45	O	0.162452	2.475056	-0.179820
O46	O	-0.846347	1.808202	-0.504457
O47	O	-0.513014	2.141535	-0.171124
O48	O	-0.179681	2.474869	0.162210
O49	O	-0.846277	1.660825	-0.651871
O50	O	-0.512943	1.994158	-0.318537
O51	O	-0.179610	2.327492	0.014796
C52	C	-0.578019	1.422757	-0.578183
C53	C	-0.244685	1.756090	-0.244849
C54	C	0.088648	2.089423	0.088484
C55	C	-0.578041	1.289357	-0.578205
C56	C	-0.244707	1.622690	-0.244872
C57	C	0.088626	1.956023	0.088461
C58	C	-0.889859	1.734535	-0.578185
C59	C	-0.556526	2.067868	-0.244851
C60	C	-0.223193	2.401202	0.088482
C61	C	-1.023259	1.734625	-0.578220
C62	C	-0.689926	2.067958	-0.244886
C63	C	-0.356593	2.401291	0.088447
C64	C	-0.264992	1.734661	-0.578235
C65	C	0.068341	2.067994	-0.244901
C66	C	0.401674	2.401327	0.088432
C67	C	-0.131592	1.734695	-0.578251
C68	C	0.201741	2.068028	-0.244917
C69	C	0.535074	2.401361	0.088416
C70	C	-0.577901	1.734674	-0.891239
C71	C	-0.244568	2.068007	-0.557906
C72	C	0.088765	2.401340	-0.224572
C73	C	-0.577845	1.734713	-1.024639
C74	C	-0.244511	2.068046	-0.691306
C75	C	0.088822	2.401379	-0.357972
C76	C	-0.578052	2.047624	-0.578211
C77	C	-0.244719	2.380957	-0.244878
C78	C	0.088615	2.714290	0.088456
C79	C	-0.578059	2.181024	-0.578217
C80	C	-0.244726	2.514357	-0.244884
C81	C	0.088608	2.847690	0.088450
C82	C	-0.578081	1.734559	-0.266372
C83	C	-0.244748	2.067892	0.066962
C84	C	0.088586	2.401225	0.400295
C85	C	-0.577800	1.734752	-0.132972
C86	C	-0.244466	2.068085	0.200361
C87	C	0.088867	2.401419	0.533694
