data_functionalizedCrystal
_audit_creation_method	'MofGen! by Chris Wilmer'
_symmetry_space_group_name_H-M	'P1'
_symmetry_Int_Tables_number	1
_symmetry_cell_setting	triclinic
loop_
_symmetry_equiv_pos_as_xyz
  x,y,z
_cell_length_a	8.597226
_cell_length_b	8.559649
_cell_length_c	7.088929
_cell_angle_alpha	84.655815
_cell_angle_beta	91.337861
_cell_angle_gamma	102.373960
loop_
_atom_site_label
_atom_site_type_symbol
_atom_site_fract_x
_atom_site_fract_y
_atom_site_fract_z
O1	O	-1.998325	0.287665	-0.488219
O2	O	-1.498325	0.787665	0.011781
O3	O	-1.547617	0.298375	-0.413964
O4	O	-1.047617	0.798375	0.086036
O5	O	-1.812679	0.061715	-0.457632
O6	O	-1.312679	0.561715	0.042368
O7	O	-1.733263	0.524325	-0.444552
O8	O	-1.233263	1.024325	0.055448
O9	O	-1.848111	0.030014	-0.145494
O10	O	-1.348111	0.530014	0.354506
O11	O	-1.583049	0.266674	-0.101826
O12	O	-1.083049	0.766674	0.398174
O13	O	-2.033757	0.255964	-0.176081
O14	O	-1.533757	0.755964	0.323919
Cu15	Cu	-1.811638	0.258424	-0.110453
Cu16	Cu	-1.311638	0.758424	0.389547
Cu17	Cu	-1.769736	0.295914	-0.479592
Cu18	Cu	-1.269736	0.795914	0.020408
O19	O	-1.768695	0.492624	-0.132414
O20	O	-1.268695	0.992624	0.367586
C21	C	-1.508167	0.279605	-0.248477
C22	C	-1.008167	0.779605	0.251523
C23	C	-1.337832	0.270889	-0.220414
C24	C	-0.837832	0.770889	0.279586
C25	C	-1.836413	-0.013469	-0.302558
C26	C	-1.336413	0.486531	0.197442
C27	C	-1.854326	-0.190263	-0.305520
C28	C	-1.354326	0.309737	0.194480
C29	C	-1.073209	0.274729	-0.341564
C30	C	-0.573209	0.774729	0.158436
C31	C	-1.243549	0.283431	-0.369612
C32	C	-0.743549	0.783431	0.130388
C33	C	-1.744961	0.567807	-0.287492
C34	C	-1.244961	1.067807	0.212508
C35	C	-1.727046	0.744603	-0.284542
C36	C	-1.227046	1.244603	0.215458
N37	N	-1.841121	0.232055	0.149178
N38	N	-1.341121	0.732055	0.649178
N39	N	-1.740267	0.322271	-0.739226
N40	N	-1.240267	0.822271	-0.239226
H41	H	-1.288234	0.253500	-0.071221
H42	H	-0.788234	0.753500	0.428779
H43	H	-1.293148	0.300839	-0.518815
H44	H	-0.793148	0.800839	-0.018815
Cl45	Cl	-1.537638	-0.132676	-0.253332
Cl46	Cl	-1.037638	0.367324	0.246668
H47	H	-1.977011	-0.269762	-0.325717
H48	H	-1.477011	0.230238	0.174283
H49	H	-1.635744	0.415761	0.196348
H50	H	-1.135744	0.915761	0.696348
Cl51	Cl	-2.002523	0.087720	0.248648
Cl52	Cl	-1.502523	0.587720	0.748648
