data_functionalizedCrystal
_audit_creation_method	'MofGen! by Chris Wilmer'
_symmetry_space_group_name_H-M	'P1'
_symmetry_Int_Tables_number	1
_symmetry_cell_setting	triclinic
loop_
_symmetry_equiv_pos_as_xyz
  x,y,z
_cell_length_a	12.837943
_cell_length_b	9.482900
_cell_length_c	11.026607
_cell_angle_alpha	101.400185
_cell_angle_beta	101.707478
_cell_angle_gamma	79.713792
loop_
_atom_site_label
_atom_site_type_symbol
_atom_site_fract_x
_atom_site_fract_y
_atom_site_fract_z
O1	O	1.448507	-0.120860	0.304923
O2	O	1.143730	-0.120869	0.288994
O3	O	1.270858	-0.120860	0.117385
O4	O	1.321378	-0.120869	0.476532
O5	O	1.245064	0.120930	0.152398
O6	O	1.117936	0.120921	0.324007
O7	O	1.422713	0.120930	0.339936
Cu8	Cu	1.267969	0.143003	0.335168
Cu9	Cu	1.298473	-0.142942	0.293761
O10	O	1.295585	0.120921	0.511545
C11	C	1.091209	0.000025	0.301120
C12	C	0.973137	0.000021	0.285072
N13	N	1.246522	0.344122	0.364292
N14	N	1.319927	-0.344061	0.264629
C15	C	0.768177	0.000037	0.477992
C16	C	0.657239	0.000035	0.462920
C17	C	0.640320	0.000025	0.239857
C18	C	0.751258	0.000027	0.254930
C19	C	0.815183	0.000031	0.374000
C20	C	0.926124	0.000023	0.389070
C21	C	0.909202	0.000023	0.166011
C22	C	0.798264	0.000021	0.150938
C23	C	1.475235	0.000033	0.327809
C24	C	1.593307	0.000027	0.343856
C25	C	1.248642	0.000033	0.088603
C26	C	1.220859	0.000027	-0.049325
C27	C	1.292139	0.416324	0.302344
C28	C	1.274304	0.583740	0.326586
C29	C	1.297573	0.000027	-0.114260
C30	C	1.268860	0.000021	-0.256815
C31	C	1.317802	0.000025	0.540326
C32	C	1.345585	0.000021	0.678253
H33	H	0.978171	0.000029	0.486024
F34	F	0.836215	0.000023	0.604711
F35	F	1.459224	0.000018	-0.256481
F36	F	1.205988	0.664933	0.419365
F37	F	0.607215	0.000046	0.573603
H38	H	1.344392	0.354200	0.231356
H39	H	1.384506	0.000039	-0.064314
H40	H	1.133926	0.000015	-0.099271
H41	H	1.181921	0.000009	-0.306756
F42	F	0.959239	-0.000001	0.055326
F43	F	0.572267	0.000038	0.113146
H44	H	0.746200	0.000035	0.053996
H45	H	1.372184	0.593818	0.193637
H46	H	1.194259	0.406248	0.435269
