data_functionalizedCrystal
_audit_creation_method	'MofGen! by Chris Wilmer'
_symmetry_space_group_name_H-M	'P1'
_symmetry_Int_Tables_number	1
_symmetry_cell_setting	triclinic
loop_
_symmetry_equiv_pos_as_xyz
  x,y,z
_cell_length_a	18.215407
_cell_length_b	25.639240
_cell_length_c	18.215399
_cell_angle_alpha	89.962783
_cell_angle_beta	89.980167
_cell_angle_gamma	90.033205
loop_
_atom_site_label
_atom_site_type_symbol
_atom_site_fract_x
_atom_site_fract_y
_atom_site_fract_z
Zn1	Zn	1.125032	-0.208150	-0.416068
Zn2	Zn	1.625032	0.291850	0.083932
Zn3	Zn	1.124923	-0.295586	-0.292982
Zn4	Zn	1.624923	0.204414	0.207018
Zn5	Zn	1.001964	-0.208167	-0.293016
Zn6	Zn	1.501964	0.291833	0.206984
Zn7	Zn	1.001913	-0.295557	-0.416007
Zn8	Zn	1.501913	0.204443	0.083993
O9	O	1.063458	-0.251865	-0.354518
O10	O	1.563458	0.248135	0.145482
O11	O	1.228002	-0.219754	-0.399752
O12	O	1.728002	0.280246	0.100248
O13	O	1.108588	-0.284009	-0.190002
O14	O	1.608588	0.215991	0.309998
O15	O	1.018356	-0.135000	-0.309379
O16	O	1.518356	0.365000	0.190621
O17	O	1.227922	-0.283992	-0.309322
O18	O	1.727922	0.216008	0.190678
O19	O	1.108773	-0.134987	-0.399785
O20	O	1.608773	0.365013	0.100215
O21	O	1.018251	-0.219783	-0.190027
O22	O	1.518251	0.280217	0.309973
O23	O	0.898973	-0.219754	-0.309319
O24	O	1.398973	0.280246	0.190681
O25	O	1.018269	-0.283943	-0.519000
O26	O	1.518269	0.216057	-0.019000
O27	O	0.898936	-0.283959	-0.399681
O28	O	1.398936	0.216041	0.100319
O29	O	1.108724	-0.219725	-0.519045
O30	O	1.608724	0.280275	-0.019045
O31	O	1.108539	-0.368747	-0.309262
O32	O	1.608539	0.131253	0.190738
O33	O	1.018164	-0.368726	-0.399648
O34	O	1.518164	0.131274	0.100352
C35	C	0.872252	-0.251856	-0.354497
C36	C	1.372252	0.248144	0.145503
C37	C	0.790453	-0.251865	-0.354506
C38	C	1.290453	0.248135	0.145494
C39	C	1.063354	-0.387708	-0.354461
C40	C	1.563354	0.112292	0.145539
C41	C	1.063377	-0.445822	-0.354461
C42	C	1.563377	0.054178	0.145539
C43	C	0.602259	-0.285349	-0.401498
C44	C	1.102259	0.214651	0.098502
C45	C	0.525400	-0.285350	-0.401507
C46	C	1.025400	0.214650	0.098493
C47	C	0.525409	-0.218391	-0.307555
C48	C	1.025409	0.281609	0.192445
C49	C	0.602267	-0.218387	-0.307550
C50	C	1.102267	0.281613	0.192450
C51	C	0.640689	-0.251869	-0.354520
C52	C	1.140689	0.248131	0.145480
C53	C	0.486973	-0.251874	-0.354535
C54	C	0.986973	0.248126	0.145465
C55	C	0.403640	-0.251876	-0.354544
C56	C	0.903640	0.248124	0.145456
C57	C	0.724028	-0.251867	-0.354512
C58	C	1.224028	0.248133	0.145488
C59	C	1.110562	-0.806140	-0.401678
C60	C	1.610562	-0.306140	0.098322
C61	C	1.110583	-0.860744	-0.401693
C62	C	1.610583	-0.360744	0.098307
O63	O	1.150578	-0.888942	-0.441779
O64	O	1.650578	-0.388942	0.058221
N65	N	1.063560	-0.888104	-0.354590
N66	N	1.563560	-0.388104	0.145410
C67	C	1.016507	-0.860857	-0.307474
C68	C	1.516507	-0.360857	0.192526
O69	O	0.976512	-0.889143	-0.267410
O70	O	1.476512	-0.389143	0.232590
C71	C	1.016482	-0.806254	-0.307463
C72	C	1.516482	-0.306254	0.192537
C73	C	1.063514	-0.778896	-0.354564
C74	C	1.563514	-0.278896	0.145436
C75	C	1.157589	-0.778782	-0.448776
C76	C	1.657589	-0.278782	0.051224
C77	C	1.157568	-0.724182	-0.448760
C78	C	1.657568	-0.224182	0.051240
C79	C	1.110520	-0.696938	-0.401646
C80	C	1.610520	-0.196938	0.098354
C81	C	1.063493	-0.724296	-0.354548
C82	C	1.563493	-0.224296	0.145452
C83	C	0.969426	-0.779008	-0.260351
C84	C	1.469426	-0.279008	0.239649
C85	C	0.969405	-0.724401	-0.260345
C86	C	1.469405	-0.224401	0.239655
C87	C	1.016436	-0.697043	-0.307446
C88	C	1.516436	-0.197043	0.192554
C89	C	1.016424	-0.642452	-0.307418
C90	C	1.516424	-0.142452	0.192582
N91	N	1.063447	-0.615092	-0.354521
N92	N	1.563447	-0.115092	0.145479
C93	C	1.110495	-0.642335	-0.401635
C94	C	1.610495	-0.142335	0.098365
C95	C	1.016562	-0.975528	-0.307500
C96	C	1.516562	-0.475528	0.192500
C97	C	1.016590	-1.030130	-0.307507
C98	C	1.516590	-0.530130	0.192493
C99	C	1.110666	-1.030013	-0.401727
C100	C	1.610666	-0.530013	0.098273
C101	C	1.110641	-0.975410	-0.401717
C102	C	1.610641	-0.475410	0.098283
C103	C	1.063585	-0.948167	-0.354604
C104	C	1.563585	-0.448167	0.145396
C105	C	1.110448	-0.527670	-0.401597
C106	C	1.610448	-0.027670	0.098403
C107	C	1.110425	-0.473065	-0.401575
C108	C	1.610425	0.026935	0.098425
C109	C	1.016347	-0.473186	-0.307357
C110	C	1.516347	0.026814	0.192643
C111	C	1.016372	-0.527787	-0.307377
C112	C	1.516372	-0.027787	0.192623
C113	C	1.063425	-0.555027	-0.354503
C114	C	1.563425	-0.055027	0.145497
O115	O	0.976448	-0.614219	-0.267354
O116	O	1.476448	-0.114219	0.232646
O117	O	1.150477	-0.614043	-0.441698
O118	O	1.650477	-0.114043	0.058302
C119	C	1.255411	-0.251874	-0.354540
C120	C	1.755411	0.248126	0.145460
C121	C	1.337210	-0.251878	-0.354549
C122	C	1.837210	0.248122	0.145451
C123	C	1.063503	-0.251829	-0.546471
C124	C	1.563503	0.248171	-0.046471
C125	C	1.063522	-0.251814	-0.628270
C126	C	1.563522	0.248186	-0.128270
C127	C	1.063583	-0.115492	-0.354592
C128	C	1.563583	0.384508	0.145408
C129	C	1.063636	-0.057378	-0.354624
C130	C	1.563636	0.442622	0.145376
C131	C	1.110639	-0.218344	-0.816489
C132	C	1.610639	0.281656	-0.316489
C133	C	1.110647	-0.218329	-0.893348
C134	C	1.610647	0.281671	-0.393348
C135	C	1.016457	-0.285202	-0.893290
C136	C	1.516457	0.214798	-0.393290
C137	C	1.016446	-0.285214	-0.816432
C138	C	1.516446	0.214786	-0.316432
C139	C	1.063540	-0.251786	-0.778034
C140	C	1.563540	0.248214	-0.278034
C141	C	1.063561	-0.251759	-0.931750
C142	C	1.563561	0.248241	-0.431750
C143	C	1.063570	-0.251742	-1.015084
C144	C	1.563570	0.248258	-0.515084
C145	C	1.063530	-0.251801	-0.694695
C146	C	1.563530	0.248199	-0.194695
C147	C	1.063456	-0.251863	-0.163312
C148	C	1.563456	0.248137	0.336688
C149	C	1.063579	-0.251731	-0.081514
C150	C	1.563579	0.248269	0.418486
H151	H	0.494113	-0.312613	-0.439762
H152	H	0.994113	0.187387	0.060238
H153	H	0.494116	-0.191131	-0.269313
H154	H	0.994116	0.308869	0.230687
H155	H	1.148999	-0.191096	-0.924655
H156	H	1.648999	0.308904	-0.424655
H157	H	0.633558	-0.191120	-0.269296
H158	H	1.133558	0.308880	0.230704
O159	O	0.639550	-0.317812	-0.447233
O160	O	1.139550	0.182188	0.052767
C161	C	0.620793	-0.306457	-0.520611
C162	C	1.120793	0.193543	-0.020611
H163	H	0.599697	-0.264692	-0.524436
H164	H	1.099697	0.235308	-0.024436
H165	H	0.576167	-0.334507	-0.539777
H166	H	1.076167	0.165493	-0.039777
C167	C	0.714993	-0.363876	-0.565010
C168	C	1.214993	0.136124	-0.065010
C169	C	0.689088	-0.312578	-0.569708
C170	C	1.189088	0.187422	-0.069708
H171	H	0.757119	-0.367654	-0.595297
H172	H	1.257119	0.132346	-0.095297
H173	H	0.727629	-0.371528	-0.515574
H174	H	1.227629	0.128472	-0.015574
H175	H	0.677798	-0.387245	-0.580980
H176	H	1.177798	0.112755	-0.080980
H177	H	0.726279	-0.289211	-0.553729
H178	H	1.226279	0.210789	-0.053729
H179	H	0.676460	-0.304923	-0.619142
H180	H	1.176460	0.195077	-0.119142
H181	H	0.931128	-0.801273	-0.221996
H182	H	1.431128	-0.301273	0.278004
O183	O	0.970803	-1.056677	-0.261826
O184	O	1.470803	-0.556677	0.238174
C185	C	0.897444	-1.043354	-0.277828
C186	C	1.397444	-0.543354	0.222172
H187	H	0.893691	-1.028315	-0.336615
H188	H	1.393691	-0.528315	0.163385
H189	H	0.878223	-1.011690	-0.238350
H190	H	1.378223	-0.511690	0.261650
C191	C	0.852952	-1.110362	-0.197022
C192	C	1.352952	-0.610362	0.302978
C193	C	0.848342	-1.091894	-0.269227
C194	C	1.348342	-0.591894	0.230773
H195	H	0.822663	-1.140302	-0.191714
H196	H	1.322663	-0.640302	0.308286
H197	H	0.902375	-1.119337	-0.186239
H198	H	1.402375	-0.619337	0.313761
H199	H	0.836936	-1.083970	-0.164132
H200	H	1.336936	-0.583970	0.335868
H201	H	0.864367	-1.118283	-0.302115
H202	H	1.364367	-0.618283	0.197885
H203	H	0.798921	-1.082924	-0.280016
H204	H	1.298921	-0.582924	0.219984
O205	O	1.156135	-0.446571	-0.447403
O206	O	1.656135	0.053429	0.052597
C207	C	1.197674	-0.482330	-0.488977
C208	C	1.697674	0.017670	0.011023
H209	H	1.167542	-0.521269	-0.491505
H210	H	1.667542	-0.021269	0.008495
H211	H	1.253585	-0.488121	-0.462082
H212	H	1.753585	0.011879	0.037918
C213	C	1.245236	-0.413144	-0.564204
C214	C	1.745236	0.086856	-0.064204
C215	C	1.208223	-0.460968	-0.567314
C216	C	1.708223	0.039032	-0.067314
H217	H	1.251746	-0.399966	-0.612525
H218	H	1.751746	0.100034	-0.112525
H219	H	1.217252	-0.389052	-0.536193
H220	H	1.717252	0.110948	-0.036193
H221	H	1.291824	-0.417976	-0.541788
H222	H	1.791824	0.082024	-0.041788
H223	H	1.161632	-0.456135	-0.589720
H224	H	1.661632	0.043865	-0.089720
H225	H	1.236199	-0.485059	-0.595330
H226	H	1.736199	0.014941	-0.095330
O227	O	1.156276	-0.185843	-0.779109
O228	O	1.656276	0.314157	-0.279109
C229	C	1.114394	-0.152072	-0.734679
C230	C	1.614394	0.347928	-0.234679
H231	H	1.058608	-0.170516	-0.723141
H232	H	1.558608	0.329484	-0.223141
H233	H	1.106341	-0.113322	-0.764325
H234	H	1.606341	0.386678	-0.264325
C235	C	1.223401	-0.119958	-0.675860
C236	C	1.723401	0.380042	-0.175860
C237	C	1.154885	-0.142613	-0.661683
C238	C	1.654885	0.357387	-0.161683
H239	H	1.248378	-0.114121	-0.630833
H240	H	1.748378	0.385879	-0.130833
H241	H	1.251618	-0.142708	-0.705795
H242	H	1.751618	0.357292	-0.205795
H243	H	1.216679	-0.087669	-0.700566
H244	H	1.716679	0.412331	-0.200566
H245	H	1.161608	-0.174904	-0.636986
H246	H	1.661608	0.325096	-0.136986
H247	H	1.126670	-0.119868	-0.631742
H248	H	1.626670	0.380132	-0.131742
H249	H	1.195863	-0.701911	-0.487115
H250	H	1.695863	-0.201911	0.012885
H251	H	0.931084	-0.702223	-0.221981
H252	H	1.431084	-0.202223	0.278019
O253	O	0.970785	-0.317658	-0.930705
O254	O	1.470785	0.182342	-0.430705
C255	C	0.980881	-0.310469	-1.006788
C256	C	1.480881	0.189531	-0.506788
H257	H	1.037692	-0.293345	-1.017306
H258	H	1.537692	0.206655	-0.517306
H259	H	0.937257	-0.282621	-1.028608
H260	H	1.437257	0.217379	-0.528608
C261	C	0.904321	-0.384395	-1.033295
C262	C	1.404321	0.115605	-0.533295
C263	C	0.974100	-0.363368	-1.046214
C264	C	1.474100	0.136632	-0.546214
H265	H	0.900135	-0.417025	-1.057616
H266	H	1.400135	0.082975	-0.557616
H267	H	0.897516	-0.389238	-0.982037
H268	H	1.397516	0.110762	-0.482037
H269	H	0.867976	-0.361184	-1.051478
H270	H	1.367976	0.138816	-0.551478
H271	H	1.010444	-0.386576	-1.028023
H272	H	1.510444	0.113424	-0.528023
H273	H	0.980911	-0.358530	-1.097471
H274	H	1.480911	0.141470	-0.597471
H275	H	0.978087	-0.312446	-0.785121
H276	H	1.478087	0.187554	-0.285121
H277	H	1.148758	-0.549843	-0.439977
H278	H	1.648758	-0.049843	0.060023
H279	H	0.978246	-0.953350	-0.269129
H280	H	1.478246	-0.453350	0.230871
H281	H	1.195901	-0.800958	-0.487146
H282	H	1.695901	-0.300958	0.012854
H283	H	0.978081	-0.550062	-0.269017
H284	H	1.478081	-0.050062	0.230983
O285	O	1.156344	-0.948918	-0.447545
O286	O	1.656344	-0.448918	0.052455
C287	C	1.197886	-0.984679	-0.489113
C288	C	1.697886	-0.484679	0.010887
H289	H	1.167757	-1.023620	-0.491633
H290	H	1.667757	-0.523620	0.008367
H291	H	1.253798	-0.990464	-0.462218
H292	H	1.753798	-0.490464	0.037782
C293	C	1.245440	-0.915498	-0.564355
C294	C	1.745440	-0.415498	-0.064355
C295	C	1.208432	-0.963325	-0.567454
C296	C	1.708432	-0.463325	-0.067454
H297	H	1.251949	-0.902325	-0.612678
H298	H	1.751949	-0.402325	-0.112678
H299	H	1.217455	-0.891404	-0.536348
H300	H	1.717455	-0.391404	-0.036348
H301	H	1.292029	-0.920326	-0.541939
H302	H	1.792029	-0.420326	-0.041939
H303	H	1.161840	-0.958495	-0.589861
H304	H	1.661840	-0.458495	-0.089861
H305	H	1.236410	-0.987417	-0.595466
H306	H	1.736410	-0.487417	-0.095466
H307	H	1.148973	-1.052204	-0.440092
H308	H	1.648973	-0.552204	0.059908
H309	H	0.978043	-0.450996	-0.268995
H310	H	1.478043	0.049004	0.231005
