data_functionalizedCrystal
_audit_creation_method	'MofGen! by Chris Wilmer'
_symmetry_space_group_name_H-M	'P1'
_symmetry_Int_Tables_number	1
_symmetry_cell_setting	triclinic
loop_
_symmetry_equiv_pos_as_xyz
  x,y,z
_cell_length_a	10.686220
_cell_length_b	25.639240
_cell_length_c	10.685880
_cell_angle_alpha	94.327944
_cell_angle_beta	89.641569
_cell_angle_gamma	94.415314
loop_
_atom_site_label
_atom_site_type_symbol
_atom_site_fract_x
_atom_site_fract_y
_atom_site_fract_z
Zn1	Zn	1.972127	-0.163211	-0.562293
Zn2	Zn	1.955846	-0.244514	-0.352501
Zn3	Zn	1.746256	-0.164277	-0.368615
Zn4	Zn	1.762253	-0.257804	-0.578267
O5	O	1.859121	-0.207451	-0.465419
O6	O	2.145515	-0.167988	-0.521035
O7	O	1.914535	-0.228755	-0.179100
O8	O	1.776337	-0.090968	-0.394366
O9	O	2.133553	-0.227721	-0.366902
O10	O	1.942284	-0.090185	-0.536660
O11	O	1.760550	-0.169804	-0.190939
O12	O	1.572831	-0.182691	-0.409855
O13	O	1.803602	-0.250372	-0.751686
O14	O	1.584583	-0.251405	-0.563885
O15	O	1.957796	-0.180875	-0.739951
O16	O	1.930046	-0.319444	-0.382390
O17	O	1.787814	-0.329208	-0.548259
C18	C	1.533190	-0.218606	-0.490352
C19	C	1.393757	-0.223392	-0.501049
C20	C	1.858936	-0.343297	-0.465334
C21	C	1.858975	-0.401410	-0.465331
C22	C	1.945580	-0.761328	-0.539653
C23	C	1.945619	-0.815932	-0.539676
O24	O	2.019035	-0.843794	-0.602783
N25	N	1.859304	-0.843688	-0.465527
C26	C	1.772936	-0.816838	-0.391360
O27	O	1.699521	-0.845461	-0.328293
C28	C	1.772892	-0.762236	-0.391345
C29	C	1.859221	-0.734482	-0.465489
C30	C	2.031901	-0.733574	-0.613793
C31	C	2.031863	-0.678974	-0.613768
C32	C	1.945504	-0.652128	-0.539604
C33	C	1.859183	-0.679882	-0.465465
C34	C	1.686519	-0.735388	-0.317186
C35	C	1.686482	-0.680782	-0.317178
C36	C	1.772811	-0.653028	-0.391322
C37	C	1.772787	-0.598436	-0.391276
N38	N	1.859102	-0.570679	-0.465425
C39	C	1.945461	-0.597525	-0.539589
C40	C	1.773033	-0.931507	-0.391399
C41	C	1.773082	-0.986108	-0.391406
C42	C	1.945763	-0.985198	-0.539724
C43	C	1.945720	-0.930595	-0.539709
C44	C	1.859348	-0.903751	-0.465548
C45	C	1.945375	-0.482861	-0.539531
C46	C	1.945333	-0.428256	-0.539495
C47	C	1.772648	-0.429171	-0.391183
C48	C	1.772694	-0.483771	-0.391212
C49	C	1.859062	-0.510615	-0.465396
O50	O	1.699405	-0.570538	-0.328205
O51	O	2.018852	-0.568896	-0.602658
C52	C	2.186324	-0.196254	-0.440389
C53	C	2.325759	-0.191482	-0.429723
C54	C	1.884299	-0.216987	-0.792606
C55	C	1.895029	-0.221050	-0.932034
C56	C	1.859342	-0.071075	-0.465529
C57	C	1.859437	-0.012959	-0.465576
C58	C	1.834112	-0.197913	-0.139499
C59	C	1.823626	-0.193694	-0.000054
H60	H	1.345297	-0.254377	-0.570294
H61	H	2.015637	-0.405660	-0.599872
H62	H	1.616144	-0.658928	-0.256788
C63	C	1.987670	-0.256336	-0.996658
C64	C	2.073868	-0.226143	-1.065722
C65	C	2.159237	-0.258628	-1.125254
H66	H	1.943697	-0.282243	-1.051519
H67	H	2.031101	-0.272941	-0.935320
H68	H	2.030441	-0.209547	-1.127052
H69	H	2.117870	-0.200238	-1.010890
H70	H	2.202668	-0.275233	-1.063916
H71	H	2.115253	-0.284533	-1.180108
H72	H	2.217739	-0.238146	-1.172111
H73	H	1.374212	-0.160502	-0.360474
H74	H	2.015697	-0.504711	-0.599947
H75	H	1.702339	-0.407305	-0.330795
C76	C	1.731274	-0.158327	-0.935249
C77	C	1.738654	-0.161178	-0.805202
C78	C	1.653610	-0.128600	-0.745455
H79	H	1.648542	-0.169444	-0.962962
H80	H	1.751328	-0.123170	-0.955210
H81	H	1.718592	-0.196327	-0.785251
H82	H	1.821367	-0.150057	-0.777453
H83	H	1.673664	-0.093443	-0.765415
H84	H	1.570884	-0.139720	-0.773177
H85	H	1.658614	-0.130526	-0.657211
H86	H	2.102156	-0.656379	-0.674147
H87	H	2.102225	-0.755426	-0.674194
H88	H	2.016015	-0.908001	-0.600085
H89	H	2.016080	-1.007066	-0.600115
C90	C	1.679220	-1.016146	-0.310857
C91	C	1.603570	-0.980943	-0.245931
C92	C	1.517073	-1.008594	-0.171734
H93	H	1.722911	-1.034210	-0.252471
H94	H	1.628152	-1.040715	-0.362965
H95	H	1.654633	-0.956384	-0.193827
H96	H	1.559852	-0.962878	-0.304286
H97	H	1.466004	-1.033163	-0.223842
H98	H	1.560774	-1.026656	-0.113355
H99	H	1.465727	-0.984713	-0.127682
H100	H	1.702702	-0.909653	-0.330997
H101	H	1.616221	-0.757976	-0.256809
H102	H	1.702407	-0.506370	-0.330827
