data_functionalizedCrystal
_audit_creation_method	'MofGen! by Chris Wilmer'
_symmetry_space_group_name_H-M	'P1'
_symmetry_Int_Tables_number	1
_symmetry_cell_setting	triclinic
loop_
_symmetry_equiv_pos_as_xyz
  x,y,z
_cell_length_a	16.974829
_cell_length_b	15.500215
_cell_length_c	16.992695
_cell_angle_alpha	92.999191
_cell_angle_beta	87.025716
_cell_angle_gamma	96.836845
loop_
_atom_site_label
_atom_site_type_symbol
_atom_site_fract_x
_atom_site_fract_y
_atom_site_fract_z
O1	O	1.062549	0.146338	0.106564
O2	O	1.395882	0.479672	0.439898
O3	O	1.729215	0.813005	0.773231
O4	O	0.832366	0.130224	0.118559
O5	O	1.165699	0.463558	0.451892
O6	O	1.499033	0.796891	0.785226
O7	O	0.946534	0.138210	-0.001583
O8	O	1.279868	0.471543	0.331750
O9	O	1.613201	0.804876	0.665083
O10	O	0.948381	0.138353	0.226707
O11	O	1.281714	0.471686	0.560040
O12	O	1.615047	0.805019	0.893373
O13	O	0.939532	-0.006170	-0.008104
O14	O	1.272865	0.327163	0.325229
O15	O	1.606198	0.660497	0.658563
O16	O	0.825363	-0.014156	0.112038
O17	O	1.158697	0.319178	0.445372
O18	O	1.492030	0.652511	0.778705
O19	O	1.055546	0.001958	0.100044
O20	O	1.388879	0.335292	0.433377
O21	O	1.722213	0.668625	0.766710
Cu22	Cu	0.939815	-0.019282	0.105446
Cu23	Cu	1.273149	0.314052	0.438779
Cu24	Cu	1.606482	0.647385	0.772112
Cu25	Cu	0.948097	0.151464	0.113157
Cu26	Cu	1.281430	0.484798	0.446490
Cu27	Cu	1.614764	0.818131	0.779824
O28	O	0.941378	-0.006027	0.220186
O29	O	1.274711	0.327306	0.553519
O30	O	1.608044	0.660639	0.886853
C31	C	0.799275	0.055963	0.114720
C32	C	1.132609	0.389296	0.448053
C33	C	1.465942	0.722629	0.781387
C34	C	0.711108	0.049790	0.112987
C35	C	1.044441	0.383124	0.446320
C36	C	1.377775	0.716457	0.779654
N37	N	0.933996	-0.139375	0.100021
N38	N	1.267330	0.193959	0.433355
N39	N	1.600663	0.527292	0.766688
C40	C	0.214407	0.006598	0.102876
C41	C	0.547740	0.339932	0.436209
C42	C	0.881074	0.673265	0.769543
C43	C	0.297250	0.012400	0.104504
C44	C	0.630583	0.345733	0.437838
C45	C	0.963916	0.679066	0.771171
C46	C	0.342489	0.094003	0.108867
C47	C	0.675822	0.427336	0.442201
C48	C	1.009156	0.760670	0.775534
C49	C	0.304881	0.169810	0.111610
C50	C	0.638214	0.503144	0.444943
C51	C	0.971547	0.836477	0.778276
C52	C	0.222039	0.164008	0.109987
C53	C	0.555372	0.497341	0.443320
C54	C	0.888706	0.830675	0.776653
C55	C	0.590658	0.119795	0.114107
C56	C	0.923992	0.453129	0.447440
C57	C	1.257325	0.786462	0.780773
C58	C	0.673506	0.125592	0.115727
C59	C	1.006839	0.458925	0.449060
C60	C	1.340172	0.792259	0.782394
C61	C	0.665869	-0.031819	0.108623
C62	C	0.999202	0.301514	0.441956
C63	C	1.332535	0.634847	0.775290
C64	C	0.583026	-0.037614	0.106996
C65	C	0.916359	0.295719	0.440329
C66	C	1.249693	0.629052	0.773662
C67	C	0.545425	0.038193	0.109743
C68	C	0.878758	0.371526	0.443076
C69	C	1.212092	0.704859	0.776409
N70	N	0.427168	0.099935	0.110529
N71	N	0.760501	0.433268	0.443863
N72	N	1.093834	0.766602	0.777196
N73	N	0.460747	0.032260	0.108086
N74	N	0.794080	0.365593	0.441419
N75	N	1.127414	0.698927	0.774753
C76	C	0.982925	-0.181220	0.145664
C77	C	1.316259	0.152114	0.478997
C78	C	1.649592	0.485447	0.812331
C79	C	0.978535	-0.272100	0.141557
C80	C	1.311868	0.061233	0.474890
C81	C	1.645201	0.394566	0.808223
C82	C	0.925210	-0.321135	0.091811
C83	C	1.258544	0.012198	0.425144
C84	C	1.591877	0.345532	0.758477
C85	C	0.876279	-0.279284	0.046163
C86	C	1.209613	0.054049	0.379496
C87	C	1.542946	0.387383	0.712830
C88	C	0.880674	-0.188405	0.050267
C89	C	1.214008	0.144929	0.383600
C90	C	1.547341	0.478262	0.716933
C91	C	0.909386	-0.595712	0.077031
C92	C	1.242719	-0.262378	0.410364
C93	C	1.576052	0.070955	0.743698
C94	C	0.904993	-0.686597	0.072933
C95	C	1.238326	-0.353264	0.406266
C96	C	1.571659	-0.019931	0.739599
C97	C	1.007250	-0.679408	0.168326
C98	C	1.340583	-0.346074	0.501659
C99	C	1.673916	-0.012741	0.834992
C100	C	1.011637	-0.588527	0.172428
C101	C	1.344970	-0.255194	0.505762
C102	C	1.678303	0.078140	0.839095
C103	C	0.962709	-0.546684	0.126777
C104	C	1.296042	-0.213350	0.460111
C105	C	1.629375	0.119983	0.793444
C106	C	0.920719	-0.414030	0.087613
C107	C	1.254053	-0.080697	0.420946
C108	C	1.587386	0.252637	0.754280
C109	C	0.967204	-0.453790	0.130971
C110	C	1.300537	-0.120457	0.464305
C111	C	1.633871	0.212877	0.797638
C112	C	1.088637	0.076222	0.103883
C113	C	1.421970	0.409555	0.437216
C114	C	1.755304	0.742888	0.770549
C115	C	1.176805	0.082400	0.105616
C116	C	1.510138	0.415733	0.438949
C117	C	1.843471	0.749066	0.772283
C118	C	0.940659	0.065854	-0.034061
C119	C	1.273992	0.399187	0.299272
C120	C	1.607326	0.732520	0.632605
C121	C	0.933575	0.065358	-0.121120
C122	C	1.266909	0.398691	0.212213
C123	C	1.600242	0.732025	0.545546
N124	N	0.953922	0.271558	0.118575
N125	N	1.287255	0.604891	0.451908
N126	N	1.620588	0.938224	0.785242
C127	C	1.001922	0.070142	-0.171216
C128	C	1.335256	0.403475	0.162117
C129	C	1.668589	0.736808	0.495450
C130	C	0.995262	0.069684	-0.253017
C131	C	1.328596	0.403017	0.080317
C132	C	1.661929	0.736350	0.413650
C133	C	0.920254	0.064436	-0.284720
C134	C	1.253587	0.397769	0.048614
C135	C	1.586921	0.731102	0.381947
C136	C	0.851902	0.059654	-0.234617
C137	C	1.185235	0.392988	0.098716
C138	C	1.518568	0.726321	0.432050
C139	C	0.858563	0.060118	-0.152818
C140	C	1.191896	0.393452	0.180515
C141	C	1.525230	0.726785	0.513849
C142	C	0.892646	0.062515	-0.528375
C143	C	1.225980	0.395848	-0.195042
C144	C	1.559313	0.729182	0.138292
C145	C	0.885990	0.062048	-0.610181
C146	C	1.219323	0.395382	-0.276847
C147	C	1.552657	0.728715	0.056486
C148	C	1.029351	0.072080	-0.628575
C149	C	1.362685	0.405413	-0.295241
C150	C	1.696018	0.738746	0.038092
C151	C	1.036006	0.072538	-0.546774
C152	C	1.369339	0.405872	-0.213440
C153	C	1.702672	0.739205	0.119893
C154	C	0.967654	0.067761	-0.496678
C155	C	1.300987	0.401095	-0.163345
C156	C	1.634320	0.734428	0.169989
N157	N	0.913444	0.063965	-0.368333
N158	N	1.246778	0.397298	-0.034999
N159	N	1.580111	0.730631	0.298334
N160	N	0.974464	0.068239	-0.413066
N161	N	1.307798	0.401572	-0.079733
N162	N	1.641131	0.734905	0.253600
C163	C	0.947253	0.066331	0.252664
C164	C	1.280587	0.399664	0.585997
C165	C	1.613920	0.732997	0.919331
C166	C	0.954337	0.066832	0.339723
C167	C	1.287671	0.400165	0.673057
C168	C	1.621004	0.733499	1.006390
H169	H	0.177578	-0.059852	0.099327
H170	H	0.510912	0.273481	0.432660
H171	H	0.844245	0.606814	0.765993
N172	N	0.770999	0.053986	-0.268809
N173	N	1.104333	0.387319	0.064524
N174	N	1.437666	0.720652	0.397857
H175	H	0.728712	0.051026	-0.224659
H176	H	1.062046	0.384360	0.108674
H177	H	1.395379	0.717693	0.442008
H178	H	0.767707	0.107095	-0.299929
H179	H	1.101041	0.440429	0.033404
H180	H	1.434374	0.773762	0.366737
N181	N	0.818925	0.057359	-0.474353
N182	N	1.152258	0.390692	-0.141019
N183	N	1.485592	0.724026	0.192314
H184	H	0.834521	0.058456	-0.417721
H185	H	1.167854	0.391789	-0.084388
H186	H	1.501188	0.725123	0.248946
H187	H	0.789062	0.108613	-0.482221
H188	H	1.122395	0.441946	-0.148888
H189	H	1.455729	0.775279	0.184446
N190	N	1.040437	-0.128335	0.199322
N191	N	1.373770	0.204998	0.532656
N192	N	1.707103	0.538331	0.865989
H193	H	1.070768	-0.168638	0.227611
H194	H	1.404101	0.164695	0.560945
H195	H	1.737434	0.498029	0.894278
H196	H	1.078877	-0.088062	0.166937
H197	H	1.412210	0.245271	0.500270
H198	H	1.745543	0.578605	0.833603
N199	N	1.060029	-0.724529	0.217558
N200	N	1.393362	-0.391196	0.550891
N201	N	1.726696	-0.057862	0.884224
H202	H	1.026102	-0.764486	0.254149
H203	H	1.359435	-0.431153	0.587482
H204	H	1.692769	-0.097820	0.920816
H205	H	1.094867	-0.759613	0.181764
H206	H	1.428201	-0.426279	0.515098
H207	H	1.761534	-0.092946	0.848431
N208	N	0.181482	0.245766	0.112931
N209	N	0.514815	0.579100	0.446264
N210	N	0.848148	0.912433	0.779597
H211	H	0.122138	0.229709	0.111242
H212	H	0.455471	0.563043	0.444575
H213	H	0.788804	0.896376	0.777908
H214	H	0.194281	0.280923	0.163334
H215	H	0.527614	0.614256	0.496667
H216	H	0.860948	0.947590	0.830001
H217	H	0.546199	-0.104065	0.103426
H218	H	0.879532	0.229269	0.436760
H219	H	1.212865	0.562602	0.770093
H220	H	0.802907	0.056223	-0.112030
H221	H	1.136240	0.389557	0.221304
H222	H	1.469574	0.722890	0.554637
N223	N	0.337798	-0.069364	0.101553
N224	N	0.671131	0.263970	0.434886
N225	N	1.004464	0.597303	0.768219
H226	H	0.325061	-0.104550	0.051147
H227	H	0.658394	0.228783	0.384481
H228	H	0.991727	0.562117	0.717814
H229	H	0.397129	-0.053245	0.103280
H230	H	0.730463	0.280089	0.436614
H231	H	1.063796	0.613422	0.769947
H232	H	1.055061	-0.548608	0.212934
H233	H	1.388395	-0.215275	0.546268
H234	H	1.721728	0.118058	0.879601
N235	N	0.706419	-0.113581	0.105670
N236	N	1.039752	0.219752	0.439003
N237	N	1.373086	0.553085	0.772336
H238	H	0.743969	-0.114460	0.057617
H239	H	1.077302	0.218874	0.390951
H240	H	1.410635	0.552207	0.724284
H241	H	0.737225	-0.114862	0.154789
H242	H	1.070558	0.218471	0.488122
H243	H	1.403892	0.551804	0.821456
N244	N	0.722303	0.213611	0.120432
N245	N	1.055636	0.546944	0.453765
N246	N	1.388969	0.880278	0.787099
H247	H	0.685913	0.260755	0.121928
H248	H	1.019246	0.594088	0.455261
H249	H	1.352579	0.927421	0.788594
H250	H	0.753496	0.219211	0.169828
H251	H	1.086829	0.552545	0.503162
H252	H	1.420162	0.885878	0.836495
N253	N	0.550109	0.201555	0.117058
N254	N	0.883443	0.534888	0.450391
N255	N	1.216776	0.868221	0.783724
H256	H	0.591341	0.254128	0.120061
H257	H	0.924675	0.587461	0.453394
H258	H	1.258008	0.920795	0.786728
H259	H	0.519253	0.202799	0.067967
H260	H	0.852587	0.536133	0.401300
H261	H	1.185920	0.869466	0.734633
H262	H	1.018380	-0.306166	0.178722
H263	H	1.351713	0.027167	0.512056
H264	H	1.685046	0.360501	0.845389
N265	N	0.353670	0.257827	0.116319
N266	N	0.687003	0.591161	0.449652
N267	N	1.020336	0.924494	0.782986
H268	H	0.411856	0.250002	0.116928
H269	H	0.745190	0.583336	0.450262
H270	H	1.078523	0.916669	0.783595
H271	H	0.344200	0.291409	0.069015
H272	H	0.677534	0.624742	0.402349
H273	H	1.010867	0.958075	0.735682
N274	N	0.847466	-0.739489	0.019286
N275	N	1.180799	-0.406156	0.352620
N276	N	1.514132	-0.072822	0.685953
H277	H	0.817134	-0.699192	-0.009009
H278	H	1.150468	-0.365859	0.324324
H279	H	1.483801	-0.032526	0.657658
H280	H	0.877797	-0.774952	-0.020657
H281	H	1.211131	-0.441618	0.312676
H282	H	1.544464	-0.108285	0.646009
N283	N	1.068979	0.074833	-0.307050
N284	N	1.402312	0.408166	0.026283
N285	N	1.735646	0.741499	0.359617
H286	H	1.072015	0.128387	-0.338977
H287	H	1.405349	0.461720	-0.005643
H288	H	1.738682	0.795054	0.327690
H289	H	1.117463	0.078185	-0.274500
H290	H	1.450796	0.411519	0.058833
H291	H	1.784129	0.744852	0.392167
H292	H	0.869545	-0.561654	0.039858
H293	H	1.202878	-0.228321	0.373192
H294	H	1.536212	0.105013	0.706525
H295	H	0.832865	-0.319215	0.005655
H296	H	1.166198	0.014118	0.338988
H297	H	1.499532	0.347452	0.672321
H298	H	0.840831	-0.154336	0.013100
H299	H	1.174164	0.178997	0.346433
H300	H	1.507497	0.512331	0.679766
H301	H	1.097085	0.076812	-0.520968
H302	H	1.430419	0.410145	-0.187634
H303	H	1.763752	0.743478	0.145699
N304	N	1.024719	-0.400902	0.184619
N305	N	1.358052	-0.067569	0.517952
N306	N	1.691385	0.265765	0.851285
H307	H	0.994429	-0.365445	0.224607
H308	H	1.327762	-0.032112	0.557941
H309	H	1.661095	0.301222	0.891274
H310	H	1.055039	-0.441250	0.212862
H311	H	1.388372	-0.107916	0.546195
H312	H	1.721705	0.225417	0.879528
H313	H	1.085000	0.075970	-0.669371
H314	H	1.418333	0.409304	-0.336038
H315	H	1.751666	0.742637	-0.002704
N316	N	1.082827	0.075797	-0.137030
N317	N	1.416160	0.409130	0.196303
N318	N	1.749493	0.742463	0.529637
H319	H	1.091385	0.129732	-0.101078
H320	H	1.424719	0.463065	0.232255
H321	H	1.758052	0.796399	0.565589
H322	H	1.086134	0.022649	-0.105966
H323	H	1.419468	0.355983	0.227367
H324	H	1.752801	0.689316	0.560700
H325	H	0.824906	0.057761	-0.635990
H326	H	1.158239	0.391094	-0.302657
H327	H	1.491572	0.724427	0.030677
H328	H	0.877302	-0.453964	0.047110
H329	H	1.210636	-0.120631	0.380443
H330	H	1.543969	0.212703	0.713777
