data_functionalizedCrystal
_audit_creation_method	'MofGen! by Chris Wilmer'
_symmetry_space_group_name_H-M	'P1'
_symmetry_Int_Tables_number	1
_symmetry_cell_setting	triclinic
loop_
_symmetry_equiv_pos_as_xyz
  x,y,z
_cell_length_a	10.685976
_cell_length_b	10.685594
_cell_length_c	10.686551
_cell_angle_alpha	89.698963
_cell_angle_beta	90.348485
_cell_angle_gamma	89.687869
loop_
_atom_site_label
_atom_site_type_symbol
_atom_site_fract_x
_atom_site_fract_y
_atom_site_fract_z
Zn1	Zn	1.929799	-0.603124	0.611389
Zn2	Zn	1.897870	-0.826417	0.419963
Zn3	Zn	1.704092	-0.600782	0.417572
Zn4	Zn	1.706550	-0.794539	0.643173
O5	O	1.809578	-0.706215	0.523024
O6	O	2.100091	-0.647065	0.573694
O7	O	1.857774	-0.808846	0.245118
O8	O	1.746365	-0.426556	0.428979
O9	O	2.076633	-0.811117	0.433055
O10	O	1.912192	-0.428276	0.571376
O11	O	1.715406	-0.643073	0.243361
O12	O	1.529890	-0.612163	0.459799
O13	O	1.750555	-0.756787	0.813484
O14	O	1.531696	-0.754516	0.625548
O15	O	1.914576	-0.616155	0.790132
O16	O	1.860158	-0.996725	0.463875
O17	O	1.719596	-0.973305	0.627867
C18	C	1.485540	-0.679627	0.545864
C19	C	1.346916	-0.668281	0.555667
C20	C	1.786715	-1.030271	0.549604
C21	C	1.777052	-1.168910	0.561009
C22	C	2.134881	-0.732908	0.500096
C23	C	2.273505	-0.744283	0.490325
C24	C	1.836401	-0.683177	0.848327
C25	C	1.847832	-0.673359	0.986951
C26	C	1.832566	-0.380895	0.496365
C27	C	1.842362	-0.242263	0.485005
C28	C	1.782937	-0.729080	0.198974
C29	C	1.771772	-0.738567	0.060305
H30	H	1.316713	-0.818046	0.426883
H31	H	1.905677	-1.199002	0.411214
H32	H	1.713744	-1.212178	0.634813
H33	H	1.921704	-0.610023	1.030208
H34	H	1.303714	-0.594533	0.619117
F35	F	1.675230	-0.821362	1.003775
