data_functionalizedCrystal
_audit_creation_method	'MofGen! by Chris Wilmer'
_symmetry_space_group_name_H-M	'P1'
_symmetry_Int_Tables_number	1
_symmetry_cell_setting	triclinic
loop_
_symmetry_equiv_pos_as_xyz
  x,y,z
_cell_length_a	13.339070
_cell_length_b	15.995350
_cell_length_c	12.376457
_cell_angle_alpha	101.278656
_cell_angle_beta	75.589755
_cell_angle_gamma	99.560835
loop_
_atom_site_label
_atom_site_type_symbol
_atom_site_fract_x
_atom_site_fract_y
_atom_site_fract_z
O1	O	1.361687	0.408219	-0.094025
O2	O	1.067160	0.353123	-0.094021
O3	O	1.222474	0.260654	-0.094022
O4	O	1.206373	0.500688	-0.094024
O5	O	1.183660	0.283730	0.093990
O6	O	1.028345	0.376200	0.093991
O7	O	1.322873	0.431295	0.093987
Zn8	Zn	1.169446	0.407411	0.123840
Zn9	Zn	1.220586	0.377007	-0.123874
O10	O	1.167558	0.523765	0.093988
C11	C	1.010063	0.355354	-0.000015
C12	C	0.897761	0.327613	-0.000013
C13	C	0.532972	0.543314	-0.000033
C14	C	0.638486	0.569381	-0.000038
C15	C	0.703309	0.508941	-0.000031
C16	C	0.662609	0.422430	-0.000021
C17	C	0.557087	0.396360	-0.000025
C18	C	0.727425	0.361987	-0.000023
C19	C	0.686725	0.275476	-0.000013
C20	C	0.581212	0.249410	-0.000016
C21	C	0.516389	0.309850	-0.000023
C22	C	0.832947	0.388057	-0.000019
C23	C	0.857062	0.241103	-0.000011
C24	C	0.751549	0.215036	-0.000006
C25	C	1.202402	0.240842	-0.000018
C26	C	1.200407	0.147428	-0.000025
C27	C	1.193239	-0.191985	-0.000021
C28	C	1.082714	-0.170299	-0.000441
C29	C	1.084622	-0.073093	-0.000017
C30	C	1.196795	-0.023598	-0.000023
C31	C	1.229188	-0.038823	0.107338
C32	C	1.226391	-0.136094	0.107428
C33	C	1.272816	-0.162164	-0.106377
C34	C	1.273082	-0.065398	-0.107796
C35	C	1.198810	0.071568	-0.000021
C36	C	1.191226	-0.287149	-0.000015
C37	C	1.379970	0.429064	-0.000022
C38	C	1.492273	0.456804	-0.000031
C39	C	1.187631	0.543576	-0.000018
C40	C	1.189627	0.636990	-0.000019
N41	N	1.134551	0.428163	0.292899
N42	N	1.255489	0.356251	-0.292933
C43	C	1.336490	0.308063	0.647882
C44	C	1.360907	0.293538	0.529542
C45	C	1.304320	0.327193	0.470376
C46	C	1.223312	0.375376	0.529561
C47	C	1.198898	0.389908	0.647912
C48	C	1.166728	0.409038	0.470405
C49	C	1.085720	0.457221	0.529590
C50	C	1.061310	0.471751	0.647930
C51	C	1.117897	0.438096	0.707097
C52	C	1.191142	0.394505	0.352054
C53	C	1.053550	0.476350	0.352084
C54	C	1.029133	0.490876	0.470424
H55	H	0.718397	0.144597	-0.000007
H56	H	1.025532	-0.045796	0.077076
N57	N	1.332623	-0.153037	0.113883
H58	H	1.381059	-0.097343	0.116663
H59	H	1.326191	-0.178404	0.184254
N60	N	0.926974	0.175915	0.000005
H61	H	0.899491	0.147811	0.069702
H62	H	0.928259	0.130752	-0.069737
N63	N	1.048860	-0.061146	-0.101955
H64	H	1.031709	-0.119123	-0.147571
H65	H	0.984722	-0.030297	-0.076220
H66	H	1.324204	0.315364	0.374018
H67	H	0.866073	0.458495	-0.000023
H68	H	1.257099	0.355275	0.303876
N69	N	1.383214	-0.020940	-0.116397
H70	H	1.385226	0.027140	-0.050257
H71	H	1.430741	-0.063680	-0.115478
N72	N	1.091558	0.453764	0.834739
H73	H	1.139696	0.425128	0.863234
H74	H	1.100377	0.517589	0.863151
H75	H	1.354519	-0.175067	-0.107103
N76	N	0.402575	0.281748	0.000002
H77	H	0.386803	0.295765	-0.069688
H78	H	0.386691	0.217779	0.000051
N79	N	0.973936	0.523716	0.711764
H80	H	1.002453	0.575820	0.760856
H81	H	0.941825	0.542765	0.656254
N82	N	1.247175	-0.213727	-0.214171
H83	H	1.183709	-0.256947	-0.195148
H84	H	1.232425	-0.173851	-0.260759
H85	H	1.007473	0.503757	0.303911
N86	N	0.537314	0.156103	-0.000019
H87	H	0.594386	0.121769	-0.000013
H88	H	0.479667	0.150644	0.069678
N89	N	1.045192	-0.220969	-0.102417
H90	H	1.099471	-0.258475	-0.149335
H91	H	0.977692	-0.258198	-0.076699
N92	N	0.682375	0.662684	-0.000030
H93	H	0.759055	0.670028	-0.000028
H94	H	0.673056	0.681660	-0.069729
H95	H	1.426864	0.254309	0.481358
N96	N	1.242027	-0.054413	-0.213001
H97	H	1.245332	0.008799	-0.215146
H98	H	1.291385	-0.081469	-0.281983
N99	N	0.817110	0.537052	-0.000016
H100	H	0.861660	0.505928	-0.069705
H101	H	0.832964	0.601032	0.000024
N102	N	0.941772	0.542853	0.534267
H103	H	0.909625	0.561971	0.478836
H104	H	0.886927	0.506413	0.583380
H105	H	0.480186	0.592513	-0.000048
N106	N	1.003467	-0.197344	0.100973
H107	H	1.038849	-0.223582	0.147186
H108	H	0.971529	-0.145485	0.148830
H109	H	1.170038	-0.153787	0.187687
H110	H	1.310774	-0.005063	0.111327
N111	N	1.157152	0.000085	0.213188
H112	H	1.198964	0.045057	0.259392
H113	H	1.103504	0.027556	0.191758
H114	H	1.382561	0.280671	0.696064
