data_functionalizedCrystal
_audit_creation_method	'MofGen! by Chris Wilmer'
_symmetry_space_group_name_H-M	'P1'
_symmetry_Int_Tables_number	1
_symmetry_cell_setting	triclinic
loop_
_symmetry_equiv_pos_as_xyz
  x,y,z
_cell_length_a	21.395362
_cell_length_b	18.050589
_cell_length_c	21.395356
_cell_angle_alpha	89.977927
_cell_angle_beta	89.957023
_cell_angle_gamma	90.044101
loop_
_atom_site_label
_atom_site_type_symbol
_atom_site_fract_x
_atom_site_fract_y
_atom_site_fract_z
Zn1	Zn	0.957864	-0.295363	-0.354610
Zn2	Zn	1.457864	0.204637	0.145390
Zn3	Zn	0.957773	-0.419555	-0.249843
Zn4	Zn	1.457773	0.080445	0.250157
Zn5	Zn	0.853081	-0.295418	-0.249811
Zn6	Zn	1.353081	0.204582	0.250189
Zn7	Zn	0.853053	-0.419551	-0.354548
Zn8	Zn	1.353053	0.080449	0.145452
O9	O	0.905443	-0.357472	-0.302203
O10	O	1.405443	0.142528	0.197797
O11	O	1.045530	-0.311817	-0.340752
O12	O	1.545530	0.188183	0.159248
O13	O	0.943859	-0.403113	-0.162161
O14	O	1.443859	0.096887	0.337839
O15	O	0.867031	-0.191486	-0.263726
O16	O	1.367031	0.308514	0.236274
O17	O	1.045463	-0.403060	-0.263780
O18	O	1.545463	0.096940	0.236220
O19	O	0.944015	-0.191446	-0.340721
O20	O	1.444015	0.308554	0.159279
O21	O	0.866942	-0.311910	-0.162138
O22	O	1.366942	0.188090	0.337862
O23	O	0.765399	-0.311905	-0.263665
O24	O	1.265399	0.188095	0.236335
O25	O	0.866983	-0.403052	-0.442234
O26	O	1.366983	0.096948	0.057766
O27	O	0.765379	-0.403105	-0.340615
O28	O	1.265379	0.096895	0.159385
O29	O	0.943987	-0.311812	-0.442280
O30	O	1.443987	0.188188	0.057720
O31	O	0.943832	-0.523479	-0.263719
O32	O	1.443832	-0.023479	0.236281
O33	O	0.866895	-0.523476	-0.340645
O34	O	1.366895	-0.023476	0.159355
C35	C	0.742655	-0.357511	-0.302130
C36	C	1.242655	0.142489	0.197870
C37	C	0.673014	-0.357546	-0.302114
C38	C	1.173014	0.142454	0.197886
C39	C	0.640307	-0.405096	-0.342121
C40	C	1.140307	0.094904	0.157879
C41	C	0.574871	-0.405078	-0.342149
C42	C	1.074871	0.094922	0.157851
C43	C	0.542146	-0.357517	-0.302159
C44	C	1.042146	0.142483	0.197841
C45	C	0.574861	-0.309957	-0.262148
C46	C	1.074861	0.190043	0.237852
C47	C	0.640295	-0.309972	-0.262126
C48	C	1.140295	0.190028	0.237874
C49	C	0.438422	-0.351545	-0.245753
C50	C	0.938422	0.148455	0.254247
C51	C	0.372989	-0.351536	-0.245774
C52	C	0.872989	0.148464	0.254226
C53	C	0.340325	-0.357469	-0.302228
C54	C	0.840325	0.142531	0.197772
C55	C	0.373102	-0.363426	-0.358662
C56	C	0.873102	0.136574	0.141338
C57	C	0.438536	-0.363440	-0.358640
C58	C	0.938536	0.136560	0.141360
C59	C	0.471193	-0.357496	-0.302179
C60	C	0.971193	0.142504	0.197821
C61	C	0.236665	-0.405002	-0.342269
C62	C	0.736665	0.094998	0.157731
C63	C	0.171228	-0.404979	-0.342298
C64	C	0.671228	0.095021	0.157702
C65	C	0.171220	-0.309862	-0.262291
C66	C	0.671220	0.190138	0.237709
C67	C	0.236655	-0.309881	-0.262268
C68	C	0.736655	0.190119	0.237732
C69	C	0.269374	-0.357455	-0.302256
C70	C	0.769374	0.142545	0.197744
C71	C	0.905367	-0.550424	-0.302192
C72	C	1.405367	-0.050424	0.197808
C73	C	0.905392	-0.632970	-0.302209
C74	C	1.405392	-0.132970	0.197791
C75	C	0.863595	-0.832445	-0.344027
C76	C	1.363595	-0.332445	0.155973
C77	C	0.848318	-0.881889	-0.286848
C78	C	1.348318	-0.381889	0.213152
C79	C	0.905454	-0.784100	-0.302217
C80	C	1.405454	-0.284100	0.197783
C81	C	0.920762	-0.881738	-0.359402
C82	C	1.420762	-0.381738	0.140598
C83	C	0.905512	-0.930085	-0.302230
C84	C	1.405512	-0.430085	0.197770
C85	C	0.890147	-0.832456	-0.245009
C86	C	1.390147	-0.332456	0.254991
C87	C	0.962617	-0.832301	-0.317601
C88	C	1.462617	-0.332301	0.182399
C89	C	0.947362	-0.881722	-0.260383
C90	C	1.447362	-0.381722	0.239617
C91	C	0.905419	-0.700002	-0.302211
C92	C	1.405419	-0.200002	0.197789
C93	C	0.905547	-1.014182	-0.302230
C94	C	1.405547	-0.514182	0.197770
C95	C	1.068866	-0.357433	-0.302276
C96	C	1.568866	0.142567	0.197724
C97	C	1.138508	-0.357416	-0.302307
C98	C	1.638508	0.142584	0.197693
C99	C	0.905492	-0.357426	-0.465626
C100	C	1.405492	0.142574	0.034374
C101	C	0.905513	-0.357406	-0.535268
C102	C	1.405513	0.142594	-0.035268
C103	C	0.905536	-0.163766	-0.302227
C104	C	1.405536	0.336234	0.197773
C105	C	0.905576	-0.081220	-0.302237
C106	C	1.405576	0.418780	0.197763
C107	C	0.865473	-0.309911	-0.567959
C108	C	1.365473	0.190089	-0.067959
C109	C	0.865471	-0.309898	-0.633394
C110	C	1.365471	0.190102	-0.133394
C111	C	0.905520	-0.357371	-0.666136
C112	C	1.405520	0.142629	-0.166136
C113	C	0.945563	-0.404875	-0.633437
C114	C	1.445563	0.095125	-0.133437
C115	C	0.945559	-0.404892	-0.568003
C116	C	1.445559	0.095108	-0.068003
C117	C	0.961972	-0.363191	-0.769842
C118	C	1.461972	0.136809	-0.269842
C119	C	0.961977	-0.363168	-0.835275
C120	C	1.461977	0.136832	-0.335275
C121	C	0.905530	-0.357321	-0.867957
C122	C	1.405530	0.142679	-0.367957
C123	C	0.849078	-0.351480	-0.835198
C124	C	1.349078	0.148520	-0.335198
C125	C	0.849074	-0.351498	-0.769764
C126	C	1.349074	0.148502	-0.269764
C127	C	0.905528	-0.357357	-0.737088
C128	C	1.405528	0.142643	-0.237088
C129	C	0.865485	-0.309808	-0.971601
C130	C	1.365485	0.190192	-0.471601
C131	C	0.865482	-0.309800	-1.037037
C132	C	1.365482	0.190200	-0.537037
C133	C	0.945579	-0.404773	-1.037079
C134	C	1.445579	0.095227	-0.537079
C135	C	0.945577	-0.404786	-0.971643
C136	C	1.445577	0.095214	-0.471643
C137	C	0.905530	-0.357299	-0.938908
C138	C	1.405530	0.142701	-0.438908
C139	C	0.905430	-0.357464	-0.139415
C140	C	1.405430	0.142536	0.360585
C141	C	0.905530	-0.357274	-0.069774
C142	C	1.405530	0.142726	0.430226
H143	H	0.465221	-0.368289	-0.404590
H144	H	0.965221	0.131711	0.095410
H145	H	0.828144	-0.810807	-0.379334
H146	H	1.328144	-0.310807	0.120666
H147	H	0.832872	-0.271126	-1.063653
H148	H	1.332872	0.228874	-0.563653
H149	H	0.548236	-0.443799	-0.374731
H150	H	1.048236	0.056201	0.125269
O151	O	0.937888	-0.910411	-0.423453
O152	O	1.437888	-0.410411	0.076547
H153	H	0.903041	-0.890675	-0.458058
H154	H	1.403041	-0.390675	0.041942
O155	O	0.994285	-0.910206	-0.213504
O156	O	1.494285	-0.410206	0.286496
H157	H	1.030057	-0.943978	-0.237980
H158	H	1.530057	-0.443978	0.262020
H159	H	0.800004	-0.903686	-0.273849
H160	H	1.300004	-0.403686	0.226151
H161	H	0.978171	-0.443528	-0.660099
H162	H	1.478171	0.056472	-0.160099
H163	H	0.877166	-0.810898	-0.196640
H164	H	1.377166	-0.310898	0.303360
O165	O	0.337884	-0.369819	-0.419559
O166	O	0.837884	0.130181	0.080441
H167	H	0.286877	-0.368798	-0.410098
H168	H	0.786877	0.131202	0.089902
O169	O	0.988759	-0.456112	-0.532742
O170	O	1.488759	0.043888	-0.032742
H171	H	0.977993	-0.514399	-0.545285
H172	H	1.477993	-0.014399	-0.045285
O173	O	0.675598	-0.456396	-0.385258
O174	O	1.175598	0.043604	0.114742
H175	H	0.641856	-0.489452	-0.413087
H176	H	1.141856	0.010548	0.086913
O177	O	0.271962	-0.456301	-0.385404
O178	O	0.771962	0.043699	0.114596
H179	H	0.238222	-0.489354	-0.413238
H180	H	0.738222	0.010646	0.086762
O181	O	0.271929	-0.258600	-0.219103
O182	O	0.771929	0.241400	0.280897
H183	H	0.301799	-0.220857	-0.247185
H184	H	0.801799	0.279143	0.252815
H185	H	0.144599	-0.443699	-0.374881
H186	H	0.644599	0.056301	0.125119
O187	O	0.135934	-0.258567	-0.219151
O188	O	0.635934	0.241433	0.280849
H189	H	0.084938	-0.266550	-0.225883
H190	H	0.584938	0.233450	0.274117
O191	O	1.026672	-0.803592	-0.334782
O192	O	1.526672	-0.303592	0.165218
H193	H	1.039278	-0.823353	-0.382263
H194	H	1.539278	-0.323353	0.117737
O195	O	0.539570	-0.258674	-0.219000
O196	O	1.039570	0.241326	0.281000
H197	H	0.488574	-0.266663	-0.225727
H198	H	0.988574	0.233337	0.274273
O199	O	0.822287	-0.258692	-0.532650
O200	O	1.322287	0.241308	-0.032650
H201	H	0.794444	-0.225663	-0.566380
H202	H	1.294444	0.274337	-0.066380
O203	O	1.022864	-0.369459	-0.870603
O204	O	1.522864	0.130541	-0.370603
H205	H	1.021846	-0.419756	-0.900414
H206	H	1.521846	0.080244	-0.400414
O207	O	0.788193	-0.345194	-0.734428
O208	O	1.288193	0.154806	-0.234428
H209	H	0.748940	-0.341125	-0.768141
H210	H	1.248940	0.158875	-0.268141
O211	O	0.822290	-0.258663	-0.668667
O212	O	1.322290	0.241337	-0.168667
H213	H	0.794447	-0.225642	-0.634911
H214	H	1.294447	0.274358	-0.134911
H215	H	0.346307	-0.346690	-0.199822
H216	H	0.846307	0.153310	0.300178
O217	O	0.788188	-0.345180	-0.870435
O218	O	1.288188	0.154820	-0.370435
H219	H	0.797671	-0.346160	-0.921439
H220	H	1.297671	0.153840	-0.421439
H221	H	0.832876	-0.271143	-0.944946
H222	H	1.332876	0.228857	-0.444946
O223	O	0.988778	-0.455978	-1.072382
O224	O	1.488778	0.044022	-0.572382
H225	H	0.982057	-0.447985	-1.123376
H226	H	1.482057	0.052015	-0.623376
O227	O	0.988776	-0.455996	-0.936377
O228	O	1.488776	0.044004	-0.436377
H229	H	1.016632	-0.488998	-0.970135
H230	H	1.516632	0.011002	-0.470135
O231	O	0.473651	-0.345148	-0.184860
O232	O	0.973651	0.154852	0.315140
H233	H	0.439868	-0.341015	-0.145623
H234	H	0.939868	0.158985	0.354377
H235	H	0.666925	-0.271248	-0.229547
H236	H	1.166925	0.228752	0.270453
O237	O	1.022858	-0.369493	-0.734593
O238	O	1.522858	0.130507	-0.234593
H239	H	1.062112	-0.373537	-0.768363
H240	H	1.562112	0.126463	-0.268363
