data_functionalizedCrystal
_audit_creation_method	'MofGen! by Chris Wilmer'
_symmetry_space_group_name_H-M	'P1'
_symmetry_Int_Tables_number	1
_symmetry_cell_setting	triclinic
loop_
_symmetry_equiv_pos_as_xyz
  x,y,z
_cell_length_a	17.639617
_cell_length_b	17.640280
_cell_length_c	17.639306
_cell_angle_alpha	87.821350
_cell_angle_beta	65.670249
_cell_angle_gamma	87.821186
loop_
_atom_site_label
_atom_site_type_symbol
_atom_site_fract_x
_atom_site_fract_y
_atom_site_fract_z
Zn1	Zn	1.383751	-0.175192	-0.691745
Zn2	Zn	1.373154	-0.278154	-0.536639
Zn3	Zn	1.218069	-0.175164	-0.526043
Zn4	Zn	1.270217	-0.319687	-0.639537
O5	O	1.311298	-0.237049	-0.598491
O6	O	1.494763	-0.171480	-0.697454
O7	O	1.326323	-0.247099	-0.422824
O8	O	1.222657	-0.071593	-0.565438
O9	O	1.486977	-0.247126	-0.583499
O10	O	1.344383	-0.071614	-0.687179
O11	O	1.212382	-0.171432	-0.415038
O12	O	1.112569	-0.211705	-0.514814
O13	O	1.311537	-0.317913	-0.758872
O14	O	1.150882	-0.317886	-0.598197
O15	O	1.394949	-0.211753	-0.797230
O16	O	1.376889	-0.387237	-0.532874
O17	O	1.301262	-0.417752	-0.608472
C18	C	1.102577	-0.269300	-0.549691
C19	C	1.013293	-0.283118	-0.528830
C20	C	0.740039	-0.132092	-0.757171
C21	C	0.656142	-0.145092	-0.737549
C22	C	0.647996	-0.223682	-0.618766
C23	C	0.731895	-0.210692	-0.638379
C24	C	0.777909	-0.164896	-0.707583
C25	C	0.769765	-0.243496	-0.588791
C26	C	0.853656	-0.230503	-0.608401
C27	C	0.899675	-0.184707	-0.677599
C28	C	0.861800	-0.151903	-0.727193
C29	C	0.723748	-0.289288	-0.519585
C30	C	0.761618	-0.322091	-0.469997
C31	C	0.845512	-0.309103	-0.489610
C32	C	0.891532	-0.263307	-0.558808
C33	C	0.883388	-0.341907	-0.440017
C34	C	0.967278	-0.328914	-0.459627
C35	C	0.975422	-0.250314	-0.578418
C36	C	1.343610	-0.429349	-0.566180
C37	C	1.357513	-0.511609	-0.552401
C38	C	1.206075	-0.861711	-0.703535
C39	C	1.219135	-0.939002	-0.690563
C40	C	1.297973	-0.907169	-0.611961
C41	C	1.284924	-0.829873	-0.624930
C42	C	1.238973	-0.807151	-0.670717
C43	C	1.317822	-0.775313	-0.592112
C44	C	1.304769	-0.698024	-0.605077
C45	C	1.258819	-0.675296	-0.650860
C46	C	1.225921	-0.729862	-0.683682
C47	C	1.363767	-0.798037	-0.546321
C48	C	1.396665	-0.743477	-0.513503
C49	C	1.383618	-0.666187	-0.526472
C50	C	1.337667	-0.643458	-0.572255
C51	C	1.416516	-0.611620	-0.493650
C52	C	1.403464	-0.534331	-0.506615
C53	C	1.324615	-0.566169	-0.585219
C54	C	1.520834	-0.204673	-0.647482
C55	C	1.610125	-0.190876	-0.668359
C56	C	1.360242	-0.269469	-0.808013
C57	C	1.381099	-0.283284	-0.897298
C58	C	1.278885	-0.043997	-0.630951
C59	C	1.265073	0.038270	-0.644783
C60	C	1.153114	-0.131771	-1.170705
C61	C	1.172733	-0.144766	-1.254604
C62	C	1.291367	-0.223549	-1.262690
C63	C	1.271760	-0.210559	-1.178791
C64	C	1.202632	-0.164670	-1.132805
C65	C	1.321278	-0.243457	-1.140891
C66	C	1.301670	-0.230470	-1.056998
C67	C	1.232543	-0.184585	-1.011005
C68	C	1.183024	-0.151683	-1.048912
C69	C	1.390402	-0.289350	-1.186877
C70	C	1.439920	-0.322248	-1.148977
C71	C	1.420316	-0.309257	-1.065084
C72	C	1.351189	-0.263372	-1.019091
C73	C	1.469835	-0.342160	-1.027177
C74	C	1.450227	-0.329173	-0.943285
C75	C	1.331581	-0.250386	-0.935199
C76	C	1.262581	-0.204695	-0.389804
C77	C	1.241844	-0.190647	-0.300590
H78	H	0.845908	-0.379188	-0.383667
F79	F	1.346877	-0.931360	-0.563234
H80	H	1.526114	-0.379529	-1.064630
F81	F	1.502927	-0.364190	-0.902945
H82	H	1.216575	-0.174018	-0.942692
F83	F	1.120040	-0.109726	-1.294945
F84	F	1.177023	-0.705676	-0.732422
F85	F	1.024401	-0.201578	-0.652077
H86	H	0.967983	-0.174126	-0.693562
H87	H	0.899269	-0.114614	-0.783547
F88	F	1.184107	-0.997069	-0.725487
H89	H	1.496202	-0.359614	-1.186429
F90	F	1.438470	-0.476261	-0.471679
H91	H	1.406366	-0.299920	-1.255189
F92	F	1.377685	-0.880296	-0.532551
F93	F	1.364933	-0.272389	-1.311639
H94	H	1.168665	-0.843211	-0.740827
H95	H	0.777508	-0.094803	-0.813525
F96	F	1.445569	-0.767669	-0.464776
F97	F	1.465412	-0.635813	-0.444916
H98	H	1.275297	-0.213010	-0.897757
H99	H	0.610518	-0.260967	-0.562418
F100	F	0.615839	-0.110170	-0.790331
H101	H	0.998113	-0.355626	-0.419247
F102	F	1.079546	-0.082923	-1.121761
F103	F	0.634461	-0.303110	-0.498712
H104	H	0.724141	-0.359376	-0.413649
F105	F	1.275717	-0.541983	-0.633960
F106	F	1.109456	-0.102834	-0.999968
H107	H	1.248186	-0.612361	-0.661408
