data_functionalizedCrystal
_audit_creation_method	'MofGen! by Chris Wilmer'
_symmetry_space_group_name_H-M	'P1'
_symmetry_Int_Tables_number	1
_symmetry_cell_setting	triclinic
loop_
_symmetry_equiv_pos_as_xyz
  x,y,z
_cell_length_a	15.297327
_cell_length_b	13.897449
_cell_length_c	15.296720
_cell_angle_alpha	80.339649
_cell_angle_beta	107.319222
_cell_angle_gamma	80.293069
loop_
_atom_site_label
_atom_site_type_symbol
_atom_site_fract_x
_atom_site_fract_y
_atom_site_fract_z
Zn1	Zn	-0.461232	-1.280053	-0.589856
Zn2	Zn	-0.589854	-1.279944	-0.461250
Zn3	Zn	-0.434359	-1.152513	-0.434371
Zn4	Zn	-0.616695	-1.084964	-0.616691
O5	O	-0.525535	-1.199368	-0.525542
O6	O	-0.478307	-1.415014	-0.572814
O7	O	-0.546747	-1.291263	-0.327561
O8	O	-0.307787	-1.197746	-0.432517
O9	O	-0.572805	-1.414934	-0.478328
O10	O	-0.327530	-1.291450	-0.546751
O11	O	-0.432506	-1.197640	-0.307813
O12	O	-0.458533	-1.008576	-0.458538
O13	O	-0.618552	-1.082620	-0.743255
O14	O	-0.592494	-0.958949	-0.592487
O15	O	-0.504334	-1.225951	-0.723539
O16	O	-0.723551	-1.225764	-0.504349
O17	O	-0.743271	-1.082513	-0.618551
C18	C	-0.525511	-0.948765	-0.525509
C19	C	-0.525527	-0.841546	-0.525520
C20	C	-0.767157	-1.146819	-0.567299
C21	C	-0.870530	-1.124419	-0.585194
C22	C	-1.120753	-1.359790	-0.397962
C23	C	-1.023629	-1.380835	-0.381144
C24	C	-0.985349	-1.316734	-0.432155
C25	C	-1.044204	-1.231581	-0.499987
C26	C	-1.141337	-1.210529	-0.516801
C27	C	-1.005933	-1.167473	-0.550994
C28	C	-1.064787	-1.082321	-0.618826
C29	C	-1.161911	-1.061273	-0.635638
C30	C	-1.200190	-1.125375	-0.584626
C31	C	-0.908800	-1.188525	-0.534180
C32	C	-0.929383	-1.039265	-0.653019
C33	C	-1.026508	-1.018219	-0.669837
C34	C	-0.525529	-0.645247	-0.525537
C35	C	-0.525525	-0.754483	-0.525525
C36	C	-0.282972	-1.252145	-0.483642
C37	C	-0.179607	-1.274635	-0.465787
C38	C	-0.567434	-1.146763	-0.768080
C39	C	-0.585290	-1.124345	-0.871435
C40	C	-0.525552	-0.450954	-0.525566
C41	C	-0.525539	-0.558173	-0.525551
C42	C	-0.397759	-1.359660	-1.121718
C43	C	-0.380984	-1.380728	-1.024611
C44	C	-0.432059	-1.316634	-0.986312
C45	C	-0.499911	-1.231469	-1.045130
C46	C	-0.516692	-1.210403	-1.142247
C47	C	-0.550993	-1.167377	-1.006841
C48	C	-0.618845	-1.082211	-1.065659
C49	C	-0.635622	-1.061149	-1.162767
C50	C	-0.584548	-1.125243	-1.201066
C51	C	-0.534211	-1.188443	-0.909724
C52	C	-0.653145	-1.039185	-0.930253
C53	C	-0.669919	-1.018118	-1.027360
C54	C	-0.483731	-1.251839	-0.283936
C55	C	-0.465614	-1.274501	-0.180536
H56	H	-0.860889	-1.257857	-0.478951
F57	F	-0.414203	-1.339058	-0.882961
H58	H	-0.694736	-0.986996	-0.899072
H59	H	-0.898217	-0.987066	-0.694555
F60	F	-0.343417	-1.427869	-1.162486
F61	F	-0.602401	-1.102828	-1.304420
F62	F	-0.707850	-0.970519	-1.225365
H63	H	-0.325741	-1.450072	-0.976728
F64	F	-0.462000	-1.279079	-0.847137
H65	H	-0.975713	-1.450165	-0.325916
H66	H	-1.151929	-1.411967	-0.356431
H67	H	-0.725165	-0.948775	-1.075263
H68	H	-1.279276	-1.108246	-0.598318
H69	H	-0.906265	-1.333874	-0.418457
F70	F	-1.224545	-0.970643	-0.707826
H71	H	-1.074440	-0.948887	-0.725066
