data_functionalizedCrystal
_audit_creation_method	'MofGen! by Chris Wilmer'
_symmetry_space_group_name_H-M	'P1'
_symmetry_Int_Tables_number	1
_symmetry_cell_setting	triclinic
loop_
_symmetry_equiv_pos_as_xyz
  x,y,z
_cell_length_a	19.188925
_cell_length_b	19.188930
_cell_length_c	13.101039
_cell_angle_alpha	93.345801
_cell_angle_beta	86.652915
_cell_angle_gamma	83.143665
loop_
_atom_site_label
_atom_site_type_symbol
_atom_site_fract_x
_atom_site_fract_y
_atom_site_fract_z
O1	O	0.930001	0.083283	-0.085248
O2	O	0.726690	0.095021	-0.085246
O3	O	0.834212	-0.012503	-0.085227
O4	O	0.822479	0.190807	-0.085267
O5	O	0.826497	-0.004776	0.085201
O6	O	0.718975	0.102748	0.085182
O7	O	0.922287	0.091010	0.085181
Zn8	Zn	0.819406	0.098106	0.112241
Zn9	Zn	0.829570	0.087925	-0.112306
O10	O	0.814765	0.198534	0.085161
C11	C	0.696821	0.098505	-0.000032
C12	C	0.619316	0.097366	-0.000030
C13	C	0.057547	0.152829	-0.000044
C14	C	0.130370	0.153906	-0.000049
C15	C	0.175304	0.090814	-0.000035
C16	C	0.147410	0.026640	-0.000042
C17	C	0.074588	0.025566	-0.000046
N18	N	0.293355	0.047769	0.057989
N19	N	0.362532	0.048794	0.057995
C20	C	0.394713	0.094049	-0.000024
N21	N	0.355101	0.138250	-0.058037
N22	N	0.285917	0.137227	-0.058039
C23	C	0.254268	0.091973	-0.000031
C24	C	0.501562	0.159385	-0.000031
C25	C	0.574387	0.160458	-0.000043
C26	C	0.591426	0.033192	-0.000025
C27	C	0.518602	0.032120	-0.000023
C28	C	0.473674	0.095219	-0.000021
C29	C	0.829974	-0.034650	-0.000010
C30	C	0.828833	-0.112154	-0.000001
C31	C	0.891924	-0.157079	0.000003
C32	C	0.890853	-0.229904	-0.000013
C33	C	0.826687	-0.257799	-0.000013
C34	C	0.763588	-0.212865	-0.000024
C35	C	0.764661	-0.140042	-0.000017
N36	N	0.775014	-0.363173	0.057987
N37	N	0.773999	-0.432352	0.057983
C38	C	0.823450	-0.477209	-0.000034
N39	N	0.873964	-0.450274	-0.058035
N40	N	0.874981	-0.381089	-0.058027
C41	C	0.825516	-0.336762	-0.000021
C42	C	0.885384	-0.601099	-0.000049
C43	C	0.884310	-0.673925	-0.000072
C44	C	0.757043	-0.656883	-0.000072
C45	C	0.758119	-0.584060	-0.000059
C46	C	0.822291	-0.556172	-0.000043
C47	C	0.952155	0.087526	-0.000036
C48	C	1.029660	0.088664	-0.000044
C49	C	0.819002	0.220681	-0.000058
C50	C	0.820144	0.298185	-0.000074
N51	N	0.812474	0.105054	0.265488
N52	N	0.836508	0.080971	-0.265554
C53	C	0.803043	0.114513	0.474529
C54	C	0.845936	0.071514	0.525412
C55	C	0.840689	0.076777	0.641730
C56	C	0.808290	0.109251	0.358201
H57	H	0.153079	0.206158	-0.000039
H58	H	0.942231	-0.266489	-0.000013
Br59	Br	0.208390	-0.058985	-0.000031
H60	H	0.051885	-0.026687	-0.000047
H61	H	0.628011	-0.018179	-0.000021
H62	H	0.886600	0.030749	0.481617
H63	H	0.464980	0.210764	-0.000031
H64	H	0.762383	0.155277	0.518319
H65	H	0.944178	-0.134378	0.000013
Br66	Br	-0.003423	0.238462	-0.000053
H67	H	0.495897	-0.020130	-0.000017
H68	H	0.597090	0.212711	-0.000051
Br69	Br	0.676505	-0.250721	-0.000037
H70	H	0.713283	-0.103463	-0.000021
H71	H	0.937636	-0.578392	-0.000040
H72	H	0.935689	-0.710503	-0.000074
H73	H	0.704798	-0.679595	-0.000077
Br74	Br	0.672490	-0.523086	-0.000064
