data_functionalizedCrystal
_audit_creation_method	'MofGen! by Chris Wilmer'
_symmetry_space_group_name_H-M	'P1'
_symmetry_Int_Tables_number	1
_symmetry_cell_setting	triclinic
loop_
_symmetry_equiv_pos_as_xyz
  x,y,z
_cell_length_a	19.077269
_cell_length_b	16.120444
_cell_length_c	19.076919
_cell_angle_alpha	84.952692
_cell_angle_beta	85.330942
_cell_angle_gamma	90.514064
loop_
_atom_site_label
_atom_site_type_symbol
_atom_site_fract_x
_atom_site_fract_y
_atom_site_fract_z
Zn1	Zn	1.043833	-0.399339	0.373069
Zn2	Zn	1.042506	-0.533369	0.261162
Zn3	Zn	0.931170	-0.388596	0.259457
Zn4	Zn	0.919939	-0.533328	0.383743
O5	O	0.984362	-0.463658	0.319358
O6	O	1.142102	-0.421632	0.354470
O7	O	1.031882	-0.509686	0.162088
O8	O	0.951370	-0.273358	0.269348
O9	O	1.141127	-0.520103	0.272252
O10	O	1.034143	-0.281251	0.352817
O11	O	0.950083	-0.403322	0.160836
O12	O	0.831235	-0.403281	0.279698
O13	O	0.932229	-0.520032	0.481174
O14	O	0.822984	-0.509615	0.371010
O15	O	1.023253	-0.421591	0.473332
O16	O	1.020992	-0.650027	0.282603
O17	O	0.930942	-0.649996	0.372662
C18	C	0.801584	-0.455279	0.326328
C19	C	0.723389	-0.451715	0.329327
C20	C	0.686149	-0.501220	0.287859
C21	C	0.612676	-0.497872	0.290687
C22	C	0.576445	-0.445014	0.334979
C23	C	0.613690	-0.395507	0.376452
C24	C	0.687161	-0.398860	0.373628
C25	C	0.356763	-0.429502	0.348028
C26	C	0.283287	-0.426151	0.350847
C27	C	0.282278	-0.528517	0.265082
C28	C	0.355751	-0.531861	0.262259
C29	C	0.392990	-0.482358	0.303734
N30	N	0.501344	-0.441588	0.337869
N31	N	0.468089	-0.485788	0.300848
C32	C	0.974623	-0.680263	0.328990
C33	C	0.970520	-0.772931	0.333132
C34	C	1.005812	-0.983878	0.298016
C35	C	0.963042	-0.942593	0.340702
C36	C	0.967204	-0.848184	0.336489
C37	C	1.001651	-1.078295	0.302227
C38	C	1.167854	-0.472071	0.312361
C39	C	1.246047	-0.475656	0.309379
C40	C	0.976637	-0.472005	0.503599
C41	C	0.973344	-0.475562	0.582112
C42	C	0.994157	-0.246209	0.309702
C43	C	0.998332	-0.153545	0.305587
C44	C	0.992100	-0.455285	0.135828
C45	C	0.995539	-0.451499	0.057300
C46	C	1.019187	-0.425983	0.614916
C47	C	1.016085	-0.429322	0.688688
C48	C	0.967144	-0.482245	0.729654
C49	C	0.921296	-0.531826	0.696845
C50	C	0.924395	-0.528483	0.623075
C51	C	0.952791	-0.497737	0.950721
C52	C	0.949697	-0.501078	1.024496
C53	C	1.044485	-0.398572	1.016333
C54	C	1.047582	-0.395237	0.942562
C55	C	1.001733	-0.444815	0.909760
N56	N	0.963974	-0.485661	0.805060
N57	N	1.004900	-0.441394	0.834355
H58	H	0.582358	-0.538184	0.256919
H59	H	0.387074	-0.389193	0.381801
H60	H	1.081813	-0.358208	1.043049
H61	H	0.923298	-0.978150	0.380411
H62	H	1.045552	-0.948324	0.258309
C63	C	0.913094	-0.636299	0.935594
C64	C	0.902385	-0.552230	0.914678
H65	H	0.881972	-0.669938	0.913339
H66	H	0.904255	-0.645854	0.985387
H67	H	0.960316	-0.650120	0.922230
H68	H	0.855165	-0.538407	0.928047
H69	H	0.911219	-0.542670	0.864875
C70	C	1.107737	-0.425830	0.767549
C71	C	1.066468	-0.374820	0.724754
H72	H	1.138835	-0.392177	0.789819
H73	H	1.134226	-0.462072	0.739363
H74	H	1.078135	-0.457826	0.802497
H75	H	1.096069	-0.342828	0.689803
H76	H	1.039977	-0.338563	0.752942
H77	H	1.059042	-0.382890	0.581566
C78	C	1.140959	-0.294241	0.941907
C79	C	1.101377	-0.337057	0.897534
H80	H	1.174167	-0.258321	0.914106
H81	H	1.165023	-0.333101	0.971266
H82	H	1.110529	-0.262252	0.970433
H83	H	1.131807	-0.369052	0.869012
H84	H	1.077311	-0.298192	0.868163
H85	H	0.715643	-0.544259	0.251788
C86	C	0.622071	-0.294668	0.460949
C87	C	0.573867	-0.337408	0.425144
H88	H	0.597486	-0.258803	0.491012
H89	H	0.653440	-0.262636	0.427697
H90	H	0.647973	-0.333582	0.488430
H91	H	0.547969	-0.298494	0.397658
H92	H	0.542486	-0.369441	0.458400
C93	C	0.931374	-0.616527	1.112814
C94	C	0.895891	-0.559246	1.069532
H95	H	0.898157	-0.652436	1.140614
H96	H	0.958234	-0.587478	1.142900
H97	H	0.961786	-0.648524	1.084277
H98	H	0.865483	-0.527244	1.098069
H99	H	0.869020	-0.588298	1.039442
C100	C	0.879710	-0.672450	0.727125
C101	C	0.867498	-0.590001	0.741873
H102	H	0.846494	-0.708365	0.754920
H103	H	0.925914	-0.687361	0.737960
H104	H	0.874993	-0.677542	0.678494
H105	H	0.872221	-0.584908	0.790504
H106	H	0.821283	-0.575086	0.731043
C107	C	0.347371	-0.632712	0.177769
C108	C	0.395574	-0.589965	0.213571
H109	H	0.371958	-0.668583	0.147712
H110	H	0.321471	-0.593809	0.150288
H111	H	0.316000	-0.664746	0.211029
H112	H	0.426942	-0.557926	0.180311
H113	H	0.421487	-0.628873	0.241053
H114	H	0.887059	-0.568847	0.596367
H115	H	0.253790	-0.383101	0.386913
H116	H	0.717481	-0.358547	0.407395
C117	C	0.169204	-0.568838	0.231334
C118	C	0.241344	-0.582937	0.219502
H119	H	0.143934	-0.602444	0.203197
H120	H	0.160109	-0.511798	0.219041
H121	H	0.154644	-0.582726	0.279789
H122	H	0.255905	-0.569044	0.171048
H123	H	0.250443	-0.639991	0.231791
