data_functionalizedCrystal
_audit_creation_method	'MofGen! by Chris Wilmer'
_symmetry_space_group_name_H-M	'P1'
_symmetry_Int_Tables_number	1
_symmetry_cell_setting	triclinic
loop_
_symmetry_equiv_pos_as_xyz
  x,y,z
_cell_length_a	21.395362
_cell_length_b	13.897448
_cell_length_c	21.395355
_cell_angle_alpha	90.015629
_cell_angle_beta	90.043940
_cell_angle_gamma	90.033571
loop_
_atom_site_label
_atom_site_type_symbol
_atom_site_fract_x
_atom_site_fract_y
_atom_site_fract_z
Zn1	Zn	0.957916	-0.383718	0.354598
Zn2	Zn	1.457916	0.116282	0.854598
Zn3	Zn	0.957842	-0.544997	0.249826
Zn4	Zn	1.457842	-0.044997	0.749826
Zn5	Zn	0.853131	-0.383763	0.249799
Zn6	Zn	1.353131	0.116237	0.749799
Zn7	Zn	0.853124	-0.545017	0.354531
Zn8	Zn	1.353124	-0.045017	0.854531
O9	O	0.905503	-0.464374	0.302189
O10	O	1.405503	0.035626	0.802189
O11	O	1.045584	-0.405085	0.340739
O12	O	1.545584	0.094915	0.840739
O13	O	0.943924	-0.523620	0.162145
O14	O	1.443924	-0.023620	0.662145
O15	O	0.867065	-0.248775	0.263718
O16	O	1.367065	0.251225	0.763718
O17	O	1.045530	-0.523576	0.263764
O18	O	1.545530	-0.023576	0.763764
O19	O	0.944050	-0.248742	0.340714
O20	O	1.444050	0.251258	0.840714
O21	O	0.866993	-0.405161	0.162125
O22	O	1.366993	0.094839	0.662125
O23	O	0.765452	-0.405181	0.263653
O24	O	1.265452	0.094819	0.763653
O25	O	0.867053	-0.523610	0.442218
O26	O	1.367053	-0.023610	0.942218
O27	O	0.765447	-0.523654	0.340599
O28	O	1.265447	-0.023654	0.840599
O29	O	0.944043	-0.405104	0.442267
O30	O	1.444043	0.094896	0.942267
O31	O	0.943918	-0.679982	0.263698
O32	O	1.443918	-0.179982	0.763698
O33	O	0.866981	-0.679996	0.340624
O34	O	1.366981	-0.179996	0.840624
C35	C	0.742716	-0.464425	0.302116
C36	C	1.242716	0.035575	0.802116
C37	C	0.673074	-0.464470	0.302100
C38	C	1.173074	0.035530	0.802100
C39	C	0.905458	-0.714988	0.302170
C40	C	1.405458	-0.214988	0.802170
C41	C	0.905495	-0.822202	0.302184
C42	C	1.405495	-0.322202	0.802184
C43	C	0.640375	-0.526240	0.342105
C44	C	1.140375	-0.026240	0.842105
C45	C	0.574940	-0.526217	0.342133
C46	C	1.074940	-0.026217	0.842133
C47	C	0.542206	-0.464433	0.302144
C48	C	1.042206	0.035567	0.802144
C49	C	0.574913	-0.402650	0.262136
C50	C	1.074913	0.097350	0.762136
C51	C	0.640348	-0.402669	0.262114
C52	C	1.140348	0.097331	0.762114
C53	C	0.438480	-0.456662	0.245739
C54	C	0.938480	0.043338	0.745739
C55	C	0.373047	-0.456650	0.245760
C56	C	0.873047	0.043350	0.745760
C57	C	0.340385	-0.464370	0.302214
C58	C	0.840385	0.035630	0.802214
C59	C	0.373165	-0.472121	0.358647
C60	C	0.873165	0.027879	0.858647
C61	C	0.438599	-0.472140	0.358625
C62	C	0.938599	0.027860	0.858625
C63	C	0.471254	-0.464405	0.302164
C64	C	0.971254	0.035595	0.802164
C65	C	0.236734	-0.526118	0.342253
C66	C	0.736734	-0.026118	0.842253
C67	C	0.171297	-0.526088	0.342282
C68	C	0.671297	-0.026088	0.842282
C69	C	0.171272	-0.402526	0.262279
C70	C	0.671272	0.097474	0.762279
C71	C	0.236707	-0.402551	0.262255
C72	C	0.736707	0.097449	0.762255
C73	C	0.269434	-0.464352	0.302242
C74	C	0.769434	0.035648	0.802242
C75	C	0.905561	-1.018497	0.302223
C76	C	1.405561	-0.518497	0.802223
C77	C	0.905523	-0.909265	0.302203
C78	C	1.405523	-0.409265	0.802203
C79	C	1.068927	-0.464323	0.302262
C80	C	1.568927	0.035677	0.802262
C81	C	1.138568	-0.464302	0.302293
C82	C	1.638568	0.035698	0.802293
C83	C	0.905555	-0.464354	0.465612
C84	C	1.405555	0.035646	0.965612
C85	C	0.905578	-0.464346	0.535253
C86	C	1.405578	0.035654	1.035253
C87	C	0.905566	-0.212781	0.302221
C88	C	1.405566	0.287219	0.802221
C89	C	0.905593	-0.105567	0.302234
C90	C	1.405593	0.394433	0.802234
C91	C	0.905488	-0.464324	0.139401
C92	C	1.405488	0.035676	0.639401
C93	C	0.905587	-0.464060	0.069760
C94	C	1.405587	0.035940	0.569760
C95	C	0.945665	-0.402637	0.567993
C96	C	1.445665	0.097363	1.067993
C97	C	0.945664	-0.402596	0.633429
C98	C	1.445664	0.097404	1.133429
C99	C	0.905582	-0.464280	0.666122
C100	C	1.405582	0.035720	1.166122
C101	C	0.865488	-0.525993	0.633374
C102	C	1.365488	-0.025993	1.133374
C103	C	0.865485	-0.526026	0.567940
C104	C	1.365485	-0.026026	1.067940
C105	C	0.900619	-0.551135	0.769788
C106	C	1.400619	-0.051135	1.269788
C107	C	0.900626	-0.551103	0.835221
C108	C	1.400626	-0.051103	1.335221
C109	C	0.905586	-0.464178	0.867942
C110	C	1.405586	0.035822	1.367942
C111	C	0.910553	-0.377282	0.835223
C112	C	1.410553	0.122718	1.335223
C113	C	0.910550	-0.377315	0.769788
C114	C	1.410550	0.122685	1.269788
C115	C	0.905580	-0.464251	0.737074
C116	C	1.405580	0.035749	1.237074
C117	C	0.945675	-0.402419	0.971635
C118	C	1.445675	0.097581	1.471635
C119	C	0.945669	-0.402376	1.037072
C120	C	1.445669	0.097624	1.537072
C121	C	0.865496	-0.525782	1.037016
C122	C	1.365496	-0.025782	1.537016
C123	C	0.865498	-0.525817	0.971580
C124	C	1.365498	-0.025817	1.471580
C125	C	0.905591	-0.464137	0.938894
C126	C	1.405591	0.035863	1.438894
H127	H	0.667017	-0.576562	0.374666
H128	H	1.167017	-0.076562	0.874666
C129	C	0.895161	-0.646683	0.871207
C130	C	1.395161	-0.146683	1.371207
H131	H	0.892194	-0.698456	0.842350
H132	H	1.392194	-0.198456	1.342350
H133	H	0.931066	-0.655148	0.896760
H134	H	1.431066	-0.155148	1.396760
H135	H	0.858839	-0.645418	0.896706
H136	H	1.358839	-0.145418	1.396706
H137	H	0.978317	-0.352190	0.945020
H138	H	1.478317	0.147810	1.445020
H139	H	0.346573	-0.478406	0.404617
H140	H	0.846573	0.021594	0.904617
H141	H	0.914593	-0.306560	0.743151
H142	H	1.414593	0.193440	1.243151
C143	C	0.989768	-0.334494	1.073086
C144	C	1.489768	0.165506	1.573086
H145	H	1.013648	-0.297774	1.044245
H146	H	1.513648	0.202226	1.544245
H147	H	0.965815	-0.292455	1.098592
H148	H	1.465815	0.207545	1.598592
H149	H	1.017058	-0.371382	1.098633
H150	H	1.517058	0.128618	1.598633
C151	C	0.821409	-0.593704	0.935562
C152	C	1.321409	-0.093704	1.435562
H153	H	0.827144	-0.584884	0.891910
H154	H	1.327144	-0.084884	1.391910
H155	H	0.830561	-0.658505	0.946294
H156	H	1.330561	-0.158505	1.446294
H157	H	0.779313	-0.579588	0.946254
H158	H	1.279313	-0.079588	1.446254
H159	H	0.465068	-0.450372	0.199765
H160	H	0.965068	0.049628	0.699765
H161	H	0.548311	-0.576517	0.374713
H162	H	1.048311	-0.076517	0.874713
C163	C	0.135273	-0.334552	0.218300
C164	C	0.635273	0.165448	0.718300
H165	H	0.091619	-0.343387	0.224042
H166	H	0.591619	0.156613	0.724042
H167	H	0.146045	-0.269771	0.227545
H168	H	0.646045	0.230229	0.727545
H169	H	0.145938	-0.348573	0.176177
H170	H	0.645938	0.151427	0.676177
H171	H	0.346364	-0.450344	0.199808
H172	H	0.846364	0.049656	0.699808
H173	H	0.144674	-0.576387	0.374863
H174	H	0.644674	-0.076387	0.874863
C175	C	0.474654	-0.480652	0.420697
C176	C	0.974654	0.019348	0.920697
H177	H	0.445834	-0.485240	0.454325
H178	H	0.945834	0.014760	0.954325
H179	H	0.500153	-0.536567	0.419813
H180	H	1.000153	-0.036567	0.919813
H181	H	0.500210	-0.425380	0.426253
H182	H	1.000210	0.074620	0.926253
H183	H	0.263332	-0.352256	0.229675
H184	H	0.763332	0.147744	0.729675
H185	H	0.914593	-0.306499	0.861863
H186	H	1.414593	0.193501	1.361863
C187	C	0.895026	-0.646740	0.733801
C188	C	1.395026	-0.146740	1.233801
H189	H	0.892037	-0.698480	0.762658
H190	H	1.392037	-0.198480	1.262658
H191	H	0.858674	-0.645373	0.708299
H192	H	1.358674	-0.145373	1.208299
H193	H	0.930887	-0.655348	0.708252
H194	H	1.430887	-0.155348	1.208252
H195	H	0.263381	-0.576435	0.374815
H196	H	0.763381	-0.076435	0.874815
C197	C	0.821402	-0.593849	0.669333
C198	C	1.321402	-0.093849	1.169333
H199	H	0.827150	-0.584999	0.712993
H200	H	1.327150	-0.084999	1.212993
H201	H	0.779307	-0.579753	0.658581
H202	H	1.279307	-0.079753	1.158581
H203	H	0.830560	-0.658663	0.658616
H204	H	1.330560	-0.158663	1.158616
C205	C	0.538910	-0.334690	0.218149
C206	C	1.038910	0.165310	0.718149
H207	H	0.495256	-0.343531	0.223888
H208	H	0.995256	0.156469	0.723888
H209	H	0.549675	-0.269904	0.227390
H210	H	1.049675	0.230096	0.727390
H211	H	0.549580	-0.348718	0.176030
H212	H	1.049580	0.151282	0.676030
C213	C	0.821396	-0.593922	0.531924
C214	C	1.321396	-0.093922	1.031924
H215	H	0.797527	-0.630660	0.560764
H216	H	1.297527	-0.130660	1.060764
H217	H	0.794105	-0.557055	0.506371
H218	H	1.294105	-0.057055	1.006371
H219	H	0.845363	-0.635958	0.506424
H220	H	1.345363	-0.135958	1.006424
C221	C	0.821412	-0.593640	1.072970
C222	C	1.321412	-0.093640	1.572970
H223	H	0.827157	-0.584789	1.116630
H224	H	1.327157	-0.084789	1.616630
H225	H	0.779316	-0.579551	1.062216
H226	H	1.279316	-0.079551	1.562216
H227	H	0.830574	-0.658454	1.062254
H228	H	1.330574	-0.158454	1.562254
C229	C	0.676318	-0.334723	0.218102
C230	C	1.176318	0.165277	0.718102
H231	H	0.647454	-0.297925	0.194287
H232	H	1.147454	0.202075	0.694287
H233	H	0.701895	-0.292760	0.242107
H234	H	1.201895	0.207240	0.742107
H235	H	0.701792	-0.371576	0.190749
H236	H	1.201792	0.128424	0.690749
H237	H	0.978306	-0.352340	0.660091
H238	H	1.478306	0.147660	1.160091
C239	C	0.989759	-0.334784	0.532042
C240	C	1.489759	0.165216	1.032042
H241	H	1.013630	-0.298021	0.560916
H242	H	1.513630	0.201979	1.060916
H243	H	1.017048	-0.371685	0.506535
H244	H	1.517048	0.128315	1.006535
H245	H	0.965798	-0.292770	0.506499
H246	H	1.465798	0.207230	1.006499
