data_functionalizedCrystal
_audit_creation_method	'MofGen! by Chris Wilmer'
_symmetry_space_group_name_H-M	'P1'
_symmetry_Int_Tables_number	1
_symmetry_cell_setting	triclinic
loop_
_symmetry_equiv_pos_as_xyz
  x,y,z
_cell_length_a	19.288864
_cell_length_b	19.188930
_cell_length_c	17.766277
_cell_angle_alpha	89.988508
_cell_angle_beta	89.976791
_cell_angle_gamma	83.140512
loop_
_atom_site_label
_atom_site_type_symbol
_atom_site_fract_x
_atom_site_fract_y
_atom_site_fract_z
O1	O	0.921360	0.087099	-0.062844
O2	O	1.421360	0.587099	0.437156
O3	O	0.719100	0.098849	-0.062794
O4	O	1.219100	0.598849	0.437206
O5	O	0.826066	-0.008682	-0.062806
O6	O	1.326066	0.491318	0.437194
O7	O	0.814393	0.194630	-0.062832
O8	O	1.314393	0.694630	0.437168
O9	O	0.826048	-0.008688	0.062383
O10	O	1.326048	0.491312	0.562383
O11	O	0.719081	0.098843	0.062395
O12	O	1.219081	0.598843	0.562395
O13	O	0.921341	0.087094	0.062345
O14	O	1.421341	0.587094	0.562345
Cu15	Cu	0.820209	0.092968	0.073800
Cu16	Cu	1.320209	0.592968	0.573800
Cu17	Cu	0.820231	0.092974	-0.074250
Cu18	Cu	1.320231	0.592974	0.425750
O19	O	0.814374	0.194625	0.062356
O20	O	1.314374	0.694625	0.562356
C21	C	0.693214	0.098468	-0.000193
C22	C	1.193214	0.598468	0.499807
C23	C	0.616110	0.097333	-0.000173
C24	C	1.116110	0.597333	0.499827
C25	C	0.571419	0.160427	-0.000193
C26	C	1.071419	0.660427	0.499807
C27	C	0.498972	0.159361	-0.000201
C28	C	0.998972	0.659361	0.499799
C29	C	0.471219	0.095197	-0.000204
C30	C	0.971219	0.595197	0.499796
C31	C	0.515921	0.032095	-0.000180
C32	C	1.015921	0.532095	0.499820
C33	C	0.588366	0.033163	-0.000164
C34	C	1.088366	0.533163	0.499836
C35	C	0.362960	0.044759	-0.044082
C36	C	0.862960	0.544759	0.455918
C37	C	0.290515	0.043694	-0.044103
C38	C	0.790515	0.543694	0.455897
C39	C	0.247773	0.091900	-0.000249
C40	C	0.747773	0.591900	0.499751
C41	C	0.277483	0.141184	0.043614
C42	C	0.777483	0.641184	0.543614
C43	C	0.349929	0.142252	0.043630
C44	C	0.849929	0.642252	0.543630
C45	C	0.392665	0.094032	-0.000221
C46	C	0.892665	0.594032	0.499779
C47	C	0.124526	0.153843	-0.000277
C48	C	0.624526	0.653843	0.499723
C49	C	0.052078	0.152774	-0.000281
C50	C	0.552078	0.652774	0.499719
C51	C	0.069028	0.025506	-0.000267
C52	C	0.569028	0.525506	0.499733
C53	C	0.141475	0.026576	-0.000256
C54	C	0.641475	0.526576	0.499744
C55	C	0.169219	0.090747	-0.000265
C56	C	0.669219	0.590747	0.499735
C57	C	0.825679	-0.034696	-0.000209
C58	C	1.325679	0.465304	0.499791
C59	C	0.824544	-0.112200	-0.000202
C60	C	1.324544	0.387800	0.499798
C61	C	0.887309	-0.157129	-0.000214
C62	C	1.387309	0.342871	0.499786
C63	C	0.886243	-0.229953	-0.000226
C64	C	1.386243	0.270047	0.499774
C65	C	0.822408	-0.257844	-0.000211
C66	C	1.322408	0.242156	0.499789
C67	C	0.759636	-0.212906	-0.000203
C68	C	1.259636	0.287094	0.499797
C69	C	0.760704	-0.140084	-0.000199
C70	C	1.260704	0.359916	0.499801
N71	N	0.773608	-0.365848	0.042405
N72	N	1.273608	0.134152	0.542405
N73	N	0.772598	-0.435026	0.042403
N74	N	1.272598	0.064974	0.542403
C75	C	0.819187	-0.477253	-0.000225
C76	C	1.319187	0.022747	0.499775
N77	N	0.866835	-0.447689	-0.042841
N78	N	1.366835	0.052311	0.457159
N79	N	0.867847	-0.378504	-0.042836
N80	N	1.367847	0.121496	0.457164
C81	C	0.821243	-0.336807	-0.000216
C82	C	1.321243	0.163193	0.499784
C83	C	0.880800	-0.601146	-0.000251
C84	C	1.380800	-0.101146	0.499749
C85	C	0.879731	-0.673971	-0.000268
C86	C	1.379731	-0.173971	0.499732
C87	C	0.753122	-0.656922	-0.000237
C88	C	1.253122	-0.156922	0.499763
C89	C	0.754193	-0.584099	-0.000228
C90	C	1.254193	-0.084099	0.499772
C91	C	0.818034	-0.556216	-0.000231
C92	C	1.318034	-0.056216	0.499769
C93	C	0.947227	0.087475	-0.000258
C94	C	1.447227	0.587475	0.499742
C95	C	1.024330	0.088609	-0.000283
C96	C	1.524330	0.588609	0.499717
C97	C	0.814762	0.220638	-0.000242
C98	C	1.314762	0.720638	0.499758
C99	C	0.815896	0.298143	-0.000253
C100	C	1.315896	0.798143	0.499747
N101	N	0.820199	0.092963	0.177931
N102	N	1.320199	0.592963	0.677931
N103	N	0.820247	0.092974	-0.178380
N104	N	1.320247	0.592974	0.321620
C105	C	0.867579	0.045372	0.217312
C106	C	1.367579	0.545372	0.717312
C107	C	0.867583	0.045368	0.296114
C108	C	1.367583	0.545368	0.796114
C109	C	0.820213	0.092969	0.335531
C110	C	1.320213	0.592969	0.835531
C111	C	0.772824	0.140564	0.296140
C112	C	1.272824	0.640564	0.796140
C113	C	0.772817	0.140561	0.217340
C114	C	1.272817	0.640561	0.717340
C115	C	0.810919	0.156585	0.460362
C116	C	1.310919	0.656585	0.960362
C117	C	0.810931	0.156589	0.539161
C118	C	1.310931	0.656589	1.039161
C119	C	0.820232	0.092977	0.578578
C120	C	1.320232	0.592977	1.078578
C121	C	0.829535	0.029359	0.539185
C122	C	1.329535	0.529359	1.039185
C123	C	0.829528	0.029356	0.460385
C124	C	1.329528	0.529356	0.960385
C125	C	0.820216	0.092977	0.420977
C126	C	1.320216	0.592977	0.920977
C127	C	0.867619	0.045378	0.703405
C128	C	1.367619	0.545378	1.203405
C129	C	0.867618	0.045374	0.782208
C130	C	1.367618	0.545374	1.282208
C131	C	0.772863	0.140575	0.782233
C132	C	1.272863	0.640575	1.282233
C133	C	0.772861	0.140573	0.703431
C134	C	1.272861	0.640573	1.203431
C135	C	0.820242	0.092976	0.664022
C136	C	1.320242	0.592976	1.164022
H137	H	0.015690	0.204155	-0.000293
H138	H	0.515690	0.704155	0.499707
N139	N	0.684271	-0.686994	-0.000229
N140	N	1.184271	-0.186994	0.499771
H141	H	0.693117	-0.739945	-0.000236
H142	H	1.193117	-0.239945	0.499764
H143	H	0.656805	-0.670555	0.046187
H144	H	1.156805	-0.170555	0.546187
H145	H	0.939293	-0.134431	-0.000220
H146	H	1.439293	0.365569	0.499780
H147	H	0.266331	0.003566	-0.079822
H148	H	0.766331	0.503566	0.420178
H149	H	0.703083	-0.547517	-0.000214
H150	H	1.203083	-0.047517	0.499786
N151	N	0.839586	-0.039256	0.581688
N152	N	1.339586	0.460744	1.081688
H153	H	0.845486	-0.079555	0.544777
H154	H	1.345486	0.420445	1.044777
H155	H	0.882584	-0.040810	0.614352
H156	H	1.382584	0.459190	1.114352
N157	N	0.949653	-0.571067	-0.000258
N158	N	1.449653	-0.071067	0.499742
H159	H	0.952909	-0.541250	0.046156
H160	H	1.452909	-0.041250	0.546156
H161	H	0.989211	-0.610624	-0.000300
H162	H	1.489211	-0.110624	0.499700
H163	H	0.930844	-0.710552	-0.000281
H164	H	1.430844	-0.210552	0.499719
H165	H	0.734282	0.179330	0.671365
H166	H	1.234282	0.679330	1.171365
N167	N	0.039107	-0.043702	-0.000262
N168	N	0.539107	0.456298	0.499738
H169	H	-0.013570	-0.034806	-0.000273
H170	H	0.486430	0.465194	0.499727
H171	H	0.055494	-0.071302	-0.046665
H172	H	0.555494	0.428698	0.453335
H173	H	0.906158	0.006613	0.185228
H174	H	1.406158	0.506613	0.685228
N175	N	0.918735	-0.005948	0.824689
N176	N	1.418735	0.494052	1.324689
H177	H	0.948753	-0.036093	0.787763
H178	H	1.448753	0.463907	1.287763
H179	H	0.949349	0.020725	0.857352
H180	H	1.449349	0.520725	1.357352
N181	N	0.450761	0.227418	-0.000231
N182	N	0.950761	0.727418	0.499769
H183	H	0.420355	0.229805	-0.046647
H184	H	0.920355	0.729805	0.453353
H185	H	0.420343	0.229775	0.046198
H186	H	0.920343	0.729775	0.546198
N187	N	0.800889	0.225201	0.417855
N188	N	1.300889	0.725201	0.917855
H189	H	0.839413	0.254208	0.431540
H190	H	1.339413	0.754208	0.931540
H191	H	0.802277	0.215488	0.361973
H192	H	1.302277	0.715488	0.861973
N193	N	0.953941	-0.278424	-0.000241
N194	N	1.453941	0.221576	0.499759
H195	H	0.994545	-0.249709	-0.000244
H196	H	1.494545	0.250291	0.499756
H197	H	0.956241	-0.309018	0.046167
H198	H	1.456241	0.190982	0.546167
H199	H	0.147116	0.206094	-0.000273
H200	H	0.647116	0.706094	0.499727
N201	N	0.231394	0.193188	0.090913
N202	N	0.731394	0.693188	0.590913
H203	H	0.180992	0.185033	0.084252
H204	H	0.680992	0.685033	0.584252
H205	H	0.244899	0.186846	0.145623
H206	H	0.744899	0.686846	0.645623
N207	N	0.409058	-0.007241	-0.091381
N208	N	0.909058	0.492759	0.408619
H209	H	0.379245	-0.038618	-0.119175
H210	H	0.879245	0.461382	0.380825
H211	H	0.435715	0.018898	-0.128839
H212	H	0.935715	0.518898	0.371161
N213	N	0.800892	0.225202	0.581644
N214	N	1.300892	0.725202	1.081644
H215	H	0.843064	0.229248	0.614313
H216	H	1.343064	0.729248	1.114313
H217	H	0.794969	0.265457	0.544669
H218	H	1.294969	0.765457	1.044669
H219	H	0.177864	-0.024802	-0.000244
H220	H	0.677864	0.475198	0.499756
H221	H	0.707661	-0.235620	-0.000192
H222	H	1.207661	0.264380	0.499808
N223	N	0.721765	0.191911	0.824737
N224	N	1.221765	0.691911	1.324737
H225	H	0.748207	0.222762	0.857410
H226	H	1.248207	0.722762	1.357410
H227	H	0.691762	0.222012	0.787778
H228	H	1.191762	0.722012	1.287778
H229	H	0.493320	-0.020148	-0.000193
H230	H	0.993320	0.479852	0.499807
H231	H	0.906167	0.006612	0.328185
H232	H	1.406167	0.506612	0.828185
N233	N	0.721729	0.191901	0.338649
N234	N	1.221729	0.691901	0.838649
H235	H	0.728923	0.184683	0.394545
H236	H	1.228923	0.684683	0.894545
H237	H	0.729594	0.241413	0.324856
H238	H	1.229594	0.741413	0.824856
N239	N	0.693005	-0.091619	-0.000186
N240	N	1.193005	0.408381	0.499814
H241	H	0.652402	-0.120336	-0.000181
H242	H	1.152402	0.379664	0.499819
H243	H	0.690683	-0.061046	0.046227
H244	H	1.190683	0.438954	0.546227
N245	N	0.839559	-0.039254	0.417896
N246	N	1.339559	0.460746	0.917896
H247	H	0.845453	-0.079555	0.454818
H248	H	1.345453	0.420445	0.954818
H249	H	0.797373	-0.043222	0.385227
H250	H	1.297373	0.456778	0.885227
H251	H	0.906198	0.006619	0.671317
H252	H	1.406198	0.506619	1.171317
N253	N	0.636575	-0.034892	-0.000139
N254	N	1.136575	0.465108	0.499861
H255	H	0.608004	-0.075703	-0.000139
H256	H	1.108004	0.424297	0.499861
H257	H	0.667027	-0.037220	-0.046542
H258	H	1.167027	0.462780	0.453458
H259	H	0.734234	0.179316	0.185275
H260	H	1.234234	0.679316	0.685275
H261	H	0.374116	0.182379	0.079348
H262	H	0.874116	0.682379	0.579348
N263	N	0.601343	0.229636	-0.000208
N264	N	1.101343	0.729636	0.499792
H265	H	0.562033	0.269445	-0.000223
H266	H	1.062033	0.769445	0.499777
H267	H	0.631007	0.232857	0.046206
H268	H	1.131007	0.732857	0.546206
