data_functionalizedCrystal
_audit_creation_method	'MofGen! by Chris Wilmer'
_symmetry_space_group_name_H-M	'P1'
_symmetry_Int_Tables_number	1
_symmetry_cell_setting	triclinic
loop_
_symmetry_equiv_pos_as_xyz
  x,y,z
_cell_length_a	18.215407
_cell_length_b	21.295417
_cell_length_c	18.215399
_cell_angle_alpha	90.032152
_cell_angle_beta	90.019833
_cell_angle_gamma	90.030955
loop_
_atom_site_label
_atom_site_type_symbol
_atom_site_fract_x
_atom_site_fract_y
_atom_site_fract_z
Zn1	Zn	1.125043	-0.250608	0.416094
Zn2	Zn	1.625043	0.249392	0.916094
Zn3	Zn	1.124940	-0.355879	0.293019
Zn4	Zn	1.624940	0.144121	0.793019
Zn5	Zn	1.001976	-0.250629	0.293042
Zn6	Zn	1.501976	0.249371	0.793042
Zn7	Zn	1.001930	-0.355844	0.416044
Zn8	Zn	1.501930	0.144156	0.916044
O9	O	1.063472	-0.303240	0.354550
O10	O	1.563472	0.196760	0.854550
O11	O	1.228014	-0.264579	0.399780
O12	O	1.728014	0.235421	0.899780
O13	O	1.108604	-0.341941	0.190038
O14	O	1.608604	0.158059	0.690038
O15	O	1.018364	-0.162537	0.309396
O16	O	1.518364	0.337463	0.809396
O17	O	1.227938	-0.341921	0.309357
O18	O	1.727938	0.158079	0.809357
O19	O	1.108781	-0.162521	0.399802
O20	O	1.608781	0.337479	0.899802
O21	O	1.018263	-0.264614	0.190054
O22	O	1.518263	0.235386	0.690054
O23	O	0.898985	-0.264580	0.309347
O24	O	1.398985	0.235420	0.809347
O25	O	1.018285	-0.341861	0.519035
O26	O	1.518285	0.158139	1.019035
O27	O	0.898951	-0.341881	0.399716
O28	O	1.398951	0.158119	0.899716
O29	O	1.108736	-0.264545	0.519072
O30	O	1.608736	0.235455	1.019072
O31	O	1.108559	-0.443964	0.309308
O32	O	1.608559	0.056036	0.809308
O33	O	1.018184	-0.443938	0.399694
O34	O	1.518184	0.056062	0.899694
C35	C	0.872266	-0.303229	0.354529
C36	C	1.372266	0.196771	0.854529
C37	C	0.790467	-0.303240	0.354537
C38	C	1.290467	0.196760	0.854537
C39	C	0.602275	-0.343554	0.401533
C40	C	1.102275	0.156446	0.901533
C41	C	0.525416	-0.343556	0.401542
C42	C	1.025416	0.156444	0.901542
C43	C	0.525422	-0.262938	0.307582
C44	C	1.025422	0.237062	0.807582
C45	C	0.602279	-0.262933	0.307577
C46	C	1.102279	0.237067	0.807577
C47	C	0.640703	-0.303245	0.354552
C48	C	1.140703	0.196755	0.854552
C49	C	0.486987	-0.303251	0.354566
C50	C	0.986987	0.196749	0.854566
C51	C	0.403654	-0.303253	0.354575
C52	C	0.903654	0.196747	0.854575
C53	C	0.724042	-0.303242	0.354543
C54	C	1.224042	0.196758	0.854543
C55	C	1.063376	-0.466792	0.354509
C56	C	1.563376	0.033208	0.854509
C57	C	1.063402	-0.536760	0.354516
C58	C	1.563402	-0.036760	0.854516
C59	C	1.110502	-0.569619	0.307500
C60	C	1.610502	-0.069619	0.807500
C61	C	1.110536	-0.635361	0.307517
C62	C	1.610536	-0.135361	0.807517
C63	C	1.063457	-0.668242	0.354542
C64	C	1.563457	-0.168242	0.854542
C65	C	1.016354	-0.635375	0.401566
C66	C	1.516354	-0.135375	0.901566
C67	C	1.016326	-0.569634	0.401554
C68	C	1.516326	-0.069634	0.901554
N69	N	0.999079	-0.771508	0.360145
N70	N	1.499079	-0.271508	0.860145
N71	N	0.999107	-0.833960	0.360153
N72	N	1.499107	-0.333960	0.860153
C73	C	1.063540	-0.866317	0.354584
C74	C	1.563540	-0.366317	0.854584
N75	N	1.127944	-0.833863	0.348993
N76	N	1.627944	-0.333863	0.848993
N77	N	1.127915	-0.771406	0.348981
N78	N	1.627915	-0.271406	0.848981
C79	C	1.063483	-0.739528	0.354561
C80	C	1.563483	-0.239528	0.854561
C81	C	1.110681	-0.970462	0.307584
C82	C	1.610681	-0.470462	0.807584
C83	C	1.110717	-1.036205	0.307605
C84	C	1.610717	-0.536205	0.807605
C85	C	1.016528	-1.036218	0.401651
C86	C	1.516528	-0.536218	0.901651
C87	C	1.016499	-0.970475	0.401633
C88	C	1.516499	-0.470475	0.901633
C89	C	1.063575	-0.937601	0.354595
C90	C	1.563575	-0.437601	0.854595
C91	C	1.255425	-0.303251	0.354571
C92	C	1.755425	0.196749	0.854571
C93	C	1.337224	-0.303256	0.354581
C94	C	1.837224	0.196744	0.854581
C95	C	1.063517	-0.303197	0.546503
C96	C	1.563517	0.196803	1.046503
C97	C	1.063536	-0.303178	0.628302
C98	C	1.563536	0.196822	1.128302
C99	C	1.063589	-0.139050	0.354607
C100	C	1.563589	0.360950	0.854607
C101	C	1.063639	-0.069082	0.354631
C102	C	1.563639	0.430918	0.854631
C103	C	1.063470	-0.303238	0.163344
C104	C	1.563470	0.196762	0.663344
C105	C	1.063593	-0.303079	0.081545
C106	C	1.563593	0.196921	0.581545
C107	C	1.110651	-0.262882	0.816516
C108	C	1.610651	0.237118	1.316516
C109	C	1.110660	-0.262863	0.893375
C110	C	1.610660	0.237137	1.393375
C111	C	1.016473	-0.343377	0.893325
C112	C	1.516473	0.156623	1.393325
C113	C	1.016461	-0.343392	0.816468
C114	C	1.516461	0.156608	1.316468
C115	C	1.063554	-0.303145	0.778065
C116	C	1.563554	0.196855	1.278065
C117	C	1.063575	-0.303112	0.931781
C118	C	1.563575	0.196888	1.431781
C119	C	1.063584	-0.303093	1.015115
C120	C	1.563584	0.196907	1.515115
C121	C	1.063544	-0.303164	0.694726
C122	C	1.563544	0.196836	1.194726
H123	H	0.494130	-0.376379	0.439801
H124	H	0.994130	0.123621	0.939801
O125	O	1.156375	-0.938591	0.261797
O126	O	1.656375	-0.438591	0.761797
C127	C	1.192130	-0.918497	0.136639
C128	C	1.692130	-0.418497	0.636639
C129	C	1.140349	-0.954639	0.188410
C130	C	1.640349	-0.454639	0.688410
H131	H	1.179181	-0.931449	0.077295
H132	H	1.679181	-0.431449	0.577295
H133	H	1.251483	-0.931376	0.149559
H134	H	1.751483	-0.431376	0.649559
H135	H	1.184025	-0.865869	0.144741
H136	H	1.684025	-0.365869	0.644741
H137	H	1.148388	-1.007276	0.180337
H138	H	1.648388	-0.507276	0.680337
H139	H	1.081015	-0.941708	0.175477
H140	H	1.581015	-0.441708	0.675477
O141	O	1.156363	-0.223840	0.779098
O142	O	1.656363	0.276160	1.279098
C143	C	1.198049	-0.188143	0.660719
C144	C	1.698049	0.311857	1.160719
C145	C	1.146258	-0.232404	0.703000
C146	C	1.646258	0.267596	1.203000
H147	H	1.189886	-0.195042	0.599186
H148	H	1.689886	0.304958	1.099186
H149	H	1.257403	-0.199192	0.675781
H150	H	1.757403	0.300808	1.175781
H151	H	1.185163	-0.137390	0.675895
H152	H	1.685163	0.362610	1.175895
H153	H	1.159078	-0.283172	0.687846
H154	H	1.659078	0.216828	1.187846
H155	H	1.086919	-0.221302	0.687934
H156	H	1.586919	0.278698	1.187934
O157	O	1.156604	-1.068029	0.261970
O158	O	1.656604	-0.568029	0.761970
C159	C	1.281847	-1.088004	0.226425
C160	C	1.781847	-0.588004	0.726425
C161	C	1.229944	-1.051932	0.278140
C162	C	1.729944	-0.551932	0.778140
H163	H	1.341154	-1.075013	0.239489
H164	H	1.841154	-0.575013	0.739489
H165	H	1.269019	-1.075103	0.167058
H166	H	1.769019	-0.575103	0.667058
H167	H	1.273789	-1.140644	0.234474
H168	H	1.773789	-0.640644	0.734474
H169	H	1.237973	-0.999284	0.270156
H170	H	1.737973	-0.499284	0.770156
H171	H	1.242785	-1.064885	0.337487
H172	H	1.742785	-0.564885	0.837487
H173	H	0.633557	-0.376377	0.439785
H174	H	1.133557	0.123623	0.939785
O175	O	1.156480	-0.223733	0.930612
O176	O	1.656480	0.276267	1.430612
C177	C	1.249870	-0.143852	0.922545
C178	C	1.749870	0.356148	1.422545
C179	C	1.198027	-0.188148	0.880284
C180	C	1.698027	0.311852	1.380284
H181	H	1.283463	-0.115060	0.881874
H182	H	1.783463	0.384940	1.381874
H183	H	1.288385	-0.172716	0.958506
H184	H	1.788385	0.327284	1.458506
H185	H	1.216099	-0.110953	0.958552
H186	H	1.716099	0.389047	1.458552
H187	H	1.231739	-0.221055	0.844237
H188	H	1.731739	0.278945	1.344237
H189	H	1.159510	-0.159245	0.844370
H190	H	1.659510	0.340755	1.344370
H191	H	0.978199	-1.062989	0.439942
H192	H	1.478199	-0.562989	0.939942
H193	H	0.633569	-0.230104	0.269319
H194	H	1.133569	0.269896	0.769319
H195	H	0.494127	-0.230118	0.269336
H196	H	0.994127	0.269882	0.769336
O197	O	0.970812	-0.382538	0.779030
O198	O	1.470812	0.117462	1.279030
C199	C	0.960846	-0.467564	0.692248
C200	C	1.460846	0.032436	1.192248
C201	C	1.012624	-0.423266	0.734587
C202	C	1.512624	0.076734	1.234587
H203	H	0.994631	-0.500513	0.656318
H204	H	1.494631	-0.000513	1.156318
H205	H	0.922392	-0.438701	0.656221
H206	H	1.422392	0.061299	1.156221
H207	H	0.927177	-0.496302	0.732910
H208	H	1.427177	0.003698	1.232910
H209	H	1.046341	-0.394519	0.693979
H210	H	1.546341	0.105481	1.193979
H211	H	1.051030	-0.452165	0.770626
H212	H	1.551030	0.047835	1.270626
H213	H	0.978143	-0.943720	0.439914
H214	H	1.478143	-0.443720	0.939914
O215	O	0.970839	-0.382541	0.930665
O216	O	1.470839	0.117459	1.430665
C217	C	0.960896	-0.467488	1.017437
C218	C	1.460896	0.032512	1.517437
C219	C	1.012659	-0.423182	0.975185
C220	C	1.512659	0.076818	1.475185
H221	H	0.994686	-0.500349	1.053454
H222	H	1.494686	-0.000349	1.553454
H223	H	0.927243	-0.496313	0.976785
H224	H	1.427243	0.003687	1.476785
H225	H	0.922426	-0.438566	1.053392
H226	H	1.422426	0.061434	1.553392
H227	H	1.051173	-0.452056	0.939229
H228	H	1.551173	0.047944	1.439229
H229	H	1.046260	-0.394354	1.015877
H230	H	1.546260	0.105646	1.515877
O231	O	1.156306	-0.537784	0.261794
O232	O	1.656306	-0.037784	0.761794
C233	C	1.249701	-0.544712	0.168489
C234	C	1.749701	-0.044712	0.668489
C235	C	1.197875	-0.580845	0.220223
C236	C	1.697875	-0.080845	0.720223
H237	H	1.283312	-0.579512	0.134854
H238	H	1.783312	-0.079512	0.634854
H239	H	1.288200	-0.513903	0.202273
H240	H	1.788200	-0.013903	0.702273
H241	H	1.215915	-0.513964	0.130002
H242	H	1.715915	-0.013964	0.630002
H243	H	1.231602	-0.611628	0.258720
H244	H	1.731602	-0.111628	0.758720
H245	H	1.159374	-0.611615	0.186392
H246	H	1.659374	-0.111615	0.686392
H247	H	0.978024	-0.662151	0.439855
H248	H	1.478024	-0.162151	0.939855
O249	O	1.156177	-0.667352	0.261790
O250	O	1.656177	-0.167352	0.761790
C251	C	1.166116	-0.741580	0.162398
C252	C	1.666116	-0.241580	0.662398
C253	C	1.114352	-0.705409	0.214159
C254	C	1.614352	-0.205409	0.714159
H255	H	1.132320	-0.772347	0.123865
H256	H	1.632320	-0.272347	0.623865
H257	H	1.204591	-0.772360	0.196160
H258	H	1.704591	-0.272360	0.696160
H259	H	1.199763	-0.706771	0.128813
H260	H	1.699763	-0.206771	0.628813
H261	H	1.080658	-0.740172	0.247755
H262	H	1.580658	-0.240172	0.747755
H263	H	1.075926	-0.674620	0.180354
H264	H	1.575926	-0.174620	0.680354
O265	O	0.970499	-0.537809	0.447248
O266	O	1.470499	-0.037809	0.947248
C267	C	0.877117	-0.544759	0.540563
C268	C	1.377117	-0.044759	1.040563
C269	C	0.928967	-0.580880	0.488841
C270	C	1.428967	-0.080880	0.988841
H271	H	0.843536	-0.579566	0.574216
H272	H	1.343536	-0.079566	1.074216
H273	H	0.838592	-0.514050	0.506769
H274	H	1.338592	-0.014050	1.006769
H275	H	0.910882	-0.513911	0.579035
H276	H	1.410882	-0.013911	1.079035
H277	H	0.895261	-0.611762	0.450360
H278	H	1.395261	-0.111762	0.950360
H279	H	0.967495	-0.611549	0.522681
H280	H	1.467495	-0.111549	1.022681
