data_functionalizedCrystal
_audit_creation_method	'MofGen! by Chris Wilmer'
_symmetry_space_group_name_H-M	'P1'
_symmetry_Int_Tables_number	1
_symmetry_cell_setting	triclinic
loop_
_symmetry_equiv_pos_as_xyz
  x,y,z
_cell_length_a	21.295419
_cell_length_b	21.295417
_cell_length_c	12.645331
_cell_angle_alpha	90.006514
_cell_angle_beta	90.005855
_cell_angle_gamma	90.044503
loop_
_atom_site_label
_atom_site_type_symbol
_atom_site_fract_x
_atom_site_fract_y
_atom_site_fract_z
Zn1	Zn	0.962243	-0.250520	0.599381
Zn2	Zn	1.462243	0.249480	1.099381
Zn3	Zn	0.962181	-0.355746	0.422096
Zn4	Zn	1.462181	0.144254	0.922096
Zn5	Zn	0.857000	-0.250522	0.422126
Zn6	Zn	1.357000	0.249478	0.922126
Zn7	Zn	0.856937	-0.355782	0.599312
Zn8	Zn	1.356937	0.144218	1.099312
O9	O	0.909590	-0.303142	0.510729
O10	O	1.409590	0.196858	1.010729
O11	O	1.050324	-0.264462	0.575880
O12	O	1.550324	0.235538	1.075880
O13	O	0.948229	-0.341773	0.273753
O14	O	1.448229	0.158227	0.773753
O15	O	0.871013	-0.162432	0.445681
O16	O	1.371013	0.337568	0.945681
O17	O	1.050279	-0.341771	0.445630
O18	O	1.550279	0.158229	0.945630
O19	O	0.948335	-0.162431	0.575909
O20	O	1.448335	0.337569	1.075909
O21	O	0.870954	-0.264465	0.273775
O22	O	1.370954	0.235535	0.773775
O23	O	0.768903	-0.264501	0.445614
O24	O	1.268903	0.235499	0.945614
O25	O	0.870905	-0.341834	0.747668
O26	O	1.370905	0.158166	1.247668
O27	O	0.768856	-0.341835	0.575792
O28	O	1.268856	0.158165	1.075792
O29	O	0.948273	-0.264498	0.747719
O30	O	1.448273	0.235502	1.247719
O31	O	0.948168	-0.443840	0.445563
O32	O	1.448168	0.056160	0.945563
O33	O	0.870845	-0.443867	0.575763
O34	O	1.370845	0.056133	1.075763
C35	C	0.746039	-0.303173	0.510699
C36	C	1.246039	0.196827	1.010699
C37	C	0.676071	-0.303201	0.510711
C38	C	1.176071	0.196799	1.010711
C39	C	0.643250	-0.263012	0.578638
C40	C	1.143250	0.236988	1.078638
C41	C	0.577508	-0.262995	0.578642
C42	C	1.077508	0.237005	1.078642
C43	C	0.544588	-0.303178	0.510731
C44	C	1.044588	0.196822	1.010731
C45	C	0.577417	-0.343370	0.442791
C46	C	1.077417	0.156630	0.942791
C47	C	0.643158	-0.343381	0.442782
C48	C	1.143158	0.156619	0.942782
N49	N	0.441315	-0.358254	0.502447
N50	N	0.941315	0.141746	1.002447
N51	N	0.378864	-0.358242	0.502463
N52	N	0.878864	0.141758	1.002463
C53	C	0.346513	-0.303146	0.510754
C54	C	0.846513	0.196854	1.010754
N55	N	0.378974	-0.248061	0.519050
N56	N	0.878974	0.251939	1.019050
N57	N	0.441431	-0.248074	0.519040
N58	N	0.941431	0.251926	1.019040
C59	C	0.473303	-0.303170	0.510733
C60	C	0.973303	0.196830	1.010733
C61	C	0.242407	-0.262935	0.578688
C62	C	0.742407	0.237065	1.078688
C63	C	0.176664	-0.262917	0.578685
C64	C	0.676664	0.237083	1.078685
C65	C	0.176574	-0.343298	0.442840
C66	C	0.676574	0.156702	0.942840
C67	C	0.242316	-0.343310	0.442838
C68	C	0.742316	0.156690	0.942838
C69	C	0.275229	-0.303129	0.510768
C70	C	0.775229	0.196871	1.010768
C71	C	0.909510	-0.466694	0.510675
C72	C	1.409510	0.033306	1.010675
C73	C	0.909533	-0.536662	0.510688
C74	C	1.409533	-0.036662	1.010688
C75	C	0.949772	-0.569471	0.578546
C76	C	1.449772	-0.069471	1.078546
C77	C	0.949794	-0.635213	0.578572
C78	C	1.449794	-0.135213	1.078572
C79	C	0.909584	-0.668145	0.510721
C80	C	1.409584	-0.168145	1.010721
C81	C	0.869339	-0.635328	0.442858
C82	C	1.369339	-0.135328	0.942858
C83	C	0.869313	-0.569587	0.442841
C84	C	1.369313	-0.069587	0.942841
N85	N	0.904843	-0.771385	0.417945
N86	N	1.404843	-0.271385	0.917945
N87	N	0.904871	-0.833836	0.417964
N88	N	1.404871	-0.333836	0.917964
C89	C	0.909658	-0.866219	0.510769
C90	C	1.409658	-0.366219	1.010769
N91	N	0.914428	-0.833792	0.603557
N92	N	1.414428	-0.333792	1.103557
N93	N	0.914404	-0.771335	0.603536
N94	N	1.414404	-0.271335	1.103536
C95	C	0.909607	-0.739430	0.510732
C96	C	1.409607	-0.239430	1.010732
C97	C	0.949922	-0.970314	0.578661
C98	C	1.449922	-0.470314	1.078661
C99	C	0.949940	-1.036057	0.578689
C100	C	1.449940	-0.536057	1.078689
C101	C	0.869488	-1.036171	0.442966
C102	C	1.369488	-0.536171	0.942966
C103	C	0.869467	-0.970428	0.442947
C104	C	1.369467	-0.470428	0.942947
C105	C	0.909688	-0.937504	0.510793
C106	C	1.409688	-0.437504	1.010793
C107	C	1.073781	-0.303113	0.510759
C108	C	1.573781	0.196887	1.010759
C109	C	1.143749	-0.303100	0.510772
C110	C	1.643749	0.196900	1.010772
C111	C	0.909589	-0.303170	0.787234
C112	C	1.409589	0.196830	1.287234
C113	C	0.909588	-0.303181	0.905064
C114	C	1.409588	0.196819	1.405064
C115	C	0.909688	-0.138952	0.510806
C116	C	1.409688	0.361048	1.010806
C117	C	0.909730	-0.068984	0.510839
C118	C	1.409730	0.431016	1.010839
C119	C	0.860737	-0.351650	1.072596
C120	C	1.360737	0.148350	1.572596
C121	C	0.860886	-0.351856	0.950036
C122	C	1.360886	0.148144	1.450036
C123	C	0.975905	-0.321179	0.949579
C124	C	1.475905	0.178821	1.449579
C125	C	0.975616	-0.321517	1.072177
C126	C	1.475616	0.178483	1.572177
C127	C	0.892685	-0.236547	1.072278
C128	C	1.392685	0.263453	1.572278
C129	C	0.891226	-0.236913	0.949671
C130	C	1.391226	0.263087	1.449671
C131	C	0.909585	-0.303139	1.235299
C132	C	1.409585	0.196861	1.735299
C133	C	0.909578	-0.303155	1.117469
C134	C	1.409578	0.196845	1.617469
H135	H	0.269206	-0.230213	0.633994
H136	H	0.769206	0.269787	1.133994
O137	O	0.542101	-0.219643	0.651908
O138	O	1.042101	0.280357	1.151908
H139	H	0.490857	-0.226383	0.640495
H140	H	0.990857	0.273617	1.140495
H141	H	0.836745	-1.062982	0.387726
H142	H	1.336745	-0.562982	0.887726
O143	O	0.994579	-0.386014	1.110063
O144	O	1.494579	0.113986	1.610063
H145	H	1.037709	-0.382234	1.158948
H146	H	1.537709	0.117766	1.658948
O147	O	0.678745	-0.219663	0.651885
O148	O	1.178745	0.280337	1.151885
H149	H	0.666123	-0.230535	0.735056
H150	H	1.166123	0.269465	1.235056
H151	H	0.845159	-0.220157	1.103186
H152	H	1.345159	0.279843	1.603186
H153	H	0.811710	-0.340594	0.919937
H154	H	1.311710	0.159406	1.419937
O155	O	0.277721	-0.386658	0.369575
O156	O	0.777721	0.113342	0.869575
H157	H	0.265064	-0.436081	0.387606
H158	H	0.765064	0.063919	0.887606
O159	O	0.826079	-0.935035	0.369737
O160	O	1.326079	-0.435035	0.869737
H161	H	0.798128	-0.968976	0.322549
H162	H	1.298128	-0.468976	0.822549
O163	O	0.795385	-0.336900	1.111622
O164	O	1.295385	0.163100	1.611622
H165	H	0.797013	-0.294851	1.163426
H166	H	1.297013	0.205149	1.663426
O167	O	0.875335	-0.416647	1.113443
O168	O	1.375335	0.083353	1.613443
H169	H	0.917229	-0.414564	1.165556
H170	H	1.417229	0.085436	1.665556
H171	H	0.842423	-0.223341	0.920575
H172	H	1.342423	0.276659	1.420575
H173	H	0.836599	-0.662145	0.387615
H174	H	1.336599	-0.162145	0.887615
H175	H	0.928259	-0.200416	1.101300
H176	H	1.428259	0.299584	1.601300
H177	H	0.550609	-0.376087	0.387497
H178	H	1.050609	0.123913	0.887497
H179	H	0.872047	-0.401219	0.920710
H180	H	1.372047	0.098781	1.420710
H181	H	0.982555	-0.661932	0.633843
H182	H	1.482555	-0.161932	1.133843
H183	H	0.149942	-0.230186	0.633997
H184	H	0.649942	0.269814	1.133997
O185	O	0.678564	-0.386730	0.369518
O186	O	1.178564	0.113270	0.869518
H187	H	0.644631	-0.414672	0.322295
H188	H	1.144631	0.085328	0.822295
H189	H	0.836546	-0.542873	0.387582
H190	H	1.336546	-0.042873	0.887582
O191	O	0.141079	-0.386640	0.369590
O192	O	0.641079	0.113360	0.869590
H193	H	0.089850	-0.379884	0.381010
H194	H	0.589850	0.120116	0.881010
O195	O	0.993338	-1.071447	0.651892
O196	O	1.493338	-0.571447	1.151892
H197	H	1.025393	-1.101377	0.604504
H198	H	1.525393	-0.601377	1.104504
O199	O	0.993161	-0.533958	0.651701
O200	O	1.493161	-0.033958	1.151701
H201	H	1.021147	-0.567821	0.698889
H202	H	1.521147	-0.067821	1.198889
H203	H	0.982670	-0.943505	0.633910
H204	H	1.482670	-0.443505	1.133910
O205	O	1.025461	-0.276773	1.111514
O206	O	1.525461	0.223227	1.611514
H207	H	1.049668	-0.254994	1.042969
H208	H	1.549668	0.245006	1.542969
O209	O	1.025422	-0.275862	0.910987
O210	O	1.525422	0.224138	1.410987
H211	H	1.003238	-0.239945	0.859543
H212	H	1.503238	0.260055	1.359543
H213	H	0.990483	-0.369343	0.918879
H214	H	1.490483	0.130657	1.418879
H215	H	0.924212	-0.198855	0.919059
H216	H	1.424212	0.301145	1.419059
