data_functionalizedCrystal
_audit_creation_method	'MofGen! by Chris Wilmer'
_symmetry_space_group_name_H-M	'P1'
_symmetry_Int_Tables_number	1
_symmetry_cell_setting	triclinic
loop_
_symmetry_equiv_pos_as_xyz
  x,y,z
_cell_length_a	23.532407
_cell_length_b	23.532407
_cell_length_c	7.540329
_cell_angle_alpha	89.991770
_cell_angle_beta	90.002386
_cell_angle_gamma	82.848678
loop_
_atom_site_label
_atom_site_type_symbol
_atom_site_fract_x
_atom_site_fract_y
_atom_site_fract_z
O1	O	0.755258	0.069134	-0.147279
O2	O	0.589395	0.079137	-0.147334
O3	O	0.677328	-0.008796	-0.147272
O4	O	0.667325	0.157067	-0.147340
O5	O	0.677323	-0.008797	0.147693
O6	O	0.589390	0.079136	0.147632
O7	O	0.755253	0.069133	0.147686
Cu8	Cu	0.672321	0.074134	0.174591
Cu9	Cu	0.672327	0.074136	-0.174239
O10	O	0.667320	0.157066	0.147625
C11	C	0.568176	0.078882	0.000142
C12	C	0.504959	0.078116	0.000123
C13	C	0.677071	-0.030013	0.000215
C14	C	0.676305	-0.093230	0.000228
C15	C	0.723539	-0.492333	0.000147
C16	C	0.722827	-0.551733	0.000133
O17	O	0.766613	-0.588478	0.000082
N18	N	0.670551	-0.574359	0.000117
C19	C	0.618983	-0.537582	0.000097
O20	O	0.574452	-0.562281	0.000080
C21	C	0.619695	-0.478182	0.000098
C22	C	0.671974	-0.455560	0.000132
C23	C	0.775814	-0.469710	0.000179
C24	C	0.776525	-0.410313	0.000196
C25	C	0.724961	-0.373540	0.000181
C26	C	0.672685	-0.396164	0.000149
C27	C	0.568127	-0.441406	0.000065
C28	C	0.568844	-0.382004	0.000064
C29	C	0.621123	-0.359381	0.000098
C30	C	0.621832	-0.299995	0.000151
N31	N	0.674109	-0.277368	0.000167
C32	C	0.725673	-0.314141	0.000182
C33	C	0.617491	-0.662324	0.000091
C34	C	0.616778	-0.721722	0.000103
C35	C	0.720623	-0.735869	0.000136
C36	C	0.721335	-0.676470	0.000137
C37	C	0.669767	-0.639698	0.000107
C38	C	0.727163	-0.189405	0.000219
C39	C	0.727869	-0.130003	0.000243
C40	C	0.624025	-0.115860	0.000201
C41	C	0.623318	-0.175257	0.000186
C42	C	0.674891	-0.212029	0.000189
O43	O	0.578070	-0.263215	0.000194
O44	O	0.770196	-0.289433	0.000175
C45	C	0.105856	0.125350	0.000184
C46	C	0.046456	0.124638	0.000195
O47	O	0.009711	0.168424	0.000241
N48	N	0.023830	0.072362	0.000214
C49	C	0.060607	0.020794	0.000239
O50	O	0.035908	-0.023737	0.000258
C51	C	0.120006	0.021506	0.000241
C52	C	0.142629	0.073785	0.000204
C53	C	0.128479	0.177625	0.000149
C54	C	0.187876	0.178336	0.000135
C55	C	0.224649	0.126772	0.000155
C56	C	0.202025	0.074496	0.000190
C57	C	0.156783	-0.030062	0.000279
C58	C	0.216185	-0.029345	0.000282
C59	C	0.238808	0.022934	0.000245
C60	C	0.298194	0.023643	0.000195
N61	N	0.320820	0.075920	0.000177
C62	C	0.284048	0.127484	0.000157
C63	C	-0.064135	0.019302	0.000239
C64	C	-0.123533	0.018589	0.000225
C65	C	-0.137680	0.122434	0.000184
C66	C	-0.078281	0.123146	0.000186
C67	C	-0.041509	0.071578	0.000220
C68	C	0.408784	0.128974	0.000125
C69	C	0.468186	0.129680	0.000103
C70	C	0.482329	0.025836	0.000153
C71	C	0.422932	0.025129	0.000165
C72	C	0.386160	0.076702	0.000157
O73	O	0.334974	-0.020119	0.000156
O74	O	0.308755	0.172007	0.000161
C75	C	0.776472	0.069388	0.000206
C76	C	0.839689	0.070154	0.000214
C77	C	0.667577	0.178283	0.000134
C78	C	0.668343	0.241500	0.000109
N79	N	0.672321	0.074133	0.419940
N80	N	0.672332	0.074132	-0.419587
H81	H	0.770443	-0.111587	0.000275
H82	H	0.582043	-0.085909	0.000195
H83	H	-0.141947	-0.023982	0.000227
H84	H	0.769159	-0.219337	0.000214
H85	H	0.819097	-0.391900	0.000216
O86	O	0.492588	0.186069	0.000092
H87	H	0.457034	0.221804	0.000107
O88	O	0.369128	0.184597	0.000101
H89	H	0.394847	0.221063	0.000057
H90	H	-0.059867	0.165717	0.000166
O91	O	0.255849	-0.084966	0.000312
H92	H	0.230134	-0.121435	0.000325
H93	H	0.404512	-0.017441	0.000169
H94	H	0.762610	-0.765821	0.000141
O95	O	0.566929	-0.199656	0.000171
H96	H	0.564115	-0.226386	0.120389
O97	O	0.521995	-0.029779	0.000200
H98	H	0.567098	-0.020496	0.000213
O99	O	0.212273	0.234723	0.000148
H100	H	0.176716	0.270455	0.000166
O101	O	0.513220	-0.342345	0.000052
H102	H	0.511057	-0.314938	-0.120170
O103	O	0.831434	-0.509368	0.000220
H104	H	0.867898	-0.483648	0.000260
O105	O	0.132396	-0.086452	0.000355
H106	H	0.147194	-0.111221	-0.119835
O107	O	0.560391	-0.746118	0.000105
H108	H	0.557580	-0.772838	-0.120115
H109	H	-0.167632	0.164421	0.000176
O110	O	0.777721	-0.652071	0.000140
H111	H	0.813454	-0.687626	0.000136
O112	O	0.561868	-0.622662	0.000107
H113	H	0.525402	-0.648380	0.000118
H114	H	0.525555	-0.459814	0.000026
H115	H	0.098544	0.219617	0.000139
H116	H	-0.034198	-0.022693	0.000252
