data_functionalizedCrystal
_audit_creation_method	'MofGen! by Chris Wilmer'
_symmetry_space_group_name_H-M	'P1'
_symmetry_Int_Tables_number	1
_symmetry_cell_setting	triclinic
loop_
_symmetry_equiv_pos_as_xyz
  x,y,z
_cell_length_a	17.639617
_cell_length_b	29.839131
_cell_length_c	17.640968
_cell_angle_alpha	78.768609
_cell_angle_beta	70.333968
_cell_angle_gamma	101.225424
loop_
_atom_site_label
_atom_site_type_symbol
_atom_site_fract_x
_atom_site_fract_y
_atom_site_fract_z
Zn1	Zn	1.354425	0.059429	-0.721262
Zn2	Zn	1.854425	0.559429	-0.221262
Zn3	Zn	1.326394	-0.034761	-0.583390
Zn4	Zn	1.826394	0.465239	-0.083390
Zn5	Zn	1.188689	0.021352	-0.555522
Zn6	Zn	1.688689	0.521352	-0.055522
Zn7	Zn	1.216484	-0.034717	-0.693273
Zn8	Zn	1.716484	0.465283	-0.193273
O9	O	1.271498	0.002826	-0.638362
O10	O	1.771498	0.502826	-0.138362
O11	O	1.466065	0.062852	-0.726350
O12	O	1.966065	0.562852	-0.226350
O13	O	1.284765	-0.043271	-0.464344
O14	O	1.784765	0.456729	0.035656
O15	O	1.210773	0.089287	-0.577558
O16	O	1.710773	0.589287	-0.077558
O17	O	1.445472	-0.006349	-0.625056
O18	O	1.945472	0.493651	-0.125056
O19	O	1.332538	0.117263	-0.699327
O20	O	1.832538	0.617263	-0.199327
O21	O	1.183593	-0.002045	-0.443869
O22	O	1.683593	0.497955	0.056131
O23	O	1.077017	-0.002003	-0.550418
O24	O	1.577017	0.497997	-0.050418
O25	O	1.258145	-0.006275	-0.812335
O26	O	1.758145	0.493725	-0.312335
O27	O	1.097438	-0.043197	-0.651623
O28	O	1.597438	0.456803	-0.151623
O29	O	1.359490	0.062894	-0.832899
O30	O	1.859490	0.562894	-0.332899
O31	O	1.311716	-0.097639	-0.597916
O32	O	1.811716	0.402361	-0.097916
O33	O	1.230965	-0.097607	-0.678646
O34	O	1.730965	0.402393	-0.178646
C35	C	1.057317	-0.026727	-0.594960
C36	C	1.557317	0.473273	-0.094960
C37	C	0.965693	-0.039378	-0.576412
C38	C	1.465693	0.460622	-0.076412
C39	C	0.718010	0.098972	-0.779474
C40	C	1.218010	0.598972	-0.279474
C41	C	0.631912	0.087071	-0.762028
C42	C	1.131912	0.587071	-0.262028
C43	C	0.610459	0.015086	-0.656399
C44	C	1.110459	0.515086	-0.156399
C45	C	0.696558	0.026979	-0.673839
C46	C	1.196558	0.526979	-0.173839
C47	C	0.750327	0.068923	-0.735376
C48	C	1.250327	0.568923	-0.235376
C49	C	0.728874	-0.003069	-0.629741
C50	C	1.228874	0.496931	-0.129741
C51	C	0.814965	0.008826	-0.647176
C52	C	1.314965	0.508826	-0.147176
C53	C	0.868738	0.050768	-0.708709
C54	C	1.368738	0.550768	-0.208709
C55	C	0.836417	0.080818	-0.752811
C56	C	1.336417	0.580818	-0.252811
C57	C	0.675103	-0.045011	-0.568200
C58	C	1.175103	0.454989	-0.068200
C59	C	0.707419	-0.075059	-0.524102
C60	C	1.207419	0.424941	-0.024102
C61	C	0.793512	-0.063167	-0.541541
C62	C	1.293512	0.436833	-0.041541
C63	C	0.847286	-0.021224	-0.603074
C64	C	1.347286	0.478776	-0.103074
C65	C	0.825833	-0.093216	-0.497439
C66	C	1.325833	0.406784	0.002561
C67	C	0.911924	-0.081322	-0.514874
C68	C	1.411924	0.418678	-0.014874
C69	C	0.933376	-0.009330	-0.620509
C70	C	1.433376	0.490670	-0.120509
C71	C	1.271341	-0.113923	-0.638291
C72	C	1.771341	0.386077	-0.138291
C73	C	1.271355	-0.163854	-0.638303
C74	C	1.771355	0.336146	-0.138303
C75	C	1.313656	-0.473455	-0.596422
C76	C	1.813656	0.026545	-0.096422
C77	C	1.313765	-0.661109	-0.596475
C78	C	1.813765	-0.161109	-0.096475
O79	O	1.349607	-0.685358	-0.560810
O80	O	1.849607	-0.185358	-0.060810
N81	N	1.271682	-0.684584	-0.638459
N82	N	1.771682	-0.184584	-0.138459
C83	C	1.229573	-0.661141	-0.680437
C84	C	1.729573	-0.161141	-0.180437
O85	O	1.193788	-0.685412	-0.716155
O86	O	1.693788	-0.185412	-0.216155
C87	C	1.229470	-0.473486	-0.680389
C88	C	1.729470	0.026514	-0.180389
C89	C	1.271549	-0.450016	-0.638395
C90	C	1.771549	0.049984	-0.138395
C91	C	1.355733	-0.449984	-0.554432
C92	C	1.855733	0.050016	-0.054432
C93	C	1.355701	-0.403074	-0.554416
C94	C	1.855701	0.096926	-0.054416
C95	C	1.313594	-0.379635	-0.596389
C96	C	1.813594	0.120365	-0.096389
C97	C	1.271518	-0.403106	-0.638379
C98	C	1.771518	0.096894	-0.138379
C99	C	1.187367	-0.450043	-0.722372
C100	C	1.687367	0.049957	-0.222372
C101	C	1.187347	-0.403126	-0.722358
C102	C	1.687347	0.096874	-0.222358
C103	C	1.229426	-0.379655	-0.680364
C104	C	1.729426	0.120345	-0.180364
C105	C	1.229379	-0.332757	-0.680335
C106	C	1.729379	0.167243	-0.180335
N107	N	1.271462	-0.309282	-0.638351
N108	N	1.771462	0.190718	-0.138351
C109	C	1.313570	-0.332721	-0.596378
C110	C	1.813570	0.167279	-0.096378
C111	C	1.229629	-0.759663	-0.680458
C112	C	1.729629	-0.259663	-0.180458
C113	C	1.229653	-0.806577	-0.680469
C114	C	1.729653	-0.306577	-0.180469
C115	C	1.313846	-0.806541	-0.596507
C116	C	1.813846	-0.306541	-0.096507
C117	C	1.313816	-0.759628	-0.596492
C118	C	1.813816	-0.259628	-0.096492
C119	C	1.271712	-0.736188	-0.638474
C120	C	1.771712	-0.236188	-0.138474
C121	C	1.313500	-0.234207	-0.596346
C122	C	1.813500	0.265793	-0.096346
C123	C	1.313462	-0.187293	-0.596330
C124	C	1.813462	0.312707	-0.096330
C125	C	1.229273	-0.187332	-0.680295
C126	C	1.729273	0.312668	-0.180295
C127	C	1.229307	-0.234242	-0.680307
C128	C	1.729307	0.265758	-0.180307
C129	C	1.271427	-0.257678	-0.638331
C130	C	1.771427	0.242322	-0.138331
O131	O	1.193564	-0.308477	-0.715989
O132	O	1.693564	0.191523	-0.215989
O133	O	1.349364	-0.308439	-0.560680
O134	O	1.849364	0.191561	-0.060680
C135	C	1.313688	-0.520365	-0.596438
C136	C	1.813688	-0.020365	-0.096438
C137	C	1.271612	-0.543836	-0.638428
C138	C	1.771612	-0.043836	-0.138428
C139	C	1.229504	-0.520396	-0.680401
C140	C	1.729504	-0.020396	-0.180401
C141	C	1.271636	-0.590749	-0.638439
C142	C	1.771636	-0.090749	-0.138439
C143	C	1.313743	-0.614188	-0.596466
C144	C	1.813743	-0.114188	-0.096466
C145	C	1.355826	-0.590714	-0.554482
C146	C	1.855826	-0.090714	-0.054482
C147	C	1.355795	-0.543804	-0.554465
C148	C	1.855795	-0.043804	-0.054465
C149	C	1.187421	-0.543871	-0.722385
C150	C	1.687421	-0.043871	-0.222385
C151	C	1.187455	-0.590781	-0.722398
C152	C	1.687455	-0.090781	-0.222398
C153	C	1.229562	-0.614220	-0.680425
C154	C	1.729562	-0.114220	-0.180425
C155	C	1.486516	0.032494	-0.681934
C156	C	1.986516	0.532494	-0.181934
C157	C	1.578144	0.045137	-0.700502
C158	C	2.078144	0.545137	-0.200502
C159	C	1.315044	0.032562	-0.853362
C160	C	1.815044	0.532562	-0.353362
C161	C	1.333601	0.045234	-0.944982
C162	C	1.833601	0.545234	-0.444982
C163	C	1.271682	0.120036	-0.638456
C164	C	1.771682	0.620036	-0.138456
C165	C	1.271760	0.169984	-0.638496
C166	C	1.771760	0.669984	-0.138496
C167	C	1.130840	-0.093153	-1.192785
C168	C	1.630840	0.406847	-0.692785
C169	C	1.148295	-0.081237	-1.278879
C170	C	1.648295	0.418763	-0.778879
C171	C	1.253816	-0.009218	-1.300280
C172	C	1.753816	0.490782	-0.800280
C173	C	1.236367	-0.021126	-1.214185
C174	C	1.736367	0.478874	-0.714185
C175	C	1.174879	-0.063094	-1.160444
C176	C	1.674879	0.436906	-0.660444
C177	C	1.280407	0.008933	-1.181844
C178	C	1.780407	0.508933	-0.681844
C179	C	1.262962	-0.002976	-1.095757
C180	C	1.762962	0.497024	-0.595757
C181	C	1.201479	-0.044943	-1.042010
C182	C	1.701479	0.455057	-0.542010
C183	C	1.157435	-0.075003	-1.074356
C184	C	1.657435	0.424997	-0.574356
C185	C	1.341898	0.050899	-1.235587
C186	C	1.841898	0.550899	-0.735587
C187	C	1.385938	0.080958	-1.203246
C188	C	1.885938	0.580958	-0.703246
C189	C	1.368490	0.069051	-1.117157
C190	C	1.868490	0.569051	-0.617157
C191	C	1.307006	0.027084	-1.063411
C192	C	1.807006	0.527084	-0.563411
C193	C	1.412533	0.099111	-1.084811
C194	C	1.912533	0.599111	-0.584811
C195	C	1.395089	0.087202	-0.998724
C196	C	1.895089	0.587202	-0.498724
C197	C	1.289562	0.015176	-0.977323
C198	C	1.789562	0.515176	-0.477323
C199	C	1.228169	-0.026756	-0.424208
C200	C	1.728169	0.473244	0.075792
C201	C	1.209772	-0.039279	-0.332620
C202	C	1.709772	0.460721	0.167380
H203	H	0.566669	-0.019064	-0.606293
H204	H	1.066669	0.480936	-0.106293
H205	H	1.239473	-0.018991	-0.933560
H206	H	1.739473	0.481009	-0.433560
C207	C	1.359828	-0.259981	-0.550164
C208	C	1.859828	0.240019	-0.050164
N209	N	1.394716	-0.279395	-0.515375
N210	N	1.894716	0.220605	-0.015375
H211	H	1.194987	-0.168241	-0.714466
H212	H	1.694987	0.331759	-0.214466
C213	C	1.453565	0.127124	-1.262369
C214	C	1.953565	0.627124	-0.762369
N215	N	1.504499	0.161900	-1.306899
N216	N	2.004499	0.661900	-0.806899
H217	H	0.782041	-0.127364	-0.447329
H218	H	1.282041	0.372636	0.052671
H219	H	0.938838	0.060453	-0.722901
H220	H	1.438838	0.560453	-0.222901
C221	C	1.089794	-0.121170	-1.015236
C222	C	1.589794	0.378830	-0.515236
N223	N	1.038852	-0.155942	-0.970707
N224	N	1.538852	0.344058	-0.470707
H225	H	0.938236	-0.105790	-0.478965
H226	H	1.438236	0.394210	0.021035
H227	H	1.195046	-0.253352	-0.714505
H228	H	1.695046	0.246648	-0.214505
C229	C	1.063199	-0.139320	-1.133664
C230	C	1.563199	0.360680	-0.633664
N231	N	1.012257	-0.174092	-1.089135
N232	N	1.512257	0.325908	-0.589135
H233	H	1.187281	-0.054639	-0.971914
H234	H	1.687281	0.445361	-0.471914
H235	H	1.390060	-0.524697	-0.520270
H236	H	1.890060	-0.024697	-0.020270
H237	H	1.153182	-0.609888	-0.756592
H238	H	1.653182	-0.109888	-0.256592
H239	H	0.880200	0.114971	-0.802924
H240	H	1.380200	0.614971	-0.302924
H241	H	0.605000	-0.054686	-0.553988
H242	H	1.105000	0.445314	-0.053988
H243	H	1.390109	-0.609807	-0.520303
H244	H	1.890109	-0.109807	-0.020303
C245	C	1.360170	-0.832332	-0.550342
C246	C	1.860170	-0.332332	-0.050342
N247	N	1.395065	-0.851758	-0.515578
N248	N	1.895065	-0.351758	-0.015578
H249	H	0.663629	-0.109209	-0.473996
H250	H	1.163629	0.390791	0.026004
H251	H	1.356101	0.060593	-1.305685
H252	H	1.856101	0.560593	-0.805685
H253	H	1.195379	-0.825685	-0.714655
H254	H	1.695379	-0.325685	-0.214655
C255	C	0.777163	0.145110	-0.847173
C256	C	1.277163	0.645110	-0.347173
N257	N	0.821716	0.179861	-0.898161
N258	N	1.321716	0.679861	-0.398161
C259	C	1.359749	-0.161480	-0.550127
C260	C	1.859749	0.338520	-0.050127
N261	N	1.394611	-0.142038	-0.515327
N262	N	1.894611	0.357962	-0.015327
H263	H	1.195340	-0.740582	-0.714645
H264	H	1.695340	-0.240582	-0.214645
H265	H	1.153097	-0.469146	-0.756563
H266	H	1.653097	0.030854	-0.256563
C267	C	1.321444	0.036949	-1.359403
C268	C	1.821444	0.536949	-0.859403
N269	N	1.372378	0.071724	-1.403933
N270	N	1.872378	0.571724	-0.903933
C271	C	0.596370	0.120128	-0.810548
C272	C	1.096370	0.620128	-0.310548
N273	N	0.569599	0.145027	-0.847091
N274	N	1.069599	0.645027	-0.347091
H275	H	1.389968	-0.383966	-0.520224
H276	H	1.889968	0.116034	-0.020224
H277	H	1.390026	-0.469063	-0.520253
H278	H	1.890026	0.030937	-0.020253
C279	C	1.360109	-0.733814	-0.550299
C280	C	1.860109	-0.233814	-0.050299
N281	N	1.394980	-0.714373	-0.515506
N282	N	1.894980	-0.214373	-0.015506
H283	H	1.462602	0.133279	-1.128580
H284	H	1.962602	0.633279	-0.628580
C285	C	1.099841	-0.114307	-1.314450
C286	C	1.599841	0.385693	-0.814450
N287	N	1.063346	-0.139215	-1.341241
N288	N	1.563346	0.360785	-0.841241
H289	H	1.153133	-0.524790	-0.756566
H290	H	1.653133	-0.024790	-0.256566
H291	H	1.430949	0.111680	-0.972391
H292	H	1.930949	0.611680	-0.472391
C293	C	1.141028	-0.377345	-0.768543
C294	C	1.641028	0.122655	-0.268543
N295	N	1.106139	-0.357928	-0.803328
N296	N	1.606139	0.142072	-0.303328
H297	H	0.977159	0.024824	-0.670622
H298	H	1.477159	0.524824	-0.170622
