data_functionalizedCrystal
_audit_creation_method	'MofGen! by Chris Wilmer'
_symmetry_space_group_name_H-M	'P1'
_symmetry_Int_Tables_number	1
_symmetry_cell_setting	triclinic
loop_
_symmetry_equiv_pos_as_xyz
  x,y,z
_cell_length_a	6.817900
_cell_length_b	10.943574
_cell_length_c	10.943624
_cell_angle_alpha	91.772393
_cell_angle_beta	108.838799
_cell_angle_gamma	108.837846
loop_
_atom_site_label
_atom_site_type_symbol
_atom_site_fract_x
_atom_site_fract_y
_atom_site_fract_z
V1	V	-4.115492	-0.178596	-0.402524
O2	O	-4.073204	0.008617	-0.394890
O3	O	-4.093439	-0.354160	-0.399743
O4	O	-4.093454	-0.175834	-0.578091
O5	O	-4.073188	-0.170944	-0.215308
V6	V	-4.592290	-0.156205	-0.380134
O7	O	-4.391502	-0.227713	-0.451636
O8	O	-4.766477	-0.107089	-0.331022
O9	O	-4.391136	0.019358	-0.382915
O10	O	-4.751974	-0.343419	-0.387769
O11	O	-4.751990	-0.163858	-0.567350
O12	O	-4.391120	-0.158968	-0.204568
C13	C	-3.943996	-0.396959	-0.393386
C14	C	-4.007427	-0.540485	-0.392284
C15	C	-3.890258	-0.703489	-0.384276
C16	C	-4.003635	-0.637681	-0.495234
C17	C	-3.893183	-0.604393	-0.281389
C18	C	-4.233990	-0.730421	-0.501411
C19	C	-4.123465	-0.697124	-0.287470
C20	C	-4.237013	-0.631364	-0.398458
C21	C	-3.944014	-0.169485	-0.620884
C22	C	-4.007454	-0.168388	-0.764411
C23	C	-3.852284	-0.161001	-0.841560
C24	C	-4.041640	-0.270645	-0.947533
C25	C	-3.931163	-0.056802	-0.914179
C26	C	-4.196021	-0.278135	-0.868507
C27	C	-4.085464	-0.064194	-0.835130
C28	C	-4.274957	-0.173870	-0.941074
C29	C	-4.203921	0.062151	-0.389268
C30	C	-4.119730	0.205675	-0.390379
C31	C	-4.203902	-0.165321	-0.161767
C32	C	-4.119700	-0.166411	-0.018239
H33	H	-4.174655	-0.723695	-0.199608
C34	C	-4.610603	-0.766917	-0.634847
C35	C	-4.429195	-0.804045	-0.627057
H36	H	-4.731110	-0.812377	-0.712412
H37	H	-4.571195	-0.675562	-0.636282
H38	H	-4.652553	-0.787653	-0.561138
H39	H	-4.387234	-0.783299	-0.700763
H40	H	-4.468607	-0.895420	-0.625634
H41	H	-3.952392	-0.611143	-0.583092
C42	C	-4.498446	-0.620263	-0.298885
C43	C	-4.434354	-0.588635	-0.406605
H44	H	-4.620285	-0.593890	-0.303927
H45	H	-4.378101	-0.576437	-0.220724
H46	H	-4.540457	-0.711920	-0.298967
H47	H	-4.392327	-0.496976	-0.406518
H48	H	-4.554725	-0.632458	-0.484787
C49	C	-3.635928	-0.620461	-0.077964
C50	C	-3.697839	-0.530563	-0.155876
H51	H	-3.515334	-0.574882	-0.000479
H52	H	-3.592802	-0.675379	-0.124754
H53	H	-3.757659	-0.672075	-0.055803
H54	H	-3.576113	-0.478955	-0.178045
H55	H	-3.740956	-0.475622	-0.109078
C56	C	-3.587266	-0.262144	-0.840171
C57	C	-3.610374	-0.153853	-0.782887
H58	H	-3.437929	-0.257736	-0.803940
H59	H	-3.626609	-0.262150	-0.931721
H60	H	-3.681568	-0.339988	-0.823680
H61	H	-3.516084	-0.076008	-0.799385
H62	H	-3.571005	-0.153834	-0.691315
C63	C	-4.079597	-0.386799	-1.148465
C64	C	-4.017540	-0.388464	-1.013612
H65	H	-4.064716	-0.459536	-1.189253
H66	H	-3.986921	-0.308285	-1.164895
H67	H	-4.229257	-0.391467	-1.182703
H68	H	-3.867874	-0.383786	-0.979371
H69	H	-4.110215	-0.466998	-0.997172
C70	C	-4.285102	-0.404495	-0.705688
C71	C	-4.346377	-0.404560	-0.840767
H72	H	-4.377911	-0.482549	-0.688564
H73	H	-4.300435	-0.331265	-0.666158
H74	H	-4.135409	-0.399647	-0.670738
H75	H	-4.496066	-0.409399	-0.875716
H76	H	-4.331064	-0.477810	-0.880312
C77	C	-4.051195	0.050610	-0.634451
C78	C	-4.109432	0.053636	-0.768995
H79	H	-4.065981	0.123360	-0.593619
H80	H	-3.902154	0.054354	-0.599096
H81	H	-4.145986	-0.027930	-0.619393
H82	H	-4.014630	0.132172	-0.784053
H83	H	-4.258497	0.049904	-0.804361
H84	H	-3.819816	0.036718	-0.934956
H85	H	-3.744387	-0.735399	-0.378404
H86	H	-4.454271	-0.179337	-0.984317
