data_functionalizedCrystal
_audit_creation_method	'MofGen! by Chris Wilmer'
_symmetry_space_group_name_H-M	'P1'
_symmetry_Int_Tables_number	1
_symmetry_cell_setting	triclinic
loop_
_symmetry_equiv_pos_as_xyz
  x,y,z
_cell_length_a	12.837943
_cell_length_b	19.288865
_cell_length_c	11.295501
_cell_angle_alpha	94.616591
_cell_angle_beta	94.169432
_cell_angle_gamma	88.982594
loop_
_atom_site_label
_atom_site_type_symbol
_atom_site_fract_x
_atom_site_fract_y
_atom_site_fract_z
O1	O	-1.380819	-0.185096	-0.099034
O2	O	-0.880819	0.314904	0.400966
O3	O	-1.079055	-0.176180	-0.099039
O4	O	-0.579055	0.323820	0.400961
O5	O	-1.238655	-0.080102	-0.099013
O6	O	-0.738655	0.419898	0.400987
O7	O	-1.221219	-0.281174	-0.099060
O8	O	-0.721219	0.218826	0.400940
O9	O	-1.226226	-0.070930	0.099040
O10	O	-0.726226	0.429070	0.599040
O11	O	-1.066627	-0.167007	0.099013
O12	O	-0.566627	0.332993	0.599013
O13	O	-1.368390	-0.175924	0.099019
O14	O	-0.868390	0.324076	0.599019
Cu15	Cu	-1.216374	-0.170628	0.117100
Cu16	Cu	-0.716374	0.329372	0.617100
Cu17	Cu	-1.231072	-0.181475	-0.117120
Cu18	Cu	-0.731072	0.318525	0.382880
O19	O	-1.208790	-0.272002	0.098992
O20	O	-0.708790	0.227998	0.598992
C21	C	-1.034234	-0.168581	-0.000013
C22	C	-0.534234	0.331419	0.499987
C23	C	-0.919199	-0.159597	-0.000014
C24	C	-0.419199	0.340403	0.499986
C25	C	-1.231879	-0.049601	0.000017
C26	C	-0.731879	0.450399	0.500017
C27	C	-1.230194	0.027618	0.000028
C28	C	-0.730194	0.527618	0.500028
C29	C	-1.413211	-0.183523	-0.000010
C30	C	-0.913211	0.316477	0.499990
C31	C	-1.528247	-0.192507	-0.000016
C32	C	-1.028247	0.307493	0.499984
C33	C	-0.677737	-0.267603	-0.000023
C34	C	-0.177737	0.232397	0.499977
C35	C	-0.569651	-0.259165	-0.000023
C36	C	-0.069651	0.240835	0.499977
C37	C	-0.594937	-0.134283	-0.000006
C38	C	-0.094937	0.365717	0.499994
C39	C	-0.703024	-0.142721	-0.000006
C40	C	-0.203024	0.357279	0.499994
C41	C	-0.744420	-0.209383	-0.000016
C42	C	-0.244420	0.290617	0.499984
C43	C	-0.852509	-0.217821	-0.000025
C44	C	-0.352509	0.282179	0.499975
C45	C	-0.877793	-0.092940	0.000001
C46	C	-0.377793	0.407060	0.500001
C47	C	-0.769706	-0.084501	0.000001
C48	C	-0.269706	0.415499	0.500001
C49	C	-1.215566	-0.302503	-0.000040
C50	C	-0.715566	0.197497	0.499960
C51	C	-1.217252	-0.379722	-0.000058
C52	C	-0.717252	0.120278	0.499942
N53	N	-1.206043	-0.162999	0.281838
N54	N	-0.706043	0.337001	0.781838
C55	C	-1.323841	0.065920	0.000035
C56	C	-0.823841	0.565920	0.500035
C57	C	-1.322259	0.138475	0.000016
C58	C	-0.822259	0.638475	0.500016
C59	C	-1.227025	0.172725	0.000014
C60	C	-0.727025	0.672725	0.500014
C61	C	-1.133367	0.134414	-0.000001
C62	C	-0.633367	0.634414	0.499999
C63	C	-1.134951	0.061860	0.000006
C64	C	-0.634951	0.561860	0.500006
C65	C	-1.147806	0.289337	0.069386
C66	C	-0.647806	0.789337	0.569386
C67	C	-1.146225	0.361890	0.069386
C68	C	-0.646225	0.861890	0.569386
C69	C	-1.222133	0.396503	-0.000013
C70	C	-0.722133	0.896503	0.499987
C71	C	-1.299640	0.358557	-0.069397
C72	C	-0.799640	0.858557	0.430603
C73	C	-1.301225	0.286003	-0.069390
C74	C	-0.801225	0.786003	0.430610
C75	C	-1.225296	0.251397	0.000005
C76	C	-0.725296	0.751397	0.500005
C77	C	-1.314072	0.513477	-0.000028
C78	C	-0.814072	1.013477	0.499972
C79	C	-1.312487	0.586032	-0.000054
C80	C	-0.812487	1.086032	0.499946
C81	C	-1.123591	0.581971	-0.000059
C82	C	-0.623591	1.081971	0.499941
C83	C	-1.125179	0.509416	-0.000044
C84	C	-0.625179	1.009416	0.499956
C85	C	-1.220422	0.475174	-0.000023
C86	C	-0.720422	0.975174	0.499977
N87	N	-1.241411	-0.189100	-0.281858
N88	N	-0.741411	0.310900	0.218142
C89	C	-1.315764	-0.244053	0.531112
C90	C	-0.815764	0.255947	1.031112
C91	C	-1.307965	-0.238282	0.655777
C92	C	-0.807965	0.261718	1.155777
C93	C	-1.182653	-0.145684	0.655834
C94	C	-0.682653	0.354316	1.155834
C95	C	-1.190452	-0.151454	0.531169
C96	C	-0.690452	0.348546	1.031169
C97	C	-1.257008	-0.200641	0.468813
C98	C	-0.757008	0.299359	0.968813
C99	C	-1.264801	-0.206415	0.344146
C100	C	-0.764801	0.293585	0.844146
C101	C	-1.139495	-0.113814	0.344205
C102	C	-0.639495	0.386186	0.844205
C103	C	-1.131696	-0.108043	0.468870
C104	C	-0.631696	0.391957	0.968870
H105	H	-0.886211	-0.272101	-0.000031
H106	H	-0.386211	0.227899	0.499969
H107	H	-1.128477	-0.105631	0.706626
H108	H	-0.628477	0.394369	1.206626
H109	H	-0.735986	-0.030226	0.000023
H110	H	-0.235986	0.469774	0.500023
H111	H	-1.046049	0.609856	-0.000067
H112	H	-0.546049	1.109856	0.499933
F113	F	-0.721797	-0.338549	-0.000048
F114	F	-0.221797	0.161451	0.499952
H115	H	-1.388749	0.617217	-0.000054
H116	H	-0.888749	1.117217	0.499946
H117	H	-1.048921	0.478230	-0.000044
H118	H	-0.548921	0.978230	0.499956
F119	F	-1.060866	-0.055697	0.535247
F120	F	-0.560866	0.444303	1.035247
F121	F	-1.035275	0.021095	-0.000002
F122	F	-0.535275	0.521095	0.499998
F123	F	-1.370504	-0.284485	0.722076
F124	F	-0.870504	0.215515	1.222076
H125	H	-1.369947	-0.284109	0.480340
H126	H	-0.869947	0.215891	0.980340
H127	H	-1.091646	-0.078468	0.293468
H128	H	-0.591646	0.421532	0.793468
F129	F	-1.335635	-0.258763	0.277783
F130	F	-0.835635	0.241237	0.777783
F131	F	-1.032012	0.170866	-0.000011
F132	F	-0.532012	0.670866	0.499989
H133	H	-1.361452	0.386737	-0.125910
H134	H	-0.861452	0.886737	0.374090
F135	F	-0.498685	-0.321130	-0.000027
F136	F	0.001315	0.178870	0.499973
H137	H	-1.085989	0.261161	0.125906
H138	H	-0.585989	0.761161	0.625906
F139	F	-0.550862	-0.063341	0.000019
F140	F	-0.050862	0.436659	0.500019
H141	H	-1.401395	0.038045	0.000048
H142	H	-0.901395	0.538045	0.500048
F143	F	-1.421935	0.179246	0.000022
F144	F	-0.921935	0.679246	0.500022
F145	F	-0.948770	-0.030975	-0.000007
F146	F	-0.448770	0.469025	0.499993
H147	H	-1.364332	0.255110	-0.125888
H148	H	-0.864332	0.755110	0.374112
H149	H	-1.391625	0.485596	-0.000016
H150	H	-0.891625	0.985596	0.499984
F151	F	-1.063739	0.402269	0.143235
F152	F	-0.563739	0.902269	0.643235
