data_functionalizedCrystal
_audit_creation_method	'MofGen! by Chris Wilmer'
_symmetry_space_group_name_H-M	'P1'
_symmetry_Int_Tables_number	1
_symmetry_cell_setting	triclinic
loop_
_symmetry_equiv_pos_as_xyz
  x,y,z
_cell_length_a	16.959455
_cell_length_b	16.959453
_cell_length_c	18.215399
_cell_angle_alpha	89.971976
_cell_angle_beta	89.981437
_cell_angle_gamma	90.016935
loop_
_atom_site_label
_atom_site_type_symbol
_atom_site_fract_x
_atom_site_fract_y
_atom_site_fract_z
Zn1	Zn	1.208417	-0.314754	-0.416091
Zn2	Zn	1.208330	-0.446939	-0.293024
Zn3	Zn	1.076236	-0.314772	-0.293041
Zn4	Zn	1.076211	-0.446887	-0.416052
O5	O	1.142299	-0.380838	-0.354552
O6	O	1.319017	-0.332303	-0.399775
O7	O	1.190782	-0.429436	-0.190042
O8	O	1.093817	-0.204159	-0.309387
O9	O	1.318953	-0.429419	-0.309358
O10	O	1.190930	-0.204146	-0.399791
O11	O	1.093733	-0.332333	-0.190054
O12	O	0.965622	-0.332283	-0.309349
O13	O	1.093774	-0.429330	-0.519041
O14	O	0.965603	-0.429348	-0.399725
O15	O	1.190906	-0.332253	-0.519070
O16	O	1.190757	-0.557543	-0.309321
O17	O	1.093690	-0.557505	-0.399709
C18	C	0.936932	-0.380812	-0.354535
C19	C	0.849076	-0.380820	-0.354545
C20	C	0.477585	-0.330255	-0.307591
C21	C	0.477615	-0.431486	-0.401554
C22	C	0.560161	-0.431475	-0.401550
C23	C	0.601423	-0.380854	-0.354565
C24	C	0.560139	-0.330244	-0.307584
C25	C	0.601451	-0.482089	-0.448524
C26	C	0.684002	-0.482081	-0.448521
C27	C	0.725265	-0.431455	-0.401539
C28	C	0.683976	-0.380843	-0.354557
C29	C	0.725238	-0.330221	-0.307572
C30	C	0.683951	-0.279604	-0.260593
C31	C	0.601402	-0.279618	-0.260602
C32	C	0.807814	-0.431441	-0.401530
C33	C	0.807792	-0.330210	-0.307564
C34	C	1.142233	-0.586204	-0.354525
C35	C	1.142277	-0.674061	-0.354538
C36	C	1.192930	-1.045471	-0.401714
C37	C	1.091888	-1.045602	-0.307499
C38	C	1.091858	-0.963056	-0.307482
C39	C	1.142365	-0.921714	-0.354583
C40	C	1.192901	-0.962918	-0.401700
C41	C	1.041318	-0.921846	-0.260370
C42	C	1.041286	-0.839295	-0.260352
C43	C	1.091797	-0.797952	-0.307450
C44	C	1.142335	-0.839160	-0.354569
C45	C	1.192842	-0.797818	-0.401669
C46	C	1.243385	-0.839026	-0.448785
C47	C	1.243412	-0.921574	-0.448798
C48	C	1.091770	-0.715403	-0.307437
C49	C	1.192812	-0.715265	-0.401655
C50	C	1.348467	-0.380865	-0.354569
C51	C	1.436323	-0.380876	-0.354577
C52	C	1.142347	-0.380784	-0.546505
C53	C	1.142367	-0.380760	-0.628304
C54	C	1.142386	-0.174670	-0.354595
C55	C	1.142424	-0.086813	-0.354613
C56	C	1.192962	-0.330165	-0.816514
C57	C	1.192971	-0.330142	-0.893373
C58	C	1.091828	-0.431234	-0.893332
C59	C	1.091816	-0.431252	-0.816474
C60	C	1.142387	-0.380719	-0.778067
C61	C	1.142409	-0.380677	-0.931783
C62	C	1.142419	-0.380653	-1.015117
C63	C	1.142376	-0.380742	-0.694728
C64	C	1.142296	-0.380835	-0.163345
C65	C	1.142429	-0.380636	-0.081547
H66	H	0.717557	-0.238392	-0.222335
H67	H	0.567779	-0.238409	-0.222353
O68	O	1.037239	-0.485766	-0.775010
H69	H	1.050758	-0.547807	-0.789736
H70	H	1.233944	-0.681609	-0.440008
O71	O	0.852296	-0.275620	-0.256878
H72	H	0.809717	-0.240436	-0.224209
O73	O	0.986841	-0.966427	-0.209571
H74	H	1.000424	-0.950604	-0.151823
O75	O	0.556939	-0.536677	-0.499199
H76	H	0.519364	-0.501340	-0.536700
O77	O	0.986789	-0.794851	-0.209526
H78	H	0.951681	-0.837468	-0.176771
O79	O	1.297862	-0.794434	-0.499585
H80	H	1.289349	-0.730111	-0.491654
O81	O	0.433063	-0.275681	-0.256904
H82	H	0.368729	-0.284199	-0.264791
H83	H	0.841426	-0.472655	-0.439777
H84	H	1.050615	-0.681856	-0.269080
O85	O	0.433117	-0.486082	-0.452231
H86	H	0.368779	-0.477584	-0.444347
H87	H	0.717611	-0.523296	-0.486775
H88	H	1.284560	-0.955133	-0.487157
H89	H	1.234083	-1.079026	-0.440073
H90	H	1.234138	-0.289015	-0.785245
O91	O	1.247524	-0.275621	-0.934843
H92	H	1.282689	-0.240492	-0.895221
H93	H	1.050765	-1.079268	-0.269155
H94	H	1.050657	-0.472378	-0.924612
