data_functionalizedCrystal
_audit_creation_method	'MofGen! by Chris Wilmer'
_symmetry_space_group_name_H-M	'P1'
_symmetry_Int_Tables_number	1
_symmetry_cell_setting	triclinic
loop_
_symmetry_equiv_pos_as_xyz
  x,y,z
_cell_length_a	17.699083
_cell_length_b	10.654550
_cell_length_c	9.730223
_cell_angle_alpha	90.000193
_cell_angle_beta	89.994169
_cell_angle_gamma	83.883959
loop_
_atom_site_label
_atom_site_type_symbol
_atom_site_fract_x
_atom_site_fract_y
_atom_site_fract_z
O1	O	-1.005081	-0.158800	-0.114094
O2	O	-0.784834	-0.179462	-0.114138
O3	O	-0.900021	0.013697	-0.114110
O4	O	-0.889894	-0.351959	-0.114122
O5	O	-0.900020	0.013692	0.114470
O6	O	-0.784833	-0.179467	0.114442
O7	O	-1.005080	-0.158805	0.114486
Zn8	Zn	-0.894956	-0.169137	0.150756
Zn9	Zn	-0.894958	-0.169130	-0.150408
O10	O	-0.889892	-0.351964	0.114458
C11	C	-0.899277	0.060479	0.000178
C12	C	-0.897052	0.199884	0.000173
C13	C	-0.756632	-0.178724	0.000146
C14	C	-0.672599	-0.176503	0.000129
C15	C	-1.033282	-0.159543	0.000199
C16	C	-1.117314	-0.161764	0.000207
C17	C	-0.624699	-0.289883	0.000126
C18	C	-0.545743	-0.287788	0.000144
C19	C	-0.514688	-0.172313	0.000155
C20	C	-0.562594	-0.058924	0.000162
C21	C	-0.641549	-0.061020	0.000154
C22	C	-0.244177	-0.050470	0.000197
C23	C	-0.165216	-0.048383	0.000201
C24	C	-0.148371	-0.277239	0.000186
C25	C	-0.227326	-0.279334	0.000178
C26	C	-0.275225	-0.165946	0.000193
C27	C	-0.360839	-0.168219	0.000176
C28	C	-0.429076	-0.170039	0.000162
C29	C	-0.890637	-0.398746	0.000167
C30	C	-0.892861	-0.538151	0.000163
N31	N	-0.894960	-0.169140	0.356292
C32	C	-0.964873	0.280557	0.000191
C33	C	-0.962778	0.411541	0.000181
C34	C	-0.825036	0.381166	0.000141
C35	C	-0.827132	0.250185	0.000141
C36	C	-1.044397	0.298094	0.000220
C37	C	-1.042302	0.429078	0.000210
N38	N	-0.894959	-0.169117	-0.355944
C39	C	-0.945979	-0.083638	0.428231
C40	C	-0.945977	-0.083623	0.572114
C41	C	-0.843936	-0.254623	0.572107
C42	C	-0.843935	-0.254631	0.428227
C43	C	-1.004893	0.015084	0.428236
C44	C	-1.004891	0.015099	0.572119
H45	H	-0.649978	-0.383916	0.000115
H46	H	-0.506745	-0.380114	0.000139
H47	H	-1.066336	0.475144	-0.098480
F48	F	-1.080911	-0.011687	0.623183
H49	H	-0.802385	-0.324242	0.369655
F50	F	-0.260372	-0.402239	0.000157
F51	F	-0.529541	0.063975	0.000184
H52	H	-0.771905	0.184504	0.000108
H53	H	-0.109361	-0.369564	0.000181
F54	F	-0.132168	0.074528	0.000213
H55	H	-0.768108	0.422138	0.000114
F56	F	-0.295145	0.070208	0.000212
H57	H	-0.680549	0.031306	0.000156
F58	F	-1.076712	-0.023653	0.369913
H59	H	-0.991971	0.111390	0.389182
H60	H	-1.075503	0.269283	-0.095427
F61	F	-0.980852	0.133905	0.630441
F62	F	-1.077486	0.252095	0.129236
F63	F	-1.081463	0.484350	0.125248
F64	F	-0.789633	-0.345602	0.648676
