data_functionalizedCrystal
_audit_creation_method	'MofGen! by Chris Wilmer'
_symmetry_space_group_name_H-M	'P1'
_symmetry_Int_Tables_number	1
_symmetry_cell_setting	triclinic
loop_
_symmetry_equiv_pos_as_xyz
  x,y,z
_cell_length_a	19.288864
_cell_length_b	17.699083
_cell_length_c	17.766277
_cell_angle_alpha	89.992740
_cell_angle_beta	89.976791
_cell_angle_gamma	83.209630
loop_
_atom_site_label
_atom_site_type_symbol
_atom_site_fract_x
_atom_site_fract_y
_atom_site_fract_z
O1	O	0.921465	0.094417	-0.062837
O2	O	1.254798	0.427751	0.270496
O3	O	1.588132	0.761084	0.603830
O4	O	0.719219	0.107154	-0.062786
O5	O	1.052553	0.440487	0.270548
O6	O	1.385886	0.773821	0.603881
O7	O	0.826056	-0.009412	-0.062806
O8	O	1.159389	0.323922	0.270527
O9	O	1.492723	0.657255	0.603860
O10	O	0.814628	0.210983	-0.062817
O11	O	1.147961	0.544316	0.270517
O12	O	1.481295	0.877650	0.603850
O13	O	0.826037	-0.009417	0.062382
O14	O	1.159371	0.323916	0.395716
O15	O	1.492704	0.657249	0.729049
O16	O	0.719201	0.107148	0.062403
O17	O	1.052534	0.440481	0.395736
O18	O	1.385867	0.773815	0.729069
O19	O	0.921446	0.094411	0.062351
O20	O	1.254779	0.427745	0.395685
O21	O	1.588113	0.761078	0.729018
Cu22	Cu	0.820322	0.100779	0.073808
Cu23	Cu	1.153655	0.434113	0.407141
Cu24	Cu	1.486988	0.767446	0.740474
Cu25	Cu	0.820344	0.100786	-0.074242
Cu26	Cu	1.153677	0.434120	0.259091
Cu27	Cu	1.487010	0.767453	0.592425
O28	O	0.814609	0.210977	0.062372
O29	O	1.147943	0.544310	0.395705
O30	O	1.481276	0.877644	0.729039
C31	C	0.693333	0.106741	-0.000185
C32	C	1.026666	0.440075	0.333148
C33	C	1.360000	0.773408	0.666482
C34	C	0.616228	0.105511	-0.000165
C35	C	0.949561	0.438844	0.333168
C36	C	1.282895	0.772178	0.666502
C37	C	0.571613	0.173906	-0.000180
C38	C	0.904946	0.507240	0.333153
C39	C	1.238279	0.840573	0.666486
C40	C	0.499164	0.172751	-0.000188
C41	C	0.832497	0.506084	0.333145
C42	C	1.165831	0.839417	0.666478
C43	C	0.471334	0.103196	-0.000197
C44	C	0.804668	0.436529	0.333137
C45	C	1.138001	0.769862	0.666470
C46	C	0.515959	0.034791	-0.000177
C47	C	0.849293	0.368124	0.333156
C48	C	1.182626	0.701458	0.666489
C49	C	0.588406	0.035949	-0.000162
C50	C	0.921740	0.369282	0.333172
C51	C	1.255073	0.702616	0.666505
C52	C	0.363014	0.048520	-0.044079
C53	C	0.696347	0.381853	0.289255
C54	C	1.029681	0.715186	0.622588
C55	C	0.290568	0.047365	-0.044099
C56	C	0.623902	0.380698	0.289234
C57	C	0.957235	0.714031	0.622568
C58	C	0.247884	0.099622	-0.000242
C59	C	0.581218	0.432955	0.333091
C60	C	0.914551	0.766289	0.666424
C61	C	0.277654	0.153047	0.043625
C62	C	0.610987	0.486380	0.376959
C63	C	0.944321	0.819713	0.710292
C64	C	0.350101	0.154204	0.043641
C65	C	0.683434	0.487538	0.376975
C66	C	1.016767	0.820871	0.710308
C67	C	0.392779	0.101932	-0.000213
C68	C	0.726112	0.435266	0.333120
C69	C	1.059445	0.768599	0.666453
C70	C	0.124712	0.166769	-0.000265
C71	C	0.458045	0.500102	0.333068
C72	C	0.791378	0.833435	0.666402
C73	C	0.052262	0.165610	-0.000269
C74	C	0.385596	0.498943	0.333065
C75	C	0.718929	0.832277	0.666398
C76	C	0.069059	0.027649	-0.000265
C77	C	0.402393	0.360982	0.333068
C78	C	0.735726	0.694315	0.666401
C79	C	0.141507	0.028809	-0.000254
C80	C	0.474840	0.362143	0.333079
C81	C	0.808174	0.695476	0.666413
C82	C	0.169329	0.098371	-0.000258
C83	C	0.502662	0.431705	0.333076
C84	C	0.835995	0.765038	0.666409
C85	C	0.825637	-0.037611	-0.000212
C86	C	1.158970	0.295722	0.333122
C87	C	1.492304	0.629056	0.666455
C88	C	0.824409	-0.121627	-0.000211
C89	C	1.157742	0.211706	0.333122
C90	C	1.491075	0.545039	0.666456
C91	C	0.887120	-0.170336	-0.000226
C92	C	1.220453	0.162997	0.333107
C93	C	1.553786	0.496330	0.666441
C94	C	0.885961	-0.249278	-0.000232
C95	C	1.219295	0.084055	0.333101
C96	C	1.552628	0.417389	0.666434
C97	C	0.822091	-0.279509	-0.000219
C98	C	1.155424	0.053824	0.333115
C99	C	1.488758	0.387158	0.666448
C100	C	0.759375	-0.230794	-0.000206
C101	C	1.092709	0.102540	0.333127
C102	C	1.426042	0.435873	0.666461
C103	C	0.760535	-0.151854	-0.000205
C104	C	1.093868	0.181480	0.333128
C105	C	1.427201	0.514813	0.666462
C106	C	0.754699	-0.549150	-0.000211
C107	C	1.088033	-0.215817	0.333122
C108	C	1.421366	0.117516	0.666456
C109	C	0.753545	-0.628097	-0.000210
C110	C	1.086878	-0.294763	0.333124
C111	C	1.420212	0.038570	0.666457
C112	C	0.880126	-0.646575	-0.000238
C113	C	1.213459	-0.313241	0.333095
C114	C	1.546793	0.020092	0.666428
C115	C	0.881285	-0.567635	-0.000237
C116	C	1.214618	-0.234301	0.333096
C117	C	1.547952	0.099032	0.666429
C118	C	0.818570	-0.518926	-0.000229
C119	C	1.151903	-0.185593	0.333105
C120	C	1.485236	0.147740	0.666438
C121	C	0.819827	-0.433329	-0.000223
C122	C	1.153160	-0.099995	0.333110
C123	C	1.486493	0.233338	0.666443
C124	C	0.820834	-0.365105	-0.000219
C125	C	1.154167	-0.031772	0.333115
C126	C	1.487500	0.301562	0.666448
C127	C	0.947332	0.094824	-0.000251
C128	C	1.280666	0.428158	0.333082
C129	C	1.613999	0.761491	0.666416
C130	C	1.024437	0.096054	-0.000276
C131	C	1.357771	0.429388	0.333058
C132	C	1.691104	0.762721	0.666391
C133	C	0.815028	0.239176	-0.000224
C134	C	1.148362	0.572510	0.333109
C135	C	1.481695	0.905843	0.666442
C136	C	0.816257	0.323193	-0.000230
C137	C	1.149590	0.656526	0.333104
C138	C	1.482923	0.989859	0.666437
N139	N	0.820311	0.100774	0.177938
N140	N	1.153644	0.434107	0.511271
N141	N	1.486978	0.767440	0.844605
N142	N	0.820360	0.100786	-0.178372
N143	N	1.153693	0.434119	0.154961
N144	N	1.487026	0.767452	0.488294
C145	C	0.867634	0.049184	0.217316
C146	C	1.200967	0.382517	0.550649
C147	C	1.534300	0.715851	0.883983
C148	C	0.867638	0.049180	0.296118
C149	C	1.200971	0.382514	0.629451
C150	C	1.534304	0.715847	0.962784
C151	C	0.820326	0.100780	0.335539
C152	C	1.153659	0.434113	0.668872
C153	C	1.486992	0.767447	1.002205
C154	C	0.772994	0.152374	0.296151
C155	C	1.106328	0.485707	0.629485
C156	C	1.439661	0.819040	0.962818
C157	C	0.772987	0.152371	0.217351
C158	C	1.106320	0.485704	0.550684
C159	C	1.439654	0.819037	0.884018
C160	C	0.811109	0.169742	0.460375
C161	C	1.144442	0.503075	0.793708
C162	C	1.477775	0.836408	1.127042
C163	C	0.811121	0.169746	0.539174
C164	C	1.144454	0.503079	0.872507
C165	C	1.477787	0.836412	1.205840
C166	C	0.820344	0.100789	0.578585
C167	C	1.153678	0.434122	0.911918
C168	C	1.487011	0.767456	1.245252
C169	C	0.829570	0.031825	0.539188
C170	C	1.162904	0.365159	0.872521
C171	C	1.496237	0.698492	1.205854
C172	C	0.829563	0.031822	0.460388
C173	C	1.162896	0.365156	0.793721
C174	C	1.496230	0.698489	1.127054
C175	C	0.820328	0.100789	0.420984
C176	C	1.153661	0.434122	0.754318
C177	C	1.486995	0.767455	1.087651
C178	C	0.867674	0.049191	0.703409
C179	C	1.201007	0.382524	1.036742
C180	C	1.534340	0.715858	1.370075
C181	C	0.867673	0.049186	0.782212
C182	C	1.201006	0.382520	1.115545
C183	C	1.534340	0.715853	1.448879
C184	C	0.773033	0.152386	0.782244
C185	C	1.106366	0.485720	1.115577
C186	C	1.439700	0.819053	1.448911
C187	C	0.773030	0.152384	0.703442
C188	C	1.106364	0.485718	1.036776
C189	C	1.439697	0.819051	1.370109
C190	C	0.820355	0.100787	0.664029
C191	C	1.153688	0.434121	0.997363
C192	C	1.487021	0.767454	1.330696
H193	H	0.493296	-0.021841	-0.000195
H194	H	0.826629	0.311492	0.333139
H195	H	1.159962	0.644826	0.666472
N196	N	0.956010	-0.137736	-0.000239
N197	N	1.289343	0.195597	0.333095
N198	N	1.622677	0.528931	0.666428
H199	H	0.947231	-0.080336	-0.000232
H200	H	1.280564	0.252997	0.333101
H201	H	1.613898	0.586331	0.666435
H202	H	0.983435	-0.155579	0.046165
H203	H	1.316768	0.177754	0.379498
H204	H	1.650102	0.511087	0.712831
N205	N	0.918671	-0.006467	0.174806
N206	N	1.252005	0.326866	0.508140
N207	N	1.585338	0.660200	0.841473
H208	H	0.948650	-0.039151	0.211715
H209	H	1.281984	0.294183	0.545048
H210	H	1.615317	0.627516	0.878381
H211	H	0.892137	-0.039857	0.142134
H212	H	1.225470	0.293476	0.475467
H213	H	1.558804	0.626809	0.808800
N214	N	0.950176	-0.535035	-0.000254
N215	N	1.283510	-0.201702	0.333079
N216	N	1.616843	0.131631	0.666413
H217	H	0.953484	-0.502689	-0.046662
H218	H	1.286817	-0.169355	0.286672
H219	H	1.620151	0.163978	0.620005
H220	H	0.953432	-0.502738	0.046184
H221	H	1.286765	-0.169405	0.379517
H222	H	1.620098	0.163928	0.712850
H223	H	0.703632	-0.509501	-0.000204
H224	H	1.036966	-0.176167	0.333130
H225	H	1.370299	0.157166	0.666463
N226	N	0.947772	-0.699110	-0.000248
N227	N	1.281105	-0.365777	0.333086
N228	N	1.614439	-0.032444	0.666419
H229	H	0.937350	-0.753707	-0.000248
H230	H	1.270683	-0.420373	0.333085
H231	H	1.604017	-0.087040	0.666419
H232	H	0.975624	-0.689341	-0.046660
H233	H	1.308958	-0.356007	0.286673
H234	H	1.642291	-0.022674	0.620007
N235	N	0.636536	-0.037821	-0.000155
N236	N	0.969869	0.295512	0.333179
N237	N	1.303202	0.628846	0.666512
H238	H	0.666945	-0.040416	0.046258
H239	H	1.000278	0.292918	0.379591
H240	H	1.333611	0.626251	0.712924
H241	H	0.607869	-0.082021	-0.000188
H242	H	0.941203	0.251313	0.333146
H243	H	1.274536	0.584646	0.666479
H244	H	0.707371	-0.255414	-0.000199
H245	H	1.040705	0.077919	0.333134
H246	H	1.374038	0.411253	0.666467
H247	H	0.266336	0.003866	-0.079822
H248	H	0.599669	0.337199	0.253512
H249	H	0.933002	0.670533	0.586845
H250	H	0.906206	0.007175	0.671318
H251	H	1.239539	0.340508	1.004651
H252	H	1.572873	0.673842	1.337984
H253	H	0.594260	0.230549	-0.000184
H254	H	0.927593	0.563883	0.333149
H255	H	1.260927	0.897216	0.666482
N256	N	0.801165	0.244124	0.581661
N257	N	1.134498	0.577458	0.914994
N258	N	1.467832	0.910791	1.248327
H259	H	0.802573	0.233664	0.637560
H260	H	1.135906	0.566998	0.970893
H261	H	1.469239	0.900331	1.304227
H262	H	0.839719	0.275543	0.567858
H263	H	1.173053	0.608877	0.901192
H264	H	1.506386	0.942210	1.234525
N265	N	0.918728	-0.006447	0.824688
N266	N	1.252061	0.326886	1.158021
N267	N	1.585394	0.660219	1.491355
H268	H	0.948710	-0.039125	0.787760
H269	H	1.282043	0.294208	1.121093
H270	H	1.615376	0.627542	1.454426
H271	H	0.949374	0.022466	0.857354
H272	H	1.282707	0.355800	1.190687
H273	H	1.616041	0.689133	1.524020
H274	H	0.397762	0.005964	-0.079797
H275	H	0.731096	0.339297	0.253537
H276	H	1.064429	0.672631	0.586870
N277	N	0.189637	-0.044958	-0.000252
N278	N	0.522971	0.288376	0.333081
N279	N	0.856304	0.621709	0.666414
H280	H	0.220045	-0.047554	0.046161
H281	H	0.553378	0.285779	0.379495
H282	H	0.886711	0.619112	0.712828
H283	H	0.160971	-0.089157	-0.000289
H284	H	0.494304	0.244176	0.333045
H285	H	0.827638	0.577509	0.666378
H286	H	0.242902	0.195599	0.079339
H287	H	0.576235	0.528932	0.412672
H288	H	0.909568	0.862266	0.746005
H289	H	0.709469	-0.112195	-0.000193
H290	H	1.042802	0.221139	0.333140
H291	H	1.376135	0.554472	0.666474
N292	N	0.953598	-0.301816	-0.000241
N293	N	1.286932	0.031517	0.333092
N294	N	1.620265	0.364851	0.666425
H295	H	0.981483	-0.292111	-0.046651
H296	H	1.314817	0.041222	0.286683
H297	H	1.648150	0.374556	0.620016
H298	H	0.981401	-0.292097	0.046195
H299	H	1.314734	0.041236	0.379528
H300	H	1.648068	0.374569	0.712861
H301	H	0.837073	-0.024330	0.428314
H302	H	1.170407	0.309003	0.761647
H303	H	1.503740	0.642336	1.094980
N304	N	0.684654	-0.660705	-0.000190
N305	N	1.017987	-0.327372	0.333143
N306	N	1.351320	0.005961	0.666476
H307	H	0.645099	-0.617871	-0.000185
H308	H	0.978432	-0.284538	0.333148
H309	H	1.311766	0.048796	0.666481
H310	H	0.681426	-0.693055	-0.046596
H311	H	1.014760	-0.359722	0.286737
H312	H	1.348093	-0.026388	0.620071
H313	H	0.906175	0.007168	0.328185
H314	H	1.239508	0.340501	0.661518
H315	H	1.572841	0.673835	0.994852
N316	N	0.721997	0.208036	0.824751
N317	N	1.055330	0.541369	1.158084
N318	N	1.388664	0.874703	1.491417
H319	H	0.729180	0.200209	0.880646
H320	H	1.062513	0.533542	1.213980
H321	H	1.395846	0.866876	1.547313
H322	H	0.729924	0.261708	0.810965
H323	H	1.063257	0.595041	1.144298
H324	H	1.396591	0.928375	1.477632
H325	H	0.837081	-0.024326	0.571275
H326	H	1.170414	0.309007	0.904608
H327	H	1.503747	0.642341	1.237941
N328	N	0.721989	0.208028	0.660964
N329	N	1.055322	0.541361	0.994298
N330	N	1.388656	0.874694	1.327631
H331	H	0.692016	0.240716	0.697892
H332	H	1.025349	0.574049	1.031226
H333	H	1.358682	0.907382	1.364559
H334	H	0.748515	0.241415	0.628247
H335	H	1.081848	0.574748	0.961581
H336	H	1.415182	0.908082	1.294914
H337	H	0.015936	0.221308	-0.000277
H338	H	0.349270	0.554642	0.333057
H339	H	0.682603	0.887975	0.666390
N340	N	0.154727	0.241791	-0.000265
N341	N	0.488060	0.575125	0.333068
N342	N	0.821393	0.908458	0.666402
H343	H	0.115466	0.284946	-0.000270
H344	H	0.448799	0.618279	0.333064
H345	H	0.782133	0.951613	0.666397
H346	H	0.184397	0.245273	0.046148
H347	H	0.517730	0.578606	0.379481
H348	H	0.851064	0.911940	0.712815
H349	H	0.803586	0.225898	0.428293
H350	H	1.136919	0.559231	0.761626
H351	H	1.470252	0.892565	1.094959
H352	H	0.046401	-0.028984	-0.000319
H353	H	0.379734	0.304349	0.333015
H354	H	0.713068	0.637682	0.666348
H355	H	0.734471	0.194386	0.328252
H356	H	1.067804	0.527719	0.661585
H357	H	1.401138	0.861052	0.994918
N358	N	0.721942	0.208014	0.174873
N359	N	1.055275	0.541347	0.508207
N360	N	1.388609	0.874680	0.841540
H361	H	0.691967	0.240701	0.211801
H362	H	1.025300	0.574034	0.545134
H363	H	1.358633	0.907367	0.878467
H364	H	0.748469	0.241402	0.142159
H365	H	1.081803	0.574735	0.475492
H366	H	1.415136	0.908069	0.808826
H367	H	0.374336	0.197702	0.079362
H368	H	0.707669	0.531036	0.412696
H369	H	1.041003	0.864369	0.746029
N370	N	0.451031	0.246522	-0.000206
N371	N	0.784364	0.579855	0.333127
N372	N	1.117698	0.913189	0.666460
H373	H	0.479649	0.290764	-0.000206
H374	H	0.812983	0.624097	0.333127
H375	H	1.146316	0.957431	0.666461
H376	H	0.420636	0.249039	-0.046624
H377	H	0.753969	0.582373	0.286709
H378	H	1.087302	0.915706	0.620042
