data_functionalizedCrystal
_audit_creation_method	'MofGen! by Chris Wilmer'
_symmetry_space_group_name_H-M	'P1'
_symmetry_Int_Tables_number	1
_symmetry_cell_setting	triclinic
loop_
_symmetry_equiv_pos_as_xyz
  x,y,z
_cell_length_a	13.032831
_cell_length_b	13.032721
_cell_length_c	21.395355
_cell_angle_alpha	82.834036
_cell_angle_beta	97.194272
_cell_angle_gamma	90.902885
loop_
_atom_site_label
_atom_site_type_symbol
_atom_site_fract_x
_atom_site_fract_y
_atom_site_fract_z
Zn1	Zn	1.520304	-0.609589	0.516229
Zn2	Zn	1.498335	-0.781529	0.422875
Zn3	Zn	1.348308	-0.587707	0.396727
Zn4	Zn	1.326451	-0.759634	0.512884
O5	O	1.423349	-0.684615	0.462179
O6	O	1.661304	-0.650717	0.516188
O7	O	1.478386	-0.755823	0.331725
O8	O	1.389464	-0.446701	0.403036
O9	O	1.645163	-0.777041	0.447601
O10	O	1.515829	-0.462777	0.490834
O11	O	1.368162	-0.613423	0.312515
O12	O	1.201494	-0.592194	0.399793
O13	O	1.352214	-0.739725	0.601009
O14	O	1.185436	-0.718508	0.485133
O15	O	1.494636	-0.629487	0.603466
O16	O	1.457193	-0.922534	0.444357
O17	O	1.330911	-0.906448	0.510487
C18	C	1.156149	-0.650601	0.439263
C19	C	1.041837	-0.636075	0.429476
C20	C	0.982943	-0.692196	0.467286
C21	C	0.864794	-0.677184	0.457172
C22	C	1.389324	-0.951808	0.479912
C23	C	1.374862	-1.066127	0.487528
C24	C	1.430952	-1.125025	0.458237
C25	C	1.416006	-1.243180	0.466107
C26	C	1.691593	-0.718762	0.485184
C27	C	1.805902	-0.733313	0.494988
C28	C	1.423437	-0.684605	0.625608
C29	C	1.423475	-0.684601	0.695252
C30	C	1.457535	-0.416381	0.444392
C31	C	1.472103	-0.302076	0.436812
C32	C	1.423330	-0.684558	0.299385
C33	C	1.423529	-0.684298	0.229740
C34	C	1.497632	-0.627197	0.729245
C35	C	1.497636	-0.627152	0.794677
C36	C	1.423492	-0.684531	0.826116
C37	C	1.349321	-0.741938	0.792114
C38	C	1.349313	-0.741973	0.726682
C39	C	1.403580	-0.776096	0.935241
C40	C	1.403595	-0.776065	1.000672
C41	C	1.423512	-0.684424	1.027930
C42	C	1.443435	-0.592814	0.989750
C43	C	1.443427	-0.592849	0.924318
C44	C	1.423492	-0.684500	0.897066
C45	C	1.497678	-0.626966	1.132873
C46	C	1.497675	-0.626919	1.198306
C47	C	1.349365	-0.741715	1.195742
C48	C	1.349363	-0.741753	1.130309
C49	C	1.423525	-0.684380	1.098879
H50	H	1.019990	-0.751355	0.507147
N51	N	0.992774	-0.557714	0.376672
H52	H	1.020765	-0.486607	0.383180
H53	H	0.915335	-0.558193	0.376959
N54	N	0.815740	-0.598816	0.404366
H55	H	0.738292	-0.599204	0.404623
H56	H	0.832405	-0.617085	0.362249
N57	N	1.269392	-0.803688	1.093645
H58	H	1.280637	-0.795004	1.047424
H59	H	1.197983	-0.778329	1.097705
H60	H	1.490041	-1.087980	0.427335
N61	N	1.269335	-0.803905	0.690017
H62	H	1.280585	-0.795223	0.643796
H63	H	1.197926	-0.778543	0.694074
H64	H	1.288986	-0.788423	1.221337
N65	N	0.854948	-0.811695	0.547789
H66	H	0.838362	-0.793486	0.589938
H67	H	0.932381	-0.811282	0.547476
H68	H	1.356921	-1.280224	0.497016
H69	H	1.315781	-1.103176	0.518434
H70	H	1.387088	-0.850667	0.913029
H71	H	1.531197	-1.265034	0.405909
N72	N	1.577615	-0.565317	0.695345
H73	H	1.624594	-0.528944	0.726813
H74	H	1.541817	-0.512408	0.661437
N75	N	1.577621	-0.565235	0.831353
H76	H	1.624599	-0.528895	0.801513
H77	H	1.619875	-0.613149	0.865372
H78	H	1.459655	-0.518192	1.011941
H79	H	1.459646	-0.518257	0.893234
H80	H	1.558059	-0.580244	1.107280
H81	H	1.558061	-0.580168	1.225982
N82	N	1.382115	-0.874867	1.041850
H83	H	1.369484	-0.932923	1.014654
H84	H	1.318943	-0.865301	1.063456
N85	N	1.269336	-0.803808	0.826015
H86	H	1.280592	-0.795074	0.872625
H87	H	1.275964	-0.879301	0.820837
