data_functionalizedCrystal
_audit_creation_method	'MofGen! by Chris Wilmer'
_symmetry_space_group_name_H-M	'P1'
_symmetry_Int_Tables_number	1
_symmetry_cell_setting	triclinic
loop_
_symmetry_equiv_pos_as_xyz
  x,y,z
_cell_length_a	19.188938
_cell_length_b	14.853567
_cell_length_c	13.330367
_cell_angle_alpha	90.000844
_cell_angle_beta	89.993222
_cell_angle_gamma	96.608653
loop_
_atom_site_label
_atom_site_type_symbol
_atom_site_fract_x
_atom_site_fract_y
_atom_site_fract_z
O1	O	0.926520	-0.112583	-0.083397
O2	O	0.723260	-0.127728	-0.083402
O3	O	0.830319	0.011104	-0.083402
O4	O	0.819461	-0.251416	-0.083396
O5	O	0.830304	0.011107	0.083445
O6	O	0.723244	-0.127725	0.083445
O7	O	0.926505	-0.112580	0.083450
Cu8	Cu	0.824873	-0.120152	0.098682
Cu9	Cu	0.824891	-0.120156	-0.098634
O10	O	0.819445	-0.251412	0.083451
C11	C	0.697240	-0.127235	0.000021
C12	C	0.619731	-0.125760	0.000019
C13	C	0.829820	0.044692	0.000018
C14	C	0.828345	0.144767	0.000010
C15	C	0.952525	-0.113073	0.000025
C16	C	1.030034	-0.114549	0.000021
C17	C	1.583330	-0.125058	-0.090927
C18	C	1.510501	-0.123680	-0.090930
C19	C	1.474077	-0.122986	0.000019
C20	C	1.510486	-0.123692	0.090977
C21	C	1.583313	-0.125079	0.090977
N22	N	1.364874	-0.069506	0.067717
N23	N	1.295692	-0.068187	0.067711
C24	C	1.254654	-0.118809	0.000025
N25	N	1.285413	-0.170789	-0.067670
N26	N	1.354602	-0.172104	-0.067667
C27	C	1.395109	-0.121482	0.000029
C28	C	1.139284	-0.116615	-0.090930
C29	C	1.066453	-0.115242	-0.090929
C30	C	1.066440	-0.115245	0.090981
C31	C	1.139269	-0.116626	0.090977
C32	C	1.175687	-0.117307	0.000019
C33	C	0.819945	-0.285000	0.000028
C34	C	0.821419	-0.385076	0.000030
N35	N	0.824865	-0.120149	0.237464
C36	C	0.758517	0.556915	0.000027
C37	C	0.885706	0.578899	0.000030
C38	C	0.887092	0.484873	0.000024
C39	C	0.824190	0.426863	0.000021
C40	C	0.759901	0.462880	0.000024
C41	C	0.951380	0.448849	0.000032
C42	C	0.952769	0.354818	0.000027
C43	C	0.889866	0.296806	0.000017
C44	C	0.825575	0.332828	0.000019
C45	C	0.762672	0.274819	0.000016
C46	C	0.698380	0.310839	0.000010
C47	C	0.696998	0.404869	0.000014
C48	C	0.891248	0.202777	0.000013
C49	C	0.764057	0.180784	0.000013
N50	N	0.824905	-0.120152	-0.237415
C51	C	0.777484	-0.181607	0.710087
C52	C	0.872318	-0.058698	0.710055
C53	C	0.872310	-0.058695	0.605036
C54	C	0.824889	-0.120150	0.552538
C55	C	0.777476	-0.181608	0.605059
C56	C	0.919728	0.002755	0.552508
C57	C	0.919722	0.002760	0.447483
C58	C	0.872297	-0.058692	0.394983
C59	C	0.824881	-0.120151	0.447510
C60	C	0.777460	-0.181606	0.395012
C61	C	0.730040	-0.243062	0.447538
C62	C	0.730050	-0.243059	0.552559
C63	C	0.872287	-0.058695	0.289962
C64	C	0.777452	-0.181607	0.289984
H65	H	1.480858	-0.123111	-0.164991
O66	O	1.178576	-0.117356	-0.189024
H67	H	1.158450	-0.178527	-0.232636
H68	H	1.005119	0.325499	0.000030
H69	H	0.943593	0.173453	0.000024
H70	H	0.738833	-0.231648	0.247247
O71	O	0.678881	-0.309331	0.390913
H72	H	0.686841	-0.298996	0.309062
H73	H	0.910931	-0.008668	0.752802
H74	H	1.480825	-0.123129	0.165028
O75	O	0.678915	-0.309350	0.609207
H76	H	0.686896	-0.299032	0.691054
H77	H	0.738873	-0.231641	0.752855
H78	H	1.168907	-0.117191	0.165035
H79	H	0.644655	0.434205	0.000011
O80	O	0.689174	0.595755	0.000033
H81	H	0.698775	0.670886	0.000043
O82	O	1.622579	-0.125847	0.189072
H83	H	1.585019	-0.125136	0.252317
H84	H	1.036817	-0.114677	-0.164991
H85	H	0.958333	0.052800	0.404724
O86	O	0.970875	0.069034	0.609125
H87	H	0.962907	0.058716	0.690977
O88	O	0.696211	0.118216	0.000019
H89	H	0.651277	0.159062	0.000025
H90	H	0.910898	-0.008662	0.247201
H91	H	1.612977	-0.125612	-0.164993
O92	O	0.630535	0.248270	0.000016
H93	H	0.628129	0.204905	-0.067989
O94	O	1.027150	-0.114664	0.189080
H95	H	0.970387	-0.113639	0.173803
H96	H	0.936918	0.626135	0.000041
H97	H	1.002591	0.496087	0.000043
