data_functionalizedCrystal
_audit_creation_method	'MofGen! by Chris Wilmer'
_symmetry_space_group_name_H-M	'P1'
_symmetry_Int_Tables_number	1
_symmetry_cell_setting	triclinic
loop_
_symmetry_equiv_pos_as_xyz
  x,y,z
_cell_length_a	23.532407
_cell_length_b	23.532407
_cell_length_c	10.268362
_cell_angle_alpha	89.990068
_cell_angle_beta	90.000752
_cell_angle_gamma	82.848678
loop_
_atom_site_label
_atom_site_type_symbol
_atom_site_fract_x
_atom_site_fract_y
_atom_site_fract_z
O1	O	0.755260	0.069135	-0.108151
O2	O	1.255260	0.569135	0.391849
O3	O	0.589396	0.079138	-0.108191
O4	O	1.089396	0.579138	0.391809
O5	O	0.677329	-0.008795	-0.108146
O6	O	1.177329	0.491205	0.391854
O7	O	0.667326	0.157069	-0.108196
O8	O	1.167326	0.657069	0.391804
O9	O	0.677322	-0.008798	0.108455
O10	O	1.177322	0.491202	0.608455
O11	O	0.589389	0.079135	0.108410
O12	O	1.089389	0.579135	0.608410
O13	O	0.755252	0.069132	0.108450
O14	O	1.255252	0.569132	0.608450
Cu15	Cu	0.672320	0.074133	0.128207
Cu16	Cu	1.172320	0.574133	0.628207
Cu17	Cu	0.672329	0.074137	-0.127948
Cu18	Cu	1.172329	0.574137	0.372052
O19	O	0.667319	0.157065	0.108405
O20	O	1.167319	0.657065	0.608405
C21	C	0.568176	0.078882	0.000105
C22	C	1.068176	0.578882	0.500105
C23	C	0.504959	0.078116	0.000090
C24	C	1.004959	0.578116	0.500090
C25	C	0.105856	0.125350	0.000135
C26	C	0.605856	0.625350	0.500135
C27	C	0.046456	0.124638	0.000143
C28	C	0.546456	0.624638	0.500143
O29	O	0.009711	0.168424	0.000177
O30	O	0.509711	0.668424	0.500177
N31	N	0.023830	0.072362	0.000157
N32	N	0.523830	0.572362	0.500157
C33	C	0.060607	0.020794	0.000176
C34	C	0.560607	0.520794	0.500176
O35	O	0.035908	-0.023737	0.000189
O36	O	0.535908	0.476263	0.500189
C37	C	0.120006	0.021506	0.000177
C38	C	0.620006	0.521506	0.500177
C39	C	0.142629	0.073785	0.000150
C40	C	0.642629	0.573785	0.500150
C41	C	0.128479	0.177625	0.000110
C42	C	0.628479	0.677625	0.500110
C43	C	0.187876	0.178336	0.000099
C44	C	0.687876	0.678336	0.500099
C45	C	0.224649	0.126772	0.000114
C46	C	0.724649	0.626772	0.500114
C47	C	0.202025	0.074496	0.000139
C48	C	0.702025	0.574496	0.500139
C49	C	0.156783	-0.030062	0.000205
C50	C	0.656783	0.469938	0.500205
C51	C	0.216185	-0.029345	0.000207
C52	C	0.716185	0.470655	0.500207
C53	C	0.238808	0.022934	0.000180
C54	C	0.738808	0.522934	0.500180
C55	C	0.298194	0.023643	0.000143
C56	C	0.798194	0.523643	0.500143
N57	N	0.320820	0.075920	0.000130
N58	N	0.820820	0.575920	0.500130
C59	C	0.284048	0.127484	0.000115
C60	C	0.784048	0.627484	0.500115
C61	C	-0.064135	0.019302	0.000175
C62	C	0.435865	0.519302	0.500175
C63	C	-0.123533	0.018589	0.000165
C64	C	0.376467	0.518589	0.500165
C65	C	-0.137680	0.122434	0.000135
C66	C	0.362320	0.622434	0.500135
C67	C	-0.078281	0.123146	0.000136
C68	C	0.421719	0.623146	0.500136
C69	C	-0.041509	0.071578	0.000162
C70	C	0.458491	0.571578	0.500162
C71	C	0.408784	0.128974	0.000092
C72	C	0.908784	0.628974	0.500092
C73	C	0.468186	0.129680	0.000076
C74	C	0.968186	0.629680	0.500076
C75	C	0.482329	0.025836	0.000112
C76	C	0.982329	0.525836	0.500112
C77	C	0.422932	0.025129	0.000121
C78	C	0.922932	0.525129	0.500121
C79	C	0.386160	0.076702	0.000116
C80	C	0.886160	0.576702	0.500116
O81	O	0.334974	-0.020119	0.000115
O82	O	0.834974	0.479881	0.500115
O83	O	0.308755	0.172007	0.000119
O84	O	0.808755	0.672007	0.500119
C85	C	0.677071	-0.030013	0.000158
C86	C	1.177071	0.469987	0.500158
C87	C	0.676305	-0.093230	0.000168
C88	C	1.176305	0.406770	0.500168
C89	C	0.723539	-0.492333	0.000108
C90	C	1.223539	0.007667	0.500108
C91	C	0.722827	-0.551733	0.000098
C92	C	1.222827	-0.051733	0.500098
O93	O	0.766613	-0.588478	0.000060
O94	O	1.266613	-0.088478	0.500060
N95	N	0.670551	-0.574359	0.000086
N96	N	1.170551	-0.074359	0.500086
C97	C	0.618983	-0.537582	0.000071
C98	C	1.118983	-0.037582	0.500071
O99	O	0.574452	-0.562281	0.000059
O100	O	1.074452	-0.062281	0.500059
C101	C	0.619695	-0.478182	0.000072
C102	C	1.119695	0.021818	0.500072
C103	C	0.671974	-0.455560	0.000097
C104	C	1.171974	0.044440	0.500097
C105	C	0.775814	-0.469710	0.000131
C106	C	1.275814	0.030290	0.500131
C107	C	0.776525	-0.410313	0.000144
C108	C	1.276525	0.089687	0.500144
C109	C	0.724961	-0.373540	0.000133
C110	C	1.224961	0.126460	0.500133
C111	C	0.672685	-0.396164	0.000109
C112	C	1.172685	0.103836	0.500109
C113	C	0.568127	-0.441406	0.000048
C114	C	1.068127	0.058594	0.500048
C115	C	0.568844	-0.382004	0.000047
C116	C	1.068844	0.117996	0.500047
C117	C	0.621123	-0.359381	0.000072
C118	C	1.121123	0.140619	0.500072
C119	C	0.621832	-0.299995	0.000111
C120	C	1.121832	0.200005	0.500111
N121	N	0.674109	-0.277368	0.000122
N122	N	1.174109	0.222632	0.500122
C123	C	0.725673	-0.314141	0.000133
C124	C	1.225673	0.185859	0.500133
C125	C	0.617491	-0.662324	0.000067
C126	C	1.117491	-0.162324	0.500067
C127	C	0.616778	-0.721722	0.000076
C128	C	1.116778	-0.221722	0.500076
C129	C	0.720623	-0.735869	0.000100
C130	C	1.220623	-0.235869	0.500100
C131	C	0.721335	-0.676470	0.000101
C132	C	1.221335	-0.176470	0.500101
C133	C	0.669767	-0.639698	0.000079
C134	C	1.169767	-0.139698	0.500079
C135	C	0.727163	-0.189405	0.000161
C136	C	1.227163	0.310595	0.500161
C137	C	0.727869	-0.130003	0.000179
C138	C	1.227869	0.369997	0.500179
C139	C	0.624025	-0.115860	0.000148
C140	C	1.124025	0.384140	0.500148
C141	C	0.623318	-0.175257	0.000137
C142	C	1.123318	0.324743	0.500137
C143	C	0.674891	-0.212029	0.000139
C144	C	1.174891	0.287971	0.500139
O145	O	0.578070	-0.263215	0.000143
O146	O	1.078070	0.236785	0.500143
O147	O	0.770196	-0.289433	0.000128
O148	O	1.270196	0.210567	0.500128
C149	C	0.776472	0.069388	0.000151
C150	C	1.276472	0.569388	0.500151
C151	C	0.839689	0.070154	0.000157
C152	C	1.339689	0.570154	0.500157
C153	C	0.667577	0.178283	0.000098
C154	C	1.167577	0.678283	0.500098
C155	C	0.668343	0.241500	0.000080
C156	C	1.168343	0.741500	0.500080
N157	N	0.672317	0.074130	0.308373
N158	N	1.172317	0.574130	0.808373
N159	N	0.672335	0.074136	-0.308114
N160	N	1.172335	0.574136	0.191886
C161	C	0.672326	0.074136	0.574044
C162	C	1.172326	0.574136	1.074044
C163	C	0.672319	0.074134	0.426206
C164	C	1.172319	0.574134	0.926206
H165	H	0.206289	0.220908	0.000077
H166	H	0.706289	0.720908	0.500077
O167	O	0.490256	0.180417	-0.000017
O168	O	0.990256	0.680417	0.499983
C169	C	0.550569	0.169994	0.000002
C170	C	1.050569	0.669994	0.500002
H171	H	0.564762	0.125468	-0.040982
H172	H	1.064762	0.625468	0.459018
H173	H	0.568618	0.203423	-0.062911
H174	H	1.068618	0.703423	0.437089
H175	H	0.567096	0.172662	0.103909
H176	H	1.067096	0.672662	0.603909
H177	H	-0.059867	0.165717	0.000122
H178	H	0.440133	0.665717	0.500122
O179	O	-0.173327	0.172578	0.000076
O180	O	0.326673	0.672578	0.500076
C181	C	-0.140628	0.218877	0.000096
C182	C	0.359372	0.718877	0.500096
H183	H	-0.096212	0.204171	-0.040916
H184	H	0.403788	0.704171	0.459084
H185	H	-0.162745	0.254985	-0.062791
H186	H	0.337255	0.754985	0.437209
H187	H	-0.136484	0.234913	0.104007
H188	H	0.363516	0.734913	0.604007
H189	H	0.575496	-0.632386	0.000061
H190	H	1.075496	-0.132386	0.500061
H191	H	-0.141947	-0.023982	0.000167
H192	H	0.358053	0.476018	0.500167
O193	O	0.251824	-0.079493	0.000167
O194	O	0.751824	0.420507	0.500167
C195	C	0.219114	-0.125783	0.000223
C196	C	0.719114	0.374217	0.500223
H197	H	0.174697	-0.111065	-0.040781
H198	H	0.674697	0.388935	0.459219
H199	H	0.241219	-0.161892	-0.062653
H200	H	0.741219	0.338108	0.437347
H201	H	0.214976	-0.141824	0.104144
H202	H	0.714976	0.358176	0.604144
H203	H	0.762610	-0.765821	0.000104
H204	H	1.262610	-0.265821	0.500104
H205	H	0.763906	-0.658056	0.000120
H206	H	1.263906	-0.158056	0.500120
H207	H	0.580748	-0.193677	0.000152
H208	H	1.080748	0.306323	0.500152
O209	O	0.573922	-0.080158	0.000360
O210	O	1.073922	0.419842	0.500360
C211	C	0.542141	-0.090381	0.112502
C212	C	1.042141	0.409619	0.612502
H213	H	0.572315	-0.110857	0.190930
H214	H	1.072315	0.389143	0.690930
H215	H	0.519058	-0.048109	0.150141
H216	H	1.019058	0.451891	0.650141
H217	H	0.509353	-0.120443	0.087120
H218	H	1.009353	0.379557	0.587120
O219	O	0.401047	-0.025704	0.000188
O220	O	0.901047	0.474296	0.500188
C221	C	0.446245	-0.071063	0.000153
C222	C	0.946245	0.428937	0.500153
H223	H	0.486514	-0.055334	0.041144
H224	H	0.986514	0.444666	0.541144
H225	H	0.434036	-0.107585	0.063051
H226	H	0.934036	0.392415	0.563051
H227	H	0.454731	-0.086948	-0.103759
H228	H	0.954731	0.413052	0.396241
O229	O	0.092844	0.227771	0.000033
O230	O	0.592844	0.727771	0.500033
C231	C	0.125562	0.274056	0.000046
C232	C	0.625562	0.774056	0.500046
H233	H	0.169977	0.259331	-0.040947
H234	H	0.669977	0.759331	0.459053
H235	H	0.103460	0.310166	-0.062861
H236	H	0.603460	0.810166	0.437139
H237	H	0.129705	0.290098	0.103952
H238	H	0.629705	0.790098	0.603952
O239	O	0.565944	-0.743599	0.000008
O240	O	1.065944	-0.243599	0.500008
C241	C	0.520589	-0.698398	0.000037
C242	C	1.020589	-0.198398	0.500037
H243	H	0.536324	-0.658129	-0.040958
H244	H	1.036324	-0.158129	0.459042
H245	H	0.484070	-0.710600	-0.062861
H246	H	0.984070	-0.210600	0.437139
H247	H	0.504697	-0.689915	0.103948
H248	H	1.004697	-0.189915	0.603948
H249	H	0.817806	-0.499645	0.000135
H250	H	1.317806	0.000355	0.500135
H251	H	-0.034198	-0.022693	0.000185
H252	H	0.465802	0.477307	0.500185
O253	O	0.517292	-0.463277	-0.000040
O254	O	1.017292	0.036723	0.499960
C255	C	0.471940	-0.418073	-0.000026
C256	C	0.971940	0.081927	0.499974
H257	H	0.487682	-0.377805	-0.041017
H258	H	0.987682	0.122195	0.458983
H259	H	0.435423	-0.430272	-0.062934
H260	H	0.935423	0.069728	0.437066
H261	H	0.456043	-0.409587	0.103881
H262	H	0.956043	0.090413	0.603881
H263	H	0.526850	-0.352066	0.000028
H264	H	1.026850	0.147934	0.500028
H265	H	0.138375	-0.072634	0.000228
H266	H	0.638375	0.427366	0.500228
H267	H	0.512280	-0.016146	0.000119
H268	H	1.012280	0.483854	0.500119
H269	H	0.770443	-0.111587	0.000202
H270	H	1.270443	0.388413	0.500202
H271	H	0.769159	-0.219337	0.000157
H272	H	1.269159	0.280663	0.500157
O273	O	0.373151	0.179124	0.000019
O274	O	0.873151	0.679124	0.500019
C275	C	0.405867	0.225410	0.000024
C276	C	0.905867	0.725410	0.500024
H277	H	0.450281	0.210687	-0.040977
H278	H	0.950281	0.710687	0.459023
H279	H	0.383762	0.261519	-0.062880
H280	H	0.883762	0.761519	0.437120
H281	H	0.410013	0.241452	0.103929
H282	H	0.910013	0.741452	0.603929
H283	H	0.819097	-0.391900	0.000159
H284	H	1.319097	0.108100	0.500159
