data_functionalizedCrystal
_audit_creation_method	'MofGen! by Chris Wilmer'
_symmetry_space_group_name_H-M	'P1'
_symmetry_Int_Tables_number	1
_symmetry_cell_setting	triclinic
loop_
_symmetry_equiv_pos_as_xyz
  x,y,z
_cell_length_a	20.919309
_cell_length_b	17.917603
_cell_length_c	20.919320
_cell_angle_alpha	54.373986
_cell_angle_beta	89.823686
_cell_angle_gamma	60.553501
loop_
_atom_site_label
_atom_site_type_symbol
_atom_site_fract_x
_atom_site_fract_y
_atom_site_fract_z
Zr1	Zr	0.669175	0.766020	-0.091418
O2	O	0.565191	0.942235	-0.209162
O3	O	0.696828	0.603805	-0.051099
O4	O	0.697794	0.773019	-0.196913
O5	O	0.568268	0.762618	0.046867
O6	O	0.807197	0.762615	-0.192056
O7	O	0.564225	0.773021	-0.063348
O8	O	0.805470	0.459922	0.068779
O9	O	0.569995	1.065312	-0.213968
O10	O	0.795371	0.657577	-0.035382
O11	O	0.716742	0.657578	0.043246
O12	O	0.717879	0.856806	-0.128432
O13	O	0.639249	0.856807	-0.049804
Zr14	Zr	0.850109	0.732837	0.092110
Zr15	Zr	0.843661	0.749427	-0.083671
Zr16	Zr	0.675623	0.749430	0.084363
Zr17	Zr	0.676838	0.962313	-0.099082
Zr18	Zr	0.842447	0.536543	0.099774
O19	O	0.822456	0.895052	0.051790
O20	O	0.813288	0.918642	-0.198147
O21	O	0.574359	0.918645	0.040776
O22	O	0.954093	0.556622	0.209854
O23	O	0.944925	0.580211	-0.040084
O24	O	0.705996	0.580215	0.198839
O25	O	0.951016	0.736238	-0.046176
O26	O	0.821491	0.725838	0.197605
O27	O	0.712087	0.736242	0.192747
O28	O	0.955059	0.725836	0.064040
O29	O	0.708689	1.052122	-0.207810
O30	O	0.810595	0.446734	0.208502
O31	O	0.949289	0.433545	0.214659
O32	O	0.944164	0.446732	0.074937
O33	O	0.575121	1.052124	-0.074245
O34	O	0.713814	1.038935	-0.068088
O35	O	0.801406	0.642051	0.129123
O36	O	0.880035	0.642050	0.050496
O37	O	0.802543	0.841279	-0.042554
O38	O	0.723913	0.841280	0.036074
C39	C	0.750057	0.503896	0.009932
C40	C	0.746804	0.420564	0.013186
C41	C	0.541386	0.770184	-0.009344
C42	C	0.467312	0.777228	-0.012633
C43	C	0.740861	0.267995	0.019127
C44	C	0.778422	0.230857	-0.018433
C45	C	0.775114	0.145962	-0.015128
C46	C	0.744167	0.352897	0.015822
C47	C	0.472960	0.676545	0.034389
C48	C	0.403357	0.683170	0.031296
C49	C	0.328106	0.790480	-0.018823
C50	C	0.322460	0.891171	-0.065846
C51	C	0.392063	0.884544	-0.062748
C52	C	0.115928	0.815692	-0.030601
C53	C	0.046324	0.822312	-0.033697
C54	C	0.127226	0.614310	0.063447
C55	C	0.196826	0.607693	0.066536
C56	C	0.191174	0.708383	0.019517
C57	C	0.256960	0.797256	-0.021987
C58	C	0.262320	0.701606	0.022686
C59	C	0.977898	0.728673	0.010036
C60	C	1.051972	0.721629	0.013325
C61	C	0.751577	0.770181	-0.219529
C62	C	0.748840	0.777224	-0.294153
C63	C	0.769227	0.994961	-0.009240
C64	C	0.772480	1.078293	-0.012494
C65	C	0.731282	0.822316	-0.718664
C66	C	0.733859	0.815689	-0.648543
C67	C	0.775604	0.708378	-0.564914
C68	C	0.814767	0.607688	-0.551406
C69	C	0.812185	0.614316	-0.621527
C70	C	0.785421	0.683162	-0.350766
C71	C	0.788002	0.676541	-0.280644
C72	C	0.707092	0.884543	-0.377786
C73	C	0.704518	0.891162	-0.447903
C74	C	0.743677	0.790472	-0.434390
C75	C	0.778242	0.701601	-0.493238
C76	C	0.741035	0.797250	-0.506066
C77	C	0.767707	0.728676	0.220221
C78	C	0.770445	0.721633	0.294845
C79	C	0.968313	0.483140	0.019622
C80	C	1.039135	0.392765	0.026165
C81	C	0.758123	0.483143	0.229807
C82	C	0.757607	0.392769	0.307684
C83	C	0.976379	0.462388	0.239497
C84	C	1.049937	0.364969	0.320663
C85	C	0.542906	1.036469	-0.238806
C86	C	0.469347	1.133888	-0.319971
C87	C	0.550971	1.015717	-0.018931
C88	C	0.480150	1.106092	-0.025473
C89	C	0.761162	1.015713	-0.229116
C90	C	0.761677	1.106088	-0.306993
C91	C	1.028199	0.358429	-0.015598
C92	C	1.094736	0.273524	-0.009468
C93	C	1.172208	0.222951	0.038430
C94	C	1.183142	0.257294	0.080193
C95	C	1.116606	0.342203	0.074058
C96	C	0.801559	0.342222	0.389091
C97	C	0.801072	0.257316	0.462271
C98	C	0.756637	0.222953	0.454043
C99	C	0.712680	0.273508	0.372628
C100	C	0.713163	0.358418	0.299449
C101	C	1.125532	0.319219	0.317737
C102	C	1.194655	0.227694	0.393994
C103	C	1.188181	0.181916	0.473177
C104	C	1.112578	0.227675	0.476100
C105	C	1.043457	0.319204	0.399844
C106	C	0.393753	1.179647	-0.317046
C107	C	0.324631	1.271196	-0.393304
C108	C	0.331105	1.316978	-0.472486
C109	C	0.406708	1.271214	-0.475410
C110	C	0.475828	1.179673	-0.399153
C111	C	0.491085	1.140437	0.016282
C112	C	0.424548	1.225365	0.010132
C113	C	0.347076	1.275941	-0.037769
C114	C	0.336142	1.241594	-0.079528
C115	C	0.402678	1.156673	-0.073383
C116	C	0.806120	1.140423	-0.298737
C117	C	0.806621	1.225327	-0.371903
C118	C	0.762673	1.275901	-0.453324
C119	C	0.718228	1.241558	-0.461578
C120	C	0.717733	1.156649	-0.388412
H121	H	0.706223	0.236034	0.053762
C122	C	0.279598	0.489645	0.121674
C123	C	0.301275	0.410217	0.103479
C124	C	0.384047	0.292167	0.158616
C125	C	0.445142	0.253545	0.231948
C126	C	0.423467	0.332974	0.250146
C127	C	0.340695	0.451025	0.195010
H128	H	0.256048	0.438806	0.049191
H129	H	0.400092	0.233368	0.145144
H130	H	0.506414	0.166157	0.272763
H131	H	0.468694	0.304385	0.304434
H132	H	0.324650	0.509824	0.208482
C133	C	0.109701	0.926453	-0.082331
C134	C	0.064641	1.018615	-0.180670
C135	C	0.058412	1.129384	-0.232405
C136	C	0.097245	1.147991	-0.185800
C137	C	0.142308	1.055826	-0.087454
C138	C	0.148537	0.945057	-0.035720
H139	H	0.035892	1.004844	-0.215175
H140	H	0.025053	1.197611	-0.305207
H141	H	0.092634	1.229989	-0.224097
H142	H	0.171057	1.069597	-0.052950
H143	H	0.181896	0.876831	0.037082
C144	C	0.833919	0.558492	-0.188647
C145	C	0.836761	0.551206	-0.111519
C146	C	0.882676	0.433164	-0.019525
C147	C	0.925748	0.322408	-0.004658
C148	C	0.922906	0.329690	-0.081788
C149	C	0.876992	0.447732	-0.173782
H150	H	0.804876	0.633198	-0.122522
H151	H	0.884779	0.427774	0.037571
H152	H	0.959736	0.235027	0.063441
H153	H	0.954792	0.247699	-0.070785
H154	H	0.874889	0.453122	-0.230879
H155	H	0.273056	1.282786	-0.118528
H156	H	0.812233	0.614228	-0.425139
C157	C	1.132668	0.369566	0.230643
C158	C	1.215830	0.319233	0.227442
C159	C	1.222974	0.369578	0.140351
C160	C	1.146956	0.470256	0.056460
C161	C	1.063787	0.520595	0.059658
C162	C	1.056643	0.470250	0.146749
H163	H	1.272109	0.244700	0.289546
H164	H	1.284542	0.332313	0.137984
H165	H	1.152244	0.507525	-0.008010
H166	H	1.007508	0.595129	-0.002446
H167	H	0.995076	0.507515	0.149116
H168	H	0.848753	0.520313	-0.483309
H169	H	0.697293	0.909700	-0.786756
C170	C	0.241475	1.321514	-0.390073
C171	C	0.219652	1.373482	-0.348220
C172	C	0.136499	1.423795	-0.344986
C173	C	0.075169	1.422138	-0.383606
C174	C	0.096991	1.370167	-0.425463
C175	C	0.180143	1.319855	-0.428696
H176	H	0.265054	1.374711	-0.319628
H177	H	0.120346	1.462267	-0.314001
H178	H	0.013614	1.459382	-0.381213
H179	H	0.051589	1.368939	-0.454054
H180	H	0.196297	1.281383	-0.459681
C181	C	0.385852	0.995297	-0.114475
C182	C	0.303081	1.113338	-0.169608
C183	C	0.296868	1.224094	-0.221333
C184	C	0.373426	1.216810	-0.217925
C185	C	0.456203	1.098764	-0.162790
C186	C	0.462416	0.988008	-0.111065
H187	H	0.246403	1.118735	-0.172133
H188	H	0.235590	1.311480	-0.262148
H189	H	0.368826	1.298799	-0.256215
H190	H	0.512881	1.093368	-0.160265
H191	H	0.523693	0.900623	-0.070250
H192	H	0.274817	1.391517	-0.534573
H193	H	0.393763	1.128713	-0.107383
H194	H	0.681539	1.128704	-0.395146
C195	C	0.555734	0.558500	0.089521
C196	C	0.561944	0.447751	0.141248
C197	C	0.644717	0.329702	0.196385
C198	C	0.721281	0.322404	0.199794
C199	C	0.715074	0.433157	0.148066
C200	C	0.632300	0.551205	0.092929
H201	H	0.505264	0.453150	0.138726
H202	H	0.649311	0.247716	0.234677
H203	H	0.782554	0.235017	0.240610
H204	H	0.771753	0.427757	0.150588
H205	H	0.627706	0.633192	0.054636
C206	C	0.960303	0.369511	0.403072
C207	C	0.953191	0.319139	0.490175
C208	C	0.870038	0.369440	0.493410
C209	C	0.793997	0.470112	0.409542
C210	C	0.801106	0.520489	0.322432
C211	C	0.884259	0.470188	0.319197
H212	H	1.009483	0.244611	0.552265
H213	H	0.864776	0.332147	0.557895
H214	H	0.732443	0.507347	0.411937
H215	H	0.744814	0.595017	0.260342
H216	H	0.889521	0.507481	0.254712
C217	C	0.854475	1.084795	-0.209179
C218	C	0.903367	1.122568	-0.200115
C219	C	0.951730	1.066938	-0.110559
C220	C	0.951201	0.973536	-0.030067
C221	C	0.902307	0.935758	-0.039128
C222	C	0.853944	0.991388	-0.128684
H223	H	0.903760	1.191714	-0.259703
H224	H	0.987924	1.094904	-0.103852
H225	H	0.987002	0.932355	0.036227
H226	H	0.901914	0.866611	0.020459
H227	H	0.817749	0.963421	-0.135391
C228	C	0.855506	1.263099	-0.362810
C229	C	0.922908	1.249176	-0.395687
C230	C	0.971793	1.286945	-0.386591
C231	C	0.953276	1.338638	-0.344620
C232	C	0.885871	1.352564	-0.311741
C233	C	0.836986	1.314795	-0.320836
H234	H	0.936618	1.210907	-0.426759
H235	H	1.021691	1.276635	-0.410931
H236	H	0.989463	1.366597	-0.337887
H237	H	0.872161	1.390833	-0.280668
H238	H	0.787088	1.325104	-0.296497
C239	C	0.558981	1.129331	-0.402379
C240	C	0.635021	1.028634	-0.318510
C241	C	0.718172	0.978299	-0.321744
C242	C	0.725284	1.028660	-0.408847
C243	C	0.649241	1.129363	-0.492722
C244	C	0.566090	1.179698	-0.489489
H245	H	0.629759	0.991349	-0.254026
H246	H	0.774464	0.903752	-0.259653
H247	H	0.786837	0.991399	-0.411241
H248	H	0.654503	1.166648	-0.557207
H249	H	0.509798	1.254245	-0.551580
C250	C	0.345093	0.583568	0.077815
C251	C	0.366777	0.504146	0.059612
C252	C	0.449556	0.386108	0.114737
C253	C	0.510651	0.347492	0.188065
C254	C	0.488969	0.426916	0.206271
C255	C	0.406189	0.544954	0.151146
H256	H	0.321549	0.532730	0.005327
H257	H	0.465607	0.327313	0.101259
H258	H	0.571930	0.260113	0.228872
H259	H	0.534196	0.398331	0.260556
H260	H	0.390138	0.603748	0.164624
H261	H	0.763083	1.345038	-0.512893
C262	C	0.690778	0.926446	-0.663409
C263	C	0.714465	1.007698	-0.710575
C264	C	0.671378	1.118462	-0.725445
C265	C	0.604604	1.147974	-0.693150
C266	C	0.580914	1.066720	-0.645982
C267	C	0.624001	0.955956	-0.631111
H268	H	0.763898	0.985853	-0.734484
H269	H	0.688916	1.178611	-0.760363
H270	H	0.572709	1.229968	-0.704159
H271	H	0.531481	1.088565	-0.622072
H272	H	0.606463	0.895807	-0.596193
H273	H	0.813061	0.262822	-0.053073
C274	C	0.576300	1.084820	0.068970
C275	C	0.588312	1.122626	0.114885
C276	C	0.673524	1.067021	0.167571
C277	C	0.746724	0.973612	0.174341
C278	C	0.734714	0.935802	0.128425
C279	C	0.649502	0.991406	0.075739
H280	H	0.534123	1.191777	0.109874
H281	H	0.682414	1.095011	0.201561
H282	H	0.809803	0.932450	0.213342
H283	H	0.788903	0.866650	0.133435
H284	H	0.640612	0.963416	0.041749
H285	H	0.407963	0.601183	0.069588
H286	H	0.817310	0.601173	-0.339752
H287	H	0.844073	0.532330	-0.610522
H288	H	0.131818	0.532334	0.101728
H289	H	0.261185	0.978545	-0.106649
C290	C	1.245394	0.129542	0.045181
C291	C	1.233355	0.091775	-0.000755
C292	C	1.306537	-0.001637	0.005996
C293	C	1.391759	-0.057281	0.058683
C294	C	1.403801	-0.019514	0.104623
C295	C	1.330619	0.073898	0.097872
H296	H	1.170266	0.132966	-0.039760
H297	H	1.297622	-0.029594	-0.028011
H298	H	1.445932	-0.126429	0.063681
H299	H	1.466890	-0.060705	0.143628
H300	H	1.339534	0.101855	0.131879
C301	C	1.268366	0.201642	0.132888
C302	C	1.326673	0.211067	0.089083
C303	C	1.411899	0.155402	0.141786
C304	C	1.438818	0.090313	0.238293
C305	C	1.380510	0.080885	0.282103
C306	C	1.295284	0.136550	0.229401
H307	H	1.306747	0.259253	0.017638
H308	H	1.455063	0.162382	0.109354
H309	H	1.501908	0.049106	0.277307
H310	H	1.400436	0.032699	0.353549
H311	H	1.252121	0.129570	0.261833
H312	H	-0.014950	0.909701	-0.074514
H313	H	0.195683	0.884628	-0.062794
H314	H	0.670526	0.978546	-0.515995
H315	H	0.756251	0.153812	0.513636
H316	H	0.675209	0.966519	-0.388779
C317	C	1.277810	0.177366	0.390763
C318	C	1.334097	0.049847	0.434424
C319	C	1.417249	-0.000478	0.431190
C320	C	1.444114	0.076715	0.384295
C321	C	1.387825	0.204242	0.340631
C322	C	1.304674	0.254567	0.343865
H323	H	1.314211	-0.007303	0.469141
H324	H	1.458917	-0.094882	0.463513
H325	H	1.505667	0.039461	0.381901
H326	H	1.407711	0.261392	0.305914
H327	H	1.263006	0.348971	0.311542
H328	H	0.965123	0.399606	-0.054611
C329	C	1.264219	0.081228	0.557056
C330	C	1.347369	0.030905	0.553828
C331	C	1.423410	-0.069787	0.637703
C332	C	1.416300	-0.120155	0.724807
C333	C	1.333146	-0.069832	0.728039
C334	C	1.257105	0.030859	0.644163
H335	H	1.352636	0.068190	0.489345
H336	H	1.484966	-0.107039	0.635311
H337	H	1.472589	-0.194693	0.786897
H338	H	1.327879	-0.107118	0.792521
H339	H	1.195549	0.068111	0.646556
H340	H	0.707042	0.884623	-0.574159
H341	H	1.085817	0.245574	-0.043477
H342	H	1.125521	0.370147	0.108071
H343	H	0.837743	0.370190	0.395806
H344	H	0.836870	0.216162	0.528555
H345	H	0.682447	1.282747	-0.527881
H346	H	0.676502	0.245517	0.365941
H347	H	0.292905	1.345088	-0.042766
H348	H	0.411970	1.308502	-0.539890
H349	H	0.677374	0.399564	0.233167
H350	H	1.107318	0.190389	0.540581
H351	H	0.388465	1.142378	-0.252578
H352	H	0.433467	1.253315	0.044142
