data_functionalizedCrystal
_audit_creation_method	'MofGen! by Chris Wilmer'
_symmetry_space_group_name_H-M	'P1'
_symmetry_Int_Tables_number	1
_symmetry_cell_setting	triclinic
loop_
_symmetry_equiv_pos_as_xyz
  x,y,z
_cell_length_a	14.519731
_cell_length_b	14.519731
_cell_length_c	16.053802
_cell_angle_alpha	92.569546
_cell_angle_beta	87.413705
_cell_angle_gamma	83.688853
loop_
_atom_site_label
_atom_site_type_symbol
_atom_site_fract_x
_atom_site_fract_y
_atom_site_fract_z
O1	O	1.227749	0.117107	-0.069433
O2	O	0.959276	0.131323	-0.069434
O3	O	1.100620	-0.010021	-0.069426
O4	O	1.086405	0.258451	-0.069441
O5	O	1.092840	-0.002273	0.069432
O6	O	0.951496	0.139071	0.069424
O7	O	1.219969	0.124855	0.069426
Zn8	Zn	1.084497	0.133193	0.091472
Zn9	Zn	1.094747	0.122985	-0.091480
O10	O	1.078625	0.266199	0.069417
C11	C	0.921026	0.134531	-0.000005
C12	C	0.818646	0.132535	-0.000006
C13	C	0.735502	0.130913	-0.000009
C14	C	0.631193	0.128886	-0.000009
C15	C	0.548054	0.127278	-0.000009
C16	C	0.443738	0.125251	-0.000011
C17	C	1.096064	-0.040507	0.000003
C18	C	1.094068	-0.142887	0.000004
C19	C	1.092446	-0.226031	0.000002
C20	C	1.090420	-0.330341	-0.000004
C21	C	1.088811	-0.413480	-0.000010
C22	C	1.086785	-0.517796	-0.000015
C23	C	1.258218	0.121647	-0.000005
C24	C	1.360599	0.123643	-0.000011
C25	C	1.083181	0.296685	-0.000014
C26	C	1.085177	0.399065	-0.000020
N27	N	1.077508	0.140159	0.216331
N28	N	1.101744	0.116011	-0.216340
C29	C	1.137672	0.080039	0.260029
C30	C	1.132792	0.084920	0.347435
C31	C	1.067751	0.149928	0.391143
C32	C	1.007581	0.210051	0.347439
C33	C	1.012457	0.205164	0.260034
C34	C	1.046450	0.171248	0.652551
C35	C	1.041580	0.176132	0.739962
C36	C	1.166790	0.051000	0.739952
C37	C	1.171665	0.046122	0.652546
C38	C	1.111491	0.106242	0.608850
N39	N	1.062763	0.154921	0.480486
N40	N	1.116475	0.101244	0.519508
H41	H	1.190639	0.027107	0.224448
C42	C	0.922205	0.295432	0.661353
C43	C	0.980315	0.237339	0.604528
H44	H	0.881379	0.336239	0.631701
H45	H	0.887070	0.258873	0.695456
H46	H	0.958759	0.330595	0.695431
H47	H	0.943761	0.202171	0.570454
H48	H	1.015453	0.273902	0.570411
C49	C	0.910637	0.201337	0.838297
C50	C	0.970081	0.247587	0.788015
H51	H	0.866506	0.245450	0.867968
H52	H	0.879302	0.160976	0.804214
H53	H	0.945792	0.166232	0.876821
H54	H	0.934927	0.282687	0.749487
H55	H	1.001418	0.287964	0.822101
H56	H	1.224626	-0.006812	0.616961
C57	C	1.324841	-0.001295	0.766838
C58	C	1.232921	-0.015093	0.787983
H59	H	1.365665	-0.042101	0.796493
H60	H	1.337045	-0.013507	0.708535
H61	H	1.334155	0.061077	0.781160
H62	H	1.223605	-0.077464	0.773655
H63	H	1.220713	-0.002888	0.846299
C64	C	0.944516	0.273111	0.481427
C65	C	0.936088	0.281512	0.395481
H66	H	0.900383	0.317235	0.511083
H67	H	0.933595	0.212348	0.495762
H68	H	1.005284	0.284070	0.495726
H69	H	0.875322	0.270546	0.381181
H70	H	0.947002	0.342289	0.381140
H71	H	0.963464	0.254120	0.224457
H72	H	1.181782	0.035965	0.383014
