data_functionalizedCrystal
_audit_creation_method	'MofGen! by Chris Wilmer'
_symmetry_space_group_name_H-M	'P1'
_symmetry_Int_Tables_number	1
_symmetry_cell_setting	triclinic
loop_
_symmetry_equiv_pos_as_xyz
  x,y,z
_cell_length_a	11.026607
_cell_length_b	11.026607
_cell_length_c	10.065875
_cell_angle_alpha	100.731764
_cell_angle_beta	79.302338
_cell_angle_gamma	108.586017
loop_
_atom_site_label
_atom_site_type_symbol
_atom_site_fract_x
_atom_site_fract_y
_atom_site_fract_z
O1	O	-1.741286	-0.518966	0.113490
O2	O	-1.374706	-0.458202	0.113493
O3	O	-1.527614	-0.305294	0.113487
O4	O	-1.588379	-0.671873	0.113496
O5	O	-1.498489	-0.334601	-0.113501
O6	O	-1.345582	-0.487509	-0.113495
O7	O	-1.712161	-0.548273	-0.113497
Zn8	Zn	-1.524247	-0.522544	-0.149535
Zn9	Zn	-1.562620	-0.483931	0.149531
O10	O	-1.559254	-0.701180	-0.113491
C11	C	-1.312485	-0.461645	-0.000001
C12	C	-1.170471	-0.428228	-0.000000
C13	C	-1.501842	-0.272288	-0.000005
C14	C	-1.468426	-0.130273	-0.000000
C15	C	-1.774384	-0.544829	-0.000001
C16	C	-1.916399	-0.578244	0.000007
N17	N	-1.498068	-0.548898	-0.353640
C18	C	-1.116822	-0.520498	0.000003
C19	C	-0.970043	-0.485962	0.000004
C20	C	-1.585026	-0.734186	0.000004
C21	C	-1.618444	-0.876199	0.000008
C22	C	-1.560695	-0.076624	0.000001
C23	C	-1.526160	0.070155	0.000006
C24	C	-1.553502	-0.493090	-0.421421
C25	C	-1.533366	-0.513385	-0.578587
N26	N	-1.588808	-0.457569	0.353635
H27	H	-0.907318	-0.381388	0.000036
H28	H	-1.363864	-0.067539	0.000009
H29	H	-1.421592	0.132886	0.000016
H30	H	-1.723027	0.061086	0.000110
H31	H	-1.615864	-0.430280	-0.363099
H32	H	-1.107742	-0.323661	0.000032
O33	O	-0.999472	-0.716764	0.000015
H34	H	-1.101723	-0.722155	0.000024
H35	H	-1.470989	-0.576187	-0.636906
H36	H	-1.651173	-0.394755	-0.588046
H37	H	-1.179554	-0.625061	-0.000002
O38	O	-1.699208	-0.159703	-0.000001
H39	H	-1.704596	-0.261953	-0.000013
H40	H	-1.435696	-0.611696	-0.411964
