data_functionalizedCrystal
_audit_creation_method	'MofGen! by Chris Wilmer'
_symmetry_space_group_name_H-M	'P1'
_symmetry_Int_Tables_number	1
_symmetry_cell_setting	triclinic
loop_
_symmetry_equiv_pos_as_xyz
  x,y,z
_cell_length_a	6.817900
_cell_length_b	16.256208
_cell_length_c	19.453114
_cell_angle_alpha	95.857223
_cell_angle_beta	101.709288
_cell_angle_gamma	103.499088
loop_
_atom_site_label
_atom_site_type_symbol
_atom_site_fract_x
_atom_site_fract_y
_atom_site_fract_z
V1	V	-4.006918	-0.117976	-0.219251
O2	O	-3.994738	0.004762	-0.214820
O3	O	-3.958640	-0.233054	-0.217999
O4	O	-3.949832	-0.116559	-0.314761
O5	O	-4.003607	-0.112539	-0.117388
V6	V	-4.491656	-0.103248	-0.207037
O7	O	-4.265512	-0.150283	-0.246043
O8	O	-4.683260	-0.070941	-0.180246
O9	O	-4.316728	0.011830	-0.208289
O10	O	-4.621234	-0.225986	-0.211468
O11	O	-4.612365	-0.108685	-0.308900
O12	O	-4.325536	-0.104665	-0.111527
C13	C	-3.803952	-0.261095	-0.214604
C14	C	-3.845707	-0.355176	-0.214217
C15	C	-4.161373	-0.643283	-0.216701
C16	C	-4.010383	-0.573557	-0.156893
C17	C	-3.995860	-0.693808	-0.212795
C18	C	-4.072566	-0.595899	-0.273281
C19	C	-3.922096	-0.527427	-0.213495
C20	C	-3.845393	-0.625311	-0.152935
C21	C	-3.907634	-0.647670	-0.269375
C22	C	-3.756508	-0.577963	-0.209551
C23	C	-4.038359	-0.789655	-0.212391
C24	C	-3.879581	-0.431580	-0.213894
C25	C	-3.792715	-0.112493	-0.338033
C26	C	-3.827325	-0.112096	-0.416114
C27	C	-4.025371	-0.116158	-0.456380
C28	C	-4.057891	-0.115785	-0.529746
C29	C	-3.892362	-0.111367	-0.562845
C30	C	-3.694286	-0.107300	-0.522570
C31	C	-3.661767	-0.107665	-0.449204
N32	N	-3.832666	-0.156062	-0.681730
N33	N	-3.863571	-0.155718	-0.751425
C34	C	-3.990327	-0.110267	-0.783891
N35	N	-4.085047	-0.065185	-0.744032
N36	N	-4.054148	-0.065533	-0.674332
C37	C	-3.927603	-0.110971	-0.642398
C38	C	-4.223648	-0.113923	-0.903709
C39	C	-4.256158	-0.113545	-0.977076
C40	C	-3.892551	-0.105069	-0.969899
C41	C	-3.860042	-0.105439	-0.896533
C42	C	-4.025600	-0.109870	-0.863443
C43	C	-4.134759	0.039867	-0.211682
C44	C	-4.072241	0.133947	-0.212074
C45	C	-4.145995	-0.108733	-0.088252
C46	C	-4.090624	-0.109126	-0.010170
H47	H	-3.584907	-0.549581	-0.206513
C48	C	-4.207486	-0.121017	-0.419984
N49	N	-4.344653	-0.124673	-0.392568
H50	H	-3.749758	-0.638566	-0.102021
H51	H	-4.332863	-0.671801	-0.219645
H52	H	-3.864719	-0.679952	-0.316932
H53	H	-4.168215	-0.582537	-0.324144
C54	C	-4.275773	-0.120262	-0.574048
N55	N	-4.439883	-0.123639	-0.607415
C56	C	-4.405756	-0.118787	-0.867306
N57	N	-4.542922	-0.122448	-0.839890
C58	C	-4.068471	-0.529958	-0.092658
N59	N	-4.112241	-0.497119	-0.044281
C60	C	-3.710472	-0.100227	-1.006306
N61	N	-3.573329	-0.096585	-1.033732
H62	H	-3.559511	-0.103701	-0.549524
H63	H	-3.500488	-0.104351	-0.416419
H64	H	-4.417432	-0.116846	-1.009858
H65	H	-3.698777	-0.102141	-0.863749
