data_functionalizedCrystal
_audit_creation_method	'MofGen! by Chris Wilmer'
_symmetry_space_group_name_H-M	'P1'
_symmetry_Int_Tables_number	1
_symmetry_cell_setting	triclinic
loop_
_symmetry_equiv_pos_as_xyz
  x,y,z
_cell_length_a	25.639239
_cell_length_b	25.639234
_cell_length_c	16.120530
_cell_angle_alpha	92.917284
_cell_angle_beta	92.865376
_cell_angle_gamma	89.974540
loop_
_atom_site_label
_atom_site_type_symbol
_atom_site_fract_x
_atom_site_fract_y
_atom_site_fract_z
Zn1	Zn	-0.248769	-0.336094	-1.274445
Zn2	Zn	-0.336193	-0.248653	-1.274304
Zn3	Zn	-0.244338	-0.244244	-1.135028
Zn4	Zn	-0.331733	-0.331631	-1.134957
O5	O	-0.290258	-0.290156	-1.204684
O6	O	-0.264087	-0.328208	-1.391091
O7	O	-0.324020	-0.174902	-1.255800
O8	O	-0.171763	-0.256451	-1.153611
O9	O	-0.328317	-0.263966	-1.390987
O10	O	-0.175019	-0.323933	-1.256040
O11	O	-0.256534	-0.171663	-1.153474
O12	O	-0.252210	-0.252123	-1.018354
O13	O	-0.320716	-0.405389	-1.153489
O14	O	-0.316419	-0.316326	-1.018302
O15	O	-0.259763	-0.408668	-1.255971
O16	O	-0.408764	-0.259638	-1.255731
O17	O	-0.405487	-0.320601	-1.153352
C18	C	-0.283350	-0.283262	-0.988078
C19	C	-0.280407	-0.280325	-0.895414
C20	C	-0.426096	-0.290126	-1.204541
C21	C	-0.484211	-0.290133	-1.204556
C22	C	-0.733714	-0.321888	-1.151365
C23	C	-0.679109	-0.321881	-1.151334
O24	O	-0.649431	-0.348859	-1.105972
N25	N	-0.653488	-0.290164	-1.204661
C26	C	-0.682475	-0.258455	-1.258029
O27	O	-0.655669	-0.231477	-1.303385
C28	C	-0.737080	-0.258465	-1.258063
C29	C	-0.762698	-0.290181	-1.204727
C30	C	-0.759332	-0.353602	-1.098034
C31	C	-0.813934	-0.353608	-1.098064
C32	C	-0.842917	-0.321901	-1.151425
C33	C	-0.817299	-0.290187	-1.204757
C34	C	-0.766066	-0.226760	-1.311434
C35	C	-0.820674	-0.226773	-1.311465
C36	C	-0.846292	-0.258489	-1.258128
C37	C	-0.900884	-0.258486	-1.258148
N38	N	-0.926505	-0.290204	-1.204821
C39	C	-0.897522	-0.321911	-1.151460
C40	C	-0.567802	-0.258437	-1.257953
C41	C	-0.513199	-0.258423	-1.257915
C42	C	-0.509836	-0.321850	-1.151222
C43	C	-0.564441	-0.321861	-1.151256
C44	C	-0.593423	-0.290154	-1.204626
C45	C	-1.012189	-0.321921	-1.151526
C46	C	-1.066795	-0.321923	-1.151558
C47	C	-1.070153	-0.258498	-1.258255
C48	C	-1.015551	-0.258494	-1.258220
C49	C	-0.986571	-0.290210	-1.204853
O50	O	-0.930596	-0.231524	-1.303490
O51	O	-0.924336	-0.348890	-1.106118
C52	C	-0.290236	-0.426530	-1.204738
C53	C	-0.290227	-0.484645	-1.204761
C54	C	-0.153891	-0.290198	-1.204849
C55	C	-0.095779	-0.290216	-1.204920
C56	C	-0.255025	-0.843328	-1.151503
C57	C	-0.255016	-0.897932	-1.151508
O58	O	-0.225143	-0.924739	-1.106184
N59	N	-0.290146	-0.926929	-1.204789
C60	C	-0.325290	-0.901318	-1.258062
O61	O	-0.355170	-0.930996	-1.303382
C62	C	-0.325302	-0.846714	-1.258053
C63	C	-0.290166	-0.817721	-1.204775
C64	C	-0.219893	-0.814334	-1.098229
C65	C	-0.219902	-0.759734	-1.098225
C66	C	-0.255043	-0.734126	-1.151497
C67	C	-0.290175	-0.763120	-1.204772
C68	C	-0.360448	-0.821104	-1.311322
C69	C	-0.360457	-0.766497	-1.311308
C70	C	-0.325322	-0.737503	-1.258029
C71	C	-0.325325	-0.682912	-1.258040
N72	N	-0.290195	-0.653916	-1.204759
C73	C	-0.255055	-0.679523	-1.151488
C74	C	-0.325264	-1.015989	-1.258077
C75	C	-0.325251	-1.070592	-1.258091
C76	C	-0.254977	-1.067202	-1.151535
C77	C	-0.254989	-1.012599	-1.151526
C78	C	-0.290135	-0.986993	-1.204796
C79	C	-0.255075	-0.564858	-1.151485
C80	C	-0.255086	-0.510252	-1.151489
C81	C	-0.325361	-0.513646	-1.258042
C82	C	-0.325349	-0.568247	-1.258041
C83	C	-0.290204	-0.593851	-1.204756
O84	O	-0.355184	-0.656070	-1.303338
O85	O	-0.225184	-0.649838	-1.106168
C86	C	-0.290244	-0.154313	-1.204678
C87	C	-0.290111	-0.096204	-1.204816
C88	C	-0.297194	-0.297077	-1.422135
C89	C	-0.300149	-0.300026	-1.514799
C90	C	-0.275023	-0.274967	-0.725754
C91	C	-0.305532	-0.305382	-0.684453
C92	C	-0.302536	-0.302401	-0.590049
C93	C	-0.278018	-0.277947	-0.820167
H94	H	-1.087651	-0.347751	-1.108124
H95	H	-0.333902	-0.333661	-0.719995
H96	H	-0.226472	-0.486648	-1.108104
O97	O	-0.237459	-0.237494	-0.678687
H98	H	-0.240984	-0.240996	-0.610850
O99	O	-0.987926	-0.224291	-1.315762
H100	H	-0.964366	-0.249071	-1.358140
O101	O	-0.363240	-0.599522	-1.315512
H102	H	-0.388644	-0.623198	-1.278165
O103	O	-0.478573	-0.356048	-1.093657
H104	H	-0.489474	-0.397547	-1.107915
O105	O	-0.485570	-0.224216	-1.315442
H106	H	-0.495631	-0.182722	-1.301194
O107	O	-0.599066	-0.224235	-1.315511
H108	H	-0.588168	-0.182737	-1.301236
H109	H	-0.745216	-0.200934	-1.354866
H110	H	-1.093761	-0.232681	-1.301697
O111	O	-0.851935	-0.192572	-1.369024
H112	H	-0.824944	-0.170516	-1.406097
H113	H	-0.988599	-0.347748	-1.108071
H114	H	-0.834787	-0.379433	-1.054630
O115	O	-0.363262	-0.486024	-1.315499
H116	H	-0.388676	-0.459950	-1.278142
O117	O	-0.728081	-0.387796	-1.040457
H118	H	-0.738986	-0.429294	-1.054709
O119	O	-0.592071	-0.356072	-1.093737
H120	H	-0.562738	-0.378119	-1.056632
O121	O	-0.217166	-0.592471	-1.094024
H122	H	-0.192737	-0.563129	-1.056989
H123	H	-0.226364	-1.088062	-1.108158
H124	H	-0.191277	-0.835177	-1.054844
O125	O	-0.182004	-0.728464	-1.040765
H126	H	-0.157571	-0.755452	-1.003726
O127	O	-0.217094	-0.981328	-1.094062
H128	H	-0.192659	-1.008313	-1.057022
H129	H	-0.353856	-1.094194	-1.301485
H130	H	-0.353882	-0.995144	-1.301466
O131	O	-0.398365	-0.738883	-1.368774
H132	H	-0.423783	-0.712809	-1.331429
O133	O	-0.398357	-0.852368	-1.368766
H134	H	-0.422799	-0.825379	-1.405787
