data_functionalizedCrystal
_audit_creation_method	'MofGen! by Chris Wilmer'
_symmetry_space_group_name_H-M	'P1'
_symmetry_Int_Tables_number	1
_symmetry_cell_setting	triclinic
loop_
_symmetry_equiv_pos_as_xyz
  x,y,z
_cell_length_a	19.077269
_cell_length_b	19.077068
_cell_length_c	12.759393
_cell_angle_alpha	92.261232
_cell_angle_beta	92.277346
_cell_angle_gamma	89.938054
loop_
_atom_site_label
_atom_site_type_symbol
_atom_site_fract_x
_atom_site_fract_y
_atom_site_fract_z
Zn1	Zn	1.062971	-0.322854	-0.549585
Zn2	Zn	1.562971	0.177146	-0.049585
Zn3	Zn	1.058153	-0.440376	-0.381221
Zn4	Zn	1.558153	0.059624	0.118779
Zn5	Zn	0.945462	-0.318171	-0.380687
Zn6	Zn	1.445462	0.181829	0.119313
Zn7	Zn	0.940710	-0.435604	-0.563615
Zn8	Zn	1.440710	0.064396	-0.063615
O9	O	1.001824	-0.379251	-0.468777
O10	O	1.501824	0.120749	0.031223
O11	O	1.160659	-0.342401	-0.521603
O12	O	1.660659	0.157599	-0.021603
O13	O	1.043176	-0.424202	-0.234133
O14	O	1.543176	0.075798	0.265867
O15	O	0.965054	-0.220462	-0.396996
O16	O	1.465054	0.279538	0.103004
O17	O	1.157120	-0.428744	-0.397907
O18	O	1.657120	0.071256	0.102093
O19	O	1.051388	-0.223903	-0.521085
O20	O	1.551388	0.276097	-0.021085
O21	O	0.960382	-0.334419	-0.233740
O22	O	1.460382	0.165581	0.266260
O23	O	0.846504	-0.329792	-0.410600
O24	O	1.346504	0.170208	0.089400
O25	O	0.956956	-0.420611	-0.708771
O26	O	1.456956	0.079389	-0.208771
O27	O	0.843013	-0.416070	-0.544997
O28	O	1.343013	0.083930	-0.044997
O29	O	1.046781	-0.337774	-0.698464
O30	O	1.546781	0.162226	-0.198464
O31	O	1.038569	-0.538073	-0.411512
O32	O	1.538569	-0.038073	0.088488
O33	O	0.952284	-0.534567	-0.545516
O34	O	1.452284	-0.034567	-0.045516
C35	C	0.819263	-0.371905	-0.479264
C36	C	1.319263	0.128095	0.020736
C37	C	0.741162	-0.368779	-0.483776
C38	C	1.241162	0.131221	0.016224
C39	C	0.702627	-0.412192	-0.421390
C40	C	1.202627	0.087808	0.078610
C41	C	0.629242	-0.409255	-0.425643
C42	C	1.129242	0.090745	0.074357
C43	C	0.594395	-0.362901	-0.492279
C44	C	1.094395	0.137099	0.007721
C45	C	0.632935	-0.319487	-0.554672
C46	C	1.132935	0.180513	-0.054672
C47	C	0.706318	-0.322428	-0.550424
C48	C	1.206318	0.177572	-0.050424
C49	C	0.375121	-0.349296	-0.511909
C50	C	0.875121	0.150704	-0.011909
C51	C	0.301733	-0.346357	-0.516150
C52	C	0.801733	0.153643	-0.016150
C53	C	0.298046	-0.436126	-0.387122
C54	C	0.798046	0.063874	0.112878
C55	C	0.371430	-0.439060	-0.382875
C56	C	0.871430	0.060940	0.117125
C57	C	0.409964	-0.395648	-0.445272
C58	C	0.909964	0.104352	0.054728
N59	N	0.519384	-0.359897	-0.496626
N60	N	1.019384	0.140103	0.003374
N61	N	0.484973	-0.398657	-0.440930
N62	N	0.984973	0.101343	0.059070
C63	C	0.994407	-0.561817	-0.480116
C64	C	1.494407	-0.061817	0.019884
C65	C	0.991299	-0.639921	-0.484998
C66	C	1.491299	-0.139921	0.015002
C67	C	1.034797	-0.678418	-0.417577
C68	C	1.534797	-0.178418	0.082423
C69	C	1.031877	-0.751806	-0.422175
C70	C	1.531877	-0.251806	0.077825
C71	C	0.985455	-0.786695	-0.494190
C72	C	1.485455	-0.286695	0.005810
C73	C	0.941955	-0.748193	-0.561619
C74	C	1.441955	-0.248193	-0.061619
C75	C	0.944879	-0.674807	-0.557025
C76	C	1.444879	-0.174807	-0.057025
C77	C	0.971893	-1.005984	-0.515409
C78	C	1.471893	-0.505984	-0.015409
C79	C	0.968972	-1.079375	-0.519996
C80	C	1.468972	-0.579375	-0.019996
C81	C	1.058894	-1.082983	-0.380553
C82	C	1.558894	-0.582983	0.119447
C83	C	1.061811	-1.009595	-0.375961
C84	C	1.561811	-0.509595	0.124039
C85	C	1.018314	-0.971099	-0.443393
C86	C	1.518314	-0.471099	0.056607
N87	N	0.982468	-0.861709	-0.498889
N88	N	1.482468	-0.361709	0.001111
N89	N	1.021305	-0.896087	-0.438698
N90	N	1.521305	-0.396087	0.061302
C91	C	1.185098	-0.386627	-0.458250
C92	C	1.685098	0.113373	0.041750
C93	C	1.263198	-0.389770	-0.453764
C94	C	1.763198	0.110230	0.046236
C95	C	1.001876	-0.379182	-0.742803
C96	C	1.501876	0.120818	-0.242803
C97	C	1.001898	-0.379153	-0.859577
C98	C	1.501898	0.120847	-0.359577
C99	C	1.009289	-0.195974	-0.457416
C100	C	1.509289	0.304026	0.042584
C101	C	1.012470	-0.117872	-0.452574
C102	C	1.512470	0.382128	0.047426
C103	C	1.048676	-0.336016	-0.909073
C104	C	1.548676	0.163984	-0.409073
C105	C	1.048694	-0.335991	-1.018794
C106	C	1.548694	0.164009	-0.518794
C107	C	0.955153	-0.422247	-1.029515
C108	C	1.455153	0.077753	-0.529515
C109	C	0.955133	-0.422267	-0.919795
C110	C	1.455133	0.077733	-0.419795
C111	C	1.102683	-0.286219	-0.902884
C112	C	1.602683	0.213781	-0.402884
C113	C	1.102700	-0.286194	-1.012606
C114	C	1.602700	0.213806	-0.512606
C115	C	1.001814	-0.379271	-0.195811
C116	C	1.501814	0.120729	0.304189
C117	C	1.001936	-0.379108	-0.079018
C118	C	1.501936	0.120892	0.420982
H119	H	0.597870	-0.444606	-0.374841
H120	H	1.097870	0.055394	0.125159
F121	F	1.169202	-0.314428	-0.856092
F122	F	1.669202	0.185572	-0.356092
H123	H	1.085318	-0.233706	-1.044557
H124	H	1.585318	0.266294	-0.544557
H125	H	1.094308	-1.114334	-0.325655
H126	H	1.594308	-0.614334	0.174345
F127	F	1.173063	-0.308094	-1.048626
F128	F	1.673063	0.191906	-0.548626
H129	H	0.399798	-0.476805	-0.328612
H130	H	0.899798	0.023195	0.171388
F131	F	0.257030	-0.482326	-0.320721
F132	F	0.757030	0.017674	0.179279
F133	F	0.919554	-1.116505	-0.596637
F134	F	1.419554	-0.616505	-0.096637
F135	F	0.925599	-0.965023	-0.587176
F136	F	1.425599	-0.465023	-0.087176
F137	F	0.595845	-0.270159	-0.625599
F138	F	1.095845	0.229841	-0.125599
F139	F	0.892554	-0.785327	-0.638268
F140	F	1.392554	-0.285327	-0.138268
H141	H	0.730994	-0.449935	-0.367124
H142	H	1.230994	0.050065	0.132876
F143	F	1.084201	-0.641293	-0.340922
F144	F	1.584201	-0.141293	0.159078
F145	F	0.264647	-0.297016	-0.587071
F146	F	0.764647	0.202984	-0.087071
F147	F	0.747329	-0.276224	-0.616827
F148	F	1.247329	0.223776	-0.116827
F149	F	1.086526	-0.214328	-0.860655
F150	F	1.586526	0.285672	-0.360655
H151	H	0.909459	-0.643463	-0.611928
H152	H	1.409459	-0.143463	-0.111928
F153	F	1.078176	-0.792775	-0.350418
F154	F	1.578176	-0.292775	0.149582
F155	F	1.111227	-0.972469	-0.299324
F156	F	1.611227	-0.472469	0.200676
F157	F	0.416122	-0.303094	-0.578319
F158	F	0.916122	0.196906	-0.078319
H159	H	0.917078	-0.457348	-1.078558
H160	H	1.417078	0.042652	-0.578558
F161	F	0.905336	-0.468170	-0.867122
F162	F	1.405336	0.031830	-0.367122
