data_functionalizedCrystal
_audit_creation_method	'MofGen! by Chris Wilmer'
_symmetry_space_group_name_H-M	'P1'
_symmetry_Int_Tables_number	1
_symmetry_cell_setting	triclinic
loop_
_symmetry_equiv_pos_as_xyz
  x,y,z
_cell_length_a	13.897449
_cell_length_b	21.295417
_cell_length_c	13.897441
_cell_angle_alpha	89.964549
_cell_angle_beta	89.981404
_cell_angle_gamma	90.031786
loop_
_atom_site_label
_atom_site_type_symbol
_atom_site_fract_x
_atom_site_fract_y
_atom_site_fract_z
Zn1	Zn	1.474596	-0.250574	-0.545342
Zn2	Zn	1.474460	-0.355851	-0.384027
Zn3	Zn	1.313292	-0.250602	-0.384060
Zn4	Zn	1.313231	-0.355811	-0.545280
O5	O	1.393895	-0.303209	-0.464677
O6	O	1.609560	-0.264544	-0.523955
O7	O	1.453049	-0.341918	-0.249050
O8	O	1.334771	-0.162509	-0.405495
O9	O	1.609460	-0.341890	-0.405438
O10	O	1.453281	-0.162488	-0.523988
O11	O	1.334639	-0.264592	-0.249074
O12	O	1.178302	-0.264553	-0.405434
O13	O	1.334668	-0.341823	-0.680270
O14	O	1.178258	-0.341850	-0.523881
O15	O	1.453223	-0.264505	-0.680316
O16	O	1.452991	-0.443935	-0.405378
O17	O	1.334536	-0.443906	-0.523849
C18	C	1.143281	-0.303201	-0.464655
C19	C	1.036067	-0.303213	-0.464669
C20	C	0.839771	-0.303215	-0.464694
C21	C	0.949004	-0.303212	-0.464677
C22	C	1.393768	-0.466761	-0.464624
C23	C	1.393803	-0.536729	-0.464633
C24	C	1.455537	-0.569590	-0.403008
C25	C	1.455582	-0.635333	-0.403030
C26	C	1.393876	-0.668212	-0.464667
C27	C	1.332137	-0.635343	-0.526304
C28	C	1.332101	-0.569602	-0.526287
N29	N	1.309494	-0.771478	-0.472013
N30	N	1.309532	-0.833930	-0.472023
C31	C	1.393984	-0.866286	-0.464722
N32	N	1.478398	-0.833832	-0.457392
N33	N	1.478360	-0.771375	-0.457376
C34	C	1.393909	-0.739497	-0.464692
C35	C	1.455772	-0.970433	-0.403117
C36	C	1.455819	-1.036176	-0.403146
C37	C	1.332366	-1.036185	-0.526414
C38	C	1.332328	-0.970443	-0.526391
C39	C	1.394029	-0.937571	-0.464737
C40	C	1.645488	-0.303218	-0.464700
C41	C	1.752702	-0.303222	-0.464710
C42	C	1.393954	-0.303157	-0.716270
C43	C	1.393979	-0.303134	-0.823484
C44	C	1.394048	-0.139019	-0.464752
C45	C	1.394113	-0.069051	-0.464784
C46	C	1.393999	-0.303116	-0.910554
C47	C	1.394026	-0.303088	-1.019787
C48	C	1.393892	-0.303217	-0.214063
C49	C	1.394053	-0.303062	-0.106850
H50	H	1.505780	-0.542827	-0.352809
O51	O	1.265813	-1.071639	-0.592899
H52	H	1.190111	-1.059071	-0.576288
H53	H	1.282054	-0.943686	-0.576567
O54	O	1.522160	-0.670788	-0.336553
H55	H	1.565053	-0.636885	-0.293675
H56	H	1.281829	-0.542846	-0.576471
O57	O	1.265570	-0.670799	-0.592775
H58	H	1.275956	-0.722035	-0.582423
H59	H	1.506016	-0.943667	-0.352918
O60	O	1.522405	-1.071625	-0.336674
H61	H	1.565293	-1.037719	-0.293796
