data_functionalizedCrystal
_audit_creation_method	'MofGen! by Chris Wilmer'
_symmetry_space_group_name_H-M	'P1'
_symmetry_Int_Tables_number	1
_symmetry_cell_setting	triclinic
loop_
_symmetry_equiv_pos_as_xyz
  x,y,z
_cell_length_a	23.532361
_cell_length_b	27.732048
_cell_length_c	22.610064
_cell_angle_alpha	89.999096
_cell_angle_beta	89.996103
_cell_angle_gamma	82.736162
loop_
_atom_site_label
_atom_site_type_symbol
_atom_site_fract_x
_atom_site_fract_y
_atom_site_fract_z
O1	O	0.755156	0.058565	-0.049132
O2	O	1.088489	0.391898	0.284202
O3	O	1.421822	0.725232	0.617535
O4	O	0.589270	0.067079	-0.049147
O5	O	0.922604	0.400412	0.284187
O6	O	1.255937	0.733745	0.617520
O7	O	0.677365	-0.007568	-0.049127
O8	O	1.010698	0.325766	0.284206
O9	O	1.344032	0.659099	0.617539
O10	O	0.667061	0.133211	-0.049151
O11	O	1.000394	0.466545	0.284182
O12	O	1.333728	0.799878	0.617516
O13	O	0.677349	-0.007557	0.049242
O14	O	1.010683	0.325776	0.382575
O15	O	1.344016	0.659110	0.715908
O16	O	0.589255	0.067090	0.049223
O17	O	0.922588	0.400423	0.382556
O18	O	1.255921	0.733756	0.715889
O19	O	0.755140	0.058576	0.049238
O20	O	1.088473	0.391909	0.382571
O21	O	1.421807	0.725242	0.715904
Zn22	Zn	0.672195	0.062834	0.064848
Zn23	Zn	1.005528	0.396168	0.398182
Zn24	Zn	1.338862	0.729501	0.731515
Zn25	Zn	0.672215	0.062820	-0.064757
Zn26	Zn	1.005549	0.396153	0.268576
Zn27	Zn	1.338882	0.729487	0.601909
O28	O	0.667045	0.133222	0.049218
O29	O	1.000379	0.466556	0.382552
O30	O	1.333712	0.799889	0.715885
C31	C	0.568046	0.066871	0.000036
C32	C	0.901380	0.400204	0.333370
C33	C	1.234713	0.733538	0.666703
C34	C	0.504829	0.066230	0.000031
C35	C	0.838163	0.399563	0.333364
C36	C	1.171496	0.732897	0.666698
C37	C	0.231600	0.063420	-0.053586
C38	C	0.564933	0.396753	0.279747
C39	C	0.898267	0.730087	0.613081
C40	C	0.290999	0.064027	-0.053588
C41	C	0.624332	0.397360	0.279746
C42	C	0.957665	0.730694	0.613079
O43	O	0.321731	0.064319	-0.099189
O44	O	0.655064	0.397652	0.234144
O45	O	0.988398	0.730986	0.567477
N46	N	0.320695	0.064339	0.000034
N47	N	0.654028	0.397673	0.333367
N48	N	0.987362	0.731006	0.666700
C49	C	0.290991	0.064040	0.053660
C50	C	0.624324	0.397373	0.386993
C51	C	0.957658	0.730707	0.720326
O52	O	0.321704	0.064361	0.099269
O53	O	0.655038	0.397695	0.432602
O54	O	0.988371	0.731028	0.765935
C55	C	0.231594	0.063430	0.053661
C56	C	0.564927	0.396763	0.386994
C57	C	0.898261	0.730097	0.720327
C58	C	0.201900	0.063122	0.000036
C59	C	0.535233	0.396456	0.333369
C60	C	0.868566	0.729789	0.666703
C61	C	0.201906	0.063112	-0.107206
C62	C	0.535239	0.396445	0.226127
C63	C	0.868573	0.729779	0.559460
C64	C	0.142511	0.062506	-0.107205
C65	C	0.475845	0.395840	0.226129
C66	C	0.809178	0.729173	0.559462
C67	C	0.112811	0.062208	-0.053583
C68	C	0.446144	0.395542	0.279751
C69	C	0.779478	0.728875	0.613084
C70	C	0.142505	0.062516	0.000038
C71	C	0.475839	0.395850	0.333371
C72	C	0.809172	0.729183	0.666704
C73	C	0.201892	0.063127	0.107286
C74	C	0.535225	0.396460	0.440620
C75	C	0.868558	0.729794	0.773953
C76	C	0.142491	0.062516	0.107283
C77	C	0.475824	0.395850	0.440616
C78	C	0.809157	0.729183	0.773949
C79	C	0.112796	0.062209	0.053658
C80	C	0.446130	0.395542	0.386991
C81	C	0.779463	0.728876	0.720325
C82	C	0.053410	0.061613	0.053662
C83	C	0.386744	0.394946	0.386995
C84	C	0.720077	0.728280	0.720328
N85	N	0.023714	0.061300	0.000041
N86	N	0.357047	0.394634	0.333374
N87	N	0.690381	0.727967	0.666707
C88	C	0.053414	0.061598	-0.053582
C89	C	0.386748	0.394931	0.279752
C90	C	0.720081	0.728265	0.613085
C91	C	0.415728	0.065321	0.053654
C92	C	0.749062	0.398654	0.386987
C93	C	1.082395	0.731988	0.720320
C94	C	0.475123	0.065935	0.053653
C95	C	0.808457	0.399268	0.386987
C96	C	1.141790	0.732601	0.720320
C97	C	0.475127	0.065920	-0.053594
C98	C	0.808461	0.399254	0.279739
C99	C	1.141794	0.732587	0.613072
C100	C	0.415730	0.065310	-0.053593
C101	C	0.749064	0.398644	0.279740
C102	C	1.082397	0.731977	0.613073
C103	C	0.386032	0.065008	0.000033
C104	C	0.719365	0.398342	0.333366
C105	C	1.052698	0.731675	0.666699
C106	C	-0.071319	0.060326	-0.053574
C107	C	0.262015	0.393660	0.279759
C108	C	0.595348	0.726993	0.613093
C109	C	-0.130719	0.059722	-0.053567
C110	C	0.202615	0.393056	0.279766
C111	C	0.535948	0.726389	0.613099
C112	C	-0.130717	0.059734	0.053680
C113	C	0.202617	0.393067	0.387013
C114	C	0.535950	0.726401	0.720347
C115	C	-0.071322	0.060340	0.053674
C116	C	0.262011	0.393674	0.387007
C117	C	0.595344	0.727007	0.720341
C118	C	-0.041624	0.060635	0.000042
C119	C	0.291709	0.393968	0.333375
C120	C	0.625042	0.727302	0.666709
O121	O	0.022641	0.061318	0.099240
O122	O	0.355974	0.394652	0.432573
O123	O	0.689307	0.727985	0.765907
O124	O	0.022695	0.061271	-0.099183
O125	O	0.356028	0.394604	0.234150
O126	O	0.689361	0.727937	0.567484
C127	C	0.677141	-0.025570	0.000059
C128	C	1.010474	0.307764	0.333392
C129	C	1.343808	0.641097	0.666725
C130	C	0.676490	-0.079225	0.000064
C131	C	1.009823	0.254108	0.333397
C132	C	1.343156	0.587441	0.666730
C133	C	0.724448	-0.417973	0.000038
C134	C	1.057781	-0.084640	0.333371
C135	C	1.391114	0.248693	0.666704
C136	C	0.722031	-0.619636	0.000029
C137	C	1.055364	-0.286303	0.333362
C138	C	1.388698	0.047030	0.666696
O139	O	0.765885	-0.650831	0.000007
O140	O	1.099218	-0.317497	0.333341
O141	O	1.432552	0.015836	0.666674
N142	N	0.669795	-0.638833	0.000025
N143	N	1.003128	-0.305500	0.333358
N144	N	1.336461	0.027834	0.666692
C145	C	0.618158	-0.607611	0.000019
C146	C	0.951492	-0.274277	0.333352
C147	C	1.284825	0.059056	0.666686
O148	O	0.573673	-0.628566	0.000009
O149	O	0.907006	-0.295232	0.333342
O150	O	1.240339	0.038101	0.666676
C151	C	0.620576	-0.405949	0.000023
C152	C	0.953909	-0.072615	0.333357
C153	C	1.287242	0.260718	0.666690
C154	C	0.672815	-0.386755	0.000033
C155	C	1.006149	-0.053422	0.333367
C156	C	1.339482	0.279912	0.666700
C157	C	0.776683	-0.398779	0.000047
C158	C	1.110017	-0.065446	0.333380
C159	C	1.443350	0.267887	0.666714
C160	C	0.777287	-0.348366	0.000052
C161	C	1.110620	-0.015033	0.333386
C162	C	1.443953	0.318300	0.666719
C163	C	0.725655	-0.317148	0.000048
C164	C	1.058988	0.016185	0.333382
C165	C	1.392321	0.349519	0.666715
C166	C	0.673419	-0.336342	0.000039
C167	C	1.006752	-0.003009	0.333372
C168	C	1.340086	0.330325	0.666705
C169	C	0.568940	-0.374727	0.000013
C170	C	0.902273	-0.041394	0.333346
C171	C	1.235607	0.291940	0.666680
C172	C	0.569549	-0.324309	0.000013
C173	C	0.902882	0.009025	0.333346
C174	C	1.236216	0.342358	0.666679
C175	C	0.621789	-0.305115	0.000023
C176	C	0.955122	0.028218	0.333356
C177	C	1.288456	0.361552	0.666689
C178	C	0.622391	-0.254711	0.000040
C179	C	0.955724	0.078623	0.333373
C180	C	1.289057	0.411956	0.666707
N181	N	0.674627	-0.235514	0.000044
N182	N	1.007960	0.097819	0.333377
N183	N	1.341294	0.431153	0.666711
C184	C	0.726259	-0.266733	0.000048
C185	C	1.059592	0.066601	0.333382
C186	C	1.392926	0.399934	0.666715
C187	C	0.616893	-0.713486	0.000018
C188	C	0.950226	-0.380153	0.333351
C189	C	1.283560	-0.046820	0.666685
C190	C	0.616289	-0.763902	0.000018
C191	C	0.949622	-0.430568	0.333351
C192	C	1.282955	-0.097235	0.666685
C193	C	0.720162	-0.775924	0.000027
C194	C	1.053495	-0.442591	0.333360
C195	C	1.386828	-0.109257	0.666694
C196	C	0.720765	-0.725508	0.000031
C197	C	1.054099	-0.392175	0.333365
C198	C	1.387432	-0.058841	0.666698
C199	C	0.669130	-0.694290	0.000022
C200	C	1.002463	-0.360956	0.333355
C201	C	1.335796	-0.027623	0.666689
C202	C	0.727523	-0.160862	0.000060
C203	C	1.060856	0.172472	0.333393
C204	C	1.394189	0.505805	0.666727
C205	C	0.728122	-0.110444	0.000068
C206	C	1.061455	0.222889	0.333401
C207	C	1.394788	0.556223	0.666734
C208	C	0.624249	-0.098426	0.000056
C209	C	0.957583	0.234907	0.333389
C210	C	1.290916	0.568241	0.666722
C211	C	0.623650	-0.148839	0.000051
C212	C	0.956983	0.184494	0.333384
C213	C	1.290317	0.517827	0.666718
C214	C	0.675291	-0.180056	0.000051
C215	C	1.008625	0.153277	0.333384
C216	C	1.341958	0.486610	0.666718
O217	O	0.578560	-0.223488	0.000055
O218	O	0.911893	0.109845	0.333388
O219	O	1.245227	0.443179	0.666722
O220	O	0.770738	-0.245768	0.000045
O221	O	1.104072	0.087565	0.333378
O222	O	1.437405	0.420899	0.666712
C223	C	0.723844	-0.468386	0.000032
C224	C	1.057177	-0.135053	0.333366
C225	C	1.390511	0.198280	0.666699
C226	C	0.671608	-0.487580	0.000023
C227	C	1.004942	-0.154247	0.333356
C228	C	1.338275	0.179086	0.666689
C229	C	0.619976	-0.456362	0.000019
C230	C	0.953310	-0.123029	0.333352
C231	C	1.286643	0.210305	0.666685
C232	C	0.671004	-0.537996	0.000023
C233	C	1.004337	-0.204662	0.333356
C234	C	1.337671	0.128671	0.666689
C235	C	0.722636	-0.569214	0.000027
C236	C	1.055969	-0.235881	0.333360
C237	C	1.389303	0.097452	0.666694
C238	C	0.774873	-0.550018	0.000031
C239	C	1.108206	-0.216684	0.333364
C240	C	1.441539	0.116649	0.666698
C241	C	0.775476	-0.499605	0.000036
C242	C	1.108809	-0.166271	0.333370
C243	C	1.442143	0.167062	0.666703
C244	C	0.567740	-0.475559	0.000014
C245	C	0.901073	-0.142225	0.333348
C246	C	1.234406	0.191108	0.666681
C247	C	0.567140	-0.525972	0.000010
C248	C	0.900474	-0.192639	0.333343
C249	C	1.233807	0.140695	0.666676
C250	C	0.618772	-0.557190	0.000014
C251	C	0.952106	-0.223857	0.333347
C252	C	1.285439	0.109476	0.666681
C253	C	0.776364	0.058784	0.000053
C254	C	1.109697	0.392117	0.333387
C255	C	1.443031	0.725450	0.666720
C256	C	0.839581	0.059425	0.000055
C257	C	1.172914	0.392758	0.333388
C258	C	1.506248	0.726091	0.666722
N259	N	0.672185	0.062844	0.153301
N260	N	1.005518	0.396177	0.486634
N261	N	1.338852	0.729511	0.819967
C262	C	0.667269	0.151224	0.000031
C263	C	1.000603	0.484557	0.333364
C264	C	1.333936	0.817891	0.666697
C265	C	0.667921	0.204880	0.000022
C266	C	1.001254	0.538213	0.333355
C267	C	1.334587	0.871546	0.666689
N268	N	0.672230	0.062807	-0.153210
N269	N	1.005563	0.396140	0.180124
N270	N	1.338897	0.729473	0.513457
C271	C	0.711225	0.029772	0.561951
C272	C	1.044559	0.363105	0.895284
C273	C	1.377892	0.696438	1.228617
C274	C	0.711228	0.029768	0.623871
C275	C	1.044562	0.363101	0.957204
C276	C	1.377895	0.696435	1.290537
O277	O	0.744398	0.001656	0.655897
O278	O	1.077731	0.334989	0.989230
O279	O	1.411064	0.668323	1.322563
N280	N	0.672215	0.062810	0.654838
N281	N	1.005548	0.396143	0.988171
N282	N	1.338882	0.729477	1.321505
C283	C	0.633192	0.095854	0.623882
C284	C	0.966526	0.429188	0.957215
C285	C	1.299859	0.762521	1.290549
O286	O	0.600008	0.123958	0.655908
O287	O	0.933342	0.457292	0.989241
O288	O	1.266675	0.790625	1.322575
C289	C	0.633187	0.095855	0.561963
C290	C	0.966521	0.429189	0.895297
C291	C	1.299854	0.762522	1.228630
C292	C	0.672207	0.062814	0.530999
C293	C	1.005540	0.396148	0.864333
C294	C	1.338874	0.729481	1.197666
C295	C	0.750242	-0.003267	0.530987
C296	C	1.083575	0.330066	0.864320
C297	C	1.416908	0.663400	1.197653
C298	C	0.750239	-0.003263	0.469071
C299	C	1.083573	0.330071	0.802404
C300	C	1.416906	0.663404	1.135738
C301	C	0.711221	0.029780	0.438119
C302	C	1.044554	0.363113	0.771453
C303	C	1.377887	0.696447	1.104786
C304	C	0.672205	0.062819	0.469084
C305	C	1.005538	0.396152	0.802417
C306	C	1.338871	0.729485	1.135750
C307	C	0.594162	0.128897	0.531009
C308	C	0.927496	0.462230	0.864342
C309	C	1.260829	0.795563	1.197675
C310	C	0.594160	0.128895	0.469086
C311	C	0.927494	0.462228	0.802419
C312	C	1.260827	0.795561	1.135752
C313	C	0.633180	0.095854	0.438122
C314	C	0.966513	0.429187	0.771455
C315	C	1.299847	0.762520	1.104788
C316	C	0.633184	0.095866	0.376216
C317	C	0.966517	0.429199	0.709550
C318	C	1.299850	0.762532	1.042883
N319	N	0.672197	0.062824	0.345249
N320	N	1.005530	0.396157	0.678582
N321	N	1.338864	0.729490	1.011916
C322	C	0.711216	0.029781	0.376201
C323	C	1.044549	0.363114	0.709534
C324	C	1.377882	0.696448	1.042867
C325	C	0.633206	0.095850	0.753916
C326	C	0.966539	0.429183	1.087249
C327	C	1.299872	0.762516	1.420582
C328	C	0.633213	0.095851	0.815833
C329	C	0.966546	0.429185	1.149167
C330	C	1.299880	0.762518	1.482500
C331	C	0.711248	0.029764	0.815818
C332	C	1.044582	0.363098	1.149151
C333	C	1.377915	0.696431	1.482484
C334	C	0.711243	0.029765	0.753899
C335	C	1.044577	0.363099	1.087232
C336	C	1.377910	0.696432	1.420565
C337	C	0.672219	0.062808	0.722948
C338	C	1.005552	0.396141	1.056282
C339	C	1.338886	0.729474	1.389615
C340	C	0.711208	0.029793	0.246173
C341	C	1.044541	0.363126	0.579507
C342	C	1.377875	0.696459	0.912840
C343	C	0.711204	0.029801	0.184252
C344	C	1.044537	0.363135	0.517586
C345	C	1.377870	0.696468	0.850919
C346	C	0.633166	0.095886	0.184273
C347	C	0.966500	0.429220	0.517607
C348	C	1.299833	0.762553	0.850940
C349	C	0.633172	0.095880	0.246189
C350	C	0.966506	0.429213	0.579522
C351	C	1.299839	0.762546	0.912856
C352	C	0.672195	0.062829	0.277138
C353	C	1.005529	0.396162	0.610471
C354	C	1.338862	0.729495	0.943804
O355	O	0.600030	0.123962	0.344151
O356	O	0.933363	0.457295	0.677484
O357	O	1.266697	0.790629	1.010818
O358	O	0.744389	0.001677	0.344167
O359	O	1.077722	0.335011	0.677501
O360	O	1.411056	0.668344	1.010834
H361	H	0.391557	0.065060	-0.097259
H362	H	0.724891	0.398393	0.236074
H363	H	1.058224	0.731726	0.569407
H364	H	0.499294	0.066193	0.097320
H365	H	0.832628	0.399526	0.430653
H366	H	1.165961	0.732860	0.763987
F367	F	0.831642	-0.431998	0.000051
F368	F	1.164976	-0.098664	0.333385
F369	F	1.498309	0.234669	0.666718
F370	F	0.560688	-0.784323	0.000018
F371	F	0.894021	-0.450990	0.333351
F372	F	1.227355	-0.117657	0.666684
F373	F	0.752772	-0.005402	0.720950
F374	F	1.086106	0.327932	1.054284
F375	F	1.419439	0.661265	1.387617
H376	H	0.742983	0.002879	0.271365
H377	H	1.076317	0.336212	0.604698
H378	H	1.409650	0.669546	0.938031
F379	F	0.569302	-0.065192	0.000051
F380	F	0.902635	0.268141	0.333385
F381	F	1.235968	0.601474	0.666718
F382	F	0.752775	-0.005403	0.848770
F383	F	1.086108	0.327930	1.182104
F384	F	1.419441	0.661263	1.515437
F385	F	0.552632	0.164063	0.563952
F386	F	0.885965	0.497396	0.897285
F387	F	1.219298	0.830729	1.230619
H388	H	0.762202	-0.801351	0.000031
H389	H	1.095536	-0.468018	0.333364
H390	H	1.428869	-0.134684	0.666697
H391	H	0.118340	0.062254	-0.150872
H392	H	0.451673	0.395587	0.182462
H393	H	0.785007	0.728920	0.515795
F394	F	0.561931	-0.680267	0.000008
F395	F	0.895265	-0.346934	0.333341
F396	F	1.228598	-0.013600	0.666675
H397	H	-0.047146	0.060600	0.097339
H398	H	0.286188	0.393934	0.430673
H399	H	0.619521	0.727267	0.764006
F400	F	-0.162337	0.059419	0.110746
F401	F	0.170997	0.392752	0.444079
F402	F	0.504330	0.726086	0.777412
F403	F	0.591672	0.131023	0.720981
F404	F	0.925005	0.464357	1.054314
F405	F	1.258338	0.797690	1.387648
H406	H	0.499320	0.066163	-0.097256
H407	H	0.832653	0.399496	0.236077
H408	H	1.165987	0.732829	0.569410
F409	F	0.782485	-0.194078	0.000060
F410	F	1.115819	0.139255	0.333393
F411	F	1.449152	0.472588	0.666727
H412	H	0.770664	-0.094820	0.000078
H413	H	1.103997	0.238514	0.333411
H414	H	1.437330	0.571847	0.666744
H415	H	0.391550	0.065081	0.097325
H416	H	0.724884	0.398415	0.430658
H417	H	1.058217	0.731748	0.763992
F418	F	0.591690	0.131024	0.848782
F419	F	0.925023	0.464357	1.182115
F420	F	1.258357	0.797690	1.515448
F421	F	0.552622	0.164063	0.436150
F422	F	0.885956	0.497396	0.769483
F423	F	1.219289	0.830730	1.102817
F424	F	0.591649	0.131051	0.279142
F425	F	0.924982	0.464384	0.612476
F426	F	1.258315	0.797718	0.945809
F427	F	0.832888	-0.327946	0.000051
F428	F	1.166221	0.005388	0.333384
F429	F	1.499555	0.338721	0.666717
H430	H	0.818015	-0.483982	0.000045
H431	H	1.151348	-0.150649	0.333378
H432	H	1.484682	0.182684	0.666711
H433	H	0.601400	0.122791	0.159063
H434	H	0.934733	0.456124	0.492396
H435	H	1.268066	0.789457	0.825730
H436	H	0.526401	-0.390345	0.000001
H437	H	0.859734	-0.057012	0.333335
H438	H	1.193068	0.276321	0.666668
F439	F	0.776365	-0.705085	0.000042
F440	F	1.109699	-0.371752	0.333375
F441	F	1.443032	-0.038419	0.666709
F442	F	0.233482	0.063454	0.164362
F443	F	0.566815	0.396788	0.497696
F444	F	0.900148	0.730121	0.831029
H445	H	0.118313	0.062275	0.150952
H446	H	0.451646	0.395608	0.484286
H447	H	0.784979	0.728942	0.817619
H448	H	0.581112	-0.164467	0.000059
H449	H	0.914445	0.168866	0.333392
H450	H	1.247779	0.502199	0.666726
F451	F	-0.162318	0.059396	-0.110645
F452	F	0.171015	0.392730	0.222689
F453	F	0.504348	0.726063	0.556022
F454	F	0.233506	0.063428	-0.164284
F455	F	0.566840	0.396761	0.169050
F456	F	0.900173	0.730094	0.502383
F457	F	0.514589	-0.291087	0.000002
F458	F	0.847923	0.042247	0.333335
F459	F	1.181256	0.375580	0.666668
F460	F	0.511535	-0.546393	0.000003
F461	F	0.844869	-0.213060	0.333336
F462	F	1.178202	0.120274	0.666669
F463	F	-0.039720	0.060640	-0.110655
F464	F	0.293613	0.393973	0.222679
F465	F	0.626946	0.727306	0.556012
F466	F	0.829823	-0.583252	0.000039
F467	F	1.163156	-0.249918	0.333372
F468	F	1.496490	0.083415	0.666705
F469	F	0.512783	-0.442339	0.000008
F470	F	0.846116	-0.109006	0.333341
F471	F	1.179449	0.224327	0.666675
H472	H	0.782011	-0.030169	0.443863
H473	H	1.115344	0.303165	0.777197
H474	H	1.448677	0.636498	1.110530
F475	F	0.752736	-0.005366	0.151301
F476	F	1.086070	0.327968	0.484634
F477	F	1.419403	0.661301	0.817968
F478	F	0.791773	-0.038439	0.563919
F479	F	1.125107	0.294894	0.897252
F480	F	1.458440	0.628228	1.230586
