data_functionalizedCrystal
_audit_creation_method	'MofGen! by Chris Wilmer'
_symmetry_space_group_name_H-M	'P1'
_symmetry_Int_Tables_number	1
_symmetry_cell_setting	triclinic
loop_
_symmetry_equiv_pos_as_xyz
  x,y,z
_cell_length_a	12.759395
_cell_length_b	21.295417
_cell_length_c	12.759387
_cell_angle_alpha	89.961464
_cell_angle_beta	89.979491
_cell_angle_gamma	90.032044
loop_
_atom_site_label
_atom_site_type_symbol
_atom_site_fract_x
_atom_site_fract_y
_atom_site_fract_z
Zn1	Zn	1.606153	-0.250550	-0.593949
Zn2	Zn	1.605995	-0.355833	-0.418245
Zn3	Zn	1.430451	-0.250585	-0.418285
Zn4	Zn	1.430395	-0.355788	-0.593884
O5	O	1.518249	-0.303189	-0.506091
O6	O	1.753153	-0.264521	-0.570651
O7	O	1.582667	-0.341905	-0.271229
O8	O	1.453848	-0.162491	-0.441631
O9	O	1.753037	-0.341871	-0.441563
O10	O	1.582936	-0.162465	-0.570690
O11	O	1.453695	-0.264579	-0.271259
O12	O	1.283423	-0.264536	-0.441569
O13	O	1.453753	-0.341795	-0.740914
O14	O	1.283382	-0.341828	-0.570581
O15	O	1.582881	-0.264477	-0.740961
O16	O	1.582612	-0.443917	-0.441501
O17	O	1.453600	-0.443884	-0.570542
C18	C	1.245281	-0.303181	-0.506073
C19	C	1.128505	-0.303193	-0.506090
C20	C	1.128500	-0.383808	-0.640213
C21	C	1.073637	-0.424121	-0.707277
C22	C	0.963916	-0.424129	-0.707290
C23	C	0.909055	-0.383818	-0.640233
C24	C	0.963918	-0.343506	-0.573169
C25	C	1.073642	-0.343504	-0.573161
C26	C	0.963922	-0.262888	-0.439053
C27	C	1.073644	-0.262883	-0.439034
C28	C	0.909061	-0.222578	-0.371997
C29	C	0.963924	-0.182267	-0.304926
C30	C	1.073652	-0.182262	-0.304915
C31	C	1.128507	-0.222570	-0.371969
C32	C	1.518111	-0.466741	-0.506033
C33	C	1.518148	-0.536709	-0.506043
C34	C	1.585385	-0.569572	-0.438920
C35	C	1.585434	-0.635314	-0.438944
C36	C	1.518228	-0.668191	-0.506079
C37	C	1.450987	-0.635320	-0.573215
C38	C	1.450947	-0.569579	-0.573197
N39	N	1.426321	-0.771458	-0.514083
N40	N	1.426362	-0.833909	-0.514094
C41	C	1.518346	-0.866266	-0.506139
N42	N	1.610289	-0.833812	-0.498153
N43	N	1.610247	-0.771355	-0.498137
C44	C	1.518264	-0.739477	-0.506107
C45	C	1.585641	-0.970414	-0.439039
C46	C	1.585692	-1.036158	-0.439070
C47	C	1.451236	-1.036163	-0.573336
C48	C	1.451194	-0.970421	-0.573310
C49	C	1.518395	-0.937550	-0.506156
C50	C	1.792282	-0.303197	-0.506110
C51	C	1.909059	-0.303201	-0.506118
C52	C	1.518328	-0.303127	-0.780125
C53	C	1.518362	-0.303101	-0.896901
C54	C	1.518416	-0.138999	-0.506172
C55	C	1.518487	-0.069031	-0.506207
C56	C	1.652833	-0.222595	-0.896970
C57	C	1.720083	-0.182333	-0.951865
C58	C	1.720108	-0.182310	-1.061587
C59	C	1.652874	-0.222552	-1.116416
C60	C	1.585624	-0.262815	-1.061521
C61	C	1.585608	-0.262835	-0.951797
C62	C	1.451150	-0.343316	-1.061452
C63	C	1.451128	-0.343344	-0.951730
C64	C	1.383916	-0.383559	-1.116281
C65	C	1.316670	-0.423825	-1.061386
C66	C	1.316648	-0.423847	-0.951657
C67	C	1.383878	-0.383606	-0.896835
C68	C	1.518230	-0.303205	-0.233123
C69	C	1.518400	-0.303054	-0.116347
H70	H	0.819720	-0.222584	-0.372017
C71	C	1.410651	-0.443416	-1.273421
C72	C	1.383941	-0.383536	-1.236889
H73	H	1.410660	-0.443404	-1.347880
H74	H	1.478425	-0.454307	-1.248605
H75	H	1.360970	-0.473147	-1.248566
H76	H	1.433627	-0.353806	-1.261738
H77	H	1.316157	-0.372639	-1.261715
C78	C	1.265372	-0.530405	-1.095106
C79	C	1.242771	-0.468056	-1.121651
H80	H	1.219744	-0.557711	-1.132310
H81	H	1.335946	-0.539613	-1.113103
H82	H	1.255735	-0.536176	-1.021902
H83	H	1.252416	-0.462284	-1.194854
H84	H	1.172180	-0.458845	-1.103660
H85	H	1.396439	-0.943662	-0.627964
H86	H	1.118317	-0.456940	-0.761875
H87	H	1.640107	-0.542810	-0.384242
C88	C	1.853012	-0.102754	-0.962953
C89	C	1.793984	-0.138099	-0.891597
H90	H	1.898629	-0.075443	-0.925746
H91	H	1.893174	-0.130176	-1.005736
H92	H	1.807263	-0.078664	-1.005757
H93	H	1.839734	-0.162192	-0.848798
H94	H	1.753820	-0.110673	-0.848796
H95	H	1.217841	-0.383811	-0.640201
H96	H	1.640364	-0.943650	-0.384361
H97	H	1.383871	-0.383622	-0.807494
H98	H	0.919246	-0.456951	-0.761905
H99	H	1.261873	-0.456627	-0.906968
C100	C	1.718571	-1.029545	-0.306334
C101	C	1.659604	-1.072284	-0.365280
H102	H	1.764196	-1.051850	-0.260775
H103	H	1.758722	-1.003859	-0.352131
H104	H	1.672784	-1.003950	-0.266105
H105	H	1.705391	-1.097876	-0.405515
H106	H	1.619451	-1.097981	-0.319478
H107	H	1.396520	-1.062931	-0.628003
H108	H	1.396194	-0.542822	-0.627858
H109	H	1.652829	-0.222616	-0.807629
C110	C	1.779843	-0.146533	-1.229819
C111	C	1.794026	-0.138052	-1.121936
H112	H	1.825472	-0.119207	-1.267074
H113	H	1.795176	-0.188822	-1.247769
H114	H	1.709262	-0.137312	-1.247781
H115	H	1.864605	-0.147279	-1.103973
H116	H	1.778700	-0.095754	-1.103979
H117	H	0.819713	-0.383822	-0.640259
H118	H	0.919247	-0.149447	-0.250339
H119	H	1.118315	-0.149430	-0.250310
H120	H	1.217848	-0.222571	-0.371964
H121	H	1.396269	-0.662093	-0.627879
C122	C	1.718312	-0.628712	-0.306203
C123	C	1.659338	-0.671447	-0.365150
H124	H	1.763930	-0.651020	-0.260641
H125	H	1.758470	-0.603030	-0.351999
H126	H	1.672529	-0.603113	-0.265977
H127	H	1.705121	-0.697044	-0.405381
H128	H	1.619178	-0.697141	-0.319347
H129	H	1.652892	-0.222525	-1.205757
