data_functionalizedCrystal
_audit_creation_method	'MofGen! by Chris Wilmer'
_symmetry_space_group_name_H-M	'P1'
_symmetry_Int_Tables_number	1
_symmetry_cell_setting	triclinic
loop_
_symmetry_equiv_pos_as_xyz
  x,y,z
_cell_length_a	15.944551
_cell_length_b	12.996460
_cell_length_c	14.519709
_cell_angle_alpha	89.992910
_cell_angle_beta	83.589442
_cell_angle_gamma	89.998907
loop_
_atom_site_label
_atom_site_type_symbol
_atom_site_fract_x
_atom_site_fract_y
_atom_site_fract_z
O1	O	1.114698	-0.085462	0.118943
O2	O	1.364698	0.164538	0.368943
O3	O	1.614698	0.414538	0.618943
O4	O	1.864698	0.664538	0.868943
O5	O	0.870170	-0.085488	0.133608
O6	O	1.120170	0.164512	0.383608
O7	O	1.370170	0.414512	0.633608
O8	O	1.620170	0.664512	0.883608
O9	O	0.998917	-0.085465	-0.007974
O10	O	1.248917	0.164535	0.242026
O11	O	1.498917	0.414535	0.492026
O12	O	1.748917	0.664535	0.742026
O13	O	0.985950	-0.085485	0.260525
O14	O	1.235950	0.164515	0.510525
O15	O	1.485950	0.414515	0.760525
O16	O	1.735950	0.664515	1.010525
O17	O	0.998904	0.085669	-0.007982
O18	O	1.248904	0.335669	0.242018
O19	O	1.498904	0.585669	0.492018
O20	O	1.748904	0.835669	0.742018
O21	O	0.870156	0.085646	0.133600
O22	O	1.120156	0.335646	0.383600
O23	O	1.370156	0.585646	0.633600
O24	O	1.620156	0.835646	0.883600
O25	O	1.114684	0.085672	0.118935
O26	O	1.364684	0.335672	0.368935
O27	O	1.614684	0.585672	0.618935
O28	O	1.864684	0.835672	0.868935
Cu29	Cu	0.992419	0.101285	0.126267
Cu30	Cu	1.242419	0.351285	0.376267
Cu31	Cu	1.492419	0.601285	0.626267
Cu32	Cu	1.742419	0.851285	0.876267
Cu33	Cu	0.992435	-0.101101	0.126276
Cu34	Cu	1.242435	0.148899	0.376276
Cu35	Cu	1.492435	0.398899	0.626276
Cu36	Cu	1.742435	0.648899	0.876276
O37	O	0.985937	0.085649	0.260517
O38	O	1.235937	0.335649	0.510517
O39	O	1.485937	0.585649	0.760517
O40	O	1.735937	0.835649	1.010517
C41	C	0.838868	0.000076	0.132995
C42	C	1.088868	0.250076	0.382995
C43	C	1.338868	0.500076	0.632995
C44	C	1.588868	0.750076	0.882995
C45	C	0.745619	0.000066	0.131170
C46	C	0.995619	0.250066	0.381170
C47	C	1.245619	0.500066	0.631170
C48	C	1.495619	0.750066	0.881170
N49	N	0.992414	0.243632	0.126260
N50	N	1.242414	0.493632	0.376260
N51	N	1.492414	0.743632	0.626260
N52	N	1.742414	0.993632	0.876260
N53	N	0.992447	-0.243448	0.126276
N54	N	1.242447	0.006552	0.376276
N55	N	1.492447	0.256552	0.626276
N56	N	1.742447	0.506552	0.876276
C57	C	0.530629	0.000093	0.039048
C58	C	0.780629	0.250093	0.289048
C59	C	1.030629	0.500093	0.539048
C60	C	1.280629	0.750093	0.789048
C61	C	0.469678	-0.084288	0.081830
C62	C	0.719678	0.165712	0.331830
C63	C	0.969678	0.415712	0.581830
C64	C	1.219678	0.665712	0.831830
C65	C	0.574889	0.000079	0.127868
C66	C	0.824889	0.250079	0.377868
C67	C	1.074889	0.500079	0.627868
C68	C	1.324889	0.750079	0.877868
C69	C	0.469687	0.084437	0.081844
C70	C	0.719687	0.334437	0.331844
C71	C	0.969687	0.584437	0.581844
C72	C	1.219687	0.834437	0.831844
C73	C	0.409971	0.000095	0.124672
C74	C	0.659971	0.250095	0.374672
C75	C	0.909971	0.500095	0.624672
C76	C	1.159971	0.750095	0.874672
C77	C	0.515165	-0.084372	0.170674
C78	C	0.765165	0.165628	0.420674
C79	C	1.015165	0.415628	0.670674
C80	C	1.265165	0.665628	0.920674
C81	C	0.515181	0.084428	0.170675
C82	C	0.765181	0.334428	0.420675
C83	C	1.015181	0.584428	0.670675
C84	C	1.265181	0.834428	0.920675
C85	C	0.454247	0.000027	0.213522
C86	C	0.704247	0.250027	0.463522
C87	C	0.954247	0.500027	0.713522
C88	C	1.204247	0.750027	0.963522
C89	C	0.669894	0.000069	0.129706
C90	C	0.919894	0.250069	0.379706
C91	C	1.169894	0.500069	0.629706
C92	C	1.419894	0.750069	0.879706
C93	C	0.314967	0.000098	0.122840
C94	C	0.564967	0.250098	0.372840
C95	C	0.814967	0.500098	0.622840
C96	C	1.064967	0.750098	0.872840
C97	C	1.145986	0.000106	0.119548
C98	C	1.395986	0.250106	0.369548
C99	C	1.645986	0.500106	0.619548
C100	C	1.895986	0.750106	0.869548
C101	C	1.239235	0.000109	0.121373
C102	C	1.489235	0.250109	0.371373
C103	C	1.739235	0.500109	0.621373
C104	C	1.989235	0.750109	0.871373
C105	C	0.998306	0.000102	-0.042337
C106	C	1.248306	0.250102	0.207663
C107	C	1.498306	0.500102	0.457663
C108	C	1.748306	0.750102	0.707663
C109	C	0.996495	0.000103	-0.144715
C110	C	1.246495	0.250103	0.105285
C111	C	1.496495	0.500103	0.355285
C112	C	1.746495	0.750103	0.605285
C113	C	0.992434	0.663446	0.126277
C114	C	1.242434	0.913446	0.376277
C115	C	1.492434	1.163446	0.626277
C116	C	1.742434	1.413446	0.876277
C117	C	0.992426	0.546641	0.126275
C118	C	1.242426	0.796641	0.376275
C119	C	1.492426	1.046641	0.626275
C120	C	1.742426	1.296641	0.876275
C121	C	0.992424	0.453543	0.126269
C122	C	1.242424	0.703543	0.376269
C123	C	1.492424	0.953543	0.626269
C124	C	1.742424	1.203543	0.876269
C125	C	0.992415	0.336730	0.126266
C126	C	1.242415	0.586730	0.376266
C127	C	1.492415	0.836730	0.626266
C128	C	1.742415	1.086730	0.876266
C129	C	0.989829	0.000075	-0.519599
C130	C	1.239829	0.250075	-0.269599
C131	C	1.489829	0.500075	-0.019599
C132	C	1.739829	0.750075	0.230401
C133	C	0.991680	0.000083	-0.415295
C134	C	1.241680	0.250083	-0.165295
C135	C	1.491680	0.500083	0.084705
C136	C	1.741680	0.750083	0.334705
C137	C	0.993162	0.000090	-0.332161
C138	C	1.243162	0.250090	-0.082161
C139	C	1.493162	0.500090	0.167839
C140	C	1.743162	0.750090	0.417839
C141	C	0.995013	0.000096	-0.227849
C142	C	1.245013	0.250096	0.022151
C143	C	1.495013	0.500096	0.272151
C144	C	1.745013	0.750096	0.522151
C145	C	0.986548	0.000080	0.294880
C146	C	1.236548	0.250080	0.544880
C147	C	1.486548	0.500080	0.794880
C148	C	1.736548	0.750080	1.044880
C149	C	0.988359	0.000073	0.397258
C150	C	1.238359	0.250073	0.647258
C151	C	1.488359	0.500073	0.897258
C152	C	1.738359	0.750073	1.147258
H153	H	0.449518	-0.155621	0.044266
H154	H	0.699518	0.094379	0.294266
H155	H	0.949518	0.344379	0.544266
H156	H	1.199518	0.594379	0.794266
H157	H	0.535213	-0.155788	0.208217
H158	H	0.785213	0.094212	0.458217
H159	H	1.035213	0.344212	0.708217
H160	H	1.285213	0.594212	0.958217
H161	H	0.449540	0.155772	0.044257
H162	H	0.699540	0.405772	0.294257
H163	H	0.949540	0.655772	0.544257
H164	H	1.199540	0.905772	0.794257
H165	H	0.563855	-0.000006	-0.034665
H166	H	0.813855	0.249994	0.215335
H167	H	1.063855	0.499994	0.465335
H168	H	1.313855	0.749994	0.715335
H169	H	0.421196	-0.000026	0.287311
H170	H	0.671196	0.249974	0.537311
H171	H	0.921196	0.499974	0.787311
H172	H	1.171196	0.749974	1.037311
H173	H	0.535361	0.155765	0.208208
H174	H	0.785361	0.405765	0.458208
H175	H	1.035361	0.655765	0.708208
H176	H	1.285361	0.905765	0.958208
