data_functionalizedCrystal
_audit_creation_method	'MofGen! by Chris Wilmer'
_symmetry_space_group_name_H-M	'P1'
_symmetry_Int_Tables_number	1
_symmetry_cell_setting	triclinic
loop_
_symmetry_equiv_pos_as_xyz
  x,y,z
_cell_length_a	27.731994
_cell_length_b	27.732048
_cell_length_c	22.610064
_cell_angle_alpha	89.999096
_cell_angle_beta	89.997930
_cell_angle_gamma	82.631595
loop_
_atom_site_label
_atom_site_type_symbol
_atom_site_fract_x
_atom_site_fract_y
_atom_site_fract_z
O1	O	0.640948	0.057386	-0.049107
O2	O	0.500151	0.066159	-0.049127
O3	O	0.574922	-0.008625	-0.049105
O4	O	0.566176	0.132170	-0.049129
O5	O	0.574909	-0.008615	0.049264
O6	O	0.500137	0.066169	0.049242
O7	O	0.640935	0.057397	0.049263
Zn8	Zn	0.570534	0.061785	0.064871
Zn9	Zn	0.570551	0.061770	-0.064735
O10	O	0.566163	0.132181	0.049240
C11	C	0.482137	0.065984	0.000055
C12	C	0.428480	0.065442	0.000048
C13	C	0.574732	-0.026627	0.000081
C14	C	0.574179	-0.080282	0.000086
C15	C	0.095755	0.062032	0.053692
C16	C	-0.105904	0.059970	0.053699
O17	O	-0.131982	0.059688	0.099302
N18	N	-0.131111	0.059708	0.000078
C19	C	-0.105901	0.059958	-0.053548
O20	O	-0.131968	0.059683	-0.099156
C21	C	0.095757	0.062017	-0.053555
C22	C	0.120961	0.062283	0.000070
C23	C	0.120959	0.062298	0.107312
C24	C	0.171370	0.062816	0.107310
C25	C	0.196577	0.063068	0.053688
C26	C	0.171372	0.062802	0.000067
C27	C	0.120967	0.062263	-0.107181
C28	C	0.171385	0.062777	-0.107178
C29	C	0.196589	0.063044	-0.053553
C30	C	0.246990	0.063571	-0.053557
N31	N	0.272198	0.063833	0.000064
C32	C	0.246991	0.063582	0.053686
C33	C	-0.211774	0.058879	-0.053541
C34	C	-0.262188	0.058365	-0.053540
C35	C	-0.262188	0.058376	0.053708
C36	C	-0.211773	0.058893	0.053706
C37	C	-0.186566	0.059141	0.000080
C38	C	0.352858	0.064670	0.053677
C39	C	0.403274	0.065190	0.053670
C40	C	0.403269	0.065176	-0.053577
C41	C	0.352857	0.064659	-0.053571
C42	C	0.327654	0.064404	0.000061
O43	O	0.273101	0.063848	-0.099136
O44	O	0.273068	0.063846	0.099287
C45	C	0.045343	0.061514	0.053694
C46	C	0.020139	0.061247	0.000074
C47	C	0.045346	0.061499	-0.053548
C48	C	-0.030275	0.060734	0.000076
C49	C	-0.055482	0.060482	0.053698
C50	C	-0.030274	0.060744	0.107319
C51	C	0.020137	0.061262	0.107317
C52	C	0.020138	0.061237	-0.107169
C53	C	-0.030273	0.060720	-0.107162
C54	C	-0.055480	0.060468	-0.053540
C55	C	0.614884	-0.419105	0.000062
C56	C	0.612833	-0.620764	0.000053
O57	O	0.650055	-0.652027	0.000033
N58	N	0.568496	-0.639879	0.000047
C59	C	0.524670	-0.608576	0.000040
O60	O	0.486912	-0.629462	0.000028
C61	C	0.526721	-0.406918	0.000044
C62	C	0.571061	-0.387805	0.000056
C63	C	0.659220	-0.399992	0.000073
C64	C	0.659732	-0.349580	0.000078
C65	C	0.615908	-0.318281	0.000072
C66	C	0.571573	-0.337394	0.000061
C67	C	0.482895	-0.375615	0.000032
C68	C	0.483412	-0.325198	0.000032
C69	C	0.527751	-0.306086	0.000043
C70	C	0.528262	-0.255683	0.000061
N71	N	0.572598	-0.236567	0.000067
C72	C	0.616421	-0.267867	0.000072
C73	C	0.523596	-0.714450	0.000038
C74	C	0.523083	-0.764864	0.000038
C75	C	0.611246	-0.777049	0.000051
C76	C	0.611759	-0.726633	0.000055
C77	C	0.567932	-0.695335	0.000044
C78	C	0.617494	-0.161998	0.000084
C79	C	0.618002	-0.111581	0.000092
C80	C	0.529839	-0.099401	0.000076
C81	C	0.529331	-0.149813	0.000072
C82	C	0.573162	-0.181111	0.000074
O83	O	0.491060	-0.224391	0.000074
O84	O	0.654174	-0.246971	0.000071
C85	C	0.614372	-0.469517	0.000056
C86	C	0.570036	-0.488629	0.000045
C87	C	0.526213	-0.457330	0.000039
C88	C	0.569523	-0.539043	0.000045
C89	C	0.613346	-0.570343	0.000051
C90	C	0.657683	-0.551228	0.000057
C91	C	0.658195	-0.500816	0.000062
C92	C	0.481876	-0.476445	0.000033
C93	C	0.481367	-0.526857	0.000029
C94	C	0.525191	-0.558157	0.000034
C95	C	0.658949	0.057571	0.000079
C96	C	0.712605	0.058114	0.000083
C97	C	0.566353	0.150182	0.000053
C98	C	0.566906	0.203837	0.000044
N99	N	0.570525	0.061794	0.153323
N100	N	0.570563	0.061757	-0.153187
C101	C	0.603661	0.028661	0.561974
C102	C	0.603664	0.028658	0.623894
O103	O	0.631817	0.000494	0.655921
N104	N	0.570551	0.061760	0.654860
C105	C	0.537430	0.094866	0.623903
O106	O	0.509265	0.123021	0.655928
C107	C	0.537426	0.094866	0.561984
C108	C	0.570544	0.061765	0.531022
C109	C	0.636777	-0.004438	0.531011
C110	C	0.636775	-0.004434	0.469096
C111	C	0.603657	0.028670	0.438143
C112	C	0.570542	0.061769	0.469106
C113	C	0.504303	0.127969	0.531028
C114	C	0.504301	0.127967	0.469105
C115	C	0.537419	0.094865	0.438143
C116	C	0.537423	0.094877	0.376237
N117	N	0.570536	0.061774	0.345271
C118	C	0.603653	0.028670	0.376224
C119	C	0.537441	0.094861	0.753937
C120	C	0.537447	0.094863	0.815854
C121	C	0.603681	0.028654	0.815841
C122	C	0.603677	0.028655	0.753922
C123	C	0.570554	0.061758	0.722971
C124	C	0.603647	0.028682	0.246197
C125	C	0.603643	0.028691	0.184276
C126	C	0.537408	0.094897	0.184294
C127	C	0.537413	0.094891	0.246210
C128	C	0.570534	0.061779	0.277160
O129	O	0.509283	0.123025	0.344171
O130	O	0.631809	0.000515	0.344192
H131	H	0.423792	0.065409	0.097339
C132	C	0.093253	0.061968	-0.166171
C133	C	0.106003	0.020039	-0.210394
C134	C	0.078292	0.019743	-0.269389
C135	C	0.037830	0.061376	-0.284161
C136	C	0.025077	0.103308	-0.239937
C137	C	0.052789	0.103604	-0.180942
H138	H	0.135958	-0.010783	-0.199459
H139	H	0.087732	-0.011299	-0.302126
H140	H	0.017316	0.061156	-0.327833
H141	H	-0.004877	0.134130	-0.250872
H142	H	0.043349	0.134645	-0.148205
C143	C	0.199111	0.063051	-0.166169
C144	C	0.197987	0.020984	-0.210397
C145	C	0.225712	0.021260	-0.269387
C146	C	0.254562	0.063604	-0.284148
C147	C	0.255688	0.105675	-0.239918
C148	C	0.227962	0.105398	-0.180928
H149	H	0.176629	-0.010365	-0.199471
H150	H	0.224879	-0.009884	-0.302129
H151	H	0.275086	0.063808	-0.327816
H152	H	0.277045	0.137023	-0.250844
H153	H	0.228796	0.136542	-0.148187
H154	H	0.332334	0.064450	-0.097236
C155	C	0.474309	-0.785885	0.000034
C156	C	0.461837	-0.818867	-0.051048
C157	C	0.413062	-0.839885	-0.051056
C158	C	0.376759	-0.827922	0.000019
C159	C	0.389231	-0.794939	0.051104
C160	C	0.438006	-0.773920	0.051112
H161	H	0.488711	-0.827724	-0.088860
H162	H	0.403829	-0.864302	-0.088873
H163	H	0.340653	-0.843482	0.000013
H164	H	0.362357	-0.786081	0.088916
H165	H	0.447238	-0.749503	0.088929
H166	H	0.630616	0.001719	0.271389
H167	H	0.494160	-0.073908	0.000074
C168	C	0.325138	0.064394	0.112672
C169	C	0.326266	0.106465	0.156895
C170	C	0.298546	0.106193	0.215889
C171	C	0.269697	0.063850	0.230659
C172	C	0.268567	0.021776	0.186434
C173	C	0.296288	0.022048	0.127441
H174	H	0.347623	0.137812	0.145962
H175	H	0.299382	0.137339	0.248627
H176	H	0.249176	0.063649	0.274329
H177	H	0.247210	-0.009571	0.197367
H178	H	0.295452	-0.009098	0.094703
C179	C	0.480560	-0.170843	0.000062
C180	C	0.444254	-0.158893	0.051135
C181	C	0.395483	-0.179921	0.051117
C182	C	0.383019	-0.212898	0.000026
C183	C	0.419326	-0.224850	-0.051051
C184	C	0.468097	-0.203822	-0.051033
H185	H	0.453480	-0.134480	0.088959
H186	H	0.368607	-0.171074	0.088928
H187	H	0.346917	-0.228464	0.000013
H188	H	0.410101	-0.249263	-0.088875
H189	H	0.494974	-0.212669	-0.088844
H190	H	0.477334	0.154923	0.556230
H191	H	0.040654	0.061479	0.150983
C192	C	0.475382	-0.680026	0.000035
C193	C	0.438948	-0.681936	-0.051046
C194	C	0.390734	-0.647516	-0.051046
C195	C	0.378953	-0.611184	0.000036
C196	C	0.415388	-0.609272	0.051120
C197	C	0.463602	-0.643693	0.051120
H198	H	0.447668	-0.708833	-0.088863
H199	H	0.363762	-0.648931	-0.088862
H200	H	0.343262	-0.585704	0.000036
H201	H	0.406668	-0.582376	0.088937
H202	H	0.490573	-0.642277	0.088936
C203	C	-0.058008	0.060466	0.166305
C204	C	-0.098478	0.102101	0.181042
C205	C	-0.126214	0.101819	0.240024
C206	C	-0.113480	0.059903	0.284269
C207	C	-0.073008	0.018265	0.269532
C208	C	-0.045272	0.018546	0.210551
H209	H	-0.107907	0.133133	0.148288
H210	H	-0.156175	0.132643	0.250932
H211	H	-0.134012	0.059695	0.327930
H212	H	-0.063579	-0.012767	0.302286
H213	H	-0.015311	-0.012277	0.199642
C214	C	0.706970	-0.479797	0.000069
C215	C	0.743260	-0.491765	0.051152
C216	C	0.792038	-0.470751	0.051158
C217	C	0.804525	-0.437770	0.000080
C218	C	0.768234	-0.425801	-0.051007
C219	C	0.719457	-0.446815	-0.051013
H220	H	0.734017	-0.516181	0.088967
H221	H	0.818903	-0.479611	0.088976
H222	H	0.840633	-0.422215	0.000083
H223	H	0.777478	-0.401386	-0.088822
H224	H	0.692592	-0.437955	-0.088831
C225	C	0.434118	-0.396626	0.000015
C226	C	0.397812	-0.384657	0.051084
C227	C	0.349031	-0.405665	0.051066
C228	C	0.336556	-0.438641	-0.000021
C229	C	0.372864	-0.450611	-0.051093
C230	C	0.421645	-0.429604	-0.051076
H231	H	0.407045	-0.360245	0.088905
H232	H	0.322154	-0.396804	0.088874
H233	H	0.300446	-0.454192	-0.000034
H234	H	0.363630	-0.475024	-0.088914
H235	H	0.448522	-0.438465	-0.088883
H236	H	0.510450	0.121850	0.271421
C237	C	0.666779	-0.090559	0.000102
C238	C	0.703069	-0.102524	0.051185
C239	C	0.751843	-0.081505	0.051193
C240	C	0.764328	-0.048519	0.000118
C241	C	0.728036	-0.036552	-0.050969
C242	C	0.679262	-0.057572	-0.050977
H243	H	0.693828	-0.126944	0.088997
H244	H	0.778708	-0.090364	0.089012
H245	H	0.800433	-0.032959	0.000124
H246	H	0.737277	-0.012133	-0.088781
H247	H	0.652397	-0.048713	-0.088796
H248	H	0.693365	-0.576720	0.000064
C249	C	0.665708	-0.196421	0.000091
C250	C	0.677474	-0.232756	0.051172
C251	C	0.725688	-0.267178	0.051183
C252	C	0.762134	-0.265266	0.000113
C253	C	0.750369	-0.228929	-0.050972
C254	C	0.702155	-0.194507	-0.050983
H255	H	0.650494	-0.234173	0.088980
H256	H	0.734397	-0.294077	0.088999
H257	H	0.797825	-0.290748	0.000121
H258	H	0.777350	-0.227512	-0.088780
H259	H	0.693446	-0.167608	-0.088800
H260	H	0.663745	-0.031398	0.556208
H261	H	0.630644	0.001700	0.728716
H262	H	0.447722	-0.299716	0.000022
H263	H	0.630646	0.001698	0.841054
H264	H	0.510484	0.121822	0.841060
H265	H	0.445258	-0.542413	0.000024
C266	C	0.673201	-0.040851	0.435040
C267	C	0.672799	-0.095891	0.443559
C268	C	0.709225	-0.132311	0.409507
C269	C	0.746052	-0.113692	0.366936
C270	C	0.746456	-0.058649	0.358414
C271	C	0.710030	-0.022229	0.392466
H272	H	0.645535	-0.109677	0.475075
H273	H	0.708926	-0.173058	0.415816
H274	H	0.773017	-0.140652	0.341728
H275	H	0.773720	-0.044863	0.326898
H276	H	0.710329	0.018517	0.386158
H277	H	0.191888	0.063031	0.150977
H278	H	0.446189	-0.450966	0.000027
H279	H	0.100441	0.062092	0.150980
H280	H	0.695837	-0.334024	0.000086
H281	H	-0.191255	0.059111	0.097372
H282	H	0.630614	0.001735	0.159068
C283	C	0.431004	0.065454	-0.112559
C284	C	0.471472	0.023815	-0.127290
C285	C	0.499209	0.024089	-0.186271
C286	C	0.486479	0.066003	-0.230521
C287	C	0.446009	0.107645	-0.215791
C288	C	0.418272	0.107370	-0.156810
H289	H	0.480897	-0.007214	-0.094533
H290	H	0.529168	-0.006737	-0.197175
H291	H	0.507012	0.066206	-0.274183
H292	H	0.436584	0.138674	-0.248549
H293	H	0.388313	0.138197	-0.145906
H294	H	0.510445	0.121852	0.159083
H295	H	0.510470	0.121821	0.728739
H296	H	0.477327	0.154923	0.443907
C297	C	-0.057995	0.060426	-0.166154
C298	C	-0.098462	0.102056	-0.180920
C299	C	-0.126182	0.101757	-0.239909
C300	C	-0.113434	0.059828	-0.284133
C301	C	-0.072965	0.018195	-0.269368
C302	C	-0.045246	0.018494	-0.210379
H303	H	-0.107901	0.133097	-0.148182
H304	H	-0.156140	0.132576	-0.250838
H305	H	-0.133954	0.059607	-0.327800
H306	H	-0.063527	-0.012846	-0.302106
H307	H	-0.015288	-0.012326	-0.199450
C308	C	0.660532	-0.705612	0.000063
C309	C	0.696820	-0.717574	0.051149
C310	C	0.745596	-0.696556	0.051156
C311	C	0.758083	-0.663577	0.000076
C312	C	0.721793	-0.651613	-0.051014
C313	C	0.673018	-0.672631	-0.051020
H314	H	0.687578	-0.741989	0.088965
H315	H	0.772460	-0.705413	0.088976
H316	H	0.794189	-0.648018	0.000081
H317	H	0.731036	-0.627198	-0.088829
H318	H	0.646154	-0.663775	-0.088841
C319	C	0.659453	-0.811483	0.000053
C320	C	0.671218	-0.847822	0.051131
C321	C	0.719423	-0.882259	0.051128
C322	C	0.755862	-0.880356	0.000048
C323	C	0.744097	-0.844016	-0.051033
C324	C	0.695893	-0.809580	-0.051031
H325	H	0.644243	-0.849232	0.088947
H326	H	0.728131	-0.909160	0.088942
H327	H	0.791545	-0.905848	0.000046
H328	H	0.771072	-0.842607	-0.088849
H329	H	0.687184	-0.782678	-0.088845
H330	H	-0.282707	0.058156	-0.097206
H331	H	-0.282720	0.058172	0.097370
H332	H	-0.191256	0.059080	-0.097212
H333	H	0.040656	0.061441	-0.150836
H334	H	0.694908	-0.425472	0.000076
