data_functionalizedCrystal
_audit_creation_method	'MofGen! by Chris Wilmer'
_symmetry_space_group_name_H-M	'P1'
_symmetry_Int_Tables_number	1
_symmetry_cell_setting	triclinic
loop_
_symmetry_equiv_pos_as_xyz
  x,y,z
_cell_length_a	10.654550
_cell_length_b	10.654550
_cell_length_c	9.730223
_cell_angle_alpha	90.004253
_cell_angle_beta	90.006811
_cell_angle_gamma	84.484916
loop_
_atom_site_label
_atom_site_type_symbol
_atom_site_fract_x
_atom_site_fract_y
_atom_site_fract_z
O1	O	-1.667839	-0.176398	-0.114403
O2	O	-1.302361	-0.193204	-0.114381
O3	O	-1.493503	-0.002062	-0.114383
O4	O	-1.476697	-0.367541	-0.114400
O5	O	-1.493491	-0.002057	0.114196
O6	O	-1.302348	-0.193199	0.114199
O7	O	-1.667827	-0.176393	0.114177
Zn8	Zn	-1.485086	-0.184795	0.150480
Zn9	Zn	-1.485102	-0.184802	-0.150684
O10	O	-1.476684	-0.367535	0.114180
C11	C	-1.492263	0.044739	-0.000094
C12	C	-1.488571	0.184182	-0.000096
C13	C	-1.255556	-0.191968	-0.000088
C14	C	-1.116113	-0.188276	-0.000079
C15	C	-1.714631	-0.177630	-0.000119
C16	C	-1.854074	-0.181321	-0.000136
C17	C	-1.036628	-0.300817	-0.000104
C18	C	-0.905607	-0.297341	-0.000128
C19	C	-0.933570	-0.068771	-0.000107
C20	C	-1.064588	-0.072249	-0.000074
C21	C	-1.020482	-0.432780	-0.000122
C22	C	-0.889461	-0.429304	-0.000146
C23	C	-1.477925	-0.414336	-0.000112
C24	C	-1.481617	-0.553779	-0.000119
N25	N	-1.485084	-0.184790	0.356017
C26	C	-1.601112	0.263667	-0.000103
C27	C	-1.597636	0.394688	-0.000120
C28	C	-1.369066	0.366725	-0.000116
C29	C	-1.372544	0.235707	-0.000109
N30	N	-1.485114	-0.184798	-0.356220
C31	C	-1.569750	-0.100188	0.427941
C32	C	-1.569763	-0.100188	0.571824
C33	C	-1.400438	-0.269404	0.571845
C34	C	-1.400420	-0.269396	0.427965
H35	H	-1.129302	0.019393	-0.000033
H36	H	-1.056143	-0.474802	-0.098811
Br37	Br	-1.211609	0.436660	-0.000138
H38	H	-1.331468	-0.338289	0.369400
Br39	Br	-1.684666	0.014639	0.669434
H40	H	-1.695588	0.221721	-0.000095
H41	H	-0.843785	-0.469182	0.098537
H42	H	-1.280893	0.170986	-0.000108
H43	H	-1.049808	-0.484389	0.095541
H44	H	-0.891602	0.025694	-0.000124
H45	H	-1.689279	0.459401	-0.000129
Br46	Br	-1.285544	-0.384225	0.669494
H47	H	-0.847734	-0.479028	-0.095815
Br48	Br	-1.684648	0.014637	0.330302
