data_functionalizedCrystal
_audit_creation_method	'MofGen! by Chris Wilmer'
_symmetry_space_group_name_H-M	'P1'
_symmetry_Int_Tables_number	1
_symmetry_cell_setting	triclinic
loop_
_symmetry_equiv_pos_as_xyz
  x,y,z
_cell_length_a	19.077105
_cell_length_b	17.640280
_cell_length_c	19.077174
_cell_angle_alpha	80.587117
_cell_angle_beta	85.483752
_cell_angle_gamma	76.093206
loop_
_atom_site_label
_atom_site_type_symbol
_atom_site_fract_x
_atom_site_fract_y
_atom_site_fract_z
Zn1	Zn	1.160252	-0.384045	-0.375464
Zn2	Zn	1.660252	0.115955	0.124536
Zn3	Zn	1.177382	-0.510689	-0.235687
Zn4	Zn	1.677382	-0.010689	0.264313
Zn5	Zn	1.035723	-0.372996	-0.254771
Zn6	Zn	1.535723	0.127004	0.245229
Zn7	Zn	1.064267	-0.510637	-0.348814
Zn8	Zn	1.564267	-0.010637	0.151186
O9	O	1.109406	-0.444592	-0.303684
O10	O	1.609406	0.055408	0.196316
O11	O	1.261980	-0.405490	-0.360089
O12	O	1.761980	0.094510	0.139911
O13	O	1.153814	-0.487822	-0.140364
O14	O	1.653814	0.012178	0.359636
O15	O	1.033127	-0.263858	-0.289922
O16	O	1.533127	0.236142	0.210078
O17	O	1.274565	-0.498535	-0.257395
O18	O	1.774565	0.001465	0.242605
O19	O	1.124619	-0.271975	-0.378594
O20	O	1.624619	0.228025	0.121406
O21	O	1.049737	-0.386659	-0.154385
O22	O	1.549737	0.113341	0.345615
O23	O	0.940054	-0.386609	-0.264080
O24	O	1.440054	0.113391	0.235920
O25	O	1.081777	-0.498447	-0.450203
O26	O	1.581777	0.001553	0.049797
O27	O	0.961025	-0.487733	-0.333172
O28	O	1.461025	0.012267	0.166828
O29	O	1.152297	-0.405440	-0.469783
O30	O	1.652297	0.094560	0.030217
O31	O	1.181492	-0.621287	-0.231553
O32	O	1.681492	-0.121287	0.268447
O33	O	1.098386	-0.621249	-0.314667
O34	O	1.598386	-0.121249	0.185333
C35	C	0.924752	-0.435967	-0.297805
C36	C	1.424752	0.064033	0.202195
C37	C	0.845761	-0.432297	-0.295304
C38	C	1.345761	0.067703	0.204696
C39	C	0.819597	-0.483296	-0.330018
C40	C	1.319597	0.016704	0.169982
C41	C	0.745374	-0.479838	-0.327672
C42	C	1.245374	0.020162	0.172328
C43	C	0.697317	-0.425383	-0.290609
C44	C	1.197317	0.074617	0.209391
C45	C	0.723485	-0.374379	-0.255894
C46	C	1.223485	0.125621	0.244106
C47	C	0.797706	-0.377834	-0.258244
C48	C	1.297706	0.122166	0.241756
C49	C	0.474165	-0.409392	-0.279736
C50	C	0.974165	0.090608	0.220264
C51	C	0.399940	-0.405942	-0.277387
C52	C	0.899940	0.094058	0.222613
C53	C	0.421835	-0.511400	-0.349167
C54	C	0.921835	-0.011400	0.150833
C55	C	0.496057	-0.514854	-0.351510
C56	C	0.996057	-0.014854	0.148490
C57	C	0.522218	-0.463847	-0.316798
C58	C	1.022218	0.036153	0.183202
N59	N	0.621450	-0.421849	-0.288208
N60	N	1.121450	0.078151	0.211792
N61	N	0.598083	-0.467378	-0.319203
N62	N	1.098083	0.032622	0.180797
C63	C	1.144915	-0.649948	-0.268163
C64	C	1.644915	-0.149948	0.231837
C65	C	1.160172	-0.737804	-0.252992
C66	C	1.660172	-0.237804	0.247008
C67	C	0.993803	-1.026769	-0.419197
C68	C	1.493803	-0.526769	0.080803
C69	C	1.008140	-1.109322	-0.404919
C70	C	1.508140	-0.609322	0.095081
C71	C	1.094738	-1.109303	-0.318465
C72	C	1.594738	-0.609303	0.181535
C73	C	1.080411	-1.026749	-0.332738
C74	C	1.580411	-0.526749	0.167262
C75	C	1.029942	-0.985488	-0.383104
C76	C	1.529942	-0.485488	0.116896
C77	C	1.116551	-0.985468	-0.296645
C78	C	1.616551	-0.485468	0.203355
C79	C	1.102222	-0.902920	-0.310914
C80	C	1.602222	-0.402920	0.189086
C81	C	1.051754	-0.861653	-0.361275
C82	C	1.551754	-0.361653	0.138725
C83	C	1.015614	-0.902940	-0.397372
C84	C	1.515614	-0.402940	0.102628
C85	C	1.167015	-1.026729	-0.246275
C86	C	1.667015	-0.526729	0.253725
C87	C	1.203155	-0.985448	-0.210182
C88	C	1.703155	-0.485448	0.289818
C89	C	1.188830	-0.902899	-0.224455
C90	C	1.688830	-0.402899	0.275545
C91	C	1.138362	-0.861633	-0.274817
C92	C	1.638362	-0.361633	0.225183
C93	C	1.224970	-0.861612	-0.188358
C94	C	1.724970	-0.361612	0.311642
C95	C	1.210641	-0.779065	-0.202627
C96	C	1.710641	-0.279065	0.297373
C97	C	1.124033	-0.779085	-0.289086
C98	C	1.624033	-0.279085	0.210914
C99	C	1.294781	-0.453251	-0.309586
C100	C	1.794781	0.046749	0.190414
C101	C	1.373777	-0.456941	-0.312101
C102	C	1.873777	0.043059	0.187899
C103	C	1.118310	-0.453170	-0.486075
C104	C	1.618310	0.046830	0.013925
C105	C	1.122104	-0.456826	-0.563799
C106	C	1.622104	0.043174	-0.063799
C107	C	1.073778	-0.238436	-0.339360
C108	C	1.573778	0.261564	0.160640
C109	C	1.058596	-0.150585	-0.354562
C110	C	1.558596	0.349415	0.145438
C111	C	1.069702	-0.405875	-0.607614
C112	C	1.569702	0.094125	-0.107614
C113	C	1.073266	-0.409316	-0.680643
C114	C	1.573266	0.090684	-0.180643
C115	C	1.129235	-0.463705	-0.709857
C116	C	1.629235	0.036295	-0.209857
C117	C	1.181640	-0.514662	-0.666036
C118	C	1.681640	-0.014662	-0.166036
C119	C	1.178073	-0.511224	-0.593008
C120	C	1.678073	-0.011224	-0.093008
C121	C	1.145711	-0.479639	-0.927484
C122	C	1.645711	0.020361	-0.427484
C123	C	1.149275	-0.483071	-1.000518
C124	C	1.649275	0.016929	-0.500518
C125	C	1.040900	-0.377726	-1.015120
C126	C	1.540900	0.122274	-0.515120
C127	C	1.037340	-0.374289	-0.942090
C128	C	1.537340	0.125711	-0.442090
C129	C	1.089743	-0.425249	-0.898275
C130	C	1.589743	0.074751	-0.398275
N131	N	1.132880	-0.467222	-0.784504
N132	N	1.632880	0.032778	-0.284504
N133	N	1.086094	-0.421735	-0.823628
N134	N	1.586094	0.078265	-0.323628
C135	C	1.100568	-0.435992	-0.122014
C136	C	1.600568	0.064008	0.377986
C137	C	1.096873	-0.432120	-0.044333
C138	C	1.596873	0.067880	0.455667
H139	H	0.858722	-0.527641	-0.360197
H140	H	1.358722	-0.027641	0.139803
C141	C	0.548914	-0.574748	-0.392286
C142	C	1.048914	-0.074748	0.107714
H143	H	0.522700	-0.604622	-0.412630
H144	H	1.022700	-0.104622	0.087370
H145	H	0.582503	-0.609227	-0.360456
H146	H	1.082503	-0.109227	0.139544
H147	H	0.574140	-0.547343	-0.428938
H148	H	1.074140	-0.047343	0.071062
H149	H	1.024129	-0.361581	-0.583835
H150	H	1.524129	0.138419	-0.083835
H151	H	1.244244	-1.019054	-0.169172
H152	H	1.744244	-0.519054	0.330828
C153	C	0.960104	-0.857545	-0.452778
C154	C	1.460104	-0.357545	0.047222
H155	H	0.956752	-0.802471	-0.456107
H156	H	1.456752	-0.302471	0.043893
H157	H	0.914213	-0.868405	-0.438645
H158	H	1.414213	-0.368405	0.061355
H159	H	0.975113	-0.873746	-0.497768
H160	H	1.475113	-0.373746	0.002232
C161	C	1.015626	-0.353265	-0.728837
C162	C	1.515626	0.146735	-0.228837
H163	H	0.981788	-0.320373	-0.700980
H164	H	1.481788	0.179627	-0.200980
H165	H	0.991272	-0.383388	-0.751108
H166	H	1.491272	0.116612	-0.251108
H167	H	1.038261	-0.321438	-0.764150
H168	H	1.538261	0.178562	-0.264150
H169	H	1.240069	-0.745453	-0.173235
H170	H	1.740069	-0.245453	0.326765
H171	H	0.684350	-0.330038	-0.225719
H172	H	1.184350	0.169962	0.274281
C173	C	0.502936	-0.353300	-0.241540
C174	C	1.002936	0.146700	0.258460
H175	H	0.463684	-0.320384	-0.219121
H176	H	0.963684	0.179616	0.280879
H177	H	0.527257	-0.321511	-0.275196
H178	H	1.027257	0.178489	0.224804
H179	H	0.535610	-0.383405	-0.206721
H180	H	1.035610	0.116595	0.293279
H181	H	1.082942	-0.745489	-0.330104
H182	H	1.582942	-0.245489	0.169896
H183	H	0.952712	-0.993173	-0.460215
H184	H	1.452712	-0.493173	0.039785
C185	C	0.826486	-0.321735	-0.220060
C186	C	1.326486	0.178265	0.279940
H187	H	0.787236	-0.288812	-0.197645
H188	H	1.287236	0.211188	0.302355
H189	H	0.850804	-0.289954	-0.253727
H190	H	1.350804	0.210046	0.246273
H191	H	0.859164	-0.351830	-0.185240
H192	H	1.359164	0.148170	0.314760
C193	C	0.975778	-0.314455	-0.909961
C194	C	1.475778	0.185545	-0.409961
H195	H	0.945077	-0.284604	-0.946515
H196	H	1.445077	0.215396	-0.446515
H197	H	0.995631	-0.279951	-0.888301
H198	H	1.495631	0.220049	-0.388301
H199	H	0.948639	-0.341899	-0.875251
H200	H	1.448639	0.158101	-0.375251
C201	C	0.968389	-1.154730	-0.444631
C202	C	1.468389	-0.654730	0.055369
H203	H	0.936285	-1.118331	-0.476673
H204	H	1.436285	-0.618331	0.023327
H205	H	0.941734	-1.184265	-0.411301
H206	H	1.441734	-0.684265	0.088699
H207	H	1.002629	-1.189599	-0.470429
H208	H	1.502629	-0.689599	0.029571
H209	H	1.040083	-0.794437	-0.372887
H210	H	1.540083	-0.294437	0.127113
C211	C	0.347076	-0.346048	-0.236609
C212	C	0.847076	0.153952	0.263391
H213	H	0.299128	-0.351307	-0.240172
H214	H	0.799128	0.148693	0.259828
H215	H	0.350554	-0.294007	-0.256482
H216	H	0.850554	0.205993	0.243518
H217	H	0.358928	-0.355898	-0.188004
H218	H	0.858928	0.144102	0.311996
H219	H	1.266056	-0.895219	-0.147345
H220	H	1.766056	-0.395219	0.352655
C221	C	0.983255	-0.321685	-1.063314
C222	C	1.483255	0.178315	-0.563314
H223	H	0.993389	-0.331525	-1.110990
H224	H	1.493389	0.168475	-0.610990
H225	H	0.983888	-0.268500	-1.060870
H226	H	1.483888	0.231500	-0.560870
H227	H	0.936918	-0.330469	-1.047819
H228	H	1.436918	0.169531	-0.547819
H229	H	0.724076	-0.521367	-0.355940
H230	H	1.224076	-0.021367	0.144060
H231	H	0.400526	-0.552926	-0.377428
H232	H	0.900526	-0.052926	0.122572
H233	H	1.135828	-1.142909	-0.277455
H234	H	1.635828	-0.642909	0.222545
H235	H	1.194855	-0.527363	-1.024301
H236	H	1.694855	-0.027363	-0.524301
H237	H	1.188375	-0.521142	-0.891817
H238	H	1.688375	-0.021142	-0.391817
C239	C	1.243210	-0.574486	-0.698167
C240	C	1.743210	-0.074486	-0.198167
H241	H	1.273905	-0.604342	-0.661610
H242	H	1.773905	-0.104342	-0.161610
H243	H	1.270341	-0.547035	-0.732872
H244	H	1.770341	-0.047035	-0.232872
H245	H	1.223367	-0.608999	-0.719831
H246	H	1.723367	-0.108999	-0.219831
C247	C	1.182778	-1.117530	-0.230575
C248	C	1.682778	-0.617530	0.269425
H249	H	1.218003	-1.136191	-0.195404
H250	H	1.718003	-0.636191	0.304596
H251	H	1.200475	-1.138882	-0.272873
H252	H	1.700475	-0.638882	0.227127
H253	H	1.139577	-1.133535	-0.213748
H254	H	1.639577	-0.633535	0.286252
C255	C	1.235715	-0.567271	-0.544812
C256	C	1.735715	-0.067271	-0.044812
H257	H	1.269563	-0.600152	-0.572669
H258	H	1.769563	-0.100152	-0.072669
H259	H	1.213086	-0.599096	-0.509499
H260	H	1.713086	-0.099096	-0.009499
H261	H	1.260068	-0.537139	-0.522542
H262	H	1.760068	-0.037139	-0.022542
