data_functionalizedCrystal
_audit_creation_method	'MofGen! by Chris Wilmer'
_symmetry_space_group_name_H-M	'P1'
_symmetry_Int_Tables_number	1
_symmetry_cell_setting	triclinic
loop_
_symmetry_equiv_pos_as_xyz
  x,y,z
_cell_length_a	9.065218
_cell_length_b	17.699083
_cell_length_c	8.140239
_cell_angle_alpha	89.995596
_cell_angle_beta	89.997198
_cell_angle_gamma	84.149450
loop_
_atom_site_label
_atom_site_type_symbol
_atom_site_fract_x
_atom_site_fract_y
_atom_site_fract_z
O1	O	1.957109	0.110973	-0.136622
O2	O	1.527555	0.120075	-0.136624
O3	O	1.754468	0.005429	-0.136608
O4	O	1.730196	0.225619	-0.136637
O5	O	1.754455	0.005428	0.136619
O6	O	1.527542	0.120074	0.136603
O7	O	1.957097	0.110971	0.136605
Zn8	Zn	1.742317	0.115522	0.179985
Zn9	Zn	1.742334	0.115524	-0.180004
O10	O	1.730183	0.225617	0.136590
C11	C	1.472588	0.119200	-0.000011
C12	C	1.308822	0.116584	-0.000011
C13	C	1.753592	-0.022775	0.000005
C14	C	1.750983	-0.106813	0.000006
C15	C	1.884176	-0.154396	0.000009
C16	C	1.881716	-0.233358	-0.000005
C17	C	1.746060	-0.264737	-0.000011
C18	C	1.612857	-0.217149	-0.000019
C19	C	1.615319	-0.138188	-0.000017
C20	C	1.602925	-0.535589	-0.000033
C21	C	1.600474	-0.614556	-0.000031
C22	C	1.869322	-0.630760	-0.000022
C23	C	1.871784	-0.551799	-0.000019
C24	C	1.738581	-0.504217	-0.000036
C25	C	1.741251	-0.418597	-0.000023
C26	C	1.743390	-0.350355	-0.000012
C27	C	2.012064	0.111847	-0.000012
C28	C	2.175829	0.114463	-0.000022
C29	C	1.731059	0.253822	-0.000028
C30	C	1.733669	0.337860	-0.000039
N31	N	1.742317	0.115521	0.425667
N32	N	1.742346	0.115520	-0.425686
H33	H	1.994642	-0.128854	0.000024
H34	H	1.990175	-0.272097	0.000001
N35	N	1.471658	-0.086865	0.000025
H36	H	1.493801	-0.032083	0.000032
H37	H	1.412515	-0.097119	-0.101256
H38	H	1.977782	-0.669510	-0.000016
N39	N	2.018096	-0.517954	0.000001
H40	H	2.102103	-0.560080	-0.000002
H41	H	2.024977	-0.485541	-0.101286
N42	N	1.454154	-0.648403	-0.000028
H43	H	1.370142	-0.606279	-0.000039
H44	H	1.447289	-0.680812	-0.101311
H45	H	1.494463	-0.496857	-0.000046
H46	H	1.502404	-0.242703	-0.000035
