data_functionalizedCrystal
_audit_creation_method	'MofGen! by Chris Wilmer'
_symmetry_space_group_name_H-M	'P1'
_symmetry_Int_Tables_number	1
_symmetry_cell_setting	triclinic
loop_
_symmetry_equiv_pos_as_xyz
  x,y,z
_cell_length_a	21.395362
_cell_length_b	21.395361
_cell_length_c	21.395356
_cell_angle_alpha	90.028219
_cell_angle_beta	90.042977
_cell_angle_gamma	90.046411
loop_
_atom_site_label
_atom_site_type_symbol
_atom_site_fract_x
_atom_site_fract_y
_atom_site_fract_z
Zn1	Zn	-0.957854	0.249189	-0.354583
Zn2	Zn	-0.457854	0.749189	0.145417
Zn3	Zn	-0.957759	0.353965	-0.249805
Zn4	Zn	-0.457759	0.853965	0.250195
Zn5	Zn	-0.853071	0.249235	-0.249785
Zn6	Zn	-0.353071	0.749235	0.250215
Zn7	Zn	-0.853039	0.353962	-0.354510
Zn8	Zn	-0.353039	0.853962	0.145490
O9	O	-0.905431	0.301588	-0.302171
O10	O	-0.405431	0.801588	0.197829
O11	O	-1.045520	0.263070	-0.340724
O12	O	-0.545520	0.763070	0.159276
O13	O	-0.943845	0.340094	-0.162124
O14	O	-0.443845	0.840094	0.337876
O15	O	-0.867024	0.161551	-0.263709
O16	O	-0.367024	0.661551	0.236291
O17	O	-1.045449	0.340049	-0.263743
O18	O	-0.545449	0.840049	0.236257
O19	O	-0.944008	0.161517	-0.340704
O20	O	-0.444008	0.661517	0.159296
O21	O	-0.866932	0.263148	-0.162109
O22	O	-0.366932	0.763148	0.337891
O23	O	-0.765389	0.263145	-0.263637
O24	O	-0.265389	0.763145	0.236363
O25	O	-0.866969	0.340042	-0.442197
O26	O	-0.366969	0.840042	0.057803
O27	O	-0.765365	0.340087	-0.340578
O28	O	-0.265365	0.840087	0.159422
O29	O	-0.943977	0.263066	-0.442251
O30	O	-0.443977	0.763066	0.057749
O31	O	-0.943814	0.441643	-0.263672
O32	O	-0.443814	0.941643	0.236328
O33	O	-0.866877	0.441640	-0.340598
O34	O	-0.366877	0.941640	0.159402
C35	C	-0.742643	0.301621	-0.302098
C36	C	-0.242643	0.801621	0.197902
C37	C	-0.673002	0.301650	-0.302082
C38	C	-0.173002	0.801650	0.197918
C39	C	-0.905349	0.464375	-0.302143
C40	C	-0.405349	0.964375	0.197857
C41	C	-0.905371	0.534017	-0.302152
C42	C	-0.405371	1.034017	0.197848
C43	C	-0.905480	0.301549	-0.465594
C44	C	-0.405480	0.801549	0.034406
C45	C	-0.905501	0.301532	-0.535235
C46	C	-0.405501	0.801532	-0.035235
C47	C	-1.068854	0.301555	-0.302244
C48	C	-0.568854	0.801555	0.197756
C49	C	-1.138495	0.301541	-0.302275
C50	C	-0.638495	0.801541	0.197725
C51	C	-0.640293	0.341767	-0.342085
C52	C	-0.140293	0.841767	0.157915
C53	C	-0.574857	0.341752	-0.342113
C54	C	-0.074857	0.841752	0.157887
C55	C	-0.542134	0.301626	-0.302126
C56	C	-0.042134	0.801626	0.197874
C57	C	-0.574850	0.261501	-0.262120
C58	C	-0.074850	0.761501	0.237880
C59	C	-0.640285	0.261513	-0.262098
C60	C	-0.140285	0.761513	0.237902
C61	C	-0.438410	0.296587	-0.245721
C62	C	0.061590	0.796587	0.254279
C63	C	-0.372977	0.296580	-0.245742
C64	C	0.127023	0.796580	0.254258
C65	C	-0.340313	0.301585	-0.302195
C66	C	0.159687	0.801585	0.197805
C67	C	-0.373090	0.306611	-0.358629
C68	C	0.126910	0.806611	0.141371
C69	C	-0.438524	0.306623	-0.358607
C70	C	0.061476	0.806623	0.141393
C71	C	-0.471181	0.301608	-0.302146
C72	C	0.028819	0.801608	0.197854
C73	C	-0.236651	0.341687	-0.342232
C74	C	0.263349	0.841687	0.157768
C75	C	-0.171215	0.341668	-0.342261
C76	C	0.328785	0.841668	0.157739
C77	C	-0.171209	0.261421	-0.262263
C78	C	0.328791	0.761421	0.237737
C79	C	-0.236644	0.261437	-0.262240
C80	C	0.263356	0.761437	0.237760
C81	C	-0.269362	0.301574	-0.302223
C82	C	0.230638	0.801574	0.197777
C83	C	-0.945468	0.566710	-0.262139
C84	C	-0.445468	1.066710	0.237861
C85	C	-0.945497	0.632146	-0.262156
C86	C	-0.445497	1.132146	0.237844
C87	C	-0.905418	0.664885	-0.302179
C88	C	-0.405418	1.164885	0.197821
C89	C	-0.865318	0.632183	-0.342200
C90	C	-0.365318	1.132183	0.157800
C91	C	-0.865295	0.566749	-0.342186
C92	C	-0.365295	1.066749	0.157814
C93	C	-0.849004	0.768615	-0.307074
C94	C	-0.349004	1.268615	0.192926
C95	C	-0.849026	0.834048	-0.307083
C96	C	-0.349026	1.334048	0.192917
C97	C	-0.905492	0.866706	-0.302224
C98	C	-0.405492	1.366706	0.197776
C99	C	-0.961936	0.833922	-0.297343
C100	C	-0.461936	1.333922	0.202657
C101	C	-0.961912	0.768488	-0.297329
C102	C	-0.461912	1.268488	0.202671
C103	C	-0.905440	0.735837	-0.302198
C104	C	-0.405440	1.235837	0.197802
C105	C	-0.945624	0.970352	-0.262227
C106	C	-0.445624	1.470352	0.237773
C107	C	-0.945654	1.035788	-0.262249
C108	C	-0.445654	1.535788	0.237751
C109	C	-0.865470	1.035825	-0.342289
C110	C	-0.365470	1.535825	0.157711
C111	C	-0.865445	0.970389	-0.342271
C112	C	-0.365445	1.470389	0.157729
C113	C	-0.905521	0.937657	-0.302237
C114	C	-0.405521	1.437657	0.197763
C115	C	-0.905531	1.138164	-0.302223
C116	C	-0.405531	1.638164	0.197777
C117	C	-0.905576	1.068523	-0.302273
C118	C	-0.405576	1.568523	0.197727
C119	C	-0.865463	0.261462	-0.567931
C120	C	-0.365463	0.761462	-0.067931
C121	C	-0.865461	0.261451	-0.633366
C122	C	-0.365461	0.761451	-0.133366
C123	C	-0.905508	0.301502	-0.666104
C124	C	-0.405508	0.801502	-0.166104
C125	C	-0.945549	0.341580	-0.633400
C126	C	-0.445549	0.841580	-0.133400
C127	C	-0.945546	0.341595	-0.567966
C128	C	-0.445546	0.841595	-0.067966
C129	C	-0.961960	0.306413	-0.769809
C130	C	-0.461960	0.806413	-0.269809
C131	C	-0.961965	0.306393	-0.835242
C132	C	-0.461965	0.806393	-0.335242
C133	C	-0.905518	0.301460	-0.867924
C134	C	-0.405518	0.801460	-0.367924
C135	C	-0.849066	0.296533	-0.835166
C136	C	-0.349066	0.796533	-0.335166
C137	C	-0.849062	0.296548	-0.769732
C138	C	-0.349062	0.796548	-0.269732
C139	C	-0.905516	0.301491	-0.737056
C140	C	-0.405516	0.801491	-0.237056
C141	C	-0.865474	0.261376	-0.971573
C142	C	-0.365474	0.761376	-0.471573
C143	C	-0.865471	0.261368	-1.037009
C144	C	-0.365471	0.761368	-0.537009
C145	C	-0.945565	0.341494	-1.037042
C146	C	-0.445565	0.841494	-0.537042
C147	C	-0.945563	0.341505	-0.971607
C148	C	-0.445563	0.841505	-0.471607
C149	C	-0.905518	0.301442	-0.938876
C150	C	-0.405518	0.801442	-0.438876
C151	C	-0.905418	0.301581	-0.139383
C152	C	-0.405418	0.801581	0.360617
C153	C	-0.905518	0.301421	-0.069742
C154	C	-0.405518	0.801421	0.430258
H155	H	-0.666927	0.374449	-0.374644
H156	H	-0.166927	0.874449	0.125356
H157	H	-0.978151	0.658770	-0.229572
H158	H	-0.478151	1.158770	0.270428
O159	O	-1.016765	0.311117	-0.737997
O160	O	-0.516765	0.811117	-0.237997
C161	C	-1.024873	0.257777	-0.700181
C162	C	-0.524873	0.757777	-0.200181
H163	H	-0.977437	0.235622	-0.690349
H164	H	-0.477437	0.735622	-0.190349
H165	H	-1.047702	0.271934	-0.654180
H166	H	-0.547702	0.771934	-0.154180
H167	H	-1.056037	0.222645	-0.725432
H168	H	-0.556037	0.722645	-0.225432
H169	H	-0.144566	0.228746	-0.229708
H170	H	0.355434	0.728746	0.270292
H171	H	-0.263291	0.374366	-0.374793
H172	H	0.236709	0.874366	0.125207
H173	H	-0.548220	0.374419	-0.374690
H174	H	-0.048220	0.874419	0.125310
H175	H	-0.465208	0.310714	-0.404557
H176	H	0.034792	0.810714	0.095443
O177	O	-0.984627	1.067452	-0.223319
O178	O	-0.484627	1.567452	0.276681
C179	C	-1.020002	1.024527	-0.187995
C180	C	-0.520002	1.524527	0.312005
H181	H	-0.994321	0.977916	-0.185783
H182	H	-0.494321	1.477916	0.314217
H183	H	-1.026714	1.043461	-0.138642
H184	H	-0.526714	1.543461	0.361358
H185	H	-1.067575	1.017493	-0.210993
H186	H	-0.567575	1.517493	0.289007
H187	H	-0.978101	0.540061	-0.229542
H188	H	-0.478101	1.040061	0.270458
H189	H	-0.832853	0.228842	-0.541285
H190	H	-0.332853	0.728842	-0.041285
O191	O	-0.341402	0.311574	-0.413483
O192	O	0.158598	0.811574	0.086517
C193	C	-0.357374	0.368245	-0.443040
C194	C	0.142626	0.868245	0.056960
H195	H	-0.375275	0.402808	-0.406665
H196	H	0.124725	0.902808	0.093335
H197	H	-0.314349	0.388499	-0.467061
H198	H	0.185651	0.888499	0.032939
H199	H	-0.395412	0.359253	-0.479295
H200	H	0.104588	0.859253	0.020705
O201	O	-0.139536	0.380700	-0.381142
O202	O	0.360464	0.880700	0.118858
C203	C	-0.182448	0.416115	-0.416434
C204	C	0.317552	0.916115	0.083566
H205	H	-0.229061	0.418257	-0.390750
H206	H	0.270939	0.918257	0.109250
H207	H	-0.163499	0.465487	-0.423029
H208	H	0.336501	0.965487	0.076971
H209	H	-0.189483	0.393242	-0.464062
H210	H	0.310517	0.893242	0.035938
H211	H	-0.832867	0.228755	-0.944922
H212	H	-0.332867	0.728755	-0.444922
H213	H	-1.007871	0.741798	-0.293357
H214	H	-0.507871	1.241798	0.206643
H215	H	-1.007916	0.860511	-0.293386
H216	H	-0.507916	1.360511	0.206614
H217	H	-0.978168	0.374133	-0.944986
H218	H	-0.478168	0.874133	-0.444986
H219	H	-0.978258	0.943700	-0.229631
H220	H	-0.478258	1.443700	0.270369
H221	H	-0.832840	1.062480	-0.374880
H222	H	-0.332840	1.562480	0.125120
H223	H	-0.832863	0.228741	-1.063629
H224	H	-0.332863	0.728741	-0.563629
H225	H	-0.666916	0.228843	-0.229522
H226	H	-0.166916	0.728843	0.270478
H227	H	-1.007932	0.310402	-0.861909
H228	H	-0.507932	0.810402	-0.361909
O229	O	-0.984540	0.380454	-0.665129
O230	O	-0.484540	0.880454	-0.165129
C231	C	-1.046994	0.366743	-0.649196
C232	C	-0.546994	0.866743	-0.149196
H233	H	-1.048303	0.342669	-0.601693
H234	H	-0.548303	0.842669	-0.101693
H235	H	-1.075060	0.411957	-0.646965
H236	H	-0.575060	0.911957	-0.146965
H237	H	-1.068120	0.334517	-0.686045
H238	H	-0.568120	0.834517	-0.186045
H239	H	-0.832792	0.943768	-0.374851
H240	H	-0.332792	1.443768	0.125149
H241	H	-0.978152	0.374224	-0.541346
H242	H	-0.478152	0.874224	-0.041346
H243	H	-0.832687	0.658844	-0.374788
H244	H	-0.332687	1.158844	0.125212
H245	H	-0.263276	0.228772	-0.229662
H246	H	0.236724	0.728772	0.270338
H247	H	-0.346295	0.292491	-0.199791
H248	H	0.153705	0.792491	0.300209
H249	H	-0.464999	0.292509	-0.199747
H250	H	0.035001	0.792509	0.300253
O251	O	-0.794092	0.736991	-0.311779
O252	O	-0.294092	1.236991	0.188221
C253	C	-0.744281	0.779955	-0.316103
C254	C	-0.244281	1.279955	0.183897
H255	H	-0.759139	0.826595	-0.295071
H256	H	-0.259139	1.326595	0.204929
H257	H	-0.702172	0.761114	-0.289443
H258	H	-0.202172	1.261114	0.210557
H259	H	-0.731254	0.786898	-0.367290
H260	H	-0.231254	1.286898	0.132710
H261	H	-0.548203	0.228829	-0.229564
H262	H	-0.048203	0.728829	0.270436
O263	O	-0.794208	0.865921	-0.311716
O264	O	-0.294208	1.365921	0.188284
C265	C	-0.786176	0.903830	-0.258385
C266	C	-0.286176	1.403830	0.241615
H267	H	-0.814934	0.884104	-0.218121
H268	H	-0.314934	1.384104	0.281879
H269	H	-0.734677	0.904646	-0.244697
H270	H	-0.234677	1.404646	0.255303
H271	H	-0.802421	0.953394	-0.269212
H272	H	-0.302421	1.453394	0.230788
H273	H	-0.832642	0.540129	-0.374770
H274	H	-0.332642	1.040129	0.125230
H275	H	-0.803097	0.292537	-0.743062
H276	H	-0.303097	0.792537	-0.243062
O277	O	-0.826548	0.222464	-0.665039
O278	O	-0.326548	0.722464	-0.165039
C279	C	-0.791191	0.187120	-0.622118
C280	C	-0.291191	0.687120	-0.122118
H281	H	-0.816850	0.184958	-0.575491
H282	H	-0.316850	0.684958	-0.075491
H283	H	-0.784546	0.137751	-0.641034
H284	H	-0.284546	0.637751	-0.141034
H285	H	-0.743588	0.210070	-0.615123
H286	H	-0.243588	0.710070	-0.115123
O287	O	-0.794231	0.291863	-0.866928
O288	O	-0.294231	0.791863	-0.366928
C289	C	-0.786140	0.345195	-0.904759
C290	C	-0.286140	0.845195	-0.404759
H291	H	-0.814880	0.385475	-0.885047
H292	H	-0.314880	0.885475	-0.385047
H293	H	-0.734631	0.358849	-0.905450
H294	H	-0.234631	0.858849	-0.405450
H295	H	-0.802366	0.334387	-0.954369
H296	H	-0.302366	0.834387	-0.454369
O297	O	-0.984540	0.380309	-1.068860
O298	O	-0.484540	0.880309	-0.568860
C299	C	-1.025020	0.344618	-1.106757
C300	C	-0.525020	0.844618	-0.606757
H301	H	-1.028912	0.295273	-1.087055
H302	H	-0.528912	0.795273	-0.587055
H303	H	-1.073228	0.367264	-1.107521
H304	H	-0.573228	0.867264	-0.607521
H305	H	-1.005657	0.342457	-1.156337
H306	H	-0.505657	0.842457	-0.656337
