data_functionalizedCrystal
_audit_creation_method	'MofGen! by Chris Wilmer'
_symmetry_space_group_name_H-M	'P1'
_symmetry_Int_Tables_number	1
_symmetry_cell_setting	triclinic
loop_
_symmetry_equiv_pos_as_xyz
  x,y,z
_cell_length_a	13.897448
_cell_length_b	25.639243
_cell_length_c	13.897441
_cell_angle_alpha	90.024497
_cell_angle_beta	89.969401
_cell_angle_gamma	89.979627
loop_
_atom_site_label
_atom_site_type_symbol
_atom_site_fract_x
_atom_site_fract_y
_atom_site_fract_z
Zn1	Zn	-0.383915	-0.799345	-0.545478
Zn2	Zn	-0.545237	-0.799288	-0.384179
Zn3	Zn	-0.383965	-0.711909	-0.384186
Zn4	Zn	-0.545177	-0.711899	-0.545421
O5	O	-0.464574	-0.755610	-0.464816
O6	O	-0.405319	-0.872503	-0.524102
O7	O	-0.523889	-0.787677	-0.249199
O8	O	-0.248977	-0.723535	-0.405608
O9	O	-0.523841	-0.872461	-0.405597
O10	O	-0.248940	-0.787775	-0.524109
O11	O	-0.405404	-0.723480	-0.249203
O12	O	-0.405346	-0.638742	-0.405553
O13	O	-0.523740	-0.723519	-0.680411
O14	O	-0.523788	-0.638735	-0.524012
O15	O	-0.405261	-0.787765	-0.680452
O16	O	-0.680211	-0.787667	-0.405542
O17	O	-0.680167	-0.723463	-0.524006
C18	C	-0.715188	-0.755572	-0.464788
C19	C	-0.822402	-0.755603	-0.464809
C20	C	-0.464567	-0.619767	-0.464778
C21	C	-0.464587	-0.561653	-0.464784
C22	C	-1.018697	-0.755658	-0.464869
C23	C	-0.909464	-0.755626	-0.464838
C24	C	-0.402955	-0.201307	-0.526624
C25	C	-0.402954	-0.146702	-0.526630
O26	O	-0.350535	-0.118480	-0.579161
N27	N	-0.464570	-0.119371	-0.464842
C28	C	-0.526183	-0.146647	-0.403037
O29	O	-0.578592	-0.118385	-0.350481
C30	C	-0.526179	-0.201250	-0.403027
C31	C	-0.464566	-0.228579	-0.464826
C32	C	-0.341347	-0.228636	-0.588417
C33	C	-0.341349	-0.283236	-0.588412
C34	C	-0.402960	-0.310508	-0.526614
C35	C	-0.464568	-0.283179	-0.464821
C36	C	-0.587787	-0.228525	-0.341218
C37	C	-0.587776	-0.283132	-0.341212
C38	C	-0.526164	-0.310460	-0.403011
C39	C	-0.526182	-0.365051	-0.403018
N40	N	-0.464566	-0.392383	-0.464806
C41	C	-0.402955	-0.365111	-0.526604
C42	C	-0.526187	-0.031976	-0.403061
C43	C	-0.526198	0.022626	-0.403076
C44	C	-0.402967	0.022567	-0.526668
C45	C	-0.402962	-0.032037	-0.526658
C46	C	-0.464572	-0.059307	-0.464850
C47	C	-0.402966	-0.479776	-0.526590
C48	C	-0.402976	-0.534382	-0.526582
C49	C	-0.526203	-0.534317	-0.402987
C50	C	-0.526196	-0.479717	-0.402998
C51	C	-0.464570	-0.452447	-0.464802
O52	O	-0.578572	-0.393309	-0.350511
O53	O	-0.350547	-0.393379	-0.579142
C54	C	-0.212981	-0.755663	-0.464865
C55	C	-0.105767	-0.755685	-0.464886
C56	C	-0.464488	-0.755647	-0.716409
C57	C	-0.464452	-0.755663	-0.823623
C58	C	-0.464581	0.108017	-0.464855
C59	C	-0.464583	0.049903	-0.464871
C60	C	-0.464387	-0.755677	-1.019919
C61	C	-0.464426	-0.755668	-0.910686
C62	C	-0.464589	-0.755603	-0.214202
C63	C	-0.464353	-0.755689	-0.106988
H64	H	-0.352803	-0.556630	-0.576910
O65	O	-0.647606	-0.201905	-0.281275
C66	C	-0.702199	-0.117770	-0.226440
C67	C	-0.634416	-0.147850	-0.294394
H68	H	-0.691544	-0.074061	-0.237009
H69	H	-0.780018	-0.128462	-0.243239
H70	H	-0.685167	-0.128525	-0.148704
H71	H	-0.651362	-0.137111	-0.372153
H72	H	-0.556618	-0.137155	-0.277512
H73	H	-0.576366	-0.054177	-0.352732
H74	H	-0.352780	-0.457580	-0.576914
H75	H	-0.637946	-0.305333	-0.290878
H76	H	-0.576367	-0.556532	-0.352675
O77	O	-0.281397	-0.309698	-0.648465
C78	C	-0.159197	-0.303974	-0.771077
C79	C	-0.227037	-0.273946	-0.703103
H80	H	-0.115244	-0.275081	-0.815284
H81	H	-0.108638	-0.329518	-0.726919
H82	H	-0.203543	-0.329560	-0.821401
H83	H	-0.182769	-0.248331	-0.652765
H84	H	-0.277598	-0.248435	-0.747321
H85	H	-0.576378	-0.457464	-0.352687
O86	O	-0.343245	0.049121	-0.586744
C87	C	-0.330432	0.110715	-0.717033
C88	C	-0.398169	0.080683	-0.649047
H89	H	-0.374812	0.136232	-0.767436
H90	H	-0.279963	0.136316	-0.672885
H91	H	-0.286368	0.081796	-0.761155
H92	H	-0.442295	0.109564	-0.604911
H93	H	-0.448574	0.055074	-0.693250
O94	O	-0.281630	-0.202092	-0.648505
C95	C	-0.268822	-0.140523	-0.778836
C96	C	-0.336556	-0.170536	-0.710818
H97	H	-0.313203	-0.115012	-0.829247
H98	H	-0.218337	-0.114918	-0.734713
H99	H	-0.224775	-0.169455	-0.822947
H100	H	-0.380666	-0.141643	-0.666692
H101	H	-0.386977	-0.196149	-0.754996
H102	H	-0.352790	-0.054284	-0.576978
H103	H	-0.576380	0.044873	-0.352763
