data_functionalizedCrystal
_audit_creation_method	'MofGen! by Chris Wilmer'
_symmetry_space_group_name_H-M	'P1'
_symmetry_Int_Tables_number	1
_symmetry_cell_setting	triclinic
loop_
_symmetry_equiv_pos_as_xyz
  x,y,z
_cell_length_a	10.654546
_cell_length_b	9.130313
_cell_length_c	17.699083
_cell_angle_alpha	90.002131
_cell_angle_beta	83.883249
_cell_angle_gamma	90.001178
loop_
_atom_site_label
_atom_site_type_symbol
_atom_site_fract_x
_atom_site_fract_y
_atom_site_fract_z
O1	O	1.665976	0.121835	0.106287
O2	O	1.300320	0.121831	0.116417
O3	O	1.493479	0.121820	0.001228
O4	O	1.472817	0.121846	0.221476
O5	O	1.493476	-0.121779	0.001231
O6	O	1.300317	-0.121768	0.116420
O7	O	1.665974	-0.121764	0.106290
Cu8	Cu	1.483145	-0.144009	0.111355
Cu9	Cu	1.483148	0.144075	0.111352
O10	O	1.472815	-0.121753	0.221479
C11	C	1.253534	0.000031	0.115675
C12	C	1.114129	0.000029	0.113452
N13	N	1.483153	-0.346631	0.111357
C14	C	1.048654	0.132821	0.112398
C15	C	0.917670	0.132833	0.110302
C16	C	0.917648	-0.132752	0.110312
C17	C	1.048629	-0.132762	0.112413
C18	C	1.114154	0.265612	0.113437
C19	C	1.048679	0.398415	0.112382
C20	C	0.917695	0.398427	0.110286
C21	C	0.852186	0.265635	0.109246
C22	C	1.568705	-0.423288	0.060369
C23	C	1.568702	-0.576625	0.060360
C24	C	1.397589	-0.576635	0.162334
C25	C	1.397588	-0.423301	0.162339
C26	C	1.654270	-0.346619	0.009388
C27	C	1.739830	-0.423276	-0.041604
C28	C	1.739827	-0.576612	-0.041613
C29	C	1.654263	-0.653292	0.009370
C30	C	1.712760	0.000039	0.107031
C31	C	1.852165	0.000051	0.109255
C32	C	1.492737	0.000020	-0.026972
C33	C	1.490516	0.000020	-0.111004
N34	N	1.483151	0.346698	0.111344
C35	C	1.603896	0.000019	-0.158905
C36	C	1.601802	0.000032	-0.237862
C37	C	1.486326	0.000035	-0.268916
C38	C	1.372937	0.000040	-0.221009
C39	C	1.375033	0.000038	-0.142053
C40	C	1.364483	0.000052	-0.539425
C41	C	1.362396	0.000050	-0.618387
C42	C	1.591252	0.000046	-0.635233
C43	C	1.593348	0.000044	-0.556278
C44	C	1.479959	0.000057	-0.508378
C45	C	1.482232	0.000045	-0.422765
C46	C	1.484052	0.000036	-0.354528
C47	C	1.473556	0.000050	0.249679
C48	C	1.475777	0.000060	0.333711
H49	H	1.220808	0.265618	0.115141
H50	H	1.272155	0.000062	-0.500434
H51	H	1.683578	0.000043	-0.674244
H52	H	1.268356	0.000050	-0.643667
H53	H	1.278914	0.000052	-0.246299
H54	H	1.282707	0.000039	-0.103053
H55	H	0.864387	0.506561	0.109435
H56	H	1.102024	0.506529	0.113236
H57	H	0.745528	0.265656	0.107548
H58	H	0.864301	-0.240864	0.109463
H59	H	1.654259	-0.778150	0.009353
H60	H	1.101939	-0.240893	0.113275
Br61	Br	1.855931	-0.319217	-0.110800
Br62	Br	1.855927	-0.680647	-0.110822
Br63	Br	1.654285	-0.138519	0.009403
Br64	Br	1.281477	-0.680698	0.231522
H65	H	1.327922	-0.360886	0.203857
H66	H	1.697930	0.000007	-0.133627
H67	H	1.694128	0.000028	-0.276860
H68	H	1.687380	0.000034	-0.530999
