data_functionalizedCrystal
_audit_creation_method	'MofGen! by Chris Wilmer'
_symmetry_space_group_name_H-M	'P1'
_symmetry_Int_Tables_number	1
_symmetry_cell_setting	triclinic
loop_
_symmetry_equiv_pos_as_xyz
  x,y,z
_cell_length_a	11.026607
_cell_length_b	11.792241
_cell_length_c	9.482900
_cell_angle_alpha	99.398500
_cell_angle_beta	78.636152
_cell_angle_gamma	96.389716
loop_
_atom_site_label
_atom_site_type_symbol
_atom_site_fract_x
_atom_site_fract_y
_atom_site_fract_z
O1	O	1.632118	0.461983	-0.120906
O2	O	1.278456	0.407791	-0.120907
O3	O	1.463868	0.271422	-0.120897
O4	O	1.446706	0.598353	-0.120917
O5	O	1.426207	0.299264	0.120894
O6	O	1.240795	0.435633	0.120883
O7	O	1.594458	0.489825	0.120884
Cu8	Cu	1.414188	0.465271	0.142961
Cu9	Cu	1.458726	0.432345	-0.142984
O10	O	1.409046	0.626195	0.120873
C11	C	1.214349	0.411715	-0.000012
C12	C	1.079439	0.381912	-0.000012
C13	C	1.006176	0.464202	-0.000018
C14	C	0.866739	0.433401	-0.000018
C15	C	1.443960	0.242838	-0.000002
C16	C	1.440733	0.116183	-0.000003
C17	C	1.434802	-0.115710	-0.000028
C18	C	1.438097	0.013331	-0.000014
C19	C	1.658565	0.485901	-0.000014
C20	C	1.793477	0.515703	-0.000024
C21	C	1.428955	0.654778	-0.000025
C22	C	1.432183	0.781432	-0.000033
N23	N	1.382871	0.488431	0.344079
N24	N	1.490052	0.409178	-0.344102
C25	C	1.449480	0.439169	0.416282
C26	C	1.423433	0.458448	0.583698
H27	H	1.046680	0.557456	-0.000015
C28	C	0.812770	0.309062	0.000286
C29	C	0.832448	0.269471	0.124702
C30	C	0.782733	0.154943	0.125040
H31	H	0.852243	0.262449	-0.083932
H32	H	0.726212	0.304848	0.000364
H33	H	0.918989	0.273676	0.124611
H34	H	0.792973	0.316052	0.208940
H35	H	0.696175	0.150729	0.125118
H36	H	0.822211	0.108341	0.040817
H37	H	0.796067	0.128070	0.209460
H38	H	0.833974	0.608964	-0.000020
C39	C	1.280931	0.563521	0.426828
C40	C	1.167024	0.516686	0.389964
C41	C	1.073084	0.585818	0.466174
H42	H	1.298528	0.639237	0.402014
H43	H	1.276863	0.566453	0.528356
H44	H	1.171093	0.513767	0.288459
H45	H	1.149387	0.440977	0.414782
H46	H	1.069016	0.588750	0.567702
H47	H	1.090693	0.661531	0.441354
H48	H	0.995786	0.554045	0.441183
C49	C	1.321488	0.533542	0.666441
C50	C	1.207581	0.486706	0.629578
C51	C	1.113641	0.555839	0.705787
H52	H	1.339085	0.609258	0.641627
H53	H	1.317420	0.536474	0.767969
H54	H	1.211650	0.483787	0.528072
H55	H	1.189944	0.410998	0.654395
H56	H	1.109573	0.558771	0.807315
H57	H	1.131250	0.631552	0.680968
H58	H	1.036343	0.524066	0.680797
C59	C	1.025645	0.257490	-0.000233
C60	C	1.084122	0.189242	-0.124608
C61	C	1.034616	0.074613	-0.124853
H62	H	0.939119	0.253145	-0.000308
H63	H	1.038945	0.230366	0.084042
H64	H	1.070813	0.216358	-0.208862
H65	H	1.170646	0.193552	-0.124560
H66	H	1.047916	0.047489	-0.040577
H67	H	0.948091	0.070280	-0.124924
H68	H	1.074293	0.028291	-0.209232
C69	C	1.591533	0.333690	0.572820
C70	C	1.597051	0.329408	0.423285
C71	C	1.690409	0.259759	0.346711
H72	H	1.573566	0.258015	0.597707
H73	H	1.669099	0.365041	0.597410
H74	H	1.519504	0.298054	0.398706
H75	H	1.615035	0.405065	0.398355
H76	H	1.767974	0.291110	0.371300
H77	H	1.672433	0.184089	0.371609
H78	H	1.694173	0.256853	0.245244
H79	H	1.525786	0.382714	0.354159
