data_functionalizedCrystal
_audit_creation_method	'MofGen! by Chris Wilmer'
_symmetry_space_group_name_H-M	'P1'
_symmetry_Int_Tables_number	1
_symmetry_cell_setting	triclinic
loop_
_symmetry_equiv_pos_as_xyz
  x,y,z
_cell_length_a	12.759401
_cell_length_b	21.295417
_cell_length_c	12.759393
_cell_angle_alpha	89.961905
_cell_angle_beta	89.979062
_cell_angle_gamma	90.032032
loop_
_atom_site_label
_atom_site_type_symbol
_atom_site_fract_x
_atom_site_fract_y
_atom_site_fract_z
Zn1	Zn	1.606151	-0.250553	-0.593965
Zn2	Zn	1.605994	-0.355835	-0.418261
Zn3	Zn	1.430450	-0.250587	-0.418300
Zn4	Zn	1.430393	-0.355791	-0.593899
O5	O	1.518247	-0.303192	-0.506106
O6	O	1.753151	-0.264523	-0.570669
O7	O	1.582665	-0.341906	-0.271245
O8	O	1.453846	-0.162493	-0.441646
O9	O	1.753035	-0.341874	-0.441580
O10	O	1.582933	-0.162468	-0.570706
O11	O	1.453694	-0.264581	-0.271274
O12	O	1.283421	-0.264538	-0.441582
O13	O	1.453750	-0.341799	-0.740929
O14	O	1.283380	-0.341831	-0.570594
O15	O	1.582879	-0.264481	-0.740977
O16	O	1.582610	-0.443919	-0.441516
O17	O	1.453597	-0.443886	-0.570556
C18	C	1.245279	-0.303184	-0.506085
C19	C	1.128503	-0.303196	-0.506101
C20	C	1.073647	-0.343504	-0.573172
C21	C	0.963923	-0.343506	-0.573193
C22	C	0.963921	-0.262891	-0.439063
C23	C	1.073643	-0.262886	-0.439048
C24	C	1.518109	-0.466743	-0.506048
C25	C	1.518146	-0.536711	-0.506058
C26	C	1.585383	-0.569574	-0.438936
C27	C	1.585432	-0.635316	-0.438960
C28	C	1.518226	-0.668194	-0.506094
C29	C	1.450985	-0.635323	-0.573230
C30	C	1.450945	-0.569582	-0.573212
N31	N	1.426319	-0.771460	-0.514097
N32	N	1.426360	-0.833912	-0.514108
C33	C	1.518344	-0.866268	-0.506155
N34	N	1.610287	-0.833814	-0.498169
N35	N	1.610245	-0.771357	-0.498153
C36	C	1.518262	-0.739479	-0.506122
C37	C	1.585640	-0.970417	-0.439054
C38	C	1.585691	-1.036160	-0.439085
C39	C	1.451233	-1.036166	-0.573350
C40	C	1.451192	-0.970423	-0.573325
C41	C	1.518393	-0.937553	-0.506171
C42	C	1.792280	-0.303200	-0.506128
C43	C	1.909057	-0.303203	-0.506137
C44	C	1.518325	-0.303131	-0.780140
C45	C	1.518359	-0.303105	-0.896916
C46	C	1.518414	-0.139001	-0.506188
C47	C	1.518485	-0.069033	-0.506222
C48	C	1.585601	-0.262839	-0.951805
C49	C	1.585619	-0.262812	-1.061529
C50	C	1.451149	-0.343322	-1.061466
C51	C	1.451127	-0.343346	-0.951744
C52	C	1.518229	-0.303206	-0.233139
C53	C	1.518399	-0.303055	-0.116363
H54	H	1.118308	-0.230058	-0.384431
H55	H	1.640449	-1.062916	-0.384429
H56	H	1.640343	-0.230071	-0.907168
H57	H	1.640373	-0.230023	-1.106215
O58	O	1.386000	-0.382480	-1.114776
C59	C	1.445786	-0.423117	-1.178251
H60	H	1.528521	-0.427016	-1.145194
H61	H	1.449444	-0.403636	-1.261417
C62	C	1.292772	-0.483764	-1.220496
C63	C	1.394386	-0.488558	-1.179890
H64	H	1.261065	-0.524131	-1.221512
H65	H	1.252492	-0.456386	-1.177735
H66	H	1.295835	-0.467528	-1.289798
H67	H	1.391321	-0.504786	-1.110585
H68	H	1.434665	-0.515941	-1.222640
O69	O	1.386017	-0.938470	-0.638631
C70	C	1.445770	-0.900363	-0.706515
H71	H	1.528526	-0.920124	-0.713087
H72	H	1.449374	-0.850553	-0.674021
C73	C	1.292739	-0.875056	-0.807616
C74	C	1.394379	-0.899330	-0.815694
H75	H	1.261037	-0.874416	-0.874961
H76	H	1.252481	-0.900727	-0.761879
H77	H	1.295756	-0.833550	-0.780533
H78	H	1.391358	-0.940838	-0.842764
H79	H	1.434635	-0.873666	-0.861438
O80	O	1.385772	-0.382523	-0.898580
C81	C	1.326425	-0.418029	-0.970498
H82	H	1.369469	-0.420196	-1.048719
H83	H	1.246659	-0.394971	-0.982165
C84	C	1.258337	-0.482371	-0.831560
C85	C	1.311209	-0.485037	-0.927630
H86	H	1.248946	-0.523704	-0.805116
H87	H	1.298317	-0.458449	-0.783106
H88	H	1.191871	-0.463153	-0.841295
H89	H	1.377678	-0.504247	-0.917891
H90	H	1.271239	-0.508964	-0.976081
O91	O	1.386096	-1.068163	-0.638621
C92	C	1.445904	-1.106109	-0.706561
H93	H	1.525548	-1.115933	-0.669579
H94	H	1.457394	-1.080724	-0.784420
C95	C	1.290309	-1.156513	-0.770982
C96	C	1.388125	-1.168583	-0.725555
H97	H	1.254667	-1.195048	-0.782703
H98	H	1.250014	-1.130946	-0.725213
H99	H	1.299897	-1.135357	-0.835859
H100	H	1.378535	-1.189730	-0.660674
H101	H	1.428417	-1.194154	-0.771315
O102	O	0.910752	-0.382632	-0.638489
C103	C	0.937612	-0.368942	-0.743241
H104	H	1.017299	-0.344741	-0.745481
H105	H	0.875905	-0.336607	-0.778742
C106	C	0.844794	-0.460080	-0.803932
C107	C	0.942671	-0.430362	-0.806684
H108	H	0.847910	-0.497966	-0.843070
H109	H	0.826693	-0.469303	-0.733359
H110	H	0.793382	-0.433128	-0.833515
H111	H	0.994078	-0.457310	-0.777090
H112	H	0.960780	-0.421145	-0.877254
O113	O	0.910465	-0.223796	-0.373963
C114	C	0.801857	-0.232432	-0.388376
H115	H	0.786848	-0.281038	-0.422629
H116	H	0.770780	-0.195137	-0.444450
C117	C	0.763909	-0.166884	-0.240030
C118	C	0.745475	-0.226586	-0.282093
H119	H	0.729128	-0.163275	-0.174472
H120	H	0.837080	-0.161064	-0.230322
H121	H	0.738012	-0.135812	-0.286769
H122	H	0.771384	-0.257656	-0.235361
H123	H	0.672307	-0.232411	-0.291790
O124	O	1.650519	-0.537618	-0.373599
C125	C	1.590721	-0.499644	-0.305694
H126	H	1.507987	-0.519501	-0.299138
H127	H	1.587062	-0.449805	-0.338159
C128	C	1.743720	-0.474276	-0.204572
C129	C	1.642107	-0.498668	-0.196513
H130	H	1.775419	-0.473671	-0.137225
H131	H	1.784008	-0.499858	-0.250323
H132	H	1.740657	-0.432746	-0.231630
H133	H	1.645173	-0.540200	-0.169469
H134	H	1.601821	-0.473093	-0.150755
O135	O	1.650778	-0.667151	-0.373651
C136	C	1.710103	-0.624041	-0.314398
H137	H	1.667049	-0.577202	-0.310713
H138	H	1.789877	-0.616989	-0.352930
C139	C	1.778181	-0.707276	-0.207125
C140	C	1.725297	-0.649749	-0.202592
H141	H	1.787558	-0.723134	-0.138159
H142	H	1.738216	-0.736321	-0.247047
H143	H	1.844654	-0.701392	-0.239240
H144	H	1.658821	-0.655635	-0.170490
H145	H	1.765251	-0.620705	-0.162662
H146	H	1.118311	-0.376325	-0.627773
O147	O	1.385666	-0.667160	-0.638543
C148	C	1.326290	-0.624053	-0.697766
H149	H	1.369294	-0.577165	-0.701430
H150	H	1.246512	-0.617124	-0.659223
C151	C	1.258289	-0.707253	-0.805078
C152	C	1.311112	-0.649666	-0.809585
H153	H	1.248922	-0.723053	-0.874051
H154	H	1.298288	-0.736296	-0.765175
H155	H	1.191813	-0.701471	-0.772953
H156	H	1.377591	-0.655451	-0.841696
H157	H	1.271124	-0.620625	-0.849495
O158	O	1.651018	-0.938579	-0.373796
C159	C	1.710363	-0.981685	-0.314542
H160	H	1.714015	-1.028523	-0.357596
H161	H	1.671933	-0.988743	-0.234719
C162	C	1.817685	-0.898443	-0.246603
C163	C	1.822177	-0.955968	-0.299488
H164	H	1.886655	-0.882579	-0.237313
H165	H	1.777701	-0.869400	-0.286521
H166	H	1.785655	-0.904332	-0.180090
H167	H	1.854194	-0.950076	-0.366005
H168	H	1.862169	-0.985009	-0.259582
H169	H	1.396192	-0.542825	-0.627872
