data_functionalizedCrystal
_audit_creation_method	'MofGen! by Chris Wilmer'
_symmetry_space_group_name_H-M	'P1'
_symmetry_Int_Tables_number	1
_symmetry_cell_setting	triclinic
loop_
_symmetry_equiv_pos_as_xyz
  x,y,z
_cell_length_a	18.050591
_cell_length_b	18.215405
_cell_length_c	18.215399
_cell_angle_alpha	90.032960
_cell_angle_beta	89.977309
_cell_angle_gamma	89.979109
loop_
_atom_site_label
_atom_site_type_symbol
_atom_site_fract_x
_atom_site_fract_y
_atom_site_fract_z
Zn1	Zn	1.135323	0.293053	-0.416218
Zn2	Zn	1.135237	0.416129	-0.293146
Zn3	Zn	1.011138	0.293072	-0.293152
Zn4	Zn	1.011097	0.416073	-0.416158
O5	O	1.073199	0.354582	-0.354669
O6	O	1.239236	0.309394	-0.399914
O7	O	1.118756	0.399837	-0.190162
O8	O	1.027665	0.190086	-0.309505
O9	O	1.239173	0.399818	-0.309494
O10	O	1.118902	0.190071	-0.399921
O11	O	1.027581	0.309428	-0.190167
O12	O	0.907208	0.309374	-0.309447
O13	O	1.027595	0.399723	-0.519150
O14	O	0.907178	0.399742	-0.399819
O15	O	1.118863	0.309340	-0.519194
O16	O	1.118716	0.519106	-0.309436
O17	O	1.027511	0.519065	-0.399813
C18	C	0.880247	0.354555	-0.354628
C19	C	0.797701	0.354561	-0.354628
C20	C	1.073120	0.545788	-0.354633
C21	C	1.073155	0.627587	-0.354643
C22	C	1.073234	0.354523	-0.546622
C23	C	1.073249	0.354498	-0.628420
C24	C	0.598245	0.305361	-0.305597
C25	C	0.548829	0.372487	-0.287483
C26	C	0.646570	0.354583	-0.354661
C27	C	0.548905	0.287481	-0.372773
C28	C	0.500585	0.354599	-0.354692
C29	C	0.598241	0.421744	-0.336512
C30	C	0.598322	0.336692	-0.421833
C31	C	0.548928	0.403864	-0.403745
C32	C	0.730669	0.354573	-0.354642
C33	C	0.416489	0.354616	-0.354712
C34	C	1.266904	0.354610	-0.354710
C35	C	1.349450	0.354622	-0.354727
C36	C	1.073298	0.162629	-0.354720
C37	C	1.073340	0.080830	-0.354742
C38	C	1.120757	0.815778	-0.307670
C39	C	1.120790	0.892637	-0.307688
C40	C	1.025736	0.892634	-0.401720
C41	C	1.025707	0.815777	-0.401705
C42	C	1.073216	0.777351	-0.354676
C43	C	1.073278	0.931067	-0.354709
C44	C	1.073314	1.014400	-0.354728
C45	C	1.073182	0.694012	-0.354657
C46	C	1.025814	0.307390	-0.816618
C47	C	1.025827	0.307375	-0.893477
C48	C	1.120772	0.401518	-0.893461
C49	C	1.120755	0.401536	-0.816604
C50	C	1.073277	0.354468	-0.778184
C51	C	1.073307	0.354435	-0.931900
C52	C	1.073321	0.354419	-1.015234
C53	C	1.073262	0.354485	-0.694845
C54	C	1.073206	0.354587	-0.163462
C55	C	1.073335	0.354405	-0.081664
H56	H	0.619899	0.263781	-0.264060
C57	C	1.173022	0.773512	-0.255941
N58	N	1.212392	0.741679	-0.216979
H59	H	0.527090	0.387630	-0.230690
H60	H	0.986994	0.784487	-0.439987
C61	C	0.627394	0.498437	-0.315740
N62	N	0.649354	0.556200	-0.300091
H63	H	0.987154	0.269064	-0.785339
H64	H	1.159407	0.439875	-0.785310
C65	C	0.519630	0.210808	-0.393455
N66	N	0.497584	0.153057	-0.409027
H67	H	0.987177	0.269041	-0.924766
H68	H	0.527410	0.445544	-0.445250
H69	H	1.159427	0.439839	-0.924751
C70	C	0.627722	0.316203	-0.498533
N71	N	0.649870	0.300761	-0.556303
H72	H	1.159503	0.923921	-0.269412
C73	C	0.973470	0.934910	-0.453441
N74	N	0.934099	0.966751	-0.492395
