data_functionalizedCrystal
_audit_creation_method	'MofGen! by Chris Wilmer'
_symmetry_space_group_name_H-M	'P1'
_symmetry_Int_Tables_number	1
_symmetry_cell_setting	triclinic
loop_
_symmetry_equiv_pos_as_xyz
  x,y,z
_cell_length_a	21.295418
_cell_length_b	14.908780
_cell_length_c	14.908694
_cell_angle_alpha	96.797826
_cell_angle_beta	93.265237
_cell_angle_gamma	86.683646
loop_
_atom_site_label
_atom_site_type_symbol
_atom_site_fract_x
_atom_site_fract_y
_atom_site_fract_z
Zn1	Zn	-0.217623	-1.413354	-0.591787
Zn2	Zn	-0.317160	-1.404503	-0.440409
Zn3	Zn	-0.217636	-1.253250	-0.431688
Zn4	Zn	-0.328589	-1.261928	-0.582976
O5	O	-0.270252	-1.333259	-0.511715
O6	O	-0.226038	-1.538852	-0.579044
O7	O	-0.299181	-1.377103	-0.312586
O8	O	-0.129544	-1.274560	-0.452964
O9	O	-0.299167	-1.532350	-0.467827
O10	O	-0.129534	-1.392188	-0.570588
O11	O	-0.226061	-1.265978	-0.306178
O12	O	-0.237143	-1.127728	-0.444419
O13	O	-0.318646	-1.289350	-0.710811
O14	O	-0.318660	-1.134104	-0.555569
O15	O	-0.237120	-1.400602	-0.717285
O16	O	-0.406767	-1.385518	-0.459283
O17	O	-0.415164	-1.280768	-0.564026
C18	C	-0.279144	-1.098071	-0.498092
C19	C	-0.282963	-0.997459	-0.492286
C20	C	-0.214108	-0.815176	-0.597362
C21	C	-0.217695	-0.720641	-0.591909
C22	C	-0.293720	-0.713853	-0.475924
C23	C	-0.290133	-0.808388	-0.481376
C24	C	-0.250327	-0.859046	-0.542098
C25	C	-0.246743	-0.953582	-0.547555
C26	C	-0.322765	-0.946792	-0.431566
C27	C	-0.326352	-0.852258	-0.426113
C28	C	-0.433806	-1.333150	-0.511666
C29	C	-0.503773	-1.333188	-0.511680
C30	C	-0.998834	-1.388027	-0.457334
C31	C	-0.933092	-1.387992	-0.457311
C32	C	-0.904609	-1.333390	-0.511786
C33	C	-0.941873	-1.278802	-0.566271
C34	C	-1.007614	-1.278832	-0.566286
N35	N	-0.804625	-1.330921	-0.590583
N36	N	-0.742174	-1.330897	-0.590567
C37	C	-0.706536	-1.333293	-0.511742
N38	N	-0.735708	-1.335731	-0.432934
N39	N	-0.798165	-1.335760	-0.432952
C40	C	-0.833324	-1.333350	-0.511775
C41	C	-0.597995	-1.387834	-0.457230
C42	C	-0.532252	-1.387792	-0.457205
C43	C	-0.541035	-1.278607	-0.566174
C44	C	-0.606776	-1.278644	-0.566191
C45	C	-0.635252	-1.333263	-0.511721
C46	C	-0.106059	-1.333393	-0.511786
C47	C	-0.036090	-1.333451	-0.511816
C48	C	-0.279157	-1.346932	-0.747810
C49	C	-0.282951	-1.352758	-0.848419
C50	C	-0.261321	-0.569364	-0.525385
C51	C	-0.257501	-0.669977	-0.531193
C52	C	-0.213945	-1.247971	-1.030803
C53	C	-0.217508	-1.253443	-1.125334
C54	C	-0.293645	-1.369167	-1.132014
C55	C	-0.290081	-1.363696	-1.037483
C56	C	-0.250229	-1.303097	-0.986881
C57	C	-0.246663	-1.297630	-0.892348
C58	C	-0.322802	-1.413350	-0.899029
C59	C	-0.326366	-1.418822	-0.993561
C60	C	-0.261335	-1.319691	-0.276542
C61	C	-0.257356	-1.314040	-0.175943
H62	H	-0.326122	-0.672590	-0.426477
H63	H	-0.621181	-1.432306	-0.412876
H64	H	-0.358814	-1.468157	-1.034774
H65	H	-0.358759	-0.810999	-0.376672
H66	H	-0.501917	-1.432232	-0.412834
N67	N	-0.895023	-1.443733	-0.401649
N68	N	-0.899458	-1.432977	-0.317777
H69	H	-0.872572	-1.472344	-0.278466
N70	N	-1.045665	-1.223072	-0.621943
N71	N	-1.020230	-1.174316	-0.670573
H72	H	-1.047103	-1.134934	-0.709882
N73	N	-0.511938	-1.222836	-0.621813
N74	N	-0.453241	-1.222815	-0.621794
H75	H	-0.432688	-1.183425	-0.661091
H76	H	-0.352262	-0.982521	-0.386573
N77	N	-1.027910	-1.443829	-0.401697
N78	N	-0.994632	-1.492559	-0.353059
H79	H	-1.015168	-1.531972	-0.313766
N80	N	-0.359851	-1.469676	-0.854150
N81	N	-0.356656	-1.464798	-0.769748
H82	H	-0.382815	-1.504584	-0.738051
H83	H	-0.637111	-1.234205	-0.610559
N84	N	-0.912772	-1.223027	-0.621906
N85	N	-0.854075	-1.223008	-0.621887
H86	H	-0.833521	-1.183613	-0.661178
N87	N	-0.180705	-0.675841	-0.648378
N88	N	-0.187720	-0.691259	-0.732500
H89	H	-0.161596	-0.659619	-0.772386
N90	N	-0.173245	-1.186065	-0.979112
N91	N	-0.195584	-1.125307	-0.923013
H92	H	-0.166839	-1.081584	-0.886508
N93	N	-0.205947	-1.235737	-0.840671
N94	N	-0.173552	-1.186526	-0.879904
H95	H	-0.144795	-1.142811	-0.843410
H96	H	-0.187962	-1.208554	-1.161092
N97	N	-0.334354	-1.431046	-1.183725
N98	N	-0.337533	-1.435912	-1.268126
H99	H	-0.366286	-1.479612	-1.304648
N100	N	-0.206072	-1.005330	-0.609562
N101	N	-0.162727	-1.056252	-0.580852
H102	H	-0.133999	-1.092798	-0.624643
N103	N	-0.173451	-0.866914	-0.659396
N104	N	-0.141119	-0.827732	-0.708739
H105	H	-0.112404	-0.864270	-0.752552
