data_functionalizedCrystal
_audit_creation_method	'MofGen! by Chris Wilmer'
_symmetry_space_group_name_H-M	'P1'
_symmetry_Int_Tables_number	1
_symmetry_cell_setting	triclinic
loop_
_symmetry_equiv_pos_as_xyz
  x,y,z
_cell_length_a	13.339070
_cell_length_b	13.262508
_cell_length_c	11.804365
_cell_angle_alpha	117.325227
_cell_angle_beta	74.875130
_cell_angle_gamma	99.430496
loop_
_atom_site_label
_atom_site_type_symbol
_atom_site_fract_x
_atom_site_fract_y
_atom_site_fract_z
O1	O	1.328993	0.538430	0.075332
O2	O	1.039025	0.465650	0.051765
O3	O	1.201992	0.343501	0.012204
O4	O	1.166026	0.660579	0.114893
O5	O	1.159092	0.375613	0.220660
O6	O	0.996125	0.497762	0.260221
O7	O	1.286093	0.570542	0.283788
Cu8	Cu	1.137192	0.537084	0.291038
Cu9	Cu	1.187926	0.499108	0.044514
O10	O	1.123126	0.692691	0.323349
C11	C	0.980656	0.469412	0.152011
C12	C	0.870649	0.432766	0.140145
C13	C	0.488010	0.717700	0.232405
C14	C	0.591367	0.752134	0.243551
C15	C	0.661192	0.672295	0.217701
C16	C	0.627652	0.558017	0.180701
C17	C	0.524287	0.523579	0.169544
C18	C	0.697469	0.478173	0.154840
C19	C	0.663928	0.363895	0.117840
C20	C	0.560573	0.329463	0.106685
C21	C	0.490747	0.409302	0.132536
C22	C	0.800833	0.512611	0.165998
C23	C	0.837110	0.318489	0.103137
C24	C	0.733753	0.284056	0.091990
C25	C	1.182471	0.318145	0.103017
C26	C	1.188207	0.194747	0.063046
C27	C	1.110829	-0.083087	0.404906
C28	C	1.105432	0.032850	0.442461
C29	C	1.126125	0.073331	0.347611
C30	C	1.152217	-0.002139	0.215198
C31	C	1.157607	-0.118089	0.177638
C32	C	1.172903	0.038329	0.120343
C33	C	1.198995	-0.037141	-0.012070
C34	C	1.204385	-0.153079	-0.049623
C35	C	1.183691	-0.193559	0.045227
C36	C	1.167513	0.154279	0.157903
C37	C	1.214291	0.119277	-0.069364
C38	C	1.219689	0.003339	-0.106920
C39	C	1.344463	0.566779	0.183538
C40	C	1.454471	0.603424	0.195397
C41	C	1.142648	0.718046	0.232532
C42	C	1.136913	0.841443	0.272495
N43	N	1.101515	0.563796	0.464430
N44	N	1.223611	0.472389	-0.128880
C45	C	1.309285	0.408223	0.787992
C46	C	1.336274	0.388010	0.656784
C47	C	1.277586	0.431954	0.608689
C48	C	1.191906	0.496116	0.691815
C49	C	1.164920	0.516338	0.823039
C50	C	1.133221	0.540070	0.643735
C51	C	1.047540	0.604231	0.726861
C52	C	1.020558	0.624449	0.858071
C53	C	1.079246	0.580504	0.906167
C54	C	1.160207	0.519847	0.512512
C55	C	1.015841	0.627963	0.547558
C56	C	0.988853	0.648175	0.678766
H57	H	0.406584	0.381272	0.123462
F58	F	0.413698	0.802654	0.259895
F59	F	0.771193	0.708945	0.229568
F60	F	0.911420	0.233511	0.075614
F61	F	1.139746	0.234586	0.298822
H62	H	1.057270	0.596957	1.013005
H63	H	1.229968	0.467608	0.444841
F64	F	1.077650	0.113159	0.583378
H65	H	0.533271	0.236408	0.076544
H66	H	1.093976	-0.116059	0.482118
F67	F	0.698044	0.162435	0.052612
F68	F	1.189435	-0.316954	0.005263
F69	F	0.627058	0.873750	0.282923
H70	H	0.950800	0.676703	0.925757
H71	H	1.121727	0.167733	0.378197
H72	H	1.357066	0.372456	0.827164
F73	F	1.306310	0.410439	0.469044
H74	H	1.406034	0.335772	0.589108
F75	F	1.232141	-0.233399	-0.190550
H76	H	0.919090	0.700417	0.746464
H77	H	0.968054	0.663749	0.508402
H78	H	1.240932	-0.058124	-0.214733
F79	F	1.236300	0.162349	-0.170320
H80	H	0.828131	0.605657	0.196128
