data_functionalizedCrystal
_audit_creation_method	'MofGen! by Chris Wilmer'
_symmetry_space_group_name_H-M	'P1'
_symmetry_Int_Tables_number	1
_symmetry_cell_setting	triclinic
loop_
_symmetry_equiv_pos_as_xyz
  x,y,z
_cell_length_a	15.944551
_cell_length_b	15.944551
_cell_length_c	15.021413
_cell_angle_alpha	89.996935
_cell_angle_beta	89.997174
_cell_angle_gamma	96.501262
loop_
_atom_site_label
_atom_site_type_symbol
_atom_site_fract_x
_atom_site_fract_y
_atom_site_fract_z
O1	O	1.114529	-0.108321	-0.073941
O2	O	0.869979	-0.121677	-0.073964
O3	O	0.998932	0.007276	-0.073944
O4	O	0.985576	-0.237274	-0.073961
O5	O	0.998912	0.007257	0.074121
O6	O	0.869959	-0.121695	0.074101
O7	O	1.114508	-0.108339	0.074123
Zn8	Zn	0.992230	-0.115020	0.097620
Zn9	Zn	0.992257	-0.114996	-0.097461
O10	O	0.985555	-0.237292	0.074103
C11	C	0.838675	-0.121132	0.000066
C12	C	0.745429	-0.119470	0.000057
C13	C	0.530572	-0.035565	0.000081
C14	C	0.469562	-0.074518	-0.072926
C15	C	0.574703	-0.116462	0.000068
C16	C	0.469564	-0.074556	0.073054
C17	C	0.409790	-0.113551	0.000083
C18	C	0.514921	-0.155438	-0.072998
C19	C	0.514930	-0.155464	0.073047
C20	C	0.453937	-0.194476	0.000023
C21	C	0.669705	-0.118137	0.000059
C22	C	0.314789	-0.111883	0.000085
C23	C	0.998367	0.038561	0.000089
C24	C	0.996705	0.131807	0.000089
C25	C	1.145813	-0.108885	0.000092
C26	C	1.239059	-0.110547	0.000094
C27	C	0.986120	-0.268577	0.000069
C28	C	0.987782	-0.361823	0.000063
N29	N	0.992218	-0.115036	0.230758
C30	C	0.912801	0.346663	0.000069
C31	C	0.951753	0.407672	0.073077
C32	C	0.993698	0.302533	0.000082
C33	C	0.951792	0.407673	-0.072903
C34	C	0.990787	0.467445	0.000071
C35	C	1.032672	0.362313	0.073150
C36	C	1.032700	0.362308	-0.072895
C37	C	1.071711	0.423298	0.000131
C38	C	0.995372	0.207530	0.000089
C39	C	0.989119	0.562446	0.000070
N40	N	0.992276	-0.114973	-0.230598
C41	C	0.932581	-0.174636	0.470432
C42	C	1.008481	-0.190943	0.529772
C43	C	0.992239	-0.115015	0.412365
C44	C	0.916360	-0.098727	0.529766
C45	C	0.992253	-0.114997	0.587789
C46	C	1.068178	-0.131360	0.470398
C47	C	0.976006	-0.039111	0.470387
C48	C	1.051962	-0.055386	0.529701
C49	C	0.992230	-0.115028	0.311307
C50	C	0.992271	-0.114984	0.688844
H51	H	0.534918	-0.189621	-0.134787
N52	N	0.444353	-0.031645	0.150492
N53	N	0.394554	-0.069622	0.205159
H54	H	0.376750	-0.039312	0.259847
N55	N	0.908864	0.432899	-0.150323
N56	N	0.844532	0.470358	-0.142216
H57	H	0.814208	0.488173	-0.196890
N58	N	1.156019	0.464902	0.000205
N59	N	1.180425	0.513824	0.062341
H60	H	1.239966	0.543208	0.062399
N61	N	0.869356	-0.237941	0.437793
N62	N	0.872763	-0.313793	0.456852
H63	H	0.828114	-0.358504	0.433801
H64	H	1.066896	0.342185	-0.134615
H65	H	0.962240	0.025051	0.444283
H66	H	1.066851	0.342314	0.134941
N67	N	1.115314	0.007876	0.562172
N68	N	1.094873	0.066585	0.609753
H69	H	1.139617	0.111260	0.632692
N70	N	1.025729	-0.271447	0.562521
N71	N	1.089164	-0.277035	0.610110
H72	H	1.101341	-0.333892	0.633240
N73	N	0.412346	-0.278788	-0.000039
N74	N	0.424064	-0.327622	-0.062780
H75	H	0.394690	-0.387167	-0.062828
N76	N	0.540169	-0.198357	0.150479
N77	N	0.525885	-0.170795	0.226229
H78	H	0.543712	-0.201083	0.280923
H79	H	0.845652	0.313356	0.000136
N80	N	0.835859	-0.081455	0.562501
N81	N	0.793575	-0.133962	0.611190
H82	H	0.736720	-0.121770	0.634310
N83	N	0.572349	0.048674	-0.000008
N84	N	0.560782	0.097524	-0.062787
H85	H	0.590286	0.157016	-0.062854
N86	N	0.444358	-0.031582	-0.150351
N87	N	0.472128	0.043912	-0.163358
H88	H	0.454334	0.074241	-0.218039
N89	N	1.148711	-0.148716	0.437832
N90	N	1.191388	-0.096002	0.389707
H91	H	1.248263	-0.108261	0.366706
N92	N	0.908812	0.432884	0.150496
N93	N	0.833316	0.405118	0.163497
H94	H	0.802983	0.422922	0.218171
