data_functionalizedCrystal
_audit_creation_method	'MofGen! by Chris Wilmer'
_symmetry_space_group_name_H-M	'P1'
_symmetry_Int_Tables_number	1
_symmetry_cell_setting	triclinic
loop_
_symmetry_equiv_pos_as_xyz
  x,y,z
_cell_length_a	17.699077
_cell_length_b	11.026607
_cell_length_c	16.776229
_cell_angle_alpha	89.996140
_cell_angle_beta	89.993415
_cell_angle_gamma	95.933297
loop_
_atom_site_label
_atom_site_type_symbol
_atom_site_fract_x
_atom_site_fract_y
_atom_site_fract_z
O1	O	1.025153	0.153364	-0.066275
O2	O	0.807517	0.173329	-0.066279
O3	O	0.898297	-0.013253	-0.066274
O4	O	0.934372	0.339945	-0.066280
O5	O	0.898280	-0.013264	0.066302
O6	O	0.807500	0.173317	0.066298
O7	O	1.025136	0.153352	0.066301
Zn8	Zn	0.916315	0.163333	0.087349
Zn9	Zn	0.916337	0.163348	-0.087326
O10	O	0.934355	0.339934	0.066297
C11	C	0.779213	0.172609	0.000009
C12	C	0.694900	0.170466	0.000008
C13	C	0.655285	0.169451	0.072276
C14	C	0.576063	0.167418	0.072277
C15	C	0.536459	0.166410	0.000008
C16	C	0.576079	0.167422	-0.072265
C17	C	0.655299	0.169446	-0.072266
C18	C	0.256594	0.159259	-0.072267
C19	C	0.177369	0.157239	-0.072261
C20	C	0.177358	0.157231	0.072275
C21	C	0.256578	0.159255	0.072275
C22	C	0.296192	0.160261	0.000002
C23	C	0.382093	0.162462	0.000002
C24	C	0.450559	0.164217	0.000008
C25	C	0.891634	-0.058450	0.000013
C26	C	0.871794	-0.193105	0.000010
C27	C	0.926574	-0.267074	0.000009
C28	C	0.906070	-0.406247	0.000006
C29	C	1.053439	0.154072	0.000012
C30	C	1.137752	0.156215	0.000008
C31	C	0.941019	0.385131	0.000008
C32	C	0.960858	0.519786	0.000006
N33	N	0.916305	0.163322	0.206560
N34	N	0.916352	0.163349	-0.206538
C35	C	0.956523	0.080737	0.248279
C36	C	0.956527	0.080736	0.331731
C37	C	0.916317	0.163327	0.373463
C38	C	0.876094	0.245915	0.331738
C39	C	0.876086	0.245909	0.248287
C40	C	0.876125	0.245939	0.668285
C41	C	0.876138	0.245941	0.751742
C42	C	0.956566	0.080766	0.751729
C43	C	0.956558	0.080760	0.668278
C44	C	0.916332	0.163344	0.626561
C45	C	0.916327	0.163342	0.536073
C46	C	0.916326	0.163335	0.463950
H47	H	0.543827	0.166593	-0.131108
H48	H	0.988652	-0.227367	0.000015
H49	H	0.687526	0.170281	0.131125
C50	C	0.532490	0.166310	0.151772
H51	H	0.567424	0.167217	0.194812
H52	H	0.497727	0.094812	0.154784
H53	H	0.505446	0.236240	0.154770
H54	H	0.288821	0.160082	0.131124
C55	C	0.822203	-0.459868	0.000004
H56	H	0.819424	-0.546374	0.000007
H57	H	0.797728	-0.433154	-0.046227
H58	H	0.797719	-0.433173	0.046243
H59	H	0.989275	0.013489	0.365699
C60	C	1.000786	-0.010092	0.622378
H61	H	1.024733	-0.059287	0.659177
H62	H	1.038221	0.033472	0.589810
H63	H	0.966678	-0.060536	0.589838
H64	H	1.022941	-0.440516	-0.000053
H65	H	0.809716	-0.232811	0.000003
H66	H	0.288838	0.160074	-0.131116
C67	C	1.000753	-0.010115	0.202381
H68	H	1.024700	-0.059307	0.239183
H69	H	1.038190	0.033450	0.169815
H70	H	0.966648	-0.060561	0.169841
C71	C	1.000805	-0.010088	0.797621
H72	H	0.995046	0.001729	0.853298
H73	H	1.053094	0.002982	0.783933
H74	H	0.981554	-0.091033	0.783950
C75	C	0.133787	0.156216	0.151776
H76	H	0.080935	0.154885	0.141430
H77	H	0.150651	0.227289	0.181423
H78	H	0.142888	0.085860	0.181515
H79	H	0.843392	0.313198	0.785718
C80	C	0.831886	0.336787	0.622406
H81	H	0.807949	0.385983	0.659214
H82	H	0.794441	0.293220	0.589863
H83	H	0.865984	0.387230	0.589843
H84	H	0.843350	0.313158	0.365721
H85	H	0.843336	0.313157	0.214321
H86	H	0.145125	0.156417	-0.131114
H87	H	0.687553	0.170276	-0.131114
