data_functionalizedCrystal
_audit_creation_method	'MofGen! by Chris Wilmer'
_symmetry_space_group_name_H-M	'P1'
_symmetry_Int_Tables_number	1
_symmetry_cell_setting	triclinic
loop_
_symmetry_equiv_pos_as_xyz
  x,y,z
_cell_length_a	12.759401
_cell_length_b	16.625545
_cell_length_c	12.759393
_cell_angle_alpha	90.032957
_cell_angle_beta	89.980324
_cell_angle_gamma	89.975537
loop_
_atom_site_label
_atom_site_type_symbol
_atom_site_fract_x
_atom_site_fract_y
_atom_site_fract_z
Zn1	Zn	1.606198	0.320953	-0.593967
Zn2	Zn	1.606061	0.455808	-0.418279
Zn3	Zn	1.430497	0.320994	-0.418306
Zn4	Zn	1.430460	0.455749	-0.593920
O5	O	1.518304	0.388376	-0.506118
O6	O	1.753201	0.338850	-0.570670
O7	O	1.582730	0.437966	-0.271262
O8	O	1.453877	0.208156	-0.441638
O9	O	1.753100	0.437927	-0.441593
O10	O	1.582964	0.208126	-0.570695
O11	O	1.453744	0.338919	-0.271281
O12	O	1.283471	0.338862	-0.441593
O13	O	1.453814	0.437826	-0.740948
O14	O	1.283444	0.437865	-0.570616
O15	O	1.582928	0.338793	-0.740982
O16	O	1.582694	0.568632	-0.441548
O17	O	1.453681	0.568589	-0.570591
C18	C	1.245337	0.388362	-0.506103
C19	C	1.128560	0.388376	-0.506122
C20	C	1.073751	0.336879	-0.573436
C21	C	0.964027	0.336888	-0.573443
C22	C	0.963930	0.439895	-0.438819
C23	C	1.073652	0.439882	-0.438807
C24	C	1.518197	0.597867	-0.506084
C25	C	1.518247	0.687488	-0.506105
C26	C	1.518419	1.015663	-0.506231
C27	C	1.518368	0.924355	-0.506199
C28	C	1.518332	0.851579	-0.506167
C29	C	1.518283	0.760264	-0.506136
C30	C	1.792337	0.388390	-0.506134
C31	C	1.909114	0.388397	-0.506140
C32	C	1.518383	0.388299	-0.780152
C33	C	1.518416	0.388266	-0.896928
C34	C	1.518431	1.178067	-0.506187
C35	C	1.518462	1.088446	-0.506248
C36	C	1.585651	0.336691	-0.951810
C37	C	1.585669	0.336656	-1.061534
C38	C	1.451214	0.439778	-1.061485
C39	C	1.451192	0.439808	-0.951763
C40	C	1.518286	0.388395	-0.233151
C41	C	1.518456	0.388201	-0.116375
H42	H	1.118279	0.481817	-0.383987
C43	C	1.659581	0.279986	-0.891494
H44	H	1.699617	0.249259	-0.939899
H45	H	1.705331	0.310838	-0.848686
H46	H	1.619393	0.244862	-0.848701
H47	H	1.118454	0.294937	-0.628244
H48	H	1.640416	0.294657	-1.106213
H49	H	1.396485	0.481744	-1.106146
H50	H	1.396434	0.481806	-0.907078
H51	H	0.919211	0.481831	-0.384015
C52	C	0.903742	0.280246	-0.647493
H53	H	0.952161	0.249576	-0.687584
H54	H	0.860934	0.245079	-0.607395
H55	H	0.860950	0.311144	-0.693204
