data_functionalizedCrystal
_audit_creation_method	'MofGen! by Chris Wilmer'
_symmetry_space_group_name_H-M	'P1'
_symmetry_Int_Tables_number	1
_symmetry_cell_setting	triclinic
loop_
_symmetry_equiv_pos_as_xyz
  x,y,z
_cell_length_a	11.026607
_cell_length_b	9.730223
_cell_length_c	10.967829
_cell_angle_alpha	102.129239
_cell_angle_beta	96.380563
_cell_angle_gamma	90.000202
loop_
_atom_site_label
_atom_site_type_symbol
_atom_site_fract_x
_atom_site_fract_y
_atom_site_fract_z
O1	O	1.614514	0.238273	0.523501
O2	O	1.260712	0.224157	0.463889
O3	O	1.445774	0.188622	0.313880
O4	O	1.429452	0.273807	0.673510
O5	O	1.445772	-0.039957	0.313884
O6	O	1.260710	-0.004422	0.463893
O7	O	1.614512	0.009694	0.523505
Zn8	Zn	1.437611	-0.033656	0.493700
Zn9	Zn	1.437613	0.267507	0.493694
O10	O	1.429450	0.045228	0.673515
C11	C	1.215408	0.107263	0.452894
C12	C	1.080421	0.099499	0.420111
N13	N	1.437617	-0.239191	0.493705
C14	C	1.007369	0.120942	0.510631
C15	C	0.867853	0.112918	0.476750
C16	C	1.519584	-0.326844	0.427314
C17	C	1.519581	-0.470731	0.427298
C18	C	1.355640	-0.439297	0.560074
C19	C	1.355639	-0.295415	0.560082
C20	C	1.601563	-0.270620	0.360937
C21	C	1.683537	-0.358274	0.294542
C22	C	1.683534	-0.502161	0.294526
C23	C	1.601557	-0.558394	0.360905
C24	C	1.659816	0.126591	0.534500
C25	C	1.794802	0.134363	0.567284
C26	C	1.444585	0.063261	0.267126
C27	C	1.441031	0.030269	0.127804
N28	N	1.437616	0.473040	0.493681
C29	C	1.439448	0.133972	0.065694
C30	C	1.435775	0.099876	-0.078303
C31	C	1.430639	0.170593	0.720269
C32	C	1.434192	0.203594	0.859590
H33	H	1.048115	0.145232	0.613212
C34	C	0.977352	0.168816	0.712539
C35	C	0.849785	0.167200	0.705777
H36	H	1.011293	0.189106	0.798038
H37	H	1.003646	0.079525	0.672119
H38	H	1.003630	0.238934	0.672062
H39	H	0.823506	0.097075	0.746246
H40	H	0.823480	0.256504	0.746214
H41	H	1.750274	-0.312484	0.240490
H42	H	1.434404	-0.014158	-0.131728
C43	C	1.145784	-0.477466	0.586069
C44	C	1.265541	-0.501109	0.633038
H45	H	1.090163	-0.515634	0.631112
H46	H	1.134056	-0.379241	0.595584
H47	H	1.131911	-0.521511	0.499656
H48	H	1.279416	-0.457055	0.719449
H49	H	1.277274	-0.599353	0.623534
H50	H	1.601576	-0.153461	0.360947
H51	H	1.039676	0.075236	0.317530
H52	H	0.827113	0.088654	0.374163
C53	C	1.441351	-0.213039	0.140652
C54	C	1.439187	-0.123670	0.055690
H55	H	1.440204	-0.308075	0.096130
H56	H	1.513425	-0.194328	0.198092
H57	H	1.371876	-0.197335	0.185338
H58	H	1.508667	-0.139366	0.011010
H59	H	1.367105	-0.142388	-0.001773
C60	C	1.845586	-0.518771	0.163292
C61	C	1.773635	-0.598512	0.221545
H62	H	1.901220	-0.578253	0.118246
H63	H	1.794613	-0.476000	0.106928
H64	H	1.889739	-0.447992	0.225203
H65	H	1.729476	-0.669285	0.159633
H66	H	1.824615	-0.641305	0.277914
C67	C	1.576046	-0.793699	0.237561
C68	C	1.601545	-0.716560	0.360880
H69	H	1.576047	-0.891340	0.237550
H70	H	1.498211	-0.769337	0.202969
H71	H	1.636602	-0.772749	0.188535
H72	H	1.540983	-0.737501	0.409904
H73	H	1.679390	-0.740932	0.395489
C74	C	1.286041	-0.203656	0.760432
C75	C	1.265548	-0.199048	0.633065
H76	H	1.230424	-0.144155	0.805484
H77	H	1.274301	-0.297380	0.769924
H78	H	1.367295	-0.172532	0.792269
H79	H	1.184297	-0.230182	0.601225
H80	H	1.277278	-0.105304	0.623565
C81	C	1.333468	0.380584	-0.002563
C82	C	1.435926	0.357559	-0.068364
H83	H	1.334513	0.475638	0.041901
H84	H	1.261437	0.361757	-0.060055
H85	H	1.334982	0.319986	0.055106
H86	H	1.434407	0.418150	-0.126040
H87	H	1.507976	0.376401	-0.010865
H88	H	1.440807	0.247998	0.119123
