data_functionalizedCrystal
_audit_creation_method	'MofGen! by Chris Wilmer'
_symmetry_space_group_name_H-M	'P1'
_symmetry_Int_Tables_number	1
_symmetry_cell_setting	triclinic
loop_
_symmetry_equiv_pos_as_xyz
  x,y,z
_cell_length_a	11.792241
_cell_length_b	16.109291
_cell_length_c	10.268362
_cell_angle_alpha	90.003314
_cell_angle_beta	89.998512
_cell_angle_gamma	83.825452
loop_
_atom_site_label
_atom_site_type_symbol
_atom_site_fract_x
_atom_site_fract_y
_atom_site_fract_z
O1	O	0.145828	1.103824	-0.108061
O2	O	0.163995	0.861846	-0.108116
O3	O	-0.010311	0.988707	-0.108078
O4	O	0.320134	0.976963	-0.108099
O5	O	-0.010305	0.988695	0.108522
O6	O	0.164001	0.861834	0.108484
O7	O	0.145834	1.103812	0.108540
Cu8	Cu	0.154918	0.982822	0.128289
Cu9	Cu	0.154911	0.982836	-0.127866
O10	O	0.320140	0.976951	0.108502
C11	C	-0.052592	0.987963	0.000222
C12	C	-0.178586	0.985755	0.000220
C13	C	0.163264	0.830862	0.000177
C14	C	0.161064	0.738556	0.000156
C15	C	0.146565	1.134796	0.000243
C16	C	0.148765	1.227102	0.000256
C17	C	-0.409263	0.981695	0.000197
C18	C	-0.280898	0.983951	0.000209
C19	C	0.362421	0.977695	0.000199
C20	C	0.488415	0.979903	0.000192
N21	N	0.154922	0.982818	0.308455
C22	C	0.155969	1.526209	0.118267
C23	C	0.153880	1.439480	0.118285
C24	C	0.153857	1.439455	-0.117865
C25	C	0.155937	1.526184	-0.117881
C26	C	0.156999	1.569558	0.000189
C27	C	0.152830	1.396100	0.000223
C28	C	0.150566	1.302064	0.000242
C29	C	0.159261	1.663600	0.000171
N30	N	0.154898	0.982847	-0.308032
C31	C	0.154923	0.982824	0.426298
C32	C	0.154913	0.982834	0.574135
H33	H	0.156833	1.561522	0.214408
H34	H	0.153042	1.404189	0.214437
N35	N	0.152771	1.395135	-0.238452
N36	N	0.150915	1.317699	-0.238423
H37	H	0.150150	1.286398	-0.323591
N38	N	0.156963	1.570468	-0.238506
N39	N	0.076760	1.568080	-0.317540
H40	H	0.077477	1.599356	-0.402729
