data_functionalizedCrystal
_audit_creation_method	'MofGen! by Chris Wilmer'
_symmetry_space_group_name_H-M	'P1'
_symmetry_Int_Tables_number	1
_symmetry_cell_setting	triclinic
loop_
_symmetry_equiv_pos_as_xyz
  x,y,z
_cell_length_a	19.077105
_cell_length_b	18.050590
_cell_length_c	19.076919
_cell_angle_alpha	87.729485
_cell_angle_beta	89.923776
_cell_angle_gamma	87.714864
loop_
_atom_site_label
_atom_site_type_symbol
_atom_site_fract_x
_atom_site_fract_y
_atom_site_fract_z
Zn1	Zn	1.058306	-0.359282	0.440410
Zn2	Zn	1.391639	-0.025949	0.773744
Zn3	Zn	1.724972	0.307384	1.107077
Zn4	Zn	1.062957	-0.478691	0.322901
Zn5	Zn	1.396291	-0.145358	0.656234
Zn6	Zn	1.729624	0.187976	0.989568
Zn7	Zn	0.945523	-0.349334	0.318204
Zn8	Zn	1.278856	-0.016000	0.651537
Zn9	Zn	1.612189	0.317333	0.984871
Zn10	Zn	0.940779	-0.478243	0.435654
Zn11	Zn	1.274112	-0.144910	0.768987
Zn12	Zn	1.607446	0.188424	1.102320
O13	O	1.001891	-0.416388	0.379292
O14	O	1.335225	-0.083054	0.712626
O15	O	1.668558	0.250279	1.045959
O16	O	1.157255	-0.379473	0.428779
O17	O	1.490588	-0.046140	0.762112
O18	O	1.823922	0.287193	1.095446
O19	O	1.051311	-0.457555	0.223947
O20	O	1.384645	-0.124222	0.557280
O21	O	1.717978	0.209111	0.890613
O22	O	0.960522	-0.246732	0.334440
O23	O	1.293855	0.086602	0.667773
O24	O	1.627189	0.419935	1.001106
O25	O	1.160673	-0.467202	0.342445
O26	O	1.494006	-0.133869	0.675779
O27	O	1.827339	0.199465	1.009112
O28	O	1.043383	-0.254041	0.424224
O29	O	1.376717	0.079293	0.757558
O30	O	1.710050	0.412626	1.090891
O31	O	0.965032	-0.362517	0.220496
O32	O	1.298366	-0.029184	0.553829
O33	O	1.631699	0.304150	0.887162
O34	O	0.846561	-0.362083	0.329827
O35	O	1.179894	-0.028750	0.663161
O36	O	1.513228	0.304584	0.996494
O37	O	0.952437	-0.466439	0.534616
O38	O	1.285771	-0.133105	0.867949
O39	O	1.619104	0.200228	1.201282
O40	O	0.843076	-0.456792	0.416117
O41	O	1.176409	-0.123459	0.749451
O42	O	1.509743	0.209875	1.082784
O43	O	1.038784	-0.379039	0.538111
O44	O	1.372117	-0.045706	0.871444
O45	O	1.705450	0.287628	1.204777
O46	O	1.046712	-0.582553	0.337833
O47	O	1.380045	-0.249220	0.671166
O48	O	1.713378	0.084113	1.004500
O49	O	0.956948	-0.582224	0.420672
O50	O	1.290281	-0.248891	0.754005
O51	O	1.623614	0.084442	1.087339
C52	C	0.819322	-0.408310	0.371947
C53	C	1.152655	-0.074977	0.705280
C54	C	1.485989	0.258357	1.038614
C55	C	0.741218	-0.404873	0.368821
C56	C	1.074551	-0.071539	0.702154
C57	C	1.407884	0.261794	1.035488
C58	C	1.001838	-0.609336	0.379262
C59	C	1.335172	-0.276003	0.712595
C60	C	1.668505	0.057330	1.045929
C61	C	1.001879	-0.691884	0.379275
C62	C	1.335212	-0.358551	0.712609
C63	C	1.668546	-0.025218	1.045942
C64	C	0.702731	-0.452637	0.412209
C65	C	1.036064	-0.119303	0.745542
C66	C	1.369397	0.214030	1.078875
C67	C	0.629343	-0.449397	0.409275
C68	C	0.962676	-0.116064	0.742608
C69	C	1.296010	0.217269	1.075942
C70	C	0.594444	-0.398397	0.362950
C71	C	0.927777	-0.065064	0.696283
C72	C	1.261111	0.268269	1.029617
C73	C	0.632936	-0.350628	0.319561
C74	C	0.966269	-0.017295	0.652894
C75	C	1.299603	0.316038	0.986227
C76	C	0.706322	-0.353864	0.322498
C77	C	1.039655	-0.020531	0.655832
C78	C	1.372989	0.312802	0.989165
C79	C	0.375155	-0.383420	0.349358
C80	C	0.708488	-0.050087	0.682691
C81	C	1.041822	0.283246	1.016024
C82	C	0.301764	-0.380189	0.346422
C83	C	0.635097	-0.046856	0.679755
C84	C	0.968430	0.286477	1.013089
C85	C	0.298176	-0.478958	0.436137
C86	C	0.631509	-0.145625	0.769471
C87	C	0.964843	0.187709	1.102804
C88	C	0.371564	-0.482193	0.439068
C89	C	0.704897	-0.148859	0.772401
C90	C	1.038230	0.184474	1.105734
C91	C	0.410049	-0.434421	0.395681
C92	C	0.743383	-0.101088	0.729015
C93	C	1.076716	0.232246	1.062348
N94	N	0.519430	-0.395087	0.359949
N95	N	0.852763	-0.061753	0.693282
N96	N	1.186097	0.271580	1.026615
N97	N	0.485062	-0.437728	0.398687
N98	N	0.818395	-0.104395	0.732020
N99	N	1.151728	0.228938	1.065353
C100	C	1.050788	-0.891494	0.334297
C101	C	1.384121	-0.558160	0.667630
C102	C	1.717454	-0.224827	1.000963
C103	C	1.065373	-0.944195	0.399117
C104	C	1.398707	-0.610861	0.732450
C105	C	1.732040	-0.277528	1.065784
C106	C	1.001918	-0.843017	0.379305
C107	C	1.335251	-0.509684	0.712638
C108	C	1.668584	-0.176351	1.045971
C109	C	0.987403	-0.937403	0.314516
C110	C	1.320736	-0.604069	0.647850
C111	C	1.654069	-0.270736	0.981183
C112	C	1.001957	-0.989005	0.379328
C113	C	1.335290	-0.655672	0.712661
C114	C	1.668623	-0.322339	1.045995
C115	C	1.016535	-0.894634	0.444160
C116	C	1.349868	-0.561300	0.777493
C117	C	1.683202	-0.227967	1.110827
C118	C	0.938536	-0.887835	0.359515
C119	C	1.271869	-0.554501	0.692848
C120	C	1.605203	-0.221168	1.026182
C121	C	0.953096	-0.940514	0.424378
C122	C	1.286429	-0.607180	0.757712
C123	C	1.619762	-0.273847	1.091045
C124	C	1.001897	-0.758918	0.379291
C125	C	1.335230	-0.425584	0.712624
C126	C	1.668564	-0.092251	1.045957
C127	C	1.001977	-1.073103	0.379349
C128	C	1.335310	-0.739770	0.712683
C129	C	1.668644	-0.406437	1.046016
C130	C	1.185173	-0.424497	0.386667
C131	C	1.518506	-0.091164	0.720000
C132	C	1.851840	0.242169	1.053333
C133	C	1.263277	-0.427953	0.389809
C134	C	1.596610	-0.094620	0.723143
C135	C	1.929944	0.238713	1.056476
C136	C	0.994562	-0.423799	0.562572
C137	C	1.327896	-0.090465	0.895906
C138	C	1.661229	0.242868	1.229239
C139	C	0.991439	-0.426957	0.640675
C140	C	1.324773	-0.093624	0.974009
C141	C	1.658106	0.239710	1.307342
C142	C	1.001963	-0.222687	0.379339
C143	C	1.335296	0.110646	0.712672
C144	C	1.668629	0.443980	1.046005
C145	C	1.001993	-0.140143	0.379358
C146	C	1.335327	0.193190	0.712692
C147	C	1.668660	0.526523	1.046025
C148	C	1.009232	-0.408953	0.196727
C149	C	1.342565	-0.075620	0.530060
C150	C	1.675898	0.257713	0.863393
C151	C	1.012491	-0.405592	0.118630
C152	C	1.345824	-0.072259	0.451963
C153	C	1.679158	0.261075	0.785296
C154	C	1.034926	-0.382938	0.679189
C155	C	1.368259	-0.049605	1.012522
C156	C	1.701592	0.283729	1.345855
C157	C	1.031983	-0.385902	0.752575
C158	C	1.365316	-0.052569	1.085908
C159	C	1.698649	0.280764	1.419241
C160	C	0.985556	-0.432890	0.787446
C161	C	1.318890	-0.099556	1.120779
C162	C	1.652223	0.233777	1.454112
C163	C	0.942065	-0.476910	0.748927
C164	C	1.275399	-0.143577	1.082260
C165	C	1.608732	0.189757	1.415593
C166	C	0.945005	-0.473941	0.675542
C167	C	1.278339	-0.140608	1.008875
C168	C	1.611672	0.192725	1.342209
C169	C	0.971940	-0.446644	1.006726
C170	C	1.305273	-0.113311	1.340060
C171	C	1.638606	0.220023	1.673393
C172	C	0.969005	-0.449611	1.080116
C173	C	1.302338	-0.116277	1.413450
C174	C	1.635671	0.217056	1.746783
C175	C	1.058922	-0.358602	1.083759
C176	C	1.392255	-0.025268	1.417092
C177	C	1.725588	0.308065	1.750426
C178	C	1.061860	-0.355641	1.010373
C179	C	1.395194	-0.022307	1.343706
C180	C	1.728527	0.311026	1.677040
C181	C	1.018367	-0.399658	0.971860
C182	C	1.351700	-0.066325	1.305194
C183	C	1.685033	0.267009	1.638527
N184	N	0.982549	-0.435922	0.862458
N185	N	1.315882	-0.102589	1.195791
N186	N	1.649215	0.230744	1.529124
N187	N	1.021371	-0.396621	0.896850
N188	N	1.354705	-0.063288	1.230183
N189	N	1.688038	0.270046	1.563516
H190	H	0.731140	-0.494169	0.449929
H191	H	1.064474	-0.160836	0.783262
H192	H	1.397807	0.172498	1.116596
C193	C	1.112923	-0.303951	0.972016
C194	C	1.446257	0.029383	1.305350
C195	C	1.779590	0.362716	1.638683
H196	H	1.108449	-0.308492	0.922795
H197	H	1.441783	0.024842	1.256129
H198	H	1.775116	0.358175	1.589462
H199	H	1.102176	-0.254085	0.983641
H200	H	1.435510	0.079248	1.316974
H201	H	1.768843	0.412581	1.650308
H202	H	1.159654	-0.317398	0.985942
H203	H	1.492987	0.015935	1.319275
H204	H	1.826321	0.349268	1.652609
C205	C	0.263376	-0.324082	0.295467
C206	C	0.596709	0.009251	0.628800
C207	C	0.930042	0.342584	0.962133
H208	H	0.296806	-0.296089	0.270053
H209	H	0.630139	0.037244	0.603386
H210	H	0.963473	0.370577	0.936719
H211	H	0.235961	-0.349935	0.263654
H212	H	0.569294	-0.016602	0.596987
H213	H	0.902627	0.316731	0.930321
H214	H	0.233684	-0.291599	0.321265
H215	H	0.567017	0.041735	0.654599
H216	H	0.900351	0.375068	0.987932
C217	C	0.594549	-0.294532	0.268602
C218	C	0.927882	0.038802	0.601936
C219	C	1.261216	0.372135	0.935269
H220	H	0.545331	-0.299450	0.273060
H221	H	0.878664	0.033883	0.606393
H222	H	1.211997	0.367216	0.939727
H223	H	0.606173	-0.245599	0.279449
H224	H	0.939507	0.087734	0.612782
H225	H	1.272840	0.421067	0.946116
H226	H	0.608455	-0.303950	0.221851
H227	H	0.941788	0.029383	0.555184
H228	H	1.275121	0.362716	0.888517
H229	H	1.067396	-0.350060	0.783929
H230	H	1.400729	-0.016726	1.117263
H231	H	1.734062	0.316607	1.450596
H232	H	0.936534	-0.482497	0.975379
H233	H	1.269868	-0.149164	1.308712
H234	H	1.603201	0.184169	1.642045
C235	C	0.417481	-0.330886	0.301622
C236	C	0.750814	0.002447	0.634956
C237	C	1.084147	0.335781	0.968289
H238	H	0.386184	-0.300059	0.273606
H239	H	0.719517	0.033275	0.606939
H240	H	1.052850	0.366608	0.940272
H241	H	0.445049	-0.300919	0.329694
H242	H	0.778382	0.032415	0.663027
H243	H	1.111716	0.365748	0.996360
H244	H	0.447317	-0.359277	0.272102
H245	H	0.780650	-0.025943	0.605435
H246	H	1.113984	0.307390	0.938768
H247	H	1.092127	-0.869968	0.296277
H248	H	1.425460	-0.536635	0.629610
H249	H	1.758794	-0.203302	0.962943
H250	H	0.904261	-0.515165	0.777324
H251	H	1.237595	-0.181832	1.110658
H252	H	1.570928	0.151501	1.443991
C253	C	0.917930	-0.501292	1.118476
C254	C	1.251263	-0.167959	1.451810
C255	C	1.584596	0.165374	1.785143
H256	H	0.922415	-0.496759	1.167697
H257	H	1.255748	-0.163426	1.501031
H258	H	1.589081	0.169907	1.834364
H259	H	0.871203	-0.487844	1.104553
H260	H	1.204536	-0.154510	1.437886
H261	H	1.537869	0.178823	1.771219
H262	H	0.928674	-0.551162	1.106853
H263	H	1.262008	-0.217829	1.440186
H264	H	1.595341	0.115504	1.773519
C265	C	1.137799	-0.977491	0.421751
C266	C	1.471133	-0.644158	0.755085
C267	C	1.804466	-0.310825	1.088418
H268	H	1.132926	-1.007961	0.463090
H269	H	1.466259	-0.674627	0.796423
H270	H	1.799592	-0.341294	1.129757
H271	H	1.156931	-1.006472	0.385335
H272	H	1.490264	-0.673139	0.718669
H273	H	1.823598	-0.339805	1.052002
H274	H	1.168223	-0.938575	0.430802
H275	H	1.501556	-0.605242	0.764135
H276	H	1.834889	-0.271908	1.097469
H277	H	0.911783	-0.961907	0.462496
H278	H	1.245116	-0.628574	0.795829
H279	H	1.578450	-0.295240	1.129162
C280	C	0.748658	-0.301323	0.274774
C281	C	1.081991	0.032010	0.608107
C282	C	1.415324	0.365344	0.941440
H283	H	0.717364	-0.270489	0.246760
H284	H	1.050697	0.062844	0.580093
H285	H	1.384031	0.396178	0.913426
H286	H	0.776221	-0.271363	0.302858
H287	H	1.109554	0.061970	0.636191
H288	H	1.442887	0.395304	0.969524
H289	H	0.778499	-0.329704	0.245250
H290	H	1.111833	0.003629	0.578584
H291	H	1.445166	0.336962	0.911917
H292	H	0.975109	-0.956301	0.259716
H293	H	1.308443	-0.622967	0.593049
H294	H	1.641776	-0.289634	0.926383
H295	H	0.909587	-0.509778	0.644185
H296	H	1.242920	-0.176445	0.977518
H297	H	1.576254	0.156888	1.310852
H298	H	0.598010	-0.488293	0.444605
H299	H	0.931344	-0.154959	0.777938
H300	H	1.264677	0.178374	1.111272
H301	H	1.028773	-0.875827	0.499005
H302	H	1.362106	-0.542494	0.832338
H303	H	1.695439	-0.209160	1.165672
H304	H	1.094331	-0.322764	1.115124
H305	H	1.427664	0.010569	1.448457
H306	H	1.760997	0.343902	1.781790
H307	H	0.884936	-0.863176	0.342744
H308	H	1.218269	-0.529843	0.676077
H309	H	1.551602	-0.196510	1.009410
C310	C	1.085992	-0.331248	0.640837
C311	C	1.419325	0.002085	0.974170
C312	C	1.752659	0.335419	1.307504
H313	H	1.111463	-0.305451	0.674287
H314	H	1.444797	0.027882	1.007620
H315	H	1.778130	0.361216	1.340954
H316	H	1.117747	-0.359847	0.613434
H317	H	1.451080	-0.026514	0.946767
H318	H	1.784414	0.306819	1.280101
H319	H	1.060263	-0.296541	0.611137
H320	H	1.393596	0.036792	0.944471
H321	H	1.726930	0.370126	1.277804
H322	H	0.266833	-0.517850	0.471461
H323	H	0.600166	-0.184517	0.804794
H324	H	0.933500	0.148817	1.138128
C325	C	0.409948	-0.538288	0.490030
C326	C	0.743281	-0.204955	0.823363
C327	C	1.076614	0.128379	1.156696
H328	H	0.376515	-0.566267	0.515455
H329	H	0.709848	-0.232934	0.848788
H330	H	1.043181	0.100400	1.182122
H331	H	0.439641	-0.570775	0.464242
H332	H	0.772974	-0.237441	0.797576
H333	H	1.106307	0.095892	1.130909
H334	H	0.437361	-0.512425	0.521843
H335	H	0.770694	-0.179092	0.855176
H336	H	1.104027	0.154241	1.188509
