data_functionalizedCrystal
_audit_creation_method	'MofGen! by Chris Wilmer'
_symmetry_space_group_name_H-M	'P1'
_symmetry_Int_Tables_number	1
_symmetry_cell_setting	triclinic
loop_
_symmetry_equiv_pos_as_xyz
  x,y,z
_cell_length_a	11.026660
_cell_length_b	14.519731
_cell_length_c	9.482900
_cell_angle_alpha	99.351580
_cell_angle_beta	78.636107
_cell_angle_gamma	96.136844
loop_
_atom_site_label
_atom_site_type_symbol
_atom_site_fract_x
_atom_site_fract_y
_atom_site_fract_z
O1	O	1.629923	0.375006	-0.120919
O2	O	1.963256	0.708339	0.212414
O3	O	2.296589	1.041672	0.545747
O4	O	1.276519	0.331018	-0.120918
O5	O	1.609852	0.664351	0.212415
O6	O	1.943185	0.997685	0.545749
O7	O	1.462575	0.220317	-0.120906
O8	O	1.795908	0.553651	0.212428
O9	O	2.129242	0.886984	0.545761
O10	O	1.443866	0.485706	-0.120932
O11	O	1.777200	0.819040	0.212401
O12	O	2.110533	1.152373	0.545735
O13	O	1.424783	0.242919	0.120884
O14	O	1.758116	0.576252	0.454218
O15	O	2.091450	0.909585	0.787551
O16	O	1.238727	0.353619	0.120872
O17	O	1.572060	0.686952	0.454205
O18	O	1.905393	1.020286	0.787539
O19	O	1.592131	0.397607	0.120871
O20	O	1.925464	0.730940	0.454204
O21	O	2.258797	1.064274	0.787537
Cu22	Cu	1.411978	0.377677	0.142949
Cu23	Cu	1.745311	0.711010	0.476282
Cu24	Cu	2.078645	1.044343	0.809615
Cu25	Cu	1.456671	0.350948	-0.142996
Cu26	Cu	1.790005	0.684281	0.190337
Cu27	Cu	2.123338	1.017615	0.523671
O28	O	1.406074	0.508307	0.120858
O29	O	1.739407	0.841641	0.454191
O30	O	2.072741	1.174974	0.787525
C31	C	1.212393	0.334203	-0.000023
C32	C	1.545727	0.667537	0.333311
C33	C	1.879060	1.000870	0.666644
C34	C	1.077625	0.310012	-0.000022
C35	C	1.410959	0.643345	0.333311
C36	C	1.744292	0.976679	0.666645
C37	C	0.864682	0.351814	-0.000030
C38	C	1.198015	0.685148	0.333303
C39	C	1.531348	1.018481	0.666636
C40	C	1.003971	0.376819	-0.000030
C41	C	1.337304	0.710153	0.333303
C42	C	1.670638	1.043486	0.666637
C43	C	1.442802	0.197114	-0.000010
C44	C	1.776136	0.530448	0.333323
C45	C	2.109469	0.863781	0.666656
C46	C	1.440175	0.094301	-0.000009
C47	C	1.773508	0.427634	0.333324
C48	C	2.106841	0.760968	0.666657
C49	C	1.438040	0.010805	-0.000013
C50	C	1.771374	0.344138	0.333321
C51	C	2.104707	0.677472	0.666654
C52	C	1.435374	-0.093944	-0.000024
C53	C	1.768708	0.239389	0.333310
C54	C	2.102041	0.572722	0.666643
C55	C	1.433258	-0.177433	-0.000033
C56	C	1.766592	0.155900	0.333300
C57	C	2.099925	0.489234	0.666633
C58	C	1.430592	-0.282189	-0.000042
C59	C	1.763926	0.051145	0.333292
C60	C	2.097259	0.384478	0.666625
C61	C	1.656256	0.394421	-0.000028
C62	C	1.989590	0.727754	0.333305
C63	C	2.322923	1.061088	0.666639
C64	C	1.791026	0.418612	-0.000038
C65	C	2.124359	0.751945	0.333295
C66	C	2.457693	1.085278	0.666628
C67	C	1.425848	0.531510	-0.000040
C68	C	1.759181	0.864844	0.333293
C69	C	2.092514	1.198177	0.666626
C70	C	1.428477	0.634323	-0.000051
C71	C	1.761810	0.967656	0.333282
C72	C	2.095143	1.300989	0.666616
N73	N	1.380552	0.396477	0.344067
N74	N	1.713885	0.729810	0.677400
N75	N	2.047218	1.063144	1.010733
N76	N	1.488107	0.332142	-0.344114
N77	N	1.821440	0.665475	-0.010781
N78	N	2.154774	0.998809	0.322553
C79	C	1.447394	0.356487	0.416270
C80	C	1.780727	0.689820	0.749604
C81	C	2.114060	1.023154	1.082937
C82	C	1.421255	0.372138	0.583686
C83	C	1.754589	0.705471	0.917019
C84	C	2.087922	1.038805	1.250353
H85	H	0.824617	0.276117	-0.000002
H86	H	1.157951	0.609450	0.333332
H87	H	1.491284	0.942783	0.666665
H88	H	1.564684	0.286311	0.593767
H89	H	1.898018	0.619645	0.927100
H90	H	2.231351	0.952978	1.260433
H91	H	0.831086	0.494312	-0.000037
H92	H	1.164419	0.827646	0.333297
H93	H	1.497752	1.160979	0.666630
H94	H	1.037587	0.234298	-0.000111
H95	H	1.370920	0.567631	0.333222
H96	H	1.704253	0.900965	0.666556
H97	H	1.044025	0.452525	-0.000028
H98	H	1.377358	0.785858	0.333305
H99	H	1.710692	1.119191	0.666639
H100	H	1.523966	0.310659	0.354147
H101	H	1.857300	0.643992	0.687481
H102	H	2.190633	0.977326	1.020814
H103	H	1.344669	0.417960	0.645805
H104	H	1.678003	0.751294	0.979139
H105	H	2.011336	1.084627	1.312472
F106	F	1.280453	0.456368	0.425263
F107	F	1.613786	0.789701	0.758596
F108	F	1.947119	1.123034	1.091929
