data_functionalizedCrystal
_audit_creation_method	'MofGen! by Chris Wilmer'
_symmetry_space_group_name_H-M	'P1'
_symmetry_Int_Tables_number	1
_symmetry_cell_setting	triclinic
loop_
_symmetry_equiv_pos_as_xyz
  x,y,z
_cell_length_a	6.817900
_cell_length_b	11.353959
_cell_length_c	16.305550
_cell_angle_alpha	105.314283
_cell_angle_beta	103.455250
_cell_angle_gamma	107.526623
loop_
_atom_site_label
_atom_site_type_symbol
_atom_site_fract_x
_atom_site_fract_y
_atom_site_fract_z
V1	V	-4.066893	-0.182120	-0.289783
O2	O	-4.012141	0.007615	-0.256906
O3	O	-4.058049	-0.360021	-0.314116
O4	O	-4.017785	-0.179817	-0.404162
O5	O	-4.052684	-0.173836	-0.166236
V6	V	-4.545487	-0.159367	-0.271809
O7	O	-4.338963	-0.232032	-0.329210
O8	O	-4.723614	-0.109455	-0.232382
O9	O	-4.331124	0.018534	-0.247476
O10	O	-4.717635	-0.349102	-0.304686
O11	O	-4.677092	-0.167651	-0.395355
O12	O	-4.371388	-0.161669	-0.157430
C13	C	-3.912695	-0.403373	-0.316334
C14	C	-3.986747	-0.548813	-0.336991
C15	C	-3.977613	-0.595591	-0.270129
C16	C	-4.054148	-0.745910	-0.291477
C17	C	-3.861333	-0.173504	-0.431196
C18	C	-3.902727	-0.172799	-0.524874
C19	C	-4.053204	-0.170064	-0.865217
C20	C	-3.815344	-0.161946	-0.823096
C21	C	-3.772435	-0.163222	-0.725789
C22	C	-3.978549	-0.171420	-0.696369
C23	C	-4.174421	-0.300631	-0.765975
C24	C	-4.216121	-0.299900	-0.863417
C25	C	-4.081163	-0.050004	-0.801739
C26	C	-4.033006	-0.048981	-0.703746
C27	C	-3.936371	-0.172191	-0.600944
C28	C	-4.095393	-0.169302	-0.960645
C29	C	-4.139821	0.061880	-0.245256
C30	C	-4.045008	0.207318	-0.224605
C31	C	-4.191183	-0.167987	-0.130392
C32	C	-4.129025	-0.168686	-0.036713
H33	H	-4.118636	-0.817143	-0.364531
Cl34	Cl	-4.086312	-0.658788	-0.449777
H35	H	-4.200261	-0.390789	-0.907149
Cl36	Cl	-3.945411	-0.682713	-0.111812
Cl37	Cl	-4.120174	-0.440999	-0.760639
H38	H	-3.625203	-0.070320	-0.677119
H39	H	-4.392486	-0.311232	-0.893073
H40	H	-3.688373	-0.068605	-0.821749
Cl41	Cl	-3.775443	-0.295125	-0.891304
Cl42	Cl	-3.699965	-0.297943	-0.720417
Cl43	Cl	-4.414569	-0.317114	-0.739202
H44	H	-3.890628	0.046590	-0.655329
Cl45	Cl	-3.906316	0.101151	-0.800175
H46	H	-4.254299	-0.054802	-0.829259
Cl47	Cl	-3.878143	-0.485619	-0.157345
Cl48	Cl	-4.259844	-0.046488	-0.670415
