data_functionalizedCrystal
_audit_creation_method	'MofGen! by Chris Wilmer'
_symmetry_space_group_name_H-M	'P1'
_symmetry_Int_Tables_number	1
_symmetry_cell_setting	triclinic
loop_
_symmetry_equiv_pos_as_xyz
  x,y,z
_cell_length_a	11.792241
_cell_length_b	9.130307
_cell_length_c	11.792254
_cell_angle_alpha	90.003482
_cell_angle_beta	95.803993
_cell_angle_gamma	90.002681
loop_
_atom_site_label
_atom_site_type_symbol
_atom_site_fract_x
_atom_site_fract_y
_atom_site_fract_z
O1	O	1.506911	-0.121658	-0.155565
O2	O	1.176571	-0.121692	-0.171598
O3	O	1.349750	-0.121664	0.001588
O4	O	1.333732	-0.121686	-0.328751
O5	O	1.349744	0.121935	0.001590
O6	O	1.176565	0.121907	-0.171596
O7	O	1.506905	0.121941	-0.155563
Cu8	Cu	1.341735	0.144167	-0.163580
Cu9	Cu	1.341741	-0.143917	-0.163582
O10	O	1.333726	0.121913	-0.328749
C11	C	1.134277	0.000103	-0.170590
C12	C	1.008263	0.000090	-0.167576
N13	N	1.341738	0.346789	-0.163578
N14	N	1.341747	-0.346540	-0.163575
C15	C	0.777551	0.000133	-0.162033
C16	C	0.905936	0.000109	-0.165112
C17	C	1.549199	0.000143	-0.156571
C18	C	1.675213	0.000146	-0.159586
C19	C	1.348738	0.000135	0.043880
C20	C	1.345718	0.000134	0.169893
C21	C	1.495151	0.346804	-0.010266
C22	C	1.571865	0.423479	0.066386
C23	C	1.571877	0.576812	0.066387
C24	C	1.495163	0.653475	-0.010271
C25	C	1.418449	0.576801	-0.086923
C26	C	1.418449	0.423464	-0.086918
C27	C	1.265033	0.576785	-0.240227
C28	C	1.265025	0.423452	-0.240235
C29	C	1.188320	0.653448	-0.316885
C30	C	1.111609	0.576774	-0.393545
C31	C	1.111602	0.423431	-0.393543
C32	C	1.188311	0.346778	-0.316888
C33	C	1.334738	0.000111	-0.371041
C34	C	1.337758	0.000103	-0.497054
C35	C	1.343264	0.000128	0.272229
C36	C	1.340196	0.000114	0.400616
H37	H	1.634323	0.361047	0.128803
H38	H	1.049150	0.639202	-0.455949
N39	N	1.650235	0.655118	0.144700
N40	N	1.718715	0.586663	0.213142
H41	H	1.774055	0.641966	0.268453
N42	N	1.033255	0.345116	-0.471861
N43	N	1.069686	0.259557	-0.542569
H44	H	1.014354	0.204251	-0.597885
N45	N	1.495147	0.810100	-0.010274
N46	N	1.426648	0.878530	-0.078714
H47	H	1.426628	0.989150	-0.078714
H48	H	1.188316	0.221926	-0.316884
N49	N	1.188301	0.810073	-0.316877
N50	N	1.100501	0.878501	-0.297492
H51	H	1.100484	0.989120	-0.297484
N52	N	1.495197	0.190179	-0.010292
N53	N	1.563715	0.121749	0.058129
H54	H	1.563761	0.011130	0.058102
