data_functionalizedCrystal
_audit_creation_method	'MofGen! by Chris Wilmer'
_symmetry_space_group_name_H-M	'P1'
_symmetry_Int_Tables_number	1
_symmetry_cell_setting	triclinic
loop_
_symmetry_equiv_pos_as_xyz
  x,y,z
_cell_length_a	6.817900
_cell_length_b	9.541902
_cell_length_c	9.582860
_cell_angle_alpha	89.850108
_cell_angle_beta	111.206767
_cell_angle_gamma	69.436382
loop_
_atom_site_label
_atom_site_type_symbol
_atom_site_fract_x
_atom_site_fract_y
_atom_site_fract_z
V1	V	-4.148494	0.466329	-0.206432
V2	V	-3.648494	0.966329	0.293568
O3	O	-4.092641	0.457734	0.010562
O4	O	-3.592641	0.957734	0.510562
O5	O	-4.138659	0.462868	-0.409937
O6	O	-3.638659	0.962868	0.090063
O7	O	-4.135174	0.669835	-0.202975
O8	O	-3.635174	1.169835	0.297025
O9	O	-4.096150	0.249335	-0.197833
O10	O	-3.596150	0.749335	0.302167
V11	V	-4.622580	0.440408	-0.180510
V12	V	-4.122580	0.940408	0.319490
O13	O	-4.430455	0.523190	-0.263293
O14	O	-3.930455	1.023190	0.236707
O15	O	-4.790816	0.383547	-0.123649
O16	O	-4.290816	0.883547	0.376351
O17	O	-4.409209	0.443869	0.022995
O18	O	-3.909209	0.943869	0.522995
O19	O	-4.795830	0.449003	-0.397504
O20	O	-4.295830	0.949003	0.102496
O21	O	-4.792321	0.657402	-0.189109
O22	O	-4.292321	1.157402	0.310891
O23	O	-4.412694	0.236902	-0.183967
O24	O	-3.912694	0.736902	0.316033
C25	C	-3.991906	0.455442	-0.459556
C26	C	-3.491906	0.955442	0.040444
C27	C	-4.065385	0.453969	-0.625923
C28	C	-3.565385	0.953969	-0.125923
C29	C	-4.223750	0.187282	-0.191394
C30	C	-3.723750	0.687282	0.308606
C31	C	-4.132340	0.020916	-0.192866
C32	C	-3.632340	0.520916	0.307134
C33	C	-3.987459	0.719447	-0.195553
C34	C	-3.487459	1.219447	0.304447
C35	C	-4.058106	0.885812	-0.194073
C36	C	-3.558106	1.385812	0.305927
C37	C	-4.219304	0.451291	0.072607
C38	C	-3.719304	0.951291	0.572607
C39	C	-4.125065	0.452774	0.238972
C40	C	-3.625065	0.952774	0.738972
