data_functionalizedCrystal
_audit_creation_method	'MofGen! by Chris Wilmer'
_symmetry_space_group_name_H-M	'P1'
_symmetry_Int_Tables_number	1
_symmetry_cell_setting	triclinic
loop_
_symmetry_equiv_pos_as_xyz
  x,y,z
_cell_length_a	19.121215
_cell_length_b	19.121063
_cell_length_c	17.077396
_cell_angle_alpha	92.407870
_cell_angle_beta	87.536854
_cell_angle_gamma	95.002544
loop_
_atom_site_label
_atom_site_type_symbol
_atom_site_fract_x
_atom_site_fract_y
_atom_site_fract_z
Zn1	Zn	1.063732	-0.234334	-0.505852
Zn2	Zn	1.397066	0.098999	-0.172518
Zn3	Zn	1.730399	0.432333	0.160815
Zn4	Zn	1.058624	-0.352010	-0.379943
Zn5	Zn	1.391957	-0.018677	-0.046609
Zn6	Zn	1.725290	0.314657	0.286724
Zn7	Zn	0.946068	-0.239368	-0.369214
Zn8	Zn	1.279401	0.093966	-0.035881
Zn9	Zn	1.612735	0.427299	0.297453
Zn10	Zn	0.941008	-0.356972	-0.505779
Zn11	Zn	1.274341	-0.023639	-0.172446
Zn12	Zn	1.607674	0.309695	0.160887
O13	O	1.002358	-0.295671	-0.440197
O14	O	1.335691	0.037662	-0.106864
O15	O	1.669025	0.370996	0.226470
O16	O	1.161521	-0.245761	-0.493670
O17	O	1.494854	0.087573	-0.160337
O18	O	1.828187	0.420906	0.172997
O19	O	1.043673	-0.337098	-0.268673
O20	O	1.377006	-0.003764	0.064660
O21	O	1.710340	0.329569	0.397994
O22	O	0.965932	-0.140234	-0.382879
O23	O	1.299266	0.193099	-0.049546
O24	O	1.632599	0.526432	0.283787
O25	O	1.157767	-0.332217	-0.401165
O26	O	1.491101	0.001117	-0.067832
O27	O	1.824434	0.334450	0.265502
O28	O	1.052380	-0.136536	-0.483267
O29	O	1.385713	0.196797	-0.149933
O30	O	1.719046	0.530131	0.183400
O31	O	0.960979	-0.254340	-0.260791
O32	O	1.294312	0.078993	0.072543
O33	O	1.627645	0.412327	0.405876
O34	O	0.846931	-0.259152	-0.382809
O35	O	1.180264	0.074182	-0.049476
O36	O	1.513598	0.407515	0.283857
O37	O	0.957308	-0.340674	-0.615635
O38	O	1.290641	-0.007340	-0.282302
O39	O	1.623974	0.325993	0.051031
O40	O	0.843213	-0.345555	-0.483143
O41	O	1.176546	-0.012222	-0.149810
O42	O	1.509880	0.321112	0.183523
O43	O	1.047473	-0.250572	-0.615689
O44	O	1.380806	0.082761	-0.282355
O45	O	1.714140	0.416095	0.050978
O46	O	1.038766	-0.451134	-0.401095
O47	O	1.372099	-0.117800	-0.067762
O48	O	1.705433	0.215533	0.265572
O49	O	0.952354	-0.454779	-0.493547
O50	O	1.285687	-0.121446	-0.160213
O51	O	1.619021	0.211887	0.173120
C52	C	0.819541	-0.303438	-0.431805
C53	C	1.152874	0.029895	-0.098471
C54	C	1.486208	0.363228	0.234862
C55	C	0.741330	-0.306778	-0.428234
C56	C	1.074664	0.026555	-0.094901
C57	C	1.407997	0.359888	0.238433
C58	C	0.298888	-0.327922	-0.405644
C59	C	0.632221	0.005411	-0.072311
C60	C	0.965555	0.338744	0.261022
C61	C	0.372375	-0.324780	-0.408993
C62	C	0.705709	0.008553	-0.075660
C63	C	1.039042	0.341886	0.257674
C64	C	0.411072	-0.278270	-0.458915
C65	C	0.744406	0.055063	-0.125582
C66	C	1.077739	0.388397	0.207752
C67	C	0.376278	-0.234894	-0.505485
C68	C	0.709611	0.098440	-0.172152
C69	C	1.042945	0.431773	0.161181
C70	C	0.302792	-0.238032	-0.502132
C71	C	0.636125	0.095301	-0.168798
C72	C	0.969459	0.428634	0.164535
C73	C	0.633050	-0.266541	-0.471451
C74	C	0.966383	0.066792	-0.138117
C75	C	1.299717	0.400126	0.195216
C76	C	0.706541	-0.263407	-0.474802
C77	C	1.039874	0.069927	-0.141469
C78	C	1.373208	0.403260	0.191864
C79	C	0.702633	-0.353293	-0.378309
C80	C	1.035967	-0.019960	-0.044975
C81	C	1.369300	0.313374	0.288358
C82	C	0.629146	-0.356431	-0.374963
C83	C	0.962479	-0.023097	-0.041630
C84	C	1.295813	0.310236	0.291704
C85	C	0.594358	-0.313052	-0.421530
C86	C	0.927692	0.020281	-0.088197
C87	C	1.261025	0.353615	0.245137
C88	C	0.486188	-0.275059	-0.462341
C89	C	0.819521	0.058275	-0.129008
C90	C	1.152855	0.391608	0.204325
C91	C	0.519244	-0.316260	-0.418099
C92	C	0.852577	0.017073	-0.084766
C93	C	1.185911	0.350407	0.248567
C94	C	0.994476	-0.478487	-0.448495
C95	C	1.327809	-0.145154	-0.115162
C96	C	1.661142	0.188180	0.218172
C97	C	0.991168	-0.556694	-0.452074
C98	C	1.324501	-0.223360	-0.118741
C99	C	1.657835	0.109973	0.214592
C100	C	1.034639	-0.591512	-0.405664
C101	C	1.367972	-0.258179	-0.072331
C102	C	1.701306	0.075154	0.261002
C103	C	1.031532	-0.664996	-0.409035
C104	C	1.364866	-0.331662	-0.075702
C105	C	1.698199	0.001671	0.257631
C106	C	0.984950	-0.703659	-0.458813
C107	C	1.318284	-0.370326	-0.125479
C108	C	1.651617	-0.036993	0.207854
C109	C	0.941477	-0.668835	-0.505228
C110	C	1.274811	-0.335502	-0.171895
C111	C	1.608144	-0.002169	0.161439
C112	C	0.944588	-0.595353	-0.501860
C113	C	1.277921	-0.262020	-0.168527
C114	C	1.611255	0.071314	0.164806
C115	C	0.973308	-0.925624	-0.471390
C116	C	1.306642	-0.592291	-0.138057
C117	C	1.639975	-0.258958	0.195277
C118	C	0.970199	-0.999112	-0.474752
C119	C	1.303533	-0.665778	-0.141419
C120	C	1.636866	-0.332445	0.191915
C121	C	1.060256	-0.995267	-0.378560
C122	C	1.393589	-0.661934	-0.045227
C123	C	1.726922	-0.328600	0.288106
C124	C	1.063359	-0.921784	-0.375194
C125	C	1.396693	-0.588450	-0.041860
C126	C	1.730026	-0.255117	0.291473
C127	C	1.019889	-0.886966	-0.421612
C128	C	1.353222	-0.553633	-0.088279
C129	C	1.686556	-0.220299	0.245055
C130	C	0.981772	-0.778771	-0.462258
C131	C	1.315105	-0.445438	-0.128924
C132	C	1.648439	-0.112105	0.204409
C133	C	1.023071	-0.811855	-0.418170
C134	C	1.356405	-0.478522	-0.084837
C135	C	1.689738	-0.145188	0.248496
C136	C	1.185889	-0.287874	-0.448622
C137	C	1.519222	0.045460	-0.115289
C138	C	1.852556	0.378793	0.218044
C139	C	1.264099	-0.284551	-0.452213
C140	C	1.597432	0.048783	-0.118879
C141	C	1.930766	0.382116	0.214454
C142	C	1.002396	-0.295615	-0.644940
C143	C	1.335729	0.037718	-0.311607
C144	C	1.669062	0.371052	0.021726
C145	C	1.002412	-0.295591	-0.732190
C146	C	1.335745	0.037742	-0.398857
C147	C	1.669078	0.371076	-0.065523
C148	C	1.010290	-0.112140	-0.431884
C149	C	1.343624	0.221193	-0.098551
C150	C	1.676957	0.554526	0.234782
C151	C	1.013671	-0.033930	-0.428342
C152	C	1.347004	0.299403	-0.095009
C153	C	1.680337	0.632736	0.238325
C154	C	0.959367	-0.252493	-0.769075
C155	C	1.292700	0.080840	-0.435742
C156	C	1.626033	0.414174	-0.102409
C157	C	0.959379	-0.252477	-0.851056
C158	C	1.292712	0.080857	-0.517722
C159	C	1.626046	0.414190	-0.184389
C160	C	1.002440	-0.295555	-0.896149
C161	C	1.335774	0.037778	-0.562816
C162	C	1.669107	0.371112	-0.229482
C163	C	1.045487	-0.338658	-0.859258
C164	C	1.378820	-0.005324	-0.525925
C165	C	1.712154	0.328009	-0.192591
C166	C	1.045471	-0.338677	-0.777279
C167	C	1.378804	-0.005344	-0.443946
C168	C	1.712137	0.327989	-0.110612
C169	C	1.045519	-0.338612	-1.030128
C170	C	1.378853	-0.005279	-0.696794
C171	C	1.712186	0.328054	-0.363461
C172	C	1.045537	-0.338592	-1.112112
C173	C	1.378870	-0.005259	-0.778779
C174	C	1.712204	0.328075	-0.445445
C175	C	0.959428	-0.252412	-1.103904
C176	C	1.292761	0.080922	-0.770571
C177	C	1.626094	0.414255	-0.437238
C178	C	0.959411	-0.252431	-1.021925
C179	C	1.292745	0.080902	-0.688592
C180	C	1.626078	0.414235	-0.355259
C181	C	1.002459	-0.295533	-0.985040
C182	C	1.335792	0.037800	-0.651707
C183	C	1.669126	0.371133	-0.318373
C184	C	1.002363	-0.295674	-0.236249
C185	C	1.335696	0.037659	0.097084
C186	C	1.669030	0.370992	0.430417
C187	C	1.002492	-0.295494	-0.148998
C188	C	1.335825	0.037839	0.184336
C189	C	1.669159	0.371173	0.517669
H190	H	0.597644	-0.394304	-0.334310
H191	H	0.930977	-0.060970	-0.000977
H192	H	1.264311	0.272363	0.332356
H193	H	0.738046	-0.225527	-0.515454
H194	H	1.071380	0.107806	-0.182120
H195	H	1.404713	0.441139	0.151213
H196	H	0.937912	-0.897282	-0.509184
H197	H	1.271245	-0.563948	-0.175851
H198	H	1.604579	-0.230615	0.157483
H199	H	0.400697	-0.360097	-0.371071
H200	H	0.734031	-0.026764	-0.037738
H201	H	1.067364	0.306570	0.295596
H202	H	1.095648	-1.023623	-0.340770
H203	H	1.428981	-0.690290	-0.007437
H204	H	1.762314	-0.356957	0.325896
H205	H	0.924377	-0.217316	-1.133940
H206	H	1.257711	0.116018	-0.800607
H207	H	1.591044	0.449351	-0.467273
H208	H	0.903552	-0.700321	-0.545761
H209	H	1.236886	-0.366988	-0.212428
H210	H	1.570219	-0.033654	0.120905
H211	H	0.909190	-0.567004	-0.539653
H212	H	1.242524	-0.233671	-0.206320
H213	H	1.575857	0.099662	0.127013
H214	H	0.274468	-0.202712	-0.540050
H215	H	0.607801	0.130621	-0.206717
H216	H	0.941135	0.463954	0.126617
H217	H	1.080545	-0.373737	-0.895979
H218	H	1.413878	-0.040403	-0.562646
H219	H	1.747211	0.292930	-0.229313
H220	H	0.924350	-0.217350	-0.985212
H221	H	1.257683	0.115983	-0.651879
H222	H	1.591017	0.449317	-0.318546
N223	N	1.091981	-0.385052	-1.160751
N224	N	1.425315	-0.051719	-0.827418
N225	N	1.758648	0.281614	-0.494085
H226	H	1.119246	-0.412364	-1.124947
H227	H	1.452579	-0.079030	-0.791613
H228	H	1.785913	0.254303	-0.458280
H229	H	1.061935	-0.418819	-1.194927
H230	H	1.395269	-0.085485	-0.861593
H231	H	1.728602	0.247848	-0.528260
H232	H	1.080580	-0.373704	-1.000098
H233	H	1.413913	-0.040371	-0.666765
H234	H	1.747247	0.292962	-0.333432
N235	N	1.073308	-0.770156	-0.364480
N236	N	1.406641	-0.436823	-0.031147
N237	N	1.739974	-0.103489	0.302187
H238	H	1.100377	-0.803361	-0.335585
H239	H	1.433710	-0.470028	-0.002252
H240	H	1.767043	-0.136694	0.331082
H241	H	1.107146	-0.738235	-0.396558
H242	H	1.440479	-0.404902	-0.063224
H243	H	1.773812	-0.071569	0.270109
H244	H	1.080528	-0.373767	-0.747248
H245	H	1.413861	-0.040433	-0.413915
H246	H	1.747194	0.292900	-0.080582
N247	N	0.931524	-0.820471	-0.515940
N248	N	1.264858	-0.487138	-0.182607
N249	N	1.598191	-0.153804	0.150727
H250	H	0.958811	-0.849696	-0.555049
H251	H	1.292144	-0.516363	-0.221716
H252	H	1.625477	-0.183029	0.111617
H253	H	0.897658	-0.852352	-0.483850
H254	H	1.230991	-0.519019	-0.150517
H255	H	1.564324	-0.185686	0.182817
H256	H	0.487734	-0.354127	-0.377451
H257	H	0.821067	-0.020793	-0.044117
H258	H	1.154401	0.312540	0.289216
H259	H	1.072568	-0.560037	-0.365127
H260	H	1.405901	-0.226704	-0.031793
H261	H	1.739235	0.106629	0.301540
N262	N	0.257149	-0.378086	-0.351801
N263	N	0.590482	-0.044753	-0.018468
N264	N	0.923815	0.288580	0.314865
H265	H	0.267780	-0.427829	-0.366762
H266	H	0.601113	-0.094496	-0.033429
H267	H	0.934447	0.238838	0.299905
H268	H	0.270406	-0.366484	-0.295839
H269	H	0.603739	-0.033151	0.037494
H270	H	0.937072	0.300182	0.370828
N271	N	0.740154	-0.400075	-0.328081
N272	N	1.073487	-0.066741	0.005252
N273	N	1.406820	0.266592	0.338585
H274	H	0.792578	-0.391030	-0.337777
H275	H	1.125912	-0.057696	-0.004444
H276	H	1.459245	0.275637	0.328889
H277	H	0.727758	-0.389603	-0.270954
H278	H	1.061092	-0.056270	0.062379
H279	H	1.394425	0.277064	0.395713
H280	H	0.932275	-1.030589	-0.515301
H281	H	1.265609	-0.697256	-0.181968
H282	H	1.598942	-0.363923	0.151366
N283	N	0.912924	-0.206022	-0.720449
N284	N	1.246258	0.127312	-0.387116
N285	N	1.579591	0.460645	-0.053782
H286	H	0.862180	-0.219082	-0.732903
H287	H	1.195513	0.114251	-0.399570
H288	H	1.528846	0.447585	-0.066237
H289	H	0.919503	-0.212587	-0.662935
H290	H	1.252836	0.120746	-0.329601
H291	H	1.586169	0.454079	0.003732
N292	N	0.595535	-0.219745	-0.521661
N293	N	0.928868	0.113589	-0.188328
N294	N	1.262202	0.446922	0.145006
H295	H	0.631202	-0.189804	-0.553791
H296	H	0.964535	0.143530	-0.220458
H297	H	1.297869	0.476863	0.112875
H298	H	0.563818	-0.249716	-0.557850
H299	H	0.897151	0.083617	-0.224516
H300	H	1.230484	0.416951	0.108817
N301	N	0.912960	-0.205974	-0.890825
N302	N	1.246294	0.127360	-0.557492
N303	N	1.579627	0.460693	-0.224158
H304	H	0.942980	-0.172145	-0.924671
H305	H	1.276313	0.161188	-0.591337
H306	H	1.609646	0.494521	-0.258004
H307	H	0.879119	-0.235979	-0.924595
H308	H	1.212452	0.097354	-0.591262
H309	H	1.545786	0.430687	-0.257928
N310	N	0.418011	-0.184740	-0.559345
N311	N	0.751344	0.148593	-0.226012
N312	N	1.084677	0.481927	0.107322
H313	H	0.469843	-0.189339	-0.554412
H314	H	0.803176	0.143995	-0.221079
H315	H	1.136510	0.477328	0.112254
H316	H	0.404702	-0.196322	-0.615295
H317	H	0.738035	0.137012	-0.281961
H318	H	1.071369	0.470345	0.051372
N319	N	1.078416	-0.702553	-0.358978
N320	N	1.411749	-0.369219	-0.025644
N321	N	1.745083	-0.035886	0.307689
H322	H	1.129228	-0.687572	-0.372929
H323	H	1.462561	-0.354239	-0.039595
H324	H	1.795895	-0.020906	0.293738
H325	H	1.067994	-0.690262	-0.301816
H326	H	1.401327	-0.356929	0.031517
H327	H	1.734661	-0.023596	0.364851
H328	H	1.101290	-0.890305	-0.334661
H329	H	1.434623	-0.556972	-0.001328
H330	H	1.767957	-0.223638	0.332006
N331	N	0.527921	-0.224904	-0.516200
N332	N	0.861254	0.108429	-0.182867
N333	N	1.194587	0.441762	0.150466
H334	H	0.514674	-0.236455	-0.572178
H335	H	0.848008	0.096879	-0.238845
H336	H	1.181341	0.430212	0.094489
H337	H	0.517273	-0.175180	-0.501181
H338	H	0.850607	0.158154	-0.167847
H339	H	1.183940	0.491487	0.165486
