data_functionalizedCrystal
_audit_creation_method	'MofGen! by Chris Wilmer'
_symmetry_space_group_name_H-M	'P1'
_symmetry_Int_Tables_number	1
_symmetry_cell_setting	triclinic
loop_
_symmetry_equiv_pos_as_xyz
  x,y,z
_cell_length_a	13.033409
_cell_length_b	12.759394
_cell_length_c	13.032268
_cell_angle_alpha	97.151248
_cell_angle_beta	105.162573
_cell_angle_gamma	82.844316
loop_
_atom_site_label
_atom_site_type_symbol
_atom_site_fract_x
_atom_site_fract_y
_atom_site_fract_z
Zn1	Zn	1.547485	-0.665904	-0.393944
Zn2	Zn	1.569948	-0.821807	-0.216353
Zn3	Zn	1.392435	-0.626386	-0.238950
Zn4	Zn	1.369866	-0.821767	-0.416504
O5	O	1.469934	-0.733966	-0.316438
O6	O	1.699089	-0.703140	-0.351488
O7	O	1.565247	-0.779362	-0.070721
O8	O	1.413047	-0.484615	-0.259527
O9	O	1.715593	-0.817681	-0.221012
O10	O	1.526962	-0.513649	-0.373400
O11	O	1.434829	-0.635787	-0.087324
O12	O	1.240817	-0.635749	-0.281402
O13	O	1.374581	-0.817614	-0.562141
O14	O	1.224235	-0.779295	-0.411850
O15	O	1.505077	-0.703102	-0.545566
O16	O	1.543362	-0.968815	-0.242887
O17	O	1.396363	-0.968786	-0.389938
C18	C	1.193990	-0.703230	-0.351527
C19	C	1.075936	-0.690109	-0.366563
C20	C	0.909465	-0.727262	-0.324151
C21	C	1.031480	-0.740826	-0.308605
C22	C	1.469877	-1.006925	-0.316428
C23	C	1.469945	-1.123713	-0.316447
C24	C	1.588450	-1.153788	-0.435138
C25	C	1.647734	-1.223690	-0.494487
C26	C	1.647795	-1.333422	-0.494502
C27	C	1.588561	-1.373251	-0.435164
C28	C	1.529276	-1.303348	-0.375814
C29	C	1.529225	-1.193616	-0.375803
C30	C	1.410767	-1.273274	-0.257131
C31	C	1.410712	-1.163542	-0.257108
C32	C	1.351534	-1.313103	-0.197793
C33	C	1.292254	-1.243200	-0.138436
C34	C	1.292197	-1.133463	-0.138423
C35	C	1.351427	-1.093639	-0.197759
C36	C	1.746955	-0.764823	-0.281213
C37	C	1.865005	-0.777972	-0.266202
C38	C	1.434806	-0.764762	-0.593469
C39	C	1.419837	-0.777885	-0.711523
C40	C	1.470017	-0.459947	-0.316467
C41	C	1.470052	-0.343176	-0.316480
C42	C	1.477730	-0.727077	-0.755954
C43	C	1.462260	-0.740640	-0.877969
C44	C	1.504986	-0.703221	-0.040477
C45	C	1.520161	-0.689825	0.077603
H46	H	1.588418	-1.064440	-0.435120
O47	O	1.705252	-1.184822	-0.552028
C48	C	1.692472	-1.072982	-0.539312
H49	H	1.668133	-1.045068	-0.461736
H50	H	1.771080	-1.040877	-0.536451
H51	H	1.627871	-1.042563	-0.609467
O52	O	1.093723	-0.804526	-0.235549
C53	C	1.080113	-0.766640	-0.133149
H54	H	0.999827	-0.717117	-0.141206
H55	H	1.082463	-0.836674	-0.085863
H56	H	1.147041	-0.715495	-0.089573
H57	H	0.917272	-0.831435	-0.205086
H58	H	1.538743	-0.673535	-0.703663
O59	O	1.013627	-0.626463	-0.439634
C60	C	1.027285	-0.664320	-0.542024
H61	H	1.057173	-0.752213	-0.543377
H62	H	0.947653	-0.653127	-0.603749
H63	H	1.088072	-0.618233	-0.561742
H64	H	1.696057	-1.390338	-0.542842
H65	H	1.358812	-0.831416	-0.763816
O66	O	1.234473	-1.065518	-0.080937
C67	C	1.158159	-1.001134	-0.150075
H68	H	1.140953	-1.042738	-0.234569
H69	H	1.081326	-0.986595	-0.121995
H70	H	1.190485	-0.922008	-0.149566
O71	O	1.588767	-1.479872	-0.435264
C72	C	1.653764	-1.533029	-0.500399
H73	H	1.713885	-1.478308	-0.507420
H74	H	1.698184	-1.607353	-0.463266
H75	H	1.601785	-1.556411	-0.583179
O76	O	1.351562	-1.419716	-0.198001
C77	C	1.311308	-1.464636	-0.303251
H78	H	1.321618	-1.410187	-0.362136
H79	H	1.356844	-1.545437	-0.316077
H80	H	1.222915	-1.474610	-0.316649
H81	H	1.244025	-1.275639	-0.090133
O82	O	1.351486	-0.987039	-0.197566
C83	C	1.391689	-0.942109	-0.092308
H84	H	1.443620	-1.005599	-0.042542
H85	H	1.441602	-0.875174	-0.093470
H86	H	1.322358	-0.909223	-0.055801
H87	H	1.581177	-0.636276	-0.870111
O88	O	1.389527	-0.804657	-0.940214
C89	C	1.416128	-0.908971	-0.910242
H90	H	1.467100	-0.906803	-0.824489
H91	H	1.339927	-0.947137	-0.916301
H92	H	1.462864	-0.957325	-0.965701
H93	H	0.857197	-0.673810	-0.385277
