data_functionalizedCrystal
_audit_creation_method	'MofGen! by Chris Wilmer'
_symmetry_space_group_name_H-M	'P1'
_symmetry_Int_Tables_number	1
_symmetry_cell_setting	triclinic
loop_
_symmetry_equiv_pos_as_xyz
  x,y,z
_cell_length_a	16.625548
_cell_length_b	13.897448
_cell_length_c	16.625548
_cell_angle_alpha	89.991335
_cell_angle_beta	90.004750
_cell_angle_gamma	89.981240
loop_
_atom_site_label
_atom_site_type_symbol
_atom_site_fract_x
_atom_site_fract_y
_atom_site_fract_z
Zn1	Zn	1.232581	0.384165	0.455913
Zn2	Zn	1.482581	0.634165	0.705913
Zn3	Zn	1.732581	0.884165	0.955913
Zn4	Zn	1.982581	1.134165	1.205913
Zn5	Zn	1.232533	0.545425	0.321082
Zn6	Zn	1.482533	0.795425	0.571082
Zn7	Zn	1.732533	1.045425	0.821082
Zn8	Zn	1.982533	1.295425	1.071082
Zn9	Zn	1.097780	0.384149	0.321094
Zn10	Zn	1.347780	0.634149	0.571094
Zn11	Zn	1.597780	0.884149	0.821094
Zn12	Zn	1.847780	1.134149	1.071094
Zn13	Zn	1.097725	0.545423	0.455872
Zn14	Zn	1.347725	0.795423	0.705872
Zn15	Zn	1.597725	1.045423	0.955872
Zn16	Zn	1.847725	1.295423	1.205872
O17	O	1.165155	0.464791	0.388490
O18	O	1.415155	0.714791	0.638490
O19	O	1.665155	0.964791	0.888490
O20	O	1.915155	1.214791	1.138490
O21	O	1.345407	0.405565	0.438040
O22	O	1.595407	0.655565	0.688040
O23	O	1.845407	0.905565	0.938040
O24	O	2.095407	1.155565	1.188040
O25	O	1.214661	0.524026	0.208252
O26	O	1.464661	0.774026	0.458252
O27	O	1.714661	1.024026	0.708252
O28	O	1.964661	1.274026	0.958252
O29	O	1.115705	0.249170	0.339000
O30	O	1.365705	0.499170	0.589000
O31	O	1.615705	0.749170	0.839000
O32	O	1.865705	0.999170	1.089000
O33	O	1.345372	0.524042	0.338980
O34	O	1.595372	0.774042	0.588980
O35	O	1.845372	1.024042	0.838980
O36	O	2.095372	1.274042	1.088980
O37	O	1.214743	0.249182	0.438051
O38	O	1.464743	0.499182	0.688051
O39	O	1.714743	0.749182	0.938051
O40	O	1.964743	0.999182	1.188051
O41	O	1.115659	0.405537	0.208260
O42	O	1.365659	0.655537	0.458260
O43	O	1.615659	0.905537	0.708260
O44	O	1.865659	1.155537	0.958260
O45	O	0.984941	0.405535	0.338960
O46	O	1.234941	0.655535	0.588960
O47	O	1.484941	0.905535	0.838960
O48	O	1.734941	1.155535	1.088960
O49	O	1.115611	0.524038	0.568710
O50	O	1.365611	0.774038	0.818710
O51	O	1.615611	1.024038	1.068710
O52	O	1.865611	1.274038	1.318710
O53	O	0.984900	0.524022	0.437981
O54	O	1.234900	0.774022	0.687981
O55	O	1.484900	1.024022	0.937981
O56	O	1.734900	1.274022	1.187981
O57	O	1.214689	0.405563	0.568740
O58	O	1.464689	0.655563	0.818740
O59	O	1.714689	0.905563	1.068740
O60	O	1.964689	1.155563	1.318740
O61	O	1.214607	0.680407	0.338940
O62	O	1.464607	0.930407	0.588940
O63	O	1.714607	1.180407	0.838940
O64	O	1.964607	1.430407	1.088940
O65	O	1.115564	0.680405	0.437970
O66	O	1.365564	0.930405	0.687970
O67	O	1.615564	1.180405	0.937970
O68	O	1.865564	1.430405	1.187970
C69	C	1.165096	0.715405	0.388467
C70	C	1.415096	0.965405	0.638467
C71	C	1.665096	1.215405	0.888467
C72	C	1.915096	1.465405	1.138467
C73	C	1.165145	0.822619	0.388484
C74	C	1.415145	1.072619	0.638484
C75	C	1.665145	1.322619	0.888484
C76	C	1.915145	1.572619	1.138484
C77	C	0.955664	0.464777	0.388468
C78	C	1.205664	0.714777	0.638468
C79	C	1.455664	0.964777	0.888468
C80	C	1.705664	1.214777	1.138468
C81	C	0.866043	0.464794	0.388477
C82	C	1.116043	0.714794	0.638477
C83	C	1.366043	0.964794	0.888477
C84	C	1.616043	1.214794	1.138477
C85	C	1.165149	0.464802	0.598799
C86	C	1.415149	0.714802	0.848799
C87	C	1.665149	0.964802	1.098799
C88	C	1.915149	1.214802	1.348799
C89	C	1.165147	0.464807	0.688420
C90	C	1.415147	0.714807	0.938420
C91	C	1.665147	0.964807	1.188420
C92	C	1.915147	1.214807	1.438420
C93	C	0.537867	0.464801	0.388512
C94	C	0.787867	0.714801	0.638512
C95	C	1.037867	0.964801	0.888512
C96	C	1.287867	1.214801	1.138512
C97	C	0.629176	0.464796	0.388500
C98	C	0.879176	0.714796	0.638500
C99	C	1.129176	0.964796	0.888500
C100	C	1.379176	1.214796	1.138500
C101	C	0.701952	0.464798	0.388494
C102	C	0.951952	0.714798	0.638494
C103	C	1.201952	0.964798	0.888494
C104	C	1.451952	1.214798	1.138494
C105	C	0.793266	0.464793	0.388483
C106	C	1.043266	0.714793	0.638483
C107	C	1.293266	0.964793	0.888483
C108	C	1.543266	1.214793	1.138483
C109	C	1.375464	0.464805	0.388514
C110	C	1.625464	0.714805	0.638514
C111	C	1.875464	0.964805	0.888514
C112	C	2.125464	1.214805	1.138514
C113	C	1.465085	0.464812	0.388523
C114	C	1.715085	0.714812	0.638523
C115	C	1.965085	0.964812	0.888523
C116	C	2.215085	1.214812	1.138523
C117	C	1.165236	0.213198	0.388532
C118	C	1.415236	0.463198	0.638532
C119	C	1.665236	0.713198	0.888532
C120	C	1.915236	0.963198	1.138532
C121	C	1.165270	0.105984	0.388549
C122	C	1.415270	0.355984	0.638549
C123	C	1.665270	0.605984	0.888549
C124	C	1.915270	0.855984	1.138549
C125	C	1.165229	1.018914	0.388535
C126	C	1.415229	1.268914	0.638535
C127	C	1.665229	1.518914	0.888535
C128	C	1.915229	1.768914	1.138535
C129	C	1.165180	0.909682	0.388509
C130	C	1.415180	1.159682	0.638509
C131	C	1.665180	1.409682	0.888509
C132	C	1.915180	1.659682	1.138509
C133	C	1.165144	0.464811	0.761203
C134	C	1.415144	0.714811	1.011203
C135	C	1.665144	0.964811	1.261203
C136	C	1.915144	1.214811	1.511203
C137	C	1.165143	0.464808	0.852511
C138	C	1.415143	0.714808	1.102511
C139	C	1.665143	0.964808	1.352511
C140	C	1.915143	1.214808	1.602511
C141	C	1.165147	0.464800	0.925288
C142	C	1.415147	0.714800	1.175288
C143	C	1.665147	0.964800	1.425288
C144	C	1.915147	1.214800	1.675288
C145	C	1.165147	0.464797	1.016602
C146	C	1.415147	0.714797	1.266602
C147	C	1.665147	0.964797	1.516602
C148	C	1.915147	1.214797	1.766602
C149	C	1.165153	0.464799	1.179000
C150	C	1.415153	0.714799	1.429000
C151	C	1.665153	0.964799	1.679000
C152	C	1.915153	1.214799	1.929000
C153	C	1.165151	0.464789	1.089378
C154	C	1.415151	0.714789	1.339378
C155	C	1.665151	0.964789	1.589378
C156	C	1.915151	1.214789	1.839378
