data_functionalizedCrystal
_audit_creation_method	'MofGen! by Chris Wilmer'
_symmetry_space_group_name_H-M	'P1'
_symmetry_Int_Tables_number	1
_symmetry_cell_setting	triclinic
loop_
_symmetry_equiv_pos_as_xyz
  x,y,z
_cell_length_a	18.101398
_cell_length_b	12.645330
_cell_length_c	12.645323
_cell_angle_alpha	90.024870
_cell_angle_beta	90.030393
_cell_angle_gamma	90.009664
loop_
_atom_site_label
_atom_site_type_symbol
_atom_site_fract_x
_atom_site_fract_y
_atom_site_fract_z
Zn1	Zn	-1.132216	0.422258	-0.599664
Zn2	Zn	-0.632216	0.922258	-0.099664
Zn3	Zn	-1.132133	0.599546	-0.422405
Zn4	Zn	-0.632133	1.099546	0.077595
Zn5	Zn	-1.008367	0.422272	-0.422385
Zn6	Zn	-0.508367	0.922272	0.077615
Zn7	Zn	-1.008354	0.599455	-0.599596
Zn8	Zn	-0.508354	1.099455	-0.099596
O9	O	-1.070267	0.510883	-0.511013
O10	O	-0.570267	1.010883	-0.011013
O11	O	-1.235837	0.445808	-0.576187
O12	O	-0.735837	0.945808	-0.076187
O13	O	-1.115686	0.576074	-0.274055
O14	O	-0.615686	1.076074	0.225945
O15	O	-1.024836	0.273923	-0.445922
O16	O	-0.524836	0.773923	0.054078
O17	O	-1.235777	0.576060	-0.445955
O18	O	-0.735777	1.076060	0.054045
O19	O	-1.115827	0.273913	-0.576168
O20	O	-0.615827	0.773913	-0.076168
O21	O	-1.024756	0.445832	-0.274040
O22	O	-0.524756	0.945832	0.225960
O23	O	-0.904732	0.445744	-0.445856
O24	O	-0.404732	0.945744	0.054144
O25	O	-1.024814	0.575905	-0.747953
O26	O	-0.524814	1.075905	-0.247953
O27	O	-0.904723	0.575919	-0.576052
O28	O	-0.404723	1.075919	-0.076052
O29	O	-1.115814	0.445720	-0.748003
O30	O	-0.615814	0.945720	-0.248003
O31	O	-1.115673	0.747881	-0.445889
O32	O	-0.615673	1.247881	0.054111
O33	O	-1.024734	0.747814	-0.576071
O34	O	-0.524734	1.247814	-0.076071
C35	C	-0.877857	0.510824	-0.510945
C36	C	-0.377857	1.010824	-0.010945
C37	C	-0.795543	0.510824	-0.510941
C38	C	-0.295543	1.010824	-0.010941
C39	C	-0.496452	0.510866	-0.511011
C40	C	0.003548	1.010866	-0.011011
C41	C	-0.527758	0.428556	-0.429496
C42	C	-0.027758	0.928556	0.070504
C43	C	-0.613376	0.428784	-0.429154
C44	C	-0.113376	0.928784	0.070846
C45	C	-0.644834	0.510844	-0.510976
C46	C	-0.144834	1.010844	-0.010976
C47	C	-0.613733	0.622514	-0.480458
C48	C	-0.113733	1.122514	0.019542
C49	C	-0.528088	0.622049	-0.479886
C50	C	-0.028088	1.122049	0.020114
C51	C	-0.528067	0.482479	-0.623237
C52	C	-0.028067	0.982479	-0.123237
C53	C	-0.613717	0.480000	-0.622630
C54	C	-0.113717	0.980000	-0.122630
C55	C	-0.728694	0.510839	-0.510958
C56	C	-0.228694	1.010839	-0.010958
C57	C	-0.412592	0.510879	-0.511026
C58	C	0.087408	1.010879	-0.011026
C59	C	-1.070213	0.786312	-0.510998
C60	C	-0.570213	1.286312	-0.010998
C61	C	-1.070258	0.904143	-0.511027
C62	C	-0.570258	1.404143	-0.011027
C63	C	-1.070322	0.510801	-0.787518
C64	C	-0.570322	1.010801	-0.287518
C65	C	-1.070345	0.510766	-0.905348
C66	C	-0.570345	1.010766	-0.405348
C67	C	-0.263429	0.510922	-0.511065
C68	C	0.236571	1.010922	-0.011065
C69	C	-0.345743	0.510886	-0.511046
C70	C	0.154257	1.010886	-0.011046
C71	C	-1.070342	0.234377	-0.511051
C72	C	-0.570342	0.734377	-0.011051
C73	C	-1.070374	0.116547	-0.511067
C74	C	-0.570374	0.616547	-0.011067
C75	C	-1.013284	1.071709	-0.593177
C76	C	-0.513284	1.571709	-0.093177
C77	C	-1.012992	0.949149	-0.592913
C78	C	-0.512992	1.449149	-0.092913
C79	C	-1.049129	0.948732	-0.399301
C80	C	-0.549129	1.448732	0.100699
C81	C	-1.048781	1.071331	-0.399799
C82	C	-0.548781	1.571331	0.100201
C83	C	-1.148710	1.071248	-0.539697
C84	C	-0.648710	1.571248	-0.039697
C85	C	-1.148229	0.948641	-0.542140
C86	C	-0.648229	1.448641	-0.042140
C87	C	-1.012920	0.592280	-1.072881
C88	C	-0.512920	1.092280	-0.572881
C89	C	-1.013071	0.592683	-0.950321
C90	C	-0.513071	1.092683	-0.450321
C91	C	-1.148377	0.541100	-0.949883
C92	C	-0.648377	1.041100	-0.449883
C93	C	-1.148062	0.541611	-1.072481
C94	C	-0.648062	1.041611	-0.572481
C95	C	-1.050477	0.398462	-1.072542
C96	C	-0.550477	0.898462	-0.572542
C97	C	-1.048736	0.399135	-0.949935
C98	C	-0.548736	0.899135	-0.449935
C99	C	-1.070256	0.510888	-0.235583
C100	C	-0.570256	1.010888	0.264417
C101	C	-1.070376	0.510624	-0.117753
C102	C	-0.570376	1.010624	0.382247
H103	H	-0.634110	0.685488	-0.537975
H104	H	-0.134110	1.185488	-0.037975
H105	H	-1.167983	1.102095	-0.619783
H106	H	-0.667983	1.602095	-0.119783
H107	H	-0.634048	0.397823	-0.645641
H108	H	-0.134048	0.897823	-0.145641
H109	H	-0.506208	0.447110	-0.346822
H110	H	-0.006208	0.947110	0.153178
H111	H	-1.192333	0.483508	-0.920756
H112	H	-0.692333	0.983508	-0.420756
H113	H	-1.087526	0.335079	-0.919321
H114	H	-0.587526	0.835079	-0.419321
H115	H	-1.192322	0.484720	-1.102168
H116	H	-0.692322	0.984720	-0.602168
H117	H	-1.026207	0.675834	-0.921009
H118	H	-0.526207	1.175834	-0.421009
H119	H	-1.092324	0.337625	-1.101564
H120	H	-0.592324	0.837625	-0.601564
H121	H	-1.164929	0.623604	-1.101095
H122	H	-0.664929	1.123604	-0.601095
H123	H	-0.634404	0.345976	-0.448282
H124	H	-0.134404	0.845976	0.051718
H125	H	-0.991517	1.100011	-0.375548
H126	H	-0.491517	1.600011	0.124452
Cl127	Cl	-1.111290	0.903730	-0.302259
Cl128	Cl	-0.611290	1.403730	0.197741
Cl129	Cl	-1.033399	0.902593	-0.720818
Cl130	Cl	-0.533399	1.402593	-0.220818
H131	H	-0.508077	0.646123	-0.397844
H132	H	-0.008077	1.146123	0.102156
H133	H	-0.507822	0.542431	-0.683973
H134	H	-0.007822	1.042431	-0.183973
Cl135	Cl	-0.923735	0.563369	-0.903823
Cl136	Cl	-0.423735	1.063369	-0.403823
Cl137	Cl	-1.172833	0.903641	-0.669088
Cl138	Cl	-0.672833	1.403641	-0.169088
H139	H	-0.507175	0.345492	-0.448411
H140	H	-0.007175	0.845492	0.051589
Cl141	Cl	-0.644960	0.457757	-0.300766
Cl142	Cl	-0.144960	0.957757	0.199234
H143	H	-0.506483	0.402464	-0.650982
H144	H	-0.006483	0.902464	-0.150982
Cl145	Cl	-0.960072	0.363818	-0.905006
Cl146	Cl	-0.460072	0.863818	-0.405006
H147	H	-0.507379	0.685453	-0.536669
H148	H	-0.007379	1.185453	-0.036669
Cl149	Cl	-0.646792	0.660334	-0.355162
Cl150	Cl	-0.146792	1.160334	0.144838
Cl151	Cl	-0.923328	0.903987	-0.563631
Cl152	Cl	-0.423328	1.403987	-0.063631
H153	H	-1.165533	0.622234	-0.919198
H154	H	-0.665533	1.122234	-0.419198
H155	H	-0.635134	0.535584	-0.686621
H156	H	-0.135134	1.035584	-0.186621
H157	H	-0.955572	1.102598	-0.574450
H158	H	-0.455572	1.602598	-0.074450
Cl159	Cl	-1.033501	1.117126	-0.721505
Cl160	Cl	-0.533501	1.617126	-0.221505
Cl161	Cl	-1.110184	1.117137	-0.302115
Cl162	Cl	-0.610184	1.617137	0.197885
H163	H	-0.994567	0.370814	-1.103435
H164	H	-0.494567	0.870814	-0.603435
Cl165	Cl	-0.961637	0.901463	-0.361180
Cl166	Cl	-0.461637	1.401463	0.138820
H167	H	-1.193004	0.917999	-0.486691
H168	H	-0.693004	1.417999	0.013309
H169	H	-1.191243	1.100244	-0.479893
H170	H	-0.691243	1.600244	0.020107
Cl171	Cl	-1.032959	0.719842	-1.120543
Cl172	Cl	-0.532959	1.219842	-0.620543
Cl173	Cl	-0.923314	0.563249	-1.118357
Cl174	Cl	-0.423314	1.063249	-0.618357
