data_functionalizedCrystal
_audit_creation_method	'MofGen! by Chris Wilmer'
_symmetry_space_group_name_H-M	'P1'
_symmetry_Int_Tables_number	1
_symmetry_cell_setting	triclinic
loop_
_symmetry_equiv_pos_as_xyz
  x,y,z
_cell_length_a	10.654550
_cell_length_b	22.610064
_cell_length_c	10.654550
_cell_angle_alpha	90.004269
_cell_angle_beta	95.515069
_cell_angle_gamma	90.005063
loop_
_atom_site_label
_atom_site_type_symbol
_atom_site_fract_x
_atom_site_fract_y
_atom_site_fract_z
O1	O	1.667850	0.049140	-0.176382
O2	O	1.302371	0.049151	-0.193188
O3	O	1.493514	0.049142	-0.002046
O4	O	1.476708	0.049150	-0.367524
O5	O	1.493480	-0.049227	-0.002074
O6	O	1.302337	-0.049218	-0.193216
O7	O	1.667816	-0.049229	-0.176410
Zn8	Zn	1.485071	-0.064842	-0.184817
Zn9	Zn	1.485116	0.064764	-0.184781
O10	O	1.476674	-0.049220	-0.367552
C11	C	1.255556	-0.000032	-0.191968
C12	C	1.116113	-0.000028	-0.188276
C13	C	1.036628	-0.000027	-0.300818
C14	C	0.905607	-0.000038	-0.297341
C15	C	0.933570	-0.000047	-0.068772
C16	C	1.064588	-0.000041	-0.072250
N17	N	1.485050	-0.153294	-0.184842
C18	C	1.569758	-0.561940	-0.100156
C19	C	1.569764	-0.623860	-0.100147
O20	O	1.641732	-0.655882	-0.028162
N21	N	1.485115	-0.654831	-0.184755
C22	C	1.400445	-0.623880	-0.269368
O23	O	1.328444	-0.655909	-0.341332
C24	C	1.400433	-0.561961	-0.269370
C25	C	1.485097	-0.530993	-0.184766
C26	C	1.654413	-0.530971	-0.015557
C27	C	1.654408	-0.469056	-0.015568
C28	C	1.569748	-0.438108	-0.100178
C29	C	1.485092	-0.469077	-0.184777
C30	C	1.315759	-0.531011	-0.353977
C31	C	1.315754	-0.469088	-0.353971
C32	C	1.400417	-0.438119	-0.269366
C33	C	1.400426	-0.376214	-0.269397
N34	N	1.485075	-0.345243	-0.184790
C35	C	1.569736	-0.376190	-0.100180
C36	C	1.400474	-0.753914	-0.269356
C37	C	1.400490	-0.815831	-0.269361
C38	C	1.569808	-0.815807	-0.100138
C39	C	1.569797	-0.753888	-0.100140
C40	C	1.485123	-0.722942	-0.184748
C41	C	1.569720	-0.246162	-0.100210
C42	C	1.569711	-0.184241	-0.100232
C43	C	1.400389	-0.184271	-0.269450
C44	C	1.400402	-0.246187	-0.269433
C45	C	1.485072	-0.277131	-0.184803
O46	O	1.328491	-0.344153	-0.341342
O47	O	1.641714	-0.344153	-0.028217
C48	C	1.714631	-0.000044	-0.177630
C49	C	1.854074	-0.000045	-0.181322
C50	C	1.492263	-0.000043	0.044738
C51	C	1.488571	-0.000042	0.184181
N52	N	1.485147	0.153216	-0.184747
C53	C	1.477925	-0.000034	-0.414336
C54	C	1.481616	-0.000031	-0.553779
C55	C	1.601112	-0.000045	0.263667
C56	C	1.597636	-0.000037	0.394688
C57	C	1.369066	-0.000026	0.366725
C58	C	1.372544	-0.000029	0.235706
H59	H	1.129309	-0.000043	0.019401
H60	H	1.246818	-0.556217	-0.422869
C61	C	1.662865	-0.280192	-0.007115
N62	N	1.733027	-0.305823	0.062998
C63	C	1.662847	-0.150180	-0.007152
N64	N	1.732992	-0.124526	0.062957
C65	C	0.876879	-0.000056	0.058851
N66	N	0.834182	-0.000060	0.154979
H67	H	1.078574	-0.000021	-0.395294
H68	H	0.840894	-0.000038	-0.388984
C69	C	1.241444	-0.000024	0.423415
N70	N	1.145315	-0.000027	0.466113
H71	H	1.689279	-0.000039	0.459401
H72	H	1.246798	-0.443895	-0.422868
H73	H	1.723345	-0.443845	0.053327
H74	H	1.331474	-0.271402	-0.338338
H75	H	1.723354	-0.556163	0.053348
H76	H	1.638736	-0.728677	-0.031247
H77	H	1.638742	-0.841015	-0.031242
H78	H	1.331563	-0.841041	-0.338267
C79	C	1.307378	-0.719878	-0.362497
N80	N	1.237275	-0.694246	-0.432666
H81	H	1.331463	-0.159064	-0.338342
H82	H	1.695588	-0.000053	0.221720
H83	H	1.280893	-0.000025	0.170985
