data_functionalizedCrystal
_audit_creation_method	'MofGen! by Chris Wilmer'
_symmetry_space_group_name_H-M	'P1'
_symmetry_Int_Tables_number	1
_symmetry_cell_setting	triclinic
loop_
_symmetry_equiv_pos_as_xyz
  x,y,z
_cell_length_a	27.732048
_cell_length_b	13.101039
_cell_length_c	27.732048
_cell_angle_alpha	86.670590
_cell_angle_beta	97.357345
_cell_angle_gamma	86.675896
loop_
_atom_site_label
_atom_site_type_symbol
_atom_site_fract_x
_atom_site_fract_y
_atom_site_fract_z
O1	O	0.643602	-0.085092	-0.054833
O2	O	1.143602	0.414908	0.445167
O3	O	0.502810	-0.085125	-0.063577
O4	O	1.002810	0.414875	0.436423
O5	O	0.577578	-0.085088	0.011191
O6	O	1.077578	0.414912	0.511191
O7	O	0.568834	-0.085129	-0.129601
O8	O	1.068834	0.414871	0.370399
O9	O	0.572214	0.085339	0.005818
O10	O	1.072214	0.585339	0.505818
O11	O	0.497445	0.085302	-0.068951
O12	O	0.997445	0.585302	0.431049
O13	O	0.638238	0.085335	-0.060206
O14	O	1.138238	0.585335	0.439794
Zn15	Zn	0.566990	0.112378	-0.065432
Zn16	Zn	1.066990	0.612378	0.434568
Zn17	Zn	0.574058	-0.112168	-0.058352
Zn18	Zn	1.074058	0.387832	0.441648
O19	O	0.563470	0.085298	-0.134975
O20	O	1.063470	0.585298	0.365025
C21	C	0.482121	0.000085	-0.066080
C22	C	0.982121	0.500085	0.433920
C23	C	0.428466	0.000073	-0.065527
C24	C	0.928466	0.500073	0.434473
N25	N	0.562170	0.265624	-0.070263
N26	N	1.062170	0.765624	0.429737
N27	N	0.578882	-0.265414	-0.053517
N28	N	1.078882	0.234586	0.446483
C29	C	0.089650	0.000106	-0.106232
C30	C	0.589650	0.500106	0.393768
C31	C	-0.112010	0.000115	-0.104181
C32	C	0.387990	0.500115	0.395819
O33	O	-0.143266	0.000149	-0.141403
O34	O	0.356734	0.500149	0.358597
N35	N	-0.131134	0.000127	-0.059847
N36	N	0.368866	0.500127	0.440153
C37	C	-0.099840	0.000142	-0.016021
C38	C	0.400160	0.500142	0.483979
O39	O	-0.120733	0.000162	0.021735
O40	O	0.379267	0.500162	0.521735
C41	C	0.101819	0.000140	-0.018073
C42	C	0.601819	0.500140	0.481927
C43	C	0.120941	0.000118	-0.062410
C44	C	0.620941	0.500118	0.437590
C45	C	0.108772	0.000085	-0.150566
C46	C	0.608772	0.500085	0.349434
C47	C	0.159184	0.000077	-0.151078
C48	C	0.659184	0.500077	0.348922
C49	C	0.190475	0.000090	-0.107256
C50	C	0.690475	0.500090	0.392744
C51	C	0.171353	0.000110	-0.062922
C52	C	0.671353	0.500110	0.437078
C53	C	0.133112	0.000162	0.025751
C54	C	0.633112	0.500162	0.525751
C55	C	0.183529	0.000164	0.025235
C56	C	0.683529	0.500164	0.525235
C57	C	0.202651	0.000143	-0.019103
C58	C	0.702651	0.500143	0.480897
C59	C	0.253055	0.000114	-0.019612
C60	C	0.753055	0.500114	0.480388
N61	N	0.272179	0.000103	-0.063947
N62	N	0.772179	0.500103	0.436053
C63	C	0.240889	0.000091	-0.107769
C64	C	0.740889	0.500091	0.392231
C65	C	-0.205714	0.000141	-0.014947
C66	C	0.294286	0.500141	0.485053
C67	C	-0.256128	0.000140	-0.014434
C68	C	0.243872	0.500140	0.485566
C69	C	-0.268295	0.000115	-0.102595
C70	C	0.231705	0.500115	0.397405
C71	C	-0.217879	0.000109	-0.103107
C72	C	0.282121	0.500109	0.396893
C73	C	-0.186590	0.000130	-0.059282
C74	C	0.313410	0.500130	0.440718
C75	C	0.346759	0.000073	-0.108841
C76	C	0.846759	0.500073	0.391159
C77	C	0.397176	0.000061	-0.109349
C78	C	0.897176	0.500061	0.390651
C79	C	0.409338	0.000091	-0.021189
C80	C	0.909338	0.500091	0.478811
C81	C	0.358925	0.000098	-0.020681
C82	C	0.858925	0.500098	0.479319
C83	C	0.327636	0.000092	-0.064511
C84	C	0.827636	0.500092	0.435489
O85	O	0.284340	0.000092	0.017589
O86	O	0.784340	0.500092	0.517589
O87	O	0.261792	0.000093	-0.145521
O88	O	0.761792	0.500093	0.354479
C89	C	0.039238	0.000114	-0.105720
C90	C	0.539238	0.500114	0.394280
C91	C	0.020116	0.000134	-0.061386
C92	C	0.520116	0.500134	0.438614
C93	C	0.051406	0.000146	-0.017564
C94	C	0.551406	0.500146	0.482436
C95	C	-0.030298	0.000133	-0.060873
C96	C	0.469702	0.500133	0.439127
C97	C	-0.061588	0.000121	-0.104695
C98	C	0.438412	0.500121	0.395305
C99	C	-0.042464	0.000109	-0.149030
C100	C	0.457536	0.500109	0.350970
C101	C	0.007948	0.000101	-0.149542
C102	C	0.507948	0.500101	0.350458
C103	C	0.032282	0.000157	0.026770
C104	C	0.532282	0.500157	0.526770
C105	C	-0.018130	0.000164	0.027279
C106	C	0.481870	0.500164	0.527279
C107	C	-0.049421	0.000152	-0.016543
C108	C	0.450579	0.500152	0.483457
C109	C	0.658927	0.000123	-0.057703
C110	C	1.158927	0.500123	0.442297
C111	C	0.712582	0.000128	-0.058256
C112	C	1.212582	0.500128	0.441744
C113	C	0.574712	0.000128	0.026511
C114	C	1.074712	0.500128	0.526511
C115	C	0.574159	0.000137	0.080166
C116	C	1.074159	0.500137	0.580166
C117	C	0.555611	0.474663	-0.076841
C118	C	1.055611	0.974663	0.423159
C119	C	0.585439	0.525553	-0.046941
C120	C	1.085439	1.025553	0.453059
C121	C	0.581790	0.641870	-0.050601
C122	C	1.081790	1.141870	0.449399
C123	C	0.559260	0.358336	-0.073181
C124	C	1.059260	0.858336	0.426819
C125	C	0.566336	0.000079	-0.150295
C126	C	1.066336	0.500079	0.349705
C127	C	0.566889	0.000064	-0.203949
C128	C	1.066889	0.500064	0.296051
C129	C	0.614864	0.000093	0.418982
C130	C	1.114864	0.500093	0.918982
C131	C	0.612814	0.000079	0.620642
C132	C	1.112814	0.500079	1.120642
O133	O	0.650036	0.000042	0.651899
O134	O	1.150036	0.500042	1.151899
N135	N	0.568479	0.000069	0.639766
N136	N	1.068479	0.500069	1.139766
C137	C	0.524654	0.000057	0.608472
C138	C	1.024654	0.500057	1.108472
O139	O	0.486898	0.000038	0.629366
O140	O	0.986898	0.500038	1.129366
C141	C	0.526705	0.000064	0.406813
C142	C	1.026705	0.500064	0.906813
C143	C	0.571043	0.000084	0.387692
C144	C	1.071043	0.500084	0.887692
C145	C	0.659198	0.000112	0.399860
C146	C	1.159198	0.500112	0.899860
C147	C	0.659710	0.000121	0.349448
C148	C	1.159710	0.500121	0.849448
C149	C	0.615888	0.000112	0.318158
C150	C	1.115888	0.500112	0.818158
C151	C	0.571554	0.000093	0.337279
C152	C	1.071554	0.500093	0.837279
C153	C	0.482881	0.000045	0.375520
C154	C	0.982881	0.500045	0.875520
C155	C	0.483397	0.000044	0.325103
C156	C	0.983397	0.500044	0.825103
C157	C	0.527735	0.000064	0.305981
C158	C	1.027735	0.500064	0.805981
C159	C	0.528245	0.000093	0.255577
C160	C	1.028245	0.500093	0.755577
N161	N	0.572579	0.000103	0.236453
N162	N	1.072579	0.500103	0.736453
C163	C	0.616401	0.000112	0.267743
C164	C	1.116401	0.500112	0.767743
C165	C	0.523580	0.000055	0.714346
C166	C	1.023580	0.500055	1.214346
C167	C	0.523067	0.000055	0.764760
C168	C	1.023067	0.500055	1.264760
C169	C	0.611227	0.000075	0.776927
C170	C	1.111227	0.500075	1.276927
C171	C	0.611740	0.000082	0.726512
C172	C	1.111740	0.500082	1.226512
C173	C	0.567915	0.000064	0.695222
C174	C	1.067915	0.500064	1.195222
C175	C	0.617473	0.000132	0.161873
C176	C	1.117473	0.500132	0.661873
C177	C	0.617981	0.000146	0.111456
C178	C	1.117981	0.500146	0.611456
C179	C	0.529821	0.000121	0.099294
C180	C	1.029821	0.500121	0.599294
C181	C	0.529313	0.000113	0.149707
C182	C	1.029313	0.500113	0.649707
C183	C	0.573143	0.000115	0.180996
C184	C	1.073143	0.500115	0.680996
O185	O	0.491043	0.000118	0.224292
O186	O	0.991043	0.500118	0.724292
O187	O	0.654153	0.000108	0.246841
O188	O	1.154153	0.500108	0.746841
C189	C	0.614352	0.000084	0.469394
C190	C	1.114352	0.500084	0.969394
C191	C	0.570019	0.000066	0.488516
C192	C	1.070019	0.500066	0.988516
C193	C	0.526197	0.000056	0.457226
C194	C	1.026197	0.500056	0.957226
C195	C	0.569506	0.000065	0.538931
C196	C	1.069506	0.500065	1.038931
C197	C	0.613327	0.000075	0.570221
C198	C	1.113327	0.500075	1.070221
C199	C	0.657662	0.000084	0.551097
C200	C	1.157662	0.500084	1.051097
C201	C	0.658174	0.000093	0.500685
C202	C	1.158174	0.500093	1.000685
C203	C	0.481862	0.000047	0.476350
C204	C	0.981862	0.500047	0.976350
C205	C	0.481353	0.000039	0.526763
C206	C	0.981353	0.500039	1.026763
C207	C	0.525175	0.000048	0.558053
C208	C	1.025175	0.500048	1.058053
H209	H	0.321288	0.000072	-0.144532
H210	H	0.821288	0.500072	0.355468
H211	H	-0.202315	0.000098	-0.139211
H212	H	0.297685	0.500098	0.360789
O213	O	0.518162	0.532652	-0.114393
O214	O	1.018162	1.032652	0.385607
H215	H	0.521143	0.616234	-0.111414
H216	H	1.021143	1.116234	0.388586
O217	O	0.482559	0.000113	0.065537
O218	O	0.982559	0.500113	0.565537
H219	H	0.451640	0.000107	0.087300
H220	H	0.951640	0.500107	0.587300
H221	H	0.412742	0.000043	-0.145455
H222	H	0.912742	0.500043	0.354545
H223	H	0.613715	0.481765	-0.018595
H224	H	1.113715	0.981765	0.481405
O225	O	0.433527	0.000019	0.547380
O226	O	0.933527	0.500019	1.047380
H227	H	0.428991	0.069481	0.567872
H228	H	0.928991	0.569481	1.067872
H229	H	0.446777	0.000022	0.391080
H230	H	0.946777	0.500022	0.891080
O231	O	0.476309	0.000042	0.680600
O232	O	0.976309	0.500042	1.180600
H233	H	0.472249	0.069503	0.655152
H234	H	0.972249	0.569503	1.155152
O235	O	-0.276748	0.000163	0.033388
O236	O	0.223252	0.500163	0.533388
H237	H	-0.261966	-0.069287	0.056619
H238	H	0.238034	0.430713	0.556619
H239	H	0.693344	0.000096	0.576582
H240	H	1.193344	0.500096	1.076582
O241	O	0.665804	0.000151	0.090832
O242	O	1.165804	0.500151	0.590832
H243	H	0.696189	0.000141	0.121063
H244	H	1.196189	0.500141	0.621063
H245	H	0.174748	0.000059	-0.187182
H246	H	0.674748	0.500059	0.312818
H247	H	0.653164	0.000130	0.187344
H248	H	1.153164	0.500130	0.687344
O249	O	0.434594	0.000056	0.442603
O250	O	0.934594	0.500056	0.942603
H251	H	0.403683	0.000060	0.464375
H252	H	0.903683	0.500060	0.964375
H253	H	-0.067950	0.000095	-0.184711
H254	H	0.432050	0.500095	0.315289
H255	H	0.695815	0.000133	0.333885
H256	H	1.195815	0.500133	0.833885
H257	H	0.083300	0.000079	-0.186253
H258	H	0.583300	0.500079	0.313747
O259	O	0.217277	0.000193	0.072504
O260	O	0.717277	0.500193	0.572504
H261	H	0.242723	-0.069266	0.076573
H262	H	0.742723	0.430734	0.576573
H263	H	0.694278	0.000109	0.485121
H264	H	1.194278	0.500109	0.985121
H265	H	0.694886	0.000116	0.425333
H266	H	1.194886	0.500116	0.925333
O267	O	-0.302048	0.000118	-0.149862
O268	O	0.197952	0.500118	0.350138
H269	H	-0.340315	0.000132	-0.142053
H270	H	0.159685	0.500132	0.357947
O271	O	0.659562	0.000083	0.705892
O272	O	1.159562	0.500083	1.205892
H273	H	0.678417	0.069545	0.716304
H274	H	1.178417	0.569545	1.216304
O275	O	-0.171967	0.000159	0.032323
O276	O	0.328033	0.500159	0.532323
H277	H	-0.193740	0.000158	0.063234
H278	H	0.306260	0.500158	0.563234
H279	H	0.646909	0.000083	0.802413
H280	H	1.146909	0.500083	1.302413
H281	H	0.486962	0.000057	0.780324
H282	H	0.986962	0.500057	1.280324
H283	H	0.447709	0.000028	0.299628
H284	H	0.947709	0.500028	0.799628
H285	H	0.117553	0.000181	0.061856
H286	H	0.617553	0.500181	0.561856
H287	H	0.343357	0.000100	0.015423
H288	H	0.843357	0.500100	0.515423
H289	H	0.493209	0.000125	0.165275
H290	H	0.993209	0.500125	0.665275
H291	H	0.434824	0.000097	0.014489
H292	H	0.934824	0.500097	0.514489
H293	H	0.023511	0.000085	-0.185646
H294	H	0.523511	0.500085	0.314354
H295	H	0.057755	0.000170	0.062456
H296	H	0.557755	0.500170	0.562456
O297	O	-0.038753	0.000197	0.075103
O298	O	0.461247	0.500197	0.575103
H299	H	-0.008521	0.000218	0.105485
H300	H	0.491479	0.500218	0.605485
