data_functionalizedCrystal
_audit_creation_method	'MofGen! by Chris Wilmer'
_symmetry_space_group_name_H-M	'P1'
_symmetry_Int_Tables_number	1
_symmetry_cell_setting	triclinic
loop_
_symmetry_equiv_pos_as_xyz
  x,y,z
_cell_length_a	19.288859
_cell_length_b	19.288857
_cell_length_c	18.366186
_cell_angle_alpha	89.996291
_cell_angle_beta	89.992763
_cell_angle_gamma	83.133417
loop_
_atom_site_label
_atom_site_type_symbol
_atom_site_fract_x
_atom_site_fract_y
_atom_site_fract_z
O1	O	0.921351	0.086624	-0.060567
O2	O	1.421351	0.586624	0.439433
O3	O	0.719089	0.098317	-0.060566
O4	O	1.219089	0.598317	0.439434
O5	O	0.826067	-0.008660	-0.060558
O6	O	1.326067	0.491340	0.439442
O7	O	0.814373	0.193602	-0.060575
O8	O	1.314373	0.693602	0.439425
O9	O	0.826053	-0.008656	0.060541
O10	O	1.326053	0.491344	0.560541
O11	O	0.719076	0.098321	0.060533
O12	O	1.219076	0.598321	0.560533
O13	O	0.921337	0.086628	0.060532
O14	O	1.421337	0.586628	0.560532
Zn15	Zn	0.820204	0.092475	0.079760
Zn16	Zn	1.320204	0.592475	0.579760
Zn17	Zn	0.820222	0.092470	-0.079794
Zn18	Zn	1.320222	0.592470	0.420206
O19	O	0.814359	0.193605	0.060524
O20	O	1.314359	0.693605	0.560524
C21	C	0.693206	0.097944	-0.000016
C22	C	1.193206	0.597944	0.499984
C23	C	0.616102	0.096816	-0.000015
C24	C	1.116102	0.596816	0.499985
C25	C	0.052060	0.151960	-0.000021
C26	C	0.552060	0.651960	0.499979
C27	C	0.124506	0.153025	-0.000025
C28	C	0.624506	0.653025	0.499975
C29	C	0.169215	0.090256	-0.000018
C30	C	0.669215	0.590256	0.499982
C31	C	0.141472	0.026416	-0.000026
C32	C	0.641472	0.526416	0.499974
C33	C	0.069026	0.025353	-0.000030
C34	C	0.569026	0.525353	0.499970
C35	C	0.290482	0.043444	0.042415
C36	C	0.790482	0.543444	0.542415
C37	C	0.362925	0.044510	0.042423
C38	C	0.862925	0.544510	0.542423
C39	C	0.392661	0.093533	-0.000011
C40	C	0.892661	0.593533	0.499989
C41	C	0.349942	0.141502	-0.042444
C42	C	0.849942	0.641502	0.457556
C43	C	0.277497	0.140439	-0.042447
C44	C	0.777497	0.640439	0.457553
C45	C	0.247771	0.091402	-0.000015
C46	C	0.747771	0.591402	0.499985
C47	C	0.498950	0.158524	-0.000013
C48	C	0.998950	0.658524	0.499987
C49	C	0.571399	0.159587	-0.000021
C50	C	1.071399	0.659587	0.499979
C51	C	0.588363	0.032976	-0.000015
C52	C	1.088363	0.532976	0.499985
C53	C	0.515916	0.031915	-0.000014
C54	C	1.015916	0.531915	0.499986
C55	C	0.471214	0.094691	-0.000009
C56	C	0.971214	0.594691	0.499991
C57	C	0.825685	-0.034535	-0.000008
C58	C	1.325685	0.465465	0.499992
C59	C	0.824558	-0.111639	-0.000006
C60	C	1.324558	0.388361	0.499994
C61	C	0.947220	0.087001	-0.000020
C62	C	1.447220	0.587001	0.499980
C63	C	1.024324	0.088129	-0.000025
C64	C	1.524324	0.588129	0.499975
N65	N	0.820197	0.092478	0.188651
N66	N	1.320197	0.592478	0.688651
C67	C	0.824040	-0.147851	-0.066017
C68	C	1.324040	0.352149	0.433983
C69	C	0.822971	-0.220297	-0.066022
C70	C	1.322971	0.279703	0.433978
C71	C	0.822435	-0.256530	-0.000013
C72	C	1.322435	0.243470	0.499987
C73	C	0.822949	-0.220308	0.066007
C74	C	1.322949	0.279692	0.566007
C75	C	0.824011	-0.147862	0.066011
C76	C	1.324011	0.352138	0.566011
C77	C	0.861431	-0.376760	0.050555
C78	C	1.361431	0.123240	0.550555
C79	C	0.860373	-0.449205	0.050548
C80	C	1.360373	0.050795	0.550548
C81	C	0.819157	-0.479975	-0.000021
C82	C	1.319157	0.020025	0.499979
C83	C	0.779007	-0.438293	-0.050596
C84	C	1.279007	0.061707	0.449404
C85	C	0.780069	-0.365848	-0.050592
C86	C	1.280069	0.134152	0.449408
C87	C	0.821283	-0.335085	-0.000009
C88	C	1.321283	0.164915	0.499991
C89	C	0.817479	-0.594742	-0.066043
C90	C	1.317479	-0.094742	0.433957
C91	C	0.816406	-0.667189	-0.066045
C92	C	1.316406	-0.167189	0.433955
C93	C	0.816391	-0.667199	0.065986
C94	C	1.316391	-0.167199	0.565986
C95	C	0.817457	-0.594753	0.065987
C96	C	1.317457	-0.094753	0.565987
C97	C	0.818004	-0.558529	-0.000029
C98	C	1.318004	-0.058529	0.499971
C99	C	0.814741	0.219480	-0.000028
C100	C	1.314741	0.719480	0.499972
C101	C	0.815868	0.296584	-0.000035
C102	C	1.315868	0.796584	0.499965
N103	N	0.820235	0.092462	-0.188685
N104	N	1.320235	0.592462	0.311315
C105	C	0.862227	0.134475	0.773196
C106	C	1.362227	0.634475	1.273196
C107	C	0.862220	0.134482	0.696969
C108	C	1.362220	0.634482	1.196969
C109	C	0.820229	0.092462	0.658862
C110	C	1.320229	0.592462	1.158862
C111	C	0.778229	0.050447	0.696990
C112	C	1.278229	0.550447	1.196990
C113	C	0.778232	0.050446	0.773216
C114	C	1.278232	0.550446	1.273216
C115	C	0.818504	0.029838	0.538101
C116	C	1.318504	0.529838	1.038101
C117	C	0.818505	0.029837	0.461876
C118	C	1.318505	0.529837	0.961876
C119	C	0.820215	0.092464	0.423755
C120	C	1.320215	0.592464	0.923755
C121	C	0.821937	0.155094	0.461867
C122	C	1.321937	0.655094	0.961867
C123	C	0.821940	0.155094	0.538094
C124	C	1.321940	0.655094	1.038094
C125	C	0.820220	0.092458	0.576208
C126	C	1.320220	0.592458	1.076208
C127	C	0.862201	0.134488	0.302981
C128	C	1.362201	0.634488	0.802981
C129	C	0.862189	0.134497	0.226752
C130	C	1.362189	0.634497	0.726752
C131	C	0.778202	0.050455	0.226775
C132	C	1.278202	0.550455	0.726775
C133	C	0.778210	0.050453	0.303003
C134	C	1.278210	0.550453	0.803003
C135	C	0.820213	0.092469	0.341101
C136	C	1.320213	0.592469	0.841101
H137	H	0.374150	0.181423	-0.076995
H138	H	0.874150	0.681423	0.423005
H139	H	0.744036	0.016233	0.804252
H140	H	1.244036	0.516233	1.304252
N141	N	0.485998	-0.036934	-0.000001
N142	N	0.985998	0.463066	0.499999
H143	H	0.433321	-0.028083	-0.000004
H144	H	0.933321	0.471917	0.499996
H145	H	0.502371	-0.064393	-0.044891
H146	H	1.002371	0.435607	0.455109
N147	N	0.823783	0.222639	0.579203
N148	N	1.323783	0.722639	1.079203
H149	H	0.866897	0.219130	0.610825
H150	H	1.366897	0.719130	1.110825
H151	H	0.824837	0.262281	0.543447
H152	H	1.324837	0.762281	1.043447
N153	N	0.732912	0.005129	0.185689
N154	N	1.232912	0.505129	0.685689
H155	H	0.682335	0.018962	0.198964
H156	H	1.182335	0.518962	0.698964
H157	H	0.739337	0.011521	0.131628
H158	H	1.239337	0.511521	0.631628
N159	N	0.822375	-0.259382	0.137205
N160	N	1.322375	0.240618	0.637205
H161	H	0.821629	-0.310773	0.127186
H162	H	1.321629	0.189227	0.627186
H163	H	0.865609	-0.252485	0.166028
H164	H	1.365609	0.247515	0.666028
N165	N	0.732931	0.005127	0.344122
N166	N	1.232931	0.505127	0.844122
H167	H	0.763286	-0.028946	0.375743
H168	H	1.263286	0.471054	0.875743
H169	H	0.698846	0.035503	0.375713
H170	H	1.198846	0.535503	0.875713
N171	N	0.824572	-0.108799	0.137212
N172	N	1.324572	0.391201	0.637212
H173	H	0.824068	-0.142742	0.179030
H174	H	1.324068	0.357258	0.679030
H175	H	0.868064	-0.084512	0.140088
H176	H	1.368064	0.415488	0.640088
H177	H	0.817108	-0.021161	0.430851
H178	H	1.317108	0.478839	0.930851
H179	H	0.817105	-0.021164	0.569134
H180	H	1.317105	0.478836	1.069134
N181	N	0.189690	-0.041285	-0.000010
N182	N	0.689690	0.458715	0.499990
H183	H	0.161124	-0.081885	-0.000012
H184	H	0.661124	0.418115	0.499988
H185	H	0.220128	-0.043602	-0.044899
H186	H	0.720128	0.456398	0.455101
N187	N	0.039107	-0.043496	-0.000033
N188	N	0.539107	0.456504	0.499967
H189	H	0.078419	-0.083101	-0.000032
H190	H	0.578419	0.416899	0.499968
H191	H	0.009413	-0.046695	0.044860
H192	H	0.509413	0.453305	0.544860
N193	N	0.258404	-0.009422	0.088194
N194	N	0.758404	0.490578	0.588194
H195	H	0.232345	-0.039697	0.055703
H196	H	0.732345	0.460303	0.555703
H197	H	0.296487	-0.039596	0.115080
H198	H	0.796487	0.460404	0.615080
H199	H	0.015667	0.203077	-0.000021
H200	H	0.515667	0.703077	0.499979
H201	H	0.896428	0.168689	0.804212
H202	H	1.396428	0.668689	1.304212
H203	H	0.824483	-0.118362	-0.119773
H204	H	1.324483	0.381638	0.380227
N205	N	0.822412	-0.259373	-0.137219
N206	N	1.322412	0.240627	0.362781
H207	H	0.779554	-0.240999	-0.166085
H208	H	1.279554	0.259001	0.333915
H209	H	0.865680	-0.252523	-0.166019
H210	H	1.365680	0.247477	0.333981
N211	N	0.903674	-0.494160	0.105094
N212	N	1.403674	0.005840	0.605094
H213	H	0.938033	-0.528873	0.078494
H214	H	1.438033	-0.028873	0.578494
H215	H	0.929894	-0.463625	0.137120
H216	H	1.429894	0.036375	0.637120
N217	N	0.601314	0.228438	-0.000011
N218	N	1.101314	0.728438	0.499989
H219	H	0.653991	0.219588	-0.000012
H220	H	1.153991	0.719588	0.499988
H221	H	0.584951	0.255902	-0.044901
H222	H	1.084951	0.755902	0.455099
N223	N	0.815814	-0.706275	0.137180
N224	N	1.315814	-0.206275	0.637180
H225	H	0.859044	-0.699438	0.166042
H226	H	1.359044	-0.199438	0.666042
H227	H	0.772918	-0.687883	0.165984
H228	H	1.272918	-0.187883	0.665984
H229	H	0.747376	-0.331913	-0.091771
H230	H	1.247376	0.168087	0.408229
N231	N	0.734551	-0.471469	-0.105147
N232	N	1.234551	0.028531	0.394853
H233	H	0.739967	-0.523687	-0.097475
H234	H	1.239967	-0.023687	0.402525
H235	H	0.683990	-0.452004	-0.098375
H236	H	1.183990	0.047996	0.401625
N237	N	0.450730	0.226227	-0.000016
N238	N	0.950730	0.726227	0.499984
H239	H	0.479297	0.266828	-0.000022
H240	H	0.979297	0.766828	0.499978
H241	H	0.420309	0.228540	-0.044910
H242	H	0.920309	0.728540	0.455090
N243	N	0.636573	-0.034728	-0.000016
N244	N	1.136573	0.465272	0.499984
H245	H	0.686677	-0.024370	-0.000015
H246	H	1.186677	0.475630	0.499985
H247	H	0.627609	-0.062559	0.044877
H248	H	1.127609	0.437441	0.544877
N249	N	0.408989	-0.007223	0.088196
N250	N	0.908989	0.492777	0.588196
H251	H	0.402934	-0.056278	0.072353
H252	H	0.902934	0.443722	0.572353
H253	H	0.459375	0.000950	0.081750
H254	H	0.959375	0.500950	0.581750
N255	N	0.154433	0.221874	-0.000022
N256	N	0.654433	0.721874	0.499978
H257	H	0.115121	0.261480	-0.000021
H258	H	0.615121	0.761480	0.499979
H259	H	0.184114	0.225065	0.044874
H260	H	0.684114	0.725065	0.544874
N261	N	0.818032	-0.555694	0.137187
N262	N	1.318032	-0.055694	0.637187
H263	H	0.818787	-0.504303	0.127174
H264	H	1.318787	-0.004303	0.627174
H265	H	0.774795	-0.562591	0.166016
H266	H	1.274795	-0.062591	0.666016
N267	N	0.823785	0.222648	0.420763
N268	N	1.323785	0.722648	0.920763
H269	H	0.823519	0.213149	0.366691
H270	H	1.323519	0.713149	0.866691
H271	H	0.781498	0.256300	0.434096
H272	H	1.281498	0.756300	0.934096
H273	H	0.817920	-0.565247	-0.119797
H274	H	1.317920	-0.065247	0.380203
N275	N	0.905886	-0.343576	0.105102
N276	N	1.405886	0.156424	0.605102
H277	H	0.931163	-0.380973	0.137134
H278	H	1.431163	0.119027	0.637134
H279	H	0.941080	-0.318171	0.078448
H280	H	1.441080	0.181829	0.578448
N281	N	0.815905	-0.706259	-0.137247
N282	N	1.315905	-0.206259	0.362753
H283	H	0.816435	-0.672318	-0.179064
H284	H	1.316435	-0.172318	0.320936
H285	H	0.858534	-0.742064	-0.140072
H286	H	1.358534	-0.242064	0.359928
H287	H	0.896399	0.168703	0.334003
H288	H	1.396399	0.668703	0.834003
H289	H	0.896413	0.168697	0.665926
H290	H	1.396413	0.668697	1.165926
H291	H	0.896382	0.168713	0.195717
H292	H	1.396382	0.668713	0.695717
H293	H	0.744038	0.016236	0.665959
H294	H	1.244038	0.516236	1.165959
H295	H	0.242718	0.179495	-0.076998
H296	H	0.742718	0.679495	0.423002
