data_functionalizedCrystal
_audit_creation_method	'MofGen! by Chris Wilmer'
_symmetry_space_group_name_H-M	'P1'
_symmetry_Int_Tables_number	1
_symmetry_cell_setting	triclinic
loop_
_symmetry_equiv_pos_as_xyz
  x,y,z
_cell_length_a	12.827893
_cell_length_b	18.050589
_cell_length_c	12.827893
_cell_angle_alpha	90.007221
_cell_angle_beta	90.003786
_cell_angle_gamma	90.028191
loop_
_atom_site_label
_atom_site_type_symbol
_atom_site_fract_x
_atom_site_fract_y
_atom_site_fract_z
Zn1	Zn	1.597417	-0.295788	0.590850
Zn2	Zn	1.597319	-0.419947	0.416111
Zn3	Zn	1.422705	-0.295776	0.416124
Zn4	Zn	1.422604	-0.419940	0.590811
O5	O	1.510011	-0.357863	0.503474
O6	O	1.743640	-0.312266	0.567681
O7	O	1.574157	-0.403473	0.269877
O8	O	1.445964	-0.191853	0.439323
O9	O	1.743568	-0.403485	0.439302
O10	O	1.574324	-0.191862	0.567694
O11	O	1.445870	-0.312245	0.269886
O12	O	1.276456	-0.312238	0.439285
O13	O	1.445792	-0.403474	0.737052
O14	O	1.276382	-0.403462	0.567627
O15	O	1.574226	-0.312259	0.737081
O16	O	1.574059	-0.523871	0.439264
O17	O	1.445697	-0.523866	0.567615
C18	C	1.238501	-0.357848	0.503454
C19	C	1.122348	-0.357860	0.503470
C20	C	1.070554	-0.403071	0.566880
C21	C	0.950504	-0.403084	0.566898
C22	C	1.509885	-0.550815	0.503456
C23	C	1.509927	-0.633361	0.503484
C24	C	1.440192	-0.832836	0.573257
C25	C	1.414741	-0.882256	0.477900
C26	C	1.510029	-0.784491	0.503498
C27	C	1.535532	-0.882152	0.598865
C28	C	1.510127	-0.930476	0.503519
C29	C	1.484528	-0.832825	0.408090
C30	C	1.605363	-0.832716	0.529120
C31	C	1.579949	-0.882114	0.433697
C32	C	1.509971	-0.700393	0.503487
C33	C	1.510185	-1.014573	0.503519
C34	C	1.782581	-0.357878	0.503494
C35	C	1.898734	-0.357884	0.503503
C36	C	1.510009	-0.357867	0.776044
C37	C	1.510008	-0.357869	0.892197
C38	C	1.510166	-0.164157	0.503514
C39	C	1.510232	-0.081611	0.503531
C40	C	1.573481	-0.403008	0.943977
C41	C	1.573482	-0.403010	1.064028
C42	C	1.510006	-0.357875	1.231964
C43	C	1.510007	-0.357873	1.115811
H44	H	0.905963	-0.441793	0.621183
H45	H	1.115088	-0.441765	0.621157
H46	H	1.627827	-0.441648	0.899431
H47	H	1.077814	-0.319160	0.449201
H48	H	1.627823	-0.441656	1.108557
F49	F	1.362888	-0.804550	0.650258
F50	F	1.657200	-0.910219	0.356515
F51	F	0.956943	-0.307292	0.432535
F52	F	1.710658	-0.804252	0.557480
F53	F	1.438981	-0.307354	0.950416
F54	F	1.309418	-0.910698	0.449575
F55	F	1.456266	-0.804625	0.302653
F56	F	1.438967	-0.307362	1.057618
F57	F	1.563674	-0.910475	0.704270
