data_functionalizedCrystal
_audit_creation_method	'MofGen! by Chris Wilmer'
_symmetry_space_group_name_H-M	'P1'
_symmetry_Int_Tables_number	1
_symmetry_cell_setting	triclinic
loop_
_symmetry_equiv_pos_as_xyz
  x,y,z
_cell_length_a	10.723024
_cell_length_b	10.723024
_cell_length_c	9.198806
_cell_angle_alpha	89.995977
_cell_angle_beta	90.002264
_cell_angle_gamma	95.532131
loop_
_atom_site_label
_atom_site_type_symbol
_atom_site_fract_x
_atom_site_fract_y
_atom_site_fract_z
O1	O	0.175025	-1.657187	0.120900
O2	O	0.675025	-1.157187	0.620900
O3	O	0.191778	-1.294035	0.120900
O4	O	0.691778	-0.794035	0.620900
O5	O	0.001825	-1.483988	0.120895
O6	O	0.501825	-0.983988	0.620895
O7	O	0.364978	-1.467234	0.120906
O8	O	0.864978	-0.967234	0.620906
O9	O	0.001824	-1.483974	-0.120890
O10	O	0.501824	-0.983974	0.379110
O11	O	0.191777	-1.294021	-0.120885
O12	O	0.691777	-0.794021	0.379115
O13	O	0.175023	-1.657173	-0.120885
O14	O	0.675023	-1.157173	0.379115
Cu15	Cu	0.183400	-1.475596	-0.142962
Cu16	Cu	0.683400	-0.975596	0.357038
Cu17	Cu	0.183402	-1.475612	0.142977
Cu18	Cu	0.683402	-0.975612	0.642977
O19	O	0.364976	-1.467220	-0.120880
O20	O	0.864976	-0.967220	0.379120
C21	C	0.190558	-1.247528	0.000008
C22	C	0.690558	-0.747528	0.500008
C23	C	0.186911	-1.108974	0.000008
C24	C	0.686911	-0.608974	0.500008
C25	C	0.293198	-1.033991	0.000011
C26	C	0.793198	-0.533991	0.500011
C27	C	0.289431	-0.890788	0.000011
C28	C	0.789431	-0.390788	0.500011
C29	C	-0.044675	-1.482762	0.000004
C30	C	0.455325	-0.982762	0.500004
C31	C	-0.183229	-1.479114	0.000009
C32	C	0.316771	-0.979114	0.500009
C33	C	-0.258212	-1.585401	0.000011
C34	C	0.241788	-1.085401	0.500011
C35	C	-0.401415	-1.581634	0.000016
C36	C	0.098585	-1.081634	0.500016
C37	C	0.411477	-1.468447	0.000014
C38	C	0.911477	-0.968447	0.500014
C39	C	0.550031	-1.472094	0.000019
C40	C	1.050031	-0.972094	0.500019
N41	N	0.183398	-1.475593	-0.344076
N42	N	0.683398	-0.975593	0.155924
C43	C	0.176243	-0.703680	0.000008
C44	C	0.676243	-0.203680	0.500008
C45	C	0.179891	-0.842234	0.000008
C46	C	0.679891	-0.342234	0.500008
C47	C	0.103469	-1.555546	-0.583679
C48	C	0.603469	-1.055546	-0.083679
C49	C	0.103471	-1.555529	-0.416267
C50	C	0.603471	-1.055529	0.083733
N51	N	0.183394	-1.475625	0.344091
N52	N	0.683394	-0.975625	0.844091
H53	H	0.093125	-1.067152	0.000041
H54	H	0.593125	-0.567152	0.500041
H55	H	0.035045	-1.623987	-0.645777
H56	H	0.535045	-1.123987	-0.145777
H57	H	-0.385544	-1.381099	0.000007
H58	H	0.114456	-0.881099	0.500007
H59	H	-0.225051	-1.385328	0.000019
H60	H	0.274949	-0.885328	0.500019
H61	H	-0.465848	-1.672624	0.000012
H62	H	0.034152	-1.172624	0.500012
H63	H	0.035039	-1.623948	-0.354152
H64	H	0.535039	-1.123948	0.145848
H65	H	0.251824	-1.407161	-0.406181
H66	H	0.751824	-0.907161	0.093819
Cl67	Cl	0.289053	-1.369967	-0.560042
Cl68	Cl	0.789053	-0.869967	-0.060042
H69	H	0.386984	-1.075814	0.000006
H70	H	0.886984	-0.575814	0.500006
H71	H	0.380421	-0.826355	0.000019
H72	H	0.880421	-0.326355	0.500019
H73	H	-0.216390	-1.679187	0.000002
H74	H	0.283610	-1.179187	0.500002
H75	H	0.088896	-0.906659	0.000014
H76	H	0.588896	-0.406659	0.500014
