data_functionalizedCrystal
_audit_creation_method	'MofGen! by Chris Wilmer'
_symmetry_space_group_name_H-M	'P1'
_symmetry_Int_Tables_number	1
_symmetry_cell_setting	triclinic
loop_
_symmetry_equiv_pos_as_xyz
  x,y,z
_cell_length_a	13.897449
_cell_length_b	16.625548
_cell_length_c	13.897447
_cell_angle_alpha	90.009284
_cell_angle_beta	90.020810
_cell_angle_gamma	90.007099
loop_
_atom_site_label
_atom_site_type_symbol
_atom_site_fract_x
_atom_site_fract_y
_atom_site_fract_z
Zn1	Zn	1.474560	0.455896	-0.384142
Zn2	Zn	1.474488	0.321068	-0.545407
Zn3	Zn	1.313288	0.321079	-0.384132
Zn4	Zn	1.313226	0.455860	-0.545400
O5	O	1.393891	0.388476	-0.464770
O6	O	1.609532	0.438021	-0.405542
O7	O	1.453100	0.208237	-0.524012
O8	O	1.334737	0.338983	-0.249151
O9	O	1.609479	0.338963	-0.524022
O10	O	1.453224	0.438032	-0.249159
O11	O	1.334667	0.208245	-0.405524
O12	O	1.178298	0.338948	-0.405517
O13	O	1.334632	0.568698	-0.524011
O14	O	1.178253	0.437971	-0.524000
O15	O	1.453164	0.568724	-0.405535
O16	O	1.453040	0.338929	-0.680388
O17	O	1.334561	0.437960	-0.680383
C18	C	1.143276	0.388458	-0.464757
C19	C	1.036062	0.388469	-0.464775
C20	C	0.839767	0.388490	-0.464779
C21	C	0.949000	0.388476	-0.464774
C22	C	1.393899	0.598785	-0.464773
C23	C	1.393903	0.688406	-0.464774
C24	C	1.393863	1.016582	-0.464783
C25	C	1.393871	0.925273	-0.464783
C26	C	1.393883	0.852497	-0.464779
C27	C	1.393891	0.761182	-0.464778
C28	C	1.645483	0.388495	-0.464784
C29	C	1.752697	0.388503	-0.464790
C30	C	1.393873	1.178985	-0.464787
C31	C	1.393863	1.089364	-0.464780
C32	C	1.393812	0.388457	-0.715385
C33	C	1.393867	0.388476	-0.822599
C34	C	1.393913	0.388495	-0.909668
C35	C	1.393981	0.388515	-1.018901
C36	C	1.393996	0.388512	-0.213177
C37	C	1.394040	0.388528	-0.105963
