data_functionalizedCrystal
_audit_creation_method	'MofGen! by Chris Wilmer'
_symmetry_space_group_name_H-M	'P1'
_symmetry_Int_Tables_number	1
_symmetry_cell_setting	triclinic
loop_
_symmetry_equiv_pos_as_xyz
  x,y,z
_cell_length_a	10.654550
_cell_length_b	15.538191
_cell_length_c	9.130313
_cell_angle_alpha	90.000411
_cell_angle_beta	89.999538
_cell_angle_gamma	65.878512
loop_
_atom_site_label
_atom_site_type_symbol
_atom_site_fract_x
_atom_site_fract_y
_atom_site_fract_z
O1	O	1.606171	0.131915	0.121678
O2	O	1.234817	0.144483	0.121704
O3	O	1.492781	0.001542	0.121693
O4	O	1.348207	0.274856	0.121689
O5	O	1.492772	0.001539	-0.121906
O6	O	1.234808	0.144480	-0.121895
O7	O	1.606162	0.131912	-0.121921
Cu8	Cu	1.420484	0.138196	-0.144150
Cu9	Cu	1.420495	0.138199	0.143934
O10	O	1.348198	0.274853	-0.121910
C11	C	1.188446	0.143559	-0.000092
C12	C	1.050293	0.140798	-0.000082
C13	C	0.931464	0.224959	-0.000087
C14	C	0.801659	0.222359	-0.000112
C15	C	0.909528	0.051429	-0.000121
C16	C	1.039330	0.054030	-0.000106
C17	C	1.507903	-0.033456	-0.000102
C18	C	1.552959	-0.137736	-0.000091
C19	C	1.105338	-0.428451	-0.000091
C20	C	1.147707	-0.526440	-0.000098
C21	C	1.386021	-0.547326	-0.000114
C22	C	1.343672	-0.449336	-0.000100
C23	C	1.203329	-0.389906	-0.000091
C24	C	1.441663	-0.410792	-0.000099
C25	C	1.399317	-0.312811	-0.000094
C26	C	1.258980	-0.253375	-0.000089
C27	C	1.160983	-0.291926	-0.000085
C28	C	1.582005	-0.470224	-0.000119
C29	C	1.679996	-0.431679	-0.000119
C30	C	1.637651	-0.333697	-0.000102
C31	C	1.497314	-0.274261	-0.000097
C32	C	1.735648	-0.295147	-0.000106
C33	C	1.693302	-0.197166	-0.000100
C34	C	1.454968	-0.176280	-0.000092
C35	C	1.652533	0.132836	-0.000121
C36	C	1.790685	0.135597	-0.000122
C37	C	1.333076	0.309851	-0.000111
C38	C	1.288020	0.414131	-0.000113
N39	N	1.420485	0.138193	-0.346773
C40	C	1.534735	0.074923	-0.576776
C41	C	1.534727	0.074924	-0.423439
C42	C	1.306250	0.201472	-0.423451
C43	C	1.306263	0.201474	-0.576785
N44	N	1.420507	0.138195	0.346556
H45	H	0.940383	0.295611	-0.000078
N46	N	1.009613	-0.227815	-0.000051
H47	H	0.953954	-0.267098	-0.000043
H48	H	0.986844	-0.186704	-0.090352
N49	N	1.167515	-0.036745	-0.000091
H50	H	1.223776	-0.039470	-0.090390
H51	H	1.140770	-0.092057	-0.000042
H52	H	0.900584	-0.019214	-0.000150
N53	N	1.657956	0.006683	-0.659462
H54	H	1.730320	-0.033395	-0.587620
H55	H	1.696898	0.043035	-0.723066
N56	N	1.627680	-0.575903	-0.000118
H57	H	1.731453	-0.607703	-0.000134
H58	H	1.590991	-0.595323	-0.090418
N59	N	0.673518	0.313150	-0.000127
H60	H	0.617230	0.315898	0.090160
H61	H	0.617378	0.315838	-0.090504
N62	N	1.303603	-0.112156	-0.000077
H63	H	1.258868	-0.124631	0.090228
H64	H	1.258974	-0.124661	-0.090436
N65	N	1.831359	-0.495784	-0.000110
H66	H	1.887009	-0.456495	-0.000104
H67	H	1.854125	-0.536891	-0.090418
N68	N	0.953973	-0.364326	-0.000077
H69	H	0.909238	-0.376802	0.090228
H70	H	0.909344	-0.376831	-0.090436
H71	H	1.500288	-0.595727	-0.000127
H72	H	1.224505	-0.173593	-0.000092
N73	N	1.042003	-0.568009	-0.000099
H74	H	0.982539	-0.546394	0.090206
H75	H	1.090221	-0.639090	-0.000161
H76	H	1.849915	-0.343549	-0.000128
H77	H	1.773096	-0.165783	-0.000102
N78	N	1.657932	0.006684	-0.340746
H79	H	1.730302	-0.033400	-0.412581
H80	H	1.628936	-0.035172	-0.277131
N81	N	1.183050	0.269715	-0.659492
H82	H	1.167063	0.336477	-0.632803
H83	H	1.099219	0.258191	-0.632786
N84	N	1.183032	0.269717	-0.340769
H85	H	1.200352	0.260113	-0.231998
H86	H	1.099182	0.258245	-0.367588
