data_functionalizedCrystal
_audit_creation_method	'MofGen! by Chris Wilmer'
_symmetry_space_group_name_H-M	'P1'
_symmetry_Int_Tables_number	1
_symmetry_cell_setting	triclinic
loop_
_symmetry_equiv_pos_as_xyz
  x,y,z
_cell_length_a	14.971487
_cell_length_b	26.210047
_cell_length_c	27.732048
_cell_angle_alpha	90.000479
_cell_angle_beta	96.871471
_cell_angle_gamma	89.997125
loop_
_atom_site_label
_atom_site_type_symbol
_atom_site_fract_x
_atom_site_fract_y
_atom_site_fract_z
O1	O	-1.185956	0.042362	0.062984
O2	O	-0.925437	0.042379	0.070527
O3	O	-1.063788	0.042360	-0.003603
O4	O	-1.047606	0.042381	0.137115
O5	O	-1.063761	-0.042498	-0.003592
O6	O	-0.925410	-0.042479	0.070539
O7	O	-1.185930	-0.042496	0.062996
Cu8	Cu	-1.055668	-0.050236	0.066769
Cu9	Cu	-1.055699	0.050119	0.066755
O10	O	-1.047579	-0.042477	0.137127
C11	C	-0.892104	-0.000047	0.070196
C12	C	-0.792823	-0.000041	0.069185
C13	C	-0.734910	-0.000035	0.112735
C14	C	-0.641626	-0.000041	0.111782
C15	C	-0.606256	-0.000051	0.067278
C16	C	-0.664177	-0.000058	0.023725
C17	C	-0.757460	-0.000056	0.024679
C18	C	-0.469746	-0.000063	0.021741
C19	C	-0.376457	-0.000065	0.020787
C20	C	-0.353912	-0.000049	0.108844
C21	C	-0.447194	-0.000046	0.109798
C22	C	-0.505109	-0.000053	0.066244
N23	N	-1.055652	-0.120820	0.066778
C24	C	-1.116955	-0.473342	0.033937
C25	C	-1.116974	-0.687001	0.033930
O26	O	-1.169062	-0.714630	0.006010
N27	N	-1.055704	-0.713714	0.066744
C28	C	-0.994421	-0.687008	0.099560
O29	O	-0.942301	-0.714632	0.127467
C30	C	-0.994397	-0.473351	0.099564
C31	C	-1.055678	-0.446641	0.066751
C32	C	-1.178229	-0.446632	0.001127
C33	C	-1.178227	-0.393221	0.001131
C34	C	-1.116950	-0.366519	0.033945
C35	C	-1.055675	-0.393229	0.066755
C36	C	-0.933110	-0.446647	0.132377
C37	C	-0.933108	-0.393229	0.132374
C38	C	-0.994389	-0.366519	0.099561
C39	C	-0.994396	-0.313116	0.099573
N40	N	-1.055666	-0.286404	0.066759
C41	C	-1.116943	-0.313105	0.033945
C42	C	-0.994438	-0.799182	0.099556
C43	C	-0.994445	-0.852596	0.099556
C44	C	-1.116998	-0.852585	0.033926
C45	C	-1.116995	-0.799169	0.033929
C46	C	-1.055709	-0.772469	0.066742
C47	C	-1.116934	-0.200937	0.033956
C48	C	-1.116929	-0.147521	0.033964
C49	C	-0.994373	-0.147537	0.099592
C50	C	-0.994381	-0.200949	0.099586
C51	C	-1.055665	-0.227647	0.066764
O52	O	-0.942329	-0.285454	0.127475
O53	O	-1.169042	-0.285472	0.006035
C54	C	-1.116957	-0.526754	0.033933
C55	C	-1.055682	-0.553464	0.066744
C56	C	-0.994405	-0.526762	0.099558
C57	C	-1.055689	-0.606878	0.066743
C58	C	-1.116966	-0.633579	0.033929
C59	C	-1.178236	-0.606866	0.001115
C60	C	-1.178234	-0.553455	0.001119
C61	C	-0.933135	-0.553475	0.132372
C62	C	-0.933143	-0.606887	0.132366
C63	C	-0.994420	-0.633588	0.099551
C64	C	-0.219262	-0.000065	0.063327
C65	C	-0.318544	-0.000059	0.064337
C66	C	-1.063435	-0.000070	-0.021606
C67	C	-1.062412	-0.000074	-0.075266
N68	N	-1.055722	0.120703	0.066742
C69	C	-1.137729	-0.000053	-0.413733
C70	C	-1.133934	-0.000046	-0.615410
O71	O	-1.202806	-0.000028	-0.646348
N72	N	-1.051897	-0.000041	-0.634913
C73	C	-0.970804	-0.000034	-0.603992
O74	O	-0.900940	-0.000024	-0.625208
C75	C	-0.974600	-0.000038	-0.402316
C76	C	-1.056642	-0.000048	-0.382817
C77	C	-1.219764	-0.000063	-0.394233
C78	C	-1.220712	-0.000067	-0.343817
C79	C	-1.139625	-0.000062	-0.312901
C80	C	-1.057590	-0.000053	-0.332401
C81	C	-0.893508	-0.000028	-0.371397
C82	C	-0.894464	-0.000027	-0.320975
C83	C	-0.976506	-0.000037	-0.301476
C84	C	-0.977451	-0.000052	-0.251068
N85	N	-1.059487	-0.000057	-0.231565
C86	C	-1.140574	-0.000062	-0.262482
C87	C	-0.968817	-0.000033	-0.709876
C88	C	-0.967868	-0.000033	-0.760295
C89	C	-1.130998	-0.000044	-0.771709
C90	C	-1.131946	-0.000048	-0.721289
C91	C	-1.050853	-0.000038	-0.690373
C92	C	-1.142558	-0.000073	-0.156603
C93	C	-1.143499	-0.000079	-0.106182
C94	C	-0.980370	-0.000066	-0.094772
C95	C	-0.979428	-0.000062	-0.145189
C96	C	-1.060530	-0.000063	-0.176104
O97	O	-0.908616	-0.000064	-0.220102
O98	O	-1.210428	-0.000061	-0.241257
C99	C	-1.136781	-0.000049	-0.464150
C100	C	-1.054746	-0.000039	-0.483649
C101	C	-0.973659	-0.000034	-0.452733
C102	C	-1.053797	-0.000039	-0.534068
C103	C	-1.134884	-0.000044	-0.564985
C104	C	-1.216920	-0.000049	-0.545482
C105	C	-1.217868	-0.000054	-0.495066
C106	C	-0.891623	-0.000029	-0.472236
C107	C	-0.890681	-0.000025	-0.522652
C108	C	-0.971768	-0.000030	-0.553569
C109	C	-1.047932	-0.000046	0.155130
C110	C	-1.048955	-0.000038	0.208789
H111	H	-0.347663	-0.000074	-0.015451
H112	H	-0.883210	-0.468387	0.159096
O113	O	-0.901548	0.000010	-0.064783
C114	C	-0.762468	0.044011	-0.039567
C115	C	-0.851690	0.043976	-0.073566
H116	H	-0.722141	0.079559	-0.046649
H117	H	-0.721973	0.008529	-0.046665
H118	H	-0.777272	0.043985	-0.000188
H119	H	-0.836968	0.044021	-0.112958
H120	H	-0.892158	0.079456	-0.066427
O121	O	-0.526041	-0.000159	-0.020554
C122	C	-0.644484	-0.044105	-0.070567
C123	C	-0.580769	-0.044071	-0.022657
H124	H	-0.688761	-0.079599	-0.072278
H125	H	-0.603227	-0.044143	-0.102556
H126	H	-0.688678	-0.008574	-0.072319
H127	H	-0.536562	-0.079596	-0.020857
H128	H	-0.622081	-0.044007	0.009311
H129	H	-0.826701	-0.000016	-0.387264
O130	O	-1.176484	-0.878471	0.001981
C131	C	-1.230000	-0.894845	-0.082023
C132	C	-1.162609	-0.865485	-0.045898
H133	H	-1.218794	-0.884364	-0.120741
H134	H	-1.301574	-0.884333	-0.075707
H135	H	-1.219484	-0.937605	-0.076359
H136	H	-1.173043	-0.822717	-0.051541
H137	H	-1.091060	-0.876039	-0.052223
H138	H	-0.883199	-0.371492	0.159095
O139	O	-1.300328	-0.000092	-0.324799
C140	C	-1.374114	-0.000057	-0.252195
C141	C	-1.283880	-0.000046	-0.273663
H142	H	-1.360847	-0.000009	-0.210849
H143	H	-1.414157	-0.035579	-0.264890
H144	H	-1.414147	0.035447	-0.264957
H145	H	-1.243774	-0.035526	-0.260911
H146	H	-1.243906	0.035499	-0.260970
H147	H	-1.210310	-0.000089	-0.090309
O148	O	-0.481667	-0.000097	0.152995
C149	C	-0.573883	-0.044046	0.205191
C150	C	-0.534915	-0.044049	0.156250
H151	H	-0.616926	-0.079582	0.207842
H152	H	-0.617048	-0.008552	0.207829
H153	H	-0.516460	-0.044014	0.236152
H154	H	-0.592280	-0.044099	0.125261
H155	H	-0.491725	-0.079540	0.153654
O156	O	-0.934768	-0.226819	0.131477
C157	C	-0.813233	-0.221186	0.196584
C158	C	-0.880694	-0.191830	0.160492
H159	H	-0.769509	-0.192910	0.220059
H160	H	-0.768782	-0.246174	0.175693
H161	H	-0.851518	-0.246213	0.220744
H162	H	-0.842483	-0.166775	0.136323
H163	H	-0.925144	-0.166875	0.181414
H164	H	-0.594475	-0.000036	0.147244
O165	O	-0.297698	0.000045	0.151167
C166	C	-0.249927	0.044006	0.226142
C167	C	-0.313628	0.043966	0.178228
H168	H	-0.262797	0.079507	0.248039
H169	H	-0.177161	0.044032	0.217849
H170	H	-0.262707	0.008483	0.248027
H171	H	-0.300929	0.079483	0.156319
H172	H	-0.386373	0.043913	0.186555
O173	O	-0.888094	-0.000006	-0.779153
C174	C	-0.726393	-0.000022	-0.762496
C175	C	-0.816676	-0.000045	-0.741077
H176	H	-0.668628	-0.000065	-0.731723
H177	H	-0.721816	0.035500	-0.785797
H178	H	-0.721901	-0.035526	-0.785832
H179	H	-0.821228	0.035435	-0.717720
H180	H	-0.821214	-0.035591	-0.717804
H181	H	-0.944554	-0.874340	0.126280
H182	H	-1.197022	-0.000048	-0.796890
H183	H	-0.944530	-0.777446	0.126278
O184	O	-1.237792	-0.527592	-0.030804
C185	C	-1.359382	-0.533238	-0.095881
C186	C	-1.291965	-0.562586	-0.059758
H187	H	-1.403210	-0.561518	-0.119293
H188	H	-1.321152	-0.508247	-0.120098
H189	H	-1.403736	-0.508215	-0.074965
H190	H	-1.247594	-0.587637	-0.080634
H191	H	-1.330250	-0.587545	-0.035541
O192	O	-1.237674	-0.632888	-0.030743
C193	C	-1.292007	-0.715179	-0.059807
C194	C	-1.224641	-0.685770	-0.023709
H195	H	-1.281506	-0.757939	-0.054126
H196	H	-1.280889	-0.704717	-0.098543
H197	H	-1.363550	-0.704648	-0.053452
H198	H	-1.153072	-0.696285	-0.030020
H199	H	-1.235838	-0.696234	0.015015
O200	O	-0.629778	0.000023	-0.019493
C201	C	-0.537505	0.043960	-0.071667
C202	C	-0.576416	0.043935	-0.022709
H203	H	-0.494339	0.079454	-0.074278
H204	H	-0.594888	0.043988	-0.102650
H205	H	-0.494431	0.008430	-0.074302
H206	H	-0.619480	0.079459	-0.020027
H207	H	-0.518992	0.043881	0.008250
H208	H	-0.944485	-0.125788	0.126310
H209	H	-1.285798	-0.000065	-0.419401
O210	O	-0.890060	0.000063	-0.679828
C211	C	-0.796470	0.044014	-0.616266
C212	C	-0.885685	0.043977	-0.650271
H213	H	-0.792911	0.079509	-0.592354
H214	H	-0.737648	0.044049	-0.638848
H215	H	-0.792830	0.008484	-0.592398
H216	H	-0.889412	0.079500	-0.674146
H217	H	-0.944464	0.043915	-0.627661
O218	O	-1.176492	-0.121655	0.002040
C219	C	-1.298083	-0.127290	-0.063036
C220	C	-1.230668	-0.156645	-0.026918
H221	H	-1.341914	-0.155567	-0.086452
H222	H	-1.259852	-0.102297	-0.087251
H223	H	-1.342434	-0.102269	-0.042118
H224	H	-1.186299	-0.181694	-0.047797
H225	H	-1.268955	-0.181606	-0.002704
O226	O	-0.873524	-0.632750	0.164261
C227	C	-0.751992	-0.627109	0.229369
C228	C	-0.819451	-0.597758	0.193272
H229	H	-0.708269	-0.598831	0.252841
H230	H	-0.707540	-0.652100	0.208482
H231	H	-0.790278	-0.652133	0.253532
H232	H	-0.781239	-0.572707	0.169101
H233	H	-0.863903	-0.572799	0.214190
H234	H	-0.883235	-0.531739	0.159092
O235	O	-1.237514	-0.367293	-0.030887
C236	C	-1.257060	-0.307251	-0.097112
C237	C	-1.189893	-0.336520	-0.060789
H238	H	-1.218584	-0.282372	-0.121304
H239	H	-1.301630	-0.282135	-0.076414
H240	H	-1.300699	-0.335610	-0.120531
H241	H	-1.146194	-0.308198	-0.037361
H242	H	-1.145385	-0.361644	-0.081517
O243	O	-0.815606	-0.000041	-0.291013
C244	C	-0.653704	0.000010	-0.285017
C245	C	-0.742942	0.000014	-0.319003
H246	H	-0.594933	0.000065	-0.307633
H247	H	-0.649988	-0.035512	-0.261137
H248	H	-0.650133	0.035513	-0.261116
H249	H	-0.746574	-0.035466	-0.342934
H250	H	-0.746621	0.035560	-0.342850
H251	H	-1.208599	-0.000072	-0.181769
H252	H	-1.198751	-0.000055	-0.705417
O253	O	-1.176343	-0.226892	0.002027
C254	C	-1.196326	-0.287210	-0.063959
C255	C	-1.128945	-0.257840	-0.027838
H256	H	-1.158031	-0.312247	-0.088108
H257	H	-1.240106	-0.258962	-0.087441
H258	H	-1.240735	-0.312193	-0.043042
H259	H	-1.084477	-0.232856	-0.048717
H260	H	-1.085228	-0.286115	-0.004356
H261	H	-0.912624	-0.000068	-0.161066
O262	O	-1.297643	-0.000037	-0.476208
C263	C	-1.459343	-0.000077	-0.492870
C264	C	-1.369057	-0.000085	-0.514286
H265	H	-1.517105	-0.000127	-0.523645
H266	H	-1.463944	0.035443	-0.469568
H267	H	-1.463814	-0.035583	-0.469535
H268	H	-1.364525	0.035396	-0.537642
H269	H	-1.364494	-0.035629	-0.537559
O270	O	-1.295607	-0.000030	-0.575588
C271	C	-1.366419	-0.000055	-0.658326
C272	C	-1.277248	-0.000069	-0.624284
H273	H	-1.351607	-0.000098	-0.697704
H274	H	-1.406849	0.035464	-0.651266
H275	H	-1.406824	-0.035562	-0.651206
H276	H	-1.236771	0.035414	-0.631385
H277	H	-1.236886	-0.035612	-0.631352
H278	H	-0.823868	-0.000021	-0.538523
O279	O	-0.812768	-0.000049	-0.442276
C280	C	-0.650868	-0.000015	-0.436288
C281	C	-0.740110	0.000001	-0.470270
H282	H	-0.592100	0.000036	-0.458907
H283	H	-0.647159	-0.035540	-0.412411
H284	H	-0.647281	0.035486	-0.412383
H285	H	-0.743757	-0.035477	-0.494205
H286	H	-0.743782	0.035549	-0.494114
H287	H	-0.804613	-0.000060	-0.010784
H288	H	-1.228128	-0.468368	-0.025597
H289	H	-1.166894	-0.777425	0.007210
H290	H	-0.763699	-0.000027	0.148974
