data_functionalizedCrystal
_audit_creation_method	'MofGen! by Chris Wilmer'
_symmetry_space_group_name_H-M	'P1'
_symmetry_Int_Tables_number	1
_symmetry_cell_setting	triclinic
loop_
_symmetry_equiv_pos_as_xyz
  x,y,z
_cell_length_a	23.532407
_cell_length_b	23.532407
_cell_length_c	22.610064
_cell_angle_alpha	90.000603
_cell_angle_beta	89.997161
_cell_angle_gamma	97.151322
loop_
_atom_site_label
_atom_site_type_symbol
_atom_site_fract_x
_atom_site_fract_y
_atom_site_fract_z
O1	O	0.755263	-0.069127	-0.049117
O2	O	0.589400	-0.079130	-0.049135
O3	O	0.677333	0.008803	-0.049114
O4	O	0.667330	-0.157060	-0.049137
O5	O	0.677318	0.008790	0.049255
O6	O	0.589385	-0.079143	0.049234
O7	O	0.755248	-0.069140	0.049252
Zn8	Zn	0.672314	-0.074144	0.064862
Zn9	Zn	0.672334	-0.074127	-0.064744
O10	O	0.667315	-0.157073	0.049232
C11	C	0.568176	-0.078882	0.000048
C12	C	0.504959	-0.078116	0.000041
C13	C	0.105856	-0.125350	0.000061
C14	C	0.046456	-0.124638	0.000065
O15	O	0.009711	-0.168424	0.000081
N16	N	0.023830	-0.072362	0.000071
C17	C	0.060607	-0.020794	0.000080
O18	O	0.035908	0.023737	0.000086
C19	C	0.120006	-0.021506	0.000080
C20	C	0.142629	-0.073785	0.000068
C21	C	0.128479	-0.177625	0.000050
C22	C	0.187876	-0.178336	0.000045
C23	C	0.224649	-0.126772	0.000052
C24	C	0.202025	-0.074497	0.000063
C25	C	0.156783	0.030062	0.000093
C26	C	0.216185	0.029345	0.000094
C27	C	0.238808	-0.022934	0.000082
C28	C	0.298194	-0.023643	0.000065
N29	N	0.320820	-0.075920	0.000059
C30	C	0.284048	-0.127484	0.000052
C31	C	-0.064135	-0.019302	0.000080
C32	C	-0.123533	-0.018589	0.000075
C33	C	-0.137680	-0.122434	0.000061
C34	C	-0.078281	-0.123146	0.000062
C35	C	-0.041509	-0.071578	0.000074
C36	C	0.408784	-0.128974	0.000042
C37	C	0.468186	-0.129680	0.000034
C38	C	0.482329	-0.025836	0.000051
C39	C	0.422932	-0.025129	0.000055
C40	C	0.386160	-0.076702	0.000052
O41	O	0.334974	0.020119	0.000052
O42	O	0.308755	-0.172007	0.000054
C43	C	0.677071	0.030013	0.000072
C44	C	0.676305	0.093230	0.000076
C45	C	0.776472	-0.069388	0.000069
C46	C	0.839689	-0.070154	0.000071
C47	C	0.667577	-0.178283	0.000045
C48	C	0.668343	-0.241500	0.000036
N49	N	0.672304	-0.074155	0.153314
C50	C	0.723539	0.492333	0.000049
C51	C	0.722827	0.551733	0.000044
O52	O	0.766613	0.588478	0.000027
N53	N	0.670551	0.574359	0.000039
C54	C	0.618983	0.537582	0.000032
O55	O	0.574452	0.562281	0.000027
C56	C	0.619695	0.478182	0.000033
C57	C	0.671974	0.455560	0.000044
C58	C	0.775814	0.469710	0.000060
C59	C	0.776525	0.410313	0.000065
C60	C	0.724961	0.373540	0.000060
C61	C	0.672685	0.396164	0.000050
C62	C	0.568127	0.441406	0.000022
C63	C	0.568844	0.382004	0.000021
C64	C	0.621123	0.359381	0.000033
C65	C	0.621832	0.299995	0.000050
N66	N	0.674109	0.277368	0.000056
C67	C	0.725673	0.314141	0.000061
C68	C	0.617491	0.662324	0.000031
C69	C	0.616778	0.721722	0.000034
C70	C	0.720623	0.735869	0.000045
C71	C	0.721335	0.676470	0.000046
C72	C	0.669767	0.639698	0.000036
C73	C	0.727163	0.189405	0.000073
C74	C	0.727869	0.130003	0.000081
C75	C	0.624025	0.115860	0.000067
C76	C	0.623318	0.175257	0.000062
C77	C	0.674891	0.212029	0.000063
O78	O	0.578070	0.263215	0.000065
O79	O	0.770196	0.289433	0.000058
N80	N	0.672349	-0.074111	-0.153196
C81	C	0.711273	-0.035196	0.561965
C82	C	0.711276	-0.035192	0.623884
O83	O	0.744384	-0.002076	0.655911
N84	N	0.672334	-0.074115	0.654851
C85	C	0.633383	-0.113041	0.623895
O86	O	0.600259	-0.146147	0.655920
C87	C	0.633377	-0.113042	0.561976
C88	C	0.672326	-0.074120	0.531013
C89	C	0.750218	0.003724	0.531001
C90	C	0.750215	0.003719	0.469085
C91	C	0.711268	-0.035206	0.438133
C92	C	0.672323	-0.074125	0.469097
C93	C	0.594424	-0.151965	0.531021
C94	C	0.594422	-0.151962	0.469098
C95	C	0.633370	-0.113040	0.438134
C96	C	0.633374	-0.113054	0.376229
N97	N	0.672316	-0.074131	0.345262
C98	C	0.711263	-0.035207	0.376214
C99	C	0.633396	-0.113035	0.753928
C100	C	0.633403	-0.113037	0.815846
C101	C	0.711296	-0.035187	0.815831
C102	C	0.711291	-0.035188	0.753913
C103	C	0.672338	-0.074112	0.722962
C104	C	0.711255	-0.035220	0.246187
C105	C	0.711251	-0.035230	0.184266
C106	C	0.633357	-0.113078	0.184286
C107	C	0.633363	-0.113071	0.246202
C108	C	0.672314	-0.074137	0.277151
O109	O	0.600281	-0.146152	0.344163
O110	O	0.744376	-0.002101	0.344182
H111	H	0.512280	0.016146	0.000054
C112	C	0.510618	0.466278	0.000004
H113	H	0.480016	0.435863	-0.000007
H114	H	0.508166	0.489157	0.034304
H115	H	0.508189	0.489151	-0.034307
C116	C	0.590517	-0.155892	0.150234
H117	H	0.567323	-0.179077	0.177539
H118	H	0.566931	-0.135522	0.126080
H119	H	0.610870	-0.179499	0.126078
H120	H	0.743005	-0.003494	0.728706
H121	H	0.763906	0.658056	0.000054
C122	C	0.368344	-0.185703	0.000031
H123	H	0.390333	-0.216934	0.000017
H124	H	0.344875	-0.187598	0.034333
H125	H	0.344883	-0.187578	-0.034278
C126	C	-0.178138	-0.179155	0.000059
H127	H	-0.216753	-0.171239	0.000067
H128	H	-0.171314	-0.200604	-0.034246
H129	H	-0.171314	-0.200607	0.034365
H130	H	0.769159	0.219337	0.000071
H131	H	0.575496	0.632386	0.000028
C132	C	0.590553	-0.155862	0.719888
H133	H	0.567367	-0.179044	0.747202
H134	H	0.566957	-0.135502	0.695734
H135	H	0.610905	-0.179470	0.695734
H136	H	0.574207	0.740136	0.000035
H137	H	0.206289	-0.220908	0.000035
C138	C	0.793070	0.046520	0.435030
H139	H	0.787503	0.040942	0.393719
H140	H	0.787117	0.084504	0.445173
H141	H	0.831037	0.040507	0.445186
H142	H	-0.141947	0.023982	0.000076
H143	H	0.486602	-0.172255	0.000024
C144	C	0.131911	0.087571	0.000114
H145	H	0.162326	0.118173	0.000127
H146	H	0.109033	0.090024	-0.034185
H147	H	0.109036	0.089999	0.034426
C148	C	0.793063	0.046542	0.565042
H149	H	0.787493	0.040978	0.606355
H150	H	0.831031	0.040547	0.554883
H151	H	0.787090	0.084522	0.554891
H152	H	0.743008	-0.003492	0.841044
C153	C	0.256632	0.086072	0.000100
H154	H	0.234647	0.117306	0.000102
H155	H	0.280100	0.087952	0.034401
H156	H	0.280095	0.087957	-0.034211
C157	C	0.785379	0.105121	0.000090
H158	H	0.815986	0.135532	0.000086
H159	H	0.787813	0.082246	0.034395
H160	H	0.787820	0.082243	-0.034216
H161	H	0.601694	-0.144737	0.841052
C162	C	0.398045	0.032377	0.000062
H163	H	0.428456	0.062984	0.000067
H164	H	0.375165	0.034819	-0.034237
H165	H	0.375172	0.034809	0.034375
C166	C	-0.023690	0.037426	0.000080
H167	H	-0.045677	0.068658	0.000077
H168	H	-0.000223	0.039311	0.034381
H169	H	-0.000226	0.039311	-0.034230
C170	C	0.551585	-0.194785	0.565067
H171	H	0.528390	-0.217960	0.537757
H172	H	0.571936	-0.218391	0.589218
H173	H	0.527991	-0.174420	0.589225
H174	H	0.526850	0.352066	0.000013
C175	C	0.834033	0.385436	0.000066
H176	H	0.864637	0.415850	0.000062
H177	H	0.836474	0.362558	0.034368
H178	H	0.836473	0.362562	-0.034243
H179	H	0.098544	-0.219617	0.000046
C180	C	0.565812	0.200144	0.000048
H181	H	0.535205	0.169733	0.000042
H182	H	0.563365	0.223029	0.034345
H183	H	0.563386	0.223013	-0.034267
H184	H	-0.059867	-0.165717	0.000055
C185	C	0.832540	0.510151	0.000070
H186	H	0.863770	0.488162	0.000081
H187	H	0.834436	0.533621	-0.034231
H188	H	0.834415	0.533613	0.034380
C189	C	0.777345	0.776325	0.000046
H190	H	0.808585	0.754348	0.000055
H191	H	0.779227	0.799789	-0.034258
H192	H	0.779218	0.799791	0.034353
H193	H	0.562700	-0.183658	0.443901
C194	C	0.567309	0.075403	0.000058
H195	H	0.575224	0.036789	0.000056
H196	H	0.545846	0.082227	0.034355
H197	H	0.545869	0.082229	-0.034256
C198	C	0.754093	0.007588	0.150209
H199	H	0.777284	0.030774	0.177515
H200	H	0.777683	-0.012778	0.126053
H201	H	0.733738	0.031193	0.126057
C202	C	0.754103	0.007603	0.280222
H203	H	0.777297	0.030775	0.252906
H204	H	0.733760	0.031213	0.304378
H205	H	0.777697	-0.012765	0.304374
C206	C	0.590500	-0.155862	0.280263
H207	H	0.567296	-0.179035	0.252959
H208	H	0.610822	-0.179474	0.304436
H209	H	0.566918	-0.135462	0.304399
