data_functionalizedCrystal
_audit_creation_method	'MofGen! by Chris Wilmer'
_symmetry_space_group_name_H-M	'P1'
_symmetry_Int_Tables_number	1
_symmetry_cell_setting	triclinic
loop_
_symmetry_equiv_pos_as_xyz
  x,y,z
_cell_length_a	15.995350
_cell_length_b	16.109301
_cell_length_c	15.186229
_cell_angle_alpha	90.000638
_cell_angle_beta	89.998487
_cell_angle_gamma	96.523072
loop_
_atom_site_label
_atom_site_type_symbol
_atom_site_fract_x
_atom_site_fract_y
_atom_site_fract_z
O1	O	0.107624	-1.103160	-0.073168
O2	O	0.440957	-0.769826	0.260165
O3	O	0.774291	-0.436493	0.593498
O4	O	0.121018	-0.861101	-0.073182
O5	O	0.454351	-0.527768	0.260151
O6	O	0.787684	-0.194435	0.593485
O7	O	-0.007569	-0.988747	-0.073174
O8	O	0.325765	-0.655414	0.260159
O9	O	0.659098	-0.322081	0.593493
O10	O	0.236210	-0.975514	-0.073176
O11	O	0.569544	-0.642180	0.260157
O12	O	0.902877	-0.308847	0.593490
O13	O	-0.007570	-0.988739	0.073283
O14	O	0.325763	-0.655405	0.406617
O15	O	0.659096	-0.322072	0.739950
O16	O	0.121016	-0.861093	0.073275
O17	O	0.454349	-0.527759	0.406609
O18	O	0.787683	-0.194426	0.739942
O19	O	0.107622	-1.103151	0.073289
O20	O	0.440956	-0.769818	0.406622
O21	O	0.774289	-0.436484	0.739955
Zn22	Zn	0.114319	-0.982121	0.096535
Zn23	Zn	0.447652	-0.648787	0.429869
Zn24	Zn	0.780985	-0.315454	0.763202
Zn25	Zn	0.114321	-0.982132	-0.096428
Zn26	Zn	0.447654	-0.648798	0.236905
Zn27	Zn	0.780988	-0.315465	0.570238
O28	O	0.236208	-0.975505	0.073281
O29	O	0.569542	-0.642172	0.406614
O30	O	0.902875	-0.308838	0.739948
C31	C	0.120474	-0.830122	0.000045
C32	C	0.453808	-0.496789	0.333378
C33	C	0.787141	-0.163455	0.666712
C34	C	0.118848	-0.737826	0.000040
C35	C	0.452181	-0.404493	0.333373
C36	C	0.785514	-0.071160	0.666706
C37	C	-0.038764	-0.988196	0.000053
C38	C	0.294569	-0.654863	0.333386
C39	C	0.627903	-0.321529	0.666720
C40	C	-0.131714	-0.986556	0.000048
C41	C	0.201619	-0.653222	0.333381
C42	C	0.534953	-0.319889	0.666715
N43	N	0.114317	-0.982119	0.228228
N44	N	0.447650	-0.648786	0.561561
N45	N	0.780983	-0.315452	0.894895
C46	C	-0.469460	-0.980665	0.000050
C47	C	-0.136127	-0.647332	0.333384
C48	C	0.197207	-0.313999	0.666717
C49	C	-0.422001	-0.889758	-0.000283
C50	C	-0.088668	-0.556425	0.333050
C51	C	0.244666	-0.223091	0.666384
C52	C	-0.325311	-0.891399	0.000047
C53	C	0.008022	-0.558065	0.333380
C54	C	0.341355	-0.224732	0.666714
C55	C	-0.301900	-0.983587	0.000049
C56	C	0.031433	-0.650254	0.333382
C57	C	0.364767	-0.316920	0.666715
C58	C	-0.342991	-1.028421	0.083684
C59	C	-0.009658	-0.695088	0.417017
C60	C	0.323676	-0.361754	0.750351
C61	C	-0.439626	-1.026137	0.083754
C62	C	-0.106293	-0.692804	0.417087
C63	C	0.227041	-0.359470	0.750420
C64	C	-0.439983	-1.028025	-0.082795
C65	C	-0.106649	-0.694691	0.250538
C66	C	0.226684	-0.361358	0.583871
C67	C	-0.343037	-1.028003	-0.083901
C68	C	-0.009704	-0.694670	0.249433
C69	C	0.323629	-0.361337	0.582766
C70	C	-0.207203	-0.985243	0.000051
C71	C	0.126130	-0.651910	0.333384
C72	C	0.459464	-0.318577	0.666717
C73	C	-0.564157	-0.979012	0.000054
C74	C	-0.230824	-0.645679	0.333388
C75	C	0.102509	-0.312345	0.666721
C76	C	0.267404	-0.976056	0.000052
C77	C	0.600737	-0.642723	0.333385
C78	C	0.934071	-0.309390	0.666719
C79	C	0.360354	-0.977697	0.000051
C80	C	0.693687	-0.644363	0.333385
C81	C	1.027021	-0.311030	0.666718
C82	C	0.108166	-1.134130	0.000060
C83	C	0.441499	-0.800797	0.333393
C84	C	0.774832	-0.467464	0.666727
C85	C	0.109792	-1.226426	0.000059
C86	C	0.443126	-0.893093	0.333393
C87	C	0.776459	-0.559759	0.666726
C88	C	0.191366	-0.515573	0.000049
C89	C	0.524699	-0.182240	0.333382
C90	C	0.858033	0.151093	0.666716
C91	C	0.189831	-0.428853	0.000055
C92	C	0.523165	-0.095519	0.333388
C93	C	0.856498	0.237814	0.666721
C94	C	0.037268	-0.448686	0.000053
C95	C	0.370601	-0.115352	0.333386
C96	C	0.703935	0.217981	0.666719
C97	C	0.038804	-0.535405	0.000053
C98	C	0.372137	-0.202072	0.333387
C99	C	0.705470	0.131262	0.666720
C100	C	0.115855	-0.568846	0.000047
C101	C	0.449189	-0.235513	0.333380
C102	C	0.782522	0.097821	0.666714
C103	C	0.112785	-0.395406	0.000052
C104	C	0.446118	-0.062073	0.333385
C105	C	0.779451	0.271260	0.666719
C106	C	0.111120	-0.301380	0.000058
C107	C	0.444453	0.031954	0.333392
C108	C	0.777787	0.365287	0.666725
C109	C	0.117520	-0.662879	0.000043
C110	C	0.450854	-0.329545	0.333376
C111	C	0.784187	0.003788	0.666709
N112	N	0.114317	-0.982140	-0.228121
N113	N	0.447650	-0.648807	0.105212
N114	N	0.780983	-0.315473	0.438546
C115	C	0.057398	-1.038660	0.453954
C116	C	0.390731	-0.705327	0.787288
C117	C	0.724064	-0.371993	1.120621
C118	C	0.057396	-1.038662	0.546144
C119	C	0.390729	-0.705329	0.879477
C120	C	0.724062	-0.371996	1.212811
C121	C	0.171238	-0.925593	0.546146
C122	C	0.504572	-0.592260	0.879479
C123	C	0.837905	-0.258926	1.212813
C124	C	0.171236	-0.925587	0.453958
C125	C	0.504569	-0.592254	0.787291
C126	C	0.837902	-0.258920	1.120625
C127	C	0.114316	-0.982125	0.407865
C128	C	0.447650	-0.648792	0.741198
C129	C	0.780983	-0.315459	1.074531
C130	C	0.114317	-0.982134	0.592242
C131	C	0.447650	-0.648800	0.925576
C132	C	0.780984	-0.315467	1.258909
C133	C	0.114315	-0.982136	0.692198
C134	C	0.447649	-0.648803	1.025532
C135	C	0.780982	-0.315470	1.358865
C136	C	0.114317	-0.982122	0.307902
C137	C	0.447650	-0.648789	0.641235
C138	C	0.780983	-0.315455	0.974569
H139	H	-0.440522	-0.853427	-0.060260
H140	H	-0.107189	-0.520094	0.273074
H141	H	0.226145	-0.186760	0.606407
C142	C	0.039261	-1.151808	0.649813
C143	C	0.372594	-0.818475	0.983147
C144	C	0.705927	-0.485142	1.316480
C145	C	-0.005168	-1.100808	0.596809
C146	C	0.328165	-0.767474	0.930142
C147	C	0.661498	-0.434141	1.263475
H148	H	0.000632	-1.190171	0.681094
H149	H	0.333965	-0.856838	1.014428
H150	H	0.667299	-0.523504	1.347761
H151	H	0.074116	-1.181709	0.613847
H152	H	0.407449	-0.848375	0.947180
H153	H	0.740782	-0.515042	1.280513
H154	H	0.073155	-1.118131	0.690457
H155	H	0.406489	-0.784798	1.023790
H156	H	0.739822	-0.451465	1.357123
H157	H	-0.039059	-1.134484	0.556161
H158	H	0.294275	-0.801151	0.889494
H159	H	0.627608	-0.467818	1.222827
H160	H	-0.040038	-1.070905	0.632778
H161	H	0.293295	-0.737572	0.966111
H162	H	0.626629	-0.404239	1.299445
C163	C	-0.343212	-1.023854	-0.241946
C164	C	-0.009878	-0.690521	0.091387
C165	C	0.323455	-0.357187	0.424720
C166	C	-0.306168	-0.983822	-0.167432
C167	C	0.027165	-0.650488	0.165901
C168	C	0.360499	-0.317155	0.499234
H169	H	-0.320447	-0.996574	-0.293513
H170	H	0.012886	-0.663241	0.039821
H171	H	0.346219	-0.329907	0.373154
H172	H	-0.332027	-1.080510	-0.242468
H173	H	0.001306	-0.747176	0.090865
H174	H	0.334640	-0.413843	0.424198
H175	H	-0.402284	-1.021614	-0.240398
H176	H	-0.068950	-0.688281	0.092935
H177	H	0.264383	-0.354948	0.426269
H178	H	-0.247096	-0.986067	-0.168978
H179	H	0.086237	-0.652734	0.164356
H180	H	0.419570	-0.319400	0.497689
H181	H	-0.317346	-0.927152	-0.166911
H182	H	0.015987	-0.593818	0.166423
H183	H	0.349321	-0.260485	0.499756
C184	C	0.285182	-0.907539	0.350272
C185	C	0.618515	-0.574206	0.683606
C186	C	0.951848	-0.240872	1.016939
C187	C	0.233808	-0.863442	0.403288
C188	C	0.567141	-0.530109	0.736622
C189	C	0.900475	-0.196776	1.069955
H190	H	0.323804	-0.869173	0.318988
H191	H	0.657137	-0.535839	0.652321
H192	H	0.990471	-0.202506	0.985655
H193	H	0.315310	-0.942138	0.386232
H194	H	0.648643	-0.608804	0.719565
H195	H	0.981977	-0.275471	1.052898
H196	H	0.251270	-0.941202	0.309632
H197	H	0.584603	-0.607869	0.642965
H198	H	0.917936	-0.274536	0.976299
H199	H	0.267719	-0.829783	0.443933
H200	H	0.601053	-0.496450	0.777267
H201	H	0.934386	-0.163117	1.110600
H202	H	0.203677	-0.828829	0.367326
H203	H	0.537010	-0.495496	0.700659
H204	H	0.870344	-0.162162	1.033993
C205	C	-0.113379	-0.477001	0.000050
C206	C	0.219954	-0.143668	0.333384
C207	C	0.553287	0.189666	0.666717
C208	C	-0.047425	-0.411925	0.000049
C209	C	0.285908	-0.078592	0.333382
C210	C	0.619242	0.254742	0.666716
H211	H	-0.165665	-0.454306	0.000051
H212	H	0.167668	-0.120973	0.333384
H213	H	0.501001	0.212361	0.666717
H214	H	-0.109603	-0.510412	-0.051017
H215	H	0.223730	-0.177079	0.282316
H216	H	0.557064	0.156254	0.615649
H217	H	-0.109605	-0.510410	0.051129
H218	H	0.223728	-0.177077	0.384462
H219	H	0.557061	0.156256	0.717796
H220	H	-0.051195	-0.378519	-0.051033
H221	H	0.282138	-0.045186	0.282300
H222	H	0.615471	0.288148	0.615633
H223	H	-0.051203	-0.378500	0.051122
H224	H	0.282130	-0.045166	0.384455
H225	H	0.615464	0.288167	0.717788
H226	H	0.217582	-0.879562	0.583685
H227	H	0.550915	-0.546229	0.917018
H228	H	0.884248	-0.212895	1.250351
H229	H	-0.327694	-1.095231	-0.088949
H230	H	0.005640	-0.761898	0.244384
H231	H	0.338973	-0.428564	0.577717
C232	C	0.342013	-0.487256	0.000063
C233	C	0.675346	-0.153922	0.333396
C234	C	1.008679	0.179411	0.666729
C235	C	0.276060	-0.552333	0.000054
C236	C	0.609393	-0.219000	0.333388
C237	C	0.942726	0.114334	0.666721
H238	H	0.394299	-0.509950	0.000073
H239	H	0.727633	-0.176616	0.333407
H240	H	1.060966	0.156717	0.666740
H241	H	0.338246	-0.453847	-0.051008
H242	H	0.671579	-0.120514	0.282325
H243	H	1.004912	0.212819	0.615659
H244	H	0.338228	-0.453843	0.051138
H245	H	0.671561	-0.120510	0.384472
H246	H	1.004895	0.212823	0.717805
H247	H	0.279841	-0.585742	-0.051025
H248	H	0.613174	-0.252409	0.282308
H249	H	0.946508	0.080925	0.615642
H250	H	0.279829	-0.585755	0.051130
H251	H	0.613162	-0.252422	0.384463
H252	H	0.946495	0.080911	0.717797
H253	H	-0.296879	-0.856156	-0.059906
H254	H	0.036454	-0.522823	0.273427
H255	H	0.369788	-0.189489	0.606761
C256	C	-0.511639	-0.920073	-0.147771
C257	C	-0.178306	-0.586740	0.185563
C258	C	0.155028	-0.253406	0.518896
C259	C	-0.467689	-0.987905	-0.168373
C260	C	-0.134356	-0.654572	0.164960
C261	C	0.198977	-0.321238	0.498293
H262	H	-0.528738	-0.895296	-0.200600
H263	H	-0.195404	-0.561963	0.132733
H264	H	0.137929	-0.228630	0.466066
H265	H	-0.559832	-0.938949	-0.113635
H266	H	-0.226499	-0.605616	0.219698
H267	H	0.106834	-0.272283	0.553032
H268	H	-0.476146	-0.879963	-0.115116
H269	H	-0.142813	-0.546630	0.218218
H270	H	0.190521	-0.213296	0.551551
H271	H	-0.503185	-1.028018	-0.201023
H272	H	-0.169851	-0.694685	0.132310
H273	H	0.163482	-0.361351	0.465644
H274	H	-0.419489	-0.969030	-0.202523
H275	H	-0.086156	-0.635696	0.130810
H276	H	0.247177	-0.302363	0.464143
C277	C	0.039199	-1.151768	0.350226
C278	C	0.372532	-0.818435	0.683559
C279	C	0.705866	-0.485102	1.016892
C280	C	-0.005193	-1.100761	0.403265
C281	C	0.328140	-0.767427	0.736598
C282	C	0.661474	-0.434094	1.069931
H283	H	0.000548	-1.190097	0.318932
H284	H	0.333881	-0.856764	0.652265
H285	H	0.667215	-0.523431	0.985599
H286	H	0.073110	-1.118097	0.309602
H287	H	0.406443	-0.784764	0.642935
H288	H	0.739776	-0.451431	0.976269
H289	H	0.074036	-1.181714	0.386178
H290	H	0.407369	-0.848380	0.719511
H291	H	0.740703	-0.515047	1.052845
H292	H	-0.040025	-1.070810	0.367312
H293	H	0.293308	-0.737477	0.700645
H294	H	0.626642	-0.404144	1.033978
H295	H	-0.039118	-1.134436	0.443893
H296	H	0.294215	-0.801102	0.777226
H297	H	0.627549	-0.467769	1.110560
H298	H	0.251320	-0.385481	0.000058
H299	H	0.584653	-0.052147	0.333392
H300	H	0.917987	0.281186	0.666725
H301	H	-0.022690	-0.578782	0.000054
H302	H	0.310643	-0.245449	0.333387
H303	H	0.643977	0.087884	0.666721
H304	H	-0.471762	-1.095050	-0.083356
H305	H	-0.138428	-0.761717	0.249977
H306	H	0.194905	-0.428384	0.583310
H307	H	-0.441586	-0.853581	0.059355
H308	H	-0.108253	-0.520248	0.392689
H309	H	0.225081	-0.186915	0.726022
H310	H	-0.297438	-0.855912	0.060099
H311	H	0.035896	-0.522579	0.393432
H312	H	0.369229	-0.189245	0.726765
H313	H	-0.457919	-0.993437	0.146271
H314	H	-0.124586	-0.660104	0.479605
H315	H	0.208747	-0.326770	0.812938
C316	C	-0.368239	-0.955731	0.217395
C317	C	-0.034906	-0.622398	0.550728
C318	C	0.298427	-0.289064	0.884062
C319	C	-0.304679	-0.986376	0.167708
C320	C	0.028654	-0.653043	0.501041
C321	C	0.361988	-0.319709	0.834375
H322	H	-0.344587	-0.929776	0.269268
H323	H	-0.011254	-0.596443	0.602602
H324	H	0.322079	-0.263109	0.935935
H325	H	-0.393956	-0.916026	0.183559
H326	H	-0.060623	-0.582692	0.516893
H327	H	0.272710	-0.249359	0.850226
H328	H	-0.409274	-1.000614	0.233066
H329	H	-0.075941	-0.667281	0.566399
H330	H	0.257393	-0.333948	0.899733
H331	H	-0.263648	-0.941492	0.152031
H332	H	0.069686	-0.608158	0.485365
H333	H	0.403019	-0.274825	0.818698
H334	H	-0.278949	-1.026085	0.201550
H335	H	0.054384	-0.692751	0.534883
H336	H	0.387718	-0.359418	0.868217
H337	H	-0.471892	-1.092880	0.087550
H338	H	-0.138559	-0.759546	0.420883
H339	H	0.194774	-0.426213	0.754216
H340	H	-0.328884	-1.096149	0.086795
H341	H	0.004450	-0.762816	0.420129
H342	H	0.337783	-0.429482	0.753462
