data_functionalizedCrystal
_audit_creation_method	'MofGen! by Chris Wilmer'
_symmetry_space_group_name_H-M	'P1'
_symmetry_Int_Tables_number	1
_symmetry_cell_setting	triclinic
loop_
_symmetry_equiv_pos_as_xyz
  x,y,z
_cell_length_a	10.654550
_cell_length_b	14.853567
_cell_length_c	9.130313
_cell_angle_alpha	89.999276
_cell_angle_beta	89.999724
_cell_angle_gamma	84.059930
loop_
_atom_site_label
_atom_site_type_symbol
_atom_site_fract_x
_atom_site_fract_y
_atom_site_fract_z
O1	O	1.666524	0.126626	-0.121676
O2	O	1.300920	0.138690	-0.121702
O3	O	1.493488	0.001481	-0.121693
O4	O	1.473956	0.263836	-0.121686
O5	O	1.493475	0.001477	0.121906
O6	O	1.300907	0.138686	0.121897
O7	O	1.666511	0.126622	0.121922
Cu8	Cu	1.483708	0.132654	0.144152
Cu9	Cu	1.483723	0.132658	-0.143932
O10	O	1.473943	0.263832	0.121913
C11	C	1.254125	0.137802	0.000094
C12	C	1.114709	0.135152	0.000084
C13	C	1.492596	-0.032115	0.000102
C14	C	1.489944	-0.132213	0.000089
C15	C	1.034384	0.215939	0.000090
C16	C	0.903389	0.213443	0.000115
C17	C	0.933057	0.049367	0.000122
C18	C	1.064049	0.051864	0.000107
C19	C	1.364344	-0.545419	0.000108
C20	C	1.593119	-0.565475	0.000124
C21	C	1.595613	-0.471428	0.000116
C22	C	1.482470	-0.414372	0.000106
C23	C	1.366834	-0.451363	0.000104
C24	C	1.711247	-0.434430	0.000132
C25	C	1.713745	-0.340378	0.000125
C26	C	1.600601	-0.283320	0.000105
C27	C	1.484961	-0.320316	0.000102
C28	C	1.371818	-0.263260	0.000092
C29	C	1.256176	-0.300254	0.000078
C30	C	1.253691	-0.394305	0.000084
C31	C	1.603087	-0.189269	0.000099
C32	C	1.374308	-0.169204	0.000088
C33	C	1.713306	0.127510	0.000123
C34	C	1.852722	0.130160	0.000124
C35	C	1.474835	0.297427	0.000115
C36	C	1.477487	0.397525	0.000118
N37	N	1.483706	0.132650	0.346775
N38	N	1.483735	0.132655	-0.346554
C39	C	1.569003	0.071919	0.423431
C40	C	1.569015	0.071919	0.576767
C41	C	1.398428	0.193389	0.576779
C42	C	1.398411	0.193383	0.423445
H43	H	1.075626	0.283758	0.000082
H44	H	1.270191	-0.575544	0.000091
H45	H	1.129454	-0.013927	0.000106
O46	O	1.826182	-0.304594	0.000064
C47	C	1.925508	-0.375122	0.000114
H48	H	1.890199	-0.439227	-0.045995
H49	H	2.006232	-0.354968	-0.070609
H50	H	1.960410	-0.388203	0.116984
H51	H	1.697240	-0.159152	0.000120
H52	H	1.685234	-0.611935	0.000144
H53	H	0.837993	0.279228	0.000124
O54	O	1.821109	-0.489892	-0.000110
C55	C	1.826505	-0.544910	-0.126253
H56	H	1.762360	-0.510870	-0.214444
H57	H	1.927650	-0.554858	-0.168585
H58	H	1.793869	-0.613491	-0.097735
O59	O	1.315502	0.252469	0.349199
C60	C	1.240208	0.306065	0.449746
H61	H	1.291704	0.307437	0.559041
H62	H	1.221162	0.377933	0.405429
H63	H	1.146877	0.276166	0.466073
H64	H	0.891793	-0.018444	0.000150
O65	O	1.651894	0.012833	0.349179
C66	C	1.727201	-0.040754	0.449726
H67	H	1.675724	-0.042111	0.559036
H68	H	1.746234	-0.112628	0.405432
H69	H	1.820539	-0.010858	0.466016
H70	H	1.638471	0.022466	0.639176
H71	H	1.164056	-0.253787	0.000080
O72	O	1.264316	-0.113874	-0.000119
C73	C	1.194146	-0.130738	-0.126309
H74	H	1.224868	-0.201876	-0.168369
H75	H	1.089414	-0.124782	-0.097947
H76	H	1.211411	-0.079194	-0.214648
H77	H	1.328985	0.242838	0.639219
H78	H	1.159541	-0.424435	0.000074
