data_functionalizedCrystal
_audit_creation_method	'MofGen! by Chris Wilmer'
_symmetry_space_group_name_H-M	'P1'
_symmetry_Int_Tables_number	1
_symmetry_cell_setting	triclinic
loop_
_symmetry_equiv_pos_as_xyz
  x,y,z
_cell_length_a	10.723024
_cell_length_b	15.995350
_cell_length_c	9.798715
_cell_angle_alpha	89.999084
_cell_angle_beta	89.996609
_cell_angle_gamma	83.980122
loop_
_atom_site_label
_atom_site_type_symbol
_atom_site_fract_x
_atom_site_fract_y
_atom_site_fract_z
O1	O	1.655689	0.117435	-0.113475
O2	O	1.292393	0.128675	-0.113479
O3	O	1.483972	0.001224	-0.113475
O4	O	1.464110	0.244886	-0.113478
O5	O	1.483958	0.001224	0.113507
O6	O	1.292379	0.128675	0.113503
O7	O	1.655675	0.117434	0.113507
Zn8	Zn	1.474025	0.123055	0.149544
Zn9	Zn	1.474044	0.123055	-0.149515
O10	O	1.464096	0.244885	0.113504
C11	C	1.245897	0.127857	0.000012
C12	C	1.107374	0.125410	0.000010
C13	C	1.031482	0.196725	0.000008
C14	C	0.888310	0.194197	0.000007
C15	C	1.483144	-0.029975	0.000013
C16	C	1.480682	-0.122940	0.000005
C17	C	1.471842	-0.460738	0.000010
C18	C	1.335403	-0.414088	-0.000501
C19	C	1.337865	-0.317383	0.000011
C20	C	1.476227	-0.293152	0.000007
C21	C	1.543515	-0.333843	0.129623
C22	C	1.540088	-0.430499	0.129732
C23	C	1.542922	-0.430840	-0.128390
C24	C	1.542890	-0.333895	-0.130103
C25	C	1.478712	-0.198441	0.000010
C26	C	1.469360	-0.555450	0.000016
C27	C	1.702171	0.118252	0.000014
C28	C	1.840694	0.120700	0.000007
C29	C	1.464924	0.276085	0.000013
C30	C	1.467386	0.369049	0.000011
N31	N	1.474021	0.123054	0.353643
N32	N	1.474057	0.123049	-0.353615
C33	C	1.554463	0.069305	0.421422
C34	C	1.554483	0.069302	0.578584
H35	H	0.905898	0.059646	-0.000001
N36	N	1.263157	-0.439052	-0.123611
H37	H	1.236465	-0.387573	-0.180394
H38	H	1.318228	-0.480862	-0.180147
N39	N	1.382823	0.184003	0.569187
H40	H	1.294180	0.173998	0.594001
H41	H	1.397526	0.243463	0.594006
N42	N	1.645718	0.008347	0.655780
H43	H	1.734358	0.018356	0.630963
H44	H	1.632692	0.017020	0.757083
N45	N	1.263468	-0.440442	0.121933
H46	H	1.258561	-0.503125	0.118744
H47	H	1.307769	-0.425620	0.208196
H48	H	1.405162	0.169065	0.411967
N49	N	0.801962	0.275080	0.000046
H50	H	0.818045	0.308821	-0.084084
H51	H	0.711958	0.261756	0.000108
H52	H	1.066355	0.062483	-0.000024
N53	N	1.085799	0.280084	0.000017
H54	H	1.180376	0.270074	0.000018
H55	H	1.056620	0.312974	-0.084130
H56	H	1.284604	-0.289825	0.093082
N57	N	1.267801	-0.280135	-0.123062
H58	H	1.309127	-0.304435	-0.208982
H59	H	1.178078	-0.293928	-0.119568
N60	N	1.678159	-0.314353	0.135987
H61	H	1.692107	-0.282585	0.222796
H62	H	1.735641	-0.368568	0.134643
H63	H	1.498320	-0.451636	-0.226631
N64	N	1.475080	-0.455124	0.258072
H65	H	1.448913	-0.403213	0.314043
H66	H	1.398494	-0.483516	0.232847
N67	N	1.672761	-0.472470	0.137539
H68	H	1.721936	-0.455392	0.056070
H69	H	1.713571	-0.454596	0.224165
N70	N	1.676173	-0.472140	-0.129557
H71	H	1.690482	-0.510035	-0.047365
H72	H	1.691082	-0.506498	-0.215602
N73	N	1.481599	-0.296596	0.257389
H74	H	1.390605	-0.307699	0.258678
H75	H	1.525649	-0.323191	0.340176
N76	N	1.645660	0.008354	0.344155
H77	H	1.734315	0.018351	0.368917
H78	H	1.630957	-0.051106	0.368976
H79	H	1.493694	-0.306929	-0.225989
H80	H	1.643790	-0.317954	-0.137932
