data_functionalizedCrystal
_audit_creation_method	'MofGen! by Chris Wilmer'
_symmetry_space_group_name_H-M	'P1'
_symmetry_Int_Tables_number	1
_symmetry_cell_setting	triclinic
loop_
_symmetry_equiv_pos_as_xyz
  x,y,z
_cell_length_a	18.101395
_cell_length_b	13.897449
_cell_length_c	13.897441
_cell_angle_alpha	90.026069
_cell_angle_beta	89.969302
_cell_angle_gamma	89.968968
loop_
_atom_site_label
_atom_site_type_symbol
_atom_site_fract_x
_atom_site_fract_y
_atom_site_fract_z
Zn1	Zn	-0.294807	-1.474613	-0.545518
Zn2	Zn	0.038526	-1.141279	-0.212184
Zn3	Zn	0.371859	-0.807946	0.121149
Zn4	Zn	-0.418663	-1.474469	-0.384219
Zn5	Zn	-0.085330	-1.141136	-0.050886
Zn6	Zn	0.248004	-0.807802	0.282448
Zn7	Zn	-0.294840	-1.313302	-0.384221
Zn8	Zn	0.038494	-0.979969	-0.050888
Zn9	Zn	0.371827	-0.646635	0.282446
Zn10	Zn	-0.418611	-1.313246	-0.545456
Zn11	Zn	-0.085278	-0.979913	-0.212123
Zn12	Zn	0.248055	-0.646579	0.121210
O13	O	-0.356730	-1.393907	-0.464854
O14	O	-0.023397	-1.060574	-0.131520
O15	O	0.309936	-0.727241	0.201813
O16	O	-0.311245	-1.609575	-0.524146
O17	O	0.022088	-1.276242	-0.190813
O18	O	0.355422	-0.942909	0.142521
O19	O	-0.402273	-1.453053	-0.249237
O20	O	-0.068939	-1.119720	0.084096
O21	O	0.264394	-0.786386	0.417429
O22	O	-0.191203	-1.334784	-0.405644
O23	O	0.142131	-1.001450	-0.072311
O24	O	0.475464	-0.668117	0.261023
O25	O	-0.402241	-1.609470	-0.405640
O26	O	-0.068908	-1.276136	-0.072307
O27	O	0.264425	-0.942803	0.261026
O28	O	-0.191179	-1.453298	-0.524148
O29	O	0.142155	-1.119965	-0.190815
O30	O	0.475488	-0.786631	0.142519
O31	O	-0.311300	-1.334644	-0.249239
O32	O	0.022033	-1.001311	0.084094
O33	O	0.355366	-0.667978	0.417428
O34	O	-0.311250	-1.178313	-0.405585
O35	O	0.022083	-0.844980	-0.072251
O36	O	0.355416	-0.511646	0.261082
O37	O	-0.402153	-1.334688	-0.680446
O38	O	-0.068820	-1.001355	-0.347113
O39	O	0.264513	-0.668022	-0.013780
O40	O	-0.402185	-1.178272	-0.524044
O41	O	-0.068851	-0.844938	-0.190710
O42	O	0.264482	-0.511605	0.142623
O43	O	-0.311195	-1.453244	-0.680491
O44	O	0.022138	-1.119911	-0.347158
O45	O	0.355472	-0.786577	-0.013825
O46	O	-0.522289	-1.452999	-0.405581
O47	O	-0.188956	-1.119665	-0.072247
O48	O	0.144378	-0.786332	0.261086
O49	O	-0.522251	-1.334549	-0.524041
O50	O	-0.188918	-1.001216	-0.190708
O51	O	0.144415	-0.667882	0.142625
C52	C	-0.356716	-1.143293	-0.464808
C53	C	-0.023383	-0.809960	-0.131475
C54	C	0.309951	-0.476626	0.201858
C55	C	-0.356728	-1.036079	-0.464812
C56	C	-0.023394	-0.702746	-0.131478
C57	C	0.309939	-0.369412	0.201855
C58	C	-0.356729	-0.949009	-0.464824
C59	C	-0.023396	-0.615676	-0.131490
C60	C	0.309938	-0.282343	0.201843
C61	C	-0.356733	-0.839777	-0.464848
C62	C	-0.023400	-0.506444	-0.131515
C63	C	0.309934	-0.173110	0.201819
C64	C	-0.549141	-1.393778	-0.464825
C65	C	-0.215808	-1.060445	-0.131492
C66	C	0.117526	-0.727112	0.201841
C67	C	-0.631455	-1.393811	-0.464845
C68	C	-0.298122	-1.060478	-0.131512
C69	C	0.035212	-0.727145	0.201821
C70	C	-0.930546	-1.394023	-0.464897
C71	C	-0.597213	-1.060690	-0.131564
C72	C	-0.263879	-0.727356	0.201769
C73	C	-0.899228	-1.319670	-0.539615
C74	C	-0.565894	-0.986337	-0.206281
C75	C	-0.232561	-0.653004	0.127052
C76	C	-0.813610	-1.319317	-0.539381
C77	C	-0.480276	-0.985984	-0.206047
C78	C	-0.146943	-0.652650	0.127286
C79	C	-0.782163	-1.393918	-0.464872
C80	C	-0.448830	-1.060585	-0.131539
C81	C	-0.115497	-0.727251	0.201794
C82	C	-0.813319	-1.366392	-0.363211
C83	C	-0.479986	-1.033059	-0.029878
C84	C	-0.146653	-0.699725	0.303456
C85	C	-0.898965	-1.365913	-0.363658
C86	C	-0.565631	-1.032580	-0.030325
C87	C	-0.232298	-0.699246	0.303009
C88	C	-0.898889	-1.496064	-0.490947
C89	C	-0.565555	-1.162731	-0.157613
C90	C	-0.232222	-0.829398	0.175720
C91	C	-0.813237	-1.495464	-0.493176
C92	C	-0.479904	-1.162131	-0.159843
C93	C	-0.146571	-0.828798	0.173491
C94	C	-0.698304	-1.393860	-0.464852
C95	C	-0.364971	-1.060527	-0.131519
C96	C	-0.031637	-0.727194	0.201815
C97	C	-1.014405	-1.394078	-0.464911
C98	C	-0.681072	-1.060745	-0.131578
C99	C	-0.347739	-0.727412	0.201756
C100	C	-0.163568	-1.394063	-0.464903
C101	C	0.169765	-1.060730	-0.131570
C102	C	0.503098	-0.727397	0.201763
C103	C	-0.081254	-1.394130	-0.464924
C104	C	0.252079	-1.060796	-0.131591
C105	C	0.585412	-0.727463	0.201742
C106	C	-0.356665	-1.393976	-0.716447
C107	C	-0.023332	-1.060643	-0.383113
C108	C	0.310002	-0.727309	-0.049780
C109	C	-0.356637	-1.394005	-0.823661
C110	C	-0.023304	-1.060672	-0.490327
C111	C	0.310030	-0.727338	-0.156994
C112	C	-0.356742	-0.645500	-0.464888
C113	C	-0.023409	-0.312167	-0.131555
C114	C	0.309924	0.021166	0.201779
C115	C	-0.356740	-0.752714	-0.464873
C116	C	-0.023406	-0.419381	-0.131539
C117	C	0.309927	-0.086048	0.201794
C118	C	-0.356587	-1.394031	-1.019956
C119	C	-0.023254	-1.060698	-0.686623
C120	C	0.310080	-0.727365	-0.353289
C121	C	-0.356617	-1.394014	-0.910723
C122	C	-0.023284	-1.060680	-0.577390
C123	C	0.310050	-0.727347	-0.244057
C124	C	-0.356742	-1.393895	-0.214239
C125	C	-0.023409	-1.060561	0.119094
C126	C	0.309925	-0.727228	0.452427
C127	C	-0.356561	-1.394053	-0.107026
C128	C	-0.023228	-1.060719	0.226307
C129	C	0.310105	-0.727386	0.559641
H130	H	-0.792542	-1.336539	-0.614761
H131	H	-0.459209	-1.003206	-0.281428
H132	H	-0.125876	-0.669872	0.051905
H133	H	-0.919772	-1.336722	-0.615239
H134	H	-0.586439	-1.003388	-0.281906
H135	H	-0.253105	-0.670055	0.051427
H136	H	-0.920815	-1.244495	-0.522576
H137	H	-0.587482	-0.911162	-0.189243
H138	H	-0.254148	-0.577828	0.144091
H139	H	-0.791936	-1.292590	-0.340750
H140	H	-0.458602	-0.959257	-0.007417
H141	H	-0.125269	-0.625924	0.325916
Cl142	Cl	-0.781794	-1.527517	-0.608688
Cl143	Cl	-0.448461	-1.194183	-0.275355
Cl144	Cl	-0.115127	-0.860850	0.057978
Cl145	Cl	-0.780178	-1.585524	-0.415287
Cl146	Cl	-0.446844	-1.252190	-0.081954
Cl147	Cl	-0.113511	-0.918857	0.251380
H148	H	-0.919141	-1.551460	-0.436527
H149	H	-0.585808	-1.218126	-0.103194
H150	H	-0.252474	-0.884793	0.230139
H151	H	-0.919008	-1.291321	-0.341593
H152	H	-0.585675	-0.957988	-0.008259
H153	H	-0.252342	-0.624654	0.325074
H154	H	-0.793187	-1.243682	-0.522125
H155	H	-0.459854	-0.910348	-0.188792
H156	H	-0.126521	-0.577015	0.144541
H157	H	-0.920433	-1.521159	-0.563815
H158	H	-0.587100	-1.187826	-0.230482
H159	H	-0.253767	-0.854492	0.102852
H160	H	-0.919685	-1.417719	-0.306089
H161	H	-0.586351	-1.084385	0.027244
H162	H	-0.253018	-0.751052	0.360577
H163	H	-0.792952	-1.418843	-0.306023
H164	H	-0.459618	-1.085510	0.027311
H165	H	-0.126285	-0.752177	0.360644
