data_functionalizedCrystal
_audit_creation_method	'MofGen! by Chris Wilmer'
_symmetry_space_group_name_H-M	'P1'
_symmetry_Int_Tables_number	1
_symmetry_cell_setting	triclinic
loop_
_symmetry_equiv_pos_as_xyz
  x,y,z
_cell_length_a	13.635800
_cell_length_b	27.923496
_cell_length_c	12.908943
_cell_angle_alpha	83.234064
_cell_angle_beta	100.860631
_cell_angle_gamma	81.036054
loop_
_atom_site_label
_atom_site_type_symbol
_atom_site_fract_x
_atom_site_fract_y
_atom_site_fract_z
V1	V	1.987120	-0.066519	0.329342
O2	O	1.992786	0.003820	0.322387
O3	O	1.952086	-0.132495	0.327749
O4	O	1.956473	-0.065222	0.472679
O5	O	1.988368	-0.063919	0.176454
V6	V	2.231174	-0.058138	0.310976
O7	O	2.112722	-0.084903	0.369631
O8	O	2.330670	-0.039753	0.270687
O9	O	2.154605	0.007838	0.312569
O10	O	2.284207	-0.128476	0.317931
O11	O	2.288624	-0.060738	0.463864
O12	O	2.150218	-0.059434	0.167639
V13	V	2.487120	-0.066519	0.329342
O14	O	2.492786	0.003820	0.322387
O15	O	2.452086	-0.132495	0.327749
O16	O	2.456473	-0.065222	0.472679
O17	O	2.488368	-0.063919	0.176454
V18	V	2.731174	-0.058138	0.310976
O19	O	2.612722	-0.084903	0.369631
O20	O	2.830670	-0.039753	0.270687
O21	O	2.654605	0.007838	0.312569
O22	O	2.784207	-0.128476	0.317931
O23	O	2.788624	-0.060738	0.463864
O24	O	2.650218	-0.059434	0.167639
C25	C	1.872159	-0.148587	0.322724
C26	C	1.884115	-0.202521	0.322377
C27	C	2.048783	-0.539443	0.325625
C28	C	2.093779	-0.742154	0.324370
O29	O	2.176488	-0.770462	0.328748
N30	N	2.008997	-0.765039	0.318924
C31	C	1.912961	-0.737243	0.313798
O32	O	1.841883	-0.761360	0.309148
C33	C	1.867968	-0.534534	0.315061
C34	C	1.952754	-0.511651	0.320496
C35	C	2.133562	-0.516560	0.331061
C36	C	2.122312	-0.465885	0.331369
C37	C	2.026283	-0.438092	0.326240
C38	C	1.941504	-0.460975	0.320804
C39	C	1.771934	-0.506739	0.309942
C40	C	1.760694	-0.456059	0.310261
C41	C	1.845480	-0.433176	0.315697
C42	C	1.834225	-0.382508	0.315983
N43	N	1.919007	-0.359623	0.321429
C44	C	2.015036	-0.387415	0.326558
C45	C	1.936589	-0.843669	0.313134
C46	C	1.947836	-0.894346	0.312816
C47	C	2.128654	-0.899254	0.323390
C48	C	2.117404	-0.848575	0.323700
C49	C	2.021370	-0.820784	0.318580
C50	C	1.991403	-0.280993	0.327203
C51	C	1.980144	-0.230313	0.327506
C52	C	1.799329	-0.225411	0.316937
C53	C	1.810586	-0.276086	0.316629
C54	C	1.906631	-0.303877	0.321766
O55	O	1.751551	-0.354171	0.311619
O56	O	2.086104	-0.363291	0.331231
C57	C	2.060033	-0.590118	0.325317
C58	C	1.975254	-0.613001	0.319881
C59	C	1.879225	-0.585209	0.314752
C60	C	1.986502	-0.663678	0.319563
C61	C	2.082531	-0.691470	0.324692
C62	C	2.167312	-0.668586	0.330138
C63	C	2.156062	-0.617910	0.330445
C64	C	1.794444	-0.608094	0.309306
C65	C	1.805701	-0.658769	0.308997
C66	C	1.901730	-0.686561	0.314126
C67	C	1.877755	-0.062773	0.507595
C68	C	1.893267	-0.062150	0.624778
C69	C	2.066202	0.023928	0.317591
C70	C	2.043865	0.077862	0.317945
C71	C	2.060607	-0.061885	0.132718
C72	C	2.034714	-0.062506	0.015534
C73	C	2.372159	-0.148587	0.322724
C74	C	2.384115	-0.202521	0.322377
C75	C	2.377755	-0.062773	0.507595
C76	C	2.393267	-0.062150	0.624778
C77	C	2.103252	-0.065792	0.855760
C78	C	2.117832	-0.065207	0.965864
C79	C	1.937008	-0.060389	0.955090
C80	C	1.922428	-0.060975	0.844986
C81	C	2.005554	-0.063677	0.795326
C82	C	1.990974	-0.064266	0.685221
C83	C	1.810150	-0.059445	0.674448
C84	C	1.824730	-0.058860	0.784552
C85	C	2.566202	0.023928	0.317591
C86	C	2.543865	0.077862	0.317945
C87	C	2.560607	-0.061885	0.132718
C88	C	2.534714	-0.062506	0.015534
C89	C	2.480144	-0.230313	0.327506
C90	C	2.491394	-0.280992	0.327196
C91	C	2.406612	-0.303877	0.321750
C92	C	2.310576	-0.276081	0.316624
C93	C	2.299328	-0.225404	0.316941
C94	C	2.603252	-0.065792	0.855760
C95	C	2.617832	-0.065207	0.965864
C96	C	2.437008	-0.060389	0.955090
C97	C	2.422428	-0.060975	0.844986
C98	C	2.505554	-0.063677	0.795326
C99	C	2.490974	-0.064266	0.685221
C100	C	2.310150	-0.059445	0.674448
C101	C	2.324730	-0.058860	0.784552
C102	C	2.620330	0.105654	0.312819
C103	C	2.599352	0.156332	0.313134
C104	C	2.501910	0.179217	0.318583
C105	C	2.425439	0.151421	0.323705
C106	C	2.446416	0.100744	0.323383
H107	H	2.049191	-0.211684	0.331928
Cl108	Cl	1.639959	-0.421125	0.303827
Cl109	Cl	2.350276	0.065812	0.329831
Cl110	Cl	1.841238	-0.923105	0.305958
Cl111	Cl	2.420769	-0.367586	0.321348
H112	H	2.241552	-0.294722	0.312190
Cl113	Cl	2.595474	-0.067665	0.622792
H114	H	2.186445	-0.829947	0.328124
H115	H	1.757054	-0.056658	0.825000
H116	H	1.702888	-0.525361	0.305508
H117	H	2.369335	-0.058186	0.995542
Cl118	Cl	1.687323	-0.056790	0.598467
H119	H	1.869335	-0.058186	0.995542
H120	H	2.484842	0.220481	0.318844
H121	H	2.221128	-0.202779	0.312760
H122	H	2.569598	-0.303616	0.331367
Cl123	Cl	2.586744	-0.201556	0.334363
H124	H	2.257054	-0.056658	0.825000
H125	H	2.670938	-0.067998	0.815328
H126	H	1.716246	-0.585470	0.305131
H127	H	2.230596	-0.057725	0.625230
H128	H	2.661630	0.178956	0.308964
Cl129	Cl	2.740656	-0.067864	1.041836
Cl130	Cl	2.112146	-0.315922	0.333658
H131	H	2.699678	0.087028	0.308384
Cl132	Cl	1.815849	-0.808738	0.306690
H133	H	2.346101	0.170062	0.328140
H134	H	2.211763	-0.539184	0.335241
H135	H	2.206845	-0.921890	0.327555
Cl136	Cl	1.703996	-0.304854	0.309794
Cl137	Cl	1.678609	-0.190462	0.310479
Cl138	Cl	2.262658	-0.589151	0.337274
Cl139	Cl	2.288035	-0.703534	0.336580
Cl140	Cl	1.699097	-0.687529	0.302152
Cl141	Cl	2.228908	-0.437125	0.338192
Cl142	Cl	2.240656	-0.067864	1.041836
Cl143	Cl	2.095474	-0.067665	0.622792
H144	H	2.170938	-0.067998	0.815328
