data_functionalizedCrystal
_audit_creation_method	'MofGen! by Chris Wilmer'
_symmetry_space_group_name_H-M	'P1'
_symmetry_Int_Tables_number	1
_symmetry_cell_setting	triclinic
loop_
_symmetry_equiv_pos_as_xyz
  x,y,z
_cell_length_a	18.101390
_cell_length_b	18.215407
_cell_length_c	18.215405
_cell_angle_alpha	90.025333
_cell_angle_beta	90.035371
_cell_angle_gamma	90.017596
loop_
_atom_site_label
_atom_site_type_symbol
_atom_site_fract_x
_atom_site_fract_y
_atom_site_fract_z
Zn1	Zn	-0.418723	-1.125056	0.292948
Zn2	Zn	-0.294876	-1.124969	0.416030
Zn3	Zn	-0.294896	-1.001993	0.292982
Zn4	Zn	-0.418676	-1.001954	0.415978
O5	O	-0.356793	-1.063493	0.354485
O6	O	-0.402306	-1.228028	0.309282
O7	O	-0.191246	-1.108636	0.399743
O8	O	-0.311350	-1.018370	0.189994
O9	O	-0.311317	-1.227965	0.399710
O10	O	-0.402325	-1.108784	0.189968
O11	O	-0.191260	-1.018286	0.309341
O12	O	-0.311304	-0.899004	0.309291
O13	O	-0.522315	-1.018304	0.399622
O14	O	-0.402245	-0.898975	0.399656
O15	O	-0.522350	-1.108746	0.309232
O16	O	-0.311271	-1.108598	0.519007
O17	O	-0.402226	-1.018220	0.518969
C18	C	-0.356772	-0.872287	0.354472
C19	C	-0.356780	-0.790488	0.354484
C20	C	-0.356757	-1.063415	0.545691
C21	C	-0.356767	-1.063449	0.627490
C22	C	-0.549955	-1.063530	0.354418
C23	C	-0.632269	-1.063546	0.354389
C24	C	-0.782977	-1.063573	0.354366
C25	C	-0.814353	-1.120478	0.297490
C26	C	-0.899971	-1.120716	0.297644
C27	C	-0.931360	-1.063599	0.354342
C28	C	-0.900246	-1.084352	0.431965
C29	C	-0.814601	-1.084750	0.431649
C30	C	-0.814535	-0.985775	0.334293
C31	C	-0.900187	-0.986207	0.332568
C32	C	-1.015220	-1.063612	0.354334
C33	C	-0.699118	-1.063561	0.354380
C34	C	-0.164382	-1.063498	0.354498
C35	C	-0.082069	-1.063625	0.354319
C36	C	-0.356815	-1.255446	0.354498
C37	C	-0.356824	-1.337245	0.354503
C38	C	-0.404074	-0.602298	0.401611
C39	C	-0.404083	-0.525440	0.401613
C40	C	-0.309528	-0.525440	0.307371
C41	C	-0.309523	-0.602297	0.307366
C42	C	-0.356795	-0.640724	0.354490
C43	C	-0.356809	-0.487008	0.354498
C44	C	-0.356819	-0.403675	0.354500
C45	C	-0.356786	-0.724063	0.354487
C46	C	-0.356845	-1.063591	0.162532
C47	C	-0.356867	-1.063633	0.080733
C48	C	-0.309494	-1.110620	0.815679
C49	C	-0.309511	-1.110653	0.892538
C50	C	-0.404145	-1.016460	0.892538
C51	C	-0.404131	-1.016432	0.815681
C52	C	-0.356801	-1.063510	0.777253
C53	C	-0.356833	-1.063572	0.930969
C54	C	-0.356853	-1.063607	1.014303
C55	C	-0.356781	-1.063476	0.693914
H56	H	-0.921011	-1.107749	0.240097
F57	F	-0.259204	-0.643195	0.257207
H58	H	-0.270990	-1.149015	0.923820
H59	H	-0.442679	-0.978129	0.923836
F60	F	-0.454487	-0.966292	0.774783
H61	H	-0.921718	-1.140585	0.449241
H62	H	-0.792839	-1.177798	0.310635
F63	F	-0.787465	-1.032913	0.488945
H64	H	-0.793783	-1.107667	0.239766
F65	F	-0.926815	-1.031848	0.488862
H66	H	-0.920467	-1.178370	0.310945
F67	F	-0.786328	-0.961001	0.261575
H68	H	-0.794241	-0.943381	0.375716
F69	F	-0.788496	-1.159071	0.453843
F70	F	-0.926772	-0.965741	0.257903
H71	H	-0.442567	-0.633583	0.439981
H72	H	-0.271040	-0.494143	0.269006
H73	H	-0.270956	-1.148955	0.784393
F74	F	-0.928111	-0.927861	0.382730
H75	H	-0.442583	-0.494156	0.439983
