data_functionalizedCrystal
_audit_creation_method	'MofGen! by Chris Wilmer'
_symmetry_space_group_name_H-M	'P1'
_symmetry_Int_Tables_number	1
_symmetry_cell_setting	triclinic
loop_
_symmetry_equiv_pos_as_xyz
  x,y,z
_cell_length_a	12.837943
_cell_length_b	10.654550
_cell_length_c	11.295483
_cell_angle_alpha	94.136004
_cell_angle_beta	85.461227
_cell_angle_gamma	89.656922
loop_
_atom_site_label
_atom_site_type_symbol
_atom_site_fract_x
_atom_site_fract_y
_atom_site_fract_z
O1	O	1.384729	0.319125	-0.098998
O2	O	1.082808	0.302983	-0.099005
O3	O	1.240710	0.129073	-0.098997
O4	O	1.226827	0.493035	-0.099006
O5	O	1.226841	0.144321	0.099053
O6	O	1.068938	0.318232	0.099045
O7	O	1.370860	0.334374	0.099052
Cu8	Cu	1.218633	0.327695	0.117132
Cu9	Cu	1.235034	0.309662	-0.117085
O10	O	1.212958	0.508284	0.099044
C11	C	1.037213	0.305155	0.000019
C12	C	0.922019	0.288892	0.000016
C13	C	0.682466	0.484398	0.000028
C14	C	0.574230	0.469123	0.000026
C15	C	0.597310	0.243071	0.000019
C16	C	0.705546	0.258345	0.000021
C17	C	0.748119	0.379012	0.000024
C18	C	0.856358	0.394285	0.000017
C19	C	0.879435	0.168234	0.000018
C20	C	0.771199	0.152960	0.000017
C21	C	1.232756	0.089788	0.000027
C22	C	1.229706	-0.049989	0.000022
C23	C	1.322676	-0.119329	0.000028
C24	C	1.319805	-0.250663	0.000020
C25	C	1.130985	-0.243306	0.000005
C26	C	1.133858	-0.111974	0.000005
C27	C	1.418525	-0.057343	0.000046
C28	C	1.511502	-0.126683	0.000053
C29	C	1.508631	-0.258018	0.000045
C30	C	1.412782	-0.320013	0.000029
C31	C	1.416454	0.332202	0.000025
C32	C	1.531648	0.348464	0.000020
C33	C	1.220912	0.547569	0.000018
C34	C	1.223962	0.687345	0.000014
N35	N	1.207104	0.340379	0.281868
N36	N	1.246571	0.296969	-0.281821
C37	C	1.329560	0.205592	0.531164
C38	C	1.320855	0.215188	0.655827
C39	C	1.180985	0.369157	0.655860
C40	C	1.189690	0.359562	0.531196
C41	C	1.263981	0.277778	0.468853
C42	C	1.272690	0.268191	0.344187
C43	C	1.132816	0.422153	0.344222
C44	C	1.124111	0.431748	0.468886
H45	H	0.736520	0.054717	0.000028
H46	H	1.589541	-0.076201	0.000036
H47	H	1.063622	0.498332	0.519660
H48	H	1.052949	-0.293793	-0.000006
O49	O	1.401750	0.126056	0.470780
C50	C	1.539618	-0.025577	0.483899
C51	C	1.457890	0.064426	0.552429
H52	H	1.585043	-0.075410	0.549882
H53	H	1.498504	-0.098330	0.425578
H54	H	1.595862	0.030456	0.425490
H55	H	1.401622	0.008499	0.610902
H56	H	1.499073	0.137180	0.610675
O57	O	1.069206	0.492473	0.283750
C58	C	1.012610	0.700786	0.245696
C59	C	1.084712	0.621297	0.314230
H60	H	1.025105	0.804955	0.270333
H61	H	1.031589	0.680000	0.145871
H62	H	0.927692	0.676235	0.270211
H63	H	1.169653	0.645802	0.289815
H64	H	1.065643	0.642094	0.414039
H65	H	0.932903	0.082422	0.000007
O66	O	1.599037	-0.325182	0.000098
C67	C	1.786628	-0.318616	0.000048
C68	C	1.684317	-0.242402	0.000008
H69	H	1.855606	-0.251723	-0.000051
H70	H	1.784267	-0.373877	0.082949
H71	H	1.795755	-0.386693	-0.082819
H72	H	1.675126	-0.174259	0.082818
H73	H	1.686725	-0.187226	-0.082948
O74	O	1.108677	0.448434	0.716384
C75	C	0.926143	0.503326	0.754534
C76	C	1.007923	0.413446	0.685933
H77	H	0.844666	0.475087	0.729920
H78	H	0.931099	0.497755	0.854349
H79	H	0.942135	0.603745	0.730056
H80	H	0.991984	0.312987	0.710311
H81	H	1.002948	0.419126	0.586135
H82	H	0.891019	0.492538	0.000021
H83	H	0.520778	0.554940	0.000033
H84	H	0.562620	0.144837	0.000116
H85	H	1.420873	0.049596	0.000056
O86	O	1.043448	-0.044796	0.000051
C87	C	0.855866	-0.051353	-0.000047
C88	C	0.958175	-0.127583	-0.000061
H89	H	0.786899	-0.118255	-0.000162
H90	H	0.846609	0.016671	0.082853
H91	H	0.858362	0.003966	-0.082915
H92	H	0.955751	-0.182978	0.082751
H93	H	0.967394	-0.195530	-0.083015
H94	H	0.717130	0.582649	0.000028
H95	H	1.410452	-0.426956	0.000010
H96	H	1.333184	0.201602	0.293428
H97	H	1.374254	0.156405	0.706557
