data_functionalizedCrystal
_audit_creation_method	'MofGen! by Chris Wilmer'
_symmetry_space_group_name_H-M	'P1'
_symmetry_Int_Tables_number	1
_symmetry_cell_setting	triclinic
loop_
_symmetry_equiv_pos_as_xyz
  x,y,z
_cell_length_a	14.971486
_cell_length_b	16.974813
_cell_length_c	14.048226
_cell_angle_alpha	86.339005
_cell_angle_beta	89.998499
_cell_angle_gamma	83.504783
loop_
_atom_site_label
_atom_site_type_symbol
_atom_site_fract_x
_atom_site_fract_y
_atom_site_fract_z
O1	O	1.186696	0.103043	-0.086987
O2	O	0.926266	0.115383	-0.087964
O3	O	1.063741	-0.005884	-0.078604
O4	O	1.049221	0.224310	-0.096347
O5	O	1.063724	-0.005891	0.079718
O6	O	0.926249	0.115375	0.070358
O7	O	1.186679	0.103036	0.071334
Zn8	Zn	1.056462	0.109205	0.095983
Zn9	Zn	1.056484	0.109214	-0.112613
O10	O	1.049205	0.224303	0.061975
C11	C	0.892934	0.114827	-0.008764
C12	C	0.793641	0.113173	-0.008646
C13	C	0.736242	0.184414	-0.014136
C14	C	0.642947	0.182856	-0.014002
C15	C	0.607052	0.110056	-0.008384
C16	C	0.664458	0.038809	-0.002891
C17	C	0.757752	0.040369	-0.003019
C18	C	0.470003	0.035564	-0.002628
C19	C	0.376703	0.034004	-0.002502
C20	C	0.355198	0.178051	-0.013611
C21	C	0.448492	0.179611	-0.013738
C22	C	0.505892	0.108364	-0.008247
C23	C	1.063180	-0.035347	0.002825
C24	C	1.061523	-0.123125	0.009585
C25	C	1.060756	-0.164355	-0.073540
C26	C	1.059193	-0.246832	-0.067186
C27	C	1.058404	-0.288078	0.022294
C28	C	1.059169	-0.246841	0.105425
C29	C	1.060725	-0.164366	0.099070
C30	C	1.053743	-0.534744	0.050554
C31	C	1.052190	-0.617226	0.056903
C32	C	1.052212	-0.617211	-0.115710
C33	C	1.053774	-0.534734	-0.122056
C34	C	1.054534	-0.493504	-0.038925
N35	N	1.056810	-0.372382	0.028791
N36	N	1.056121	-0.409200	-0.045423
C37	C	1.220011	0.103591	-0.007868
C38	C	1.319304	0.105245	-0.007992
C39	C	1.049765	0.253765	-0.019457
C40	C	1.051422	0.341544	-0.026222
N41	N	1.056453	0.109198	0.238344
N42	N	1.056499	0.109215	-0.254973
C43	C	1.117346	0.055523	0.292305
C44	C	1.117352	0.055523	0.391963
C45	C	1.056469	0.109201	0.437658
C46	C	0.995570	0.162878	0.383690
C47	C	0.995560	0.162874	0.284034
C48	C	0.995596	0.162884	0.591403
C49	C	0.995606	0.162889	0.691066
C50	C	1.117388	0.055532	0.699332
C51	C	1.117378	0.055528	0.599677
C52	C	1.056480	0.109207	0.545716
H53	H	0.477714	0.238891	-0.018322
H54	H	0.946028	0.206599	0.728265
H55	H	0.946002	0.206592	0.547471
H56	H	1.051543	-0.650806	0.129772
H57	H	0.635225	-0.020466	0.001697
H58	H	1.061403	-0.130780	-0.146405
H59	H	0.945993	0.206582	0.420900
N60	N	0.581079	0.259718	-0.019907
H61	H	0.541874	0.262317	-0.078784
H62	H	0.541965	0.262247	0.038640
N63	N	1.054574	-0.490282	0.140213
H64	H	1.053845	-0.528929	0.197859
H65	H	1.110642	-0.462421	0.141827
H66	H	0.804486	-0.017643	0.001451
N67	N	1.058494	-0.291317	-0.156841
H68	H	1.059279	-0.252679	-0.214489
H69	H	1.113313	-0.331854	-0.157371
H70	H	0.308458	0.236063	-0.018078
N71	N	1.058327	-0.291324	0.201938
H72	H	1.057233	-0.349830	0.193352
H73	H	1.114022	-0.283260	0.238998
H74	H	1.054417	-0.501157	-0.194921
H75	H	1.166958	0.011823	0.562472
H76	H	0.347481	-0.025276	0.002074
H77	H	1.061337	-0.130796	0.166759
N78	N	1.183080	-0.002351	0.757536
H79	H	1.246539	0.006868	0.739471
H80	H	1.173765	0.005834	0.827578
N81	N	0.929879	0.220762	0.225829
H82	H	0.891310	0.254768	0.269896
H83	H	0.964066	0.255768	0.181769
H84	H	0.516736	-0.022453	0.001845
H85	H	1.166935	0.011816	0.435898
N86	N	0.774954	0.262935	-0.020206
H87	H	0.724432	0.307829	-0.023663
H88	H	0.813199	0.266720	0.038189
H89	H	1.051592	-0.650789	-0.183390
H90	H	1.166928	0.011815	0.255108
