data_functionalizedCrystal
_audit_creation_method	'MofGen! by Chris Wilmer'
_symmetry_space_group_name_H-M	'P1'
_symmetry_Int_Tables_number	1
_symmetry_cell_setting	triclinic
loop_
_symmetry_equiv_pos_as_xyz
  x,y,z
_cell_length_a	16.109295
_cell_length_b	16.109302
_cell_length_c	16.053942
_cell_angle_alpha	92.559981
_cell_angle_beta	92.569458
_cell_angle_gamma	96.539375
loop_
_atom_site_label
_atom_site_type_symbol
_atom_site_fract_x
_atom_site_fract_y
_atom_site_fract_z
O1	O	-1.106630	0.103353	-0.069371
O2	O	-0.864568	0.116657	-0.069385
O3	O	-0.992248	-0.011026	-0.069372
O4	O	-0.978951	0.231036	-0.069383
O5	O	-0.985241	-0.004041	0.069483
O6	O	-0.857562	0.123642	0.069471
O7	O	-1.099624	0.110338	0.069485
Zn8	Zn	-0.977480	0.118099	0.091524
Zn9	Zn	-0.986712	0.108896	-0.091424
O10	O	-0.971944	0.238021	0.069472
C11	C	-0.830090	0.119611	0.000041
C12	C	-0.737795	0.117998	0.000036
C13	C	-0.988206	-0.038508	0.000055
C14	C	-0.986590	-0.130803	0.000054
C15	C	-0.515522	0.190010	0.000041
C16	C	-0.428801	0.188488	0.000047
C17	C	-0.448675	0.036999	0.000050
C18	C	-0.535394	0.038522	0.000051
C19	C	-0.568815	0.115030	0.000042
C20	C	-0.395375	0.111985	0.000047
C21	C	-0.301349	0.110334	0.000052
C22	C	-0.662847	0.116681	0.000038
C23	C	-0.134101	0.107389	0.000056
C24	C	-0.226395	0.109017	0.000053
N25	N	-0.993013	0.102610	-0.216281
C26	C	-0.975986	0.265503	0.000043
C27	C	-0.977602	0.357798	0.000039
C28	C	-0.985156	0.566332	-0.075645
C29	C	-0.986682	0.653052	-0.075644
C30	C	-0.979039	0.660657	0.075744
C31	C	-0.977518	0.573937	0.075741
C32	C	-0.980573	0.526778	0.000044
C33	C	-0.983620	0.700217	0.000049
C34	C	-0.985275	0.794243	0.000051
C35	C	-0.978919	0.432745	0.000041
C36	C	-1.025613	0.070159	-0.739898
C37	C	-1.021182	0.074563	-0.652493
C38	C	-0.962327	0.133191	-0.608811
C39	C	-0.907895	0.187414	-0.652539
C40	C	-0.912322	0.183005	-0.739941
C41	C	-0.943008	0.152423	-0.347411
C42	C	-0.938586	0.156830	-0.260002
C43	C	-1.051872	0.043977	-0.259963
C44	C	-1.056298	0.039577	-0.347367
C45	C	-1.001863	0.093796	-0.391087
N46	N	-0.957798	0.137696	-0.519470
N47	N	-1.006388	0.089287	-0.480427
N48	N	-0.971186	0.124379	0.216381
H49	H	-0.542730	0.252308	0.000041
O50	O	-0.377153	0.261399	0.000006
C51	C	-0.425251	0.329249	0.000021
H52	H	-0.491304	0.306805	-0.026268
H53	H	-0.395278	0.379756	-0.040294
H54	H	-0.428063	0.356051	0.066635
O55	O	-0.988233	0.520423	-0.149125
C56	C	-1.059554	0.460607	-0.153670
H57	H	-1.080001	0.447757	-0.087952
H58	H	-1.043915	0.400145	-0.185719
H59	H	-1.112417	0.485547	-0.191013
O60	O	-1.082810	0.013133	-0.782197
C61	C	-1.129910	-0.033765	-0.724860
H62	H	-1.092677	-0.031633	-0.662565
H63	H	-1.144012	-0.101423	-0.750099
H64	H	-1.191127	-0.006163	-0.715554
O65	O	-0.587196	-0.034288	0.000197
C66	C	-0.634341	-0.034313	0.072102
H67	H	-0.600032	0.010734	0.122365
H68	H	-0.642901	-0.100074	0.096241
H69	H	-0.698212	-0.013622	0.055844
O70	O	-0.890216	0.205215	-0.389831
C71	C	-0.902462	0.288638	-0.368460
H72	H	-0.967795	0.290392	-0.344426
H73	H	-0.895718	0.327461	-0.425943
H74	H	-0.853777	0.315520	-0.317733
O75	O	-0.850797	0.244341	-0.609979
C76	C	-0.858546	0.236595	-0.523459
H77	H	-0.924090	0.206259	-0.511501
H78	H	-0.847482	0.301228	-0.490255
H79	H	-0.810334	0.196038	-0.498658
H80	H	-0.990415	0.685253	-0.137278
O81	O	-0.973027	0.535646	0.149346
C82	C	-0.970671	0.595862	0.216159
H83	H	-0.946567	0.660015	0.193972
H84	H	-0.927220	0.578751	0.269092
H85	H	-1.036318	0.597511	0.239438
O86	O	-0.416071	-0.037246	0.000015
C87	C	-0.328102	-0.022514	0.000032
H88	H	-0.309043	0.041052	-0.026257
H89	H	-0.303523	-0.073492	-0.040282
H90	H	-0.300604	-0.023189	0.066648
O91	O	-0.881294	0.213692	-0.217601
C92	C	-0.800127	0.198921	-0.238984
H93	H	-0.801089	0.131131	-0.263009
H94	H	-0.755487	0.211282	-0.181510
H95	H	-0.778171	0.242406	-0.289723
O96	O	-0.976034	0.706599	0.149198
C97	C	-0.978377	0.791620	0.132972
H98	H	-0.955564	0.803646	0.067918
H99	H	-0.936171	0.832296	0.181310
H100	H	-1.045286	0.807669	0.136569
O101	O	-1.113179	-0.017736	-0.389702
C102	C	-1.071015	-0.071646	-0.439978
H103	H	-1.006741	-0.039034	-0.453272
H104	H	-1.108830	-0.088349	-0.501356
H105	H	-1.063380	-0.131147	-0.405962
H106	H	-1.065499	0.030412	-0.616896
O107	O	-1.104655	-0.008655	-0.217364
C108	C	-1.088145	0.007818	-0.130853
H109	H	-1.021393	0.039361	-0.118934
H110	H	-1.095843	-0.053464	-0.097625
H111	H	-1.133847	0.050875	-0.106045
O112	O	-0.859417	0.235763	-0.782286
C113	C	-0.806507	0.288443	-0.724991
H114	H	-0.837427	0.292600	-0.662680
H115	H	-0.794962	0.353553	-0.750260
H116	H	-0.744350	0.261777	-0.715705
