data_functionalizedCrystal
_audit_creation_method	'MofGen! by Chris Wilmer'
_symmetry_space_group_name_H-M	'P1'
_symmetry_Int_Tables_number	1
_symmetry_cell_setting	triclinic
loop_
_symmetry_equiv_pos_as_xyz
  x,y,z
_cell_length_a	19.805407
_cell_length_b	13.032721
_cell_length_c	19.805398
_cell_angle_alpha	97.157086
_cell_angle_beta	89.984135
_cell_angle_gamma	97.204665
loop_
_atom_site_label
_atom_site_type_symbol
_atom_site_fract_x
_atom_site_fract_y
_atom_site_fract_z
Zn1	Zn	1.000506	-0.416087	-0.416945
Zn2	Zn	1.500506	0.083913	0.083055
Zn3	Zn	0.986062	-0.590842	-0.318131
Zn4	Zn	1.486062	-0.090842	0.181869
Zn5	Zn	0.887326	-0.416110	-0.303772
Zn6	Zn	1.387326	0.083890	0.196228
Zn7	Zn	0.872923	-0.590791	-0.431274
Zn8	Zn	1.372923	-0.090791	0.068726
O9	O	0.936704	-0.503457	-0.367530
O10	O	1.436704	-0.003457	0.132470
O11	O	1.093306	-0.439279	-0.403850
O12	O	1.593306	0.060721	0.096150
O13	O	0.972948	-0.567694	-0.221512
O14	O	1.472948	-0.067694	0.278488
O15	O	0.914412	-0.269867	-0.306778
O16	O	1.414412	0.230133	0.193222
O17	O	1.082694	-0.567671	-0.331252
O18	O	1.582694	-0.067671	0.168748
O19	O	0.997565	-0.269849	-0.389926
O20	O	1.497565	0.230151	0.110074
O21	O	0.900407	-0.439320	-0.210962
O22	O	1.400407	0.060680	0.289038
O23	O	0.790700	-0.439271	-0.320672
O24	O	1.290700	0.060729	0.179328
O25	O	0.889864	-0.567585	-0.524087
O26	O	1.389864	-0.067585	-0.024087
O27	O	0.780118	-0.567608	-0.414348
O28	O	1.280118	-0.067608	0.085652
O29	O	0.983599	-0.439230	-0.513560
O30	O	1.483599	0.060770	-0.013560
O31	O	0.958981	-0.737075	-0.345146
O32	O	1.458981	-0.237075	0.154854
O33	O	0.875858	-0.737038	-0.428272
O34	O	1.375858	-0.237038	0.071728
C35	C	0.760850	-0.503437	-0.367507
C36	C	1.260850	-0.003437	0.132493
C37	C	0.685617	-0.503454	-0.367515
C38	C	1.185617	-0.003454	0.132485
C39	C	0.914308	-0.774975	-0.389837
C40	C	1.414308	-0.274975	0.110163
C41	C	0.904788	-0.891132	-0.399402
C42	C	1.404788	-0.391132	0.100598
C43	C	0.644772	-0.570380	-0.416230
C44	C	1.144772	-0.070380	0.083770
C45	C	0.574083	-0.570382	-0.416240
C46	C	1.074083	-0.070382	0.083760
C47	C	0.544240	-0.503462	-0.367531
C48	C	1.044240	-0.003462	0.132469
C49	C	0.585091	-0.436529	-0.318813
C50	C	1.085091	0.063471	0.181187
C51	C	0.655778	-0.436523	-0.318807
C52	C	1.155778	0.063477	0.181193
C53	C	0.300016	-0.436552	-0.318838
C54	C	0.800016	0.063448	0.181162
C55	C	0.229322	-0.436566	-0.318846
C56	C	0.729322	0.063434	0.181154
C57	C	0.218320	-0.570411	-0.416270
C58	C	0.718320	-0.070411	0.083730
C59	C	0.289008	-0.570405	-0.416264
C60	C	0.789008	-0.070405	0.083736
C61	C	0.329852	-0.503468	-0.367549
C62	C	0.829852	-0.003468	0.132451
C63	C	0.406501	-0.503466	-0.367540
C64	C	0.906501	-0.003466	0.132460
C65	C	0.467593	-0.503469	-0.367536
C66	C	0.967593	-0.003469	0.132464
C67	C	0.941708	-0.942902	-0.362569
C68	C	1.441708	-0.442902	0.137431
C69	C	0.931871	-1.062956	-0.372454
C70	C	1.431871	-0.562956	0.127546
C71	C	1.113245	-0.503478	-0.367554
C72	C	1.613245	-0.003478	0.132446
C73	C	1.188477	-0.503487	-0.367565
C74	C	1.688477	-0.003487	0.132435
C75	C	0.936736	-0.503400	-0.544068
C76	C	1.436736	-0.003400	-0.044068
C77	C	0.936749	-0.503375	-0.619298
C78	C	1.436749	-0.003375	-0.119298
C79	C	0.959207	-0.230879	-0.345152
C80	C	1.459207	0.269121	0.154848
C81	C	0.968796	-0.114723	-0.335615
C82	C	1.468796	0.385277	0.164385
C83	C	0.985654	-0.436356	-1.075594
C84	C	1.485654	0.063644	-0.575594
C85	C	0.985640	-0.436388	-1.004908
C86	C	1.485640	0.063612	-0.504908
C87	C	0.936830	-0.503230	-0.975048
C88	C	1.436830	-0.003230	-0.475048
C89	C	0.888034	-0.570051	-1.015879
C90	C	1.388034	-0.070051	-0.515879
C91	C	0.888051	-0.570024	-1.086564
C92	C	1.388051	-0.070024	-0.586564
C93	C	0.887966	-0.570165	-0.730815
C94	C	1.387966	-0.070165	-0.230815
C95	C	0.887952	-0.570185	-0.660125
C96	C	1.387952	-0.070185	-0.160125
C97	C	0.985555	-0.436528	-0.649159
C98	C	1.485555	0.063472	-0.149159
C99	C	0.985572	-0.436501	-0.719844
C100	C	1.485572	0.063499	-0.219844
C101	C	0.936779	-0.503326	-0.760669
C102	C	1.436779	-0.003326	-0.260669
C103	C	0.936795	-0.503292	-0.837315
C104	C	1.436795	-0.003292	-0.337315
C105	C	0.936811	-0.503259	-0.898404
C106	C	1.436811	-0.003259	-0.398404
C107	C	0.936718	-0.503440	-0.191673
C108	C	1.436718	-0.003440	0.308327
C109	C	0.936860	-0.503170	-0.116419
C110	C	1.436860	-0.003170	0.383581
H111	H	0.669064	-0.624877	-0.455893
H112	H	1.169064	-0.124877	0.044107
F113	F	0.992548	-0.884668	-0.311788
F114	F	1.492548	-0.384668	0.188212
H115	H	0.865899	-0.935689	-0.438258
H116	H	1.365899	-0.435689	0.061742
F117	F	0.197564	-0.365336	-0.267002
F118	F	0.697564	0.134664	0.232998
F119	F	0.553329	-0.365301	-0.266977
F120	F	1.053329	0.134699	0.233023
F121	F	1.037526	-0.365366	-0.751619
F122	F	1.537526	0.134634	-0.251619
F123	F	0.530616	-0.641613	-0.468089
F124	F	1.030616	-0.141613	0.031911
H125	H	1.025287	-0.382119	-0.615911
H126	H	1.525287	0.117881	-0.115911
F127	F	1.019638	-1.056495	-0.284830
F128	F	1.519638	-0.556495	0.215170
H129	H	0.689034	-0.382019	-0.279141
H130	H	1.189034	0.117981	0.220859
F131	F	0.881035	-1.121185	-0.423245
F132	F	1.381035	-0.621185	0.076755
H133	H	0.848201	-0.624615	-0.635815
H134	H	1.348201	-0.124615	-0.135815
H135	H	0.848235	-0.624577	-0.764046
H136	H	1.348235	-0.124577	-0.264046
H137	H	0.333262	-0.382056	-0.279166
H138	H	0.833262	0.117944	0.220834
F139	F	0.320764	-0.641634	-0.468104
F140	F	0.820764	-0.141634	0.031896
F141	F	0.174845	-0.641651	-0.468118
F142	F	0.674845	-0.141651	0.031882
F143	F	1.037573	-0.365275	-0.961462
F144	F	1.537573	0.134725	-0.461462
F145	F	1.037599	-0.365202	-1.107365
F146	F	1.537599	0.134798	-0.607365
H147	H	0.848295	-0.624480	-0.991562
H148	H	1.348295	-0.124480	-0.491562
H149	H	0.848319	-0.624432	-1.119804
H150	H	1.348319	-0.124432	-0.619804
