data_functionalizedCrystal
_audit_creation_method	'MofGen! by Chris Wilmer'
_symmetry_space_group_name_H-M	'P1'
_symmetry_Int_Tables_number	1
_symmetry_cell_setting	triclinic
loop_
_symmetry_equiv_pos_as_xyz
  x,y,z
_cell_length_a	12.645331
_cell_length_b	18.215404
_cell_length_c	18.215399
_cell_angle_alpha	89.972067
_cell_angle_beta	90.014731
_cell_angle_gamma	89.975766
loop_
_atom_site_label
_atom_site_type_symbol
_atom_site_fract_x
_atom_site_fract_y
_atom_site_fract_z
Zn1	Zn	1.620652	0.292981	0.416027
Zn2	Zn	2.120652	0.792981	0.916027
Zn3	Zn	1.620525	0.416053	0.292962
Zn4	Zn	2.120525	0.916053	0.792962
Zn5	Zn	1.443376	0.293006	0.292985
Zn6	Zn	1.943376	0.793006	0.792985
Zn7	Zn	1.443329	0.416011	0.415997
Zn8	Zn	1.943329	0.916011	0.915997
O9	O	1.531970	0.354513	0.354493
O10	O	2.031970	0.854513	0.854493
O11	O	1.768982	0.309314	0.399706
O12	O	2.268982	0.809314	0.899706
O13	O	1.596992	0.399758	0.189981
O14	O	2.096992	0.899758	0.689981
O15	O	1.466965	0.190018	0.309329
O16	O	1.966965	0.690018	0.809329
O17	O	1.768889	0.399734	0.309290
O18	O	2.268889	0.899734	0.809290
O19	O	1.597209	0.190000	0.399728
O20	O	2.097209	0.690000	0.899728
O21	O	1.466842	0.309356	0.189997
O22	O	1.966842	0.809356	0.689997
O23	O	1.295023	0.309315	0.309299
O24	O	1.795023	0.809315	0.809299
O25	O	1.466885	0.399663	0.518985
O26	O	1.966885	0.899663	1.018985
O27	O	1.294988	0.399687	0.399676
O28	O	1.794988	0.899687	0.899676
O29	O	1.597163	0.309273	0.519008
O30	O	2.097163	0.809273	1.019008
O31	O	1.596946	0.519032	0.309261
O32	O	2.096946	1.019032	0.809261
O33	O	1.466761	0.519001	0.399654
O34	O	1.966761	1.019001	0.899654
C35	C	1.256541	0.354500	0.354487
C36	C	1.756541	0.854500	0.854487
C37	C	1.138711	0.354512	0.354502
C38	C	1.638711	0.854512	0.854502
C39	C	1.093842	0.411462	0.411275
C40	C	1.593842	0.911462	0.911275
C41	C	0.971282	0.411696	0.411106
C42	C	1.471282	0.911696	0.911106
C43	C	0.970760	0.375224	0.276848
C44	C	1.470760	0.875224	0.776848
C45	C	1.093358	0.375627	0.277177
C46	C	1.593358	0.875627	0.777177
C47	C	1.093575	0.276730	0.374704
C48	C	1.593575	0.776730	0.874704
C49	C	0.970969	0.277159	0.376414
C50	C	1.470969	0.777159	0.876414
C51	C	1.531864	0.545719	0.354467
C52	C	2.031864	1.045719	0.854467
C53	C	1.531915	0.627518	0.354481
C54	C	2.031915	1.127518	0.854481
C55	C	1.599866	0.815703	0.307510
C56	C	2.099866	1.315703	0.807510
C57	C	1.599916	0.892562	0.307532
C58	C	2.099916	1.392562	0.807532
C59	C	1.464237	0.892570	0.401581
C60	C	1.964237	1.392570	0.901581
C61	C	1.464194	0.815713	0.401562
C62	C	1.964194	1.315713	0.901562
C63	C	1.532007	0.777281	0.354523
C64	C	2.032007	1.277281	0.854523
C65	C	1.532100	0.930997	0.354563
C66	C	2.032100	1.430997	0.854563
C67	C	1.532153	1.014331	0.354587
C68	C	2.032153	1.514331	0.854587
C69	C	1.531955	0.693942	0.354499
C70	C	2.031955	1.193942	0.854499
C71	C	1.808476	0.354526	0.354499
C72	C	2.308476	0.854526	0.854499
C73	C	1.926306	0.354532	0.354502
C74	C	2.426306	0.854532	0.854502
C75	C	1.532033	0.354460	0.546446
C76	C	2.032033	0.854460	1.046446
C77	C	1.532059	0.354438	0.628245
C78	C	2.032059	0.854438	1.128245
C79	C	1.532113	1.162560	0.354548
C80	C	2.032113	1.662560	0.854548
C81	C	1.532191	1.080761	0.354605
C82	C	2.032191	1.580761	0.854605
C83	C	1.531969	0.354511	0.163287
C84	C	2.031969	0.854511	0.663287
C85	C	1.532148	0.354326	0.081488
C86	C	2.032148	0.854326	0.581488
C87	C	1.599934	0.307309	0.893315
C88	C	2.099934	0.807309	1.393315
C89	C	1.599922	0.307329	0.816456
C90	C	2.099922	0.807329	1.316456
C91	C	1.464270	0.401461	0.816423
C92	C	1.964270	0.901461	1.316423
C93	C	1.464289	0.401444	0.893280
C94	C	1.964289	0.901444	1.393280
C95	C	1.532119	0.354364	0.931724
C96	C	2.032119	0.854364	1.431724
C97	C	1.532088	0.354401	0.778008
C98	C	2.032088	0.854401	1.278008
C99	C	1.532074	0.354423	0.694675
C100	C	2.032074	0.854423	1.194675
C101	C	1.532135	0.354343	1.015063
C102	C	2.032135	0.854343	1.515063
H103	H	1.123039	0.335919	0.233426
H104	H	1.623039	0.835919	0.733426
H105	H	1.655144	0.269012	0.785187
H106	H	2.155144	0.769012	1.285187
O107	O	1.673080	0.256521	0.934778
O108	O	2.173080	0.756521	1.434778
H109	H	1.661689	0.264403	0.994675
H110	H	2.161689	0.764403	1.494675
H111	H	0.940355	0.232490	0.338112
H112	H	1.440355	0.732490	0.838112
H113	H	1.655175	0.923842	0.269251
H114	H	2.155175	1.423842	0.769251
H115	H	1.409044	0.439791	0.785112
H116	H	1.909044	0.939791	1.285112
O117	O	1.391136	0.452194	0.934716
O118	O	1.891136	0.952194	1.434716
H119	H	1.343953	0.484925	0.895073
H120	H	1.843953	0.984925	1.395073
O121	O	1.673031	0.774255	0.256791
O122	O	2.173031	1.274255	0.756791
H123	H	1.661602	0.714355	0.264674
H124	H	2.161602	1.214355	0.764674
O125	O	0.931456	0.394591	0.487358
O126	O	1.431456	0.894591	0.987358
H127	H	0.999764	0.386081	0.524688
H128	H	1.499764	0.886081	1.024688
H129	H	1.409024	0.923870	0.439878
H130	H	1.909024	1.423870	0.939878
H131	H	1.123358	0.398702	0.469023
H132	H	1.623358	0.898702	0.969023
H133	H	0.941627	0.335018	0.233386
H134	H	1.441627	0.835018	0.733386
O135	O	1.390998	0.774269	0.452275
O136	O	1.890998	1.274269	0.952275
H137	H	1.402371	0.714369	0.444365
H138	H	1.902371	1.214369	0.944365
O139	O	1.134583	0.487379	0.393732
O140	O	1.634583	0.987379	0.893732
H141	H	1.222265	0.487452	0.396561
H142	H	1.722265	0.987452	0.896561
O143	O	0.932368	0.488043	0.393335
O144	O	1.432368	0.988043	0.893335
H145	H	1.001116	0.524940	0.384822
H146	H	1.501116	1.024940	0.884822
H147	H	0.940023	0.431454	0.259483
H148	H	1.440023	0.931454	0.759483
O149	O	1.131200	0.450927	0.254567
O150	O	1.631200	0.950927	0.754567
H151	H	1.061935	0.486713	0.243505
H152	H	1.561935	0.986713	0.743505
O153	O	1.134575	0.251674	0.448444
O154	O	1.634575	0.751674	0.948444
H155	H	1.187584	0.294388	0.471519
H156	H	1.687584	0.794388	0.971519
H157	H	1.122593	0.234303	0.333358
H158	H	1.622593	0.734303	0.833358
H159	H	0.941919	0.261549	0.433563
H160	H	1.441919	0.761549	0.933563
