data_functionalizedCrystal
_audit_creation_method	'MofGen! by Chris Wilmer'
_symmetry_space_group_name_H-M	'P1'
_symmetry_Int_Tables_number	1
_symmetry_cell_setting	triclinic
loop_
_symmetry_equiv_pos_as_xyz
  x,y,z
_cell_length_a	14.044191
_cell_length_b	14.044220
_cell_length_c	9.130313
_cell_angle_alpha	89.997493
_cell_angle_beta	90.001968
_cell_angle_gamma	93.190327
loop_
_atom_site_label
_atom_site_type_symbol
_atom_site_fract_x
_atom_site_fract_y
_atom_site_fract_z
O1	O	1.277167	0.230195	-0.121735
O2	O	1.777167	0.730195	0.378265
O3	O	1.000494	0.221883	-0.121753
O4	O	1.500494	0.721883	0.378247
O5	O	1.134678	0.087703	-0.121730
O6	O	1.634678	0.587703	0.378270
O7	O	1.142983	0.364375	-0.121758
O8	O	1.642983	0.864375	0.378242
O9	O	1.134676	0.087707	0.121869
O10	O	1.634676	0.587707	0.621869
O11	O	1.000493	0.221886	0.121845
O12	O	1.500493	0.721886	0.621845
O13	O	1.277165	0.230199	0.121864
O14	O	1.777165	0.730199	0.621864
Cu15	Cu	1.138829	0.226043	0.144097
Cu16	Cu	1.638829	0.726043	0.644097
Cu17	Cu	1.138831	0.226038	-0.143987
Cu18	Cu	1.638831	0.726038	0.356013
O19	O	1.142982	0.364378	0.121840
O20	O	1.642982	0.864378	0.621840
C21	C	0.964872	0.218248	0.000044
C22	C	1.464872	0.718248	0.500044
C23	C	0.858728	0.207401	0.000037
C24	C	1.358728	0.707401	0.500037
C25	C	0.613270	0.264501	0.000046
C26	C	1.113270	0.764501	0.500046
C27	C	0.664395	0.187585	0.000051
C28	C	1.164395	0.687585	0.500051
C29	C	0.772532	0.198613	0.000044
C30	C	1.272532	0.698613	0.500044
C31	C	0.505123	0.253474	0.000054
C32	C	1.005123	0.753474	0.500054
C33	C	1.131041	0.052083	0.000070
C34	C	1.631041	0.552083	0.500070
C35	C	1.120197	-0.054060	0.000071
C36	C	1.620197	0.445940	0.500071
C37	C	1.100370	-0.248398	0.000048
C38	C	1.600370	0.251602	0.500048
C39	C	1.177285	-0.299526	0.000049
C40	C	1.677285	0.200474	0.500049
C41	C	1.166253	-0.407663	0.000037
C42	C	1.666253	0.092337	0.500037
C43	C	1.111400	-0.140252	0.000061
C44	C	1.611400	0.359748	0.500061
C45	C	1.312788	0.233834	0.000063
C46	C	1.812788	0.733834	0.500063
C47	C	1.418931	0.244681	0.000060
C48	C	1.918931	0.744681	0.500060
C49	C	1.146618	0.399998	0.000037
C50	C	1.646618	0.899998	0.500037
C51	C	1.157463	0.506142	0.000027
C52	C	1.657463	1.006142	0.500027
N53	N	1.138835	0.226046	0.346720
N54	N	1.638835	0.726046	0.846720
N55	N	1.138832	0.226028	-0.346609
N56	N	1.638832	0.726028	0.153391
C57	C	1.198269	0.166655	0.423382
C58	C	1.698269	0.666655	0.923382
C59	C	1.198266	0.166643	0.576719
C60	C	1.698266	0.666643	1.076719
C61	C	1.079390	0.285422	0.576718
C62	C	1.579390	0.785422	1.076718
C63	C	1.079390	0.285428	0.423384
C64	C	1.579390	0.785428	0.923384
C65	C	1.266904	0.098081	0.423384
C66	C	1.766904	0.598081	0.923384
C67	C	1.266901	0.098070	0.576721
C68	C	1.766901	0.598070	1.076721
H69	H	0.650711	0.338628	0.000034
H70	H	1.150711	0.838628	0.500034
H71	H	1.341458	0.119983	0.618340
H72	H	1.841458	0.619983	1.118340
N73	N	0.614799	0.089389	0.000050
N74	N	1.114799	0.589389	0.500050
H75	H	0.633854	0.053530	-0.090254
H76	H	1.133854	0.553530	0.409746
H77	H	0.633874	0.053598	0.090410
H78	H	1.133874	0.553598	0.590410
N79	N	1.275487	-0.249942	0.000063
N80	N	1.775487	0.250058	0.500063
H81	H	1.269553	-0.178601	0.000073
H82	H	1.769553	0.321399	0.500073
H83	H	1.311291	-0.269082	0.090374
H84	H	1.811291	0.230918	0.590374
H85	H	1.026242	-0.285837	0.000040
H86	H	1.526242	0.214163	0.500040
N87	N	1.015267	0.349467	0.340694
N88	N	1.515267	0.849467	0.840694
H89	H	0.977611	0.387081	0.412531
H90	H	1.477611	0.887081	0.912531
H91	H	1.055370	0.394797	0.277071
H92	H	1.555370	0.894797	0.777071
H93	H	1.337937	0.126577	0.375828
H94	H	1.837937	0.626577	0.875828
H95	H	1.030991	0.333769	0.639154
H96	H	1.530991	0.833769	1.139154
H97	H	1.245049	0.023512	0.381770
H98	H	1.745049	0.523512	0.881770
N99	N	1.229261	0.003941	0.639728
N100	N	1.729261	0.503941	1.139728
H101	H	1.211073	-0.041531	0.557392
H102	H	1.711073	0.458469	1.057392
H103	H	1.280223	-0.023933	0.702010
H104	H	1.780223	0.476067	1.202010
