data_functionalizedCrystal
_audit_creation_method	'MofGen! by Chris Wilmer'
_symmetry_space_group_name_H-M	'P1'
_symmetry_Int_Tables_number	1
_symmetry_cell_setting	triclinic
loop_
_symmetry_equiv_pos_as_xyz
  x,y,z
_cell_length_a	12.837943
_cell_length_b	16.776229
_cell_length_c	17.699083
_cell_angle_alpha	89.992455
_cell_angle_beta	89.055977
_cell_angle_gamma	89.994226
loop_
_atom_site_label
_atom_site_type_symbol
_atom_site_fract_x
_atom_site_fract_y
_atom_site_fract_z
O1	O	1.374962	-0.066277	0.196724
O2	O	1.073181	-0.066282	0.187006
O3	O	1.232598	-0.066273	0.082302
O4	O	1.215545	-0.066287	0.301428
O5	O	1.232576	0.066304	0.082293
O6	O	1.073160	0.066295	0.186997
O7	O	1.374941	0.066299	0.196715
Zn8	Zn	1.224047	0.087346	0.191855
Zn9	Zn	1.224075	-0.087329	0.191866
O10	O	1.215524	0.066290	0.301419
C11	C	1.034558	0.000006	0.183719
C12	C	0.919506	0.000004	0.173928
N13	N	1.224036	0.206557	0.191847
N14	N	1.224094	-0.206540	0.191869
C15	C	0.678251	0.000008	0.291632
C16	C	0.570148	0.000007	0.282436
C17	C	0.595196	0.000008	0.146341
C18	C	0.703298	0.000008	0.155537
C19	C	0.744822	0.000007	0.228185
C20	C	0.852926	0.000002	0.237380
C21	C	0.877972	0.000009	0.101285
C22	C	0.769869	0.000008	0.092090
C23	C	1.413564	0.000010	0.200002
C24	C	1.528616	0.000006	0.209793
C25	C	1.231976	0.000016	0.054056
C26	C	1.230143	0.000016	-0.030097
C27	C	1.294647	0.248279	0.145507
C28	C	1.294652	0.331731	0.145507
C29	C	1.224051	0.373460	0.191851
C30	C	1.153433	0.331733	0.238193
C31	C	1.153423	0.248282	0.238189
C32	C	1.153470	0.668280	0.238211
C33	C	1.153487	0.751737	0.238213
C34	C	1.294700	0.751729	0.145529
C35	C	1.294690	0.668278	0.145524
C36	C	1.224068	0.626558	0.191863
C37	C	1.224061	0.536070	0.191862
C38	C	1.224062	0.463947	0.191857
C39	C	1.323717	0.000019	-0.071843
C40	C	1.321989	0.000012	-0.150914
C41	C	1.226685	0.000008	-0.188236
C42	C	1.133103	0.000003	-0.146484
C43	C	1.134833	0.000004	-0.067415
C44	C	1.126126	-0.000004	-0.465359
C45	C	1.124404	-0.000003	-0.544434
C46	C	1.313282	0.000004	-0.548858
C47	C	1.315011	0.000005	-0.469789
C48	C	1.221430	-0.000004	-0.428044
C49	C	1.223306	0.000002	-0.342307
C50	C	1.224808	0.000007	-0.273972
C51	C	1.216146	-0.000001	0.329665
C52	C	1.217979	-0.000006	0.413818
H53	H	0.712059	0.000006	0.350785
O54	O	1.422914	0.000027	-0.195944
H55	H	1.489474	0.000045	-0.156707
O56	O	1.077292	0.376742	0.288185
H57	H	1.028186	0.333708	0.320405
H58	H	0.561368	0.000074	0.087194
H59	H	1.055505	-0.000005	-0.176878
O60	O	1.033908	0.000010	-0.022382
H61	H	0.967346	0.000016	-0.061617
H62	H	0.932186	0.000003	0.049622
O63	O	1.077266	0.203269	0.288164
H64	H	1.090317	0.219258	0.348119
O65	O	0.498342	0.000004	0.350867
H66	H	0.545382	-0.000002	0.402926
H67	H	1.352143	0.214308	0.107771
O68	O	0.725082	0.000009	0.013736
H69	H	0.638727	0.000005	0.017999
O70	O	1.370829	0.376733	0.095541
H71	H	1.419936	0.333696	0.063327
H72	H	1.095992	0.785712	0.275954
H73	H	1.352183	0.634304	0.107789
O74	O	1.025189	-0.000003	-0.420348
H75	H	1.021451	-0.054043	-0.384218
H76	H	1.095969	0.634319	0.275943
O77	O	0.897721	0.000012	0.315731
H78	H	0.833263	0.000023	0.358304
O79	O	1.370866	0.796725	0.095538
H80	H	1.359008	0.861764	0.103317
O81	O	1.426510	0.000015	-0.031589
H82	H	1.491286	0.000005	-0.073906
O83	O	1.414222	0.000007	-0.593882
H84	H	1.397015	-0.000003	-0.655134
H85	H	1.392617	0.000012	-0.439406
H86	H	1.046791	-0.000004	-0.574819
