data_functionalizedCrystal
_audit_creation_method	'MofGen! by Chris Wilmer'
_symmetry_space_group_name_H-M	'P1'
_symmetry_Int_Tables_number	1
_symmetry_cell_setting	triclinic
loop_
_symmetry_equiv_pos_as_xyz
  x,y,z
_cell_length_a	18.426585
_cell_length_b	14.560438
_cell_length_c	18.426585
_cell_angle_alpha	119.999532
_cell_angle_beta	89.998565
_cell_angle_gamma	60.001046
loop_
_atom_site_label
_atom_site_type_symbol
_atom_site_fract_x
_atom_site_fract_y
_atom_site_fract_z
Zr1	Zr	0.699107	1.005317	0.095242
O2	O	0.583226	1.196918	0.211118
O3	O	0.734631	0.813717	0.059722
O4	O	0.734624	1.005325	0.211124
O5	O	0.583239	1.005303	-0.059716
O6	O	0.854050	1.005332	0.211127
O7	O	0.583233	1.005309	0.059715
O8	O	0.854063	0.662579	-0.059704
O9	O	0.583226	1.348056	0.211115
O10	O	0.838908	0.892530	0.044573
O11	O	0.749786	0.892520	-0.044559
O12	O	0.749778	1.118115	0.133697
O13	O	0.660656	1.118105	0.044565
Zr14	Zr	0.889588	1.005317	-0.095232
Zr15	Zr	0.889578	1.005328	0.095247
Zr16	Zr	0.699117	1.005307	-0.095236
Zr17	Zr	0.699108	1.246365	0.095239
Zr18	Zr	0.889587	0.764270	-0.095228
O19	O	0.854064	1.196918	-0.059712
O20	O	0.854050	1.196933	0.211124
O21	O	0.583239	1.196904	-0.059718
O22	O	1.005469	0.813717	-0.211107
O23	O	1.005456	0.813731	0.059729
O24	O	0.734645	0.813702	-0.211114
O25	O	1.005456	1.005332	0.059726
O26	O	0.854071	1.005309	-0.211114
O27	O	0.734645	1.005303	-0.211117
O28	O	1.005462	1.005325	-0.059705
O29	O	0.734624	1.348064	0.211119
O30	O	0.854071	0.662571	-0.211109
O31	O	1.005469	0.662579	-0.211105
O32	O	1.005462	0.662587	-0.059700
O33	O	0.583233	1.348048	0.059710
O34	O	0.734632	1.348056	0.059714
O35	O	0.838917	0.892520	-0.133687
O36	O	0.928039	0.892530	-0.044555
O37	O	0.838909	1.118115	0.044570
O38	O	0.749787	1.118105	-0.044563
C39	C	0.794347	0.703804	0.000010
C40	C	0.794347	0.601473	0.000011
C41	C	0.840866	0.553401	0.046538
C42	C	0.840869	0.457242	0.046529
C43	C	0.747828	0.457237	-0.046533
C44	C	0.747830	0.553388	-0.046529
C45	C	0.556098	1.005305	-0.000001
C46	C	0.475238	1.005300	-0.000003
C47	C	0.179123	1.005339	0.000013
C48	C	0.261509	1.005334	0.000011
C49	C	0.327178	1.005320	0.000006
C50	C	0.409570	1.005314	0.000002
C51	C	1.032597	1.005330	0.000011
C52	C	1.113457	1.005334	0.000013
C53	C	0.794335	1.005330	0.238265
C54	C	0.794331	1.005334	0.319128
C55	C	0.794348	1.306831	0.000001
C56	C	0.794348	1.409162	-0.000001
C57	C	0.794365	1.005295	0.615212
C58	C	0.794358	1.005301	0.532830
C59	C	0.794348	1.005315	0.467173
C60	C	0.794341	1.005321	0.384786
C61	C	0.794360	1.005305	0.761746
C62	C	0.794365	1.005300	0.680882
C63	C	1.032597	0.703816	0.000016
C64	C	1.113456	0.601490	0.000019
C65	C	0.794359	0.703791	-0.238250
C66	C	0.794363	0.601455	-0.319112
C67	C	1.032609	0.703804	-0.238244
C68	C	1.113472	0.601473	-0.319103
C69	C	0.556086	1.306831	0.238254
C70	C	0.475223	1.409162	0.319114
C71	C	0.556098	1.306818	-0.000005
C72	C	0.475239	1.409145	-0.000009
C73	C	0.794336	1.306844	0.238260
C74	C	0.794332	1.409179	0.319122
C75	C	1.104903	0.553436	0.046553
C76	C	1.180872	0.457302	0.046574
C77	C	1.265393	0.409218	0.000056
C78	C	1.273944	0.457281	-0.046479
C79	C	1.197976	0.553419	-0.046494
C80	C	0.840890	0.553398	-0.403617
C81	C	0.840890	0.457256	-0.479602
C82	C	0.794368	0.409168	-0.471080
C83	C	0.747835	0.457235	-0.386566
C84	C	0.747830	0.553381	-0.310583
C85	C	1.197975	0.553422	-0.310550
C86	C	1.273963	0.457284	-0.386519
C87	C	1.265445	0.409193	-0.471040
C88	C	1.180933	0.457253	-0.479592
C89	C	1.104948	0.553395	-0.403624
C90	C	0.390720	1.457225	0.310560
C91	C	0.314732	1.553392	0.386529
C92	C	0.323250	1.601489	0.471051
C93	C	0.407762	1.553422	0.479603
C94	C	0.483747	1.457263	0.403635
C95	C	0.483792	1.457209	-0.046534
C96	C	0.407823	1.553369	-0.046534
C97	C	0.323302	1.601457	-0.000014
C98	C	0.314751	1.553389	0.046517
C99	C	0.390719	1.457237	0.046522
C100	C	0.840863	1.457237	0.310572
C101	C	0.840877	1.553380	0.386543
C102	C	0.794354	1.601468	0.471063
C103	C	0.747821	1.553401	0.479611
C104	C	0.747813	1.457254	0.403641
H105	H	1.036089	0.592585	0.084444
H106	H	0.878786	0.418131	-0.548410
N107	N	0.794349	1.699701	0.548662
N108	N	0.722703	1.807015	0.603342
H109	H	0.722699	1.876394	0.658145
N110	N	0.700355	1.602442	0.565943
N111	N	0.658849	1.559479	0.573577
H112	H	0.625348	1.594087	0.634551
H113	H	0.794379	0.330879	-0.532958
N114	N	1.172142	0.408203	0.094104
N115	N	1.204134	0.418955	0.155379
H116	H	1.197968	0.384278	0.188947
N117	N	1.360288	0.408188	-0.377787
N118	N	1.413071	0.418936	-0.409783
H119	H	1.474038	0.384261	-0.403616
N120	N	0.228421	1.602494	0.094037
N121	N	0.205730	1.656150	0.176069
H122	H	0.144758	1.690824	0.209625
H123	H	0.878774	0.592541	-0.410572
H124	H	0.552552	1.418131	0.410610
H125	H	0.878748	1.418098	0.241758
H126	H	0.709918	1.418136	0.410616
N127	N	0.888378	0.602512	0.094086
N128	N	0.929905	0.559580	0.135627
H129	H	0.963462	0.594262	0.169211
N130	N	0.888397	0.408146	0.094054
N131	N	0.929928	0.451088	0.135597
H132	H	0.963499	0.416414	0.169162
H133	H	1.204952	0.592532	-0.084392
N134	N	0.700321	0.408093	-0.377885
N135	N	0.700345	0.322242	-0.445741
H136	H	0.666793	0.287526	-0.439614
N137	N	0.245618	1.699696	0.548636
N138	N	0.190938	1.678206	0.561754
H139	H	0.136106	1.747562	0.616546
N140	N	1.018625	0.602447	-0.412353
N141	N	0.950780	0.688267	-0.344527
H142	H	0.889814	0.722900	-0.350696
H143	H	0.552606	1.418063	-0.084423
N144	N	1.360289	0.408141	-0.093990
N145	N	1.428103	0.322296	-0.093968
H146	H	1.489087	0.287581	-0.127528
H147	H	0.383767	1.418070	0.241745
H148	H	0.709945	0.592497	-0.241778
N149	N	0.700317	0.408107	-0.094063
N150	N	0.700318	0.322262	-0.094059
H151	H	0.666761	0.287566	-0.127626
N152	N	1.343006	0.310914	-0.000021
N153	N	1.356099	0.203624	-0.030182
H154	H	1.410920	0.134161	-0.030271
H155	H	0.245927	1.592511	0.379549
N156	N	1.206705	0.602513	-0.224226
N157	N	1.282169	0.559586	-0.216618
H158	H	1.288342	0.594253	-0.155653
H159	H	0.414687	1.592595	0.548429
N160	N	0.888420	1.602454	0.377797
N161	N	0.970449	1.527313	0.338143
H162	H	1.004028	1.561967	0.331964
N163	N	0.700312	0.602475	-0.094069
N164	N	0.658780	0.559539	-0.135615
H165	H	0.625225	0.594201	-0.169193
H166	H	1.327324	0.330907	-0.532891
N167	N	1.172256	0.408102	-0.565938
N168	N	1.240114	0.322252	-0.633752
H169	H	1.233989	0.287528	-0.694737
N170	N	0.416586	1.602443	-0.094070
N171	N	0.492059	1.559479	-0.135609
H172	H	0.498251	1.594135	-0.169181
H173	H	0.383743	1.418107	0.084406
H174	H	0.261451	1.679750	-0.000025
