data_functionalizedCrystal
_audit_creation_method	'MofGen! by Chris Wilmer'
_symmetry_space_group_name_H-M	'P1'
_symmetry_Int_Tables_number	1
_symmetry_cell_setting	triclinic
loop_
_symmetry_equiv_pos_as_xyz
  x,y,z
_cell_length_a	17.077404
_cell_length_b	15.299816
_cell_length_c	17.077396
_cell_angle_alpha	80.343631
_cell_angle_beta	90.018362
_cell_angle_gamma	80.348648
loop_
_atom_site_label
_atom_site_type_symbol
_atom_site_fract_x
_atom_site_fract_y
_atom_site_fract_z
Zn1	Zn	1.254125	-0.359112	0.497959
Zn2	Zn	1.276742	-0.509943	0.389432
Zn3	Zn	1.122861	-0.359138	0.366713
Zn4	Zn	1.145526	-0.509884	0.520649
O5	O	1.199813	-0.434519	0.443688
O6	O	1.366974	-0.379134	0.483574
O7	O	1.256309	-0.489974	0.276576
O8	O	1.121322	-0.232923	0.365119
O9	O	1.383591	-0.489949	0.403840
O10	O	1.217762	-0.232904	0.461545
O11	O	1.143253	-0.379178	0.259885
O12	O	1.016018	-0.379121	0.387121
O13	O	1.159952	-0.489848	0.627481
O14	O	1.032670	-0.489873	0.500217
O15	O	1.239739	-0.379077	0.610810
O16	O	1.278287	-0.636147	0.425842
O17	O	1.181883	-0.636103	0.522247
C18	C	0.995862	-0.434494	0.443667
C19	C	0.908613	-0.434505	0.443679
C20	C	0.858987	-0.376906	0.485289
C21	C	0.777008	-0.376912	0.485293
C22	C	0.744657	-0.434521	0.443692
C23	C	0.794289	-0.492123	0.402078
C24	C	0.876266	-0.492112	0.402069
C25	C	0.623422	-0.492143	0.402100
C26	C	0.541439	-0.492156	0.402110
C27	C	0.524163	-0.376943	0.485325
C28	C	0.606141	-0.376932	0.485316
C29	C	0.655768	-0.434535	0.443702
C30	C	1.235020	-0.668850	0.478989
C31	C	1.250153	-0.769097	0.494117
C32	C	1.092168	-1.052017	0.335832
C33	C	1.077945	-0.957829	0.321620
C34	C	1.120996	-0.910642	0.364743
C35	C	1.178272	-0.957651	0.422080
C36	C	1.192491	-1.051848	0.436298
C37	C	1.221320	-0.910473	0.465209
C38	C	1.278595	-0.957482	0.522546
C39	C	1.292813	-1.051669	0.536761
C40	C	1.249762	-1.098857	0.493638
C41	C	1.207100	-0.816276	0.450991
C42	C	1.307424	-0.816107	0.551457
C43	C	1.321646	-0.910294	0.565669
C44	C	1.404562	-0.434546	0.443710
C45	C	1.491813	-0.434557	0.443720
C46	C	1.199851	-0.434453	0.648422
C47	C	1.199867	-0.434425	0.735668
C48	C	1.164491	-0.199274	0.408266
C49	C	1.149438	-0.099026	0.393172
C50	C	1.199811	-0.434520	0.239740
C51	C	1.199909	-0.434295	0.152457
C52	C	1.241413	-0.376741	0.767978
C53	C	1.241418	-0.376711	0.849954
C54	C	1.199881	-0.434370	0.899619
C55	C	1.158329	-0.492056	0.867304
C56	C	1.158320	-0.492081	0.785328
C57	C	1.158353	-0.492002	1.038166
C58	C	1.158363	-0.491978	1.120147
C59	C	1.241451	-0.376632	1.102792
C60	C	1.241442	-0.376657	1.020816
C61	C	1.199891	-0.434344	0.988506
H62	H	0.916672	-0.539014	0.368185
C63	C	1.014928	-0.906126	0.258567
N64	N	0.967454	-0.867183	0.211078
C65	C	0.469572	-0.313582	0.531103
N66	N	0.428452	-0.265865	0.565587
H67	H	1.275270	-0.329711	0.980381
C68	C	0.894565	-0.313528	0.531053
N69	N	0.921359	-0.265787	0.565521
H70	H	1.160466	-0.778009	0.404307
C71	C	1.112618	-0.555538	0.749788
N72	N	1.078191	-0.603335	0.723021
H73	H	1.342478	-0.777687	0.586573
H74	H	1.124506	-0.538999	0.907747
C75	C	1.287107	-0.313310	0.713353
N76	N	1.321522	-0.265529	0.672211
C77	C	1.112648	-0.555464	1.002628
N78	N	1.078229	-0.603268	0.975861
C79	C	0.505855	-0.555528	0.356345
N80	N	0.479053	-0.603261	0.321874
H81	H	0.736605	-0.330011	0.519178
H82	H	0.632479	-0.330026	0.519197
H83	H	1.368280	-0.948583	0.612354
C84	C	1.287124	-0.313256	0.885491
N85	N	1.321552	-0.265459	0.912257
H86	H	0.663826	-0.539047	0.368211
C87	C	1.044874	-1.103929	0.288349
N88	N	1.009269	-1.143031	0.252561
C89	C	1.287156	-0.313175	1.138334
N90	N	1.321583	-0.265383	1.165108
C91	C	0.758700	-0.555493	0.356315
N92	N	0.731896	-0.603227	0.321847
C93	C	1.105353	-0.807032	0.349104
N94	N	1.093570	-0.728990	0.337319
C95	C	1.265404	-1.202470	0.509268
N96	N	1.277183	-1.280512	0.521040
C97	C	1.355818	-1.103377	0.599833
N98	N	1.403278	-1.142322	0.647337
H99	H	1.124538	-0.538927	1.160582
