data_functionalizedCrystal
_audit_creation_method	'MofGen! by Chris Wilmer'
_symmetry_space_group_name_H-M	'P1'
_symmetry_Int_Tables_number	1
_symmetry_cell_setting	triclinic
loop_
_symmetry_equiv_pos_as_xyz
  x,y,z
_cell_length_a	16.992694
_cell_length_b	9.730223
_cell_length_c	10.654550
_cell_angle_alpha	89.993925
_cell_angle_beta	87.576577
_cell_angle_gamma	90.001498
loop_
_atom_site_label
_atom_site_type_symbol
_atom_site_fract_x
_atom_site_fract_y
_atom_site_fract_z
O1	O	1.041840	-0.114117	0.266434
O2	O	1.541840	0.385883	0.766434
O3	O	0.813539	-0.114158	0.263511
O4	O	1.313539	0.385842	0.763511
O5	O	0.932938	-0.114128	0.082687
O6	O	1.432938	0.385872	0.582687
O7	O	0.922440	-0.114147	0.447258
O8	O	1.422440	0.385853	0.947258
O9	O	0.932929	0.114452	0.082675
O10	O	1.432929	0.614452	0.582675
O11	O	0.813529	0.114422	0.263499
O12	O	1.313529	0.614422	0.763499
O13	O	1.041830	0.114463	0.266422
O14	O	1.541830	0.614463	0.766422
Zn15	Zn	0.927678	0.150734	0.264958
Zn16	Zn	1.427678	0.650734	0.764958
Zn17	Zn	0.927691	-0.150429	0.264975
Zn18	Zn	1.427691	0.349571	0.764975
O19	O	0.922431	0.114433	0.447246
O20	O	1.422431	0.614433	0.947246
C21	C	0.784301	0.000127	0.259745
C22	C	1.284301	0.500127	0.759745
C23	C	0.697196	0.000112	0.248526
C24	C	1.197196	0.500112	0.748526
N25	N	0.927675	0.356271	0.264947
N26	N	1.427675	0.856271	0.764947
N27	N	0.927700	-0.355966	0.264977
N28	N	1.427700	0.144034	0.764977
C29	C	0.647544	0.000107	0.356776
C30	C	1.147544	0.500107	0.856776
C31	C	0.565700	0.000127	0.346227
C32	C	1.065700	0.500127	0.846227
C33	C	0.533509	0.000141	0.227426
C34	C	1.033509	0.500141	0.727426
C35	C	0.583167	0.000150	0.119167
C36	C	1.083167	0.500150	0.619167
C37	C	0.665010	0.000140	0.129718
C38	C	1.165010	0.500140	0.629718
C39	C	0.289674	0.000180	0.183699
C40	C	0.789674	0.500180	0.683699
C41	C	0.207825	0.000186	0.173157
C42	C	0.707825	0.500186	0.673157
C43	C	0.190363	0.000165	0.400218
C44	C	0.690363	0.500165	0.900218
C45	C	0.272208	0.000147	0.410758
C46	C	0.772208	0.500147	0.910758
C47	C	0.321859	0.000163	0.302499
C48	C	0.821859	0.500163	0.802499
N49	N	0.449852	0.000157	0.216640
N50	N	0.949852	0.500157	0.716640
N51	N	0.405515	0.000157	0.313286
N52	N	0.905515	0.500157	0.813286
C53	C	1.071068	0.000175	0.270188
C54	C	1.571068	0.500175	0.770188
C55	C	1.158173	0.000181	0.281408
C56	C	1.658173	0.500181	0.781408
C57	C	0.932163	0.000161	0.035816
C58	C	1.432163	0.500161	0.535816
C59	C	0.929856	0.000159	-0.103826
C60	C	1.429856	0.500159	0.396174
C61	C	0.879703	0.572129	0.183942
C62	C	1.379703	1.072129	0.683942
C63	C	0.879692	0.428246	0.183923
C64	C	1.379692	0.928246	0.683923
C65	C	0.975678	0.428186	0.345986
C66	C	1.475678	0.928186	0.845986
C67	C	0.975692	0.572066	0.345997
C68	C	1.475692	1.072066	0.845997
C69	C	1.000157	0.000171	-0.177237
C70	C	1.500157	0.500171	0.322763
C71	C	0.997985	0.000154	-0.308445
C72	C	1.497985	0.500154	0.191555
C73	C	0.855206	0.000118	-0.292820
C74	C	1.355206	0.500118	0.207180
C75	C	0.857379	0.000126	-0.161614
C76	C	1.357379	0.500126	0.338386
C77	C	0.923206	0.000141	0.494117
C78	C	1.423206	0.500141	0.994117
C79	C	0.925512	0.000134	0.633759
C80	C	1.425512	0.500134	1.133759
H81	H	0.673747	0.000095	0.453517
H82	H	1.173747	0.500095	0.953517
Cl83	Cl	0.768993	0.000098	-0.069320
Cl84	Cl	1.268993	0.500098	0.430680
Cl85	Cl	1.036040	0.662468	0.447873
Cl86	Cl	1.536040	1.162468	0.947873
Cl87	Cl	0.819374	0.662598	0.082083
Cl88	Cl	1.319374	1.162598	0.582083
H89	H	0.525276	0.000121	0.434377
H90	H	1.025276	0.500121	0.934377
Cl91	Cl	0.312669	0.000120	0.560114
Cl92	Cl	0.812669	0.500120	1.060114
H93	H	1.059173	0.000195	-0.130190
H94	H	1.559173	0.500195	0.369810
H95	H	0.705436	0.000143	0.041568
H96	H	1.205436	0.500143	0.541568
Cl97	Cl	0.764097	0.000077	-0.365478
Cl98	Cl	1.264097	0.500077	0.134522
Cl99	Cl	0.819346	0.337857	0.082052
Cl100	Cl	1.319346	0.837857	0.582052
H101	H	0.181619	0.000196	0.076410
H102	H	0.681619	0.500196	0.576410
H103	H	0.330090	0.000194	0.095546
H104	H	0.830090	0.500194	0.595546
H105	H	0.149929	0.000155	0.488356
H106	H	0.649929	0.500155	0.988356
Cl107	Cl	1.086368	0.000166	-0.400728
Cl108	Cl	1.586368	0.500166	0.099272
Cl109	Cl	0.542699	0.000176	-0.030184
Cl110	Cl	1.042699	0.500176	0.469816
H111	H	1.014750	0.369572	0.411951
H112	H	1.514750	0.869572	0.911951
