data_functionalizedCrystal
_audit_creation_method	'MofGen! by Chris Wilmer'
_symmetry_space_group_name_H-M	'P1'
_symmetry_Int_Tables_number	1
_symmetry_cell_setting	triclinic
loop_
_symmetry_equiv_pos_as_xyz
  x,y,z
_cell_length_a	19.805407
_cell_length_b	16.120297
_cell_length_c	16.120484
_cell_angle_alpha	95.614431
_cell_angle_beta	92.922838
_cell_angle_gamma	92.879222
loop_
_atom_site_label
_atom_site_type_symbol
_atom_site_fract_x
_atom_site_fract_y
_atom_site_fract_z
Zn1	Zn	0.999909	-0.489441	-0.356805
Zn2	Zn	1.499909	0.010559	0.143195
Zn3	Zn	0.999824	-0.356751	-0.489495
Zn4	Zn	1.499824	0.143249	0.010505
Zn5	Zn	0.892766	-0.349688	-0.349735
Zn6	Zn	1.392766	0.150312	0.150265
Zn7	Zn	0.880647	-0.496475	-0.496529
Zn8	Zn	1.380647	0.003525	0.003471
O9	O	0.943287	-0.423089	-0.423141
O10	O	1.443287	0.076911	0.076859
O11	O	1.094613	-0.471851	-0.374422
O12	O	1.594613	0.028149	0.125578
O13	O	0.990658	-0.238853	-0.465053
O14	O	1.490658	0.261147	0.034947
O15	O	0.912086	-0.362327	-0.233708
O16	O	1.412086	0.137673	0.266292
O17	O	1.094550	-0.374365	-0.471908
O18	O	1.594550	0.125635	0.028092
O19	O	0.990804	-0.465003	-0.238902
O20	O	1.490804	0.034997	0.261098
O21	O	0.912003	-0.233663	-0.362372
O22	O	1.412003	0.266337	0.137628
O23	O	0.796443	-0.369148	-0.369193
O24	O	1.296443	0.130852	0.130807
O25	O	0.891432	-0.612504	-0.483897
O26	O	1.391432	-0.112504	0.016103
O27	O	0.787539	-0.476992	-0.477042
O28	O	1.287539	0.023008	0.022958
O29	O	0.979053	-0.607336	-0.381243
O30	O	1.479053	-0.107336	0.118757
O31	O	0.978907	-0.381186	-0.607393
O32	O	1.478907	0.118814	-0.107393
O33	O	0.891349	-0.483841	-0.612561
O34	O	1.391349	0.016159	-0.112561
C35	C	0.767433	-0.423067	-0.423114
C36	C	1.267433	0.076933	0.076886
C37	C	0.692200	-0.423079	-0.423123
C38	C	1.192200	0.076921	0.076877
C39	C	0.656881	-0.473926	-0.372461
C40	C	1.156881	0.026074	0.127539
C41	C	0.586192	-0.473930	-0.372465
C42	C	1.086192	0.026070	0.127535
C43	C	0.550823	-0.423090	-0.423137
C44	C	1.050823	0.076910	0.076863
C45	C	0.586147	-0.372237	-0.473802
C46	C	1.086147	0.127763	0.026198
C47	C	0.656834	-0.372229	-0.473792
C48	C	1.156834	0.127771	0.026208
C49	C	0.301071	-0.372264	-0.473841
C50	C	0.801071	0.127736	0.026159
C51	C	0.230378	-0.372277	-0.473848
C52	C	0.730378	0.127723	0.026152
C53	C	0.230429	-0.473965	-0.372514
C54	C	0.730429	0.026035	0.127486
C55	C	0.301116	-0.473957	-0.372504
C56	C	0.801116	0.026043	0.127496
C57	C	0.336434	-0.423101	-0.423165
C58	C	0.836434	0.076899	0.076835
C59	C	0.413083	-0.423097	-0.423158
C60	C	0.913083	0.076903	0.076842
C61	C	0.474175	-0.423098	-0.423149
C62	C	0.974175	0.076902	0.076851
C63	C	0.933900	-0.641095	-0.434143
C64	C	1.433900	-0.141095	0.065857
C65	C	0.929900	-0.733996	-0.438832
C66	C	1.429900	-0.233996	0.061168
C67	C	0.922573	-0.904086	-0.447373
C68	C	1.422573	-0.404086	0.052627
C69	C	0.964144	-0.942931	-0.398658
C70	C	1.464144	-0.442931	0.101342
C71	C	0.960068	-1.037575	-0.403411
C72	C	1.460068	-0.537575	0.096589
C73	C	0.926649	-0.809434	-0.442622
C74	C	1.426649	-0.309434	0.057378
C75	C	1.119827	-0.423111	-0.423169
C76	C	1.619827	0.076889	0.076831
C77	C	1.195058	-0.423121	-0.423181
C78	C	1.695058	0.076879	0.076819
C79	C	0.933821	-0.434061	-0.640305
C80	C	1.433821	0.065939	-0.140305
C81	C	0.929833	-0.438783	-0.733211
C82	C	1.429833	0.061217	-0.233211
C83	C	0.952678	-0.205928	-0.412121
C84	C	1.452678	0.294072	0.087879
C85	C	0.956820	-0.113016	-0.407197
C86	C	1.456820	0.386984	0.092803
C87	C	0.922554	-0.447421	-0.903310
C88	C	1.422554	0.052579	-0.403310
C89	C	0.964139	-0.398770	-0.942132
C90	C	1.464139	0.101230	-0.442132
C91	C	0.960090	-0.403577	-1.036781
C92	C	1.460090	0.096423	-0.536781
C93	C	0.926603	-0.442616	-0.808653
C94	C	1.426603	0.057384	-0.308653
C95	C	0.952806	-0.412092	-0.205129
C96	C	1.452806	0.087908	0.294871
C97	C	0.956863	-0.407406	-0.112226
C98	C	1.456863	0.092594	0.387774
H99	H	0.329910	-0.515359	-0.331245
H100	H	0.829910	-0.015359	0.168755
H101	H	1.002796	-0.905107	-0.353382
H102	H	1.502796	-0.405107	0.146618
O103	O	0.871355	-0.507359	-0.953433
O104	O	1.371355	-0.007359	-0.453433
H105	H	0.876163	-0.501760	-1.020984
H106	H	1.376163	-0.001760	-0.520984
O107	O	0.871379	-0.954183	-0.507347
O108	O	1.371379	-0.454183	-0.007347
H109	H	0.819587	-0.936754	-0.492181
H110	H	1.319587	-0.436754	0.007819
O111	O	0.695030	-0.528756	-0.317802
O112	O	1.195030	-0.028756	0.182198
H113	H	0.658592	-0.564105	-0.282566
H114	H	1.158592	-0.064105	0.217434
O115	O	0.694931	-0.317382	-0.528431
O116	O	1.194931	0.182618	-0.028431
H117	H	0.723690	-0.356863	-0.572891
H118	H	1.223690	0.143137	-0.072891
H119	H	0.557439	-0.515336	-0.331212
H120	H	1.057439	-0.015336	0.168788
H121	H	0.201665	-0.515371	-0.331260
H122	H	0.701665	-0.015371	0.168740
O123	O	0.192226	-0.317430	-0.528493
O124	O	0.692226	0.182570	-0.028493
H125	H	0.228660	-0.282057	-0.563712
H126	H	0.728660	0.217943	-0.063712
H127	H	1.002783	-0.353509	-0.904283
H128	H	1.502783	0.146491	-0.404283
H129	H	0.329818	-0.330855	-0.515093
H130	H	0.829818	0.169145	-0.015093
H131	H	0.557344	-0.330838	-0.515056
H132	H	1.057344	0.169162	-0.015056
