data_functionalizedCrystal
_audit_creation_method	'MofGen! by Chris Wilmer'
_symmetry_space_group_name_H-M	'P1'
_symmetry_Int_Tables_number	1
_symmetry_cell_setting	triclinic
loop_
_symmetry_equiv_pos_as_xyz
  x,y,z
_cell_length_a	19.188905
_cell_length_b	19.188930
_cell_length_c	17.766277
_cell_angle_alpha	89.988508
_cell_angle_beta	89.983513
_cell_angle_gamma	83.139668
loop_
_atom_site_label
_atom_site_type_symbol
_atom_site_fract_x
_atom_site_fract_y
_atom_site_fract_z
O1	O	0.926161	0.087085	-0.062727
O2	O	1.426161	0.587085	0.437273
O3	O	0.722847	0.098838	-0.062702
O4	O	1.222847	0.598838	0.437298
O5	O	0.830371	-0.008694	-0.062700
O6	O	1.330371	0.491306	0.437300
O7	O	0.818637	0.194618	-0.062728
O8	O	1.318637	0.694618	0.437272
O9	O	0.830352	-0.008700	0.062488
O10	O	1.330352	0.491300	0.562488
O11	O	0.722828	0.098833	0.062486
O12	O	1.222828	0.598833	0.562486
O13	O	0.926142	0.087080	0.062462
O14	O	1.426142	0.587080	0.562462
Cu15	Cu	0.824483	0.092956	0.073905
Cu16	Cu	1.324483	0.592956	0.573905
Cu17	Cu	0.824506	0.092962	-0.074145
Cu18	Cu	1.324506	0.592962	0.425855
O19	O	0.818618	0.194612	0.062460
O20	O	1.318618	0.694612	0.562460
C21	C	0.696826	0.098458	-0.000104
C22	C	1.196826	0.598458	0.499896
C23	C	0.619321	0.097324	-0.000094
C24	C	1.119321	0.597324	0.499906
C25	C	0.582939	0.096782	-0.068337
C26	C	1.082939	0.596782	0.431663
C27	C	0.510116	0.095709	-0.068346
C28	C	1.010116	0.595709	0.431654
C29	C	0.473678	0.095164	-0.000109
C30	C	0.973678	0.595164	0.499891
C31	C	0.510068	0.095709	0.068142
C32	C	1.010068	0.595709	0.568142
C33	C	0.582889	0.096790	0.068150
C34	C	1.082889	0.596790	0.568150
N35	N	0.364650	0.053733	0.050679
N36	N	0.864650	0.553733	0.550679
N37	N	0.295473	0.052705	0.050667
N38	N	0.795473	0.552705	0.550667
C39	C	0.254272	0.091911	-0.000127
C40	C	0.754272	0.591911	0.499873
N41	N	0.284861	0.132174	-0.050920
N42	N	0.784861	0.632174	0.449080
N43	N	0.354045	0.133199	-0.050911
N44	N	0.854045	0.633199	0.449089
C45	C	0.394716	0.093993	-0.000109
C46	C	0.894716	0.593993	0.499891
C47	C	0.138926	0.090207	-0.068384
C48	C	0.638926	0.590207	0.431616
C49	C	0.066101	0.089138	-0.068390
C50	C	0.566101	0.589138	0.431610
C51	C	0.066055	0.089132	0.068100
C52	C	0.566055	0.589132	0.568100
C53	C	0.138879	0.090207	0.068105
C54	C	0.638879	0.590207	0.568105
C55	C	0.175310	0.090742	-0.000139
C56	C	0.675310	0.590742	0.499861
C57	C	0.829982	-0.034708	-0.000104
C58	C	1.329982	0.465292	0.499896
C59	C	0.828841	-0.112213	-0.000097
C60	C	1.328841	0.387787	0.499903
C61	C	0.891933	-0.157142	-0.000101
C62	C	1.391933	0.342858	0.499899
C63	C	0.890861	-0.229966	-0.000113
C64	C	1.390861	0.270034	0.499887
C65	C	0.826694	-0.257857	-0.000106
C66	C	1.326694	0.242143	0.499894
C67	C	0.763594	-0.212917	-0.000106
C68	C	1.263594	0.287083	0.499894
C69	C	0.764668	-0.140095	-0.000102
C70	C	1.264668	0.359905	0.499898
N71	N	0.777640	-0.365859	0.042504
N72	N	1.277640	0.134141	0.542504
N73	N	0.776624	-0.435038	0.042501
N74	N	1.276624	0.064962	0.542501
C75	C	0.823456	-0.477265	-0.000121
C76	C	1.323456	0.022735	0.499879
N77	N	0.871352	-0.447702	-0.042731
N78	N	1.371352	0.052298	0.457269
N79	N	0.872369	-0.378517	-0.042725
N80	N	1.372369	0.121483	0.457275
C81	C	0.825523	-0.336819	-0.000111
C82	C	1.325523	0.163181	0.499889
C83	C	0.885390	-0.601159	-0.000139
C84	C	1.385390	-0.101159	0.499861
C85	C	0.884315	-0.673984	-0.000155
C86	C	1.384315	-0.173984	0.499845
C87	C	0.757047	-0.656933	-0.000141
C88	C	1.257047	-0.156933	0.499859
C89	C	0.758123	-0.584110	-0.000132
C90	C	1.258123	-0.084110	0.499868
C91	C	0.822296	-0.556228	-0.000127
C92	C	1.322296	-0.056228	0.499873
C93	C	0.952163	0.087460	-0.000137
C94	C	1.452163	0.587460	0.499863
C95	C	1.029668	0.088594	-0.000152
C96	C	1.529668	0.588594	0.499848
C97	C	0.819007	0.220626	-0.000138
C98	C	1.319007	0.720626	0.499862
C99	C	0.820148	0.298131	-0.000150
C100	C	1.320148	0.798131	0.499850
N101	N	0.824473	0.092951	0.178035
N102	N	1.324473	0.592951	0.678035
N103	N	0.824522	0.092962	-0.178275
N104	N	1.324522	0.592962	0.321725
C105	C	0.872100	0.045359	0.217423
C106	C	1.372100	0.545359	0.717423
C107	C	0.872104	0.045355	0.296225
C108	C	1.372104	0.545355	0.796225
C109	C	0.824487	0.092956	0.335636
C110	C	1.324487	0.592956	0.835636
C111	C	0.776852	0.140552	0.296239
C112	C	1.276852	0.640552	0.796239
C113	C	0.776844	0.140549	0.217438
C114	C	1.276844	0.640549	0.717438
C115	C	0.815145	0.156573	0.460466
C116	C	1.315145	0.656573	0.960466
C117	C	0.815157	0.156577	0.539265
C118	C	1.315157	0.656577	1.039265
C119	C	0.824506	0.092965	0.578682
C120	C	1.324506	0.592965	1.078682
C121	C	0.833858	0.029346	0.539291
C122	C	1.333858	0.529346	1.039291
C123	C	0.833850	0.029343	0.460491
C124	C	1.333850	0.529343	0.960491
C125	C	0.824490	0.092964	0.421081
C126	C	1.324490	0.592964	0.921081
C127	C	0.872140	0.045365	0.703516
C128	C	1.372140	0.545365	1.203516
C129	C	0.872139	0.045361	0.782319
C130	C	1.372139	0.545361	1.282319
C131	C	0.776890	0.140564	0.782331
C132	C	1.276890	0.640564	1.282331
C133	C	0.776888	0.140562	0.703530
C134	C	1.276888	0.640562	1.203530
C135	C	0.824516	0.092963	0.664127
C136	C	1.324516	0.592963	1.164127
H137	H	0.168589	0.090650	-0.123952
H138	H	0.668589	0.590650	0.376048
H139	H	0.738080	0.179308	0.328331
H140	H	1.238080	0.679308	0.828331
H141	H	0.910920	0.006605	0.671432
H142	H	1.410920	0.506605	1.171432
H143	H	0.036479	0.088702	-0.123963
H144	H	0.536479	0.588702	0.376037
H145	H	0.937644	-0.578456	-0.000139
H146	H	1.437644	-0.078456	0.499861
H147	H	0.612511	0.097231	0.123722
H148	H	1.112511	0.597231	0.623722
C149	C	0.687307	-0.687070	-0.000172
C150	C	1.187307	-0.187070	0.499828
C151	C	0.632281	-0.632131	-0.000181
C152	C	1.132281	-0.132131	0.499819
C153	C	0.568025	-0.659868	-0.000223
C154	C	1.068025	-0.159868	0.499777
H155	H	0.684135	-0.715124	0.043470
H156	H	1.184135	-0.215124	0.543470
H157	H	0.684212	-0.715092	-0.043848
H158	H	1.184212	-0.215092	0.456152
H159	H	0.635375	-0.604120	0.043490
H160	H	1.135375	-0.104120	0.543490
H161	H	0.635429	-0.604072	-0.043820
H162	H	1.135429	-0.104072	0.456180
H163	H	0.564930	-0.687891	-0.043899
H164	H	1.064930	-0.187891	0.456101
H165	H	0.564861	-0.687922	0.043419
H166	H	1.064861	-0.187922	0.543419
H167	H	0.530683	-0.622597	-0.000237
H168	H	1.030683	-0.122597	0.499763
H169	H	0.713289	-0.103513	-0.000098
H170	H	1.213289	0.396487	0.499902
C171	C	0.959416	-0.278677	-0.000231
C172	C	1.459416	0.221323	0.499769
C173	C	0.998094	-0.266086	-0.064626
C174	C	1.498094	0.233914	0.435374
C175	C	1.061254	-0.310937	-0.064754
C176	C	1.561254	0.189063	0.435246
H177	H	0.949683	-0.326064	-0.000271
H178	H	1.449683	0.173936	0.499729
H179	H	0.985765	-0.270245	0.043404
H180	H	1.485765	0.229755	0.543404
H181	H	0.971751	-0.274524	-0.108249
H182	H	1.471751	0.225476	0.391751
H183	H	1.007847	-0.218708	-0.064599
H184	H	1.507847	0.281292	0.435401
H185	H	1.087603	-0.302505	-0.021119
H186	H	1.587603	0.197495	0.478881
H187	H	1.051514	-0.358321	-0.064792
H188	H	1.551514	0.141679	0.435208
H189	H	1.087508	-0.302396	-0.108441
H190	H	1.587508	0.197604	0.391559
H191	H	0.480488	0.095269	-0.123918
H192	H	0.980488	0.595269	0.376082
H193	H	0.480396	0.095267	0.123701
H194	H	0.980396	0.595267	0.623701
H195	H	0.935694	-0.710565	-0.000163
H196	H	1.435694	-0.210565	0.499837
C197	C	0.178506	0.090820	0.142120
C198	C	0.678506	0.590820	0.642120
C199	C	0.250076	0.091898	0.127522
C200	C	0.750076	0.591898	0.627522
C201	C	0.286600	0.092473	0.195689
C202	C	0.786600	0.592473	0.695689
H203	H	0.172100	0.049946	0.170217
H204	H	0.672100	0.549946	0.670217
H205	H	0.161146	0.131364	0.170162
H206	H	0.661146	0.631364	0.670162
H207	H	0.267431	0.051358	0.099491
H208	H	0.767431	0.551358	0.599491
H209	H	0.256503	0.132769	0.099436
H210	H	0.756503	0.632769	0.599436
H211	H	0.269240	0.133017	0.223732
H212	H	0.769240	0.633017	0.723732
H213	H	0.280189	0.051598	0.223781
H214	H	0.780189	0.551598	0.723781
H215	H	0.335163	0.093211	0.185794
H216	H	0.835163	0.593211	0.685794
H217	H	0.910921	0.006602	0.814389
H218	H	1.410921	0.506602	1.314389
C219	C	0.689643	-0.535292	-0.000274
C220	C	1.189643	-0.035292	0.499726
C221	C	0.686542	-0.492985	-0.064687
C222	C	1.186542	0.007015	0.435313
C223	C	0.623461	-0.448012	-0.064852
C224	C	1.123461	0.051988	0.435148
H225	H	0.687341	-0.506473	0.043333
H226	H	1.187341	-0.006473	0.543333
H227	H	0.651253	-0.562307	-0.000312
H228	H	1.151253	-0.062307	0.499688
H229	H	0.724921	-0.465972	-0.064642
H230	H	1.224921	0.034028	0.435358
H231	H	0.688832	-0.521785	-0.108305
H232	H	1.188832	-0.021785	0.391695
H233	H	0.585072	-0.475027	-0.064890
H234	H	1.085072	0.024973	0.435110
H235	H	0.621165	-0.419198	-0.021243
H236	H	1.121165	0.080802	0.478757
H237	H	0.621346	-0.419306	-0.108559
H238	H	1.121346	0.080694	0.391441
H239	H	0.036388	0.088692	0.123660
H240	H	0.536388	0.588692	0.623660
C241	C	0.923722	-0.006546	0.174819
C242	C	1.423722	0.493454	0.674819
C243	C	0.912480	-0.075055	0.194161
C244	C	1.412480	0.424945	0.694161
C245	C	0.960013	-0.122938	0.154981
C246	C	1.460013	0.377062	0.654981
H247	H	0.970326	0.000790	0.187720
H248	H	1.470326	0.500790	0.687720
H249	H	0.916977	0.000102	0.122212
H250	H	1.416977	0.500102	0.622212
H251	H	0.919231	-0.081700	0.246756
H252	H	1.419231	0.418300	0.746756
H253	H	0.865886	-0.082413	0.181258
H254	H	1.365886	0.417587	0.681258
H255	H	0.953267	-0.116290	0.102375
H256	H	1.453267	0.383710	0.602375
H257	H	1.006613	-0.115596	0.167885
H258	H	1.506613	0.384404	0.667885
H259	H	0.952387	-0.169426	0.168094
H260	H	1.452387	0.330574	0.668094
C261	C	0.805113	0.225592	0.417573
C262	C	1.305113	0.725592	0.917573
C263	C	0.863967	0.230955	0.372294
C264	C	1.363967	0.730955	0.872294
C265	C	0.854747	0.294517	0.332763
C266	C	1.354747	0.794517	0.832763
H267	H	0.799578	0.263543	0.452226
H268	H	1.299578	0.763543	0.952226
H269	H	0.764473	0.227115	0.386805
H270	H	1.264473	0.727115	0.886805
H271	H	0.904596	0.229439	0.403059
H272	H	1.404596	0.729439	0.903059
H273	H	0.869513	0.193020	0.337627
H274	H	1.369513	0.693020	0.837627
H275	H	0.814107	0.296040	0.301995
H276	H	1.314107	0.796040	0.801995
H277	H	0.849211	0.332462	0.367421
H278	H	1.349211	0.832462	0.867421
H279	H	0.894674	0.298161	0.302031
H280	H	1.394674	0.798161	0.802031
H281	H	0.711349	-0.235631	-0.000102
H282	H	1.211349	0.264369	0.499898
H283	H	0.910889	0.006599	0.328300
H284	H	1.410889	0.506599	0.828300
C285	C	0.961555	-0.126777	-0.000224
C286	C	1.461555	0.373223	0.499776
C287	C	0.965894	-0.085442	-0.064621
C288	C	1.465894	0.414558	0.435379
C289	C	1.030017	-0.057450	-0.064758
C290	C	1.530017	0.442550	0.435242
H291	H	0.999036	-0.163899	-0.000268
H292	H	1.499036	0.336101	0.499732
H293	H	0.964622	-0.098692	0.043409
H294	H	1.464622	0.401308	0.543409
H295	H	0.962835	-0.113526	-0.108243
H296	H	1.462835	0.386474	0.391757
H297	H	0.928429	-0.048309	-0.064591
H298	H	1.428429	0.451691	0.435409
H299	H	1.033084	-0.029366	-0.021124
H300	H	1.533084	0.470634	0.478876
H301	H	1.067492	-0.094577	-0.064800
H302	H	1.567492	0.405423	0.435200
H303	H	1.032967	-0.029397	-0.108446
H304	H	1.532967	0.470603	0.391554
H305	H	0.841463	-0.022457	0.428422
H306	H	1.341463	0.477543	0.928422
H307	H	0.841470	-0.022453	0.571383
H308	H	1.341470	0.477547	1.071383
H309	H	0.612597	0.097217	-0.123906
H310	H	1.112597	0.597217	0.376094
H311	H	0.738118	0.179319	0.814419
H312	H	1.238118	0.679319	1.314419
C313	C	0.725152	0.192319	0.660897
C314	C	1.225152	0.692319	1.160897
C315	C	0.683463	0.234019	0.712274
C316	C	1.183463	0.734019	1.212274
C317	C	0.635799	0.281712	0.673029
C318	C	1.135799	0.781712	1.173029
H319	H	0.696097	0.167358	0.630172
H320	H	1.196097	0.667358	1.130172
H321	H	0.750157	0.221357	0.630155
H322	H	1.250157	0.721357	1.130155
H323	H	0.658459	0.204985	0.743003
H324	H	1.158459	0.704985	1.243003
H325	H	0.712498	0.258995	0.743000
H326	H	1.212498	0.758995	1.243000
H327	H	0.660804	0.310750	0.642287
H328	H	1.160804	0.810750	1.142287
H329	H	0.606749	0.256746	0.642305
H330	H	1.106749	0.756746	1.142305
H331	H	0.607512	0.310015	0.707882
H332	H	1.107512	0.810015	1.207882
H333	H	0.807547	0.208379	0.571331
H334	H	1.307547	0.708379	1.071331
H335	H	0.738060	0.179305	0.185368
H336	H	1.238060	0.679305	0.685368
