data_functionalizedCrystal
_audit_creation_method	'MofGen! by Chris Wilmer'
_symmetry_space_group_name_H-M	'P1'
_symmetry_Int_Tables_number	1
_symmetry_cell_setting	triclinic
loop_
_symmetry_equiv_pos_as_xyz
  x,y,z
_cell_length_a	11.026607
_cell_length_b	16.109301
_cell_length_c	15.186229
_cell_angle_alpha	89.994833
_cell_angle_beta	89.997170
_cell_angle_gamma	96.023749
loop_
_atom_site_label
_atom_site_type_symbol
_atom_site_fract_x
_atom_site_fract_y
_atom_site_fract_z
O1	O	1.610024	0.348130	-0.073244
O2	O	1.256733	0.308488	-0.073243
O3	O	1.443084	0.208732	-0.073234
O4	O	1.423673	0.447886	-0.073252
O5	O	1.443071	0.208729	0.073223
O6	O	1.256721	0.308484	0.073214
O7	O	1.610011	0.348126	0.073214
Zn8	Zn	1.433364	0.328305	0.096467
Zn9	Zn	1.433380	0.328309	-0.096496
O10	O	1.423661	0.447882	0.073205
C11	C	1.442291	0.177638	-0.000005
C12	C	1.439934	0.084989	-0.000004
C13	C	1.211519	0.301173	-0.000014
C14	C	1.076814	0.279372	-0.000014
C15	C	1.545030	-0.121535	-0.000018
C16	C	1.542805	-0.208588	-0.000025
C17	C	1.321707	-0.221846	-0.000022
C18	C	1.323932	-0.134794	-0.000021
C19	C	1.435597	-0.084640	-0.000014
C20	C	1.431147	-0.258746	-0.000023
C21	C	1.428735	-0.353134	-0.000030
C22	C	1.438011	0.009754	-0.000008
C23	C	1.002984	0.339568	-0.000019
C24	C	0.863759	0.317037	-0.000018
C25	C	1.655225	0.355441	-0.000017
C26	C	1.789931	0.377242	-0.000023
C27	C	1.424453	0.478976	-0.000026
C28	C	1.426811	0.571625	-0.000033
N29	N	1.433362	0.328302	0.228160
N30	N	1.433392	0.328307	-0.228189
C31	C	1.515906	0.284153	0.453887
C32	C	1.515910	0.284152	0.546076
C33	C	1.350840	0.372457	0.546078
C34	C	1.350831	0.372453	0.453890
C35	C	1.433371	0.328303	0.407797
C36	C	1.433383	0.328306	0.592174
C37	C	1.433387	0.328305	0.692130
C38	C	1.433366	0.328303	0.307834
H39	H	1.631916	-0.238623	-0.000030
H40	H	1.036949	0.211156	-0.000031
H41	H	0.823900	0.248817	-0.000036
H42	H	1.230793	-0.262691	-0.000025
H43	H	0.829788	0.445463	-0.000023
H44	H	1.583113	0.248203	0.416360
O45	O	1.270821	0.415406	0.409016
C46	C	1.244942	0.525099	0.304959
C47	C	1.335683	0.476514	0.355706
H48	H	1.297348	0.574528	0.261860
H49	H	1.184353	0.480157	0.261750
H50	H	1.185935	0.556619	0.353755
H51	H	1.394770	0.444991	0.306974
H52	H	1.396187	0.521495	0.398928
H53	H	1.583116	0.248200	0.583600
O54	O	1.217511	-0.099084	0.000023
C55	C	0.997976	-0.121413	-0.000029
C56	C	1.118398	-0.161963	-0.000052
H57	H	0.917813	-0.172231	-0.000108
H58	H	0.993405	-0.081021	0.061277
H59	H	0.993566	-0.080957	-0.061308
H60	H	1.122889	-0.202459	0.061185
H61	H	1.122919	-0.202306	-0.061399
H62	H	1.635954	-0.080702	-0.000015
H63	H	1.283639	0.408404	0.583616
H64	H	1.042849	0.407784	-0.000019
