data_functionalizedCrystal
_audit_creation_method	'MofGen! by Chris Wilmer'
_symmetry_space_group_name_H-M	'P1'
_symmetry_Int_Tables_number	1
_symmetry_cell_setting	triclinic
loop_
_symmetry_equiv_pos_as_xyz
  x,y,z
_cell_length_a	18.101398
_cell_length_b	18.101395
_cell_length_c	16.625539
_cell_angle_alpha	89.974216
_cell_angle_beta	89.992183
_cell_angle_gamma	90.026661
loop_
_atom_site_label
_atom_site_type_symbol
_atom_site_fract_x
_atom_site_fract_y
_atom_site_fract_z
Zn1	Zn	1.132107	-0.294930	-0.455714
Zn2	Zn	1.465440	0.038404	-0.122381
Zn3	Zn	1.798774	0.371737	0.210952
Zn4	Zn	1.132007	-0.418775	-0.320883
Zn5	Zn	1.465340	-0.085441	0.012450
Zn6	Zn	1.798674	0.247892	0.345784
Zn7	Zn	1.008270	-0.294942	-0.320916
Zn8	Zn	1.341603	0.038391	0.012417
Zn9	Zn	1.674937	0.371725	0.345750
Zn10	Zn	1.008217	-0.418724	-0.455695
Zn11	Zn	1.341550	-0.085391	-0.122361
Zn12	Zn	1.674883	0.247942	0.210972
O13	O	1.070150	-0.356843	-0.388302
O14	O	1.403483	-0.023509	-0.054969
O15	O	1.736817	0.309824	0.278365
O16	O	1.235726	-0.311374	-0.437823
O17	O	1.569060	0.021959	-0.104489
O18	O	1.902393	0.355293	0.228844
O19	O	1.115573	-0.402374	-0.208055
O20	O	1.448907	-0.069041	0.125278
O21	O	1.782240	0.264292	0.458612
O22	O	1.024761	-0.191308	-0.338820
O23	O	1.358095	0.142026	-0.005487
O24	O	1.691428	0.475359	0.327847
O25	O	1.235653	-0.402362	-0.338763
O26	O	1.568986	-0.069029	-0.005429
O27	O	1.902320	0.264304	0.327904
O28	O	1.115744	-0.191299	-0.437855
O29	O	1.449077	0.142035	-0.104522
O30	O	1.782410	0.475368	0.228811
O31	O	1.024664	-0.311395	-0.208080
O32	O	1.357998	0.021938	0.125254
O33	O	1.691331	0.355272	0.458587
O34	O	0.904630	-0.311346	-0.338801
O35	O	1.237963	0.021987	-0.005468
O36	O	1.571297	0.355321	0.327866
O37	O	1.024670	-0.402277	-0.568530
O38	O	1.358004	-0.068943	-0.235196
O39	O	1.691337	0.264390	0.098137
O40	O	0.904591	-0.402288	-0.437822
O41	O	1.237924	-0.068955	-0.104488
O42	O	1.571257	0.264378	0.228845
O43	O	1.115692	-0.311325	-0.568544
O44	O	1.449025	0.022008	-0.235211
O45	O	1.782359	0.355341	0.098123
O46	O	1.115522	-0.522401	-0.338744
O47	O	1.448855	-0.189068	-0.005410
O48	O	1.782188	0.144266	0.327923
O49	O	1.024573	-0.522364	-0.437789
O50	O	1.357907	-0.189031	-0.104456
O51	O	1.691240	0.144303	0.228877
C52	C	0.877740	-0.356814	-0.388313
C53	C	1.211073	-0.023480	-0.054980
C54	C	1.544406	0.309853	0.278353
C55	C	0.795425	-0.356819	-0.388337
C56	C	1.128759	-0.023486	-0.055004
C57	C	1.462092	0.309848	0.278329
C58	C	0.496334	-0.356863	-0.388304
C59	C	0.829668	-0.023529	-0.054970
C60	C	1.163001	0.309804	0.278363
C61	C	0.527660	-0.414358	-0.450297
C62	C	0.860993	-0.081024	-0.116964
C63	C	1.194326	0.252309	0.216369
C64	C	0.613278	-0.414178	-0.450552
C65	C	0.946611	-0.080844	-0.117219
C66	C	1.279945	0.252489	0.216115
C67	C	0.644717	-0.356842	-0.388320
C68	C	0.978050	-0.023508	-0.054987
C69	C	1.311384	0.309825	0.278346
C70	C	0.613662	-0.278840	-0.411539
C71	C	0.946995	0.054494	-0.078206
C72	C	1.280329	0.387827	0.255128
C73	C	0.528017	-0.279185	-0.411980
C74	C	0.861350	0.054148	-0.078646
C75	C	1.194683	0.387482	0.254687
C76	C	0.527884	-0.376682	-0.302942
C77	C	0.861218	-0.043348	0.030392
C78	C	1.194551	0.289985	0.363725
C79	C	0.613534	-0.378393	-0.303398
C80	C	0.946868	-0.045060	0.029936
C81	C	1.280201	0.288273	0.363269
C82	C	0.728576	-0.356825	-0.388328
C83	C	1.061910	-0.023492	-0.054995
C84	C	1.395243	0.309842	0.278338
C85	C	0.412475	-0.356874	-0.388297
C86	C	0.745808	-0.023541	-0.054964
C87	C	1.079142	0.309793	0.278369
C88	C	1.070051	-0.549253	-0.388278
C89	C	1.403384	-0.215920	-0.054945
C90	C	1.736718	0.117413	0.278388
C91	C	1.070076	-0.631567	-0.388295
C92	C	1.403410	-0.298234	-0.054962
C93	C	1.736743	0.035099	0.278371
C94	C	1.070239	-0.930658	-0.388339
C95	C	1.403572	-0.597325	-0.055005
C96	C	1.736906	-0.263992	0.278328
C97	C	1.013149	-0.899341	-0.450810
C98	C	1.346483	-0.566007	-0.117477
C99	C	1.679816	-0.232674	0.215857
C100	C	1.012878	-0.813723	-0.450615
C101	C	1.346211	-0.480389	-0.117281
C102	C	1.679545	-0.147056	0.216052
C103	C	1.070158	-0.782276	-0.388318
C104	C	1.403492	-0.448942	-0.054984
C105	C	1.736825	-0.115609	0.278349
C106	C	1.049032	-0.813423	-0.303344
C107	C	1.382365	-0.480090	0.029990
C108	C	1.715698	-0.146757	0.363323
C109	C	1.048664	-0.899069	-0.303717
C110	C	1.381997	-0.565735	0.029616
C111	C	1.715330	-0.232402	0.362949
C112	C	1.148580	-0.899009	-0.410093
C113	C	1.481913	-0.565675	-0.076760
C114	C	1.815247	-0.232342	0.256573
C115	C	1.148119	-0.813358	-0.411957
C116	C	1.481452	-0.480024	-0.078624
C117	C	1.814786	-0.146691	0.254710
C118	C	1.070114	-0.698416	-0.388301
C119	C	1.403447	-0.365083	-0.054967
C120	C	1.736781	-0.031750	0.278366
C121	C	1.070281	-1.014518	-0.388350
C122	C	1.403615	-0.681184	-0.055017
C123	C	1.736948	-0.347851	0.278317
C124	C	1.263312	-0.356873	-0.388291
C125	C	1.596645	-0.023539	-0.054958
C126	C	1.929979	0.309794	0.278375
C127	C	1.345626	-0.356885	-0.388287
C128	C	1.678959	-0.023552	-0.054953
C129	C	2.012293	0.309781	0.278380
C130	C	1.070186	-0.356794	-0.598611
C131	C	1.403520	-0.023461	-0.265278
C132	C	1.736853	0.309873	0.068056
C133	C	1.070202	-0.356773	-0.688232
C134	C	1.403535	-0.023440	-0.354899
C135	C	1.736868	0.309894	-0.021566
C136	C	1.070270	-0.163681	-0.388344
C137	C	1.403603	0.169653	-0.055010
C138	C	1.736936	0.502986	0.278323
C139	C	1.070321	-0.081367	-0.388361
C140	C	1.403654	0.251967	-0.055028
C141	C	1.736987	0.585300	0.278306
C142	C	1.070214	-0.356757	-0.761015
C143	C	1.403547	-0.023423	-0.427681
C144	C	1.736881	0.309910	-0.094348
C145	C	1.070231	-0.356729	-0.852323
C146	C	1.403565	-0.023396	-0.518990
C147	C	1.736898	0.309938	-0.185657
C148	C	1.070249	-0.356703	-0.925100
C149	C	1.403582	-0.023370	-0.591766
C150	C	1.736915	0.309964	-0.258433
C151	C	1.070267	-0.356676	-1.016414
C152	C	1.403600	-0.023343	-0.683081
C153	C	1.736934	0.309990	-0.349747
C154	C	1.070157	-0.356838	-0.178811
C155	C	1.403490	-0.023505	0.154522
C156	C	1.736823	0.309829	0.487855
C157	C	1.070285	-0.356650	-0.089191
C158	C	1.403618	-0.023317	0.244143
C159	C	1.736951	0.310016	0.577476
H160	H	0.508054	-0.262375	-0.474383
H161	H	0.841387	0.070959	-0.141050
H162	H	1.174720	0.404292	0.192284
O163	O	0.500343	-0.491228	-0.431249
O164	O	0.833677	-0.157894	-0.097916
O165	O	1.167010	0.175439	0.235418
H166	H	0.523181	-0.530762	-0.475787
H167	H	0.856514	-0.197429	-0.142454
H168	H	1.189848	0.135905	0.190880
H169	H	0.955434	-0.920922	-0.436582
H170	H	1.288767	-0.587589	-0.103249
H171	H	1.622101	-0.254256	0.230084
H172	H	0.954810	-0.793295	-0.436205
H173	H	1.288143	-0.459961	-0.102872
H174	H	1.621476	-0.126628	0.230461
H175	H	0.507627	-0.334803	-0.256751
H176	H	0.840961	-0.001469	0.076583
H177	H	1.174294	0.331864	0.409916
H178	H	1.164051	-0.792997	-0.474493
H179	H	1.497384	-0.459664	-0.141160
H180	H	1.830717	-0.126331	0.192173
H181	H	0.991397	-0.919107	-0.285287
H182	H	1.324730	-0.585773	0.048046
H183	H	1.658063	-0.252440	0.381379
H184	H	0.634274	-0.472020	-0.436000
H185	H	0.967607	-0.138687	-0.102667
H186	H	1.300940	0.194646	0.230667
O187	O	1.204997	-0.925827	-0.349905
O188	O	1.538330	-0.592494	-0.016572
O189	O	1.871663	-0.259161	0.316762
H190	H	1.248356	-0.957930	-0.381603
H191	H	1.581689	-0.624596	-0.048269
H192	H	1.915022	-0.291263	0.285064
O193	O	1.207444	-0.785033	-0.356058
O194	O	1.540777	-0.451699	-0.022725
O195	O	1.874110	-0.118366	0.310609
H196	H	1.182175	-0.748195	-0.310349
H197	H	1.515509	-0.414862	0.022984
H198	H	1.848842	-0.081528	0.356317
O199	O	0.500560	-0.220511	-0.354793
O200	O	0.833893	0.112822	-0.021460
O201	O	1.167226	0.446156	0.311874
H202	H	0.548456	-0.192012	-0.326950
H203	H	0.881789	0.141321	0.006383
H204	H	1.215123	0.474655	0.339716
O205	O	1.102372	-0.786449	-0.239998
O206	O	1.435705	-0.453116	0.093335
O207	O	1.769039	-0.119783	0.426668
H208	H	1.100967	-0.725186	-0.237692
H209	H	1.434301	-0.391852	0.095642
H210	H	1.767634	-0.058519	0.428975
H211	H	0.506147	-0.401411	-0.513179
H212	H	0.839481	-0.068078	-0.179846
H213	H	1.172814	0.265255	0.153487
O214	O	0.642113	-0.256164	-0.493290
O215	O	0.975446	0.077169	-0.159956
O216	O	1.308780	0.410503	0.173377
H217	H	0.624050	-0.297158	-0.538864
H218	H	0.957383	0.036176	-0.205530
H219	H	1.290716	0.369509	0.127803
O220	O	0.640444	-0.396793	-0.534324
O221	O	0.973778	-0.063459	-0.200991
O222	O	1.307111	0.269874	0.132342
H223	H	0.592409	-0.388474	-0.574810
H224	H	0.925742	-0.055141	-0.241477
H225	H	1.259076	0.278192	0.091856
H226	H	1.088441	-0.919788	-0.255585
H227	H	1.421775	-0.586455	0.077748
H228	H	1.755108	-0.253121	0.411082
O229	O	0.973977	-0.785101	-0.278486
O230	O	1.307310	-0.451768	0.054848
O231	O	1.640643	-0.118435	0.388181
H232	H	0.951601	-0.748851	-0.326510
H233	H	1.284934	-0.415518	0.006823
H234	H	1.618267	-0.082184	0.340157
H235	H	0.634027	-0.234840	-0.367794
H236	H	0.967361	0.098493	-0.034461
H237	H	1.300694	0.431826	0.298873
H238	H	0.633839	-0.435791	-0.285886
H239	H	0.967172	-0.102458	0.047447
H240	H	1.300506	0.230876	0.380780
O241	O	0.499253	-0.450730	-0.274978
O242	O	0.832586	-0.117397	0.058355
O243	O	1.165920	0.215936	0.391688
H244	H	0.462212	-0.474236	-0.321616
H245	H	0.795546	-0.140902	0.011717
H246	H	1.128879	0.192431	0.345050
H247	H	1.026095	-0.792661	-0.513623
H248	H	1.359429	-0.459328	-0.180289
H249	H	1.692762	-0.125995	0.153044
H250	H	0.634936	-0.339557	-0.254727
H251	H	0.968269	-0.006224	0.078606
H252	H	1.301603	0.327110	0.411939
H253	H	1.026236	-0.919891	-0.514022
H254	H	1.359569	-0.586558	-0.180689
H255	H	1.692902	-0.253224	0.152645
H256	H	1.167842	-0.920560	-0.471000
H257	H	1.501175	-0.587226	-0.137667
H258	H	1.834508	-0.253893	0.195667
