data_functionalizedCrystal
_audit_creation_method	'MofGen! by Chris Wilmer'
_symmetry_space_group_name_H-M	'P1'
_symmetry_Int_Tables_number	1
_symmetry_cell_setting	triclinic
loop_
_symmetry_equiv_pos_as_xyz
  x,y,z
_cell_length_a	16.974897
_cell_length_b	15.995350
_cell_length_c	16.053802
_cell_angle_alpha	92.572097
_cell_angle_beta	91.071702
_cell_angle_gamma	83.446790
loop_
_atom_site_label
_atom_site_type_symbol
_atom_site_fract_x
_atom_site_fract_y
_atom_site_fract_z
O1	O	1.042404	0.113883	0.139784
O2	O	1.542404	0.613883	0.639784
O3	O	0.812946	0.126675	0.124298
O4	O	1.312946	0.626675	0.624298
O5	O	0.933948	-0.001594	0.132463
O6	O	1.433948	0.498406	0.632463
O7	O	0.921403	0.242152	0.131618
O8	O	1.421403	0.742152	0.631618
O9	O	0.940601	-0.008633	-0.005946
O10	O	1.440601	0.491367	0.494054
O11	O	0.819599	0.119636	-0.014112
O12	O	1.319599	0.619636	0.485888
O13	O	1.049057	0.106844	0.001374
O14	O	1.549057	0.606844	0.501374
Zn15	Zn	0.935385	0.112123	-0.028345
Zn16	Zn	1.435385	0.612123	0.471655
Zn17	Zn	0.926619	0.121397	0.154016
Zn18	Zn	1.426619	0.621397	0.654016
O19	O	0.928056	0.235113	-0.006792
O20	O	1.428056	0.735113	0.493208
C21	C	0.786910	0.122536	0.053111
C22	C	1.286910	0.622536	0.553111
C23	C	0.699419	0.120680	0.047206
C24	C	1.199419	0.620680	0.547206
C25	C	0.654682	0.123647	0.119873
C26	C	1.154682	0.623647	0.619873
C27	C	0.572473	0.121916	0.114313
C28	C	1.072473	0.621916	0.614313
C29	C	0.535004	0.117212	0.036084
C30	C	1.035004	0.617212	0.536084
C31	C	0.579747	0.114248	-0.036588
C32	C	1.079747	0.614248	0.463412
C33	C	0.661953	0.115985	-0.031027
C34	C	1.161953	0.615985	0.468973
C35	C	0.289533	0.111612	0.011362
C36	C	0.789533	0.611612	0.511362
C37	C	0.207322	0.109872	0.005806
C38	C	0.707322	0.609872	0.505806
C39	C	0.200053	0.117542	0.156707
C40	C	0.700053	0.617542	0.656707
C41	C	0.282262	0.119274	0.162262
C42	C	0.782262	0.619274	0.662262
C43	C	0.326997	0.116314	0.089589
C44	C	0.826997	0.616314	0.589589
N45	N	0.450974	0.115440	0.030399
N46	N	0.950974	0.615440	0.530399
N47	N	0.411025	0.118092	0.095276
N48	N	0.911025	0.618092	0.595276
C49	C	0.936755	-0.036309	0.063225
C50	C	1.436755	0.463691	0.563225
C51	C	0.935200	-0.129263	0.063125
C52	C	1.435200	0.370737	0.563125
C53	C	0.929617	-0.467024	0.062745
C54	C	1.429617	0.032976	0.562745
C55	C	0.843427	-0.419775	0.057240
C56	C	1.343427	0.080225	0.557240
C57	C	0.844997	-0.323097	0.057033
C58	C	1.344997	0.176903	0.557033
C59	C	0.932386	-0.299457	0.062934
C60	C	1.432386	0.200543	0.562934
C61	C	0.978690	-0.344455	-0.013235
C62	C	1.478690	0.155545	0.486765
C63	C	0.976528	-0.441099	-0.013447
C64	C	1.476528	0.058901	0.486553
C65	C	0.970743	-0.433448	0.144071
C66	C	1.470743	0.066552	0.644071
C67	C	0.970672	-0.336450	0.145114
C68	C	1.470672	0.163550	0.645114
C69	C	0.933956	-0.204756	0.063038
C70	C	1.433956	0.295244	0.563038
C71	C	0.928050	-0.561725	0.062636
C72	C	1.428050	-0.061725	0.562636
C73	C	1.075093	0.110983	0.072563
C74	C	1.575093	0.610983	0.572563
C75	C	1.162584	0.112839	0.078473
C76	C	1.662584	0.612839	0.578473
C77	C	0.925248	0.269829	0.062449
C78	C	1.425248	0.769829	0.562449
C79	C	0.926803	0.362783	0.062554
C80	C	1.426803	0.862783	0.562554
N81	N	0.920637	0.127720	0.278473
N82	N	1.420637	0.627720	0.778473
N83	N	0.941372	0.105793	-0.152801
N84	N	1.441372	0.605793	0.347199
C85	C	0.972222	0.073246	0.325648
C86	C	1.472222	0.573246	0.825648
C87	C	0.968036	0.077667	0.412773
C88	C	1.468036	0.577667	0.912773
C89	C	0.912261	0.136559	0.452720
C90	C	1.412261	0.636559	0.952720
C91	C	0.860674	0.191039	0.405538
C92	C	1.360674	0.691039	0.905538
C93	C	0.864864	0.186621	0.318416
C94	C	1.364864	0.686621	0.818416
C95	C	0.893976	0.155854	0.712895
C96	C	1.393976	0.655854	1.212895
C97	C	0.889787	0.160267	0.800024
C98	C	1.389787	0.660267	1.300024
C99	C	0.997152	0.046896	0.807252
C100	C	1.497152	0.546896	1.307252
C101	C	1.001334	0.042479	0.720128
C102	C	1.501334	0.542479	1.220128
C103	C	0.949749	0.096962	0.672954
C104	C	1.449749	0.596962	1.172954
N105	N	0.907979	0.141078	0.541775
N106	N	1.407979	0.641078	1.041775
N107	N	0.954036	0.092446	0.583901
N108	N	1.454036	0.592446	1.083901
H109	H	0.325948	0.109196	-0.047813
H110	H	0.825948	0.609196	0.452187
H111	H	1.010041	0.033311	0.451182
H112	H	1.510041	0.533311	0.951182
H113	H	0.536051	0.124332	0.173486
H114	H	1.036051	0.624332	0.673486
H115	H	0.951996	-0.319133	-0.074046
H116	H	1.451996	0.180867	0.425954
H117	H	0.814089	-0.298197	-0.001991
H118	H	1.314089	0.201803	0.498009
H119	H	0.312764	0.123098	0.225964
H120	H	0.812764	0.623098	0.725964
H121	H	0.163621	0.119954	0.215873
H122	H	0.663621	0.619954	0.715873
F123	F	0.709565	0.112830	-0.108369
F124	F	1.209565	0.612830	0.391631
F125	F	0.809962	0.244603	0.268210
F126	F	1.309962	0.744603	0.768210
H127	H	0.808862	-0.291872	0.111435
H128	H	1.308862	0.208128	0.611435
H129	H	1.046751	-0.005475	0.687605
H130	H	1.546751	0.494525	1.187605
F131	F	1.052175	-0.010948	0.857472
F132	F	1.552175	0.489052	1.357472
H133	H	0.811846	-0.442315	-0.001438
H134	H	1.311846	0.057685	0.498562
F135	F	0.930148	-0.456389	0.219887
F136	F	1.430148	0.043611	0.719887
F137	F	0.794843	-0.440332	0.128286
F138	F	1.294843	0.059668	0.628286
F139	F	0.167448	0.104852	-0.077459
F140	F	0.667448	0.604852	0.422541
H141	H	1.043034	-0.330328	-0.011838
H142	H	1.543034	0.169672	0.488162
H143	H	0.549233	0.110423	-0.100283
H144	H	1.049233	0.610423	0.399717
H145	H	1.034254	-0.465034	0.148893
H146	H	1.534254	0.034966	0.648893
H147	H	0.948374	-0.462477	-0.074623
H148	H	1.448374	0.037523	0.425377
H149	H	1.039969	-0.473382	-0.012761
H150	H	1.539969	0.026618	0.487239
F151	F	0.926692	-0.296652	0.218830
F152	F	1.426692	0.203348	0.718830
H153	H	1.034171	-0.320696	0.154190
H154	H	1.534171	0.179304	0.654190
F155	F	1.031583	0.010560	0.283142
F156	F	1.531583	0.510560	0.783142
H157	H	0.844365	0.208226	0.832544
H158	H	1.344365	0.708226	1.332544
F159	F	0.839074	0.213836	0.662696
F160	F	1.339074	0.713836	1.162696
H161	H	0.685183	0.127475	0.183575
H162	H	1.185183	0.627475	0.683575
F163	F	0.801316	0.253721	0.448054
F164	F	1.301316	0.753721	0.948054
