data_functionalizedCrystal
_audit_creation_method	'MofGen! by Chris Wilmer'
_symmetry_space_group_name_H-M	'P1'
_symmetry_Int_Tables_number	1
_symmetry_cell_setting	triclinic
loop_
_symmetry_equiv_pos_as_xyz
  x,y,z
_cell_length_a	20.453700
_cell_length_b	27.923327
_cell_length_c	9.514088
_cell_angle_alpha	86.314764
_cell_angle_beta	61.156455
_cell_angle_gamma	98.960721
loop_
_atom_site_label
_atom_site_type_symbol
_atom_site_fract_x
_atom_site_fract_y
_atom_site_fract_z
V1	V	-1.398484	-0.067987	0.501762
O2	O	-1.400711	0.002382	0.491175
O3	O	-1.374764	-0.133955	0.499327
O4	O	-1.410148	-0.067329	0.720144
O5	O	-1.365082	-0.064705	0.268829
V6	V	-1.557074	-0.059524	0.473781
O7	O	-1.491238	-0.086550	0.563142
O8	O	-1.614386	-0.040960	0.412401
O9	O	-1.506393	0.006444	0.476216
O10	O	-1.593980	-0.129892	0.484368
O11	O	-1.629608	-0.062806	0.706714
O12	O	-1.471009	-0.060181	0.255399
V13	V	-1.065151	-0.067987	0.501762
O14	O	-1.067378	0.002382	0.491175
O15	O	-1.041430	-0.133955	0.499327
O16	O	-1.076814	-0.067329	0.720144
O17	O	-1.031749	-0.064705	0.268829
V18	V	-1.223741	-0.059524	0.473781
O19	O	-1.157904	-0.086550	0.563142
O20	O	-1.281053	-0.040960	0.412401
O21	O	-1.173059	0.006444	0.476216
O22	O	-1.260646	-0.129892	0.484368
O23	O	-1.296275	-0.062806	0.706714
O24	O	-1.137675	-0.060181	0.255399
V25	V	-0.731817	-0.067987	0.501762
O26	O	-0.734045	0.002382	0.491175
O27	O	-0.708097	-0.133955	0.499327
O28	O	-0.743481	-0.067329	0.720144
O29	O	-0.698416	-0.064705	0.268829
V30	V	-0.890408	-0.059524	0.473781
O31	O	-0.824571	-0.086550	0.563142
O32	O	-0.947720	-0.040960	0.412401
O33	O	-0.839726	0.006444	0.476216
O34	O	-0.927313	-0.129892	0.484368
O35	O	-0.962942	-0.062806	0.706714
O36	O	-0.804342	-0.060181	0.255399
C37	C	-1.320352	-0.150024	0.491668
C38	C	-1.328239	-0.203957	0.491132
C39	C	-1.323271	-0.586626	0.479512
C40	C	-1.293543	-0.383919	0.481396
O41	O	-1.237450	-0.355601	0.474856
N42	N	-1.351279	-0.361054	0.489683
C43	C	-1.416455	-0.388870	0.497510
O44	O	-1.464885	-0.364771	0.504619
C45	C	-1.446185	-0.591577	0.495639
C46	C	-1.388440	-0.614438	0.487334
C47	C	-1.265532	-0.609487	0.471211
C48	C	-1.272962	-0.660161	0.470731
C49	C	-1.338132	-0.687973	0.478553
C50	C	-1.395871	-0.665111	0.486855
C51	C	-1.511363	-0.619392	0.503478
C52	C	-1.518791	-0.670072	0.503013
C53	C	-1.461046	-0.692933	0.494709
C54	C	-1.468471	-0.743596	0.494198
N55	N	-1.410734	-0.766461	0.485910
C56	C	-1.345564	-0.738649	0.478088
C57	C	-1.400841	-0.282445	0.498489
C58	C	-1.393409	-0.231769	0.498954
C59	C	-1.270497	-0.226821	0.482842
C60	C	-1.277928	-0.277498	0.482366
C61	C	-1.343105	-0.305310	0.490202
C62	C	-1.361173	-0.845067	0.477080
C63	C	-1.368608	-0.895745	0.476595
C64	C	-1.491521	-0.900688	0.492715
C65	C	-1.484085	-0.850015	0.493192
C66	C	-1.418907	-0.822205	0.485379
O67	O	-1.524544	-0.771945	0.500752
O68	O	-1.297151	-0.762758	0.471016
C69	C	-1.315841	-0.535952	0.479992
C70	C	-1.373580	-0.513091	0.488294
C71	C	-1.438749	-0.540903	0.496116
C72	C	-1.366147	-0.462414	0.488759
C73	C	-1.300977	-0.434602	0.480936
C74	C	-1.243241	-0.457467	0.472649
C75	C	-1.250671	-0.508141	0.472170
C76	C	-1.496486	-0.518038	0.504403
C77	C	-1.489050	-0.467364	0.504880
C78	C	-1.423881	-0.439553	0.497058
C79	C	-1.365487	-0.065036	0.773340
C80	C	-1.402068	-0.064935	0.951875
C81	C	-1.448584	0.022511	0.483871
C82	C	-1.433778	0.076443	0.484417
C83	C	-1.403448	-0.062476	0.202194
C84	C	-1.359947	-0.062575	0.023658
C85	C	-0.987019	-0.150024	0.491668
C86	C	-0.994906	-0.203957	0.491132
C87	C	-1.032154	-0.065036	0.773340
C88	C	-1.068735	-0.064935	0.951875
C89	C	-1.115251	0.022511	0.483871
C90	C	-1.100444	0.076443	0.484417
C91	C	-1.070115	-0.062476	0.202194
C92	C	-1.026614	-0.062575	0.023658
C93	C	-0.653686	-0.150024	0.491668
C94	C	-0.661572	-0.203957	0.491132
C95	C	-0.698821	-0.065036	0.773340
C96	C	-0.735401	-0.064935	0.951875
C97	C	-0.781917	0.022511	0.483871
C98	C	-0.767111	0.076443	0.484417
C99	C	-0.736782	-0.062476	0.202194
C100	C	-0.693281	-0.062575	0.023658
C101	C	-1.060070	-0.231772	0.498942
C102	C	-1.067495	-0.282448	0.498463
C103	C	-1.009753	-0.305309	0.490163
C104	C	-0.944584	-0.277490	0.482357
C105	C	-0.937162	-0.226815	0.482848
C106	C	-1.150276	0.104258	0.476611
C107	C	-1.136367	0.154934	0.477098
C108	C	-1.072628	0.177794	0.485402
C109	C	-1.022791	0.149976	0.493203
C110	C	-1.036698	0.099301	0.492705
C111	C	-0.726737	-0.231772	0.498942
C112	C	-0.734162	-0.282448	0.498463
C113	C	-0.676419	-0.305309	0.490163
C114	C	-0.611250	-0.277490	0.482357
C115	C	-0.603829	-0.226815	0.482848
C116	C	-0.816943	0.104258	0.476611
C117	C	-0.803033	0.154934	0.477098
C118	C	-0.739294	0.177794	0.485402
C119	C	-0.689458	0.149976	0.493203
C120	C	-0.703365	0.099301	0.492705
H121	H	-1.321583	-0.914356	0.469833
C122	C	-1.274578	-0.060076	0.923365
C123	C	-1.262182	-0.101963	0.848859
C124	C	-1.183549	-0.099680	0.756441
H125	H	-1.252979	-0.058607	0.992175
H126	H	-1.251245	-0.031582	0.842375
H127	H	-1.285506	-0.130448	0.929838
H128	H	-1.283763	-0.103439	0.780022
H129	H	-1.160215	-0.071187	0.675451
H130	H	-1.161957	-0.098211	0.825263
H131	H	-1.175128	-0.128097	0.705866
C132	C	-1.219385	0.079394	0.467336
C133	C	-1.195011	0.057214	0.327683
C134	C	-1.258652	0.034304	0.319086
H135	H	-1.247109	0.103174	0.462660
H136	H	-1.251360	0.055110	0.560912
H137	H	-1.163049	0.081496	0.234131
H138	H	-1.167295	0.033428	0.332329
H139	H	-1.290627	0.010020	0.412661
H140	H	-1.286372	0.058087	0.314414
H141	H	-1.242124	0.019249	0.224340
H142	H	-1.132786	-0.066880	1.027011
H143	H	-1.217432	-0.204168	0.476473
H144	H	-0.629236	-0.060635	0.948533
C145	C	-0.941188	-0.059911	0.923638
C146	C	-0.901534	-0.016453	0.937094
C147	C	-0.822837	-0.013988	0.844977
H148	H	-0.927029	-0.060300	0.812887
H149	H	-0.928861	-0.087328	0.962801
H150	H	-0.913856	0.010957	0.897923
H151	H	-0.915669	-0.016054	1.047823
H152	H	-0.810510	-0.041405	0.884140
H153	H	-0.808686	-0.014378	0.734232
H154	H	-0.795922	0.015496	0.854106
C155	C	-0.982724	0.069032	0.501446
C156	C	-1.023068	0.033013	0.640528
C157	C	-0.973370	0.005118	0.648621
H158	H	-0.942759	0.089845	0.506556
H159	H	-0.961617	0.053722	0.407481
H160	H	-1.044163	0.048322	0.734469
H161	H	-1.063029	0.012188	0.635448
H162	H	-0.952263	-0.010193	0.554657
H163	H	-0.933408	0.025935	0.653727
H164	H	-1.000737	-0.019327	0.742979
H165	H	-0.799453	-0.066880	1.027011
H166	H	-1.176954	0.177577	0.470747
H167	H	-0.868846	0.085652	0.469851
H168	H	-0.884095	-0.204171	0.476480
C169	C	-0.533156	-0.196608	0.474675
C170	C	-0.554837	-0.174151	0.613407
C171	C	-0.489750	-0.146328	0.605942
H172	H	-0.507629	-0.172111	0.380468
H173	H	-0.499828	-0.217471	0.469740
H174	H	-0.588151	-0.153289	0.618327
H175	H	-0.580355	-0.198637	0.707635
H176	H	-0.456422	-0.167191	0.601007
H177	H	-0.464227	-0.121833	0.511730
H178	H	-0.504450	-0.131091	0.700075
H179	H	-0.843621	0.177577	0.470747
H180	H	-0.682472	-0.346572	0.489765
H181	H	-1.466119	-0.066880	1.027011
C182	C	-0.724356	0.232815	0.486015
C183	C	-0.781656	0.252274	0.477447
C184	C	-0.767931	0.302955	0.478034
H185	H	-0.676090	0.248022	0.394968
H186	H	-0.724455	0.238787	0.583299
H187	H	-0.781549	0.246306	0.380175
H188	H	-0.829927	0.237081	0.568486
H189	H	-0.768030	0.308927	0.575318
H190	H	-0.719664	0.318158	0.386986
H191	H	-0.806810	0.316164	0.472236
H192	H	-0.773760	-0.213165	0.505691
H193	H	-1.061312	0.219057	0.485805
C194	C	-1.546675	-0.825144	0.501852
C195	C	-1.516452	-0.789430	0.363670
C196	C	-1.574092	-0.766517	0.371595
H197	H	-1.566397	-0.810028	0.596435
H198	H	-1.586551	-0.848946	0.506349
H199	H	-1.476589	-0.765631	0.359189
H200	H	-1.496735	-0.804533	0.269066
H201	H	-1.613969	-0.790319	0.376092
H202	H	-1.593811	-0.751403	0.466183
H203	H	-1.553596	-0.742285	0.277835
H204	H	-1.190174	-0.434813	0.466273
H205	H	-0.970895	0.168597	0.499962
H206	H	-0.637561	0.168597	0.499962
H207	H	-1.120563	-0.305091	0.504815
H208	H	-1.015806	-0.346572	0.489765
C209	C	-1.122767	-0.206909	0.508209
C210	C	-1.151640	-0.184727	0.647857
C211	C	-1.209396	-0.161819	0.656446
H212	H	-1.162703	-0.230691	0.512889
H213	H	-1.102419	-0.182627	0.414630
H214	H	-1.171990	-0.209007	0.741413
H215	H	-1.111724	-0.160939	0.643209
H216	H	-1.189048	-0.137537	0.562866
H217	H	-1.249326	-0.185603	0.661120
H218	H	-1.228989	-0.146762	0.751188
C219	C	-1.290394	-0.814806	0.468338
C220	C	-1.252996	-0.778791	0.329245
C221	C	-1.187796	-0.750901	0.321136
H222	H	-1.256993	-0.835623	0.463231
H223	H	-1.304940	-0.799492	0.562295
H224	H	-1.238448	-0.794103	0.235311
H225	H	-1.286375	-0.757963	0.334320
H226	H	-1.202342	-0.735587	0.415093
H227	H	-1.154401	-0.771721	0.316034
H228	H	-1.162417	-0.726458	0.226771
C229	C	-0.548513	-0.302325	0.472998
C230	C	-0.519632	-0.324484	0.333302
C231	C	-0.461829	-0.347362	0.324603
H232	H	-0.568800	-0.326616	0.566504
H233	H	-0.508597	-0.278516	0.468322
H234	H	-0.559541	-0.348291	0.337992
H235	H	-0.499330	-0.300203	0.239772
H236	H	-0.421913	-0.323553	0.319927
H237	H	-0.482122	-0.371651	0.418116
H238	H	-0.442221	-0.362396	0.229813
C239	C	-0.649201	0.069097	0.500863
C240	C	-0.618169	0.046643	0.362122
C241	C	-0.568258	0.018824	0.369569
H242	H	-0.676367	0.044597	0.595064
H243	H	-0.609217	0.089961	0.505799
H244	H	-0.658147	0.025781	0.357202
H245	H	-0.590990	0.071132	0.267899
H246	H	-0.528274	0.039688	0.374505
H247	H	-0.595430	-0.005673	0.463776
H248	H	-0.547191	0.003589	0.275430
C249	C	-1.210205	-0.684892	0.461816
C250	C	-1.151559	-0.649683	0.455119
C251	C	-1.093738	-0.672445	0.446936
H252	H	-1.190421	-0.699970	0.367156
H253	H	-1.230550	-0.709135	0.555494
H254	H	-1.131217	-0.625449	0.361450
H255	H	-1.171319	-0.634603	0.549769
H256	H	-1.114083	-0.696688	0.540615
H257	H	-1.073960	-0.687522	0.352276
H258	H	-1.053943	-0.648560	0.442407
H259	H	-1.212462	-0.586848	0.464846
C260	C	-0.881959	-0.302400	0.473259
C261	C	-0.902405	-0.352729	0.474451
C262	C	-0.844728	-0.375692	0.466038
H263	H	-0.875467	-0.297729	0.564149
H264	H	-0.835453	-0.288511	0.375827
H265	H	-0.948898	-0.366614	0.571872
H266	H	-0.908890	-0.357415	0.383566
H267	H	-0.798222	-0.361803	0.368606
H268	H	-0.838241	-0.371017	0.556930
H269	H	-0.858590	-0.409841	0.466830
H270	H	-1.230910	-0.296109	0.475618
H271	H	-0.787230	-0.305091	0.504815
H272	H	-1.440425	-0.213158	0.505689
H273	H	-1.558388	-0.600788	0.510247
C274	C	-1.551852	-0.442642	0.513987
C275	C	-1.610521	-0.477853	0.520780
C276	C	-1.668391	-0.455101	0.529208
H277	H	-1.531589	-0.418388	0.420395
H278	H	-1.571584	-0.427582	0.608715
H279	H	-1.590790	-0.492905	0.426062
H280	H	-1.630804	-0.502109	0.614368
H281	H	-1.688124	-0.440041	0.623936
H282	H	-1.648121	-0.430847	0.435613
H283	H	-1.708208	-0.478989	0.533833
C284	C	-1.187911	-0.532871	0.463240
C285	C	-1.129264	-0.497662	0.456536
C286	C	-1.071438	-0.520423	0.448334
H287	H	-1.168130	-0.547947	0.368576
H288	H	-1.208251	-0.557115	0.556913
H289	H	-1.108926	-0.473427	0.362872
H290	H	-1.149021	-0.482583	0.551190
H291	H	-1.091778	-0.544667	0.542007
H292	H	-1.051663	-0.535499	0.353669
H293	H	-1.031643	-0.496538	0.443800
H294	H	-1.571867	-0.692714	0.509399
C295	C	-1.567146	-0.548272	0.512603
C296	C	-1.545443	-0.570741	0.373889
C297	C	-1.610514	-0.598597	0.381376
H298	H	-1.600504	-0.527444	0.517522
H299	H	-1.592644	-0.572763	0.606853
H300	H	-1.519957	-0.546253	0.279664
H301	H	-1.512094	-0.591578	0.368942
H302	H	-1.636012	-0.623088	0.475627
H303	H	-1.643868	-0.577765	0.386299
H304	H	-1.595797	-0.613849	0.287270
H305	H	-1.453918	-0.305085	0.504870
H306	H	-1.544581	-0.923342	0.499081
