data_functionalizedCrystal
_audit_creation_method	'MofGen! by Chris Wilmer'
_symmetry_space_group_name_H-M	'P1'
_symmetry_Int_Tables_number	1
_symmetry_cell_setting	triclinic
loop_
_symmetry_equiv_pos_as_xyz
  x,y,z
_cell_length_a	14.044220
_cell_length_b	19.288859
_cell_length_c	17.766277
_cell_angle_alpha	89.993887
_cell_angle_beta	89.995720
_cell_angle_gamma	88.161302
loop_
_atom_site_label
_atom_site_type_symbol
_atom_site_fract_x
_atom_site_fract_y
_atom_site_fract_z
O1	O	1.256993	0.167413	-0.062514
O2	O	1.756993	0.667413	0.437486
O3	O	0.981050	0.161372	-0.062533
O4	O	1.481050	0.661372	0.437467
O5	O	1.126998	0.063775	-0.062518
O6	O	1.626998	0.563775	0.437482
O7	O	1.111045	0.265011	-0.062528
O8	O	1.611045	0.765011	0.437472
O9	O	1.126973	0.063767	0.062670
O10	O	1.626973	0.563767	0.562670
O11	O	0.981025	0.161365	0.062656
O12	O	1.481025	0.661365	0.562656
O13	O	1.256968	0.167406	0.062675
O14	O	1.756968	0.667406	0.562675
Cu15	Cu	1.118994	0.164385	0.074096
Cu16	Cu	1.618994	0.664385	0.574096
Cu17	Cu	1.119024	0.164393	-0.073954
Cu18	Cu	1.619024	0.664393	0.426046
O19	O	1.111020	0.265004	0.062660
O20	O	1.611020	0.765004	0.562660
C21	C	0.945734	0.158724	0.000059
C22	C	1.445734	0.658724	0.500059
C23	C	0.840542	0.150836	0.000052
C24	C	1.340542	0.650836	0.500052
C25	C	1.126473	0.037862	0.000076
C26	C	1.626473	0.537862	0.500076
C27	C	1.124935	-0.039341	0.000074
C28	C	1.624935	0.460659	0.500074
C29	C	1.200167	-0.598548	0.000060
C30	C	1.700167	-0.098548	0.500060
C31	C	1.201620	-0.526008	0.000066
C32	C	1.701620	-0.026008	0.500066
C33	C	1.115984	-0.486804	0.000060
C34	C	1.615984	0.013196	0.500060
C35	C	1.028889	-0.520145	0.000066
C36	C	1.528889	-0.020145	0.500066
C37	C	1.027438	-0.592683	0.000067
C38	C	1.527438	-0.092683	0.500067
C39	C	1.052127	-0.369631	-0.043802
C40	C	1.552127	0.130369	0.456198
C41	C	1.053581	-0.297094	-0.043807
C42	C	1.553581	0.202906	0.456193
C43	C	1.120456	-0.263070	0.000061
C44	C	1.620456	0.236930	0.500061
C45	C	1.185892	-0.301594	0.043926
C46	C	1.685892	0.198406	0.543926
C47	C	1.184441	-0.374132	0.043926
C48	C	1.684441	0.125868	0.543926
C49	C	1.117548	-0.408147	0.000060
C50	C	1.617548	0.091853	0.500060
C51	C	1.209122	-0.151082	0.000068
C52	C	1.709122	0.348918	0.500068
C53	C	1.210572	-0.078541	0.000079
C54	C	1.710572	0.421459	0.500079
C55	C	1.037838	-0.072679	0.000072
C56	C	1.537838	0.427321	0.500072
C57	C	1.036391	-0.145218	0.000068
C58	C	1.536391	0.354782	0.500068
C59	C	1.122035	-0.184416	0.000062
C60	C	1.622035	0.315584	0.500062
C61	C	0.647943	0.136416	0.000068
C62	C	1.147943	0.636416	0.500068
C63	C	0.590069	0.192359	0.000068
C64	C	1.090069	0.692359	0.500068
C65	C	0.482900	0.184335	0.000077
C66	C	0.982900	0.684335	0.500077
C67	C	0.755122	0.144439	0.000059
C68	C	1.255122	0.644439	0.500059
C69	C	1.292284	0.170054	0.000081
C70	C	1.792284	0.670054	0.500081
C71	C	1.397475	0.177942	0.000084
C72	C	1.897475	0.677942	0.500084
C73	C	1.111545	0.290917	0.000065
C74	C	1.611545	0.790917	0.500065
C75	C	1.113083	0.368119	0.000062
C76	C	1.613083	0.868119	0.500062
N77	N	1.118979	0.164379	0.178226
N78	N	1.618979	0.664379	0.678226
N79	N	1.119046	0.164394	-0.178084
N80	N	1.619046	0.664394	0.321916
C81	C	1.183626	0.121187	0.217620
C82	C	1.683626	0.621187	0.717620
C83	C	1.183632	0.121184	0.296422
C84	C	1.683632	0.621184	0.796422
C85	C	1.118999	0.164386	0.335827
C86	C	1.618999	0.664386	0.835827
C87	C	1.054341	0.207580	0.296424
C88	C	1.554341	0.707580	0.796424
C89	C	1.054331	0.207577	0.217624
C90	C	1.554331	0.707577	0.717624
C91	C	1.106311	0.226859	0.460661
C92	C	1.606311	0.726859	0.960661
C93	C	1.106328	0.226863	0.539460
C94	C	1.606328	0.726863	1.039460
C95	C	1.119025	0.164396	0.578873
C96	C	1.619025	0.664396	1.078873
C97	C	1.131725	0.101922	0.539478
C98	C	1.631725	0.601922	1.039478
C99	C	1.131715	0.101919	0.460678
C100	C	1.631715	0.601919	0.960678
C101	C	1.119003	0.164394	0.421273
C102	C	1.619003	0.664394	0.921273
C103	C	1.183681	0.121197	0.703713
C104	C	1.683681	0.621197	1.203713
C105	C	1.183680	0.121193	0.782516
C106	C	1.683680	0.621193	1.282516
C107	C	1.054393	0.207595	0.782517
C108	C	1.554393	0.707595	1.282517
C109	C	1.054390	0.207593	0.703715
C110	C	1.554390	0.707593	1.203715
C111	C	1.119039	0.164395	0.664318
C112	C	1.619039	0.664395	1.164318
H113	H	1.269906	-0.630458	0.000059
H114	H	1.769906	-0.130458	0.500059
H115	H	1.281489	-0.051403	0.000082
H116	H	1.781489	0.448597	0.500082
H117	H	1.236265	0.086011	0.185545
H118	H	1.736265	0.586011	0.685545
H119	H	0.621008	0.246280	0.000062
H120	H	1.121008	0.746280	0.500062
H121	H	0.617006	0.082499	0.000074
H122	H	1.117006	0.582499	0.500074
H123	H	1.236276	0.086011	0.328502
H124	H	1.736276	0.586011	0.828502
H125	H	1.142054	0.051051	0.428605
H126	H	1.642054	0.551051	0.928605
H127	H	0.965477	-0.172358	0.000064
H128	H	1.465477	0.327642	0.500064
H129	H	1.001765	0.242768	0.814600
H130	H	1.501765	0.742768	1.314600
H131	H	1.272537	-0.498863	0.000065
H132	H	1.772537	0.001137	0.500065
H133	H	0.997657	-0.397326	-0.079520
H134	H	1.497657	0.102674	0.420480
H135	H	0.968112	-0.040759	0.000073
H136	H	1.468112	0.459241	0.500073
H137	H	1.237720	-0.405495	0.079643
H138	H	1.737720	0.094505	0.579643
H139	H	1.142064	0.051055	0.571566
H140	H	1.642064	0.551055	1.071566
H141	H	1.236319	0.086021	0.671634
H142	H	1.736319	0.586021	1.171634
H143	H	1.236320	0.086017	0.814591
H144	H	1.736320	0.586017	1.314591
H145	H	0.959164	-0.488220	0.000064
H146	H	1.459164	0.011780	0.500064
H147	H	1.001752	0.242767	0.671639
H148	H	1.501752	0.742767	1.171639
H149	H	1.095992	0.277733	0.571530
H150	H	1.595992	0.777733	1.071530
H151	H	1.001686	0.242750	0.185549
H152	H	1.501686	0.742750	0.685549
H153	H	1.095955	0.277729	0.428578
H154	H	1.595955	0.777729	0.928578
H155	H	1.240342	-0.273893	0.079653
H156	H	1.740342	0.226107	0.579653
H157	H	1.001715	0.242755	0.328512
H158	H	1.501715	0.742755	0.828512
H159	H	1.278859	-0.182998	0.000064
H160	H	1.778859	0.317002	0.500064
H161	H	1.000304	-0.265734	-0.079528
H162	H	1.500304	0.234266	0.420472
H163	H	0.956521	-0.619822	0.000071
H164	H	1.456521	-0.119822	0.500071
