data_functionalizedCrystal
_audit_creation_method	'MofGen! by Chris Wilmer'
_symmetry_space_group_name_H-M	'P1'
_symmetry_Int_Tables_number	1
_symmetry_cell_setting	triclinic
loop_
_symmetry_equiv_pos_as_xyz
  x,y,z
_cell_length_a	16.176319
_cell_length_b	17.699083
_cell_length_c	17.699092
_cell_angle_alpha	96.715309
_cell_angle_beta	90.008839
_cell_angle_gamma	89.997523
loop_
_atom_site_label
_atom_site_type_symbol
_atom_site_fract_x
_atom_site_fract_y
_atom_site_fract_z
O1	O	-0.068619	-1.004080	0.095698
O2	O	-0.068648	-0.783702	0.108150
O3	O	-0.068631	-0.900114	-0.008265
O4	O	-0.068636	-0.887668	0.212113
O5	O	0.068862	-0.900102	-0.008242
O6	O	0.068845	-0.783690	0.108173
O7	O	0.068874	-1.004068	0.095720
Cu8	Cu	0.081414	-0.893878	0.101949
Cu9	Cu	-0.081188	-0.893892	0.101922
O10	O	0.068857	-0.887656	0.212135
C11	C	0.000095	-0.755499	0.107715
C12	C	0.000084	-0.671480	0.106377
N13	N	0.195779	-0.893873	0.101967
C14	C	0.000082	-0.622862	0.174710
C15	C	0.000092	-0.543918	0.173448
C16	C	0.000098	-0.513595	0.103851
C17	C	0.000103	-0.562220	0.035513
C18	C	0.000098	-0.641162	0.036776
C19	C	0.000121	-0.243857	0.030418
C20	C	0.000122	-0.164909	0.029160
C21	C	0.000115	-0.146613	0.167089
C22	C	0.000110	-0.225555	0.168352
C23	C	0.000119	-0.274173	0.100014
C24	C	0.000110	-0.359772	0.101384
C25	C	0.000102	-0.427998	0.102481
C26	C	0.761164	-0.848078	0.056068
C27	C	0.674617	-0.848077	0.056073
C28	C	0.631354	-0.893891	0.101924
C29	C	0.674644	-0.939715	0.147767
C30	C	0.761189	-0.939719	0.147758
C31	C	0.325615	-0.939698	0.147806
C32	C	0.239064	-0.939688	0.147813
C33	C	0.239043	-0.848055	0.056121
C34	C	0.325589	-0.848060	0.056112
C35	C	0.368870	-0.893887	0.101951
C36	C	0.462714	-0.893888	0.101944
C37	C	0.537512	-0.893886	0.101935
N38	N	0.804447	-0.893896	0.101910
C39	C	0.000114	-0.899661	-0.036450
C40	C	0.000110	-0.898319	-0.120468
C41	C	0.000127	-0.032271	0.096155
C42	C	0.000126	-0.116289	0.097494
C43	C	-0.074838	-0.897698	-0.159948
C44	C	-0.074839	-0.896433	-0.238891
C45	C	0.000109	-0.895795	-0.278353
C46	C	0.075063	-0.896415	-0.238868
C47	C	0.075064	-0.897674	-0.159925
C48	C	0.075064	-0.891334	-0.557233
C49	C	0.075058	-0.890077	-0.636181
C50	C	-0.074839	-0.890093	-0.636198
C51	C	-0.074839	-0.891352	-0.557256
C52	C	0.000115	-0.891968	-0.517777
C53	C	0.000115	-0.893338	-0.432178
C54	C	0.000110	-0.894430	-0.363952
C55	C	0.000110	-0.888109	0.240321
C56	C	0.000108	-0.889450	0.324339
H57	H	0.000077	-0.647544	0.231383
H58	H	-0.135870	-0.898221	-0.127824
Br59	Br	0.000087	-0.477937	0.266190
H60	H	0.000102	-0.250239	0.225025
Br61	Br	0.819932	-1.001911	0.209967
H62	H	0.000112	-0.107018	0.222733
H63	H	-0.135870	-0.895930	-0.271032
Br64	Br	0.384344	-1.001887	0.210021
Br65	Br	0.615878	-0.785867	-0.006118
Br66	Br	0.176781	-0.895537	-0.292421
H67	H	0.000128	-0.140224	-0.027517
Br68	Br	0.176780	-0.889212	-0.689737
Br69	Br	0.180350	-1.001867	0.210046
Br70	Br	0.384298	-0.785876	-0.006111
H71	H	0.639412	-0.977021	0.185096
Br72	Br	0.176787	-0.892154	-0.503661
H73	H	0.136094	-0.898170	-0.127781
H74	H	0.000099	-0.680748	-0.018868
Br75	Br	0.000134	-0.309829	-0.062327
H76	H	-0.135869	-0.891875	-0.525130
H77	H	0.796382	-0.810766	0.018735
Br78	Br	-0.176564	-0.889258	-0.689781
Br79	Br	0.000119	-0.521069	-0.058940
H80	H	0.203793	-0.810743	0.018794
