data_functionalizedCrystal
_audit_creation_method	'MofGen! by Chris Wilmer'
_symmetry_space_group_name_H-M	'P1'
_symmetry_Int_Tables_number	1
_symmetry_cell_setting	triclinic
loop_
_symmetry_equiv_pos_as_xyz
  x,y,z
_cell_length_a	14.446369
_cell_length_b	21.606444
_cell_length_c	14.446369
_cell_angle_alpha	90.001688
_cell_angle_beta	59.999699
_cell_angle_gamma	59.999661
loop_
_atom_site_label
_atom_site_type_symbol
_atom_site_fract_x
_atom_site_fract_y
_atom_site_fract_z
Zr1	Zr	1.013188	-0.081228	0.891780
O2	O	1.206308	-0.180061	0.743973
O3	O	0.820068	-0.050927	0.937090
O4	O	1.013179	-0.180050	0.937092
O5	O	1.013204	0.050912	0.743970
O6	O	1.013170	-0.180046	1.089429
O7	O	1.013198	-0.050938	0.743971
O8	O	0.667730	0.050931	1.089425
O9	O	1.358644	-0.180065	0.743974
O10	O	0.899494	-0.038006	1.070103
O11	O	0.899505	0.038001	0.956415
O12	O	1.126868	-0.114025	0.956417
O13	O	1.126879	-0.038019	0.842730
Zr14	Zr	1.013185	0.081216	1.134740
Zr15	Zr	1.013174	-0.081222	1.134740
Zr16	Zr	1.013198	0.081210	0.891780
Zr17	Zr	1.256146	-0.081236	0.891782
Zr18	Zr	0.770227	0.081224	1.134738
O19	O	1.206304	0.050915	1.089430
O20	O	1.206290	-0.180052	1.089431
O21	O	1.206323	0.050906	0.743972
O22	O	0.820064	0.180048	1.282547
O23	O	0.820049	-0.050918	1.282548
O24	O	0.820083	0.180040	0.937089
O25	O	1.013168	-0.050924	1.282549
O26	O	1.013194	0.180038	1.089428
O27	O	1.013202	0.180034	0.937091
O28	O	1.013175	0.050925	1.282549
O29	O	1.358634	-0.180060	0.937095
O30	O	0.667739	0.180048	1.089425
O31	O	0.667728	0.180053	1.282546
O32	O	0.667720	0.050936	1.282546
O33	O	1.358653	-0.050948	0.743974
O34	O	1.358642	-0.050944	0.937095
O35	O	0.899504	0.114013	1.070102
O36	O	0.899493	0.038006	1.183790
O37	O	1.126867	-0.038013	1.070105
O38	O	1.126878	0.037994	0.956417
C39	C	0.709283	0.000003	1.013257
C40	C	0.606141	0.000006	1.013256
C41	C	1.013203	-0.000014	0.709354
C42	C	1.013208	-0.000016	0.606211
C43	C	1.013199	0.203180	1.013259
C44	C	1.013204	0.272139	1.013259
C45	C	0.459138	0.048163	0.941897
C46	C	0.566758	0.047969	0.941509
C47	C	0.655134	-0.082593	0.960950
C48	C	0.547902	-0.082343	0.960414
C49	C	0.372678	0.033738	1.136972
C50	C	0.478829	0.035423	1.136790
C51	C	1.317089	-0.000015	1.013263
C52	C	1.420231	-0.000019	1.013264
C53	C	1.013173	-0.203192	1.013260
C54	C	1.013169	-0.272151	1.013260
C55	C	1.131890	0.264857	0.953919
C56	C	1.131886	0.329655	0.953914
C57	C	1.013195	0.401733	1.013256
C58	C	0.894500	0.409013	1.072599
C59	C	0.894505	0.344217	1.072597
C60	C	0.894477	0.670332	1.072608
C61	C	0.894481	0.735130	1.072608
C62	C	1.131858	0.655769	0.953925
C63	C	1.131863	0.590973	0.953923
C64	C	1.013169	0.598259	1.013260
C65	C	1.013174	0.527997	1.013263
C66	C	1.013188	0.471993	1.013261
C67	C	1.156598	-0.047720	0.387843
C68	C	1.156695	-0.047988	0.495075
C69	C	0.941975	-0.034982	0.602887
C70	C	0.942885	-0.035331	0.495118
C71	C	0.939939	0.082714	0.496481
C72	C	0.942642	0.082583	0.602450
C73	C	1.013169	0.000001	1.317166
C74	C	1.013164	0.000004	1.420309
C75	C	0.709266	0.000011	1.317163
C76	C	0.606118	0.000016	1.420305
C77	C	0.709296	0.203189	1.013257
C78	C	0.606158	0.272152	1.013256
C79	C	0.709279	0.203197	1.317163
C80	C	0.606136	0.272162	1.420305
C81	C	1.317093	-0.203209	0.709357
C82	C	1.420236	-0.272174	0.606215
C83	C	1.317106	-0.000023	0.709357
C84	C	1.420254	-0.000029	0.606215
C85	C	1.317076	-0.203201	1.013263
C86	C	1.420214	-0.272164	1.013264
C87	C	0.557723	0.344222	1.072599
C88	C	0.460828	0.409025	1.072593
C89	C	0.412363	0.401758	1.013251
C90	C	0.460808	0.329680	0.953901
C91	C	0.557708	0.264878	0.953900
C92	C	0.557693	0.264874	1.528095
C93	C	0.460792	0.329668	1.625017
C94	C	0.412330	0.401749	1.614146
C95	C	0.460783	0.409035	1.506344
C96	C	0.557688	0.344242	1.409425
C97	C	1.468691	-0.264886	0.498425
C98	C	1.565622	-0.329680	0.401503
C99	C	1.614089	-0.401761	0.412374
C100	C	1.565630	-0.409047	0.520175
C101	C	1.468708	-0.344254	0.617095
C102	C	1.468648	-0.264872	1.072618
C103	C	1.565544	-0.329663	1.072641
C104	C	1.614011	-0.401746	1.013303
C105	C	1.565567	-0.409037	0.953947
C106	C	1.468666	-0.344246	0.953931
C107	C	0.459796	0.047715	1.638673
C108	C	0.566725	0.047984	1.531442
C109	C	0.479262	0.034986	1.423632
C110	C	0.371879	0.035336	1.531400
C111	C	0.546850	-0.082715	1.530029
C112	C	0.655328	-0.082584	1.424061
H113	H	0.370272	0.109137	0.976797
C114	C	0.331382	-0.008566	1.495403
H115	H	0.380564	-0.026531	1.415042
H116	H	0.347852	-0.050327	1.522493
H117	H	0.240734	0.024091	1.526453
H118	H	1.228532	0.323719	0.905594
C119	C	1.720683	-0.473027	0.305756
H120	H	1.742580	-0.458356	0.240006
H121	H	1.796308	-0.502351	0.305729
H122	H	1.688902	-0.502332	0.305745
C123	C	1.618906	-0.321656	0.282933
H124	H	1.683584	-0.370564	0.226760
H125	H	1.549330	-0.294736	0.274438
H126	H	1.656700	-0.294725	0.274449
H127	H	1.228542	0.206171	0.905600
H128	H	0.370129	0.108360	1.693658
C129	C	0.763950	0.352227	1.137861
H130	H	0.693261	0.404434	1.173208
H131	H	0.759034	0.328596	1.086626
H132	H	0.759003	0.328603	1.194026
H133	H	1.429234	-0.206200	0.489552
C134	C	0.425324	0.117627	1.189591
H135	H	0.348310	0.138742	1.264311
H136	H	0.489418	0.118093	1.192150
H137	H	0.405216	0.146765	1.144889
H138	H	0.278933	0.093624	1.180674
C139	C	0.611026	0.352227	1.137874
H140	H	0.675669	0.303315	1.129390
H141	H	0.648841	0.379143	1.108560
H142	H	0.541444	0.379157	1.215952
C143	C	1.415344	-0.185588	1.137898
H144	H	1.350701	-0.148038	1.129389
H145	H	1.377528	-0.179903	1.215971
H146	H	1.484924	-0.179908	1.108591
C147	C	0.407499	0.321639	1.743584
H148	H	0.450229	0.269430	1.736168
H149	H	0.423388	0.345254	1.783868
H150	H	0.315998	0.345271	1.783856
C151	C	0.407469	0.488324	1.494395
H152	H	0.450200	0.483393	1.416319
H153	H	0.315972	0.515250	1.529746
H154	H	0.423366	0.515243	1.529737
C155	C	1.618943	-0.488338	0.532119
H156	H	1.683592	-0.525877	0.458953
H157	H	1.656751	-0.494037	0.572386
H158	H	1.549366	-0.494023	0.572369
C159	C	1.618900	-0.488330	0.888670
H160	H	1.683558	-0.525866	0.897176
H161	H	1.549345	-0.494027	0.917958
H162	H	1.656733	-0.494019	0.810588
H163	H	0.683915	-0.120044	1.010433
C164	C	0.763942	0.488297	1.137881
H165	H	0.780935	0.525846	1.129396
H166	H	0.715170	0.493985	1.108581
H167	H	0.715181	0.493977	1.215959
H168	H	1.604977	-0.323713	1.120974
C169	C	0.407545	0.488301	1.137893
H170	H	0.450275	0.483342	1.173248
H171	H	0.423439	0.515231	1.086683
H172	H	0.316042	0.515231	1.194054
C173	C	0.507859	-0.007054	1.214678
H174	H	0.598405	-0.047126	1.172687
H175	H	0.485250	0.027056	1.275897
H176	H	0.457846	-0.027316	1.243484
H177	H	1.228505	0.649843	0.905605
H178	H	0.597131	0.206198	0.905579
C179	C	0.305726	0.473014	1.720764
H180	H	0.283813	0.458344	1.786514
H181	H	0.337478	0.502332	1.720787
H182	H	0.230102	0.502326	1.720779
C183	C	0.427167	0.116427	1.420755
H184	H	0.482526	0.129241	1.417533
H185	H	0.425884	0.119690	1.355785
H186	H	0.340954	0.150599	1.487194
C187	C	0.763918	0.814419	1.137861
H188	H	0.780920	0.851964	1.129366
H189	H	0.715175	0.820093	1.108534
H190	H	0.715125	0.820118	1.215944
H191	H	0.597118	0.350186	1.321661
H192	H	1.429257	-0.350197	0.704860
C193	C	1.262419	0.511688	0.888643
H194	H	1.245423	0.474141	0.897147
H195	H	1.311187	0.506004	0.810570
H196	H	1.311187	0.506003	0.917954
C197	C	0.763919	0.678352	1.137910
H198	H	0.693234	0.730560	1.173269
H199	H	0.758960	0.654727	1.086709
H200	H	0.759005	0.654726	1.194070
H201	H	0.655562	0.024566	0.850258
C202	C	0.610993	0.185592	1.540070
H203	H	0.675640	0.148039	1.466916
H204	H	0.648802	0.179909	1.580332
H205	H	0.541411	0.179912	1.580342
H206	H	1.212616	-0.108364	0.332859
C207	C	1.232208	-0.016319	0.492896
H208	H	1.232368	-0.016440	0.558579
H209	H	1.319773	-0.047053	0.427079
H210	H	1.191056	0.034082	0.491699
H211	H	1.429242	-0.350194	0.905593
H212	H	0.497033	0.024378	1.692630
C213	C	1.720609	-0.473009	1.013319
H214	H	1.742516	-0.458336	1.057160
H215	H	1.688856	-0.502326	1.045091
H216	H	1.796237	-0.502323	0.937709
H217	H	0.656074	0.024529	1.533056
C218	C	0.249283	0.117556	1.599428
H219	H	0.265448	0.150430	1.561074
H220	H	0.177509	0.121299	1.606494
H221	H	0.229277	0.131668	1.672686
C222	C	0.305770	0.473042	1.013261
H223	H	0.283842	0.458397	0.969416
H224	H	0.230164	0.502357	1.088872
H225	H	0.337560	0.502346	0.981483
H226	H	0.421333	0.323774	0.905586
H227	H	0.501510	0.001904	1.345365
H228	H	0.346698	-0.001189	1.190395
C229	C	0.600270	-0.122192	1.597609
H230	H	0.545830	-0.088594	1.672920
H231	H	0.601150	-0.166429	1.599160
H232	H	0.686770	-0.135895	1.562456
H233	H	0.529261	0.108997	1.533899
H234	H	1.212894	-0.024385	0.333888
H235	H	1.212921	-0.109000	0.492630
H236	H	0.745815	-0.108707	1.424582
H237	H	0.747445	-0.109800	0.870788
H238	H	0.993502	-0.096194	0.444774
H239	H	0.687456	-0.121130	1.344903
H240	H	0.522060	-0.118436	1.502580
H241	H	0.530050	0.108791	0.976595
H242	H	0.837649	-0.002819	0.521771
H243	H	0.494904	0.024957	0.851184
H244	H	0.836473	-0.001895	0.681154
C245	C	1.008807	-0.116424	0.605760
H246	H	1.080111	-0.129240	0.608979
H247	H	0.947434	-0.119688	0.670729
H248	H	1.040138	-0.150592	0.539320
C249	C	0.801219	0.134661	0.709374
H250	H	0.783276	0.106583	0.757922
H251	H	0.791015	0.175588	0.747994
H252	H	0.742106	0.153926	0.688169
C253	C	0.602872	-0.118839	0.837439
H254	H	0.690397	-0.133675	0.788279
H255	H	0.601411	-0.162106	0.831841
H256	H	0.550729	-0.083240	0.816323
C257	C	0.797198	0.130979	0.533563
H258	H	0.753452	0.180892	0.579574
H259	H	0.796056	0.132873	0.468422
H260	H	0.754019	0.108948	0.575587
H261	H	0.525928	-0.120192	1.009037
H262	H	0.985836	0.111924	0.446458
H263	H	0.994581	0.108704	0.601933
