data_functionalizedCrystal
_audit_creation_method	'MofGen! by Chris Wilmer'
_symmetry_space_group_name_H-M	'P1'
_symmetry_Int_Tables_number	1
_symmetry_cell_setting	triclinic
loop_
_symmetry_equiv_pos_as_xyz
  x,y,z
_cell_length_a	12.594517
_cell_length_b	29.839131
_cell_length_c	12.594509
_cell_angle_alpha	89.966582
_cell_angle_beta	89.978379
_cell_angle_gamma	90.041220
loop_
_atom_site_label
_atom_site_type_symbol
_atom_site_fract_x
_atom_site_fract_y
_atom_site_fract_z
Zn1	Zn	1.627082	-0.178849	-0.601810
Zn2	Zn	1.626894	-0.253982	-0.423811
Zn3	Zn	1.449085	-0.178866	-0.423839
Zn4	Zn	1.448990	-0.253953	-0.601741
O5	O	1.538013	-0.216412	-0.512800
O6	O	1.776003	-0.188821	-0.578215
O7	O	1.603268	-0.244037	-0.274869
O8	O	1.472816	-0.115997	-0.447488
O9	O	1.775864	-0.244020	-0.447440
O10	O	1.603590	-0.115984	-0.578243
O11	O	1.472633	-0.188850	-0.274889
O12	O	1.300127	-0.188822	-0.447421
O13	O	1.472653	-0.243970	-0.750696
O14	O	1.300057	-0.243987	-0.578124
O15	O	1.603497	-0.188792	-0.750747
O16	O	1.603175	-0.316845	-0.447373
O17	O	1.472470	-0.316824	-0.578097
C18	C	1.261472	-0.216403	-0.512769
C19	C	1.143166	-0.216410	-0.512781
C20	C	1.073921	-0.186365	-0.441827
C21	C	1.003066	-0.227344	-0.415635
C22	C	1.003221	-0.175451	-0.538990
C23	C	1.073870	-0.257411	-0.486538
C24	C	1.074032	-0.205491	-0.609939
C25	C	1.003209	-0.246498	-0.583784
C26	C	1.537821	-0.333135	-0.512747
C27	C	1.537836	-0.383069	-0.512760
C28	C	1.606195	-0.692711	-0.444831
C29	C	1.606326	-0.880384	-0.444873
O30	O	1.664295	-0.904648	-0.387076
N31	N	1.538233	-0.903854	-0.512880
C32	C	1.470108	-0.880403	-0.580888
O33	O	1.412202	-0.904672	-0.638741
C34	C	1.469983	-0.692731	-0.580851
C35	C	1.538072	-0.669264	-0.512831
C36	C	1.674279	-0.669244	-0.376818
C37	C	1.674242	-0.622328	-0.376804
C38	C	1.606119	-0.598880	-0.444804
C39	C	1.538035	-0.622348	-0.512817
C40	C	1.401864	-0.669281	-0.648863
C41	C	1.401840	-0.622360	-0.648849
C42	C	1.469930	-0.598892	-0.580829
C43	C	1.469875	-0.551985	-0.580803
N44	N	1.537967	-0.528515	-0.512796
C45	C	1.606090	-0.551963	-0.444796
C46	C	1.470177	-0.978934	-0.580901
C47	C	1.470207	-1.025852	-0.580909
C48	C	1.606427	-1.025829	-0.444895
C49	C	1.606391	-0.978911	-0.444882
C50	C	1.538270	-0.955464	-0.512893
C51	C	1.606005	-0.453437	-0.444772
C52	C	1.605958	-0.406517	-0.444761
C53	C	1.469743	-0.406544	-0.580778
C54	C	1.469785	-0.453459	-0.580785
C55	C	1.537925	-0.476904	-0.512779
O56	O	1.411945	-0.527692	-0.638578
O57	O	1.664004	-0.527685	-0.386968
C58	C	1.606232	-0.739627	-0.444845
C59	C	1.538148	-0.763094	-0.512859
C60	C	1.470025	-0.739647	-0.580858
C61	C	1.538177	-0.810012	-0.512867
C62	C	1.606300	-0.833460	-0.444867
C63	C	1.674392	-0.809990	-0.376859
C64	C	1.674355	-0.763074	-0.376846
C65	C	1.401933	-0.763117	-0.648866
C66	C	1.401975	-0.810032	-0.648873
C67	C	1.470097	-0.833480	-0.580874
C68	C	1.815634	-0.216422	-0.512832
C69	C	1.933939	-0.216426	-0.512846
C70	C	1.538085	-0.216376	-0.790421
C71	C	1.538116	-0.216361	-0.908727
C72	C	1.538235	-0.099234	-0.512876
C73	C	1.538329	-0.049300	-0.512909
C74	C	1.466995	-0.246335	-1.048716
C75	C	1.441015	-0.205365	-0.977925
C76	C	1.564048	-0.257326	-0.977945
C77	C	1.512147	-0.175314	-1.048722
C78	C	1.635226	-0.227302	-1.048748
C79	C	1.609282	-0.186304	-0.977990
C80	C	1.538002	-0.216416	-0.236259
C81	C	1.538177	-0.216305	-0.117954
H82	H	0.972357	-0.271943	-0.643816
H83	H	1.104775	-0.292066	-0.464307
H84	H	1.661405	-0.387411	-0.389367
Br85	Br	1.309462	-0.701118	-0.741193
Br86	Br	1.600554	-0.315105	-0.926109
Br87	Br	0.951114	-0.242755	-0.278738
H88	H	1.729759	-0.688330	-0.321444
Br89	Br	1.366638	-0.288569	-1.100482
H90	H	1.490146	-0.140636	-1.079681
H91	H	1.717300	-0.236594	-1.079881
H92	H	0.972131	-0.140811	-0.561094
H93	H	1.729857	-0.829089	-0.321488
Br94	Br	1.698481	-0.485248	-0.352476
H95	H	1.414752	-1.044955	-0.636287
Br96	Br	1.304181	-0.189895	-0.926078
Br97	Br	1.126022	-0.190062	-0.746804
Br98	Br	1.698800	-0.947067	-0.352566
Br99	Br	1.309389	-0.590542	-0.741159
Br100	Br	1.766770	-0.731233	-0.284531
Br101	Br	1.698874	-1.057660	-0.352606
Br102	Br	1.125672	-0.144056	-0.341701
Br103	Br	1.709575	-0.143971	-0.926554
H104	H	1.729689	-0.603223	-0.321420
Br105	Br	1.377717	-0.947120	-0.673210
Br106	Br	1.377352	-0.485309	-0.673072
Br107	Br	1.377300	-0.374713	-0.673063
H108	H	1.346460	-0.744029	-0.704241
Br109	Br	1.309556	-0.841875	-0.741192
