data_functionalizedCrystal
_audit_creation_method	'MofGen! by Chris Wilmer'
_symmetry_space_group_name_H-M	'P1'
_symmetry_Int_Tables_number	1
_symmetry_cell_setting	triclinic
loop_
_symmetry_equiv_pos_as_xyz
  x,y,z
_cell_length_a	14.908783
_cell_length_b	29.839133
_cell_length_c	29.839126
_cell_angle_alpha	89.986145
_cell_angle_beta	86.679520
_cell_angle_gamma	93.320846
loop_
_atom_site_label
_atom_site_type_symbol
_atom_site_fract_x
_atom_site_fract_y
_atom_site_fract_z
Zn1	Zn	1.379211	-0.139315	-0.293725
Zn2	Zn	1.379085	-0.214439	-0.218605
Zn3	Zn	1.228340	-0.143649	-0.214266
Zn4	Zn	1.228287	-0.218749	-0.289367
O5	O	1.303731	-0.179038	-0.253991
O6	O	1.505444	-0.145663	-0.287400
O7	O	1.359059	-0.205059	-0.155162
O8	O	1.248429	-0.080205	-0.224815
O9	O	1.505352	-0.200856	-0.232209
O10	O	1.359272	-0.077021	-0.283193
O11	O	1.248307	-0.153050	-0.151974
O12	O	1.102084	-0.157229	-0.220589
O13	O	1.248337	-0.208202	-0.352813
O14	O	1.102044	-0.212404	-0.275765
O15	O	1.359220	-0.149842	-0.356015
O16	O	1.359007	-0.277880	-0.227984
O17	O	1.248216	-0.281046	-0.279972
C18	C	1.069329	-0.185755	-0.247234
C19	C	0.969051	-0.188639	-0.244354
C20	C	0.780711	-0.136665	-0.296499
C21	C	0.686491	-0.139374	-0.293795
C22	C	0.686388	-0.196762	-0.236238
C23	C	0.780608	-0.194054	-0.238943
C24	C	0.827767	-0.164005	-0.269075
C25	C	0.921989	-0.161299	-0.271781
C26	C	0.921884	-0.218685	-0.214223
C27	C	0.827664	-0.221393	-0.211518
C28	C	1.303616	-0.295764	-0.253986
C29	C	1.303650	-0.345697	-0.254002
C30	C	1.361480	-0.700588	-0.284422
C31	C	1.361395	-0.512918	-0.284419
O32	O	1.410448	-0.487214	-0.310274
N33	N	1.303721	-0.491140	-0.254003
C34	C	1.246069	-0.516284	-0.223583
O35	O	1.197018	-0.493454	-0.197709
C36	C	1.246159	-0.703953	-0.223584
C37	C	1.303830	-0.725728	-0.254006
C38	C	1.419147	-0.722363	-0.314841
C39	C	1.419165	-0.769278	-0.314843
C40	C	1.361515	-0.794418	-0.284426
C41	C	1.303848	-0.772643	-0.254008
C42	C	1.188512	-0.729096	-0.193163
C43	C	1.188541	-0.776016	-0.193165
C44	C	1.246213	-0.797791	-0.223586
C45	C	1.246215	-0.844698	-0.223593
N46	N	1.303889	-0.866475	-0.254010
C47	C	1.361539	-0.841335	-0.284426
C48	C	1.246024	-0.417754	-0.223585
C49	C	1.246000	-0.370837	-0.223585
C50	C	1.361328	-0.367474	-0.284421
C51	C	1.361346	-0.414392	-0.284423
C52	C	1.303698	-0.439532	-0.254002
C53	C	1.361570	-0.939860	-0.284429
C54	C	1.361580	-0.986779	-0.284429
C55	C	1.246256	-0.990138	-0.223592
C56	C	1.246243	-0.943223	-0.223593
C57	C	1.303907	-0.918085	-0.254013
O58	O	1.197195	-0.870429	-0.197749
O59	O	1.410596	-0.864172	-0.310290
C60	C	1.361463	-0.653673	-0.284420
C61	C	1.303796	-0.631898	-0.254002
C62	C	1.246146	-0.657038	-0.223585
C63	C	1.303772	-0.584981	-0.254002
C64	C	1.361422	-0.559841	-0.284418
C65	C	1.419096	-0.581618	-0.314835
C66	C	1.419113	-0.628533	-0.314837
C67	C	1.188472	-0.635261	-0.193168
C68	C	1.188459	-0.588346	-0.193169
C69	C	1.246109	-0.563206	-0.223586
C70	C	1.539048	-0.172295	-0.260775
C71	C	1.639326	-0.169422	-0.263666
C72	C	1.303787	-0.179019	-0.371171
C73	C	1.303810	-0.179011	-0.421106
C74	C	1.303870	-0.061856	-0.254006
C75	C	1.303930	-0.011919	-0.254013
C76	C	1.246160	-0.151885	-0.729093
C77	C	1.246186	-0.151853	-0.916767
O78	O	1.197124	-0.128835	-0.939622
N79	N	1.303853	-0.178926	-0.941893
C80	C	1.361514	-0.206011	-0.920097
O81	O	1.410558	-0.229041	-0.945774
C82	C	1.361484	-0.206045	-0.732424
C83	C	1.303819	-0.178967	-0.707301
C84	C	1.188499	-0.124809	-0.703970
C85	C	1.188497	-0.124815	-0.657055
C86	C	1.246155	-0.151897	-0.635262
C87	C	1.303816	-0.178973	-0.660385
C88	C	1.419140	-0.233132	-0.710628
C89	C	1.419125	-0.233139	-0.663707
C90	C	1.361460	-0.206061	-0.638584
C91	C	1.361473	-0.206061	-0.591677
N92	N	1.303805	-0.178988	-0.566551
C93	C	1.246146	-0.151906	-0.588344
C94	C	1.361528	-0.205990	-1.018628
C95	C	1.361537	-0.205981	-1.065546
C96	C	1.246206	-0.151824	-1.062213
C97	C	1.246203	-0.151831	-1.015294
C98	C	1.303860	-0.178917	-0.993502
C99	C	1.246146	-0.151922	-0.489818
C100	C	1.246152	-0.151929	-0.442899
C101	C	1.361478	-0.206088	-0.446236
C102	C	1.361477	-0.206079	-0.493151
C103	C	1.303803	-0.178995	-0.514941
O104	O	1.410501	-0.229071	-0.568792
O105	O	1.197096	-0.128887	-0.562659
C106	C	1.246162	-0.151878	-0.776009
C107	C	1.303823	-0.178954	-0.801132
C108	C	1.361482	-0.206036	-0.779339
C109	C	1.303832	-0.178945	-0.848050
C110	C	1.246174	-0.151863	-0.869842
C111	C	1.188506	-0.124790	-0.844717
C112	C	1.188504	-0.124796	-0.797801
C113	C	1.419150	-0.233109	-0.804465
C114	C	1.419148	-0.233100	-0.851380
C115	C	1.361489	-0.206018	-0.873173
C116	C	1.303727	-0.179023	-0.137268
C117	C	1.303878	-0.178899	-0.087339
H118	H	0.960384	-0.136831	-0.296317
C119	C	1.182599	-0.445405	-0.190123
C120	C	1.111758	-0.479714	-0.207517
C121	C	1.048329	-0.507363	-0.174057
C122	C	1.055742	-0.500704	-0.123203
C123	C	1.126586	-0.466394	-0.105806
C124	C	1.190015	-0.438745	-0.139266
H125	H	1.106268	-0.484645	-0.245165
H126	H	0.995886	-0.532762	-0.186936
H127	H	1.008788	-0.521172	-0.098434
H128	H	1.132076	-0.461463	-0.068158
H129	H	1.242458	-0.413346	-0.126387
C130	C	0.973646	-0.248762	-0.184054
C131	C	0.921770	-0.281816	-0.150914
C132	C	0.973532	-0.311895	-0.120749
C133	C	1.077171	-0.308921	-0.123724
C134	C	1.129053	-0.275866	-0.156866
C135	C	1.077291	-0.245786	-0.187031
H136	H	0.845045	-0.284019	-0.148710
H137	H	0.935125	-0.336365	-0.096215
H138	H	1.115488	-0.331187	-0.101394
H139	H	1.205778	-0.273662	-0.159070
H140	H	1.115698	-0.221317	-0.211565
H141	H	0.819108	-0.112200	-0.321036
C142	C	0.634729	-0.109301	-0.323964
C143	C	0.569973	-0.130677	-0.357345
C144	C	0.518211	-0.100603	-0.387515
C145	C	0.531206	-0.049153	-0.384304
C146	C	0.595964	-0.027774	-0.350922
C147	C	0.647726	-0.057848	-0.320752
H148	H	0.560352	-0.168766	-0.359723
H149	H	0.470273	-0.116429	-0.412227
H150	H	0.492888	-0.026890	-0.406638
H151	H	0.605586	0.010315	-0.348543
H152	H	0.695665	-0.042022	-0.296040
H153	H	1.408303	-0.432118	-0.309197
C154	C	1.125077	-0.705154	-0.159693
C155	C	1.132526	-0.711412	-0.108842
C156	C	1.069088	-0.687472	-0.075369
C157	C	0.998201	-0.657274	-0.092747
C158	C	0.990748	-0.651014	-0.143601
C159	C	1.054186	-0.674954	-0.177074
H160	H	1.185004	-0.733768	-0.095975
H161	H	1.074606	-0.692106	-0.037723
H162	H	0.951240	-0.639552	-0.067969
H163	H	0.938270	-0.628658	-0.156468
H164	H	1.048669	-0.670320	-0.214720
H165	H	1.141547	-0.102746	-0.777350
C166	C	1.125072	-0.095013	-0.727936
C167	C	1.022505	-0.101613	-0.718515
C168	C	0.959080	-0.071811	-0.742476
C169	C	0.998222	-0.035409	-0.775860
C170	C	1.100794	-0.028807	-0.785283
C171	C	1.164219	-0.058609	-0.761321
H172	H	0.993526	-0.128562	-0.693801
H173	H	0.883149	-0.076699	-0.735501
H174	H	0.951270	-0.013347	-0.793598
H175	H	1.129773	-0.001858	-0.809997
H176	H	1.240150	-0.053721	-0.768297
C177	C	1.482551	-0.262934	-0.639735
C178	C	1.585118	-0.256331	-0.649153
C179	C	1.648544	-0.286125	-0.625181
C180	C	1.609402	-0.322522	-0.591792
C181	C	1.506829	-0.329127	-0.582373
C182	C	1.443404	-0.299333	-0.606344
H183	H	1.614098	-0.229386	-0.673871
H184	H	1.724475	-0.281236	-0.632154
H185	H	1.656353	-0.344578	-0.574047
H186	H	1.477849	-0.356072	-0.557654
H187	H	1.367473	-0.304222	-0.599371
H188	H	1.141536	-0.102767	-0.636604
C189	C	1.424996	-0.912213	-0.317893
C190	C	1.495849	-0.877906	-0.300505
C191	C	1.559268	-0.850259	-0.333971
C192	C	1.551834	-0.856918	-0.384824
C193	C	1.480978	-0.891226	-0.402214
C194	C	1.417559	-0.918873	-0.368748
H195	H	1.501354	-0.872976	-0.262858
H196	H	1.611720	-0.824862	-0.321097
H197	H	1.598781	-0.836452	-0.409598
H198	H	1.475473	-0.896157	-0.439861
H199	H	1.365106	-0.944270	-0.381622
C200	C	0.634500	-0.229812	-0.203094
C201	C	0.569708	-0.212154	-0.165997
C202	C	0.517817	-0.245203	-0.132854
C203	C	0.530718	-0.295910	-0.136807
C204	C	0.595513	-0.313570	-0.173905
C205	C	0.647404	-0.280521	-0.207049
H206	H	0.560155	-0.174616	-0.163070
H207	H	0.469852	-0.232130	-0.105391
H208	H	0.492306	-0.320375	-0.112272
H209	H	0.605066	-0.351109	-0.176833
H210	H	0.695369	-0.293594	-0.234512
C211	C	1.182713	-0.122143	-0.415264
C212	C	1.119287	-0.092357	-0.439239
C213	C	1.055849	-0.062573	-0.411606
C214	C	1.055838	-0.062575	-0.359998
C215	C	1.119268	-0.092363	-0.336020
C216	C	1.182705	-0.122147	-0.363653
H217	H	1.119293	-0.092354	-0.477445
H218	H	1.008895	-0.040522	-0.429357
H219	H	1.008878	-0.040527	-0.339543
H220	H	1.119262	-0.092366	-0.297814
H221	H	1.229659	-0.144198	-0.345902
H222	H	0.789255	-0.245857	-0.186984
C223	C	1.482564	-0.694715	-0.348306
C224	C	1.585133	-0.698191	-0.347647
C225	C	1.648548	-0.670547	-0.381117
C226	C	1.609394	-0.639428	-0.415248
C227	C	1.506819	-0.635951	-0.415908
C228	C	1.443405	-0.663594	-0.382437
H229	H	1.614122	-0.721228	-0.322380
H230	H	1.724480	-0.673121	-0.380628
H231	H	1.656337	-0.618964	-0.440025
H232	H	1.477830	-0.612913	-0.441175
H233	H	1.367472	-0.661020	-0.382927
H234	H	1.199247	-0.129781	-0.994842
H235	H	1.408541	-1.004506	-0.309205
H236	H	1.199261	-0.129771	-1.079964
H237	H	1.466133	-0.787003	-0.339612
H238	H	1.408267	-0.346997	-0.309188
H239	H	1.408503	-0.228026	-1.085998
H240	H	1.199029	-0.353112	-0.198818
C241	C	1.424881	-0.235884	-0.422253
C242	C	1.495723	-0.214402	-0.392038
C243	C	1.559113	-0.244203	-0.368051
C244	C	1.551661	-0.295486	-0.374280
C245	C	1.480817	-0.316971	-0.404496
C246	C	1.417427	-0.287170	-0.428483
H247	H	1.501242	-0.176436	-0.387426
H248	H	1.611557	-0.228298	-0.345683
H249	H	1.598586	-0.317547	-0.356523
H250	H	1.475298	-0.354937	-0.409108
H251	H	1.364983	-0.303075	-0.450851
H252	H	1.141597	-0.796482	-0.168391
C253	C	1.182801	-0.919266	-0.190133
C254	C	1.190229	-0.925516	-0.139279
C255	C	1.126794	-0.901562	-0.105817
C256	C	1.055930	-0.871357	-0.123208
C257	C	1.048499	-0.865105	-0.174065
C258	C	1.111935	-0.889060	-0.207527
H259	H	1.242689	-0.947877	-0.126403
H260	H	1.132295	-0.906190	-0.068169
H261	H	1.008972	-0.853624	-0.098437
H262	H	0.996040	-0.842744	-0.186941
H263	H	1.106433	-0.884431	-0.245175
C264	C	1.125079	-0.095000	-0.868695
C265	C	1.054236	-0.116498	-0.898899
C266	C	0.990808	-0.086713	-0.922879
C267	C	0.998224	-0.035428	-0.916655
C268	C	1.069070	-0.013927	-0.886450
C269	C	1.132497	-0.043713	-0.862469
H270	H	1.048744	-0.154465	-0.903508
H271	H	0.938363	-0.102630	-0.945240
H272	H	0.951271	-0.013379	-0.934407
H273	H	1.074562	0.024039	-0.881841
H274	H	1.184942	-0.027796	-0.840109
H275	H	1.408480	-0.228050	-1.000889
H276	H	1.199317	-1.010616	-0.198829
C277	C	1.482513	-0.553958	-0.348293
C278	C	1.553347	-0.519650	-0.330891
C279	C	1.616765	-0.491988	-0.364345
C280	C	1.609349	-0.498633	-0.415201
C281	C	1.538513	-0.532942	-0.432605
C282	C	1.475095	-0.560605	-0.399152
H283	H	1.558839	-0.514730	-0.293242
H284	H	1.669202	-0.466589	-0.351460
H285	H	1.656295	-0.478155	-0.439965
H286	H	1.533021	-0.537863	-0.470254
H287	H	1.422657	-0.586003	-0.412036
C288	C	1.482592	-0.262915	-0.738249
C289	C	1.475179	-0.314199	-0.731571
C290	C	1.538645	-0.343982	-0.759188
C291	C	1.609524	-0.322480	-0.793483
C292	C	1.616940	-0.271193	-0.800163
C293	C	1.553474	-0.241410	-0.772546
H294	H	1.422707	-0.330118	-0.706183
H295	H	1.533155	-0.381948	-0.754244
H296	H	1.656506	-0.344527	-0.813927
H297	H	1.669412	-0.255273	-0.825552
H298	H	1.558964	-0.203444	-0.777491
C299	C	1.182711	-0.122127	-0.513783
C300	C	1.080145	-0.128729	-0.504359
C301	C	1.016715	-0.098931	-0.528324
C302	C	1.055852	-0.062532	-0.561712
C303	C	1.158423	-0.055929	-0.571138
C304	C	1.221853	-0.085726	-0.547173
H305	H	1.051169	-0.155675	-0.479642
H306	H	0.940785	-0.103820	-0.521347
H307	H	1.008897	-0.040475	-0.579453
H308	H	1.187399	-0.028982	-0.595855
H309	H	1.297783	-0.080837	-0.554150
H310	H	1.466074	-0.646258	-0.339610
C311	C	1.482593	-0.262886	-0.879010
C312	C	1.475167	-0.314170	-0.872333
C313	C	1.538607	-0.343958	-0.899960
C314	C	1.609474	-0.322461	-0.934264
C315	C	1.616903	-0.271174	-0.940943
C316	C	1.553463	-0.241386	-0.913316
H317	H	1.422704	-0.330086	-0.846937
H318	H	1.533107	-0.381924	-0.895016
H319	H	1.656436	-0.344511	-0.954715
H320	H	1.669366	-0.255258	-0.966339
H321	H	1.558963	-0.203420	-0.918260
H322	H	1.141488	-0.570620	-0.168397
H323	H	1.141527	-0.655725	-0.168398
H324	H	1.408442	-0.228123	-0.513608
H325	H	1.466100	-0.255164	-0.786726
