data_functionalizedCrystal
_audit_creation_method	'MofGen! by Chris Wilmer'
_symmetry_space_group_name_H-M	'P1'
_symmetry_Int_Tables_number	1
_symmetry_cell_setting	triclinic
loop_
_symmetry_equiv_pos_as_xyz
  x,y,z
_cell_length_a	6.817900
_cell_length_b	11.102244
_cell_length_c	14.858572
_cell_angle_alpha	93.466518
_cell_angle_beta	104.524003
_cell_angle_gamma	108.604870
loop_
_atom_site_label
_atom_site_type_symbol
_atom_site_fract_x
_atom_site_fract_y
_atom_site_fract_z
V1	V	-4.064541	-0.176638	-0.289958
V2	V	-3.564541	0.323362	0.210042
O3	O	-4.024475	0.007665	-0.284441
O4	O	-3.524475	0.507665	0.215559
O5	O	-4.041634	-0.349452	-0.287972
O6	O	-3.541634	0.150548	0.212028
O7	O	-4.020832	-0.174282	-0.416419
O8	O	-3.520832	0.325718	0.083581
O9	O	-4.045421	-0.168718	-0.155104
O10	O	-3.545421	0.331282	0.344896
V11	V	-4.544258	-0.154551	-0.273828
V12	V	-4.044258	0.345449	0.226172
O13	O	-4.334149	-0.225089	-0.325339
O14	O	-3.834149	0.274911	0.174661
O15	O	-4.724848	-0.106100	-0.238448
O16	O	-4.224848	0.393900	0.261552
O17	O	-4.343959	0.018263	-0.275814
O18	O	-3.843959	0.518263	0.224186
O19	O	-4.701722	-0.338854	-0.279346
O20	O	-4.201722	0.161146	0.220654
O21	O	-4.680776	-0.162471	-0.408682
O22	O	-4.180776	0.337529	0.091318
O23	O	-4.364762	-0.156907	-0.147367
O24	O	-3.864762	0.343093	0.352633
C25	C	-3.892685	-0.391569	-0.283397
C26	C	-3.392685	0.108431	0.216603
C27	C	-3.955273	-0.532850	-0.282617
C28	C	-3.455273	-0.032850	0.217383
C29	C	-3.938305	-0.580848	-0.197090
C30	C	-3.438305	-0.080848	0.302910
C31	C	-3.997126	-0.713599	-0.196367
C32	C	-3.497126	-0.213599	0.303633
C33	C	-4.089876	-0.750341	-0.366707
C34	C	-3.589876	-0.250341	0.133293
C35	C	-4.031069	-0.617593	-0.367428
C36	C	-3.531069	-0.117593	0.132572
C37	C	-3.862509	-0.496105	-0.112279
C38	C	-3.362509	0.003895	0.387721
C39	C	-3.845534	-0.544102	-0.026744
C40	C	-3.345534	-0.044102	0.473256
C41	C	-3.904356	-0.676852	-0.026022
C42	C	-3.404356	-0.176852	0.473978
C43	C	-3.980152	-0.761605	-0.110834
C44	C	-3.480152	-0.261605	0.389166
C45	C	-3.866148	-0.168121	-0.447243
C46	C	-3.366148	0.331879	0.052757
C47	C	-3.911863	-0.167338	-0.550626
C48	C	-3.411863	0.332662	-0.050626
C49	C	-4.079180	-0.164478	-0.929195
C50	C	-3.579180	0.335522	-0.429195
C51	C	-4.032619	-0.165274	-0.823865
C52	C	-3.532619	0.334726	-0.323865
C53	C	-3.995523	-0.165909	-0.739914
C54	C	-3.495523	0.334091	-0.239914
C55	C	-3.948958	-0.166703	-0.634578
C56	C	-3.448958	0.333297	-0.134578
C57	C	-4.156252	0.060374	-0.280386
C58	C	-3.656252	0.560374	0.219614
C59	C	-4.072902	0.201653	-0.281173
C60	C	-3.572902	0.701653	0.218827
C61	C	-4.182788	-0.163072	-0.116538
C62	C	-3.682788	0.336928	0.383462
C63	C	-4.116311	-0.163848	-0.013154
C64	C	-3.616311	0.336152	0.486846
H65	H	-4.151586	-0.819356	-0.435756
H66	H	-3.651586	-0.319356	0.064244
H67	H	-4.028059	-0.869699	-0.110239
H68	H	-3.528059	-0.369699	0.389761
N69	N	-3.799088	-0.352927	-0.113055
N70	N	-3.299088	0.147073	0.386945
H71	H	-3.821343	-0.335378	-0.180107
H72	H	-3.321343	0.164622	0.319893
H73	H	-3.642101	-0.309420	-0.076596
H74	H	-3.142101	0.190580	0.423404
N75	N	-4.049376	-0.565811	-0.459673
N76	N	-3.549376	-0.065811	0.040327
H77	H	-4.106301	-0.639637	-0.513291
H78	H	-3.606301	-0.139637	-0.013291
H79	H	-3.902367	-0.507119	-0.460528
H80	H	-3.402367	-0.007119	0.039472
H81	H	-3.783835	-0.475089	0.042305
H82	H	-3.283835	0.024911	0.542305
H83	H	-3.890551	-0.715928	0.043623
H84	H	-3.390551	-0.215928	0.543623
