data_functionalizedCrystal
_audit_creation_method	'MofGen! by Chris Wilmer'
_symmetry_space_group_name_H-M	'P1'
_symmetry_Int_Tables_number	1
_symmetry_cell_setting	triclinic
loop_
_symmetry_equiv_pos_as_xyz
  x,y,z
_cell_length_a	19.188931
_cell_length_b	11.792241
_cell_length_c	10.868271
_cell_angle_alpha	90.005281
_cell_angle_beta	89.997213
_cell_angle_gamma	96.330902
loop_
_atom_site_label
_atom_site_type_symbol
_atom_site_fract_x
_atom_site_fract_y
_atom_site_fract_z
O1	O	0.926947	-0.141694	-0.102278
O2	O	1.260280	0.191639	0.231055
O3	O	1.593614	0.524972	0.564388
O4	O	0.723744	-0.160769	-0.102291
O5	O	1.057077	0.172565	0.231043
O6	O	1.390411	0.505898	0.564376
O7	O	0.830277	0.014013	-0.102276
O8	O	1.163610	0.347346	0.231058
O9	O	1.496943	0.680680	0.564391
O10	O	0.820414	-0.316476	-0.102293
O11	O	1.153748	0.016858	0.231040
O12	O	1.487081	0.350191	0.564373
O13	O	0.830268	0.014020	0.102369
O14	O	1.163601	0.347353	0.435702
O15	O	1.496934	0.680686	0.769036
O16	O	0.723735	-0.160762	0.102354
O17	O	1.057068	0.172571	0.435687
O18	O	1.390402	0.505905	0.769021
O19	O	0.926938	-0.141688	0.102366
O20	O	1.260272	0.191646	0.435700
O21	O	1.593605	0.524979	0.769033
Zn22	Zn	0.825335	-0.151224	0.134852
Zn23	Zn	1.158669	0.182110	0.468185
Zn24	Zn	1.492002	0.515443	0.801519
Zn25	Zn	0.825347	-0.151233	-0.134776
Zn26	Zn	1.158680	0.182101	0.198557
Zn27	Zn	1.492014	0.515434	0.531890
O28	O	0.820405	-0.316469	0.102351
O29	O	1.153739	0.016864	0.435685
O30	O	1.487072	0.350198	0.769018
C31	C	0.829653	0.056298	0.000046
C32	C	1.162986	0.389631	0.333380
C33	C	1.496319	0.722965	0.666713
C34	C	0.827798	0.182284	0.000045
C35	C	1.161132	0.515617	0.333378
C36	C	1.494465	0.848951	0.666712
C37	C	0.697725	-0.160148	0.000030
C38	C	1.031058	0.173186	0.333363
C39	C	1.364392	0.506519	0.666697
C40	C	0.620210	-0.158293	0.000026
C41	C	0.953543	0.175040	0.333359
C42	C	1.286877	0.508373	0.666692
C43	C	0.952957	-0.142309	0.000043
C44	C	1.286291	0.191025	0.333376
C45	C	1.619624	0.524358	0.666709
C46	C	1.030472	-0.144163	0.000039
C47	C	1.363806	0.189170	0.333372
C48	C	1.697139	0.522504	0.666706
C49	C	1.074815	-0.041607	0.000034
C50	C	1.408149	0.291727	0.333367
C51	C	1.741482	0.625060	0.666701
C52	C	1.147649	-0.043349	0.000041
C53	C	1.480982	0.289985	0.333375
C54	C	1.814316	0.623318	0.666708
C55	C	1.176136	-0.147653	0.000029
C56	C	1.509470	0.185681	0.333362
C57	C	1.842803	0.519014	0.666696
C58	C	1.131783	-0.250222	0.000041
C59	C	1.465117	0.083111	0.333374
C60	C	1.798450	0.416444	0.666708
C61	C	1.058951	-0.248477	0.000046
C62	C	1.392285	0.084856	0.333379
C63	C	1.725618	0.418189	0.666713
N64	N	1.284586	-0.227383	-0.069640
N65	N	1.617919	0.105951	0.263693
N66	N	1.951252	0.439284	0.597026
N67	N	1.353774	-0.229033	-0.069648
N68	N	1.687107	0.104300	0.263686
N69	N	2.020440	0.437633	0.597019
C70	C	1.395575	-0.152916	0.000016
C71	C	1.728908	0.180417	0.333350
C72	C	2.062241	0.513750	0.666683
N73	N	1.365576	-0.075069	0.069673
N74	N	1.698909	0.258264	0.403006
N75	N	2.032242	0.591597	0.736340
N76	N	1.296382	-0.073415	0.069675
N77	N	1.629715	0.259918	0.403008
N78	N	1.963048	0.593251	0.736341
C79	C	1.255110	-0.149556	0.000024
C80	C	1.588443	0.183777	0.333358
C81	C	1.921776	0.517110	0.666691
C82	C	1.518893	-0.052242	0.000021
C83	C	1.852226	0.281091	0.333354
C84	C	2.185560	0.614425	0.666688
C85	C	1.591728	-0.053988	0.000036
C86	C	1.925061	0.279345	0.333369
C87	C	2.258394	0.612678	0.666703
C88	C	1.575861	-0.260865	0.000023
C89	C	1.909194	0.072468	0.333357
C90	C	2.242527	0.405802	0.666690
C91	C	1.503027	-0.259116	0.000021
C92	C	1.836361	0.074218	0.333354
C93	C	2.169694	0.407551	0.666687
C94	C	1.474548	-0.154801	0.000014
C95	C	1.807882	0.178532	0.333347
C96	C	2.141215	0.511866	0.666680
C97	C	0.821029	-0.358754	0.000027
C98	C	1.154363	-0.025421	0.333360
C99	C	1.487696	0.307913	0.666693
C100	C	0.822884	-0.484740	0.000020
C101	C	1.156217	-0.151407	0.333353
C102	C	1.489550	0.181927	0.666686
N103	N	0.825332	-0.151217	0.318866
N104	N	1.158666	0.182116	0.652199
N105	N	1.491999	0.515450	0.985533
C106	C	0.824389	0.412945	0.000024
C107	C	1.157722	0.746278	0.333358
C108	C	1.491056	1.079612	0.666691
C109	C	0.826283	0.284588	0.000035
C110	C	1.159617	0.617922	0.333369
C111	C	1.492950	0.951255	0.666702
N112	N	0.825355	-0.151230	-0.318790
N113	N	1.158689	0.182103	0.014543
N114	N	1.492022	0.515436	0.347876
C115	C	0.825343	-0.151230	0.569872
C116	C	1.158677	0.182103	0.903205
C117	C	1.492010	0.515436	1.236539
C118	C	0.825335	-0.151226	0.430194
C119	C	1.158668	0.182107	0.763528
C120	C	1.492002	0.515440	1.096861
H121	H	1.051633	0.043334	0.000033
H122	H	1.384966	0.376667	0.333366
H123	H	1.718299	0.710001	0.666699
H124	H	1.627832	0.029529	0.000040
H125	H	1.961165	0.362862	0.333374
H126	H	2.294498	0.696195	0.666707
H127	H	1.154983	-0.335147	0.000034
H128	H	1.488316	-0.001814	0.333367
H129	H	1.821649	0.331519	0.666701
Cl130	Cl	1.203405	0.085589	0.000031
Cl131	Cl	1.536738	0.418922	0.333364
Cl132	Cl	1.870072	0.752255	0.666697
Cl133	Cl	1.483087	0.078893	0.000039
Cl134	Cl	1.816420	0.412226	0.333372
Cl135	Cl	2.149754	0.745560	0.666706
Cl136	Cl	1.003203	-0.377416	0.000049
Cl137	Cl	1.336536	-0.044083	0.333382
Cl138	Cl	1.669869	0.289251	0.666715
H139	H	1.599054	-0.345791	0.000021
H140	H	1.932387	-0.012458	0.333355
H141	H	2.265721	0.320875	0.666688
Cl142	Cl	1.447279	-0.388051	0.000013
Cl143	Cl	1.780612	-0.054718	0.333347
Cl144	Cl	2.113945	0.278616	0.666680
