data_functionalizedCrystal
_audit_creation_method	'MofGen! by Chris Wilmer'
_symmetry_space_group_name_H-M	'P1'
_symmetry_Int_Tables_number	1
_symmetry_cell_setting	triclinic
loop_
_symmetry_equiv_pos_as_xyz
  x,y,z
_cell_length_a	17.000383
_cell_length_b	17.038272
_cell_length_c	17.766277
_cell_angle_alpha	89.993732
_cell_angle_beta	89.987363
_cell_angle_gamma	83.355929
loop_
_atom_site_label
_atom_site_type_symbol
_atom_site_fract_x
_atom_site_fract_y
_atom_site_fract_z
O1	O	1.058005	0.028053	-0.062646
O2	O	1.558005	0.528053	0.437354
O3	O	0.828185	0.056296	-0.062637
O4	O	1.328185	0.556296	0.437363
O5	O	0.941729	-0.071547	-0.062635
O6	O	1.441729	0.428453	0.437365
O7	O	0.944461	0.155896	-0.062647
O8	O	1.444461	0.655896	0.437353
O9	O	0.941708	-0.071552	0.062553
O10	O	1.441708	0.428448	0.562553
O11	O	0.828164	0.056291	0.062552
O12	O	1.328164	0.556291	0.562552
O13	O	1.057983	0.028048	0.062542
O14	O	1.557983	0.528048	0.562542
Cu15	Cu	0.943071	0.042169	0.073978
Cu16	Cu	1.443071	0.542169	0.573978
Cu17	Cu	0.943097	0.042175	-0.074072
Cu18	Cu	1.443097	0.542175	0.425928
O19	O	0.944439	0.155892	0.062541
O20	O	1.444439	0.655892	0.562541
C21	C	0.798624	0.057810	-0.000041
C22	C	1.298624	0.557810	0.499959
C23	C	0.710571	0.062321	-0.000037
C24	C	1.210571	0.562321	0.499963
C25	C	0.939234	-0.100508	-0.000041
C26	C	1.439234	0.399492	0.499959
C27	C	0.931821	-0.186793	-0.000041
C28	C	1.431821	0.313207	0.499959
C29	C	0.212326	0.091445	-0.000067
C30	C	0.712326	0.591445	0.499933
C31	C	0.295061	0.087201	-0.000066
C32	C	0.795061	0.587201	0.499934
C33	C	0.341068	0.013535	-0.000057
C34	C	0.841068	0.513535	0.499943
C35	C	0.304335	-0.055892	-0.000055
C36	C	0.804335	0.444108	0.499945
C37	C	0.221601	-0.051647	-0.000062
C38	C	0.721601	0.448353	0.499938
C39	C	0.591103	-0.002861	-0.000042
C40	C	1.091103	0.497139	0.499958
C41	C	0.673843	-0.007101	-0.000034
C42	C	1.173843	0.492899	0.499966
C43	C	0.664564	0.135993	-0.000046
C44	C	1.164564	0.635993	0.499954
C45	C	0.581828	0.140231	-0.000048
C46	C	1.081828	0.640231	0.499952
C47	C	0.545103	0.070804	-0.000051
C48	C	1.045103	0.570804	0.499949
C49	C	0.425637	0.009195	-0.000053
C50	C	0.925637	0.509195	0.499947
C51	C	0.460535	0.075145	-0.000059
C52	C	0.960535	0.575145	0.499941
C53	C	0.999879	-0.241568	-0.000043
C54	C	1.499879	0.258432	0.499957
C55	C	0.992910	-0.322641	-0.000050
C56	C	1.492910	0.177359	0.499950
C57	C	0.917881	-0.348938	-0.000049
C58	C	1.417881	0.151062	0.499951
C59	C	0.849817	-0.294156	-0.000050
C60	C	1.349817	0.205844	0.499950
C61	C	0.856788	-0.213085	-0.000048
C62	C	1.356788	0.286915	0.499952
C63	C	0.893255	-0.593009	-0.000059
C64	C	1.393255	-0.093009	0.499941
C65	C	0.886289	-0.674088	-0.000058
C66	C	1.386289	-0.174088	0.499942
C67	C	1.029382	-0.702567	-0.000060
C68	C	1.529382	-0.202567	0.499940
C69	C	1.036346	-0.621493	-0.000054
C70	C	1.536346	-0.121493	0.499946
C71	C	0.968283	-0.566718	-0.000058
C72	C	1.468283	-0.066718	0.499942
C73	C	0.910755	-0.431807	-0.000054
C74	C	1.410755	0.068193	0.499946
C75	C	0.975410	-0.483850	-0.000059
C76	C	1.475410	0.016150	0.499941
C77	C	1.087545	0.026534	-0.000055
C78	C	1.587545	0.526534	0.499945
C79	C	1.175598	0.022024	-0.000064
C80	C	1.675598	0.522024	0.499936
C81	C	0.946935	0.184852	-0.000055
C82	C	1.446935	0.684852	0.499945
C83	C	0.954348	0.271137	-0.000060
C84	C	1.454348	0.771137	0.499940
N85	N	0.943059	0.042165	0.178108
N86	N	1.443059	0.542165	0.678108
N87	N	0.943115	0.042173	-0.178202
N88	N	1.443115	0.542173	0.321798
C89	C	0.993356	-0.014419	0.217496
C90	C	1.493356	0.485581	0.717496
C91	C	0.993360	-0.014423	0.296297
C92	C	1.493360	0.485577	0.796297
C93	C	0.943076	0.042170	0.335709
C94	C	1.443076	0.542170	0.835709
C95	C	0.892770	0.098759	0.296312
C96	C	1.392770	0.598759	0.796312
C97	C	0.892761	0.098756	0.217511
C98	C	1.392761	0.598756	0.717511
C99	C	0.937495	0.113760	0.460543
C100	C	1.437495	0.613760	0.960543
C101	C	0.937509	0.113763	0.539342
C102	C	1.437509	0.613763	1.039342
C103	C	0.943098	0.042178	0.578755
C104	C	1.443098	0.542178	1.078755
C105	C	0.948689	-0.029415	0.539360
C106	C	1.448689	0.470585	1.039360
C107	C	0.948681	-0.029417	0.460559
C108	C	1.448681	0.470583	0.960559
C109	C	0.943080	0.042178	0.421154
C110	C	1.443080	0.542178	0.921154
C111	C	0.993402	-0.014415	0.703588
C112	C	1.493402	0.485585	1.203588
C113	C	0.993401	-0.014420	0.782392
C114	C	1.493401	0.485580	1.282392
C115	C	0.892815	0.098769	0.782404
C116	C	1.392815	0.598769	1.282404
C117	C	0.892812	0.098767	0.703603
C118	C	1.392812	0.598767	1.203603
C119	C	0.943110	0.042175	0.664199
C120	C	1.443110	0.542175	1.164199
H121	H	0.174873	0.151432	-0.000069
H122	H	0.674873	0.651432	0.499931
H123	H	0.953240	-0.087707	0.571448
H124	H	1.453240	0.412293	1.071448
H125	H	0.788727	-0.315573	-0.000054
H126	H	1.288727	0.184427	0.499946
F127	F	0.703656	0.209876	-0.000047
F128	F	1.203656	0.709876	0.499953
H129	H	0.711300	-0.067092	-0.000030
H130	H	1.211300	0.432908	0.499970
F131	F	1.101815	-0.760867	-0.000056
F132	F	1.601815	-0.260867	0.499944
F133	F	1.046930	-0.074648	0.661652
F134	F	1.546930	0.425352	1.161652
H135	H	0.561212	-0.059393	-0.000043
H136	H	1.061212	0.440607	0.499957
F137	F	0.954625	-0.105609	0.418635
F138	F	1.454625	0.394391	0.918635
H139	H	0.825189	-0.695494	-0.000045
H140	H	1.325189	-0.195494	0.499955
H141	H	1.048330	-0.367237	-0.000050
H142	H	1.548330	0.132763	0.499950
H143	H	0.423073	0.135124	-0.000070
H144	H	0.923073	0.635124	0.499930
F145	F	1.046931	-0.074651	0.824312
F146	F	1.546931	0.425349	1.324312
F147	F	0.839251	0.158987	0.338256
F148	F	1.339251	0.658987	0.838256
F149	F	0.839294	0.158995	0.824345
F150	F	1.339294	0.658995	1.324345
H151	H	0.837832	-0.548421	-0.000062
H152	H	1.337832	-0.048421	0.499938
F153	F	0.784350	-0.154789	-0.000048
F154	F	1.284350	0.345211	0.499952
H155	H	0.851859	0.144846	0.671531
H156	H	1.351859	0.644846	1.171531
F157	F	0.931604	0.189954	0.418605
F158	F	1.431604	0.689954	0.918605
F159	F	1.046895	-0.074651	0.338223
F160	F	1.546895	0.425349	0.838223
F161	F	1.055258	-0.455861	-0.000063
F162	F	1.555258	0.044139	0.499937
H163	H	0.849666	-0.453227	-0.000052
H164	H	1.349666	0.046773	0.499948
H165	H	0.932962	0.172057	0.571412
H166	H	1.432962	0.672057	1.071412
H167	H	1.034309	-0.060501	0.185416
H168	H	1.534309	0.439499	0.685416
H169	H	1.060976	-0.220165	-0.000039
H170	H	1.560976	0.279835	0.499961
F171	F	0.474608	-0.069204	-0.000037
F172	F	0.974608	0.430796	0.499963
F173	F	1.116202	-0.593513	-0.000073
F174	F	1.616202	-0.093513	0.499927
F175	F	0.353301	-0.134293	-0.000048
F176	F	0.853301	0.365707	0.499952
F177	F	0.334145	0.161089	-0.000073
F178	F	0.834145	0.661089	0.499927
F179	F	0.839227	0.158983	0.175591
F180	F	1.339227	0.658983	0.675591
H181	H	0.544375	0.200218	-0.000058
H182	H	1.044375	0.700218	0.499942
H183	H	0.191699	-0.108177	-0.000060
H184	H	0.691699	0.391823	0.499940
