data_functionalizedCrystal
_audit_creation_method	'MofGen! by Chris Wilmer'
_symmetry_space_group_name_H-M	'P1'
_symmetry_Int_Tables_number	1
_symmetry_cell_setting	triclinic
loop_
_symmetry_equiv_pos_as_xyz
  x,y,z
_cell_length_a	10.654562
_cell_length_b	8.965430
_cell_length_c	10.654551
_cell_angle_alpha	89.997907
_cell_angle_beta	95.512267
_cell_angle_gamma	90.000074
loop_
_atom_site_label
_atom_site_type_symbol
_atom_site_fract_x
_atom_site_fract_y
_atom_site_fract_z
O1	O	-1.667820	0.124127	0.176469
O2	O	-1.302343	0.124108	0.193258
O3	O	-1.493484	0.124119	0.002125
O4	O	-1.476679	0.124116	0.367602
O5	O	-1.493493	-0.123960	0.002131
O6	O	-1.302352	-0.123971	0.193264
O7	O	-1.667829	-0.123952	0.176475
Cu8	Cu	-1.485091	-0.146613	0.184870
Cu9	Cu	-1.485081	0.146769	0.184863
O10	O	-1.476688	-0.123962	0.367608
C11	C	-1.255550	0.000066	0.192025
C12	C	-1.116108	0.000059	0.188327
C13	C	-1.492254	0.000083	-0.044670
C14	C	-1.488562	0.000093	-0.184114
C15	C	-1.714622	0.000094	0.177708
C16	C	-1.854064	0.000110	0.181406
C17	C	-1.050582	-0.135157	0.186605
C18	C	-0.919560	-0.135132	0.183140
C19	C	-0.919600	0.135337	0.183124
C20	C	-1.050621	0.135310	0.186580
C21	C	-1.116069	-0.270409	0.188352
C22	C	-1.050543	-0.405636	0.186631
C23	C	-0.919520	-0.405611	0.183167
C24	C	-0.854024	-0.270359	0.181422
N25	N	-1.485108	-0.352962	0.184874
C26	C	-1.573533	-0.450223	0.096487
C27	C	-1.459831	-0.549633	0.071100
C28	C	-1.598765	-0.549679	0.210180
C29	C	-1.371349	-0.450183	0.159430
C30	C	-1.510358	-0.450221	0.298560
C31	C	-1.396575	-0.549586	0.273220
N32	N	-1.485074	0.353118	0.184849
C33	C	-1.486825	0.135318	-0.249629
C34	C	-1.483344	0.135311	-0.380650
C35	C	-1.483344	-0.135159	-0.380629
C36	C	-1.486815	-0.135150	-0.249609
C37	C	-1.488571	0.270560	-0.184134
C38	C	-1.486836	0.405796	-0.249649
C39	C	-1.483355	0.405789	-0.380670
C40	C	-1.481611	0.270546	-0.446175
C41	C	-1.477918	0.000077	0.414403
C42	C	-1.481610	0.000077	0.553846
H43	H	-1.222753	-0.270444	0.191177
F44	F	-1.481489	-0.279083	-0.450348
F45	F	-1.492281	0.270579	-0.044691
H46	H	-1.531773	-0.406520	0.394683
F47	F	-1.120363	0.279223	0.188410
H48	H	-1.321700	-0.592939	0.347959
F49	F	-1.120251	-0.549572	0.188476
F50	F	-0.714581	-0.270339	0.177704
F51	F	-1.431877	-0.606700	-0.054578
F52	F	-1.488670	-0.279072	-0.179880
H53	H	-0.866174	-0.515719	0.181756
H54	H	-0.866262	0.245453	0.181707
H55	H	-1.481929	0.515905	-0.434007
F56	F	-1.671180	-0.393193	-0.001258
H57	H	-1.275194	-0.406663	0.137906
H58	H	-1.694897	-0.593383	0.231595
H59	H	-1.488244	0.515906	-0.196305
H60	H	-1.478759	0.270551	-0.552858
