data_functionalizedCrystal
_audit_creation_method	'MofGen! by Chris Wilmer'
_symmetry_space_group_name_H-M	'P1'
_symmetry_Int_Tables_number	1
_symmetry_cell_setting	triclinic
loop_
_symmetry_equiv_pos_as_xyz
  x,y,z
_cell_length_a	10.654556
_cell_length_b	14.519709
_cell_length_c	9.730223
_cell_angle_alpha	89.994652
_cell_angle_beta	89.998368
_cell_angle_gamma	84.083841
loop_
_atom_site_label
_atom_site_type_symbol
_atom_site_fract_x
_atom_site_fract_y
_atom_site_fract_z
O1	O	1.666589	0.129560	-0.114241
O2	O	1.300993	0.141895	-0.114256
O3	O	1.493484	0.001540	-0.114236
O4	O	1.474097	0.269916	-0.114261
O5	O	1.493472	0.001536	0.114344
O6	O	1.300980	0.141891	0.114324
O7	O	1.666576	0.129556	0.114339
Zn8	Zn	1.483776	0.135723	0.150623
Zn9	Zn	1.483793	0.135728	-0.150540
O10	O	1.474085	0.269912	0.114319
C11	C	1.254197	0.140986	0.000033
C12	C	1.114781	0.138273	0.000027
C13	C	0.918279	0.134454	-0.124561
C14	C	1.049276	0.136998	-0.124569
C15	C	1.049282	0.136994	0.124641
C16	C	0.918287	0.134443	0.124648
C17	C	1.492574	-0.032827	0.000054
C18	C	1.489867	-0.135222	0.000055
C19	C	1.479900	-0.510170	0.000019
C20	C	1.482667	-0.405848	0.000029
C21	C	1.484883	-0.322699	0.000038
C22	C	1.487651	-0.218370	0.000046
C23	C	1.713372	0.130465	0.000047
C24	C	1.852788	0.133179	0.000044
C25	C	1.474995	0.304278	0.000026
C26	C	1.477702	0.406673	0.000016
N27	N	1.483774	0.135719	0.356160
N28	N	1.483804	0.135725	-0.356077
C29	C	1.569038	0.073596	0.428095
C30	C	1.569051	0.073596	0.571978
C31	C	1.398531	0.197851	0.571978
C32	C	1.398514	0.197845	0.428098
H33	H	1.102627	0.138026	0.226090
H34	H	1.638461	0.023008	0.369526
F35	F	1.307755	0.263965	0.351534
F36	F	1.659798	0.007475	0.648531
F37	F	0.848575	0.133105	-0.257176
H38	H	0.864964	0.133404	0.226122
H39	H	1.102593	0.138036	-0.226034
H40	H	1.329116	0.248434	0.630565
