data_functionalizedCrystal
_audit_creation_method	'MofGen! by Chris Wilmer'
_symmetry_space_group_name_H-M	'P1'
_symmetry_Int_Tables_number	1
_symmetry_cell_setting	triclinic
loop_
_symmetry_equiv_pos_as_xyz
  x,y,z
_cell_length_a	10.654556
_cell_length_b	12.503572
_cell_length_c	10.654550
_cell_angle_alpha	86.442489
_cell_angle_beta	84.486234
_cell_angle_gamma	93.550906
loop_
_atom_site_label
_atom_site_type_symbol
_atom_site_fract_x
_atom_site_fract_y
_atom_site_fract_z
O1	O	1.675012	0.089280	0.169238
O2	O	1.309536	0.089291	0.186035
O3	O	1.500676	0.089278	-0.005102
O4	O	1.483872	0.089292	0.360375
O5	O	1.486302	-0.089363	0.009297
O6	O	1.295161	-0.089350	0.200434
O7	O	1.660638	-0.089361	0.183637
Cu8	Cu	1.476587	-0.105667	0.193350
Cu9	Cu	1.493587	0.105596	0.176322
O10	O	1.469497	-0.089349	0.374774
C11	C	1.255551	-0.000029	0.191999
C12	C	1.116108	-0.000024	0.188304
N13	N	1.464639	-0.254259	0.205326
C14	C	0.927398	0.097344	0.175253
C15	C	1.058420	0.097351	0.178717
C16	C	1.042767	-0.097413	0.194415
C17	C	0.911748	-0.097419	0.190942
C18	C	1.447064	-0.473373	0.222953
C19	C	1.523115	-0.526705	0.146712
C20	C	1.513336	-0.648628	0.156521
C21	C	1.456841	-0.351439	0.213147
C22	C	1.714623	-0.000040	0.177672
C23	C	1.854066	-0.000037	0.181367
C24	C	1.492255	-0.000042	-0.044701
C25	C	1.488563	-0.000040	-0.184144
N26	N	1.505544	0.254188	0.164336
C27	C	1.601104	-0.000043	-0.263627
C28	C	1.597629	-0.000030	-0.394649
C29	C	1.369061	-0.000015	-0.366692
C30	C	1.372539	-0.000021	-0.235673
C31	C	1.477918	-0.000027	0.414372
C32	C	1.481611	-0.000021	0.553815
H33	H	0.880438	0.176639	0.167455
N34	N	1.614054	-0.469159	0.055599
N35	N	1.610201	-0.481619	-0.059500
H36	H	1.674441	-0.440982	-0.123838
H37	H	1.089748	-0.176698	0.202213
N38	N	1.719614	-0.000076	-0.210987
N39	N	1.789681	-0.075384	-0.228918
H40	H	1.873382	-0.075407	-0.191744
N41	N	1.356164	-0.530956	0.314061
N42	N	1.272826	-0.593744	0.278600
H43	H	1.208629	-0.634424	0.342944
N44	N	1.712600	-0.000025	-0.475821
N45	N	1.816178	-0.000036	-0.429791
H46	H	1.897383	-0.000030	-0.487118
N47	N	1.250562	0.000006	-0.419352
N48	N	1.247471	0.000011	-0.536334
H49	H	1.163778	0.000025	-0.573525
H50	H	0.852038	-0.176723	0.195920
N51	N	1.257576	0.000004	-0.154475
N52	N	1.186735	0.075316	-0.165808
H53	H	1.105547	0.075339	-0.108462
N54	N	1.133309	0.196834	0.172460
N55	N	1.081787	0.283768	0.163904
H56	H	1.134676	0.354033	0.159482
