data_functionalizedCrystal
_audit_creation_method	'MofGen! by Chris Wilmer'
_symmetry_space_group_name_H-M	'P1'
_symmetry_Int_Tables_number	1
_symmetry_cell_setting	triclinic
loop_
_symmetry_equiv_pos_as_xyz
  x,y,z
_cell_length_a	13.339070
_cell_length_b	19.288864
_cell_length_c	18.366186
_cell_angle_alpha	89.971967
_cell_angle_beta	89.991197
_cell_angle_gamma	99.382770
loop_
_atom_site_label
_atom_site_type_symbol
_atom_site_fract_x
_atom_site_fract_y
_atom_site_fract_z
O1	O	1.340704	0.347912	-0.060715
O2	O	1.046385	0.302246	-0.060692
O3	O	1.202049	0.225606	-0.060659
O4	O	1.185040	0.424552	-0.060748
O5	O	1.202022	0.225596	0.060440
O6	O	1.046358	0.302236	0.060407
O7	O	1.340677	0.347901	0.060384
Zn8	Zn	1.193514	0.325067	0.079623
Zn9	Zn	1.193548	0.325081	-0.079931
O10	O	1.185014	0.424542	0.060351
C11	C	1.008718	0.294528	-0.000139
C12	C	0.896521	0.271535	-0.000128
C13	C	1.185574	0.450530	-0.000210
C14	C	1.187217	0.527954	-0.000245
C15	C	1.201488	0.199618	-0.000100
C16	C	1.199845	0.122194	-0.000070
C17	C	0.530913	0.450315	-0.000219
C18	C	0.636327	0.471920	-0.000232
C19	C	0.701381	0.421825	-0.000206
C20	C	0.661010	0.350122	-0.000167
C21	C	0.555585	0.328515	-0.000161
C22	C	0.726053	0.300026	-0.000147
C23	C	0.685682	0.228322	-0.000109
C24	C	0.580267	0.206719	-0.000101
C25	C	0.515214	0.256813	-0.000127
C26	C	0.831477	0.321633	-0.000154
C27	C	0.856149	0.199833	-0.000095
C28	C	0.750735	0.178228	-0.000082
C29	C	1.378345	0.355620	-0.000171
C30	C	1.490542	0.378613	-0.000186
N31	N	1.193497	0.325059	0.188514
C32	C	1.095880	0.554851	-0.000223
C33	C	1.097424	0.627599	-0.000207
C34	C	1.190309	0.673447	-0.000197
C35	C	1.281658	0.646542	-0.000223
C36	C	1.280111	0.573795	-0.000247
C37	C	1.263318	0.795923	0.042262
C38	C	1.264860	0.868668	0.042290
C39	C	1.195081	0.897823	-0.000128
C40	C	1.123743	0.854222	-0.042564
C41	C	1.122197	0.781476	-0.042588
C42	C	1.191996	0.752330	-0.000172
C43	C	1.105412	1.003601	-0.000089
C44	C	1.106959	1.076351	-0.000078
C45	C	1.291196	1.095293	-0.000087
C46	C	1.289646	1.022544	-0.000106
C47	C	1.196751	0.976703	-0.000104
N48	N	1.193573	0.325085	-0.188822
C49	C	1.262448	0.291150	0.226629
C50	C	1.262454	0.291148	0.302857
C51	C	1.193520	0.325069	0.340967
C52	C	1.124556	0.358979	0.302843
C53	C	1.124545	0.358974	0.226616
C54	C	1.179990	0.385720	0.461700
C55	C	1.180008	0.385727	0.537925
C56	C	1.193549	0.325083	0.576074
C57	C	1.207092	0.264433	0.537989
C58	C	1.207081	0.264428	0.461763
C59	C	1.193524	0.325078	0.423621
C60	C	1.262510	0.291169	0.696844
C61	C	1.262509	0.291165	0.773073
C62	C	1.124616	0.359003	0.773058
C63	C	1.124612	0.359000	0.696830
C64	C	1.193564	0.325085	0.658728
H65	H	0.787213	0.439421	-0.000218
N66	N	1.381839	0.695991	-0.000207
H67	H	1.421829	0.687431	0.044678
H68	H	1.421772	0.687486	-0.045135
H69	H	1.068427	0.386596	0.333875
N70	N	0.926310	0.145802	-0.000061
H71	H	0.913345	0.115414	0.044844
H72	H	0.913346	0.115469	-0.044968
N73	N	1.005226	0.954152	-0.000091
H74	H	0.947596	0.982233	-0.000081
H75	H	1.000583	0.923589	-0.044991
H76	H	1.354491	0.551897	-0.000265
N77	N	0.679856	0.549253	-0.000280
H78	H	0.656104	0.572116	0.044599
H79	H	0.756502	0.555286	-0.000312
H80	H	1.068485	0.386618	0.804086
H81	H	1.168986	0.435113	0.568928
H82	H	1.068396	0.386587	0.195582
N83	N	0.875006	0.398965	-0.000197
H84	H	0.851251	0.421826	0.044683
H85	H	0.951652	0.404999	-0.000226
N86	N	0.460753	0.504339	-0.000257
H87	H	0.387846	0.479770	-0.000249
H88	H	0.473771	0.534708	0.044621
H89	H	0.429376	0.239226	-0.000117
N90	N	1.341795	0.915683	0.088067
H91	H	1.412642	0.910348	0.072215
H92	H	1.332099	0.966170	0.081637
N93	N	0.536720	0.129384	-0.000069
H94	H	0.593924	0.100926	-0.000052
H95	H	0.493506	0.117765	0.044828
N96	N	0.707177	0.100895	-0.000039
H97	H	0.663998	0.089219	-0.044925
H98	H	0.764429	0.072482	0.000006
H99	H	1.020238	0.517531	-0.000228
N100	N	1.338567	0.764481	0.088032
H101	H	1.326762	0.711781	0.081581
H102	H	1.409929	0.784513	0.072183
H103	H	1.318590	0.263532	0.195608
N104	N	1.336822	0.254572	0.343979
H105	H	1.380499	0.233085	0.308275
H106	H	1.381378	0.289775	0.375577
N107	N	1.388164	0.993533	-0.000116
H108	H	1.391614	0.963738	0.044766
H109	H	1.391584	0.963842	-0.045047
N110	N	0.998908	0.656622	-0.000185
H111	H	0.939826	0.616543	-0.000188
H112	H	0.995536	0.686357	0.044720
N113	N	1.008436	1.105359	-0.000054
H114	H	1.004968	1.135087	0.044846
H115	H	1.005032	1.135117	-0.044967
H116	H	1.064113	0.745979	-0.077142
H117	H	1.066918	0.877958	-0.077101
N118	N	1.391385	1.144729	-0.000080
H119	H	1.396144	1.175368	-0.044963
H120	H	1.396067	1.175253	0.044850
N121	N	1.221685	0.199018	0.420684
H122	H	1.230266	0.160598	0.456412
H123	H	1.160299	0.183109	0.389078
H124	H	1.218118	0.215050	0.569049
H125	H	1.318652	0.263551	0.665820
H126	H	1.318654	0.263548	0.804107
H127	H	1.168946	0.435104	0.430645
H128	H	1.068470	0.386615	0.665795
