data_functionalizedCrystal
_audit_creation_method	'MofGen! by Chris Wilmer'
_symmetry_space_group_name_H-M	'P1'
_symmetry_Int_Tables_number	1
_symmetry_cell_setting	triclinic
loop_
_symmetry_equiv_pos_as_xyz
  x,y,z
_cell_length_a	19.288859
_cell_length_b	12.376457
_cell_length_c	13.339070
_cell_angle_alpha	75.601917
_cell_angle_beta	99.381510
_cell_angle_gamma	101.253927
loop_
_atom_site_label
_atom_site_type_symbol
_atom_site_fract_x
_atom_site_fract_y
_atom_site_fract_z
O1	O	0.955493	0.094025	0.106616
O2	O	0.756547	0.094022	0.123632
O3	O	0.833187	0.094020	-0.032034
O4	O	0.878853	0.094027	0.262282
O5	O	0.814026	-0.093992	0.006830
O6	O	0.737386	-0.093990	0.162496
O7	O	0.936332	-0.093987	0.145480
Zn8	Zn	0.833817	-0.123839	0.160158
Zn9	Zn	0.859062	0.123874	0.108954
O10	O	0.859692	-0.093985	0.301146
C11	C	0.720983	0.000016	0.142518
C12	C	0.643560	0.000015	0.140878
N13	N	0.816593	-0.292897	0.195103
C14	C	0.095156	0.000018	0.221118
C15	C	0.167905	0.000024	0.222667
C16	C	0.194813	0.000020	0.131330
C17	C	0.148967	0.000038	0.038431
C18	C	0.076221	0.000044	0.036882
C19	C	0.296095	-0.065855	0.076827
C20	C	0.368840	-0.065867	0.078381
C21	C	0.419187	0.000008	0.136102
C22	C	0.396780	0.065882	0.192288
C23	C	0.324034	0.065887	0.190739
C24	C	0.273693	0.000015	0.132999
C25	C	0.543907	0.000004	0.230672
C26	C	0.616657	0.000017	0.232216
C27	C	0.597716	0.000020	0.047980
C28	C	0.524968	0.000018	0.046436
C29	C	0.498068	0.000005	0.137787
C30	C	0.916269	-0.647885	-0.007138
C31	C	0.928320	-0.529545	-0.031596
C32	C	0.900389	-0.470377	0.025077
C33	C	0.860405	-0.529561	0.106212
C34	C	0.848357	-0.647912	0.130678
C35	C	0.832477	-0.470404	0.162892
C36	C	0.792494	-0.529587	0.244028
C37	C	0.780447	-0.647927	0.268489
C38	C	0.808378	-0.707095	0.211817
C39	C	0.844525	-0.352053	0.138426
C40	C	0.776614	-0.352080	0.276242
C41	C	0.764562	-0.470420	0.300700
C42	C	0.971895	0.000022	0.126594
C43	C	1.049320	0.000030	0.128233
N44	N	0.876290	0.292932	0.074001
C45	C	0.815893	0.000015	-0.050256
C46	C	0.792900	0.000020	-0.162453
C47	C	0.971680	0.000022	-0.528067
C48	C	0.993284	0.000011	-0.422651
C49	C	0.943190	0.000014	-0.357597
C50	C	0.871488	0.000026	-0.397968
C51	C	0.849881	0.000027	-0.503392
C52	C	0.821391	0.000019	-0.332922
C53	C	0.749689	0.000031	-0.373293
C54	C	0.728086	0.000034	-0.478707
C55	C	0.778180	0.000031	-0.543762
C56	C	0.842998	0.000018	-0.227498
C57	C	0.721199	0.000023	-0.202823
C58	C	0.699595	0.000034	-0.308238
C59	C	0.876986	0.000022	0.319368
C60	C	0.899979	0.000026	0.431563
H61	H	0.073259	0.000013	0.295502
H62	H	0.653979	0.000017	0.307855
H63	H	0.641214	0.000043	-0.341124
C64	C	0.795126	-0.837270	0.238723
H65	H	0.817489	-0.864026	0.193350
H66	H	0.745375	-0.864059	0.230595
H67	H	0.814354	-0.864034	0.308823
C68	C	0.888508	-0.286960	0.049191
H69	H	0.891691	-0.208004	0.042741
H70	H	0.866006	-0.306358	-0.014232
H71	H	0.934972	-0.306347	0.064023
H72	H	0.680408	0.000020	-0.149854
C73	C	0.972293	-0.464452	-0.120842
H74	H	0.987196	-0.516636	-0.151098
H75	H	1.012890	-0.418273	-0.094138
H76	H	0.943912	-0.418299	-0.172368
C77	C	0.736480	-0.713026	0.357750
H78	H	0.721568	-0.660842	0.387997
H79	H	0.764861	-0.759176	0.409268
H80	H	0.695878	-0.759208	0.331047
H81	H	0.205231	0.000004	0.298310
H82	H	0.487646	0.000022	-0.029199
C83	C	0.299388	0.138355	0.252525
H84	H	0.339788	0.177597	0.287118
H85	H	0.270361	0.090875	0.302544
H86	H	0.272820	0.191324	0.206015
H87	H	0.619624	0.000025	-0.026390
H88	H	0.910203	-0.374020	0.005159
H89	H	1.051663	-0.000000	-0.389788
H90	H	0.732007	-0.518621	0.366763
H91	H	0.038900	0.000054	-0.038758
H92	H	0.669701	0.000035	-0.511572
H93	H	0.437772	0.119521	0.239292
H94	H	0.522003	-0.000005	0.305055
C95	C	0.393481	-0.138328	0.016584
H96	H	0.353079	-0.177545	-0.018028
H97	H	0.420049	-0.191300	0.063076
H98	H	0.422507	-0.090833	-0.033438
H99	H	1.012458	0.000010	-0.581041
H100	H	0.960784	0.000005	-0.271763
C101	C	0.240719	-0.138324	0.013333
H102	H	0.264480	-0.177568	-0.019893
H103	H	0.212985	-0.090838	-0.037897
H104	H	0.210535	-0.191292	0.058628
H105	H	0.939011	-0.696067	-0.053268
C106	C	0.178561	0.000029	-0.062036
H107	H	0.228451	0.000012	-0.047809
H108	H	0.169435	0.065595	-0.113690
H109	H	0.156062	-0.065541	-0.086584
C110	C	0.921863	0.000009	-0.183096
H111	H	0.927559	-0.000002	-0.110994
H112	H	0.950029	0.065569	-0.218995
H113	H	0.936655	-0.065566	-0.191892
C114	C	0.745891	-0.287008	0.338590
H115	H	0.758788	-0.208051	0.312394
H116	H	0.764454	-0.306397	0.410026
H117	H	0.695476	-0.306415	0.331796
C118	C	0.754417	0.000036	-0.659719
H119	H	0.794521	0.000030	-0.692675
H120	H	0.733719	0.065598	-0.692561
H121	H	0.720357	-0.065538	-0.665457
