data_functionalizedCrystal
_audit_creation_method	'MofGen! by Chris Wilmer'
_symmetry_space_group_name_H-M	'P1'
_symmetry_Int_Tables_number	1
_symmetry_cell_setting	triclinic
loop_
_symmetry_equiv_pos_as_xyz
  x,y,z
_cell_length_a	21.883469
_cell_length_b	21.882911
_cell_length_c	21.879399
_cell_angle_alpha	60.006540
_cell_angle_beta	60.013207
_cell_angle_gamma	59.992231
loop_
_atom_site_label
_atom_site_type_symbol
_atom_site_fract_x
_atom_site_fract_y
_atom_site_fract_z
O1	O	0.084645	-0.892842	0.746620
O2	O	0.031867	-0.695139	0.601571
O3	O	0.157054	-0.820237	0.601476
O4	O	-0.040542	-0.767744	0.746716
O5	O	0.198586	-0.778715	0.642912
O6	O	0.073399	-0.653617	0.643007
O7	O	0.126177	-0.851320	0.788056
Cu8	Cu	0.103580	-0.748677	0.719315
Cu9	Cu	0.054464	-0.797782	0.670313
O10	O	0.000990	-0.726222	0.788151
N11	N	0.138128	-0.714145	0.753785
N12	N	0.019923	-0.832320	0.635843
C13	C	0.190018	-0.547369	0.805644
C14	C	0.190029	-0.662289	0.805630
C15	C	0.218780	-0.633565	0.834353
C16	C	0.344122	-0.611968	0.768360
C17	C	0.422474	-0.638085	0.742222
C18	C	0.422504	-0.764859	0.790561
C19	C	0.344154	-0.738739	0.816702
C20	C	0.208899	-0.508180	0.728617
C21	C	0.182748	-0.429822	0.702522
C22	C	0.118843	-0.429847	0.830485
C23	C	0.144993	-0.508205	0.856580
C24	C	0.112994	-0.643364	0.824587
C25	C	0.086865	-0.669476	0.798467
C26	C	0.214799	-0.733437	0.734451
C27	C	0.240932	-0.707325	0.760562
C28	C	0.113084	-0.643389	0.959747
C29	C	0.087018	-0.669524	1.038102
C30	C	0.214996	-0.733501	1.038048
C31	C	0.241061	-0.707367	0.959690
C32	C	0.190103	-0.662308	0.920542
C33	C	0.304966	-0.662293	0.805598
C34	C	-0.117460	-0.854702	0.612901
C35	C	-0.002405	-0.854864	0.498145
C36	C	-0.002621	-0.969735	0.613108
C37	C	-0.002603	-0.854858	0.613180
C38	C	-0.031272	-0.883541	0.584334
N39	N	0.460550	-0.714150	0.753681
O40	O	0.699805	-0.721060	0.574973
O41	O	0.700047	-0.866553	0.772482
O42	O	0.699952	-0.866219	0.647213
O43	O	0.699900	-0.721394	0.700242
O44	O	0.575478	-0.824800	0.688791
O45	O	0.575573	-0.825134	0.814060
O46	O	0.575331	-0.679641	0.616551
Cu47	Cu	0.564087	-0.748606	0.719102
Cu48	Cu	0.711292	-0.797588	0.669931
O49	O	0.575426	-0.679975	0.741820
N50	N	0.814828	-0.832044	0.635345
N51	N	0.138106	-0.391772	0.753815
O52	O	-0.040520	-0.152377	0.746758
O53	O	0.156993	-0.152371	0.601281
O54	O	0.031698	-0.152390	0.601639
O55	O	0.084775	-0.152358	0.746401
O56	O	0.073234	-0.276876	0.643130
O57	O	0.198529	-0.276856	0.642772
O58	O	0.001015	-0.276863	0.788249
Cu59	Cu	0.103564	-0.288226	0.719299
Cu60	Cu	0.054444	-0.141007	0.670231
O61	O	0.126310	-0.276844	0.787892
N62	N	0.019892	-0.037461	0.635717
N63	N	0.138332	-0.714192	1.076133
O64	O	0.131293	-0.892804	1.315506
O65	O	-0.014162	-0.695219	1.315533
O66	O	-0.013826	-0.820490	1.315480
O67	O	0.130957	-0.767533	1.315559
O68	O	0.027651	-0.778981	1.191001
O69	O	0.027314	-0.653710	1.191054
O70	O	0.172770	-0.851295	1.191026
Cu71	Cu	0.103829	-0.748713	1.179674
Cu72	Cu	0.054778	-0.797802	1.326885
O73	O	0.172434	-0.726024	1.191079
N74	N	0.020275	-0.832331	1.430426
C75	C	0.047687	-0.649466	0.602306
C76	C	0.202716	-0.804385	0.602188
C77	C	0.110357	-0.896993	0.787321
C78	C	-0.044672	-0.742074	0.787439
C79	C	0.637839	-0.865879	0.818154
C80	C	0.637724	-0.865466	0.663023
C81	C	0.637536	-0.680313	0.570880
C82	C	0.637655	-0.680728	0.726010
C83	C	0.202592	-0.214459	0.601942
C84	C	0.047481	-0.214636	0.602435
C85	C	-0.044635	-0.214620	0.787537
C86	C	0.110528	-0.214598	0.787096
C87	C	-0.013455	-0.649572	1.253296
C88	C	-0.013030	-0.804697	1.253206
C89	C	0.172063	-0.896942	1.253263
C90	C	0.171648	-0.741808	1.253325
H91	H	0.024299	-0.654107	1.070013
H92	H	-0.101428	-0.730886	0.833046
C93	C	-0.121261	-0.214622	0.849238
H94	H	-0.152724	-0.214625	0.831168
H95	H	-0.114684	-0.258028	0.891772
H96	H	-0.143654	-0.171201	0.862830
H97	H	0.071542	-0.606694	0.861281
C98	C	0.637630	-0.619265	0.741336
H99	H	0.637674	-0.637560	0.790892
H100	H	0.681003	-0.605601	0.706790
H101	H	0.594183	-0.576715	0.735793
C102	C	0.125875	-0.214590	0.848536
H103	H	0.175437	-0.214591	0.830238
H104	H	0.091348	-0.171180	0.862170
H105	H	0.120320	-0.258007	0.891102
H106	H	0.259199	-0.214112	0.556156
H107	H	0.259468	-0.815577	0.556577
H108	H	0.217732	-0.953686	1.253245
H109	H	0.637457	-0.634634	0.514159
H110	H	0.637900	-0.911553	0.874882
C111	C	0.271052	-0.783056	1.081102
H112	H	0.320654	-0.790582	1.046528
H113	H	0.263543	-0.759142	1.111674
H114	H	0.263549	-0.830029	1.111658
C115	C	0.325785	-0.728182	0.916570
H116	H	0.352397	-0.758751	0.951109
H117	H	0.338619	-0.754760	0.885998
H118	H	0.338610	-0.683869	0.886009
H119	H	0.637745	-0.910963	0.651673
C120	C	0.032460	-0.572750	0.540760
H121	H	-0.017091	-0.541402	0.558975
H122	H	0.067017	-0.550277	0.527114
H123	H	0.038047	-0.579244	0.498221
H124	H	0.036114	-0.214639	0.556956
H125	H	0.121632	-0.953785	0.832877
C126	C	-0.075149	-0.572916	1.253308
H127	H	-0.057076	-0.541475	1.253333
H128	H	-0.088754	-0.550512	1.209893
H129	H	-0.117677	-0.579469	1.296716
H130	H	0.217133	-0.730478	1.253340
C131	C	0.002128	-0.648668	0.819319
H132	H	-0.024447	-0.618114	0.849908
H133	H	-0.010756	-0.622075	0.775029
H134	H	-0.010691	-0.692983	0.845901
C135	C	0.270794	-0.782977	0.684883
H136	H	0.320414	-0.790502	0.677335
H137	H	0.263285	-0.829943	0.708798
H138	H	0.263236	-0.759038	0.637923
H139	H	-0.058496	-0.816008	1.253133
H140	H	0.071582	-0.606692	0.927876
H141	H	0.312274	-0.779724	0.847024
C142	C	0.325668	-0.728141	0.739721
H143	H	0.333939	-0.706135	0.761727
H144	H	0.347693	-0.781010	0.757725
H145	H	0.347646	-0.710106	0.686850
C146	C	0.465618	-0.848948	0.802766
H147	H	0.517889	-0.857294	0.781860
H148	H	0.452809	-0.876272	0.854869
H149	H	0.452762	-0.865152	0.779086
C150	C	0.465549	-0.582731	0.701255
H151	H	0.517825	-0.609237	0.687283
H152	H	0.452680	-0.546851	0.657718
H153	H	0.452727	-0.557961	0.733498
C154	C	0.301018	-0.527880	0.756147
H155	H	0.248746	-0.519527	0.777042
H156	H	0.313876	-0.511671	0.779818
H157	H	0.313830	-0.500562	0.704039
C158	C	0.258424	-0.551263	0.672594
H159	H	0.271301	-0.603543	0.699168
H160	H	0.231819	-0.538419	0.642041
H161	H	0.302717	-0.538413	0.642017
C162	C	0.203511	-0.386707	0.617790
H163	H	0.181486	-0.334431	0.609543
H164	H	0.256372	-0.399543	0.595765
H165	H	0.185471	-0.399543	0.595789
C166	C	0.069320	-0.386764	0.886512
H167	H	0.061824	-0.421327	0.936126
H168	H	0.093235	-0.356189	0.878974
H169	H	0.022338	-0.356205	0.879006
H170	H	0.129609	-0.540114	0.919306
