data_functionalizedCrystal
_audit_creation_method	'MofGen! by Chris Wilmer'
_symmetry_space_group_name_H-M	'P1'
_symmetry_Int_Tables_number	1
_symmetry_cell_setting	triclinic
loop_
_symmetry_equiv_pos_as_xyz
  x,y,z
_cell_length_a	6.817900
_cell_length_b	11.102193
_cell_length_c	16.305550
_cell_angle_alpha	93.872254
_cell_angle_beta	103.455250
_cell_angle_gamma	108.603963
loop_
_atom_site_label
_atom_site_type_symbol
_atom_site_fract_x
_atom_site_fract_y
_atom_site_fract_z
V1	V	-4.052576	-0.176911	-0.263031
O2	O	-4.012740	0.007398	-0.258024
O3	O	-4.029747	-0.349724	-0.261232
O4	O	-4.003649	-0.174674	-0.377748
O5	O	-4.039019	-0.168864	-0.140701
V6	V	-4.532959	-0.154809	-0.248399
O7	O	-4.320722	-0.225395	-0.295127
O8	O	-4.715009	-0.106325	-0.216304
O9	O	-4.332581	0.018004	-0.250199
O10	O	-4.690191	-0.339117	-0.253406
O11	O	-4.663912	-0.162856	-0.370729
O12	O	-4.358679	-0.157046	-0.133682
C13	C	-3.880985	-0.391837	-0.257082
C14	C	-3.943603	-0.533116	-0.256376
C15	C	-3.789962	-0.593005	-0.251840
C16	C	-3.848811	-0.725753	-0.251178
C17	C	-4.214956	-0.738714	-0.259591
C18	C	-4.156102	-0.605967	-0.260247
C19	C	-3.578573	-0.585524	-0.246986
C20	C	-3.637422	-0.718272	-0.246324
C21	C	-3.847694	-0.168542	-0.405709
C22	C	-3.889143	-0.167856	-0.499491
C23	C	-4.039835	-0.165200	-0.840237
C24	C	-3.802613	-0.157314	-0.799308
C25	C	-3.759604	-0.158553	-0.701813
C26	C	-3.965073	-0.166517	-0.671189
C27	C	-4.150787	-0.292033	-0.721815
C28	C	-4.192545	-0.291323	-0.819365
C29	C	-4.077232	-0.048574	-0.794393
C30	C	-4.029155	-0.047580	-0.696551
C31	C	-3.922835	-0.167266	-0.575651
C32	C	-4.082084	-0.164460	-0.935776
C33	C	-4.144685	0.060110	-0.254346
C34	C	-4.061306	0.201389	-0.255058
C35	C	-4.177977	-0.163182	-0.105717
C36	C	-4.115765	-0.163861	-0.011934
H37	H	-3.619675	-0.068308	-0.666790
H38	H	-4.176210	-0.046019	-0.675203
Br39	Br	-3.501963	-0.758672	-0.141473
Br40	Br	-4.503336	-0.837588	-0.264840
Br41	Br	-3.361829	-0.497067	-0.145325
Br42	Br	-3.583652	-0.797162	-0.341778
H43	H	-3.705792	-0.243311	-0.685520
Br44	Br	-3.748231	-0.296972	-0.851824
Br45	Br	-3.495409	-0.537378	-0.346807
H46	H	-4.281212	-0.557209	-0.263932
H47	H	-3.682980	-0.066643	-0.811672
Br48	Br	-4.154210	-0.438478	-0.870007
H49	H	-4.368020	-0.302331	-0.847356
Br50	Br	-4.408642	-0.309317	-0.690301
Br51	Br	-4.080318	-0.439233	-0.693794
Br52	Br	-3.901310	0.109937	-0.816677
H53	H	-3.894291	0.045258	-0.662173
H54	H	-4.249991	-0.053235	-0.821209
