data_functionalizedCrystal
_audit_creation_method	'MofGen! by Chris Wilmer'
_symmetry_space_group_name_H-M	'P1'
_symmetry_Int_Tables_number	1
_symmetry_cell_setting	triclinic
loop_
_symmetry_equiv_pos_as_xyz
  x,y,z
_cell_length_a	14.519731
_cell_length_b	13.596369
_cell_length_c	10.654550
_cell_angle_alpha	90.004649
_cell_angle_beta	95.913122
_cell_angle_gamma	89.994072
loop_
_atom_site_label
_atom_site_type_symbol
_atom_site_fract_x
_atom_site_fract_y
_atom_site_fract_z
O1	O	1.224711	-0.081791	-0.164752
O2	O	1.724711	0.418209	0.335248
O3	O	0.956337	-0.081792	-0.184111
O4	O	1.456337	0.418208	0.315889
O5	O	1.096695	-0.081788	0.008366
O6	O	1.596695	0.418212	0.508366
O7	O	1.084354	-0.081795	-0.357229
O8	O	1.584354	0.418205	0.142771
O9	O	1.096679	0.081795	0.008376
O10	O	1.596679	0.581795	0.508376
O11	O	0.956322	0.081791	-0.184101
O12	O	1.456322	0.581791	0.315899
O13	O	1.224696	0.081792	-0.164743
O14	O	1.724696	0.581792	0.335257
Zn15	Zn	1.090506	0.107764	-0.174421
Zn16	Zn	1.590506	0.607764	0.325579
Zn17	Zn	1.090527	-0.107764	-0.174433
Zn18	Zn	1.590527	0.392236	0.325567
O19	O	1.084338	0.081788	-0.357220
O20	O	1.584338	0.581788	0.142780
C21	C	0.921965	-0.000001	-0.183199
C22	C	1.421965	0.499999	0.316801
C23	C	0.819571	-0.000001	-0.180481
C24	C	1.319571	0.499999	0.319519
C25	C	0.736415	-0.000005	-0.178272
C26	C	1.236415	0.499995	0.321728
C27	C	0.632092	-0.000006	-0.175513
C28	C	1.132092	0.499994	0.324487
C29	C	0.548942	-0.000005	-0.173322
C30	C	1.048942	0.499995	0.326678
C31	C	0.444612	-0.000008	-0.170563
C32	C	0.944612	0.499992	0.329437
N33	N	1.090499	0.254855	-0.174411
N34	N	1.590499	0.754855	0.325589
C35	C	1.090519	0.656146	-0.174438
C36	C	1.590519	1.156146	0.325562
C37	C	1.090511	0.544495	-0.174435
C38	C	1.590511	1.044495	0.325565
C39	C	1.090509	0.455505	-0.174426
C40	C	1.590509	0.955505	0.325574
C41	C	1.090500	0.343846	-0.174421
C42	C	1.590500	0.843846	0.325579
C43	C	1.259068	-0.000002	-0.165655
C44	C	1.759068	0.499998	0.334345
C45	C	1.361462	-0.000007	-0.168373
C46	C	1.861462	0.499993	0.331627
C47	C	1.095781	0.000002	0.055160
C48	C	1.595781	0.500002	0.555160
C49	C	1.093070	-0.000001	0.194578
C50	C	1.593070	0.499999	0.694578
N51	N	1.090533	0.745144	-0.174437
N52	N	1.590533	1.245144	0.325563
C53	C	1.085252	-0.000005	-0.404014
C54	C	1.585252	0.499995	0.095986
C55	C	1.087963	-0.000008	-0.543432
C56	C	1.587963	0.499992	-0.043432
C57	C	1.175710	0.000002	0.274850
C58	C	1.675710	0.500002	0.774850
C59	C	1.173157	-0.000005	0.405846
C60	C	1.673157	0.499995	0.905846
C61	C	1.005317	-0.000014	0.376286
C62	C	1.505317	0.499986	0.876286
C63	C	1.007871	-0.000014	0.245292
C64	C	1.507871	0.499986	0.745292
C65	C	1.260909	0.000015	0.224135
C66	C	1.760909	0.500015	0.724135
C67	C	1.343556	0.000020	0.304408
C68	C	1.843556	0.500020	0.804408
C69	C	1.341003	0.000013	0.435405
C70	C	1.841003	0.500013	0.935405
C71	C	1.255804	0.000002	0.486128
C72	C	1.755804	0.500002	0.986128
H73	H	1.262997	0.000024	0.117473
H74	H	1.762997	0.500024	0.617473
H75	H	1.412923	0.000005	0.263100
H76	H	1.912923	0.500005	0.763100
O77	O	0.922503	0.000113	0.425407
O78	O	1.422503	0.500113	0.925407
C79	C	0.778284	0.084887	0.440295
C80	C	1.278284	0.584887	0.940295
C81	C	0.872030	0.084851	0.384562
C82	C	1.372030	0.584851	0.884562
H83	H	0.737458	0.153401	0.407315
H84	H	1.237458	0.653401	0.907315
H85	H	0.737346	0.016473	0.407211
H86	H	1.237346	0.516473	0.907211
H87	H	0.790677	0.084842	0.547706
H88	H	1.290677	0.584842	1.047706
H89	H	0.859722	0.084931	0.277149
H90	H	1.359722	0.584931	0.777149
H91	H	0.912937	0.153259	0.417744
H92	H	1.412937	0.653259	0.917744
O93	O	0.927535	-0.000147	0.167434
O94	O	1.427535	0.499853	0.667434
C95	C	0.784907	-0.084938	0.102014
C96	C	1.284907	0.415062	0.602014
C97	C	0.875842	-0.084891	0.190283
C98	C	1.375842	0.415109	0.690283
H99	H	0.743097	-0.153456	0.120437
H100	H	1.243097	0.346544	0.620437
H101	H	0.742945	-0.016528	0.120491
H102	H	1.242945	0.483472	0.620491
H103	H	0.801395	-0.084893	-0.000310
H104	H	1.301395	0.415107	0.499690
H105	H	0.859438	-0.084970	0.292637
H106	H	1.359438	0.415030	0.792637
H107	H	0.917779	-0.153294	0.171697
H108	H	1.417779	0.346706	0.671697
H109	H	1.253732	-0.000014	0.592796
H110	H	1.753732	0.499986	1.092796
H111	H	1.408299	0.000007	0.500760
H112	H	1.908299	0.500007	1.000760
