data_functionalizedCrystal
_audit_creation_method	'MofGen! by Chris Wilmer'
_symmetry_space_group_name_H-M	'P1'
_symmetry_Int_Tables_number	1
_symmetry_cell_setting	triclinic
loop_
_symmetry_equiv_pos_as_xyz
  x,y,z
_cell_length_a	15.944551
_cell_length_b	15.944493
_cell_length_c	13.330367
_cell_angle_alpha	90.001230
_cell_angle_beta	89.996937
_cell_angle_gamma	83.486891
loop_
_atom_site_label
_atom_site_type_symbol
_atom_site_fract_x
_atom_site_fract_y
_atom_site_fract_z
O1	O	1.114505	0.108334	-0.083306
O2	O	1.614505	0.608334	0.416694
O3	O	0.869953	0.121691	-0.083329
O4	O	1.369953	0.621691	0.416671
O5	O	0.998933	-0.007265	-0.083325
O6	O	1.498933	0.492735	0.416675
O7	O	0.985526	0.237291	-0.083310
O8	O	1.485526	0.737291	0.416690
O9	O	0.998914	-0.007268	0.083522
O10	O	1.498914	0.492732	0.583522
O11	O	0.869934	0.121688	0.083518
O12	O	1.369934	0.621688	0.583518
O13	O	1.114487	0.108332	0.083542
O14	O	1.614487	0.608332	0.583542
Cu15	Cu	0.992209	0.115010	0.098764
Cu16	Cu	1.492209	0.615010	0.598764
Cu17	Cu	0.992231	0.115013	-0.098552
Cu18	Cu	1.492231	0.615013	0.401448
O19	O	0.985507	0.237288	0.083538
O20	O	1.485507	0.737288	0.583538
C21	C	0.838650	0.121135	0.000091
C22	C	1.338650	0.621135	0.500091
C23	C	0.745404	0.119473	0.000082
C24	C	1.245404	0.619473	0.500082
C25	C	0.530565	0.035566	0.000096
C26	C	1.030565	0.535566	0.500096
C27	C	0.469546	0.074531	-0.082166
C28	C	0.969546	0.574531	0.417834
C29	C	0.574679	0.116465	0.000093
C30	C	1.074679	0.616465	0.500093
C31	C	0.469550	0.074547	0.082332
C32	C	0.969550	0.574547	0.582332
C33	C	0.409767	0.113555	0.000109
C34	C	0.909767	0.613555	0.500109
C35	C	0.514888	0.155452	-0.082236
C36	C	1.014888	0.655452	0.417764
C37	C	0.514898	0.155457	0.082336
C38	C	1.014898	0.655457	0.582336
C39	C	0.453897	0.194481	0.000054
C40	C	0.953897	0.694481	0.500054
C41	C	0.669681	0.118140	0.000084
C42	C	1.169681	0.618140	0.500084
C43	C	0.314766	0.111886	0.000112
C44	C	0.814766	0.611886	0.500112
C45	C	0.998375	-0.038562	0.000094
C46	C	1.498375	0.461438	0.500094
C47	C	0.996733	-0.131810	0.000081
C48	C	1.496733	0.368190	0.500081
C49	C	1.072653	-0.367570	0.000108
C50	C	1.572653	0.132430	0.500108
C51	C	1.031721	-0.418137	-0.082160
C52	C	1.531721	0.081863	0.417840
C53	C	0.993688	-0.302531	0.000093
C54	C	1.493688	0.197469	0.500093
C55	C	1.031684	-0.418116	0.082338
C56	C	1.531684	0.081884	0.582338
C57	C	0.990754	-0.467441	0.000109
C58	C	1.490754	0.032559	0.500109
C59	C	0.952778	-0.351870	-0.082242
C60	C	1.452778	0.148130	0.417758
C61	C	0.952753	-0.351845	0.082330
C62	C	1.452753	0.148155	0.582330
C63	C	0.911763	-0.402379	0.000042
C64	C	1.411763	0.097621	0.500042
C65	C	0.995381	-0.207531	0.000083
C66	C	1.495381	0.292469	0.500083
C67	C	0.989055	-0.562438	0.000112
C68	C	1.489055	-0.062438	0.500112
C69	C	1.145790	0.108888	0.000119
C70	C	1.645790	0.608888	0.500119
C71	C	1.239036	0.110550	0.000122
C72	C	1.739036	0.610550	0.500122
C73	C	0.986064	0.268584	0.000116
C74	C	1.486064	0.768584	0.500116
C75	C	0.987707	0.361833	0.000122
C76	C	1.487707	0.861833	0.500122
N77	N	0.992199	0.115007	0.237546
N78	N	1.492199	0.615007	0.737546
N79	N	0.992247	0.115009	-0.237333
N80	N	1.492247	0.615009	0.262667
C81	C	0.935116	0.172092	0.710167
C82	C	1.435116	0.672092	1.210167
C83	C	1.049368	0.057927	0.710138
C84	C	1.549368	0.557927	1.210138
C85	C	1.049359	0.057924	0.605120
C86	C	1.549359	0.557924	1.105120
C87	C	0.992228	0.115008	0.552620
C88	C	1.492228	0.615008	1.052620
C89	C	0.935107	0.172093	0.605139
C90	C	1.435107	0.672093	1.105139
C91	C	1.106485	0.000845	0.552594
C92	C	1.606485	0.500845	1.052594
C93	C	1.106478	0.000841	0.447569
C94	C	1.606478	0.500841	0.947569
C95	C	1.049343	0.057921	0.395067
C96	C	1.549343	0.557921	0.895067
C97	C	0.992218	0.115008	0.447592
C98	C	1.492218	0.615008	0.947592
C99	C	0.935088	0.172092	0.395092
C100	C	1.435088	0.672092	0.895092
C101	C	0.877959	0.229176	0.447616
C102	C	1.377959	0.729176	0.947616
C103	C	0.877971	0.229173	0.552637
C104	C	1.377971	0.729173	1.052637
C105	C	1.049330	0.057923	0.290046
C106	C	1.549330	0.557923	0.790046
C107	C	0.935078	0.172092	0.290064
C108	C	1.435078	0.672092	0.790064
H109	H	0.449463	0.040314	0.151876
H110	H	0.949463	0.540314	0.651876
C111	C	0.541881	0.201661	-0.176278
C112	C	1.041881	0.701661	0.323722
H113	H	0.601373	0.202413	-0.175723
H114	H	1.101373	0.702413	0.324277
H115	H	0.514933	0.257939	-0.176487
H116	H	1.014933	0.757939	0.323513
H117	H	0.526003	0.173128	-0.234642
H118	H	1.026003	0.673128	0.265358
H119	H	1.153003	-0.045626	0.595342
H120	H	1.653003	0.454374	1.095342
C121	C	1.112207	-0.004859	0.767885
C122	C	1.612207	0.495141	1.267885
H123	H	1.104029	0.003314	0.837955
H124	H	1.604029	0.503314	1.337955
H125	H	1.168260	0.004295	0.750662
H126	H	1.668260	0.504295	1.250662
H127	H	1.103087	-0.060929	0.750678
H128	H	1.603087	0.439071	1.250678
H129	H	1.152994	-0.045640	0.404811
H130	H	1.652994	0.454360	0.904811
H131	H	1.140671	-0.351942	0.000031
H132	H	1.640671	0.148058	0.500031
C133	C	0.907736	-0.312715	0.176281
C134	C	1.407736	0.187285	0.676281
H135	H	0.935879	-0.335509	0.234682
H136	H	1.435879	0.164491	0.734682
H137	H	0.850893	-0.325234	0.176869
H138	H	1.350893	0.174766	0.676869
H139	H	0.908682	-0.253254	0.175267
H140	H	1.408682	0.246746	0.675267
H141	H	1.065041	-0.447048	0.151884
H142	H	1.565041	0.052952	0.651884
C143	C	0.575607	-0.055134	-0.000034
C144	C	1.075607	0.444866	0.499966
H145	H	0.560202	-0.083739	-0.058566
H146	H	1.060202	0.416261	0.441434
H147	H	0.559453	-0.084179	0.057806
H148	H	1.059453	0.415821	0.557806
H149	H	0.634970	-0.053432	0.000550
H150	H	1.134970	0.446568	0.500550
H151	H	0.831446	0.275657	0.404858
H152	H	1.331446	0.775657	0.904858
C153	C	0.442396	0.028318	-0.176126
C154	C	0.942396	0.528318	0.323874
H155	H	0.404721	0.065763	-0.214857
H156	H	0.904721	0.565763	0.285143
H157	H	0.414946	-0.018894	-0.156364
H158	H	0.914946	0.481106	0.343636
H159	H	0.490782	0.009585	-0.215135
H160	H	0.990782	0.509585	0.284865
C161	C	0.819810	-0.423281	-0.000025
C162	C	1.319810	0.076719	0.499975
H163	H	0.791899	-0.400377	-0.058518
H164	H	1.291899	0.099623	0.441482
H165	H	0.791562	-0.399577	0.057855
H166	H	1.291562	0.100423	0.557855
H167	H	0.819245	-0.482795	0.000522
H168	H	1.319245	0.017205	0.500522
H169	H	0.420724	0.261690	0.000012
H170	H	0.920724	0.761690	0.500012
C171	C	0.815110	0.291935	0.610409
C172	C	1.315110	0.791935	1.110409
H173	H	0.781068	0.325918	0.564103
H174	H	1.281068	0.825918	1.064103
H175	H	0.845293	0.326932	0.651391
H176	H	1.345293	0.826932	1.151391
H177	H	0.780168	0.261659	0.651366
H178	H	1.280168	0.761659	1.151366
C179	C	1.076779	-0.457247	-0.176105
C180	C	1.576779	0.042753	0.323895
H181	H	1.133907	-0.445602	-0.176001
H182	H	1.633907	0.054398	0.323999
H183	H	1.049298	-0.433683	-0.234527
H184	H	1.549298	0.066317	0.265473
H185	H	1.074945	-0.516592	-0.175728
H186	H	1.574945	-0.016592	0.324272
H187	H	1.095847	0.011450	0.247286
H188	H	1.595847	0.511450	0.747286
H189	H	0.888600	0.218567	0.752934
H190	H	1.388600	0.718567	1.252934
H191	H	0.888552	0.218574	0.247325
H192	H	1.388552	0.718574	0.747325
H193	H	0.535015	0.189645	0.151890
H194	H	1.035015	0.689645	0.651890
H195	H	0.919457	-0.323049	-0.151868
H196	H	1.419457	0.176951	0.348132
