data_functionalizedCrystal
_audit_creation_method	'MofGen! by Chris Wilmer'
_symmetry_space_group_name_H-M	'P1'
_symmetry_Int_Tables_number	1
_symmetry_cell_setting	triclinic
loop_
_symmetry_equiv_pos_as_xyz
  x,y,z
_cell_length_a	16.109301
_cell_length_b	14.044220
_cell_length_c	15.186229
_cell_angle_alpha	89.995248
_cell_angle_beta	89.999362
_cell_angle_gamma	88.325179
loop_
_atom_site_label
_atom_site_type_symbol
_atom_site_fract_x
_atom_site_fract_y
_atom_site_fract_z
O1	O	1.112195	0.121835	-0.073175
O2	O	1.445529	0.455168	0.260158
O3	O	1.778862	0.788501	0.593492
O4	O	0.871261	0.136997	-0.073189
O5	O	1.204595	0.470330	0.260144
O6	O	1.537928	0.803663	0.593477
O7	O	0.988112	-0.008568	-0.073174
O8	O	1.321445	0.324765	0.260160
O9	O	1.654779	0.658099	0.593493
O10	O	0.995345	0.267399	-0.073191
O11	O	1.328678	0.600732	0.260143
O12	O	1.662011	0.934066	0.593476
O13	O	0.988103	-0.008570	0.073284
O14	O	1.321437	0.324763	0.406617
O15	O	1.654770	0.658097	0.739950
O16	O	0.871253	0.136995	0.073268
O17	O	1.204586	0.470328	0.406601
O18	O	1.537919	0.803661	0.739935
O19	O	1.112187	0.121832	0.073282
O20	O	1.445520	0.455166	0.406616
O21	O	1.778853	0.788499	0.739949
Zn22	Zn	0.991718	0.129413	0.096528
Zn23	Zn	1.325052	0.462747	0.429862
Zn24	Zn	1.658385	0.796080	0.763195
Zn25	Zn	0.991730	0.129416	-0.096435
Zn26	Zn	1.325063	0.462749	0.236898
Zn27	Zn	1.658396	0.796083	0.570231
O28	O	0.995336	0.267397	0.073267
O29	O	1.328669	0.600730	0.406600
O30	O	1.662003	0.934064	0.739933
C31	C	0.840236	0.136381	0.000038
C32	C	1.173570	0.469715	0.333371
C33	C	1.506903	0.803048	0.666704
C34	C	0.747804	0.134540	0.000033
C35	C	1.081137	0.467873	0.333366
C36	C	1.414471	0.801207	0.666699
C37	C	0.531640	0.216634	0.000038
C38	C	0.864973	0.549967	0.333371
C39	C	1.198306	0.883300	0.666704
C40	C	0.444790	0.214896	0.000043
C41	C	0.778123	0.548230	0.333377
C42	C	1.111457	0.881563	0.666710
C43	C	0.451815	0.042189	0.000050
C44	C	0.785148	0.375522	0.333384
C45	C	1.118481	0.708855	0.666717
C46	C	0.538663	0.043927	0.000051
C47	C	0.871996	0.377261	0.333384
C48	C	1.205329	0.710594	0.666718
C49	C	0.578573	0.131153	0.000040
C50	C	0.911906	0.464486	0.333373
C51	C	1.245239	0.797819	0.666707
C52	C	0.404875	0.127677	0.000045
C53	C	0.738208	0.461010	0.333379
C54	C	1.071542	0.794343	0.666712
C55	C	0.310709	0.125792	0.000052
C56	C	0.644042	0.459125	0.333385
C57	C	0.977375	0.792459	0.666718
C58	C	0.672745	0.133038	0.000036
C59	C	1.006078	0.466371	0.333369
C60	C	1.339412	0.799704	0.666702
C61	C	0.984941	-0.043882	0.000055
C62	C	1.318275	0.289451	0.333389
C63	C	1.651608	0.622784	0.666722
C64	C	0.975498	-0.149105	0.000056
C65	C	1.308831	0.184228	0.333389
C66	C	1.642164	0.517561	0.666722
C67	C	0.958232	-0.341761	0.000042
C68	C	1.291566	-0.008428	0.333375
C69	C	1.624899	0.324905	0.666709
C70	C	1.025212	-0.399415	0.000043
C71	C	1.358545	-0.066082	0.333377
C72	C	1.691878	0.267251	0.666710
C73	C	1.015605	-0.506616	0.000036
C74	C	1.348938	-0.173282	0.333369
C75	C	1.682272	0.160051	0.666702
C76	C	0.967838	-0.234551	0.000050
C77	C	1.301171	0.098783	0.333383
C78	C	1.634504	0.432116	0.666716
C79	C	1.143211	0.122448	0.000053
C80	C	1.476545	0.455781	0.333387
C81	C	1.809878	0.789114	0.666720
C82	C	1.235644	0.124289	0.000053
C83	C	1.568977	0.457622	0.333386
C84	C	1.902310	0.790956	0.666720
C85	C	0.998506	0.302711	0.000036
C86	C	1.331840	0.636045	0.333369
C87	C	1.665173	0.969378	0.666703
C88	C	1.007950	0.407934	0.000030
C89	C	1.341284	0.741268	0.333363
C90	C	1.674617	1.074601	0.666696
N91	N	0.991716	0.129411	0.228221
N92	N	1.325050	0.462744	0.561554
N93	N	1.658383	0.796077	0.894888
N94	N	0.991737	0.129411	-0.228128
N95	N	1.325071	0.462744	0.105205
N96	N	1.658404	0.796077	0.438539
C97	C	1.043479	0.064976	0.453951
C98	C	1.376812	0.398310	0.787284
C99	C	1.710145	0.731643	1.120618
C100	C	1.043481	0.064974	0.546141
C101	C	1.376814	0.398308	0.879474
C102	C	1.710148	0.731641	1.212807
C103	C	0.939969	0.193848	0.546136
C104	C	1.273303	0.527182	0.879469
C105	C	1.606636	0.860515	1.212802
C106	C	0.939963	0.193845	0.453948
C107	C	1.273297	0.527178	0.787281
C108	C	1.606630	0.860512	1.120614
C109	C	0.991723	0.129410	0.407858
C110	C	1.325056	0.462744	0.741191
C111	C	1.658389	0.796077	1.074524
C112	C	0.991731	0.129411	0.592235
C113	C	1.325065	0.462745	0.925569
C114	C	1.658398	0.796078	1.258902
C115	C	0.991734	0.129409	0.692192
C116	C	1.325067	0.462743	1.025525
C117	C	1.658400	0.796076	1.358858
C118	C	0.991719	0.129411	0.307895
C119	C	1.325053	0.462744	0.641229
C120	C	1.658386	0.796078	0.974562
H121	H	1.089769	-0.368264	-0.000012
H122	H	1.423103	-0.034931	0.333321
H123	H	1.756436	0.298403	0.666655
H124	H	0.576877	-0.025686	0.000055
H125	H	0.910211	0.307647	0.333389
H126	H	1.243544	0.640981	0.666722
H127	H	0.893680	-0.372911	0.000036
H128	H	1.227013	-0.039577	0.333369
H129	H	1.560347	0.293756	0.666703
H130	H	1.085623	0.012508	0.416427
H131	H	1.418956	0.345842	0.749760
H132	H	1.752290	0.679175	1.083093
H133	H	0.897813	0.246315	0.416416
H134	H	1.231147	0.579649	0.749750
H135	H	1.564480	0.912982	1.083083
H136	H	1.085624	0.012505	0.583667
H137	H	1.418958	0.345839	0.917000
H138	H	1.752291	0.679172	1.250334
H139	H	0.897829	0.246311	0.583672
H140	H	1.231163	0.579644	0.917005
H141	H	1.564496	0.912978	1.250338
H142	H	0.419309	-0.028827	0.000065
H143	H	0.752643	0.304506	0.333398
H144	H	1.085976	0.637840	0.666731
H145	H	0.564132	0.287658	0.000035
H146	H	0.897465	0.620991	0.333369
H147	H	1.230798	0.954325	0.666702
H148	H	0.406580	0.284504	0.000043
H149	H	0.739914	0.617837	0.333377
H150	H	1.073247	0.951170	0.666710
