data_functionalizedCrystal
_audit_creation_method	'MofGen! by Chris Wilmer'
_symmetry_space_group_name_H-M	'P1'
_symmetry_Int_Tables_number	1
_symmetry_cell_setting	triclinic
loop_
_symmetry_equiv_pos_as_xyz
  x,y,z
_cell_length_a	15.944493
_cell_length_b	15.944551
_cell_length_c	9.198806
_cell_angle_alpha	89.995864
_cell_angle_beta	89.996623
_cell_angle_gamma	83.486891
loop_
_atom_site_label
_atom_site_type_symbol
_atom_site_fract_x
_atom_site_fract_y
_atom_site_fract_z
O1	O	1.114554	0.108098	-0.120876
O2	O	1.614554	0.608098	0.379124
O3	O	0.869998	0.121505	-0.120884
O4	O	1.369998	0.621505	0.379116
O5	O	0.998954	-0.007474	-0.120867
O6	O	1.498954	0.492526	0.379133
O7	O	0.985598	0.237078	-0.120893
O8	O	1.485598	0.737078	0.379107
O9	O	0.998944	-0.007475	0.120918
O10	O	1.498944	0.492525	0.620918
O11	O	0.869988	0.121505	0.120901
O12	O	1.369988	0.621505	0.620901
O13	O	1.114544	0.108098	0.120909
O14	O	1.614544	0.608098	0.620909
Cu15	Cu	0.992265	0.114802	0.142982
Cu16	Cu	1.492265	0.614802	0.642982
Cu17	Cu	0.992277	0.114802	-0.142957
Cu18	Cu	1.492277	0.614802	0.357043
O19	O	0.985587	0.237078	0.120892
O20	O	1.485587	0.737078	0.620892
C21	C	0.838698	0.120957	0.000008
C22	C	1.338698	0.620957	0.500008
C23	C	0.745449	0.119314	0.000005
C24	C	1.245449	0.619314	0.500005
C25	C	0.509689	0.195235	-0.000004
C26	C	1.009689	0.695235	0.499996
C27	C	0.459126	0.154294	0.119220
C28	C	0.959126	0.654294	0.619220
C29	C	0.574728	0.116270	0.000009
C30	C	1.074728	0.616270	0.500009
C31	C	0.459141	0.154275	-0.119162
C32	C	0.959141	0.654275	0.380838
C33	C	0.409819	0.113336	0.000005
C34	C	0.909819	0.613336	0.500005
C35	C	0.525393	0.075351	0.119330
C36	C	1.025393	0.575351	0.619330
C37	C	0.525411	0.075344	-0.119158
C38	C	1.025411	0.575344	0.380842
C39	C	0.474880	0.034345	0.000095
C40	C	0.974880	0.534345	0.500095
C41	C	0.669728	0.117963	0.000012
C42	C	1.169728	0.617963	0.500012
C43	C	0.314821	0.111637	0.000013
C44	C	0.814821	0.611637	0.500013
C45	C	0.998395	-0.038768	0.000026
C46	C	1.498395	0.461232	0.500026
C47	C	0.996732	-0.132014	0.000027
C48	C	1.496732	0.367986	0.500027
C49	C	0.912826	-0.346853	0.000004
C50	C	1.412826	0.153147	0.500004
C51	C	0.951784	-0.407879	0.119220
C52	C	1.451784	0.092121	0.619220
C53	C	0.993725	-0.302739	0.000016
C54	C	1.493725	0.197261	0.500016
C55	C	0.951813	-0.407862	-0.119161
C56	C	1.451813	0.092138	0.380839
C57	C	0.990814	-0.467651	-0.000002
C58	C	1.490814	0.032349	0.499998
C59	C	1.032706	-0.362537	0.119330
C60	C	1.532706	0.137463	0.619330
C61	C	1.032723	-0.362513	-0.119158
C62	C	1.532723	0.137487	0.380842
C63	C	1.071741	-0.423521	0.000087
C64	C	1.571741	0.076479	0.500087
C65	C	0.995399	-0.207737	0.000027
C66	C	1.495399	0.292263	0.500027
C67	C	0.989146	-0.562652	-0.000002
C68	C	1.489146	-0.062652	0.499998
C69	C	1.145844	0.108646	0.000014
C70	C	1.645844	0.608646	0.500014
C71	C	1.239092	0.110289	0.000007
C72	C	1.739092	0.610289	0.500007
C73	C	0.986147	0.268372	-0.000004
C74	C	1.486147	0.768372	0.499996
C75	C	0.987809	0.361617	-0.000015
C76	C	1.487809	0.861617	0.499985
N77	N	0.992262	0.114801	0.344096
N78	N	1.492262	0.614801	0.844096
N79	N	0.992286	0.114796	-0.344071
N80	N	1.492286	0.614796	0.155929
C81	C	1.046409	0.060409	0.416300
C82	C	1.546409	0.560409	0.916300
C83	C	1.046423	0.060406	0.583712
C84	C	1.546423	0.560406	1.083712
H85	H	0.554361	0.042021	-0.219948
H86	H	1.054361	0.542021	0.280052
H87	H	0.525313	0.263254	0.000100
H88	H	1.025313	0.763254	0.500100
H89	H	1.066915	-0.342390	-0.219949
H90	H	1.566915	0.157610	0.280051
F91	F	1.107021	-0.000458	0.664868
F92	F	1.607021	0.499542	1.164868
F93	F	1.106842	-0.000604	0.335108
F94	F	1.606842	0.499396	0.835108
H95	H	0.554217	0.042023	0.220224
H96	H	1.054217	0.542023	0.720224
H97	H	0.917563	-0.427980	0.220005
H98	H	1.417563	0.072020	0.720005
H99	H	1.066890	-0.342553	0.220228
H100	H	1.566890	0.157447	0.720228
F101	F	0.421322	0.197883	-0.250889
F102	F	0.921322	0.697883	0.249111
H103	H	0.430184	0.187642	0.220005
H104	H	0.930184	0.687642	0.720005
H105	H	0.945929	0.161368	0.593846
H106	H	1.445929	0.661368	1.093846
H107	H	0.945911	0.161362	0.406218
H108	H	1.445911	0.661362	0.906218
F109	F	0.825056	-0.303300	0.000149
F110	F	1.325056	0.196700	0.500149
H111	H	0.459415	-0.033726	0.000171
H112	H	0.959415	0.466274	0.500171
F113	F	1.159587	-0.466883	0.000173
F114	F	1.659587	0.033117	0.500173
F115	F	0.907076	-0.434113	-0.250888
F116	F	1.407076	0.065887	0.249112
