data_functionalizedCrystal
_audit_creation_method	'MofGen! by Chris Wilmer'
_symmetry_space_group_name_H-M	'P1'
_symmetry_Int_Tables_number	1
_symmetry_cell_setting	triclinic
loop_
_symmetry_equiv_pos_as_xyz
  x,y,z
_cell_length_a	15.944551
_cell_length_b	15.944551
_cell_length_c	15.021413
_cell_angle_alpha	90.008907
_cell_angle_beta	90.002826
_cell_angle_gamma	96.501262
loop_
_atom_site_label
_atom_site_type_symbol
_atom_site_fract_x
_atom_site_fract_y
_atom_site_fract_z
O1	O	-1.114529	0.108321	-0.073929
O2	O	-0.781196	0.441654	0.259404
O3	O	-0.447862	0.774988	0.592737
O4	O	-0.869979	0.121677	-0.073950
O5	O	-0.536646	0.455010	0.259383
O6	O	-0.203313	0.788344	0.592716
O7	O	-0.998932	-0.007276	-0.073944
O8	O	-0.665599	0.326057	0.259389
O9	O	-0.332265	0.659391	0.592722
O10	O	-0.985576	0.237274	-0.073935
O11	O	-0.652243	0.570607	0.259398
O12	O	-0.318909	0.903940	0.592731
O13	O	-0.998912	-0.007257	0.074120
O14	O	-0.665578	0.326076	0.407453
O15	O	-0.332245	0.659409	0.740786
O16	O	-0.869959	0.121695	0.074114
O17	O	-0.536625	0.455029	0.407447
O18	O	-0.203292	0.788362	0.740781
O19	O	-1.114508	0.108339	0.074135
O20	O	-0.781175	0.441673	0.407468
O21	O	-0.447842	0.775006	0.740801
Zn22	Zn	-0.992230	0.115020	0.097633
Zn23	Zn	-0.658897	0.448354	0.430966
Zn24	Zn	-0.325564	0.781687	0.764299
Zn25	Zn	-0.992257	0.114996	-0.097448
Zn26	Zn	-0.658924	0.448329	0.235885
Zn27	Zn	-0.325591	0.781663	0.569218
O28	O	-0.985555	0.237292	0.074129
O29	O	-0.652222	0.570626	0.407462
O30	O	-0.318889	0.903959	0.740796
C31	C	-0.838675	0.121132	0.000079
C32	C	-0.505342	0.454465	0.333412
C33	C	-0.172008	0.787798	0.666746
C34	C	-0.745429	0.119470	0.000070
C35	C	-0.412096	0.452803	0.333404
C36	C	-0.078762	0.786136	0.666737
C37	C	-0.998367	-0.038561	0.000084
C38	C	-0.665034	0.294773	0.333418
C39	C	-0.331701	0.628106	0.666751
C40	C	-0.996705	-0.131807	0.000075
C41	C	-0.663372	0.201527	0.333408
C42	C	-0.330038	0.534860	0.666741
C43	C	-1.145813	0.108885	0.000104
C44	C	-0.812479	0.442218	0.333437
C45	C	-0.479146	0.775551	0.666770
C46	C	-1.239059	0.110547	0.000106
C47	C	-0.905725	0.443880	0.333440
C48	C	-0.572392	0.777214	0.666773
N49	N	-0.992218	0.115036	0.230770
N50	N	-0.658885	0.448370	0.564104
N51	N	-0.325551	0.781703	0.897437
C52	C	-0.530572	0.035565	0.000085
C53	C	-0.197239	0.368898	0.333418
C54	C	0.136094	0.702232	0.666751
C55	C	-0.469562	0.074518	-0.072917
C56	C	-0.136229	0.407852	0.260416
C57	C	0.197104	0.741185	0.593749
C58	C	-0.574703	0.116462	0.000081
C59	C	-0.241370	0.449796	0.333414
C60	C	0.091964	0.783129	0.666748
C61	C	-0.469564	0.074556	0.073062
C62	C	-0.136231	0.407889	0.406396
C63	C	0.197102	0.741222	0.739729
C64	C	-0.409790	0.113551	0.000095
C65	C	-0.076457	0.446885	0.333428
C66	C	0.256876	0.780218	0.666761
C67	C	-0.514921	0.155438	-0.072981
C68	C	-0.181588	0.488771	0.260352
C69	C	0.151745	0.822104	0.593685
C70	C	-0.514930	0.155464	0.073064
C71	C	-0.181596	0.488797	0.406397
C72	C	0.151737	0.822130	0.739731
C73	C	-0.453937	0.194476	0.000044
C74	C	-0.120604	0.527809	0.333377
C75	C	0.212729	0.861143	0.666711
C76	C	-0.669705	0.118137	0.000072
C77	C	-0.336372	0.451470	0.333405
C78	C	-0.003039	0.784803	0.666739
C79	C	-0.314789	0.111883	0.000097
C80	C	0.018544	0.445217	0.333431
C81	C	0.351877	0.778550	0.666764
C82	C	-0.986120	0.268577	0.000098
C83	C	-0.652787	0.601910	0.333431
C84	C	-0.319453	0.935244	0.666765
C85	C	-0.987782	0.361823	0.000102
C86	C	-0.654449	0.695156	0.333435
C87	C	-0.321116	1.028490	0.666769
C88	C	-1.071687	0.576680	0.000096
C89	C	-0.738353	0.910013	0.333429
C90	C	-0.405020	1.243346	0.666762
C91	C	-1.032714	0.637705	0.073097
C92	C	-0.699381	0.971038	0.406430
C93	C	-0.366048	1.304372	0.739763
C94	C	-0.990790	0.532549	0.000094
C95	C	-0.657456	0.865882	0.333428
C96	C	-0.324123	1.199216	0.666761
C97	C	-1.032715	0.637672	-0.072883
C98	C	-0.699382	0.971006	0.260450
C99	C	-0.366049	1.304339	0.593784
C100	C	-0.993700	0.697462	0.000083
C101	C	-0.660367	1.030795	0.333417
C102	C	-0.327034	1.364128	0.666750
C103	C	-0.951795	0.592346	0.073156
C104	C	-0.618462	0.925679	0.406489
C105	C	-0.285128	1.259013	0.739822
C106	C	-0.951807	0.592307	-0.072890
C107	C	-0.618474	0.925640	0.260444
C108	C	-0.285141	1.258974	0.593777
C109	C	-0.912776	0.653315	0.000129
C110	C	-0.579443	0.986648	0.333462
C111	C	-0.246109	1.319981	0.666796
C112	C	-0.989115	0.437547	0.000102
C113	C	-0.655782	0.770880	0.333435
C114	C	-0.322448	1.104213	0.666768
C115	C	-0.995369	0.792463	0.000082
C116	C	-0.662035	1.125796	0.333416
C117	C	-0.328702	1.459129	0.666749
N118	N	-0.992276	0.114973	-0.230586
N119	N	-0.658943	0.448307	0.102747
N120	N	-0.325610	0.781640	0.436081
C121	C	-0.932581	0.174636	0.470451
C122	C	-0.599248	0.507969	0.803784
C123	C	-0.265914	0.841303	1.137118
C124	C	-1.008481	0.190943	0.529793
C125	C	-0.675148	0.524277	0.863126
C126	C	-0.341815	0.857610	1.196459
C127	C	-0.992239	0.115015	0.412377
C128	C	-0.658906	0.448349	0.745711
C129	C	-0.325573	0.781682	1.079044
C130	C	-0.916360	0.098727	0.529777
C131	C	-0.583026	0.432060	0.863110
C132	C	-0.249693	0.765394	1.196444
C133	C	-0.992253	0.114997	0.587801
C134	C	-0.658920	0.448330	0.921135
C135	C	-0.325587	0.781664	1.254468
C136	C	-1.068178	0.131360	0.470413
C137	C	-0.734845	0.464693	0.803746
C138	C	-0.401511	0.798027	1.137079
C139	C	-0.976006	0.039111	0.470392
C140	C	-0.642673	0.372444	0.803725
C141	C	-0.309340	0.705778	1.137058
C142	C	-1.051962	0.055386	0.529707
C143	C	-0.718628	0.388719	0.863040
C144	C	-0.385295	0.722053	1.196374
C145	C	-0.992230	0.115028	0.311320
C146	C	-0.658897	0.448361	0.644653
C147	C	-0.325564	0.781695	0.977987
C148	C	-0.992271	0.114984	0.688857
C149	C	-0.658938	0.448317	1.022190
C150	C	-0.325605	0.781650	1.355523
H151	H	-0.563905	-0.031573	-0.000008
H152	H	-0.230572	0.301760	0.333325
H153	H	0.102762	0.635094	0.666658
H154	H	-1.102474	0.004956	0.555562
H155	H	-0.769141	0.338289	0.888895
H156	H	-0.435807	0.671622	1.222228
H157	H	-0.845569	0.686473	0.000164
H158	H	-0.512235	1.019806	0.333497
H159	H	-0.178902	1.353140	0.666831
H160	H	-0.917629	0.572171	-0.134615
H161	H	-0.584295	0.905504	0.198718
H162	H	-0.250962	1.238837	0.532051
H163	H	-1.066922	0.657820	0.134819
H164	H	-0.733588	0.991153	0.468153
H165	H	-0.400255	1.324486	0.801486
H166	H	-0.882181	0.225096	0.444433
H167	H	-0.548847	0.558430	0.777766
H168	H	-0.215514	0.891763	1.111100
H169	H	-0.449461	0.040295	-0.134638
H170	H	-0.116127	0.373628	0.198695
H171	H	0.217206	0.706961	0.532029
Br172	Br	-0.953063	-0.067832	0.426867
Br173	Br	-0.619730	0.265501	0.760200
Br174	Br	-0.286396	0.598835	1.093534
Br175	Br	-0.809398	0.075777	0.573245
Br176	Br	-0.476064	0.409110	0.906578
Br177	Br	-0.142731	0.742444	1.239912
H178	H	-0.917597	0.572362	0.134939
H179	H	-0.584263	0.905696	0.468272
H180	H	-0.250930	1.239029	0.801605
Br181	Br	-0.548243	0.212413	-0.175961
Br182	Br	-0.214909	0.545747	0.157372
Br183	Br	0.118424	0.879080	0.490706
H184	H	-1.022224	0.255126	0.555884
H185	H	-0.688891	0.588459	0.889217
H186	H	-0.355557	0.921792	1.222550
H187	H	-1.132368	0.145206	0.444446
H188	H	-0.799035	0.478539	0.777779
H189	H	-0.465701	0.811872	1.111113
H190	H	-1.066955	0.657754	-0.134596
H191	H	-0.733622	0.991088	0.198737
H192	H	-0.400289	1.324421	0.532071
Br193	Br	-0.398667	0.306490	-0.000014
Br194	Br	-0.065333	0.639824	0.333319
Br195	Br	0.268000	0.973157	0.666653
H196	H	-0.449470	0.040332	0.134777
H197	H	-0.116136	0.373666	0.468111
H198	H	0.217197	0.706999	0.801444
Br199	Br	-1.183604	0.521165	0.000219
Br200	Br	-0.850270	0.854498	0.333553
Br201	Br	-0.516937	1.187831	0.666886
Br202	Br	-0.548472	0.212461	0.175941
Br203	Br	-0.215139	0.545794	0.509274
Br204	Br	0.118195	0.879128	0.842608
