data_functionalizedCrystal
_audit_creation_method	'MofGen! by Chris Wilmer'
_symmetry_space_group_name_H-M	'P1'
_symmetry_Int_Tables_number	1
_symmetry_cell_setting	triclinic
loop_
_symmetry_equiv_pos_as_xyz
  x,y,z
_cell_length_a	14.044220
_cell_length_b	14.971482
_cell_length_c	12.503572
_cell_angle_alpha	93.521927
_cell_angle_beta	86.156832
_cell_angle_gamma	88.400743
loop_
_atom_site_label
_atom_site_type_symbol
_atom_site_fract_x
_atom_site_fract_y
_atom_site_fract_z
O1	O	0.118041	1.201398	0.089309
O2	O	0.132838	0.942163	0.089315
O3	O	-0.012548	1.067889	0.089302
O4	O	0.263428	1.075672	0.089323
O5	O	-0.001596	1.058435	-0.089339
O6	O	0.143790	0.932709	-0.089326
O7	O	0.128993	1.191944	-0.089331
Cu8	Cu	0.137392	1.061463	-0.105640
Cu9	Cu	0.124440	1.072644	0.105624
O10	O	0.274380	1.066218	-0.089318
C11	C	0.137653	0.904059	-0.000005
C12	C	0.135672	0.804606	-0.000003
C13	C	0.140709	0.752734	-0.097381
C14	C	0.138832	0.659288	-0.097383
C15	C	0.131925	0.617715	-0.000004
C16	C	0.126885	0.669593	0.097381
C17	C	0.128755	0.763038	0.097382
C18	C	0.122991	0.474824	0.097374
C19	C	0.121122	0.381373	0.097374
C20	C	0.133068	0.371074	-0.097390
C21	C	0.134937	0.464519	-0.097390
C22	C	0.129899	0.516391	-0.000004
C23	C	-0.042391	1.059755	-0.000019
C24	C	-0.147628	1.049594	-0.000020
C25	C	-0.340311	1.031018	-0.000004
C26	C	-0.397864	1.103085	-0.000003
C27	C	-0.505079	1.092749	0.000006
C28	C	-0.233085	1.041353	-0.000013
C29	C	0.304222	1.074352	0.000005
C30	C	0.409459	1.084513	0.000013
C31	C	0.124178	1.230048	-0.000009
C32	C	0.126159	1.329501	-0.000004
N33	N	0.146501	1.053606	-0.254231
C34	C	0.159909	1.042048	-0.473345
C35	C	0.101918	1.092062	-0.526678
C36	C	0.109379	1.085631	-0.648600
C37	C	0.152450	1.048478	-0.351412
N38	N	0.115323	1.080507	0.254215
H39	H	0.124655	0.805271	0.176677
N40	N	-0.358655	1.190219	-0.000011
N41	N	-0.270350	1.198603	-0.000022
H42	H	-0.242653	1.260139	-0.000032
H43	H	0.137170	0.328835	-0.176686
N44	N	-0.379505	0.943883	-0.000036
N45	N	-0.356441	0.886990	-0.075352
H46	H	-0.384133	0.825451	-0.075382
N47	N	0.143971	0.606317	-0.196862
N48	N	0.150140	0.643446	-0.283799
H49	H	0.153767	0.606036	-0.354063
N50	N	0.032609	1.151831	-0.469080
N51	N	0.026568	1.157040	-0.368683
H52	H	-0.022378	1.199251	-0.327998
N53	N	0.229211	0.982281	-0.530942
N54	N	0.235247	0.977079	-0.631339
H55	H	0.284193	0.934870	-0.672030
N56	N	0.114060	0.338919	0.196851
N57	N	0.109549	0.385241	0.283794
H58	H	0.104558	0.355259	0.354053
N59	N	0.117834	0.527799	0.196861
N60	N	0.111668	0.490671	0.283799
H61	H	0.108029	0.528084	0.354061
H62	H	0.146341	0.786576	-0.176678
N63	N	0.141997	0.506973	-0.196867
N64	N	0.146491	0.460651	-0.283810
H65	H	0.151473	0.490633	-0.354068
H66	H	0.121255	0.635737	0.176668
