data_functionalizedCrystal
_audit_creation_method	'MofGen! by Chris Wilmer'
_symmetry_space_group_name_H-M	'P1'
_symmetry_Int_Tables_number	1
_symmetry_cell_setting	triclinic
loop_
_symmetry_equiv_pos_as_xyz
  x,y,z
_cell_length_a	19.288840
_cell_length_b	13.262508
_cell_length_c	18.366186
_cell_angle_alpha	105.912108
_cell_angle_beta	89.983729
_cell_angle_gamma	83.808092
loop_
_atom_site_label
_atom_site_type_symbol
_atom_site_fract_x
_atom_site_fract_y
_atom_site_fract_z
O1	O	0.922009	0.130804	-0.034765
O2	O	1.422009	0.630804	0.465235
O3	O	0.719834	0.148493	-0.031237
O4	O	1.219834	0.648493	0.468763
O5	O	0.826012	-0.013163	-0.063262
O6	O	1.326012	0.486837	0.436738
O7	O	0.815831	0.292460	-0.002741
O8	O	1.315831	0.792460	0.497259
O9	O	0.825994	-0.013171	0.057836
O10	O	1.325994	0.486829	0.557836
O11	O	0.719815	0.148485	0.089861
O12	O	1.219815	0.648485	0.589861
O13	O	0.921991	0.130796	0.086332
O14	O	1.421991	0.630796	0.586332
Zn15	Zn	0.820900	0.139639	0.107324
Zn16	Zn	1.320900	0.639639	0.607324
Zn17	Zn	0.820924	0.139650	-0.052228
Zn18	Zn	1.320924	0.639650	0.447772
O19	O	0.815813	0.292452	0.118357
O20	O	1.315813	0.792452	0.618357
C21	C	0.693945	0.147924	0.029204
C22	C	1.193945	0.647924	0.529204
C23	C	0.616832	0.146229	0.028877
C24	C	1.116832	0.646229	0.528877
C25	C	0.580634	0.145419	-0.037296
C26	C	1.080634	0.645419	0.462704
C27	C	0.508180	0.143814	-0.037623
C28	C	1.008180	0.643814	0.462377
C29	C	0.471927	0.142998	0.028224
C30	C	0.971927	0.642998	0.528224
C31	C	0.508133	0.143815	0.094407
C32	C	1.008133	0.643815	0.594407
C33	C	0.580585	0.145430	0.094734
C34	C	1.080585	0.645430	0.594734
C35	C	0.362276	0.078961	0.066104
C36	C	0.862276	0.578961	0.566104
C37	C	0.289825	0.077339	0.065773
C38	C	0.789825	0.577339	0.565773
C39	C	0.248459	0.138021	0.027219
C40	C	0.748459	0.638021	0.527219
C41	C	0.279553	0.200311	-0.011019
C42	C	0.779553	0.700311	0.488981
C43	C	0.352006	0.201926	-0.010692
C44	C	0.852006	0.701926	0.489308
C45	C	0.393364	0.141247	0.027877
C46	C	0.893364	0.641247	0.527877
C47	C	0.133697	0.135472	-0.039313
C48	C	0.633697	0.635472	0.460687
C49	C	0.061240	0.133874	-0.039636
C50	C	0.561240	0.633874	0.460364
C51	C	0.061196	0.133864	0.092394
C52	C	0.561196	0.633864	0.592394
C53	C	0.133650	0.135473	0.092717
C54	C	0.633650	0.635473	0.592717
C55	C	0.169897	0.136272	0.026860
C56	C	0.669897	0.636272	0.526860
C57	C	0.825434	-0.052267	-0.010457
C58	C	1.325434	0.447733	0.489543
C59	C	0.823730	-0.168773	-0.033532
C60	C	1.323730	0.331227	0.466468
C61	C	0.818883	-0.497214	0.165474
C62	C	1.318883	0.002786	0.665474
C63	C	0.820479	-0.387750	0.187155
C64	C	1.320479	0.112250	0.687155
C65	C	0.821292	-0.333000	0.131985
C66	C	1.321292	0.167000	0.631985
C67	C	0.820509	-0.387726	0.055130
C68	C	1.320509	0.112274	0.555130
C69	C	0.818908	-0.497199	0.033448
C70	C	1.318908	0.002801	0.533448
C71	C	0.821316	-0.332986	-0.000041
C72	C	1.321316	0.167014	0.499959
C73	C	0.820533	-0.387711	-0.076896
C74	C	1.320533	0.112289	0.423104
C75	C	0.818932	-0.497174	-0.098575
C76	C	1.318932	0.002826	0.401425
C77	C	0.818119	-0.551923	-0.043405
C78	C	1.318119	-0.051923	0.456595
C79	C	0.822917	-0.223512	0.021642
C80	C	1.322917	0.276488	0.521642
C81	C	0.822942	-0.223497	-0.110384
C82	C	1.322942	0.276503	0.389616
C83	C	0.821346	-0.332961	-0.132065
C84	C	1.321346	0.167039	0.367935
C85	C	0.947880	0.131364	0.025890
C86	C	1.447880	0.631364	0.525890
C87	C	1.024993	0.133060	0.026212
C88	C	1.524993	0.633060	0.526212
C89	C	0.816391	0.331556	0.065551
C90	C	1.316391	0.831556	0.565551
C91	C	0.818095	0.448062	0.088621
C92	C	1.318095	0.948062	0.588621
N93	N	0.820889	0.139631	0.216213
N94	N	1.320889	0.639631	0.716213
N95	N	0.820941	0.139649	-0.161119
N96	N	1.320941	0.639649	0.338881
C97	C	0.867920	0.068085	0.240140
C98	C	1.367920	0.568085	0.740140
C99	C	0.867925	0.068080	0.316367
C100	C	1.367925	0.568080	0.816367
C101	C	0.820905	0.139640	0.368668
C102	C	1.320905	0.639640	0.868668
C103	C	0.773864	0.211192	0.344733
C104	C	1.273864	0.711192	0.844733
C105	C	0.773857	0.211188	0.268506
C106	C	1.273857	0.711188	0.768506
C107	C	0.812078	0.235271	0.508366
C108	C	1.312078	0.735271	1.008366
C109	C	0.812091	0.235277	0.584592
C110	C	1.312091	0.735277	1.084592
C111	C	0.820924	0.139653	0.603778
C112	C	1.320924	0.639653	1.103778
C113	C	0.829760	0.044020	0.546727
C114	C	1.329760	0.544020	1.046727
C115	C	0.829752	0.044015	0.470500
C116	C	1.329752	0.544015	0.970500
C117	C	0.820907	0.139652	0.451325
C118	C	1.320907	0.639652	0.951325
C119	C	0.867963	0.068096	0.710357
C120	C	1.367963	0.568096	1.210357
C121	C	0.867963	0.068090	0.786585
C122	C	1.367963	0.568090	1.286585
C123	C	0.773906	0.211211	0.814952
C124	C	1.273906	0.711211	1.314952
C125	C	0.773903	0.211208	0.738723
C126	C	1.273903	0.711208	1.238723
C127	C	0.820935	0.139651	0.686431
C128	C	1.320935	0.639651	1.186431
H129	H	0.478611	0.143153	0.148020
H130	H	0.978611	0.643153	0.648020
Cl131	Cl	0.179159	0.136485	0.175910
Cl132	Cl	0.679159	0.636485	0.675910
H133	H	0.610142	0.146069	-0.090922
H134	H	1.110142	0.646069	0.409078
Cl135	Cl	0.179267	0.136487	-0.122100
Cl136	Cl	0.679267	0.636487	0.377900
H137	H	0.395951	0.029544	0.097502
H138	H	0.895951	0.529544	0.597502
H139	H	0.031769	0.133220	-0.093523
H140	H	0.531769	0.633220	0.406477
Cl141	Cl	0.927042	-0.021875	0.174401
Cl142	Cl	1.427042	0.478125	0.674401
H143	H	0.818289	-0.541727	-0.161155
H144	H	1.318289	-0.041727	0.338845
Cl145	Cl	0.250740	-0.000942	0.113862
Cl146	Cl	0.750740	0.499058	0.613862
H147	H	0.735579	0.269456	0.387320
H148	H	1.235579	0.769456	0.887320
Cl149	Cl	0.927056	-0.021871	0.346453
Cl150	Cl	1.427056	0.478129	0.846453
H151	H	0.822590	-0.243869	0.149642
H152	H	1.322590	0.256131	0.649642
Cl153	Cl	0.817848	-0.566043	0.234821
Cl154	Cl	1.317848	-0.066043	0.734821
Cl155	Cl	0.816113	-0.689541	-0.070659
Cl156	Cl	1.316113	-0.189541	0.429341
H157	H	0.245874	0.249728	-0.042410
H158	H	0.745874	0.749728	0.457590
Cl159	Cl	0.820363	-0.401771	-0.228680
Cl160	Cl	1.320363	0.098229	0.271320
H161	H	0.821124	-0.343202	0.249729
H162	H	1.321124	0.156798	0.749729
Cl163	Cl	0.840852	-0.076204	0.398783
Cl164	Cl	1.340852	0.423796	0.898783
Cl165	Cl	0.462664	0.142794	-0.120819
Cl166	Cl	0.962664	0.642794	0.379181
Cl167	Cl	0.823950	-0.154675	-0.179745
Cl168	Cl	1.323950	0.345325	0.320255
Cl169	Cl	0.840871	-0.076202	0.570836
Cl170	Cl	1.340871	0.423798	1.070836
Cl171	Cl	0.391094	0.280235	-0.058756
Cl172	Cl	0.891094	0.780235	0.441244
H173	H	0.906259	0.009822	0.806064
H174	H	1.406259	0.509822	1.306064
H175	H	0.906258	0.009827	0.667778
H176	H	1.406258	0.509827	1.167778
H177	H	0.735618	0.269472	0.857534
H178	H	1.235618	0.769472	1.357534
H179	H	0.735608	0.269472	0.719242
H180	H	1.235608	0.769472	1.219242
Cl181	Cl	0.800988	0.355500	0.656305
Cl182	Cl	1.300988	0.855500	1.156305
Cl183	Cl	0.714728	0.301140	0.238425
Cl184	Cl	1.214728	0.801140	0.738425
H185	H	0.804873	0.313145	0.492755
H186	H	1.304873	0.813145	0.992755
H187	H	0.610057	0.146091	0.148622
H188	H	1.110057	0.646091	0.648622
H189	H	0.031679	0.133206	0.146009
H190	H	0.531679	0.633206	0.646009
Cl191	Cl	0.823903	-0.154728	0.118255
Cl192	Cl	1.323903	0.345272	0.618255
