data_functionalizedCrystal
_audit_creation_method	'MofGen! by Chris Wilmer'
_symmetry_space_group_name_H-M	'P1'
_symmetry_Int_Tables_number	1
_symmetry_cell_setting	triclinic
loop_
_symmetry_equiv_pos_as_xyz
  x,y,z
_cell_length_a	19.288840
_cell_length_b	18.366186
_cell_length_c	19.288865
_cell_angle_alpha	89.993214
_cell_angle_beta	96.868869
_cell_angle_gamma	90.013590
loop_
_atom_site_label
_atom_site_type_symbol
_atom_site_fract_x
_atom_site_fract_y
_atom_site_fract_z
O1	O	0.921362	0.060680	-0.086561
O2	O	1.254695	0.394013	0.246772
O3	O	1.588028	0.727346	0.580105
O4	O	0.719099	0.060655	-0.098268
O5	O	1.052432	0.393989	0.235065
O6	O	1.385765	0.727322	0.568398
O7	O	0.826075	0.060654	0.008716
O8	O	1.159408	0.393987	0.342049
O9	O	1.492741	0.727320	0.675383
O10	O	0.814386	0.060681	-0.193546
O11	O	1.147719	0.394015	0.139788
O12	O	1.481052	0.727348	0.473121
O13	O	0.826061	-0.060446	0.008712
O14	O	1.159394	0.272888	0.342046
O15	O	1.492727	0.606221	0.675379
O16	O	0.719085	-0.060444	-0.098272
O17	O	1.052418	0.272889	0.235061
O18	O	1.385751	0.606223	0.568395
O19	O	0.921348	-0.060420	-0.086565
O20	O	1.254681	0.272914	0.246768
O21	O	1.588015	0.606247	0.580102
Zn22	Zn	0.820214	-0.079659	-0.092419
Zn23	Zn	1.153547	0.253674	0.240914
Zn24	Zn	1.486881	0.587008	0.574248
Zn25	Zn	0.820232	0.079895	-0.092414
Zn26	Zn	1.153566	0.413228	0.240919
Zn27	Zn	1.486899	0.746561	0.574252
O28	O	0.814372	-0.060418	-0.193549
O29	O	1.147705	0.272915	0.139784
O30	O	1.481039	0.606249	0.473117
C31	C	0.693215	0.000102	-0.097896
C32	C	1.026548	0.333436	0.235437
C33	C	1.359882	0.666769	0.568770
C34	C	0.616110	0.000093	-0.096774
C35	C	0.949444	0.333426	0.236559
C36	C	1.282777	0.666759	0.569892
C37	C	0.579914	0.066106	-0.096233
C38	C	0.913248	0.399439	0.237100
C39	C	1.246581	0.732772	0.570433
C40	C	0.507467	0.066114	-0.095171
C41	C	0.840801	0.399448	0.238162
C42	C	1.174134	0.732781	0.571495
C43	C	0.471221	0.000106	-0.094636
C44	C	0.804555	0.333440	0.238697
C45	C	1.137888	0.666773	0.572030
C46	C	0.507425	-0.065915	-0.095181
C47	C	0.840759	0.267418	0.238152
C48	C	1.174092	0.600751	0.571485
C49	C	0.579870	-0.065922	-0.096250
C50	C	0.913203	0.267411	0.237083
C51	C	1.246537	0.600744	0.570416
C52	C	0.361888	-0.050461	-0.052260
C53	C	0.695221	0.282873	0.281073
C54	C	1.028554	0.616206	0.614407
C55	C	0.289445	-0.050451	-0.051187
C56	C	0.622778	0.282882	0.282147
C57	C	0.956112	0.616216	0.615480
C58	C	0.247778	0.000125	-0.091342
C59	C	0.581111	0.333458	0.241991
C60	C	0.914444	0.666792	0.575325
C61	C	0.278563	0.050703	-0.132562
C62	C	0.611896	0.384037	0.200771
C63	C	0.945230	0.717370	0.534105
C64	C	0.351007	0.050697	-0.133631
C65	C	0.684341	0.384030	0.199702
C66	C	1.017674	0.717363	0.533036
C67	C	0.392667	0.000107	-0.093477
C68	C	0.726001	0.333440	0.239856
C69	C	1.059334	0.666773	0.573189
C70	C	0.133026	0.066152	-0.089651
C71	C	0.466360	0.399485	0.243683
C72	C	0.799693	0.732819	0.577016
C73	C	0.060577	0.066158	-0.088593
C74	C	0.393911	0.399491	0.244741
C75	C	0.727244	0.732825	0.578074
C76	C	0.060538	-0.065874	-0.088596
C77	C	0.393871	0.267460	0.244737
C78	C	0.727204	0.600793	0.578071
C79	C	0.132984	-0.065878	-0.089661
C80	C	0.466318	0.267456	0.243673
C81	C	0.799651	0.600789	0.577006
C82	C	0.169225	0.000137	-0.090185
C83	C	0.502558	0.333470	0.243149
C84	C	0.835891	0.666804	0.576482
C85	C	0.825692	0.000102	0.034591
C86	C	1.159025	0.333435	0.367924
C87	C	1.492358	0.666769	0.701257
C88	C	0.824563	0.000095	0.111694
C89	C	1.157896	0.333429	0.445027
C90	C	1.491229	0.666762	0.778361
C91	C	0.947232	0.000135	-0.086937
C92	C	1.280565	0.333468	0.246396
C93	C	1.613898	0.666801	0.579730
C94	C	1.024336	0.000149	-0.088059
C95	C	1.357669	0.333483	0.245274
C96	C	1.691003	0.666816	0.578608
N97	N	0.820207	-0.188550	-0.092422
N98	N	1.153540	0.144783	0.240911
N99	N	1.486873	0.478117	0.574245
C100	C	0.862238	-0.773088	-0.134416
C101	C	1.195572	-0.439755	0.198917
C102	C	1.528905	-0.106422	0.532251
C103	C	0.862231	-0.696861	-0.134423
C104	C	1.195564	-0.363527	0.198911
C105	C	1.528898	-0.030194	0.532244
C106	C	0.820239	-0.658761	-0.092407
C107	C	1.153572	-0.325428	0.240927
C108	C	1.486906	0.007905	0.574260
C109	C	0.778237	-0.696896	-0.050394
C110	C	1.111571	-0.363563	0.282940
C111	C	1.444904	-0.030230	0.616273
C112	C	0.778240	-0.773123	-0.050393
C113	C	1.111574	-0.439790	0.282940
C114	C	1.444907	-0.106456	0.616273
C115	C	0.818512	-0.538004	-0.029782
C116	C	1.151845	-0.204671	0.303551
C117	C	1.485179	0.128662	0.636884
C118	C	0.818514	-0.461779	-0.029781
C119	C	1.151847	-0.128446	0.303552
C120	C	1.485180	0.204887	0.636886
C121	C	0.820225	-0.423654	-0.092408
C122	C	1.153558	-0.090321	0.240925
C123	C	1.486892	0.243013	0.574258
C124	C	0.821949	-0.461763	-0.155038
C125	C	1.155282	-0.128429	0.178296
C126	C	1.488616	0.204904	0.511629
C127	C	0.821952	-0.537989	-0.155037
C128	C	1.155286	-0.204656	0.178296
C129	C	1.488619	0.128678	0.511629
C130	C	0.820230	-0.576107	-0.092403
C131	C	1.153564	-0.242773	0.240931
C132	C	1.486897	0.090560	0.574264
C133	C	0.862213	-0.302873	-0.134429
C134	C	1.195546	0.030460	0.198904
C135	C	1.528879	0.363793	0.532237
C136	C	0.862200	-0.226644	-0.134438
C137	C	1.195534	0.106689	0.198896
C138	C	1.528867	0.440023	0.532229
C139	C	0.778211	-0.226681	-0.050402
C140	C	1.111544	0.106652	0.282931
C141	C	1.444877	0.439985	0.616264
C142	C	0.778219	-0.302909	-0.050400
C143	C	1.111552	0.030424	0.282933
C144	C	1.444885	0.363758	0.616266
C145	C	0.820223	-0.341000	-0.092413
C146	C	1.153557	-0.007667	0.240920
C147	C	1.486890	0.325666	0.574254
N148	N	0.820245	0.188786	-0.092406
N149	N	1.153579	0.522119	0.240928
N150	N	1.486912	0.855452	0.574261
C151	C	0.814755	0.000135	-0.219424
C152	C	1.148088	0.333469	0.113909
C153	C	1.481422	0.666802	0.447243
C154	C	0.815884	0.000147	-0.296527
C155	C	1.149217	0.333480	0.036806
C156	C	1.482551	0.666813	0.370139
C157	C	0.887331	0.000099	0.156396
C158	C	1.220665	0.333433	0.489729
C159	C	1.553998	0.666766	0.823063
C160	C	0.886270	0.000111	0.228843
C161	C	1.219604	0.333444	0.562176
C162	C	1.552937	0.666777	0.895510
C163	C	0.822438	0.000103	0.256585
C164	C	1.155771	0.333437	0.589918
C165	C	1.489104	0.666770	0.923251
C166	C	0.759661	0.000104	0.211873
C167	C	1.092994	0.333437	0.545206
C168	C	1.426327	0.666770	0.878540
C169	C	0.760723	0.000100	0.139428
C170	C	1.094056	0.333433	0.472761
C171	C	1.427390	0.666766	0.806094
C172	C	0.772253	-0.042321	0.364866
C173	C	1.105586	0.291012	0.698200
C174	C	1.438919	0.624346	1.031533
C175	C	0.771193	-0.042321	0.437311
C176	C	1.104526	0.291012	0.770644
C177	C	1.437859	0.624345	1.103977
C178	C	0.819158	0.000119	0.480030
C179	C	1.152491	0.333453	0.813363
C180	C	1.485825	0.666786	1.146697
C181	C	0.868195	0.042551	0.450298
C182	C	1.201528	0.375885	0.783631
C183	C	1.534861	0.709218	1.116964
C184	C	0.869257	0.042547	0.377852
C185	C	1.202591	0.375880	0.711186
C186	C	1.535924	0.709214	1.044519
C187	C	0.821278	0.000108	0.335139
C188	C	1.154612	0.333442	0.668472
C189	C	1.487945	0.666775	1.001805
C190	C	0.880781	0.000137	0.603288
C191	C	1.214114	0.333470	0.936621
C192	C	1.547447	0.666803	1.269955
C193	C	0.879717	0.000153	0.675736
C194	C	1.213051	0.333486	1.009069
C195	C	1.546384	0.666819	1.342403
C196	C	0.753106	0.000138	0.658764
C197	C	1.086439	0.333472	0.992098
C198	C	1.419772	0.666805	1.325431
C199	C	0.754171	0.000130	0.586318
C200	C	1.087504	0.333463	0.919651
C201	C	1.420838	0.666796	1.252985
C202	C	0.818010	0.000125	0.558584
C203	C	1.151344	0.333459	0.891918
C204	C	1.484677	0.666792	1.225251
H205	H	0.477909	-0.119660	-0.094747
H206	H	0.811242	0.213674	0.238586
H207	H	1.144576	0.547007	0.571919
F208	F	0.906936	-0.656276	-0.179129
F209	F	1.240270	-0.322943	0.154204
F210	F	1.573603	0.010391	0.487538
F211	F	0.685169	0.000134	0.688284
F212	F	1.018503	0.333468	1.021618
F213	F	1.351836	0.666801	1.354951
H214	H	0.244638	0.091885	-0.165263
H215	H	0.577971	0.425218	0.168070
H216	H	0.911305	0.758552	0.501403
F217	F	0.921441	0.087708	0.346211
F218	F	1.254774	0.421041	0.679544
F219	F	1.588108	0.754375	1.012878
F220	F	0.021966	-0.136125	-0.088032
F221	F	0.355299	0.197208	0.245301
F222	F	0.688633	0.530542	0.578634
H223	H	0.707687	0.000099	0.234465
H224	H	1.041021	0.333433	0.567798
H225	H	1.374354	0.666766	0.901132
F226	F	0.468937	0.136377	-0.094595
F227	F	0.802270	0.469711	0.238738
F228	F	1.135604	0.803044	0.572071
H229	H	0.939314	0.000098	0.133820
H230	H	1.272647	0.333432	0.467154
H231	H	1.605981	0.666765	0.800487
H232	H	0.896412	-0.333889	-0.168642
H233	H	1.229745	-0.000556	0.164691
H234	H	1.563079	0.332778	0.498025
H235	H	0.733192	-0.076885	0.330089
H236	H	1.066525	0.256448	0.663423
H237	H	1.399858	0.589781	0.996756
H238	H	0.703058	0.000122	0.549920
H239	H	1.036391	0.333456	0.883254
H240	H	1.369724	0.666789	1.216587
F241	F	0.719007	-0.087483	0.468948
F242	F	1.052340	0.245850	0.802281
F243	F	1.385673	0.579183	1.135614
F244	F	0.733543	-0.813700	-0.005678
F245	F	1.066877	-0.480367	0.327655
F246	F	1.400210	-0.147034	0.660988
H247	H	0.896395	-0.195603	-0.168652
H248	H	1.229728	0.137730	0.164681
H249	H	1.563061	0.471063	0.498015
F250	F	0.022054	0.136422	-0.088022
F251	F	0.355388	0.469756	0.245311
F252	F	0.688721	0.803089	0.578644
F253	F	0.406227	-0.104295	-0.009519
F254	F	0.739560	0.229038	0.323814
F255	F	1.072894	0.562371	0.657148
F256	F	0.733514	-0.186139	-0.005690
F257	F	1.066847	0.147195	0.327644
F258	F	1.400181	0.480528	0.660977
F259	F	0.618394	-0.136186	-0.096826
F260	F	0.951727	0.197148	0.236507
F261	F	1.285060	0.530481	0.569840
F262	F	0.946528	0.000161	0.723312
F263	F	1.279862	0.333495	1.056645
F264	F	1.613195	0.666828	1.389979
F265	F	0.733526	-0.343487	-0.005684
F266	F	1.066859	-0.010154	0.327649
F267	F	1.400192	0.323180	0.660983
H268	H	0.896441	-0.804098	-0.168627
H269	H	1.229774	-0.470764	0.164706
H270	H	1.563107	-0.137431	0.498040
H271	H	0.932763	0.000137	0.580706
H272	H	1.266096	0.333470	0.914040
H273	H	1.599429	0.666803	1.247373
H274	H	0.823354	-0.569014	-0.206032
H275	H	1.156687	-0.235681	0.127301
H276	H	1.490021	0.097652	0.460634
F277	F	0.816675	-0.421228	0.036873
F278	F	1.150009	-0.087895	0.370206
F279	F	1.483342	0.245438	0.703540
H280	H	0.937386	0.000117	0.265246
H281	H	1.270719	0.333450	0.598580
H282	H	1.604053	0.666783	0.931913
F283	F	0.823773	-0.421193	-0.221695
F284	F	1.157107	-0.087860	0.111638
F285	F	1.490440	0.245473	0.444972
H286	H	0.817112	-0.569040	0.021219
H287	H	1.150445	-0.235707	0.354552
H288	H	1.483779	0.097627	0.687886
H289	H	0.907252	0.077111	0.485079
H290	H	1.240586	0.410444	0.818412
H291	H	1.573919	0.743778	1.151745
F292	F	0.618480	0.136365	-0.096793
F293	F	0.951813	0.469698	0.236540
F294	F	1.285146	0.803032	0.569874
F295	F	0.383769	0.104522	-0.177501
F296	F	0.717102	0.437855	0.155832
F297	F	1.050435	0.771189	0.489166
H298	H	0.744045	-0.665871	-0.016185
H299	H	1.077379	-0.332538	0.317148
H300	H	1.410712	0.000795	0.650481
H301	H	0.264386	-0.091632	-0.017620
H302	H	0.597719	0.241702	0.315714
H303	H	0.931053	0.575035	0.649047
H304	H	0.162534	0.119905	-0.090084
H305	H	0.495867	0.453239	0.243249
H306	H	0.829200	0.786572	0.576582
F307	F	0.171509	-0.136139	-0.090233
F308	F	0.504842	0.197194	0.243101
F309	F	0.838175	0.530528	0.576434
F310	F	0.693913	0.000096	0.091850
F311	F	1.027246	0.333429	0.425184
F312	F	1.360580	0.666762	0.758517
