data_functionalizedCrystal
_audit_creation_method	'MofGen! by Chris Wilmer'
_symmetry_space_group_name_H-M	'P1'
_symmetry_Int_Tables_number	1
_symmetry_cell_setting	triclinic
loop_
_symmetry_equiv_pos_as_xyz
  x,y,z
_cell_length_a	12.827892
_cell_length_b	10.685980
_cell_length_c	10.686551
_cell_angle_alpha	81.591741
_cell_angle_beta	85.594922
_cell_angle_gamma	94.382205
loop_
_atom_site_label
_atom_site_type_symbol
_atom_site_fract_x
_atom_site_fract_y
_atom_site_fract_z
Zn1	Zn	-0.234228	1.995786	-0.866707
Zn2	Zn	-0.423541	1.979362	-0.654447
Zn3	Zn	-0.263313	1.767213	-0.638172
Zn4	Zn	-0.423440	1.783486	-0.850357
O5	O	-0.336130	1.881462	-0.752421
O6	O	-0.247211	2.171241	-0.852204
O7	O	-0.414501	1.937536	-0.474656
O8	O	-0.113213	1.797597	-0.668520
O9	O	-0.386299	2.159174	-0.696257
O10	O	-0.091844	1.965529	-0.836423
O11	O	-0.296782	1.781671	-0.462699
O12	O	-0.296684	1.591738	-0.652666
O13	O	-0.386126	1.825332	-1.030158
O14	O	-0.414328	1.603693	-0.808557
O15	O	-0.247112	1.981308	-1.042170
O16	O	-0.569770	1.953315	-0.680403
O17	O	-0.569695	1.809406	-0.824338
C18	C	-0.358652	1.551657	-0.727072
C19	C	-0.368310	1.410568	-0.716257
C20	C	-0.607647	1.881381	-0.752393
C21	C	-0.723793	1.881465	-0.752432
C22	C	-0.775567	1.952774	-0.681301
C23	C	-0.895610	1.952864	-0.681340
C24	C	-0.063549	1.881580	-0.752480
C25	C	0.052609	1.881630	-0.752505
C26	C	-0.313363	1.906967	-1.083510
C27	C	-0.303661	1.917836	-1.224600
C28	C	-0.313522	2.212554	-0.777870
C29	C	-0.303887	2.353646	-0.788715
C30	C	-0.358729	1.856129	-0.422626
C31	C	-0.368119	1.845506	-0.281555
H32	H	-0.430857	1.351357	-0.645939
H33	H	-0.241338	1.412850	-0.859020
H34	H	-0.241053	1.988085	-1.283785
H35	H	-0.731025	2.013765	-0.620379
H36	H	-0.940135	2.013910	-0.620439
N37	N	-0.782776	1.800676	-0.833145
H38	H	-0.820434	1.856827	-0.895943
H39	H	-0.835630	1.738004	-0.776873
N40	N	-0.888421	1.800757	-0.833175
H41	H	-0.899736	1.827380	-0.925423
H42	H	-0.915017	1.708573	-0.806337
N43	N	-0.451059	1.752467	-1.203181
H44	H	-0.446468	1.757630	-1.110120
H45	H	-0.439415	1.663575	-1.219321
