data_functionalizedCrystal
_audit_creation_method	'MofGen! by Chris Wilmer'
_symmetry_space_group_name_H-M	'P1'
_symmetry_Int_Tables_number	1
_symmetry_cell_setting	triclinic
loop_
_symmetry_equiv_pos_as_xyz
  x,y,z
_cell_length_a	13.635800
_cell_length_b	7.076018
_cell_length_c	9.582880
_cell_angle_alpha	106.718352
_cell_angle_beta	111.207034
_cell_angle_gamma	62.299659
loop_
_atom_site_label
_atom_site_type_symbol
_atom_site_fract_x
_atom_site_fract_y
_atom_site_fract_z
V1	V	1.954531	0.294195	0.465536
O2	O	2.056507	-0.015063	0.457774
O3	O	1.827688	0.584229	0.461295
O4	O	1.951658	0.289263	0.669055
O5	O	1.931679	0.281945	0.248575
V6	V	2.206882	0.257252	0.439714
O7	O	2.061932	0.375232	0.522178
O8	O	2.324580	0.176215	0.383072
O9	O	2.222121	-0.032783	0.443956
O10	O	2.163604	0.566510	0.447477
O11	O	2.288432	0.269502	0.656675
O12	O	2.098152	0.262184	0.236195
V13	V	2.454531	0.294195	0.465536
O14	O	2.556507	-0.015063	0.457774
O15	O	2.327688	0.584229	0.461295
O16	O	2.451658	0.289263	0.669055
O17	O	2.431679	0.281945	0.248575
V18	V	2.706882	0.257252	0.439714
O19	O	2.561932	0.375232	0.522178
O20	O	2.824580	0.176215	0.383072
O21	O	2.722121	-0.032783	0.443956
O22	O	2.663604	0.566510	0.447477
O23	O	2.788432	0.269502	0.656675
O24	O	2.598152	0.262184	0.236195
C25	C	2.160434	0.896508	0.451552
C26	C	2.224528	0.654941	0.453676
C27	C	1.724536	0.654949	0.453685
C28	C	1.660431	0.896511	0.451537
C29	C	1.882664	0.278685	0.718695
C30	C	1.920278	0.276572	0.885065
C31	C	1.998813	0.272769	0.186548
C32	C	1.950823	0.274871	0.020176
C33	C	2.382664	0.278685	0.718695
C34	C	2.420278	0.276572	0.885065
C35	C	2.498813	0.272769	0.186548
C36	C	2.450823	0.274871	0.020176
