data_functionalizedCrystal
_audit_creation_method	'MofGen! by Chris Wilmer'
_symmetry_space_group_name_H-M	'P1'
_symmetry_Int_Tables_number	1
_symmetry_cell_setting	triclinic
loop_
_symmetry_equiv_pos_as_xyz
  x,y,z
_cell_length_a	19.188930
_cell_length_b	19.188925
_cell_length_c	18.266242
_cell_angle_alpha	89.993996
_cell_angle_beta	89.977082
_cell_angle_gamma	83.143665
loop_
_atom_site_label
_atom_site_type_symbol
_atom_site_fract_x
_atom_site_fract_y
_atom_site_fract_z
O1	O	0.926148	0.087169	-0.061116
O2	O	1.426148	0.587169	0.438884
O3	O	0.722836	0.098903	-0.061065
O4	O	1.222836	0.598903	0.438935
O5	O	0.830361	-0.008620	-0.061088
O6	O	1.330361	0.491380	0.438912
O7	O	0.818623	0.194692	-0.061093
O8	O	1.318623	0.694692	0.438907
O9	O	0.830343	-0.008625	0.060674
O10	O	1.330343	0.491375	0.560674
O11	O	0.722818	0.098898	0.060697
O12	O	1.222818	0.598898	0.560697
O13	O	0.926129	0.087163	0.060646
O14	O	1.426129	0.587163	0.560646
Zn15	Zn	0.824471	0.093030	0.080004
Zn16	Zn	1.324471	0.593030	0.580004
Zn17	Zn	0.824495	0.093037	-0.080423
Zn18	Zn	1.324495	0.593037	0.419577
O19	O	0.818605	0.194687	0.060669
O20	O	1.318605	0.694687	0.560669
C21	C	0.696816	0.098520	-0.000178
C22	C	1.196816	0.598520	0.499822
C23	C	0.619311	0.097380	-0.000159
C24	C	1.119311	0.597380	0.499841
C25	C	0.829972	-0.034634	-0.000207
C26	C	1.329972	0.465366	0.499793
C27	C	0.828833	-0.112138	-0.000209
C28	C	1.328833	0.387862	0.499791
C29	C	0.574386	0.160471	-0.000172
C30	C	1.074386	0.660471	0.499828
C31	C	0.501563	0.159399	-0.000180
C32	C	1.001563	0.659399	0.499820
C33	C	0.473667	0.095233	-0.000189
C34	C	0.973667	0.595233	0.499811
C35	C	0.518602	0.032134	-0.000172
C36	C	1.018602	0.532134	0.499828
C37	C	0.591424	0.033207	-0.000157
C38	C	1.091424	0.533207	0.499843
N39	N	0.365694	0.046188	-0.041659
N40	N	0.865694	0.546188	0.458341
N41	N	0.296516	0.045172	-0.041675
N42	N	0.796516	0.545172	0.458325
C43	C	0.254259	0.091995	-0.000234
C44	C	0.754259	0.591995	0.499766
N45	N	0.283792	0.139882	0.041214
N46	N	0.783792	0.639882	0.541214
N47	N	0.352977	0.140899	0.041227
N48	N	0.852977	0.640899	0.541227
C49	C	0.394705	0.094062	-0.000206
C50	C	0.894705	0.594062	0.499794
C51	C	0.130369	0.153928	-0.000255
C52	C	0.630369	0.653928	0.499745
C53	C	0.057544	0.152854	-0.000258
C54	C	0.557544	0.652854	0.499742
C55	C	0.074586	0.025586	-0.000258
C56	C	0.574586	0.525586	0.499742
C57	C	0.147409	0.026663	-0.000247
C58	C	0.647409	0.526663	0.499753
C59	C	0.175296	0.090835	-0.000249
C60	C	0.675296	0.590835	0.499751
C61	C	0.884297	-0.673909	-0.000241
C62	C	1.384297	-0.173909	0.499759
C63	C	0.885374	-0.601085	-0.000234
C64	C	1.385374	-0.101085	0.499766
C65	C	0.822282	-0.556151	-0.000219
C66	C	1.322282	-0.056151	0.499781
C67	C	0.758108	-0.584045	-0.000191
C68	C	1.258108	-0.084045	0.499809
C69	C	0.757033	-0.656867	-0.000190
C70	C	1.257033	-0.156867	0.499810
N71	N	0.776612	-0.435469	-0.041652
N72	N	1.276612	0.064531	0.458348
N73	N	0.777637	-0.366291	-0.041655
N74	N	1.277637	0.133709	0.458345
C75	C	0.825516	-0.336742	-0.000220
C76	C	1.325516	0.163258	0.499780
N77	N	0.872341	-0.378984	0.041208
N78	N	1.372341	0.121016	0.541208
N79	N	0.871318	-0.448168	0.041207
N80	N	1.371318	0.051832	0.541207
C81	C	0.823440	-0.477187	-0.000220
C82	C	1.323440	0.022813	0.499780
C83	C	0.890852	-0.229893	-0.000236
C84	C	1.390852	0.270107	0.499764
C85	C	0.891926	-0.157068	-0.000225
C86	C	1.391926	0.342932	0.499775
C87	C	0.764659	-0.140029	-0.000189
C88	C	1.264659	0.359971	0.499811
C89	C	0.763587	-0.212852	-0.000193
C90	C	1.263587	0.287148	0.499807
C91	C	0.826685	-0.257780	-0.000220
C92	C	1.326685	0.242220	0.499780
C93	C	0.952150	0.087546	-0.000243
C94	C	1.452150	0.587546	0.499757
C95	C	1.029654	0.088687	-0.000267
C96	C	1.529654	0.588687	0.499733
C97	C	0.818993	0.220700	-0.000213
C98	C	1.318993	0.720700	0.499787
C99	C	0.820132	0.298205	-0.000217
C100	C	1.320132	0.798205	0.499783
N101	N	0.824460	0.093024	0.189491
N102	N	1.324460	0.593024	0.689491
N103	N	0.824512	0.093037	-0.189910
N104	N	1.324512	0.593037	0.310090
C105	C	0.872087	0.045436	0.227790
C106	C	1.372087	0.545436	0.727790
C107	C	0.872092	0.045433	0.304435
C108	C	1.372092	0.545433	0.804435
C109	C	0.824475	0.093030	0.342778
C110	C	1.324475	0.593030	0.842778
C111	C	0.776839	0.140621	0.304469
C112	C	1.276839	0.640621	0.804469
C113	C	0.776831	0.140619	0.227826
C114	C	1.276831	0.640619	0.727826
N115	N	0.815398	0.154838	0.463110
N116	N	1.315398	0.654838	0.963110
N117	N	0.815410	0.154838	0.535918
N118	N	1.315410	0.654838	1.035918
C119	C	0.824495	0.093040	0.573700
C120	C	1.324495	0.593040	1.073700
N121	N	0.833581	0.031240	0.535924
N122	N	1.333581	0.531240	1.035924
N123	N	0.833573	0.031240	0.463109
N124	N	1.333573	0.531240	0.963109
C125	C	0.824478	0.093038	0.425885
C126	C	1.324478	0.593038	0.925885
C127	C	0.872130	0.045445	0.695106
C128	C	1.372130	0.545445	1.195106
C129	C	0.872129	0.045440	0.771752
C130	C	1.372129	0.545440	1.271752
C131	C	0.776880	0.140635	0.771786
C132	C	1.276880	0.640635	1.271786
C133	C	0.776877	0.140633	0.695141
C134	C	1.276877	0.640633	1.195141
C135	C	0.824505	0.093039	0.656806
C136	C	1.324505	0.593039	1.156806
H137	H	0.597087	0.212725	-0.000175
H138	H	1.097087	0.712725	0.499825
H139	H	0.944179	-0.134365	-0.000240
H140	H	1.444179	0.365635	0.499760
H141	H	0.713288	-0.103444	-0.000170
H142	H	1.213288	0.396556	0.499830
C143	C	0.452136	0.228807	-0.000203
C144	C	0.952136	0.728807	0.499797
N145	N	0.414910	0.281085	-0.000224
N146	N	0.914910	0.781085	0.499776
C147	C	0.161047	0.224519	-0.000248
C148	C	0.661047	0.724519	0.499752
N149	N	0.184152	0.277688	-0.000241
N150	N	0.684152	0.777688	0.499759
C151	C	0.924474	-0.006926	0.185625
C152	C	1.424474	0.493074	0.685625
N153	N	0.963929	-0.046367	0.153866
N154	N	1.463929	0.453633	0.653866
H155	H	0.706738	-0.547455	-0.000176
H156	H	1.206738	-0.047455	0.499824
H157	H	0.738067	0.179374	0.335692
H158	H	1.238067	0.679374	0.835692
C159	C	0.692999	-0.243528	-0.000176
C160	C	1.192999	0.256472	0.499824
N161	N	0.639829	-0.266632	-0.000162
N162	N	1.139829	0.233368	0.499838
C163	C	0.724501	0.192993	0.813959
C164	C	1.224501	0.692993	1.313959
N165	N	0.685048	0.232429	0.845727
N166	N	1.185048	0.732429	1.345727
C167	C	0.686444	-0.687542	-0.000169
C168	C	1.186444	-0.187542	0.499831
N169	N	0.633275	-0.710648	-0.000156
N170	N	1.133275	-0.210648	0.499844
H171	H	0.937626	-0.578376	-0.000253
H172	H	1.437626	-0.078376	0.499747
H173	H	0.020966	0.204232	-0.000265
H174	H	0.520966	0.704232	0.499735
C175	C	0.924515	-0.006916	0.652935
C176	C	1.424515	0.493084	1.152935
N177	N	0.963971	-0.046356	0.621173
N178	N	1.463971	0.453644	1.121173
H179	H	0.051874	-0.026659	-0.000311
H180	H	0.551874	0.473341	0.499689
H181	H	0.738046	0.179371	0.196642
H182	H	1.238046	0.679371	0.696642
H183	H	0.495885	-0.020111	-0.000190
H184	H	0.995885	0.479889	0.499810
H185	H	0.910877	0.006680	0.335623
H186	H	1.410877	0.506680	0.835623
C187	C	0.960261	-0.279316	-0.000257
C188	C	1.460261	0.220684	0.499743
N189	N	1.012541	-0.316540	-0.000271
N190	N	1.512541	0.183460	0.499729
C191	C	0.196829	-0.042744	-0.000241
C192	C	0.696829	0.457256	0.499759
N193	N	0.234052	-0.095024	-0.000236
N194	N	0.734052	0.404976	0.499764
H195	H	0.738097	0.179386	0.663956
H196	H	1.238097	0.679386	1.163956
C197	C	0.924514	-0.006925	0.813881
C198	C	1.424514	0.493075	1.313881
N199	N	0.963969	-0.046371	0.845613
N200	N	1.463969	0.453629	1.345613
H201	H	0.628003	-0.018171	-0.000147
H202	H	1.128003	0.481829	0.499853
H203	H	0.935677	-0.710485	-0.000259
H204	H	1.435677	-0.210485	0.499741
