data_functionalizedCrystal
_audit_creation_method	'MofGen! by Chris Wilmer'
_symmetry_space_group_name_H-M	'P1'
_symmetry_Int_Tables_number	1
_symmetry_cell_setting	triclinic
loop_
_symmetry_equiv_pos_as_xyz
  x,y,z
_cell_length_a	6.817900
_cell_length_b	11.102288
_cell_length_c	19.453114
_cell_angle_alpha	94.505586
_cell_angle_beta	101.709288
_cell_angle_gamma	108.605689
loop_
_atom_site_label
_atom_site_type_symbol
_atom_site_fract_x
_atom_site_fract_y
_atom_site_fract_z
V1	V	-4.033154	-0.177162	-0.218999
O2	O	-3.993679	0.007152	-0.214830
O3	O	-4.010467	-0.349974	-0.217501
O4	O	-3.975753	-0.175035	-0.314512
O5	O	-4.028634	-0.168998	-0.117148
V6	V	-4.514617	-0.155046	-0.206817
O7	O	-4.298932	-0.225677	-0.245722
O8	O	-4.699036	-0.106531	-0.180094
O9	O	-4.314097	0.017766	-0.208315
O10	O	-4.671489	-0.339360	-0.210986
O11	O	-4.636534	-0.163210	-0.308668
O12	O	-4.348812	-0.157173	-0.111304
C13	C	-3.862015	-0.392083	-0.214047
C14	C	-3.924692	-0.533362	-0.213459
C15	C	-4.136892	-0.606230	-0.216687
C16	C	-4.195775	-0.738978	-0.216140
C17	C	-3.830237	-0.725977	-0.209134
C18	C	-3.771359	-0.593233	-0.209686
C19	C	-3.817732	-0.168929	-0.337792
C20	C	-3.852253	-0.168333	-0.415875
C21	C	-4.051203	-0.174432	-0.456132
C22	C	-4.083640	-0.173872	-0.529499
C23	C	-3.917128	-0.167238	-0.562608
C24	C	-3.718147	-0.161131	-0.522341
C25	C	-3.685710	-0.161678	-0.448974
N26	N	-3.867372	-0.234355	-0.681397
N27	N	-3.898200	-0.233839	-0.751092
C28	C	-4.014849	-0.165586	-0.783656
N29	N	-4.099543	-0.097887	-0.743893
N30	N	-4.068721	-0.098410	-0.674192
C31	C	-3.952281	-0.166643	-0.642161
C32	C	-4.248982	-0.171077	-0.903466
C33	C	-4.281408	-0.170509	-0.976833
C34	C	-3.915916	-0.157781	-0.969674
C35	C	-3.883489	-0.158336	-0.896308
C36	C	-4.050033	-0.164990	-0.863208
C37	C	-4.125893	0.059868	-0.211767
C38	C	-4.042453	0.201146	-0.212360
C39	C	-4.170176	-0.163283	-0.088020
C40	C	-4.114892	-0.163873	-0.009937
H41	H	-4.186816	-0.179845	-0.429187
H42	H	-4.261749	-0.557487	-0.219758
O43	O	-3.565102	-0.522621	-0.206513
C44	C	-3.442397	-0.603930	-0.203077
H45	H	-3.525031	-0.694023	-0.181368
H46	H	-3.425164	-0.632363	-0.258553
C47	C	-3.118520	-0.421984	-0.180370
C48	C	-3.220004	-0.532633	-0.153702
H49	H	-2.981334	-0.378005	-0.149917
H50	H	-3.201188	-0.367204	-0.182688
H51	H	-3.104180	-0.445695	-0.226600
H52	H	-3.234367	-0.508920	-0.107477
H53	H	-3.137334	-0.587407	-0.151375
O54	O	-3.492406	-0.155580	-0.409808
C55	C	-3.408943	-0.044922	-0.357599
H56	H	-3.484749	0.029006	-0.375074
H57	H	-3.445691	-0.072082	-0.305124
C58	C	-3.072623	-0.078022	-0.326386
C59	C	-3.165717	0.012783	-0.347852
H60	H	-2.922589	-0.042428	-0.320371
H61	H	-3.128855	-0.152577	-0.361558
H62	H	-3.103268	-0.100647	-0.282659
H63	H	-3.135095	0.035395	-0.391582
H64	H	-3.109474	0.087343	-0.312687
O65	O	-4.276902	-0.179977	-0.568710
C66	C	-4.360323	-0.290702	-0.620872
H67	H	-4.224411	-0.321961	-0.631918
H68	H	-4.475639	-0.371533	-0.601036
C69	C	-4.646199	-0.221843	-0.676159
C70	C	-4.479267	-0.260229	-0.689729
H71	H	-4.719578	-0.203050	-0.718632
H72	H	-4.590002	-0.147248	-0.641015
H73	H	-4.742273	-0.289209	-0.659627
H74	H	-4.383184	-0.192858	-0.706252
H75	H	-4.535451	-0.334813	-0.724878
H76	H	-4.368565	-0.798302	-0.218770
O77	O	-3.556222	-0.154459	-0.554448
C78	C	-3.383355	-0.040095	-0.524807
H79	H	-3.443794	0.033359	-0.500075
H80	H	-3.262730	-0.061452	-0.482144
C81	C	-3.201596	-0.075758	-0.613847
C82	C	-3.275831	0.014462	-0.583476
H83	H	-3.135262	-0.042107	-0.650035
H84	H	-3.318055	-0.152810	-0.633815
H85	H	-3.101087	-0.093548	-0.578288
H86	H	-3.376357	0.032239	-0.619033
H87	H	-3.159386	0.091519	-0.563515
H88	H	-4.384590	-0.176491	-0.876515
O89	O	-4.474835	-0.176489	-1.015841
C90	C	-4.614843	-0.182445	-0.970887
H91	H	-4.557803	-0.221422	-0.921025
H92	H	-4.617790	-0.081976	-0.955355
C93	C	-4.910911	-0.224145	-1.071359
C94	C	-4.840863	-0.272028	-1.010121
H95	H	-5.050333	-0.279399	-1.095561
H96	H	-4.816585	-0.220128	-1.101646
H97	H	-4.913349	-0.140422	-1.058407
H98	H	-4.838400	-0.355742	-1.023074
H99	H	-4.935194	-0.276061	-0.979837
H100	H	-3.705406	-0.774740	-0.206060
H101	H	-3.780333	-0.152368	-0.996630
H102	H	-3.721491	-0.153383	-0.863531
