data_functionalizedCrystal
_audit_creation_method	'MofGen! by Chris Wilmer'
_symmetry_space_group_name_H-M	'P1'
_symmetry_Int_Tables_number	1
_symmetry_cell_setting	triclinic
loop_
_symmetry_equiv_pos_as_xyz
  x,y,z
_cell_length_a	18.050591
_cell_length_b	18.050589
_cell_length_c	18.050582
_cell_angle_alpha	89.981795
_cell_angle_beta	90.020922
_cell_angle_gamma	89.975773
loop_
_atom_site_label
_atom_site_type_symbol
_atom_site_fract_x
_atom_site_fract_y
_atom_site_fract_z
Zn1	Zn	1.135293	0.295786	0.420054
Zn2	Zn	1.635293	0.795786	0.920054
Zn3	Zn	1.135203	0.419969	0.295873
Zn4	Zn	1.635203	0.919969	0.795873
Zn5	Zn	1.011112	0.295789	0.295865
Zn6	Zn	1.511112	0.795789	0.795865
Zn7	Zn	1.011060	0.419930	0.420009
Zn8	Zn	1.511060	0.919930	0.920009
O9	O	1.073167	0.357868	0.357950
O10	O	1.573167	0.857868	0.857950
O11	O	1.239205	0.312274	0.403603
O12	O	1.739205	0.812274	0.903603
O13	O	1.118727	0.403514	0.191948
O14	O	1.618727	0.903514	0.691948
O15	O	1.027644	0.191864	0.312354
O16	O	1.527644	0.691864	0.812354
O17	O	1.239140	0.403511	0.312369
O18	O	1.739140	0.903511	0.812369
O19	O	1.118879	0.191862	0.403595
O20	O	1.618879	0.691862	0.903595
O21	O	1.027557	0.312279	0.191942
O22	O	1.527557	0.812279	0.691942
O23	O	0.907180	0.312241	0.312311
O24	O	1.407180	0.812241	0.812311
O25	O	1.027555	0.403444	0.523940
O26	O	1.527555	0.903444	1.023940
O27	O	0.907142	0.403447	0.403519
O28	O	1.407142	0.903447	0.903519
O29	O	1.118828	0.312236	0.523973
O30	O	1.618828	0.812236	1.023973
O31	O	1.118676	0.523888	0.312325
O32	O	1.618676	1.023888	0.812325
O33	O	1.027468	0.523860	0.403527
O34	O	1.527468	1.023860	0.903527
C35	C	0.880215	0.357841	0.357909
C36	C	1.380215	0.857841	0.857909
C37	C	0.797669	0.357847	0.357909
C38	C	1.297669	0.857847	0.857909
C39	C	1.073077	0.550820	0.357938
C40	C	1.573077	1.050820	0.857938
C41	C	1.073107	0.633366	0.357958
C42	C	1.573107	1.133366	0.857958
C43	C	0.598217	0.308191	0.308425
C44	C	1.098217	0.808191	0.808425
C45	C	0.548798	0.375927	0.290154
C46	C	1.048798	0.875927	0.790154
C47	C	0.646539	0.357869	0.357943
C48	C	1.146539	0.857869	0.857943
C49	C	0.548877	0.290157	0.376212
C50	C	1.048877	0.790157	0.876212
C51	C	0.500553	0.357885	0.357974
C52	C	1.000553	0.857885	0.857974
C53	C	0.598206	0.425641	0.339637
C54	C	1.098206	0.925641	0.839637
C55	C	0.598289	0.339825	0.425726
C56	C	1.098289	0.839825	0.925726
C57	C	0.548892	0.407607	0.407481
C58	C	1.048892	0.907607	0.907481
C59	C	0.730637	0.357859	0.357923
C60	C	1.230637	0.857859	0.857923
C61	C	0.416457	0.357903	0.357994
C62	C	0.916457	0.857903	0.857994
C63	C	1.073196	0.357835	0.551656
C64	C	1.573196	0.857835	1.051656
C65	C	1.073208	0.357821	0.634202
C66	C	1.573208	0.857821	1.134202
C67	C	1.266872	0.357897	0.357992
C68	C	1.766872	0.857897	0.857992
C69	C	1.349418	0.357909	0.358010
C70	C	1.849418	0.857909	0.858010
C71	C	1.073277	0.164163	0.357979
C72	C	1.573277	0.664163	0.857979
C73	C	1.073324	0.081617	0.357991
C74	C	1.573324	0.581617	0.857991
C75	C	1.023557	0.832828	0.407536
C76	C	1.523557	1.332828	0.907536
C77	C	1.005459	0.882261	0.339767
C78	C	1.505459	1.382261	0.839767
C79	C	1.073180	0.784497	0.357967
C80	C	1.573180	1.284497	0.857967
C81	C	1.091314	0.882146	0.425744
C82	C	1.591314	1.382146	0.925744
C83	C	1.073249	0.930482	0.357983
C84	C	1.573249	1.430482	0.857983
C85	C	1.055046	0.832842	0.290162
C86	C	1.555046	1.332842	0.790162
C87	C	1.140933	0.832722	0.376186
C88	C	1.640933	1.332722	0.876186
C89	C	1.122861	0.882133	0.308370
C90	C	1.622861	1.382133	0.808370
C91	C	1.073138	0.700398	0.357959
C92	C	1.573138	1.200398	0.857959
C93	C	1.073291	1.014578	0.357983
C94	C	1.573291	1.514578	0.857983
C95	C	1.073181	0.357848	0.164998
C96	C	1.573181	0.857848	0.664998
C97	C	1.073312	0.357652	0.082453
C98	C	1.573312	0.857652	0.582453
C99	C	1.023612	0.407353	0.833635
C100	C	1.523612	0.907353	1.333635
C101	C	1.091367	0.425511	0.883034
C102	C	1.591367	0.925511	1.383034
C103	C	1.073245	0.357765	0.785332
C104	C	1.573245	0.857765	1.285332
C105	C	1.005527	0.339586	0.883014
C106	C	1.505527	0.839586	1.383014
C107	C	1.073274	0.357711	0.931317
C108	C	1.573274	0.857711	1.431317
C109	C	1.141036	0.375958	0.833645
C110	C	1.641036	0.875958	1.333645
C111	C	1.055150	0.290002	0.833620
C112	C	1.555150	0.790002	1.333620
C113	C	1.122952	0.308134	0.882998
C114	C	1.622952	0.808134	1.382998
C115	C	1.073227	0.357797	0.701234
C116	C	1.573227	0.857797	1.201234
C117	C	1.073300	0.357679	1.015414
C118	C	1.573300	0.857679	1.515414
H119	H	0.619875	0.266226	0.266503
H120	H	1.119875	0.766226	0.766503
C121	C	1.054165	0.530226	0.956111
C122	C	1.554165	1.030226	1.456111
C123	C	1.112050	0.502837	0.912345
C124	C	1.612050	1.002837	1.412345
H125	H	1.066933	0.577963	0.974207
H126	H	1.566933	1.077963	1.474207
H127	H	1.010349	0.533594	0.927149
H128	H	1.510349	1.033594	1.427149
H129	H	1.045966	0.497700	0.996667
H130	H	1.545966	0.997700	1.496667
H131	H	1.120246	0.535361	0.871785
H132	H	1.620246	1.035361	1.371785
H133	H	1.155879	0.499474	0.941308
H134	H	1.655879	0.999474	1.441308
C135	C	1.250540	0.270680	0.887025
C136	C	1.750540	0.770680	1.387025
C137	C	1.179692	0.251495	0.912083
C138	C	1.679692	0.751495	1.412083
H139	H	1.285569	0.235717	0.904987
H140	H	1.785569	0.735717	1.404987
H141	H	1.251116	0.270677	0.834409
H142	H	1.751116	0.770677	1.334409
H143	H	1.262987	0.318653	0.904698
H144	H	1.762987	0.818653	1.404698
H145	H	1.167243	0.203523	0.894406
H146	H	1.667243	0.703523	1.394406
H147	H	1.179114	0.251489	0.964711
H148	H	1.679114	0.751489	1.464711
H149	H	0.527370	0.449673	0.449370
H150	H	1.027370	0.949673	0.949370
H151	H	1.106625	0.903802	0.483056
H152	H	1.606625	1.403802	0.983056
C153	C	0.602812	0.248203	0.522074
C154	C	1.102812	0.748203	1.022074
C155	C	0.627667	0.319179	0.503068
C156	C	1.127667	0.819179	1.003068
H157	H	0.620954	0.235451	0.569820
H158	H	1.120954	0.735451	1.069820
H159	H	0.550197	0.247615	0.522541
H160	H	1.050197	0.747615	1.022541
H161	H	0.620439	0.213406	0.486757
H162	H	1.120439	0.713406	0.986757
H163	H	0.610035	0.353977	0.538383
H164	H	1.110035	0.853977	1.038383
H165	H	0.680292	0.319772	0.502607
H166	H	1.180292	0.819772	1.002607
H167	H	1.198184	0.810948	0.391613
H168	H	1.698184	1.310948	0.891613
C169	C	0.876311	0.370889	0.887367
C170	C	1.376311	0.870889	1.387367
C171	C	0.928202	0.318853	0.912289
C172	C	1.428202	0.818853	1.412289
H173	H	0.828573	0.358090	0.905436
H174	H	1.328573	0.858090	1.405436
H175	H	0.889517	0.418660	0.905015
H176	H	1.389517	0.918660	1.405015
H177	H	0.875642	0.371196	0.834745
H178	H	1.375642	0.871196	1.334745
H179	H	0.928875	0.318549	0.964912
H180	H	1.428875	0.818549	1.464912
H181	H	0.914992	0.271069	0.894645
H182	H	1.414992	0.771069	1.394645
C183	C	0.908709	0.885678	0.248503
C184	C	1.408709	1.385678	0.748503
C185	C	0.928153	0.911640	0.318965
C186	C	1.428153	1.411640	0.818965
H187	H	0.860982	0.903811	0.235667
H188	H	1.360982	1.403811	0.735667
H189	H	0.943935	0.902557	0.213259
H190	H	1.443935	1.402557	0.713259
H191	H	0.908014	0.833057	0.248800
H192	H	1.408014	1.333057	0.748800
H193	H	0.928854	0.964262	0.318666
H194	H	1.428854	1.464262	0.818666
H195	H	0.892918	0.894765	0.354217
H196	H	1.392918	1.394765	0.854217
H197	H	0.981678	0.449342	0.811961
H198	H	1.481678	0.949342	1.311961
H199	H	0.619785	0.482928	0.324134
H200	H	1.119785	0.982928	0.824134
C201	C	0.963449	0.193798	0.829160
C202	C	1.463449	0.693798	1.329160
C203	C	1.034438	0.212698	0.804285
C204	C	1.534438	0.712698	1.304285
H205	H	0.950655	0.146076	0.811044
H206	H	1.450655	0.646076	1.311044
H207	H	0.962865	0.193323	0.881775
H208	H	1.462865	0.693323	1.381775
H209	H	0.928679	0.229174	0.811521
H210	H	1.428679	0.729174	1.311521
H211	H	1.069208	0.177325	0.821929
H212	H	1.569208	0.677325	1.321929
H213	H	1.035027	0.213168	0.751660
H214	H	1.535027	0.713168	1.251660
H215	H	0.527060	0.391202	0.232844
H216	H	1.027060	0.891202	0.732844
H217	H	1.198333	0.391377	0.812050
H218	H	1.698333	0.891377	1.312050
H219	H	0.527169	0.232894	0.391625
H220	H	1.027169	0.732894	0.891625
C221	C	1.179550	0.988753	0.252620
C222	C	1.679550	1.488753	0.752620
C223	C	1.179550	0.911185	0.251729
C224	C	1.679550	1.411185	0.751729
H225	H	1.214548	1.006689	0.217654
H226	H	1.714548	1.506689	0.717654
H227	H	1.131594	1.006458	0.240093
H228	H	1.631594	1.506458	0.740093
H229	H	1.192522	1.005717	0.300717
H230	H	1.692522	1.505717	0.800717
H231	H	1.166573	0.894221	0.203634
H232	H	1.666573	1.394221	0.703634
H233	H	1.227516	0.893473	0.264252
H234	H	1.727516	1.393473	0.764252
C235	C	0.931415	0.863434	0.498431
C236	C	1.431415	1.363434	0.998431
C237	C	0.966826	0.803595	0.464043
C238	C	1.466826	1.303595	0.964043
H239	H	0.896389	0.845384	0.533309
H240	H	1.396389	1.345384	1.033309
H241	H	0.967151	0.893065	0.523191
H242	H	1.467151	1.393065	1.023191
H243	H	0.906680	0.892427	0.462112
H244	H	1.406680	1.392427	0.962112
H245	H	0.991567	0.774604	0.500362
H246	H	1.491567	1.274604	1.000362
H247	H	0.931085	0.773951	0.439282
H248	H	1.431085	1.273951	0.939282
C249	C	1.034400	0.726164	0.213474
C250	C	1.534400	1.226164	0.713474
C251	C	1.034281	0.803734	0.212771
C252	C	1.534281	1.303734	0.712771
H253	H	1.021574	0.708195	0.165699
H254	H	1.521574	1.208195	0.665699
H255	H	1.082350	0.708795	0.226483
H256	H	1.582350	1.208795	0.726483
H257	H	0.999345	0.708896	0.248710
H258	H	1.499345	1.208896	0.748710
H259	H	1.069340	0.821001	0.177539
H260	H	1.569340	1.321001	0.677539
H261	H	0.986324	0.821110	0.199753
H262	H	1.486324	1.321110	0.699753
