data_functionalizedCrystal
_audit_creation_method	'MofGen! by Chris Wilmer'
_symmetry_space_group_name_H-M	'P1'
_symmetry_Int_Tables_number	1
_symmetry_cell_setting	triclinic
loop_
_symmetry_equiv_pos_as_xyz
  x,y,z
_cell_length_a	12.759401
_cell_length_b	19.805405
_cell_length_c	12.759393
_cell_angle_alpha	89.962372
_cell_angle_beta	89.981504
_cell_angle_gamma	90.026572
loop_
_atom_site_label
_atom_site_type_symbol
_atom_site_fract_x
_atom_site_fract_y
_atom_site_fract_z
Zn1	Zn	1.606170	-0.269420	-0.593937
Zn2	Zn	1.606028	-0.382625	-0.418239
Zn3	Zn	1.430472	-0.269456	-0.418276
Zn4	Zn	1.430425	-0.382573	-0.593880
O5	O	1.518274	-0.326019	-0.506083
O6	O	1.753172	-0.284444	-0.570638
O7	O	1.582701	-0.367650	-0.271222
O8	O	1.453858	-0.174735	-0.441618
O9	O	1.753068	-0.367615	-0.441553
O10	O	1.582942	-0.174708	-0.570675
O11	O	1.453720	-0.284505	-0.271250
O12	O	1.283445	-0.284454	-0.441563
O13	O	1.453777	-0.367527	-0.740909
O14	O	1.283410	-0.367561	-0.570578
O15	O	1.582896	-0.284394	-0.740951
O16	O	1.582655	-0.477335	-0.441498
O17	O	1.453640	-0.477297	-0.570541
C18	C	1.245306	-0.326006	-0.506069
C19	C	1.128530	-0.326017	-0.506088
C20	C	1.073677	-0.369360	-0.573155
C21	C	0.963953	-0.369369	-0.573166
C22	C	0.963944	-0.282689	-0.439034
C23	C	1.073666	-0.282678	-0.439029
C24	C	1.073681	-0.419406	-0.650592
C25	C	0.963957	-0.419414	-0.650603
C26	C	1.518155	-0.501875	-0.506032
C27	C	1.518201	-0.577107	-0.506046
C28	C	1.585444	-0.612448	-0.438923
C29	C	1.585489	-0.683137	-0.438946
C30	C	1.518284	-0.718482	-0.506088
C31	C	1.451038	-0.683136	-0.573217
C32	C	1.450999	-0.612449	-0.573199
C33	C	1.451193	-0.968209	-0.573295
C34	C	1.451234	-1.038901	-0.573306
C35	C	1.585683	-1.038897	-0.439043
C36	C	1.585644	-0.968210	-0.439024
C37	C	1.518402	-0.932870	-0.506157
C38	C	1.518356	-0.856221	-0.506133
C39	C	1.518324	-0.795129	-0.506108
C40	C	1.792307	-0.326032	-0.506098
C41	C	1.909084	-0.326037	-0.506104
C42	C	1.518347	-0.325950	-0.780117
C43	C	1.518379	-0.325921	-0.896893
C44	C	1.518421	-0.149476	-0.506157
C45	C	1.518484	-0.074244	-0.506189
C46	C	1.585620	-0.282630	-0.951779
C47	C	1.585645	-0.282605	-1.061503
C48	C	1.451184	-0.369170	-1.061446
C49	C	1.451154	-0.369190	-0.951724
C50	C	1.663254	-0.232655	-0.951812
C51	C	1.663279	-0.232630	-1.061537
C52	C	1.518261	-0.326038	-0.233116
C53	C	1.518433	-0.325876	-0.116340
H54	H	1.103494	-0.405426	-0.732001
H55	H	1.396396	-0.404440	-0.907040
H56	H	1.396450	-0.404396	-1.106103
H57	H	0.919260	-0.247404	-0.384438
H58	H	1.740520	-0.251446	-0.917773
H59	H	1.118323	-0.247379	-0.384423
C60	C	1.773182	-0.251614	-1.101784
C61	C	1.821450	-0.320350	-1.072611
C62	C	1.931343	-0.339340	-1.112864
C63	C	1.992968	-0.289593	-1.182291
C64	C	1.944701	-0.220853	-1.211468
C65	C	1.834808	-0.201863	-1.171215
H66	H	1.775830	-0.357180	-1.021214
H67	H	1.967073	-0.390227	-1.091265
H68	H	2.074317	-0.303651	-1.212089
H69	H	1.990320	-0.184023	-1.262865
H70	H	1.799077	-0.150976	-1.192814
H71	H	1.634181	-0.182825	-1.095593
H72	H	0.929966	-0.400703	-0.727958
H73	H	1.640166	-0.583675	-0.384245
C74	C	1.633861	-0.161846	-0.911614
C75	C	1.610188	-0.104742	-0.990066
C76	C	1.580794	-0.033936	-0.949868
C77	C	1.575073	-0.020235	-0.831217
C78	C	1.598746	-0.077341	-0.752757
C79	C	1.628140	-0.148147	-0.792956
H80	H	1.614422	-0.114883	-1.077906
H81	H	1.563269	0.008338	-1.007950
H82	H	1.553314	0.032180	-0.801459
H83	H	1.594512	-0.067200	-0.664918
H84	H	1.645665	-0.190421	-0.734874
C85	C	1.119620	-0.486640	-0.611029
C86	C	1.094241	-0.511621	-0.499553
C87	C	1.140179	-0.578856	-0.459989
C88	C	1.211496	-0.621109	-0.531900
C89	C	1.236878	-0.596128	-0.643383
C90	C	1.190940	-0.528894	-0.682947
H91	H	1.041445	-0.480342	-0.446314
H92	H	1.121389	-0.597347	-0.377462
H93	H	1.245502	-0.670879	-0.502612
H94	H	1.289675	-0.627407	-0.696622
H95	H	1.209730	-0.510402	-0.765474
C96	C	0.923671	-0.490209	-0.620949
C97	C	1.002053	-0.547270	-0.597025
C98	C	0.961767	-0.618061	-0.567368
C99	C	0.843100	-0.631789	-0.561636
C100	C	0.764710	-0.574726	-0.585561
C101	C	0.804996	-0.503935	-0.615217
H102	H	1.089905	-0.537109	-0.601267
H103	H	1.019797	-0.660303	-0.549658
H104	H	0.813278	-0.684192	-0.539683
H105	H	0.676859	-0.584887	-0.581318
H106	H	0.746967	-0.461693	-0.632928
H107	H	1.640245	-0.711909	-0.384288
H108	H	1.640365	-0.939434	-0.384348
H109	H	1.640438	-1.067680	-0.384384
H110	H	1.396509	-1.067677	-0.627989
H111	H	1.396440	-0.939440	-0.627955
H112	H	1.396323	-0.711920	-0.627889
H113	H	1.396244	-0.583674	-0.627858
