data_functionalizedCrystal
_audit_creation_method	'MofGen! by Chris Wilmer'
_symmetry_space_group_name_H-M	'P1'
_symmetry_Int_Tables_number	1
_symmetry_cell_setting	triclinic
loop_
_symmetry_equiv_pos_as_xyz
  x,y,z
_cell_length_a	17.640280
_cell_length_b	17.639617
_cell_length_c	12.759393
_cell_angle_alpha	78.756784
_cell_angle_beta	78.768965
_cell_angle_gamma	87.821186
loop_
_atom_site_label
_atom_site_type_symbol
_atom_site_fract_x
_atom_site_fract_y
_atom_site_fract_z
Zn1	Zn	-0.067878	1.222298	-0.904846
Zn2	Zn	0.432122	1.722298	-0.404846
Zn3	Zn	-0.194903	1.247903	-0.701958
Zn4	Zn	0.305097	1.747903	-0.201958
Zn5	Zn	-0.093556	1.095291	-0.688097
Zn6	Zn	0.406444	1.595291	-0.188097
Zn7	Zn	-0.220473	1.120950	-0.836554
Zn8	Zn	0.279527	1.620950	-0.336554
O9	O	-0.144203	1.171610	-0.782864
O10	O	0.355797	1.671610	-0.282864
O11	O	-0.063281	1.331977	-0.912314
O12	O	0.436719	1.831977	-0.412314
O13	O	-0.181504	1.227636	-0.553080
O14	O	0.318496	1.727636	-0.053080
O15	O	0.016125	1.090684	-0.739629
O16	O	0.516125	1.590684	-0.239629
O17	O	-0.156605	1.350789	-0.763253
O18	O	0.343395	1.850789	-0.263253
O19	O	0.034991	1.183996	-0.898874
O20	O	0.534991	1.683996	-0.398874
O21	O	-0.107045	1.115512	-0.542896
O22	O	0.392955	1.615512	-0.042896
O23	O	-0.131840	0.992411	-0.673409
O24	O	0.368160	1.492411	-0.173409
O25	O	-0.200186	1.134416	-0.992652
O26	O	0.299814	1.634416	-0.492652
O27	O	-0.225085	1.011263	-0.782479
O28	O	0.274915	1.511263	-0.282479
O29	O	-0.088075	1.208876	-1.042826
O30	O	0.411925	1.708876	-0.542826
O31	O	-0.304570	1.252516	-0.697032
O32	O	0.195430	1.752516	-0.197032
O33	O	-0.323357	1.159244	-0.795920
O34	O	0.176643	1.659244	-0.295920
C35	C	-0.184024	0.974279	-0.719030
C36	C	0.315976	1.474279	-0.219030
C37	C	-0.201078	0.889864	-0.691742
C38	C	0.298922	1.389864	-0.191742
C39	C	-0.014629	0.563315	-0.990427
C40	C	0.485371	1.063315	-0.490427
C41	C	-0.030673	0.483998	-0.964761
C42	C	0.469327	0.983998	-0.464761
C43	C	-0.127691	0.503576	-0.809384
C44	C	0.372309	1.003576	-0.309384
C45	C	-0.111657	0.582897	-0.835040
C46	C	0.388343	1.082897	-0.335040
C47	C	-0.055125	0.612760	-0.925562
C48	C	0.444875	1.112760	-0.425562
C49	C	-0.152154	0.632342	-0.770176
C50	C	0.347846	1.132342	-0.270176
C51	C	-0.136119	0.711655	-0.795827
C52	C	0.363881	1.211655	-0.295827
C53	C	-0.079588	0.741524	-0.886342
C54	C	0.420412	1.241524	-0.386342
C55	C	-0.039090	0.692073	-0.951213
C56	C	0.460910	1.192073	-0.451213
C57	C	-0.208682	0.602477	-0.679650
C58	C	0.291318	1.102477	-0.179650
C59	C	-0.249178	0.651921	-0.614785
C60	C	0.250822	1.151921	-0.114785
C61	C	-0.233148	0.731237	-0.640440
C62	C	0.266852	1.231237	-0.140440
C63	C	-0.176616	0.761106	-0.730956
C64	C	0.323384	1.261106	-0.230956
C65	C	-0.273645	0.780688	-0.575569
C66	C	0.226355	1.280688	-0.075569
C67	C	-0.257610	0.860001	-0.601220
C68	C	0.242390	1.360001	-0.101220
C69	C	-0.160582	0.840419	-0.756607
C70	C	0.339418	1.340419	-0.256607
C71	C	-0.341515	1.211464	-0.740599
C72	C	0.158485	1.711464	-0.240599
C73	C	-0.425913	1.228583	-0.722576
C74	C	0.074087	1.728583	-0.222576
C75	C	-0.752568	1.041870	-0.920268
C76	C	-0.252568	1.541870	-0.420268
C77	C	-0.831872	1.057958	-0.903299
C78	C	-0.331872	1.557958	-0.403299
C79	C	-0.812233	1.155142	-0.800483
C80	C	-0.312233	1.655142	-0.300483
C81	C	-0.732925	1.139065	-0.817448
C82	C	-0.232925	1.639065	-0.317448
C83	C	-0.703100	1.082428	-0.877340
C84	C	-0.203100	1.582428	-0.377340
C85	C	-0.683456	1.179623	-0.774520
C86	C	-0.183456	1.679623	-0.274520
C87	C	-0.604156	1.163545	-0.791479
C88	C	-0.104156	1.663545	-0.291479
C89	C	-0.574325	1.106909	-0.851365
C90	C	-0.074325	1.606909	-0.351365
C91	C	-0.623800	1.066350	-0.894299
C92	C	-0.123800	1.566350	-0.394299
C93	C	-0.713284	1.236256	-0.714622
C94	C	-0.213284	1.736256	-0.214622
C95	C	-0.663815	1.276814	-0.671694
C96	C	-0.163815	1.776814	-0.171694
C97	C	-0.584513	1.260740	-0.688658
C98	C	-0.084513	1.760740	-0.188658
C99	C	-0.554681	1.204103	-0.748545
C100	C	-0.054681	1.704103	-0.248545
C101	C	-0.535038	1.301298	-0.645725
C102	C	-0.035038	1.801298	-0.145725
C103	C	-0.455738	1.285220	-0.662684
C104	C	0.044262	1.785220	-0.162684
C105	C	-0.475381	1.188025	-0.765504
C106	C	0.024619	1.688025	-0.265504
C107	C	0.053885	1.131622	-0.825323
C108	C	0.553885	1.631622	-0.325323
C109	C	0.138298	1.114581	-0.843417
C110	C	0.638298	1.614581	-0.343417
C111	C	-0.104226	1.369712	-0.846947
C112	C	0.395774	1.869712	-0.346947
C113	C	-0.087191	1.454131	-0.874256
C114	C	0.412809	1.954131	-0.374256
C115	C	-0.144118	1.171652	-1.056931
C116	C	0.355882	1.671652	-0.556931
C117	C	-0.144082	1.171670	-1.173722
C118	C	0.355918	1.671670	-0.673722
C119	C	-0.085698	1.210443	-1.254714
C120	C	0.414302	1.710443	-0.754714
C121	C	-0.085662	1.210450	-1.364450
C122	C	0.414338	1.710450	-0.864450
C123	C	-0.202403	1.132909	-1.312189
C124	C	0.297597	1.632909	-0.812189
C125	C	-0.202435	1.132898	-1.202456
C126	C	0.297565	1.632898	-0.702456
C127	C	-0.144223	1.171601	-0.509888
C128	C	0.355777	1.671601	-0.009888
C129	C	-0.144015	1.171687	-0.393191
C130	C	0.355985	1.671687	0.106809
H131	H	-0.066531	0.806106	-0.907223
H132	H	0.433469	1.306106	-0.407223
N133	N	-0.567213	1.362384	-0.581133
N134	N	-0.067213	1.862384	-0.081133
H135	H	-0.523841	1.385639	-0.556512
H136	H	-0.023841	1.885639	-0.056512
H137	H	-0.606393	1.338164	-0.515435
H138	H	-0.106393	1.838164	-0.015435
N139	N	0.021875	0.724293	-1.048857
N140	N	0.521875	1.224293	-0.548857
H141	H	0.045096	0.680937	-1.086065
H142	H	0.545096	1.180937	-0.586065
H143	H	0.063706	0.750074	-1.024344
H144	H	0.563706	1.250074	-0.524344
N145	N	-0.402376	1.328957	-0.616379
N146	N	0.097624	1.828957	-0.116379
H147	H	-0.433303	1.367277	-0.575867
H148	H	0.066697	1.867277	-0.075867
H149	H	-0.362336	1.357406	-0.677596
H150	H	0.137664	1.857406	-0.177596
N151	N	-0.885227	1.014213	-0.949612
N152	N	-0.385227	1.514213	-0.449612
H153	H	-0.939990	1.032990	-0.929781
H154	H	-0.439990	1.532990	-0.429781
H155	H	-0.882361	0.957177	-0.918601
H156	H	-0.382361	1.457177	-0.418601
N157	N	-0.099628	0.872647	-0.854263
N158	N	0.400372	1.372647	-0.354263
H159	H	-0.057747	0.898428	-0.829849
H160	H	0.442253	1.398428	-0.329849
H161	H	-0.123966	0.911783	-0.906842
H162	H	0.376034	1.411783	-0.406842
N163	N	-0.695996	1.337898	-0.607104
N164	N	-0.195996	1.837898	-0.107104
H165	H	-0.671197	1.389351	-0.644001
H166	H	-0.171197	1.889351	-0.144001
H167	H	-0.684608	1.323279	-0.531170
H168	H	-0.184608	1.823279	-0.031170
H169	H	-0.319668	0.756360	-0.501860
H170	H	0.180332	1.256360	-0.001860
H171	H	-0.599514	1.020236	-0.943078
H172	H	-0.099514	1.520236	-0.443078
N173	N	0.046337	0.595535	-1.088071
N174	N	0.546337	1.095535	-0.588071
H175	H	0.069558	0.552179	-1.125279
H176	H	0.569558	1.052179	-0.625279
H177	H	0.088167	0.621316	-1.063558
H178	H	0.588167	1.121316	-0.563558
H179	H	-0.249913	1.101344	-1.335598
H180	H	0.250087	1.601344	-0.835598
H181	H	-0.728283	0.995756	-0.969048
H182	H	-0.228283	1.495756	-0.469048
H183	H	-0.836528	1.201254	-0.751715
H184	H	-0.336528	1.701254	-0.251715
H185	H	0.002313	0.443740	-1.017584
H186	H	0.502313	0.943740	-0.517584
H187	H	-0.173717	0.479250	-0.735679
H188	H	0.326283	0.979250	-0.235679
H189	H	-0.221719	0.537891	-0.658748
H190	H	0.278281	1.037891	-0.158748
N191	N	-0.798815	1.253595	-0.696326
N192	N	-0.298815	1.753595	-0.196326
H193	H	-0.815065	1.271397	-0.768843
H194	H	-0.315065	1.771397	-0.268843
H195	H	-0.810145	1.295604	-0.651829
H196	H	-0.310145	1.795604	-0.151829
H197	H	-0.038119	1.242021	-1.430391
H198	H	0.461881	1.742021	-0.930391
H199	H	-0.038182	1.242012	-1.231324
H200	H	0.461818	1.742012	-0.731324
H201	H	-0.295205	0.627595	-0.541079
H202	H	0.204795	1.127595	-0.041079
N203	N	-0.265397	1.091058	-1.115087
N204	N	0.234603	1.591058	-0.615087
H205	H	-0.302358	1.066497	-1.149939
H206	H	0.197642	1.566497	-0.649939
H207	H	-0.294324	1.129052	-1.072012
H208	H	0.205676	1.629052	-0.572012
H209	H	-0.290586	0.900261	-0.548401
H210	H	0.209414	1.400261	-0.048401
H211	H	-0.451096	1.141911	-0.814284
H212	H	0.048904	1.641911	-0.314284
H213	H	-0.509754	1.093813	-0.865162
H214	H	-0.009754	1.593813	-0.365162
