data_functionalizedCrystal
_audit_creation_method	'MofGen! by Chris Wilmer'
_symmetry_space_group_name_H-M	'P1'
_symmetry_Int_Tables_number	1
_symmetry_cell_setting	triclinic
loop_
_symmetry_equiv_pos_as_xyz
  x,y,z
_cell_length_a	12.645331
_cell_length_b	12.645330
_cell_length_c	18.215399
_cell_angle_alpha	89.974835
_cell_angle_beta	89.979974
_cell_angle_gamma	90.012860
loop_
_atom_site_label
_atom_site_type_symbol
_atom_site_fract_x
_atom_site_fract_y
_atom_site_fract_z
Zn1	Zn	1.620739	-0.422044	-0.416134
Zn2	Zn	1.620645	-0.599326	-0.293074
Zn3	Zn	1.443462	-0.422078	-0.293081
Zn4	Zn	1.443451	-0.599267	-0.416098
O5	O	1.532074	-0.510679	-0.354597
O6	O	1.769074	-0.445572	-0.399822
O7	O	1.597107	-0.575853	-0.190090
O8	O	1.467023	-0.273726	-0.309422
O9	O	1.769005	-0.575820	-0.309410
O10	O	1.597267	-0.273701	-0.399829
O11	O	1.466931	-0.445630	-0.190096
O12	O	1.295114	-0.445572	-0.309387
O13	O	1.467003	-0.575719	-0.519087
O14	O	1.295105	-0.575751	-0.399768
O15	O	1.597256	-0.445514	-0.519113
O16	O	1.597096	-0.747666	-0.309375
O17	O	1.466912	-0.747622	-0.399761
C18	C	1.256645	-0.510660	-0.354575
C19	C	1.138815	-0.510677	-0.354583
C20	C	1.093902	-0.428653	-0.297818
C21	C	0.971343	-0.428350	-0.298012
C22	C	0.970977	-0.480888	-0.432271
C23	C	1.093575	-0.480275	-0.431917
C24	C	1.093611	-0.622734	-0.334393
C25	C	0.971003	-0.622149	-0.332709
C26	C	1.532021	-0.786109	-0.354579
C27	C	1.532096	-0.903939	-0.354596
C28	C	1.613863	-1.071486	-0.297619
C29	C	1.614129	-0.948926	-0.297759
C30	C	1.562390	-0.948324	-0.432171
C31	C	1.563039	-1.070922	-0.431869
C32	C	1.420002	-1.071266	-0.334763
C33	C	1.420539	-0.948661	-0.333024
C34	C	1.808580	-0.510699	-0.354619
C35	C	1.926410	-0.510707	-0.354628
C36	C	1.532139	-0.510606	-0.546550
C37	C	1.532167	-0.510575	-0.628349
C38	C	1.532157	-0.234174	-0.354630
C39	C	1.532192	-0.116343	-0.354645
C40	C	1.600014	-0.442714	-0.816557
C41	C	1.600026	-0.442683	-0.893416
C42	C	1.464394	-0.578272	-0.893378
C43	C	1.464377	-0.578296	-0.816520
C44	C	1.532193	-0.510519	-0.778112
C45	C	1.532223	-0.510463	-0.931828
C46	C	1.532236	-0.510430	-1.015162
C47	C	1.532178	-0.510550	-0.694773
C48	C	1.532071	-0.510675	-0.163390
C49	C	1.532249	-0.510408	-0.081592
H50	H	1.124721	-0.346091	-0.311050
H51	H	1.655251	-0.387467	-0.924715
H52	H	1.697224	-0.919518	-0.310909
H53	H	1.696512	-1.102217	-0.310622
N54	N	0.932509	-0.318372	-0.315767
H55	H	0.959557	-0.296569	-0.365709
H56	H	0.852643	-0.317786	-0.315924
H57	H	1.645044	-1.099435	-0.448709
H58	H	1.506159	-1.100592	-0.475821
H59	H	1.504716	-0.919181	-0.475797
N60	N	1.391238	-0.651355	-0.934803
H61	H	1.401535	-0.641049	-0.989327
H62	H	1.407696	-0.727078	-0.921366
H63	H	1.397697	-0.919662	-0.275935
H64	H	0.940289	-0.399901	-0.449642
N65	N	1.391202	-0.651424	-0.775059
H66	H	1.407638	-0.727168	-0.788421
H67	H	1.401500	-0.641064	-0.720554
H68	H	0.941870	-0.644642	-0.275567
N69	N	0.932421	-0.557598	-0.489858
H70	H	0.962035	-0.536909	-0.539325
H71	H	0.956781	-0.631347	-0.476932
H72	H	1.122653	-0.683840	-0.375739
N73	N	0.931410	-0.452989	-0.221767
H74	H	0.993449	-0.464144	-0.187728
H75	H	0.887139	-0.392025	-0.203393
H76	H	1.643469	-0.917537	-0.449292
N77	N	1.589036	-0.909169	-0.221568
H78	H	1.577701	-0.971285	-0.187588
H79	H	1.649882	-0.864892	-0.203001
H80	H	1.123311	-0.447043	-0.240060
H81	H	1.122185	-0.398379	-0.448983
N82	N	1.132950	-0.556001	-0.489876
H83	H	1.070663	-0.589629	-0.515544
H84	H	1.177264	-0.516190	-0.526835
H85	H	0.940409	-0.686504	-0.371017
N86	N	1.134480	-0.658815	-0.260642
H87	H	1.214211	-0.663027	-0.262141
H88	H	1.112050	-0.606697	-0.221635
N89	N	1.589071	-1.110610	-0.221199
H90	H	1.524662	-1.157799	-0.222799
H91	H	1.651345	-1.151898	-0.201629
N92	N	1.339390	-1.109707	-0.389768
H93	H	1.267471	-1.080497	-0.376718
H94	H	1.360010	-1.084848	-0.440491
H95	H	1.392452	-1.102272	-0.279181
H96	H	1.356405	-0.918049	-0.371512
N97	N	1.673152	-0.369614	-0.775130
H98	H	1.716116	-0.326654	-0.811151
H99	H	1.630007	-0.320564	-0.743242
