data_functionalizedCrystal
_audit_creation_method	'MofGen! by Chris Wilmer'
_symmetry_space_group_name_H-M	'P1'
_symmetry_Int_Tables_number	1
_symmetry_cell_setting	triclinic
loop_
_symmetry_equiv_pos_as_xyz
  x,y,z
_cell_length_a	18.215407
_cell_length_b	16.120444
_cell_length_c	16.120256
_cell_angle_alpha	84.383140
_cell_angle_beta	87.119259
_cell_angle_gamma	92.923925
loop_
_atom_site_label
_atom_site_type_symbol
_atom_site_fract_x
_atom_site_fract_y
_atom_site_fract_z
Zn1	Zn	1.087185	-0.356817	0.489416
Zn2	Zn	1.087090	-0.489504	0.356727
Zn3	Zn	0.970689	-0.349743	0.349666
Zn4	Zn	0.957510	-0.496543	0.496456
O5	O	1.025618	-0.423152	0.423066
O6	O	1.190155	-0.374433	0.471823
O7	O	1.077125	-0.465058	0.238828
O8	O	0.991698	-0.233716	0.362303
O9	O	1.190086	-0.471917	0.374338
O10	O	1.077286	-0.238913	0.464976
O11	O	0.991606	-0.362377	0.233640
O12	O	0.865958	-0.369202	0.369129
O13	O	0.969236	-0.483914	0.612485
O14	O	0.856275	-0.477055	0.476975
O15	O	1.064507	-0.381259	0.607313
O16	O	1.064346	-0.607403	0.381164
O17	O	0.969144	-0.612575	0.483822
C18	C	0.834414	-0.423125	0.423050
C19	C	0.752614	-0.423135	0.423064
C20	C	0.564446	-0.372490	0.473915
C21	C	0.487587	-0.372497	0.473918
C22	C	0.487541	-0.473838	0.372233
C23	C	0.564399	-0.473826	0.372226
C24	C	0.602849	-0.423153	0.423072
C25	C	0.449132	-0.423173	0.423082
C26	C	0.365798	-0.423181	0.423085
C27	C	0.686189	-0.423143	0.423068
C28	C	1.015324	-0.640318	0.434042
C29	C	1.010985	-0.733224	0.438765
C30	C	1.048295	-0.942134	0.398744
C31	C	1.003078	-0.903319	0.447398
C32	C	1.007479	-0.808669	0.442593
C33	C	1.043895	-1.036792	0.403547
C34	C	1.217569	-0.423179	0.423083
C35	C	1.299367	-0.423191	0.423090
C36	C	1.015412	-0.434161	0.641074
C37	C	1.011062	-0.438852	0.733976
C38	C	1.035973	-0.205139	0.412066
C39	C	1.040385	-0.112235	0.407379
C40	C	1.035831	-0.412125	0.205904
C41	C	1.040334	-0.407199	0.112991
C42	C	1.048300	-0.398665	0.942900
C43	C	1.003098	-0.447383	0.904061
C44	C	1.007531	-0.442635	0.809417
C45	C	1.043868	-0.403412	1.037553
H46	H	0.456323	-0.331240	0.515319
H47	H	0.961061	-0.941172	0.492659
H48	H	1.090308	-0.904285	0.353484
H49	H	0.961067	-0.492652	0.941891
H50	H	1.090324	-0.353396	0.905072
H51	H	0.456225	-0.515095	0.330837
H52	H	0.595668	-0.515083	0.330819
H53	H	0.595751	-0.331226	0.515314
