data_functionalizedCrystal
_audit_creation_method	'MofGen! by Chris Wilmer'
_symmetry_space_group_name_H-M	'P1'
_symmetry_Int_Tables_number	1
_symmetry_cell_setting	triclinic
loop_
_symmetry_equiv_pos_as_xyz
  x,y,z
_cell_length_a	12.759401
_cell_length_b	16.625546
_cell_length_c	12.759393
_cell_angle_alpha	89.964881
_cell_angle_beta	89.979062
_cell_angle_gamma	90.023993
loop_
_atom_site_label
_atom_site_type_symbol
_atom_site_fract_x
_atom_site_fract_y
_atom_site_fract_z
Zn1	Zn	1.606210	-0.320930	-0.593986
Zn2	Zn	1.606077	-0.455784	-0.418292
Zn3	Zn	1.430508	-0.320973	-0.418322
Zn4	Zn	1.430476	-0.455728	-0.593930
O5	O	1.518318	-0.388354	-0.506132
O6	O	1.753213	-0.338824	-0.570692
O7	O	1.582745	-0.437943	-0.271275
O8	O	1.453884	-0.208135	-0.441660
O9	O	1.753116	-0.437901	-0.441610
O10	O	1.582971	-0.208103	-0.570720
O11	O	1.453756	-0.338897	-0.271297
O12	O	1.283483	-0.338843	-0.441605
O13	O	1.453830	-0.437805	-0.740958
O14	O	1.283460	-0.437847	-0.570623
O15	O	1.582940	-0.338770	-0.741000
O16	O	1.582714	-0.568609	-0.441555
O17	O	1.453701	-0.568568	-0.570595
C18	C	1.245350	-0.388344	-0.506112
C19	C	1.128574	-0.388359	-0.506128
C20	C	1.073727	-0.439989	-0.573202
C21	C	0.964003	-0.439992	-0.573223
C22	C	0.963982	-0.336733	-0.439086
C23	C	1.073704	-0.336726	-0.439071
C24	C	1.518218	-0.597844	-0.506088
C25	C	1.518272	-0.687466	-0.506105
C26	C	1.518455	-1.015641	-0.506214
C27	C	1.518401	-0.924333	-0.506187
C28	C	1.518363	-0.851556	-0.506159
C29	C	1.518310	-0.760242	-0.506132
C30	C	1.792351	-0.388364	-0.506154
C31	C	1.909128	-0.388369	-0.506163
C32	C	1.518396	-0.388276	-0.780166
C33	C	1.518430	-0.388243	-0.896943
C34	C	1.518446	-0.178045	-0.506200
C35	C	1.518501	-0.088424	-0.506228
C36	C	1.585663	-0.336667	-0.951828
C37	C	1.585681	-0.336632	-1.061552
C38	C	1.451230	-0.439757	-1.061496
C39	C	1.451208	-0.439787	-0.951774
C40	C	1.518300	-0.388372	-0.233165
C41	C	1.518470	-0.388178	-0.116389
H42	H	1.118399	-0.482029	-0.627806
C43	C	0.795775	-0.290893	-0.379549
C44	C	0.903665	-0.279984	-0.365376
H45	H	0.758543	-0.255861	-0.334037
H46	H	0.777841	-0.279160	-0.450162
H47	H	0.777772	-0.345057	-0.364041
H48	H	0.921670	-0.225821	-0.380891
H49	H	0.921607	-0.291711	-0.294747
C50	C	1.318327	-0.541691	-1.050419
C51	C	1.377348	-0.496417	-1.121769
H52	H	1.272713	-0.576669	-1.087629
H53	H	1.364073	-0.572545	-1.007621
H54	H	1.278154	-0.506561	-1.007628
H55	H	1.417527	-0.531547	-1.164555
H56	H	1.331596	-0.465561	-1.164584
H57	H	0.919352	-0.482033	-0.627843
C58	C	1.645328	-0.290920	-0.783657
C59	C	1.659541	-0.280003	-0.891555
H60	H	1.690941	-0.255938	-0.746451
H61	H	1.574749	-0.279123	-0.765675
H62	H	1.660675	-0.345102	-0.765668
H63	H	1.644187	-0.225823	-0.909546
H64	H	1.730136	-0.291794	-0.909545
C65	C	1.436516	-0.548276	-0.828331
C66	C	1.377302	-0.496483	-0.891431
H67	H	1.390888	-0.583270	-0.791074
H68	H	1.482267	-0.579110	-0.871132
H69	H	1.476540	-0.517570	-0.779980
H70	H	1.337284	-0.527189	-0.939787
H71	H	1.331533	-0.465646	-0.848627
C72	C	1.062671	-0.234663	-0.306470
C73	C	1.134000	-0.279973	-0.365334
H74	H	1.099898	-0.199630	-0.260948
H75	H	1.019914	-0.203865	-0.352321
H76	H	1.019838	-0.269766	-0.266205
H77	H	1.176829	-0.244870	-0.405604
H78	H	1.176775	-0.310773	-0.319477
H79	H	1.640427	-0.294633	-1.106235
