data_functionalizedCrystal
_audit_creation_method	'MofGen! by Chris Wilmer'
_symmetry_space_group_name_H-M	'P1'
_symmetry_Int_Tables_number	1
_symmetry_cell_setting	triclinic
loop_
_symmetry_equiv_pos_as_xyz
  x,y,z
_cell_length_a	12.594516
_cell_length_b	12.759395
_cell_length_c	12.759387
_cell_angle_alpha	89.979491
_cell_angle_beta	90.028490
_cell_angle_gamma	89.982411
loop_
_atom_site_label
_atom_site_type_symbol
_atom_site_fract_x
_atom_site_fract_y
_atom_site_fract_z
Zn1	Zn	-0.423642	-1.606259	0.594022
Zn2	Zn	-0.601660	-1.606145	0.418349
Zn3	Zn	-0.423700	-1.430557	0.418359
Zn4	Zn	-0.601584	-1.430545	0.593989
O5	O	-0.512647	-1.518377	0.506180
O6	O	-0.447264	-1.753265	0.570729
O7	O	-0.578109	-1.582811	0.271330
O8	O	-0.274747	-1.453917	0.441679
O9	O	-0.578053	-1.753181	0.441663
O10	O	-0.274704	-1.583004	0.570738
O11	O	-0.447363	-1.453807	0.271336
O12	O	-0.447290	-1.283534	0.441646
O13	O	-0.577924	-1.453897	0.741014
O14	O	-0.577980	-1.283526	0.570681
O15	O	-0.447191	-1.582993	0.741039
O16	O	-0.750595	-1.582799	0.441631
O17	O	-0.750540	-1.453786	0.570672
C18	C	-0.512634	-1.245409	0.506162
C19	C	-0.512654	-1.128632	0.506179
C20	C	-0.789188	-1.518308	0.506169
C21	C	-0.907493	-1.518374	0.506200
C22	C	-0.512542	-1.518456	0.780213
C23	C	-0.512498	-1.518490	0.896990
C24	C	-0.976755	-1.448198	0.576336
C25	C	-1.047624	-1.422596	0.480469
C26	C	-1.047422	-1.544072	0.602083
C27	C	-0.976805	-1.492722	0.410282
C28	C	-0.976596	-1.614242	0.531961
C29	C	-1.047434	-1.588677	0.436028
C30	C	-0.235026	-1.518474	0.506213
C31	C	-0.116720	-1.518516	0.506227
C32	C	-0.512660	-1.792410	0.506198
C33	C	-0.512666	-1.909187	0.506206
C34	C	-0.648962	-1.128662	0.640325
C35	C	-0.717124	-1.073816	0.707401
C36	C	-0.717137	-0.964094	0.707414
C37	C	-0.648978	-0.909216	0.640346
C38	C	-0.580816	-0.964062	0.573270
C39	C	-0.580812	-1.073786	0.573262
C40	C	-0.444504	-0.964033	0.439130
C41	C	-0.444495	-1.073754	0.439111
C42	C	-0.376345	-0.909155	0.372062
C43	C	-0.308186	-0.964001	0.304979
C44	C	-0.308177	-1.073729	0.304968
C45	C	-0.376332	-1.128600	0.372034
C46	C	-0.512674	-1.518358	0.233212
C47	C	-0.512418	-1.518528	0.116436
C48	C	-0.376375	-1.652927	0.897035
C49	C	-0.308297	-1.720160	0.951919
C50	C	-0.308258	-1.720185	1.061641
C51	C	-0.376302	-1.652968	1.116481
C52	C	-0.444380	-1.585735	1.061598
C53	C	-0.444413	-1.585719	0.951874
C54	C	-0.580496	-1.451295	1.061553
C55	C	-0.580542	-1.451273	0.951831
C56	C	-0.648540	-1.384078	1.116393
C57	C	-0.716624	-1.316848	1.061510
C58	C	-0.716661	-1.316826	0.951781
C59	C	-0.648619	-1.384040	0.896947
H60	H	-0.945719	-1.388745	0.635562
H61	H	-0.648985	-0.819875	0.640371
C62	C	-1.089328	-1.573358	0.711614
N63	N	-1.120888	-1.595410	0.794114
C64	C	-0.376336	-1.249297	0.372022
N65	N	-0.376340	-1.340207	0.372016
C66	C	-0.376418	-1.652912	0.776338
N67	N	-0.376448	-1.652902	0.685428
C68	C	-1.089105	-1.668930	0.355825
N69	N	-1.120495	-1.729371	0.295413
H70	H	-0.252895	-1.774884	0.907255
H71	H	-1.078847	-1.341588	0.458703
H72	H	-0.945377	-1.695232	0.553774
C73	C	-0.935075	-1.463305	0.300722
N74	N	-0.903642	-1.441143	0.218204
C75	C	-0.233370	-1.794145	1.122014
N76	N	-0.176966	-1.849852	1.167487
C77	C	-0.792100	-1.134190	0.781168
N78	N	-0.848573	-1.179661	0.836729
H79	H	-0.252692	-0.919310	0.250383
H80	H	-0.648647	-1.384033	0.807606
H81	H	-0.376255	-1.652986	1.205822
C82	C	-0.792119	-0.903762	0.781200
N83	N	-0.848598	-0.858320	0.836774
H84	H	-0.648966	-1.218003	0.640314
H85	H	-0.376356	-0.819813	0.372082
C86	C	-0.233191	-1.134051	0.231178
N87	N	-0.176711	-1.179481	0.175596
H88	H	-0.648499	-1.384099	1.205734
H89	H	-0.772014	-1.262120	1.106170
H90	H	-0.772087	-1.262065	0.907102
