data_functionalizedCrystal
_audit_creation_method	'MofGen! by Chris Wilmer'
_symmetry_space_group_name_H-M	'P1'
_symmetry_Int_Tables_number	1
_symmetry_cell_setting	triclinic
loop_
_symmetry_equiv_pos_as_xyz
  x,y,z
_cell_length_a	11.169417
_cell_length_b	11.169416
_cell_length_c	11.169409
_cell_angle_alpha	90.030816
_cell_angle_beta	90.020564
_cell_angle_gamma	90.011219
loop_
_atom_site_label
_atom_site_type_symbol
_atom_site_fract_x
_atom_site_fract_y
_atom_site_fract_z
Zn1	Zn	-1.834971	0.477682	-0.678555
Zn2	Zn	-1.501638	0.811016	-0.345222
Zn3	Zn	-1.168304	1.144349	-0.011888
Zn4	Zn	-1.834858	0.678423	-0.477877
Zn5	Zn	-1.501525	1.011756	-0.144544
Zn6	Zn	-1.168191	1.345089	0.188790
Zn7	Zn	-1.634254	0.477755	-0.477889
Zn8	Zn	-1.300921	0.811089	-0.144556
Zn9	Zn	-0.967588	1.144422	0.188777
Zn10	Zn	-1.634264	0.678325	-0.678522
Zn11	Zn	-1.300931	1.011659	-0.345189
Zn12	Zn	-0.967598	1.344992	-0.011855
O13	O	-1.734587	0.578047	-0.578211
O14	O	-1.401254	0.911380	-0.244877
O15	O	-1.067920	1.244713	0.088456
O16	O	-2.002906	0.504321	-0.651943
O17	O	-1.669572	0.837655	-0.318610
O18	O	-1.336239	1.170988	0.014723
O19	O	-1.808196	0.651875	-0.309929
O20	O	-1.474862	0.985209	0.023405
O21	O	-1.141529	1.318542	0.356738
O22	O	-1.660923	0.309796	-0.504527
O23	O	-1.327590	0.643129	-0.171194
O24	O	-0.994256	0.976463	0.162140
O25	O	-2.002823	0.651804	-0.504506
O26	O	-1.669489	0.985138	-0.171173
O27	O	-1.336156	1.318471	0.162161
O28	O	-1.808389	0.309742	-0.651955
O29	O	-1.475055	0.643076	-0.318622
O30	O	-1.141722	0.976409	0.014711
O31	O	-1.660813	0.504446	-0.309938
O32	O	-1.327480	0.837779	0.023395
O33	O	-0.994147	1.171112	0.356729
O34	O	-1.466306	0.504351	-0.504495
O35	O	-1.132973	0.837685	-0.171162
O36	O	-0.799639	1.171018	0.162172
O37	O	-1.660940	0.651638	-0.846476
O38	O	-1.327607	0.984972	-0.513143
O39	O	-0.994274	1.318305	-0.179809
O40	O	-1.466313	0.651709	-0.651899
O41	O	-1.132980	0.985042	-0.318565
O42	O	-0.799647	1.318376	0.014768
O43	O	-1.808399	0.504227	-0.846500
O44	O	-1.475065	0.837560	-0.513167
O45	O	-1.141732	1.170894	-0.179834
O46	O	-1.808206	0.846360	-0.504474
O47	O	-1.474872	1.179693	-0.171141
O48	O	-1.141539	1.513026	0.162193
O49	O	-1.660830	0.846288	-0.651887
O50	O	-1.327497	1.179621	-0.318554
O51	O	-0.994164	1.512955	0.014780
C52	C	-1.422762	0.578028	-0.578195
C53	C	-1.089429	0.911362	-0.244862
C54	C	-0.756096	1.244695	0.088471
C55	C	-1.289362	0.578049	-0.578217
C56	C	-0.956029	0.911383	-0.244884
C57	C	-0.622696	1.244716	0.088449
C58	C	-1.734539	0.889871	-0.578202
C59	C	-1.401206	1.223205	-0.244868
C60	C	-1.067873	1.556538	0.088465
C61	C	-1.734629	1.023271	-0.578238
C62	C	-1.401295	1.356604	-0.244905
C63	C	-1.067962	1.689938	0.088429
C64	C	-1.734683	0.577914	-0.891253
C65	C	-1.401350	0.911247	-0.557920
C66	C	-1.068016	1.244580	-0.224587
C67	C	-1.734724	0.577857	-1.024653
C68	C	-1.401391	0.911190	-0.691320
C69	C	-1.068057	1.244524	-0.357987
C70	C	-2.047629	0.578066	-0.578227
C71	C	-1.714296	0.911399	-0.244894
C72	C	-1.380963	1.244732	0.088440
C73	C	-2.181029	0.578074	-0.578234
C74	C	-1.847696	0.911407	-0.244901
C75	C	-1.514363	1.244740	0.088433
C76	C	-1.734667	0.265004	-0.578246
C77	C	-1.401334	0.598338	-0.244913
C78	C	-1.068001	0.931671	0.088420
C79	C	-1.734702	0.131604	-0.578261
C80	C	-1.401368	0.464937	-0.244928
C81	C	-1.068035	0.798271	0.088405
C82	C	-1.734560	0.578092	-0.266386
C83	C	-1.401227	0.911426	0.066947
C84	C	-1.067894	1.244759	0.400281
C85	C	-1.734752	0.577811	-0.132987
C86	C	-1.401418	0.911144	0.200347
C87	C	-1.068085	1.244478	0.533680
