data_functionalizedCrystal
_audit_creation_method	'MofGen! by Chris Wilmer'
_symmetry_space_group_name_H-M	'P1'
_symmetry_Int_Tables_number	1
_symmetry_cell_setting	triclinic
loop_
_symmetry_equiv_pos_as_xyz
  x,y,z
_cell_length_a	11.792254
_cell_length_b	18.266242
_cell_length_c	11.792241
_cell_angle_alpha	89.994757
_cell_angle_beta	95.803993
_cell_angle_gamma	90.008886
loop_
_atom_site_label
_atom_site_type_symbol
_atom_site_fract_x
_atom_site_fract_y
_atom_site_fract_z
O1	O	1.506908	0.060881	-0.155636
O2	O	1.840241	0.394214	0.177697
O3	O	2.173574	0.727547	0.511031
O4	O	1.176568	0.060882	-0.171654
O5	O	1.509902	0.394216	0.161679
O6	O	1.843235	0.727549	0.495013
O7	O	1.349754	0.060876	0.001525
O8	O	1.683088	0.394210	0.334858
O9	O	2.016421	0.727543	0.668192
O10	O	1.333722	0.060887	-0.328815
O11	O	1.667055	0.394220	0.004518
O12	O	2.000388	0.727553	0.337851
O13	O	1.349725	-0.060886	0.001530
O14	O	1.683058	0.272448	0.334864
O15	O	2.016391	0.605781	0.668197
O16	O	1.176539	-0.060880	-0.171649
O17	O	1.509872	0.272454	0.161684
O18	O	1.843205	0.605787	0.495018
O19	O	1.506878	-0.060881	-0.155631
O20	O	1.840211	0.272452	0.177702
O21	O	2.173544	0.605785	0.511036
Zn22	Zn	1.341703	-0.080213	-0.163639
Zn23	Zn	1.675037	0.253120	0.169694
Zn24	Zn	2.008370	0.586454	0.503028
Zn25	Zn	1.341743	0.080214	-0.163646
Zn26	Zn	1.675076	0.413547	0.169687
Zn27	Zn	2.008409	0.746880	0.503021
O28	O	1.333692	-0.060875	-0.328810
O29	O	1.667025	0.272458	0.004523
O30	O	2.000358	0.605791	0.337857
C31	C	1.134263	0.000001	-0.170642
C32	C	1.467596	0.333335	0.162691
C33	C	1.800929	0.666668	0.496024
C34	C	1.008250	0.000002	-0.167622
C35	C	1.341583	0.333335	0.165711
C36	C	1.674916	0.666669	0.499044
N37	N	1.341685	-0.189700	-0.163634
N38	N	1.675018	0.143634	0.169699
N39	N	2.008352	0.476967	0.503033
C40	C	0.905913	0.000005	-0.165168
C41	C	1.239247	0.333338	0.168165
C42	C	1.572580	0.666672	0.501498
C43	C	0.777527	0.000005	-0.162100
C44	C	1.110860	0.333339	0.171233
C45	C	1.444193	0.666672	0.504567
C46	C	1.410935	-0.228001	-0.232946
C47	C	1.744268	0.105333	0.100387
C48	C	2.077602	0.438666	0.433721
C49	C	1.410954	-0.304646	-0.232943
C50	C	1.744287	0.028688	0.100390
C51	C	2.077620	0.362021	0.433724
C52	C	1.341702	-0.342987	-0.163641
C53	C	1.675035	-0.009653	0.169693
C54	C	2.008368	0.323680	0.503026
C55	C	1.272447	-0.304677	-0.094315
C56	C	1.605780	0.028657	0.239019
C57	C	1.939114	0.361990	0.572352
C58	C	1.272439	-0.228033	-0.094311
C59	C	1.605772	0.105300	0.239022
C60	C	1.939106	0.438633	0.572355
N61	N	1.242270	-0.463339	-0.159925
N62	N	1.575604	-0.130006	0.173408
N63	N	1.908937	0.203328	0.506742
N64	N	1.242281	-0.536147	-0.159935
N65	N	1.575615	-0.202814	0.173399
N66	N	1.908948	0.130520	0.506732
C67	C	1.341724	-0.573909	-0.163645
C68	C	1.675057	-0.240576	0.169688
C69	C	2.008391	0.092758	0.503021
N70	N	1.441157	-0.536113	-0.167368
N71	N	1.774490	-0.202779	0.165965
N72	N	2.107824	0.130554	0.499299
N73	N	1.441145	-0.463298	-0.167364
N74	N	1.774478	-0.129964	0.165969
N75	N	2.107811	0.203369	0.499303
C76	C	1.341703	-0.426094	-0.163636
C77	C	1.675037	-0.092760	0.169697
C78	C	2.008370	0.240573	0.503030
C79	C	1.411000	-0.695317	-0.232958
C80	C	1.744334	-0.361984	0.100376
C81	C	2.077667	-0.028650	0.433709
C82	C	1.411022	-0.771963	-0.232946
C83	C	1.744355	-0.438630	0.100387
C84	C	2.077688	-0.105297	0.433720
C85	C	1.272504	-0.771993	-0.094325
C86	C	1.605838	-0.438660	0.239008
C87	C	1.939171	-0.105326	0.572342
C88	C	1.272494	-0.695348	-0.094330
C89	C	1.605827	-0.362015	0.239004
C90	C	1.939161	-0.028681	0.572337
C91	C	1.341740	-0.657015	-0.163652
C92	C	1.675073	-0.323681	0.169681
C93	C	2.008407	0.009652	0.503015
C94	C	1.549183	0.000001	-0.156643
C95	C	1.882517	0.333334	0.176691
C96	C	2.215850	0.666668	0.510024
C97	C	1.675196	0.000005	-0.159663
C98	C	2.008530	0.333339	0.173671
C99	C	2.341863	0.666672	0.507004
C100	C	1.348732	-0.000004	0.043819
C101	C	1.682066	0.333329	0.377152
C102	C	2.015399	0.666662	0.710485
C103	C	1.345718	-0.000004	0.169832
C104	C	1.679051	0.333330	0.503166
C105	C	2.012385	0.666663	0.836499
N106	N	1.341770	0.189701	-0.163642
N107	N	1.675103	0.523034	0.169691
N108	N	2.008437	0.856367	0.503024
C109	C	1.334714	0.000007	-0.371104
C110	C	1.668047	0.333340	-0.037770
C111	C	2.001380	0.666674	0.295563
C112	C	1.337728	0.000011	-0.497118
C113	C	1.671061	0.333344	-0.163784
C114	C	2.004395	0.666678	0.169549
C115	C	1.340175	0.000009	0.400545
C116	C	1.673508	0.333342	0.733878
C117	C	2.006842	0.666675	1.067212
C118	C	1.343255	0.000002	0.272160
C119	C	1.676588	0.333335	0.605493
C120	C	2.009921	0.666669	0.938826
H121	H	1.467325	-0.196794	-0.289389
H122	H	1.800659	0.136539	0.043944
H123	H	2.133992	0.469872	0.377277
F124	F	1.484663	-0.345416	-0.306716
F125	F	1.817997	-0.012083	0.026617
F126	F	2.151330	0.321250	0.359951
F127	F	1.198747	-0.345483	-0.020556
F128	F	1.532080	-0.012150	0.312778
F129	F	1.865414	0.321184	0.646111
H130	H	1.216098	-0.664163	-0.037893
H131	H	1.549432	-0.330830	0.295441
H132	H	1.882765	0.002503	0.628774
F133	F	1.198725	-0.187269	-0.020541
F134	F	1.532059	0.146064	0.312792
F135	F	1.865392	0.479397	0.646125
H136	H	1.467386	-0.664104	-0.289403
H137	H	1.800719	-0.330771	0.043930
H138	H	2.134052	0.002562	0.377263
F139	F	1.198811	-0.812793	-0.020557
F140	F	1.532144	-0.479460	0.312777
F141	F	1.865478	-0.146127	0.646110
H142	H	1.467421	-0.803147	-0.289385
H143	H	1.800755	-0.469813	0.043948
H144	H	2.134088	-0.136480	0.377281
