data_functionalizedCrystal
_audit_creation_method	'MofGen! by Chris Wilmer'
_symmetry_space_group_name_H-M	'P1'
_symmetry_Int_Tables_number	1
_symmetry_cell_setting	triclinic
loop_
_symmetry_equiv_pos_as_xyz
  x,y,z
_cell_length_a	10.654554
_cell_length_b	14.971500
_cell_length_c	13.448316
_cell_angle_alpha	90.003107
_cell_angle_beta	90.001507
_cell_angle_gamma	84.053282
loop_
_atom_site_label
_atom_site_type_symbol
_atom_site_fract_x
_atom_site_fract_y
_atom_site_fract_z
O1	O	1.666493	0.125653	0.082685
O2	O	1.300887	0.137618	0.082685
O3	O	1.493480	0.001490	0.082689
O4	O	1.473900	0.261781	0.082681
O5	O	1.493476	0.001478	-0.082694
O6	O	1.300883	0.137606	-0.082698
O7	O	1.666488	0.125641	-0.082699
Cu8	Cu	1.483685	0.131623	-0.097799
Cu9	Cu	1.483690	0.131637	0.097786
O10	O	1.473896	0.261770	-0.082702
C11	C	1.254097	0.136733	-0.000006
C12	C	1.114682	0.134102	-0.000006
C13	C	0.903345	0.211783	-0.000006
C14	C	1.034340	0.214256	-0.000006
C15	C	1.064022	0.051470	0.000005
C16	C	0.933029	0.048998	0.000012
C17	C	0.886210	0.305766	-0.000016
C18	C	1.017205	0.308239	-0.000016
C19	C	1.492599	-0.031845	0.000001
C20	C	1.489966	-0.131156	0.000010
C21	C	1.713279	0.126527	-0.000005
C22	C	1.852694	0.129158	0.000001
N23	N	1.483695	0.131640	0.235351
C24	C	1.474777	0.295105	-0.000011
C25	C	1.477410	0.394416	-0.000014
C26	C	1.488730	0.822192	0.090159
C27	C	1.486253	0.728879	0.090156
C28	C	1.485021	0.682219	0.000001
C29	C	1.486253	0.728878	-0.090155
C30	C	1.488721	0.822190	-0.090150
C31	C	1.481112	0.534386	-0.090158
C32	C	1.478646	0.441068	-0.090164
C33	C	1.478644	0.441075	0.090147
C34	C	1.481112	0.534387	0.090152
C35	C	1.482346	0.581039	-0.000005
N36	N	1.483691	0.131612	-0.235364
C37	C	1.569134	0.071483	0.287393
C38	C	1.569139	0.071481	0.391496
C39	C	1.483698	0.131631	0.443555
C40	C	1.398255	0.191795	0.391506
C41	C	1.398257	0.191801	0.287404
C42	C	1.398255	0.191776	0.608486
C43	C	1.398252	0.191769	0.712594
C44	C	1.569138	0.071456	0.712577
C45	C	1.569140	0.071462	0.608476
C46	C	1.483694	0.131625	0.556434
H47	H	1.046173	0.344976	-0.069238
H48	H	1.638710	0.022470	0.754956
C49	C	1.482472	0.585703	-0.189332
C50	C	1.593137	0.640377	-0.214117
C51	C	1.594505	0.691693	-0.313288
C52	C	1.485208	0.688335	-0.387674
C53	C	1.374536	0.633659	-0.362891
C54	C	1.373168	0.582343	-0.263720
H55	H	1.674052	0.642865	-0.159051
H56	H	1.676432	0.732168	-0.331634
H57	H	1.486221	0.726322	-0.461086
H58	H	1.293621	0.631171	-0.417957
H59	H	1.291240	0.541868	-0.245374
C60	C	1.490086	0.873514	0.189332
C61	C	1.598706	0.851207	0.263714
C62	C	1.600058	0.902527	0.362890
C63	C	1.492790	0.976154	0.387683
C64	C	1.384162	0.998464	0.313299
C65	C	1.382810	0.947145	0.214124
H66	H	1.678120	0.796701	0.245362
H67	H	1.680473	0.886011	0.417953
H68	H	1.493791	1.014144	0.461099
H69	H	1.304749	1.052971	0.331651
H70	H	1.302396	0.963661	0.159060
H71	H	1.485241	0.690880	-0.163560
C72	C	1.484904	0.677567	0.189326
C73	C	1.594218	0.680927	0.263695
C74	C	1.592869	0.629618	0.362872
C75	C	1.482207	0.574950	0.387679
C76	C	1.372885	0.571588	0.313308
C77	C	1.374233	0.622897	0.214131
H78	H	1.676145	0.721398	0.245332
H79	H	1.673798	0.632108	0.417926
H80	H	1.481208	0.536968	0.461096
H81	H	1.290958	0.531117	0.331671
H82	H	1.293305	0.620407	0.159077
H83	H	1.489709	0.860174	-0.163559
C84	C	1.064919	0.348686	0.096447
C85	C	1.042686	0.304212	0.197289
C86	C	1.090398	0.344654	0.293752
C87	C	1.160344	0.429569	0.289375
C88	C	1.182581	0.474047	0.188529
C89	C	1.134868	0.433606	0.092065
H90	H	0.990905	0.241349	0.200533
H91	H	1.073937	0.311728	0.368405
H92	H	1.195664	0.459506	0.360783
H93	H	1.234362	0.536911	0.185285
H94	H	1.151329	0.466532	0.017413
C95	C	1.663123	0.005315	0.230133
C96	C	1.757152	-0.060822	0.287384
C97	C	1.851147	-0.126990	0.230128
C98	C	1.851113	-0.127022	0.115621
C99	C	1.757081	-0.060883	0.058363
C100	C	1.663086	0.005286	0.115619
H101	H	1.757180	-0.060801	0.372155
H102	H	1.920755	-0.175951	0.272514
H103	H	1.920694	-0.176003	0.073236
H104	H	1.757052	-0.060904	-0.026408
H105	H	1.593477	0.054246	0.073232
H106	H	1.482125	0.572375	0.163563
C107	C	1.477289	0.389767	0.189325
C108	C	1.584560	0.316142	0.214115
C109	C	1.583217	0.264830	0.313290
C110	C	1.474604	0.287142	0.387674
C111	C	1.367325	0.360770	0.362886
C112	C	1.368667	0.412082	0.263711
H113	H	1.664970	0.299623	0.159049
H114	H	1.662633	0.210326	0.331639
H115	H	1.473610	0.249158	0.461089
H116	H	1.286915	0.377290	0.417952
H117	H	1.289252	0.466587	0.245362
H118	H	1.638711	0.022497	0.433868
H119	H	1.477632	0.403080	-0.163575
H120	H	1.638706	0.022479	0.566089
C121	C	1.304273	0.257943	0.769857
C122	C	1.210579	0.324324	0.712610
C123	C	1.116598	0.390499	0.769870
C124	C	1.116311	0.390294	0.884377
C125	C	1.210009	0.323910	0.941630
C126	C	1.303989	0.257735	0.884370
H127	H	1.210788	0.324478	0.627839
H128	H	1.047238	0.439640	0.727487
H129	H	1.046741	0.439281	0.926764
H130	H	1.209799	0.323756	1.026401
H131	H	1.373350	0.208594	0.926753
H132	H	1.328681	0.240770	0.566117
C133	C	1.152393	-0.036702	0.000009
C134	C	1.146631	-0.104181	0.085893
C135	C	1.234998	-0.192356	0.085896
C136	C	1.329129	-0.213052	0.000015
C137	C	1.334895	-0.145571	-0.085875
C138	C	1.246527	-0.057396	-0.085878
H139	H	1.076947	-0.088863	0.149473
H140	H	1.230729	-0.242310	0.149478
H141	H	1.394544	-0.278324	0.000017
H142	H	1.404579	-0.160889	-0.149455
H143	H	1.250796	-0.007442	-0.149460
H144	H	0.891795	-0.018283	0.000030
H145	H	1.328691	0.240775	0.433898
C146	C	0.824110	0.344122	-0.096475
C147	C	0.749535	0.284538	-0.162881
C148	C	0.687431	0.322891	-0.259340
C149	C	0.699903	0.420829	-0.289393
C150	C	0.774481	0.480418	-0.222985
C151	C	0.836585	0.442065	-0.126526
H152	H	0.740299	0.212033	-0.140636
H153	H	0.632224	0.278778	-0.308499
H154	H	0.653931	0.449220	-0.360797
H155	H	0.783717	0.552923	-0.245231
H156	H	0.891792	0.486178	-0.077367
H157	H	1.328685	0.240788	0.245033
H158	H	0.844089	0.341188	0.069193
