data_functionalizedCrystal
_audit_creation_method	'MofGen! by Chris Wilmer'
_symmetry_space_group_name_H-M	'P1'
_symmetry_Int_Tables_number	1
_symmetry_cell_setting	triclinic
loop_
_symmetry_equiv_pos_as_xyz
  x,y,z
_cell_length_a	19.902436
_cell_length_b	14.560438
_cell_length_c	14.560438
_cell_angle_alpha	90.000748
_cell_angle_beta	59.995383
_cell_angle_gamma	60.002539
loop_
_atom_site_label
_atom_site_type_symbol
_atom_site_fract_x
_atom_site_fract_y
_atom_site_fract_z
Zr1	Zr	0.735473	0.884790	-0.120602
O2	O	0.875653	0.738147	-0.267270
O3	O	0.595293	0.929741	-0.075627
O4	O	0.735470	0.929747	-0.267247
O5	O	0.735477	0.738139	0.075488
O6	O	0.735468	1.080888	-0.267243
O7	O	0.735475	0.738141	-0.075650
O8	O	0.484716	1.080877	0.075529
O9	O	0.986229	0.738150	-0.267284
O10	O	0.652949	1.061710	-0.056459
O11	O	0.652952	0.948915	0.056331
O12	O	0.817993	0.948921	-0.169276
O13	O	0.817996	0.836126	-0.056486
Zr14	Zr	0.735473	1.125840	0.120452
Zr15	Zr	0.735470	1.125842	-0.120596
Zr16	Zr	0.735476	0.884788	0.120447
Zr17	Zr	0.911829	0.884795	-0.120625
Zr18	Zr	0.559116	1.125835	0.120475
O19	O	0.875653	1.080889	0.075477
O20	O	0.875649	1.080892	-0.267262
O21	O	0.875657	0.738143	0.075470
O22	O	0.595293	1.272483	0.267120
O23	O	0.595288	1.272486	-0.075619
O24	O	0.595297	0.929738	0.267112
O25	O	0.735468	1.272490	-0.075638
O26	O	0.735475	1.080883	0.267097
O27	O	0.735477	0.929742	0.267094
O28	O	0.735470	1.272489	0.075500
O29	O	0.986227	0.929754	-0.267280
O30	O	0.484719	1.080876	0.267130
O31	O	0.484716	1.272480	0.267135
O32	O	0.484714	1.272482	0.075534
O33	O	0.986232	0.738148	-0.075683
O34	O	0.986229	0.929752	-0.075679
O35	O	0.652952	1.061708	0.169127
O36	O	0.652949	1.174504	0.056336
O37	O	0.817993	1.061715	-0.056481
O38	O	0.817996	0.948919	0.056309
C39	C	0.514877	1.005309	-0.000046
C40	C	0.440009	1.005306	-0.000036
C41	C	0.735476	1.005312	0.301440
C42	C	0.735478	1.005311	0.403771
C43	C	0.735469	1.306834	-0.000068
C44	C	0.735468	1.409167	-0.000066
C45	C	0.167999	1.005318	-0.000088
C46	C	0.196239	0.934508	0.071406
C47	C	0.274358	0.934124	0.071112
C48	C	0.302946	1.005312	-0.000061
C49	C	0.338509	0.953421	-0.122635
C50	C	0.260671	0.952888	-0.122258
C51	C	0.133483	1.128053	0.050008
C52	C	0.210535	1.127874	0.052503
C53	C	0.379215	1.005310	-0.000053
C54	C	0.091735	1.005316	-0.000105
C55	C	0.956068	1.005321	-0.000104
C56	C	1.030936	1.005323	-0.000114
C57	C	0.735476	0.703795	-0.000082
C58	C	0.735478	0.601462	-0.000084
C59	C	0.649318	1.516118	0.058824
C60	C	0.649323	1.612267	0.058812
C61	C	0.821634	1.494500	-0.058981
C62	C	0.821629	1.398354	-0.058975
C63	C	0.563157	1.526932	0.117733
C64	C	0.477001	1.633888	0.176628
C65	C	0.477005	1.730036	0.176616
C66	C	0.563166	1.719229	0.117709
C67	C	0.735469	1.005318	-0.301589
C68	C	0.735468	1.005319	-0.403920
C69	C	0.821627	0.946442	0.392960
C70	C	0.821623	0.946442	0.489115
C71	C	0.649311	1.064190	0.606888
C72	C	0.649317	1.064182	0.510734
C73	C	0.907788	0.887571	0.285996
C74	C	0.993945	0.828698	0.275181
C75	C	0.993940	0.828698	0.371336
C76	C	0.907779	0.887571	0.478306
C77	C	0.514874	1.306828	-0.000039
C78	C	0.440004	1.409159	-0.000027
C79	C	0.514881	1.005306	0.301469
C80	C	0.440014	1.005303	0.403810
C81	C	0.514877	1.306825	0.301476
C82	C	0.440009	1.409155	0.403819
C83	C	0.956068	0.703805	-0.301625
C84	C	1.030936	0.601475	-0.403969
C85	C	0.956072	0.703802	-0.000111
C86	C	1.030941	0.601471	-0.000123
C87	C	0.956064	1.005324	-0.301618
C88	C	1.030931	1.005327	-0.403959
C89	C	0.404845	1.398337	-0.058909
C90	C	0.334507	1.494479	-0.058920
C91	C	0.299325	1.601441	-0.000041
C92	C	0.334491	1.612260	0.058843
C93	C	0.404833	1.516120	0.058846
C94	C	0.404856	1.064178	0.510758
C95	C	0.334521	1.064171	0.606928
C96	C	0.299340	1.005294	0.596147
C97	C	0.334505	0.946411	0.489187
C98	C	0.404844	0.946413	0.393020
C99	C	0.404849	1.516099	0.393005
C100	C	0.334512	1.612258	0.489158
C101	C	0.299332	1.601471	0.596124
C102	C	0.334500	1.494516	0.606936
C103	C	0.404840	1.398359	0.510784
C104	C	1.066105	0.494531	-0.393155
C105	C	1.136464	0.398372	-0.489308
C106	C	1.171647	0.409159	-0.596274
C107	C	1.136475	0.516114	-0.607086
C108	C	1.066123	0.612271	-0.510933
C109	C	1.066108	0.612292	0.058749
C110	C	1.136465	0.516151	0.058734
C111	C	1.171650	0.409189	-0.000148
C112	C	1.136480	0.398370	-0.059028
C113	C	1.066129	0.494510	-0.059018
C114	C	1.066090	1.064216	-0.393142
C115	C	1.136425	1.064240	-0.489293
C116	C	1.171607	1.005370	-0.596261
C117	C	1.136441	0.946480	-0.607076
C118	C	1.066102	0.946462	-0.510926
H119	H	0.131734	0.969130	0.161892
N120	N	1.174392	0.882981	-0.722450
H121	H	1.162151	0.936986	-0.764961
H122	H	1.244996	0.823746	-0.764874
N123	N	0.359746	0.814204	0.025093
H124	H	0.384821	0.778080	-0.054206
H125	H	0.410845	0.813539	0.024787
N126	N	1.086857	0.765204	0.359683
H127	H	1.124532	0.682837	0.317198
H128	H	1.124439	0.796188	0.317242
H129	H	1.165089	0.524982	0.106685
N130	N	0.442787	1.127689	0.522413
H131	H	0.471978	1.096795	0.564876
H132	H	0.492645	1.118750	0.445234
H133	H	1.037466	0.699377	0.106706
H134	H	1.228934	0.330915	-0.000147
N135	N	0.296572	1.482802	-0.122416
H136	H	0.308820	1.520052	-0.181683
H137	H	0.329544	1.400433	-0.159630
N138	N	0.384080	1.845388	0.240136
H139	H	0.380243	1.887908	0.299380
H140	H	0.380288	1.887813	0.186062
H141	H	0.433482	1.524903	0.305917
H142	H	0.563163	1.797525	0.117697
N143	N	0.296589	1.127704	0.722280
H144	H	0.246693	1.118774	0.781574
H145	H	0.350318	1.096804	0.731169
H146	H	1.064094	0.780757	0.188081
H147	H	0.242057	1.679777	0.674409
H148	H	1.037483	0.898503	-0.519749
N149	N	0.296569	1.727610	0.477493
H150	H	0.308814	1.770140	0.514741
H151	H	0.329536	1.719757	0.395120
N152	N	1.174418	0.283001	-0.122512
H153	H	1.224311	0.223748	-0.113565
H154	H	1.120686	0.274104	-0.091567
N155	N	1.028202	0.482830	-0.122519
H156	H	1.061170	0.400480	-0.159816
H157	H	0.957588	0.520144	-0.068449
N158	N	1.247518	0.305435	-0.699969
H159	H	1.223038	0.305379	-0.746245
H160	H	1.305873	0.305436	-0.746176
H161	H	0.433489	1.311252	-0.106869
H162	H	0.242066	1.005302	0.674461
H163	H	0.305836	1.699361	0.106779
N164	N	0.239073	0.980228	0.190665
H165	H	0.172516	1.000983	0.244032
H166	H	0.282481	0.921267	0.207821
N167	N	0.296550	1.482890	0.722309
H168	H	0.246653	1.560038	0.781571
H169	H	0.267407	1.440383	0.731226
H170	H	1.165050	1.112194	-0.480465
H171	H	1.037462	0.485727	-0.306066
H172	H	0.891782	1.485712	-0.106939
H173	H	0.433450	1.524946	0.106802
H174	H	1.037456	1.112155	-0.306052
H175	H	1.165131	0.524884	-0.694189
N176	N	0.442755	1.283011	0.522447
H177	H	0.471938	1.274001	0.564920
H178	H	0.389030	1.274096	0.564904
N179	N	1.247464	1.005406	-0.699961
H180	H	1.264392	1.051650	-0.676866
H181	H	1.305796	0.925641	-0.746217
H182	H	0.563144	1.448649	0.117751
H183	H	0.891779	1.311268	-0.106930
H184	H	0.907782	0.887555	0.556597
H185	H	1.165088	0.311295	-0.480483
H186	H	0.579163	1.112122	0.693989
N187	N	1.028190	0.727615	-0.522605
H188	H	1.061157	0.719847	-0.604960
H189	H	0.957577	0.770066	-0.485280
H190	H	0.305850	0.898475	0.480425
H191	H	0.290214	0.862572	-0.162361
N192	N	0.230598	0.815302	0.025821
H193	H	0.227950	0.806966	-0.040942
H194	H	0.298195	0.761661	0.001693
H195	H	0.244722	1.001132	-0.178421
H196	H	0.359401	1.002519	-0.178210
N197	N	0.556401	1.127667	0.522385
H198	H	0.501818	1.164968	0.604734
H199	H	0.552646	1.186856	0.485053
H200	H	0.405514	0.863969	-0.163015
N201	N	0.442737	0.882890	0.277690
H202	H	0.430491	0.936867	0.235155
H203	H	0.513338	0.823624	0.235238
N204	N	0.043375	1.185469	0.167751
H205	H	0.024013	1.132493	0.189811
H206	H	0.054745	1.207091	0.221839
N207	N	0.172492	1.179265	0.172090
H208	H	0.214930	1.123395	0.192147
H209	H	0.171041	1.249322	0.179350
N210	N	0.231198	1.203650	-0.009304
H211	H	0.170561	1.281737	0.026317
H212	H	0.279041	1.206983	-0.004925
N213	N	0.108506	1.198272	-0.018637
H214	H	0.119471	1.150873	-0.081872
H215	H	0.039512	1.264345	0.031103
H216	H	0.907802	0.887567	0.207695
N217	N	0.384079	1.645535	0.240143
H218	H	0.380236	1.608273	0.299398
H219	H	0.329555	1.727899	0.277372
H220	H	0.242047	1.679715	-0.000053
