data_functionalizedCrystal
_audit_creation_method	'MofGen! by Chris Wilmer'
_symmetry_space_group_name_H-M	'P1'
_symmetry_Int_Tables_number	1
_symmetry_cell_setting	triclinic
loop_
_symmetry_equiv_pos_as_xyz
  x,y,z
_cell_length_a	14.472310
_cell_length_b	19.288862
_cell_length_c	19.288865
_cell_angle_alpha	96.864237
_cell_angle_beta	90.006324
_cell_angle_gamma	89.970338
loop_
_atom_site_label
_atom_site_type_symbol
_atom_site_fract_x
_atom_site_fract_y
_atom_site_fract_z
O1	O	0.077208	-0.921359	0.086635
O2	O	0.327208	-0.671359	0.336635
O3	O	0.577208	-0.421359	0.586635
O4	O	0.827208	-0.171359	0.836635
O5	O	0.077133	-0.719098	0.098326
O6	O	0.327133	-0.469098	0.348326
O7	O	0.577133	-0.219098	0.598326
O8	O	0.827133	0.030902	0.848326
O9	O	0.077154	-0.826072	-0.008650
O10	O	0.327154	-0.576072	0.241350
O11	O	0.577154	-0.326072	0.491350
O12	O	0.827154	-0.076072	0.741350
O13	O	0.077187	-0.814384	0.193611
O14	O	0.327187	-0.564384	0.443611
O15	O	0.577187	-0.314384	0.693611
O16	O	0.827187	-0.064384	0.943611
O17	O	-0.076528	-0.826045	-0.008644
O18	O	0.173472	-0.576045	0.241356
O19	O	0.423472	-0.326045	0.491356
O20	O	0.673472	-0.076045	0.741356
O21	O	-0.076549	-0.719070	0.098332
O22	O	0.173451	-0.469070	0.348332
O23	O	0.423451	-0.219070	0.598332
O24	O	0.673451	0.030930	0.848332
O25	O	-0.076474	-0.921331	0.086641
O26	O	0.173526	-0.671331	0.336641
O27	O	0.423526	-0.421331	0.586641
O28	O	0.673526	-0.171331	0.836641
Cu29	Cu	-0.090544	-0.820198	0.092487
Cu30	Cu	0.159456	-0.570198	0.342487
Cu31	Cu	0.409456	-0.320198	0.592487
Cu32	Cu	0.659456	-0.070198	0.842487
Cu33	Cu	0.091203	-0.820231	0.092480
Cu34	Cu	0.341203	-0.570231	0.342480
Cu35	Cu	0.591203	-0.320231	0.592480
Cu36	Cu	0.841203	-0.070231	0.842480
O37	O	-0.076495	-0.814356	0.193617
O38	O	0.173505	-0.564356	0.443617
O39	O	0.423505	-0.314356	0.693617
O40	O	0.673505	-0.064356	0.943617
C41	C	0.000282	-0.693207	0.097953
C42	C	0.250282	-0.443207	0.347953
C43	C	0.500282	-0.193207	0.597953
C44	C	0.750282	0.056793	0.847953
C45	C	0.000253	-0.616104	0.096824
C46	C	0.250253	-0.366104	0.346824
C47	C	0.500253	-0.116104	0.596824
C48	C	0.750253	0.133896	0.846824
N49	N	-0.218375	-0.820180	0.092492
N50	N	0.031625	-0.570180	0.342492
N51	N	0.281625	-0.320180	0.592492
N52	N	0.531625	-0.070180	0.842492
C53	C	0.000310	-0.825683	-0.034523
C54	C	0.250310	-0.575683	0.215477
C55	C	0.500310	-0.325683	0.465477
C56	C	0.750310	-0.075683	0.715477
C57	C	0.000302	-0.824554	-0.111627
C58	C	0.250302	-0.574554	0.138373
C59	C	0.500302	-0.324554	0.388373
C60	C	0.750302	-0.074554	0.638373
C61	C	-0.592466	-0.820230	0.092477
C62	C	-0.342466	-0.570230	0.342477
C63	C	-0.092466	-0.320230	0.592477
C64	C	0.157534	-0.070230	0.842477
C65	C	-0.553312	-0.762799	0.149527
C66	C	-0.303312	-0.512799	0.399527
C67	C	-0.053312	-0.262799	0.649527
C68	C	0.196688	-0.012799	0.899527
C69	C	-0.446224	-0.762930	0.149734
C70	C	-0.196224	-0.512930	0.399734
C71	C	0.053776	-0.262930	0.649734
C72	C	0.303776	-0.012930	0.899734
C73	C	-0.406875	-0.820205	0.092484
C74	C	-0.156875	-0.570205	0.342484
C75	C	0.093125	-0.320205	0.592484
C76	C	0.343125	-0.070205	0.842484
C77	C	-0.445682	-0.892629	0.108086
C78	C	-0.195682	-0.642629	0.358086
C79	C	0.054318	-0.392629	0.608086
C80	C	0.304318	-0.142629	0.858086
C81	C	-0.552803	-0.892306	0.108492
C82	C	-0.302803	-0.642306	0.358492
C83	C	-0.052803	-0.392306	0.608492
C84	C	0.197197	-0.142306	0.858492
C85	C	-0.553014	-0.805883	0.019655
C86	C	-0.303014	-0.555883	0.269655
C87	C	-0.053014	-0.305883	0.519655
C88	C	0.196986	-0.055883	0.769655
C89	C	-0.445887	-0.804219	0.020146
C90	C	-0.195887	-0.554219	0.270146
C91	C	0.054113	-0.304219	0.520146
C92	C	0.304113	-0.054219	0.770146
C93	C	-0.301987	-0.820195	0.092487
C94	C	-0.051987	-0.570195	0.342487
C95	C	0.198013	-0.320195	0.592487
C96	C	0.448013	-0.070195	0.842487
C97	C	-0.697354	-0.820244	0.092476
C98	C	-0.447354	-0.570244	0.342476
C99	C	-0.197354	-0.320244	0.592476
C100	C	0.052646	-0.070244	0.842476
N101	N	0.219034	-0.820254	0.092469
N102	N	0.469034	-0.570254	0.342469
N103	N	0.719034	-0.320254	0.592469
N104	N	0.969034	-0.070254	0.842469
C105	C	0.000275	-0.571407	0.159593
C106	C	0.250275	-0.321407	0.409593
C107	C	0.500275	-0.071407	0.659593
C108	C	0.750275	0.178593	0.909593
C109	C	0.000280	-0.498960	0.158533
C110	C	0.250280	-0.248960	0.408533
C111	C	0.500280	0.001040	0.658533
C112	C	0.750280	0.251040	0.908533
C113	C	0.000282	-0.471213	0.094701
C114	C	0.250282	-0.221213	0.344701
C115	C	0.500282	0.028787	0.594701
C116	C	0.750282	0.278787	0.844701
C117	C	0.000255	-0.515919	0.031924
C118	C	0.250255	-0.265919	0.281924
C119	C	0.500255	-0.015919	0.531924
C120	C	0.750255	0.234081	0.781924
C121	C	0.000240	-0.588364	0.032986
C122	C	0.250240	-0.338364	0.282986
C123	C	0.500240	-0.088364	0.532986
C124	C	0.750240	0.161636	0.782986
C125	C	0.054139	-0.362960	0.044520
C126	C	0.304139	-0.112960	0.294520
C127	C	0.554139	0.137040	0.544520
C128	C	0.804139	0.387040	0.794520
C129	C	0.054160	-0.290516	0.043461
C130	C	0.304160	-0.040516	0.293461
C131	C	0.554160	0.209484	0.543461
C132	C	0.804160	0.459484	0.793461
C133	C	0.000323	-0.247767	0.091423
C134	C	0.250323	0.002233	0.341423
C135	C	0.500323	0.252233	0.591423
C136	C	0.750323	0.502233	0.841423
C137	C	-0.053523	-0.277470	0.140456
C138	C	0.196477	-0.027470	0.390456
C139	C	0.446477	0.222530	0.640456
C140	C	0.696477	0.472530	0.890456
C141	C	-0.053537	-0.349916	0.141518
C142	C	0.196463	-0.099916	0.391518
C143	C	0.446463	0.150084	0.641518
C144	C	0.696463	0.400084	0.891518
C145	C	0.000297	-0.392659	0.093542
C146	C	0.250297	-0.142659	0.343542
C147	C	0.500297	0.107341	0.593542
C148	C	0.750297	0.357341	0.843542
C149	C	0.000349	-0.124514	0.153046
C150	C	0.250349	0.125486	0.403046
C151	C	0.500349	0.375486	0.653046
C152	C	0.750349	0.625486	0.903046
C153	C	0.000349	-0.052066	0.151983
C154	C	0.250349	0.197934	0.401983
C155	C	0.500349	0.447934	0.651983
C156	C	0.750349	0.697934	0.901983
C157	C	0.000333	-0.069027	0.025373
C158	C	0.250333	0.180973	0.275373
C159	C	0.500333	0.430973	0.525373
C160	C	0.750333	0.680973	0.775373
C161	C	0.000324	-0.141473	0.026438
C162	C	0.250324	0.108527	0.276438
C163	C	0.500324	0.358527	0.526438
C164	C	0.750324	0.608527	0.776438
C165	C	0.000336	-0.169212	0.090276
C166	C	0.250336	0.080788	0.340276
C167	C	0.500336	0.330788	0.590276
C168	C	0.750336	0.580788	0.840276
C169	C	0.000362	0.052779	0.087016
C170	C	0.250362	0.302779	0.337016
C171	C	0.500362	0.552779	0.587016
C172	C	0.750362	0.802779	0.837016
C173	C	0.000349	-0.024324	0.088151
C174	C	0.250349	0.225676	0.338151
C175	C	0.500349	0.475676	0.588151
C176	C	0.750349	0.725676	0.838151
C177	C	0.000321	-0.887322	-0.156324
C178	C	0.250321	-0.637322	0.093676
C179	C	0.500321	-0.387322	0.343676
C180	C	0.750321	-0.137322	0.593676
C181	C	0.000335	-0.886261	-0.228771
C182	C	0.250335	-0.636261	0.021229
C183	C	0.500335	-0.386261	0.271229
C184	C	0.750335	-0.136261	0.521229
C185	C	0.000312	-0.822429	-0.256518
C186	C	0.250312	-0.572429	-0.006518
C187	C	0.500312	-0.322429	0.243482
C188	C	0.750312	-0.072429	0.493482
C189	C	0.000298	-0.759652	-0.211811
C190	C	0.250298	-0.509652	0.038189
C191	C	0.500298	-0.259652	0.288189
C192	C	0.750298	-0.009652	0.538189
C193	C	0.000293	-0.760715	-0.139366
C194	C	0.250293	-0.510715	0.110634
C195	C	0.500293	-0.260715	0.360634
C196	C	0.750293	-0.010715	0.610634
C197	C	-0.053538	-0.772239	-0.364803
C198	C	0.196462	-0.522239	-0.114803
C199	C	0.446462	-0.272239	0.135197
C200	C	0.696462	-0.022239	0.385197
C201	C	-0.053539	-0.771180	-0.437247
C202	C	0.196461	-0.521180	-0.187247
C203	C	0.446461	-0.271180	0.062753
C204	C	0.696461	-0.021180	0.312753
C205	C	0.000331	-0.819149	-0.479963
C206	C	0.250331	-0.569149	-0.229963
C207	C	0.500331	-0.319149	0.020037
C208	C	0.750331	-0.069149	0.270037
C209	C	0.054190	-0.868190	-0.450228
C210	C	0.304190	-0.618190	-0.200228
C211	C	0.554190	-0.368190	0.049772
C212	C	0.804190	-0.118190	0.299772
C213	C	0.054185	-0.869253	-0.377782
C214	C	0.304185	-0.619253	-0.127782
C215	C	0.554185	-0.369253	0.122218
C216	C	0.804185	-0.119253	0.372218
C217	C	0.000318	-0.821270	-0.335072
C218	C	0.250318	-0.571270	-0.085072
C219	C	0.500318	-0.321270	0.164928
C220	C	0.750318	-0.071270	0.414928
C221	C	0.000367	-0.880771	-0.603216
C222	C	0.250367	-0.630771	-0.353216
C223	C	0.500367	-0.380771	-0.103216
C224	C	0.750367	-0.130771	0.146784
C225	C	0.000387	-0.879708	-0.675664
C226	C	0.250387	-0.629708	-0.425664
C227	C	0.500387	-0.379708	-0.175664
C228	C	0.750387	-0.129708	0.074336
C229	C	0.000341	-0.753098	-0.658703
C230	C	0.250341	-0.503098	-0.408703
C231	C	0.500341	-0.253098	-0.158703
C232	C	0.750341	-0.003098	0.091297
C233	C	0.000330	-0.754163	-0.586257
C234	C	0.250330	-0.504163	-0.336257
C235	C	0.500330	-0.254163	-0.086257
C236	C	0.750330	-0.004163	0.163743
C237	C	0.000339	-0.818001	-0.558518
C238	C	0.250339	-0.568001	-0.308518
C239	C	0.500339	-0.318001	-0.058518
C240	C	0.750339	-0.068001	0.191482
C241	C	0.000350	-0.814746	0.219490
C242	C	0.250350	-0.564746	0.469490
C243	C	0.500350	-0.314746	0.719490
C244	C	0.750350	-0.064746	0.969490
C245	C	0.000365	-0.815875	0.296594
C246	C	0.250365	-0.565875	0.546594
C247	C	0.500365	-0.315875	0.796594
C248	C	0.750365	-0.065875	1.046594
H249	H	-0.419990	-0.709088	0.140471
H250	H	-0.169990	-0.459088	0.390471
H251	H	0.080010	-0.209088	0.640471
H252	H	0.330010	0.040912	0.890471
H253	H	0.000286	-0.593988	0.211575
H254	H	0.250286	-0.343988	0.461575
H255	H	0.500286	-0.093988	0.711575
H256	H	0.750286	0.156012	0.961575
Br257	Br	-0.403623	-0.715423	0.000399
Br258	Br	-0.153623	-0.465423	0.250399
Br259	Br	0.096377	-0.215423	0.500399
Br260	Br	0.346377	0.034577	0.750399
H261	H	0.000331	-0.939304	-0.133744
H262	H	0.250331	-0.689304	0.116256
H263	H	0.500331	-0.439304	0.366256
H264	H	0.750331	-0.189304	0.616256
Br265	Br	0.000422	-0.964901	-0.736327
Br266	Br	0.250422	-0.714901	-0.486327
Br267	Br	0.500422	-0.464901	-0.236327
Br268	Br	0.750422	-0.214901	0.013673
H269	H	-0.419106	-0.843350	-0.024280
H270	H	-0.169106	-0.593350	0.225720
H271	H	0.080894	-0.343350	0.475720
H272	H	0.330894	-0.093350	0.725720
H273	H	-0.579122	-0.708782	0.140420
H274	H	-0.329122	-0.458782	0.390420
H275	H	-0.079122	-0.208782	0.640420
H276	H	0.170878	0.041218	0.890420
H277	H	-0.097383	-0.374097	0.181440
H278	H	0.152617	-0.124097	0.431440
H279	H	0.402617	0.125903	0.681440
H280	H	0.652617	0.375903	0.931440
Br281	Br	-0.403202	-0.965549	0.040656
Br282	Br	-0.153202	-0.715549	0.290656
Br283	Br	0.096798	-0.465549	0.540656
Br284	Br	0.346798	-0.215549	0.790656
Br285	Br	-0.400929	-0.914278	0.195581
Br286	Br	-0.150929	-0.664278	0.445581
Br287	Br	0.099071	-0.414278	0.695581
Br288	Br	0.349071	-0.164278	0.945581
Br289	Br	-0.595210	-0.875692	-0.051102
Br290	Br	-0.345210	-0.625692	0.198898
Br291	Br	-0.095210	-0.375692	0.448898
Br292	Br	0.154790	-0.125692	0.698898
H293	H	0.000311	-0.177866	-0.024675
H294	H	0.250311	0.072134	0.225325
H295	H	0.500311	0.322134	0.475325
H296	H	0.750311	0.572134	0.725325
Br297	Br	0.000319	-0.666466	-0.696351
Br298	Br	0.250319	-0.416466	-0.446351
Br299	Br	0.500319	-0.166466	-0.196351
Br300	Br	0.750319	0.083534	0.053649
H301	H	0.000310	-0.703050	-0.549863
H302	H	0.250310	-0.453050	-0.299863
H303	H	0.500310	-0.203050	-0.049863
H304	H	0.750310	0.046950	0.200137
H305	H	-0.577764	-0.904983	0.161594
H306	H	-0.327764	-0.654983	0.411594
H307	H	-0.077764	-0.404983	0.661594
H308	H	0.172236	-0.154983	0.911594
H309	H	-0.580104	-0.754230	0.004596
H310	H	-0.330104	-0.504230	0.254596
H311	H	-0.080104	-0.254230	0.504596
H312	H	0.169896	-0.004230	0.754596
H313	H	0.000295	-0.462562	0.209648
H314	H	0.250295	-0.212562	0.459648
H315	H	0.500295	0.037438	0.709648
H316	H	0.750295	0.287438	0.959648
H317	H	-0.097362	-0.242665	0.179511
H318	H	0.152638	0.007335	0.429511
H319	H	0.402638	0.257335	0.679511
H320	H	0.652638	0.507335	0.929511
Br321	Br	0.000364	-0.971452	-0.289443
Br322	Br	0.250364	-0.721452	-0.039443
Br323	Br	0.500364	-0.471452	0.210557
Br324	Br	0.750364	-0.221452	0.460557
Br325	Br	0.000359	-0.162165	0.239681
Br326	Br	0.250359	0.087835	0.489681
Br327	Br	0.500359	0.337835	0.739681
Br328	Br	0.750359	0.587835	0.989681
H329	H	0.000361	-0.015674	0.203099
H330	H	0.250361	0.234326	0.453099
H331	H	0.500361	0.484326	0.703099
H332	H	0.750361	0.734326	0.953099
H333	H	-0.097389	-0.731244	-0.461451
H334	H	0.152611	-0.481244	-0.211451
H335	H	0.402611	-0.231244	0.038549
H336	H	0.652611	0.018756	0.288549
H337	H	0.000223	-0.624757	-0.018129
H338	H	0.250223	-0.374757	0.231871
H339	H	0.500223	-0.124757	0.481871
H340	H	0.750223	0.125243	0.731871
H341	H	0.000392	-0.046435	-0.026600
H342	H	0.250392	0.203565	0.223400
H343	H	0.500392	0.453565	0.473400
H344	H	0.750392	0.703565	0.723400
Br345	Br	0.127247	-0.250210	-0.023074
Br346	Br	0.377247	-0.000210	0.226926
Br347	Br	0.627247	0.249790	0.476926
Br348	Br	0.877247	0.499790	0.726926
H349	H	0.000378	-0.932752	-0.580630
H350	H	0.250378	-0.682752	-0.330630
H351	H	0.500378	-0.432752	-0.080630
H352	H	0.750378	-0.182752	0.169370
H353	H	-0.580208	-0.771809	0.203268
H354	H	-0.330208	-0.521809	0.453268
H355	H	-0.080208	-0.271809	0.703268
H356	H	0.169792	-0.021809	0.953268
H357	H	0.000281	-0.707680	-0.234407
H358	H	0.250281	-0.457680	0.015593
H359	H	0.500281	-0.207680	0.265593
H360	H	0.750281	0.042320	0.515593
H361	H	0.097985	-0.397761	0.005462
H362	H	0.347985	-0.147761	0.255462
H363	H	0.597985	0.102239	0.505462
H364	H	0.847985	0.352239	0.755462
H365	H	0.000269	-0.493322	-0.020048
H366	H	0.250269	-0.243322	0.229952
H367	H	0.500269	0.006678	0.479952
H368	H	0.750269	0.256678	0.729952
H369	H	-0.097411	-0.733175	-0.330028
H370	H	0.152589	-0.483175	-0.080028
H371	H	0.402589	-0.233175	0.169972
H372	H	0.652589	0.016825	0.419972
H373	H	-0.420576	-0.772068	0.203779
H374	H	-0.170576	-0.522068	0.453779
H375	H	0.079424	-0.272068	0.703779
H376	H	0.329424	-0.022068	0.953779
H377	H	0.098041	-0.909182	-0.353575
H378	H	0.348041	-0.659182	-0.103575
H379	H	0.598041	-0.409182	0.146425
H380	H	0.848041	-0.159182	0.396425
H381	H	0.098057	-0.907251	-0.485006
H382	H	0.348057	-0.657251	-0.235006
H383	H	0.598057	-0.407251	0.014994
H384	H	0.848057	-0.157251	0.264994
Br385	Br	-0.595972	-0.965584	0.041774
Br386	Br	-0.345972	-0.715584	0.291774
Br387	Br	-0.095972	-0.465584	0.541774
Br388	Br	0.154028	-0.215584	0.791774
Br389	Br	0.000270	-0.675523	-0.078701
Br390	Br	0.250270	-0.425523	0.171299
Br391	Br	0.500270	-0.175523	0.421299
Br392	Br	0.750270	0.074477	0.671299
