data_functionalizedCrystal
_audit_creation_method	'MofGen! by Chris Wilmer'
_symmetry_space_group_name_H-M	'P1'
_symmetry_Int_Tables_number	1
_symmetry_cell_setting	triclinic
loop_
_symmetry_equiv_pos_as_xyz
  x,y,z
_cell_length_a	16.120530
_cell_length_b	18.215404
_cell_length_c	18.215399
_cell_angle_alpha	90.029924
_cell_angle_beta	87.086235
_cell_angle_gamma	92.880662
loop_
_atom_site_label
_atom_site_type_symbol
_atom_site_fract_x
_atom_site_fract_y
_atom_site_fract_z
Zn1	Zn	1.274516	0.350098	-0.473094
Zn2	Zn	1.274422	0.473170	-0.350025
Zn3	Zn	1.135107	0.343878	-0.343810
Zn4	Zn	1.135063	0.466877	-0.466820
O5	O	1.204777	0.408506	-0.408437
O6	O	1.391169	0.371661	-0.461996
O7	O	1.255920	0.456050	-0.246215
O8	O	1.153657	0.241721	-0.360984
O9	O	1.391100	0.462081	-0.371577
O10	O	1.256080	0.246291	-0.455969
O11	O	1.153566	0.361059	-0.241649
O12	O	1.018435	0.354957	-0.354900
O13	O	1.153583	0.451355	-0.570637
O14	O	1.018404	0.445324	-0.445275
O15	O	1.256038	0.365558	-0.575247
O16	O	1.255878	0.575317	-0.365493
O17	O	1.153492	0.570694	-0.451302
C18	C	0.988169	0.398783	-0.398733
C19	C	0.895504	0.394642	-0.394599
C20	C	1.204693	0.599708	-0.408408
C21	C	1.204733	0.681509	-0.408424
C22	C	1.204816	0.408449	-0.600392
C23	C	1.204833	0.408424	-0.682192
C24	C	0.725843	0.387063	-0.387057
C25	C	0.684552	0.430003	-0.429871
C26	C	0.590146	0.425786	-0.425675
C27	C	0.820257	0.391279	-0.391252
C28	C	1.422230	0.418267	-0.418180
C29	C	1.514896	0.422426	-0.422332
C30	C	1.258175	0.872092	-0.363845
C31	C	1.258214	0.948952	-0.363869
C32	C	1.151507	0.944173	-0.453140
C33	C	1.151473	0.867315	-0.453120
C34	C	1.204805	0.831276	-0.408468
C35	C	1.204878	0.984995	-0.408512
C36	C	1.204920	1.068330	-0.408538
C37	C	1.204765	0.747935	-0.408443
C38	C	1.204889	1.216558	-0.408497
C39	C	1.204951	1.134762	-0.408557
C40	C	1.151582	0.358933	-0.868011
C41	C	1.151597	0.358919	-0.944870
C42	C	1.258184	0.457832	-0.949615
C43	C	1.258164	0.457850	-0.872756
C44	C	1.204865	0.408396	-0.831957
C45	C	1.204899	0.408364	-0.985674
C46	C	1.204915	0.408349	-1.069009
C47	C	1.204847	0.408412	-0.748617
C48	C	1.204786	0.408512	-0.217231
C49	C	1.204930	0.408336	-0.135439
H50	H	0.720102	0.469930	-0.469677
O51	O	1.315674	0.511169	-0.993617
H52	H	1.358124	0.480127	-1.030537
H53	H	1.108182	0.318665	-0.834794
H54	H	0.690295	0.347139	-0.347254
O55	O	1.315705	0.833218	-0.315697
H56	H	1.352829	0.874516	-0.284679
O57	O	1.093906	0.823289	-0.501255
H58	H	1.102851	0.763790	-0.493745
H59	H	1.301674	0.982181	-0.327534
H60	H	1.108084	0.973526	-0.489493
O61	O	1.094134	0.305565	-0.983761
H62	H	1.057077	0.271178	-0.942475
H63	H	1.301556	0.498131	-0.843401
