data_functionalizedCrystal
_audit_creation_method	'MofGen! by Chris Wilmer'
_symmetry_space_group_name_H-M	'P1'
_symmetry_Int_Tables_number	1
_symmetry_cell_setting	triclinic
loop_
_symmetry_equiv_pos_as_xyz
  x,y,z
_cell_length_a	6.817900
_cell_length_b	19.551786
_cell_length_c	17.110486
_cell_angle_alpha	96.697454
_cell_angle_beta	99.060439
_cell_angle_gamma	101.662645
loop_
_atom_site_label
_atom_site_type_symbol
_atom_site_fract_x
_atom_site_fract_y
_atom_site_fract_z
V1	V	-3.967870	-0.096466	-0.247087
O2	O	-3.965827	0.004850	-0.242005
O3	O	-3.910824	-0.191482	-0.245760
O4	O	-3.897876	-0.094888	-0.354684
O5	O	-3.978865	-0.092413	-0.132328
V6	V	-4.455417	-0.084359	-0.233316
O7	O	-4.220303	-0.123025	-0.277293
O8	O	-4.653182	-0.057800	-0.203110
O9	O	-4.289257	0.010657	-0.234643
O10	O	-4.574857	-0.185674	-0.238398
O11	O	-4.561819	-0.088412	-0.348076
O12	O	-4.302205	-0.085936	-0.125719
C13	C	-3.754420	-0.214648	-0.241956
C14	C	-3.788921	-0.292324	-0.241589
C15	C	-3.737903	-0.091432	-0.380898
C16	C	-3.761901	-0.090771	-0.468862
C17	C	-4.014747	-0.842143	-0.166531
C18	C	-3.982313	-0.769157	-0.166868
C19	C	-3.988913	-0.742537	-0.239496
C20	C	-4.027900	-0.788909	-0.311791
C21	C	-4.060313	-0.861893	-0.311452
C22	C	-4.071506	-0.636825	-0.298574
C23	C	-4.039105	-0.563842	-0.298911
C24	C	-3.888933	-0.517429	-0.240546
C25	C	-3.771187	-0.544007	-0.181832
C26	C	-3.803600	-0.616992	-0.181493
C27	C	-3.953768	-0.663399	-0.239872
C28	C	-3.814768	-0.391926	-0.168621
C29	C	-3.782322	-0.318939	-0.168960
C30	C	-3.827931	-0.338693	-0.313886
C31	C	-3.860355	-0.411678	-0.313544
C32	C	-3.853781	-0.438290	-0.240909
C33	C	-3.954145	-0.093947	-0.514232
C34	C	-3.976681	-0.093325	-0.596882
C35	C	-3.806974	-0.089532	-0.634163
C36	C	-3.614714	-0.086353	-0.588786
C37	C	-3.592177	-0.086970	-0.506136
C38	C	-3.865964	-0.087491	-0.883510
C39	C	-3.888518	-0.086876	-0.966167
C40	C	-4.250484	-0.093847	-0.974257
C41	C	-4.227932	-0.094468	-0.891605
C42	C	-4.035673	-0.091285	-0.846236
C43	C	-3.830007	-0.088899	-0.718646
C44	C	-4.012640	-0.091914	-0.761753
C45	C	-4.109003	0.033819	-0.238445
C46	C	-4.053739	0.111495	-0.238817
C47	C	-4.125521	-0.089395	-0.099501
C48	C	-4.080762	-0.090053	-0.011537
H49	H	-4.009386	-0.863805	-0.107386
H50	H	-3.750561	-0.281190	-0.110094
Br51	Br	-4.275259	-0.699809	-0.377813
Br52	Br	-3.599704	-0.083760	-0.769249
H53	H	-4.092063	-0.899642	-0.370318
Br54	Br	-4.242947	-0.097059	-0.711157
H55	H	-3.833295	-0.317020	-0.373021
H56	H	-4.133221	-0.095908	-0.633819
Br57	Br	-3.658185	-0.081730	-1.016762
Br58	Br	-3.331260	-0.082649	-0.444559
Br59	Br	-3.643811	-0.653061	-0.101814
Br60	Br	-3.929384	-0.706224	-0.068759
H61	H	-4.033268	-0.767230	-0.370926
H62	H	-3.648904	-0.506219	-0.134306
Br63	Br	-3.805827	-0.428047	-0.070047
Br64	Br	-3.384392	-0.081203	-0.639380
H65	H	-3.892118	-0.449428	-0.372408
Br66	Br	-4.184481	-0.099103	-0.463647
H67	H	-4.134986	-0.542208	-0.346718
Br68	Br	-4.458264	-0.099622	-0.841017
H69	H	-4.407014	-0.096437	-1.011205
H70	H	-3.709431	-0.084924	-0.846584
