data_functionalizedCrystal
_audit_creation_method	'MofGen! by Chris Wilmer'
_symmetry_space_group_name_H-M	'P1'
_symmetry_Int_Tables_number	1
_symmetry_cell_setting	triclinic
loop_
_symmetry_equiv_pos_as_xyz
  x,y,z
_cell_length_a	16.120530
_cell_length_b	16.120444
_cell_length_c	12.759393
_cell_angle_alpha	87.136376
_cell_angle_beta	92.919000
_cell_angle_gamma	90.168401
loop_
_atom_site_label
_atom_site_type_symbol
_atom_site_fract_x
_atom_site_fract_y
_atom_site_fract_z
Zn1	Zn	1.254488	-0.395548	0.699372
Zn2	Zn	1.247323	-0.534623	0.532106
Zn3	Zn	1.115422	-0.388531	0.514378
Zn4	Zn	1.108338	-0.527502	0.698413
O5	O	1.181393	-0.461551	0.611067
O6	O	1.369903	-0.419914	0.685005
O7	O	1.229793	-0.515287	0.382734
O8	O	1.139832	-0.273099	0.531900
O9	O	1.364639	-0.522091	0.562115
O10	O	1.242003	-0.278254	0.667814
O11	O	1.132885	-0.407954	0.369709
O12	O	0.998116	-0.401049	0.530970
O13	O	1.127758	-0.509955	0.845560
O14	O	0.992912	-0.503150	0.666179
O15	O	1.235134	-0.413009	0.846265
O16	O	1.222923	-0.650041	0.561185
O17	O	1.120811	-0.644809	0.683370
C18	C	0.965342	-0.450566	0.596547
C19	C	0.872913	-0.445887	0.590362
C20	C	1.170344	-0.677598	0.624121
C21	C	1.165693	-0.770028	0.629746
C22	C	1.205722	-0.983005	0.582127
C23	C	1.157217	-0.939253	0.640028
C24	C	1.161935	-0.845088	0.634306
C25	C	1.201006	-1.077180	0.587849
C26	C	0.703686	-0.437324	0.579076
C27	C	0.659937	-0.485839	0.643138
C28	C	0.565773	-0.481075	0.636859
C29	C	0.797858	-0.442087	0.585354
C30	C	1.398287	-0.472579	0.625645
C31	C	1.490715	-0.477279	0.631856
C32	C	1.181455	-0.461470	0.885100
C33	C	1.181482	-0.461436	1.001876
C34	C	1.192507	-0.244662	0.597986
C35	C	1.197244	-0.152236	0.592412
C36	C	1.181381	-0.461574	0.338101
C37	C	1.181528	-0.461382	0.221322
C38	C	1.237400	-0.410951	1.057107
C39	C	1.237421	-0.410922	1.166830
C40	C	1.125603	-0.511869	1.166083
C41	C	1.125579	-0.511893	1.056361
C42	C	1.301960	-0.352673	1.057539
C43	C	1.301981	-0.352644	1.167263
H44	H	1.112148	-0.972517	0.693896
N45	N	1.068509	-0.563418	1.221735
N46	N	1.070079	-0.640431	1.214473
H47	H	1.029752	-0.676838	1.253774
H48	H	0.670423	-0.392215	0.519519
H49	H	0.693201	-0.530951	0.702701
H50	H	1.250787	-0.949745	0.528262
N51	N	1.068443	-0.563454	0.999958
N52	N	1.018536	-0.608497	1.048620
H53	H	0.978179	-0.644914	1.008787
N54	N	1.377211	-0.385533	1.021753
N55	N	1.433585	-0.410119	1.086707
H56	H	1.486731	-0.433329	1.061434
N57	N	1.276879	-0.274459	1.203412
N58	N	1.273693	-0.264690	1.299694
H59	H	1.255916	-0.209490	1.325226
H60	H	1.288009	-0.287400	1.022728
H61	H	1.365507	-0.373162	1.202409
