data_functionalizedCrystal
_audit_creation_method	'MofGen! by Chris Wilmer'
_symmetry_space_group_name_H-M	'P1'
_symmetry_Int_Tables_number	1
_symmetry_cell_setting	triclinic
loop_
_symmetry_equiv_pos_as_xyz
  x,y,z
_cell_length_a	16.959455
_cell_length_b	16.959454
_cell_length_c	16.959447
_cell_angle_alpha	89.978370
_cell_angle_beta	89.987476
_cell_angle_gamma	90.004825
loop_
_atom_site_label
_atom_site_type_symbol
_atom_site_fract_x
_atom_site_fract_y
_atom_site_fract_z
Zn1	Zn	1.208472	-0.314647	-0.446919
Zn2	Zn	1.208432	-0.446840	-0.314760
Zn3	Zn	1.076301	-0.314681	-0.314760
Zn4	Zn	1.076303	-0.446790	-0.446903
O5	O	1.142377	-0.380739	-0.380835
O6	O	1.319078	-0.332190	-0.429394
O7	O	1.190887	-0.429344	-0.204149
O8	O	1.093850	-0.204066	-0.332298
O9	O	1.319048	-0.429311	-0.332298
O10	O	1.190956	-0.204041	-0.429394
O11	O	1.093811	-0.332247	-0.204149
O12	O	0.965690	-0.332199	-0.332283
O13	O	1.093853	-0.429226	-0.557516
O14	O	0.965692	-0.429258	-0.429367
O15	O	1.190957	-0.332141	-0.557527
O16	O	1.190889	-0.557444	-0.332282
O17	O	1.093814	-0.557407	-0.429367
C18	C	0.937011	-0.380727	-0.380824
C19	C	0.849154	-0.380741	-0.380837
C20	C	1.142369	-0.586106	-0.380840
C21	C	1.142437	-0.673962	-0.380869
C22	C	1.142410	-0.380674	-0.587004
C23	C	1.142424	-0.380646	-0.674860
C24	C	1.348545	-0.380752	-0.380848
C25	C	1.436402	-0.380757	-0.380853
C26	C	1.807864	-0.431310	-0.330285
C27	C	1.807890	-0.330176	-0.431392
C28	C	1.725344	-0.330180	-0.431397
C29	C	1.684055	-0.380748	-0.380844
C30	C	1.725311	-0.431313	-0.330287
C31	C	1.684082	-0.279610	-0.481948
C32	C	1.601531	-0.279611	-0.481954
C33	C	1.560240	-0.330183	-0.431405
C34	C	1.601501	-0.380751	-0.380846
C35	C	1.560211	-0.431319	-0.330293
C36	C	1.601471	-0.481891	-0.279738
C37	C	1.684020	-0.481886	-0.279737
C38	C	1.477692	-0.330189	-0.431405
C39	C	1.477658	-0.431322	-0.330295
C40	C	1.142407	-0.174571	-0.380848
C41	C	1.142420	-0.086715	-0.380853
C42	C	1.192978	0.284748	-0.330319
C43	C	1.091893	0.284774	-0.431414
C44	C	1.091890	0.202228	-0.431413
C45	C	1.142430	0.160938	-0.380863
C46	C	1.192975	0.202195	-0.330315
C47	C	1.041341	0.160965	-0.481955
C48	C	1.041335	0.078414	-0.481955
C49	C	1.091880	0.037123	-0.431409
C50	C	1.142427	0.078385	-0.380859
C51	C	1.192967	0.037095	-0.330309
C52	C	1.243519	0.078355	-0.279762
C53	C	1.243520	0.160904	-0.279768
C54	C	1.091879	-0.045425	-0.431403
C55	C	1.192964	-0.045458	-0.330305
C56	C	1.091960	-0.431110	-1.046333
C57	C	1.193076	-0.330015	-1.046340
C58	C	1.193055	-0.330032	-0.963794
C59	C	1.142487	-0.380589	-0.922513
C60	C	1.091939	-0.431130	-0.963779
C61	C	1.243607	-0.279498	-0.922522
C62	C	1.243589	-0.279513	-0.839971
C63	C	1.193016	-0.330067	-0.798689
C64	C	1.142466	-0.380609	-0.839960
C65	C	1.091898	-0.431167	-0.798679
C66	C	1.041343	-0.481705	-0.839949
C67	C	1.041367	-0.481684	-0.922497
C68	C	1.192992	-0.330089	-0.716141
C69	C	1.091877	-0.431187	-0.716126
C70	C	1.142390	-0.380748	-0.175469
C71	C	1.142529	-0.380553	-0.087613
H72	H	1.444046	-0.472505	-0.289132
H73	H	1.284753	-0.238361	-0.806377
C74	C	1.728767	-0.224631	-0.536867
C75	C	1.674969	-0.180331	-0.581128
C76	C	1.716107	-0.129671	-0.631726
H77	H	1.760973	-0.254775	-0.571373
H78	H	1.760954	-0.190158	-0.506654
H79	H	1.642796	-0.214800	-0.611338
H80	H	1.642761	-0.150171	-0.546643
H81	H	1.748294	-0.095198	-0.601513
H82	H	1.748312	-0.159822	-0.666226
H83	H	1.679612	-0.099603	-0.661757
C84	C	1.298497	0.033485	-0.225017
C85	C	1.349169	-0.013874	-0.269783
C86	C	1.399834	-0.055212	-0.219383
H87	H	1.268351	0.001206	-0.190553
H88	H	1.328651	0.069855	-0.194933
H89	H	1.319018	-0.050240	-0.299854
H90	H	1.379333	0.018385	-0.304245
H91	H	1.429989	-0.018842	-0.189299
H92	H	1.369682	-0.087488	-0.184922
H93	H	1.434226	-0.087345	-0.249750
H94	H	1.284676	0.194503	-0.238614
H95	H	1.234155	-0.288943	-0.682543
C96	C	1.247727	-0.090401	-0.275403
C97	C	1.202985	-0.137841	-0.224744
C98	C	1.253412	-0.179268	-0.174179
H99	H	1.277864	-0.054108	-0.245227
H100	H	1.282141	-0.122629	-0.305647
H101	H	1.168584	-0.105616	-0.194502
H102	H	1.172849	-0.174149	-0.254897
H103	H	1.287826	-0.211496	-0.204423
H104	H	1.283547	-0.142969	-0.144008
H105	H	1.223063	-0.211467	-0.139805
C106	C	1.728777	-0.536916	-0.224948
C107	C	1.708721	-0.615121	-0.242169
C108	C	1.749948	-0.665834	-0.191721
H109	H	1.715272	-0.525472	-0.171812
H110	H	1.783860	-0.529720	-0.232195
H111	H	1.653650	-0.622313	-0.234915
H112	H	1.722228	-0.626589	-0.295297
H113	H	1.805031	-0.658638	-0.198968
H114	H	1.736439	-0.654383	-0.138587
H115	H	1.736351	-0.718902	-0.203403
H116	H	1.841462	-0.472486	-0.289126
C117	C	1.432753	-0.275318	-0.486201
C118	C	1.351623	-0.286131	-0.475372
C119	C	1.310201	-0.235588	-0.525832
H120	H	1.446200	-0.286813	-0.539341
H121	H	1.446234	-0.222196	-0.474622
H122	H	1.338147	-0.339241	-0.486956
H123	H	1.338152	-0.274631	-0.422242
H124	H	1.323682	-0.182466	-0.514253
H125	H	1.323655	-0.247088	-0.578969
H126	H	1.255151	-0.242913	-0.518487
C127	C	1.247773	0.329682	-0.275471
C128	C	1.236952	0.410813	-0.286278
C129	C	1.287409	0.452230	-0.235758
H130	H	1.300915	0.316250	-0.286991
H131	H	1.236187	0.316182	-0.222344
H132	H	1.248544	0.424307	-0.339393
H133	H	1.183822	0.424267	-0.274752
H134	H	1.275822	0.438730	-0.182631
H135	H	1.340547	0.438792	-0.247282
H136	H	1.280068	0.507281	-0.243078
C137	C	1.036894	0.329553	-0.486203
C138	C	0.958681	0.309479	-0.468984
C139	C	0.907995	0.350723	-0.519439
H140	H	1.048374	0.316074	-0.539338
H141	H	1.044079	0.384634	-0.478963
H142	H	0.951500	0.254411	-0.476230
H143	H	0.947177	0.322961	-0.415858
H144	H	0.915179	0.405804	-0.512199
H145	H	0.919481	0.337241	-0.572571
H146	H	0.854921	0.337114	-0.507758
H147	H	1.567842	-0.523061	-0.238575
C148	C	0.986319	-0.536560	-0.795231
C149	C	0.908116	-0.519361	-0.815319
C150	C	0.857413	-0.569887	-0.774148
H151	H	0.993444	-0.529390	-0.740146
H152	H	0.997841	-0.589677	-0.808777
H153	H	0.896599	-0.466257	-0.801768
H154	H	0.900967	-0.526536	-0.870397
H155	H	0.868934	-0.623003	-0.787694
H156	H	0.864544	-0.562713	-0.719065
H157	H	0.804347	-0.558229	-0.787777
H158	H	1.000188	0.194586	-0.523107
C159	C	0.986428	0.033764	-0.536923
C160	C	0.942182	0.087594	-0.581205
C161	C	0.891604	0.046490	-0.631859
H162	H	0.951912	0.001544	-0.506774
H163	H	1.016654	0.001595	-0.571407
H164	H	0.911958	0.119749	-0.546726
H165	H	0.976677	0.119816	-0.611370
H166	H	0.921830	0.014321	-0.666343
H167	H	0.857093	0.014271	-0.601704
H168	H	0.861582	0.083007	-0.661916
H169	H	1.000210	-0.522832	-0.956106
H170	H	1.050724	-0.079015	-0.472560
H171	H	1.841513	-0.289002	-0.472546
H172	H	1.050690	-0.472350	-0.682521
C173	C	1.036944	-0.485883	-1.091091
C174	C	0.958735	-0.468657	-1.071026
C175	C	0.908032	-0.519091	-1.112250
H176	H	1.048397	-0.539024	-1.077589
H177	H	1.044140	-0.478625	-1.146175
H178	H	0.951543	-0.475922	-1.015954
H179	H	0.947258	-0.415526	-1.084530
H180	H	0.915229	-0.511834	-1.167333
H181	H	0.919492	-0.572229	-1.098745
H182	H	0.854962	-0.507406	-1.098647
H183	H	1.567944	-0.238433	-0.523121
C184	C	1.248110	-0.275225	-1.091112
C185	C	1.326310	-0.292457	-1.071038
C186	C	1.377031	-0.242003	-1.112277
H187	H	1.236649	-0.222090	-1.077627
H188	H	1.240940	-0.282458	-1.146193
H189	H	1.333477	-0.285217	-1.015969
H190	H	1.337795	-0.345582	-1.084525
H191	H	1.369860	-0.249237	-1.167358
H192	H	1.365563	-0.188872	-1.098788
H193	H	1.430095	-0.253693	-1.098668
C194	C	1.298461	-0.224486	-0.967243
C195	C	1.281277	-0.146282	-0.947162
C196	C	1.331799	-0.095582	-0.988342
H197	H	1.291277	-0.231607	-1.022328
H198	H	1.351579	-0.236015	-0.953701
H199	H	1.228171	-0.134757	-0.960710
H200	H	1.288466	-0.139136	-0.892085
H201	H	1.384917	-0.107112	-0.974800
H202	H	1.324611	-0.102710	-1.043424
H203	H	1.320151	-0.042516	-0.974718
