data_functionalizedCrystal
_audit_creation_method	'MofGen! by Chris Wilmer'
_symmetry_space_group_name_H-M	'P1'
_symmetry_Int_Tables_number	1
_symmetry_cell_setting	triclinic
loop_
_symmetry_equiv_pos_as_xyz
  x,y,z
_cell_length_a	14.044220
_cell_length_b	14.971486
_cell_length_c	14.048226
_cell_angle_alpha	90.006640
_cell_angle_beta	89.998644
_cell_angle_gamma	91.598497
loop_
_atom_site_label
_atom_site_type_symbol
_atom_site_fract_x
_atom_site_fract_y
_atom_site_fract_z
O1	O	1.257954	-0.215664	-0.079060
O2	O	0.981976	-0.207881	-0.079084
O3	O	1.127361	-0.082155	-0.079065
O4	O	1.112568	-0.341390	-0.079080
O5	O	1.127344	-0.082146	0.079256
O6	O	0.981958	-0.207872	0.079237
O7	O	1.257936	-0.215654	0.079261
Zn8	Zn	1.119944	-0.211762	0.104386
Zn9	Zn	1.119967	-0.211774	-0.104209
O10	O	1.112550	-0.341380	0.079241
C11	C	1.126691	-0.048774	0.000095
C12	C	1.124708	0.050680	0.000094
C13	C	0.946648	-0.204470	0.000073
C14	C	0.841411	-0.194309	0.000064
C15	C	1.113220	-0.374762	0.000079
C16	C	1.115203	-0.474215	0.000074
C17	C	0.648729	-0.175732	0.000084
C18	C	0.591177	-0.247799	0.000084
C19	C	0.483962	-0.237463	0.000095
C20	C	0.755954	-0.186067	0.000073
C21	C	1.293263	-0.219065	0.000101
C22	C	1.398500	-0.229227	0.000104
N23	N	1.119935	-0.211753	0.246746
C24	C	1.210119	0.101176	0.000102
C25	C	1.208250	0.194623	0.000093
C26	C	1.120970	0.237571	0.000082
C27	C	1.035554	0.187067	0.000071
C28	C	1.037423	0.093623	0.000074
C29	C	1.031663	0.381836	0.000067
C30	C	1.029793	0.475288	0.000066
C31	C	1.202490	0.482837	0.000086
C32	C	1.204360	0.389392	0.000089
C33	C	1.118942	0.338895	0.000080
N34	N	1.119984	-0.211776	-0.246570
C35	C	1.184333	-0.156108	0.296573
C36	C	1.184339	-0.156108	0.396231
C37	C	1.119952	-0.211758	0.446060
C38	C	1.055548	-0.267406	0.396226
C39	C	1.055538	-0.267400	0.296570
C40	C	1.055575	-0.267414	0.603941
C41	C	1.055587	-0.267421	0.703603
C42	C	1.184377	-0.156122	0.703601
C43	C	1.184366	-0.156117	0.603945
C44	C	1.119963	-0.211766	0.554118
H45	H	0.622427	-0.317261	0.000075
H46	H	0.617481	-0.106277	0.000093
H47	H	0.964489	0.222043	0.000056
H48	H	1.281192	0.066215	0.000117
N49	N	1.295504	0.246191	0.000092
N50	N	1.373426	0.207834	0.000103
H51	H	1.435053	0.244252	0.000099
N52	N	1.293520	0.345534	0.000111
N53	N	1.369777	0.390628	0.000120
H54	H	1.432749	0.359654	0.000134
H55	H	1.003098	-0.312711	0.256002
H56	H	1.272040	0.523957	0.000090
N57	N	1.250160	-0.099261	0.754477
N58	N	1.307644	-0.049579	0.709976
H59	H	1.354105	-0.009424	0.745910
H60	H	0.958722	0.510253	0.000072
H61	H	0.962107	0.340724	0.000057
N62	N	0.950170	0.042052	0.000053
N63	N	0.872246	0.080406	0.000038
H64	H	0.810620	0.043986	0.000017
H65	H	1.236768	-0.110795	0.256009
N66	N	1.250122	-0.099259	0.447112
N67	N	1.307608	-0.049578	0.402611
H68	H	1.354070	-0.009424	0.438545
N69	N	1.250191	-0.099318	0.553059
N70	N	1.307716	-0.049666	0.597555
H71	H	1.354221	-0.009566	0.561617
N72	N	0.989801	-0.324260	0.754490
N73	N	0.932292	-0.373928	0.709994
H74	H	0.885825	-0.414068	0.745931
H75	H	1.003128	-0.312726	0.563375
N76	N	0.989764	-0.324235	0.447125
N77	N	0.930902	-0.291124	0.502747
H78	H	0.884440	-0.331261	0.538694
