data_functionalizedCrystal
_audit_creation_method	'MofGen! by Chris Wilmer'
_symmetry_space_group_name_H-M	'P1'
_symmetry_Int_Tables_number	1
_symmetry_cell_setting	triclinic
loop_
_symmetry_equiv_pos_as_xyz
  x,y,z
_cell_length_a	27.440280
_cell_length_b	21.606444
_cell_length_c	21.606444
_cell_angle_alpha	59.998659
_cell_angle_beta	90.005497
_cell_angle_gamma	60.000286
loop_
_atom_site_label
_atom_site_type_symbol
_atom_site_fract_x
_atom_site_fract_y
_atom_site_fract_z
Zr1	Zr	0.469518	0.677378	-0.081152
O2	O	0.391699	0.806511	-0.179992
O3	O	0.493371	0.548255	-0.050851
O4	O	0.493370	0.677378	-0.179975
O5	O	0.391705	0.677384	0.050986
O6	O	0.573573	0.677366	-0.179962
O7	O	0.391700	0.677388	-0.050868
O8	O	0.573575	0.446389	0.051016
O9	O	0.391702	0.908361	-0.179992
O10	O	0.563402	0.601352	-0.037920
O11	O	0.503551	0.601358	0.038083
O12	O	0.503549	0.753384	-0.113943
O13	O	0.443698	0.753389	-0.037940
Zr14	Zr	0.597439	0.677352	0.081314
Zr15	Zr	0.597432	0.677359	-0.081131
Zr16	Zr	0.469525	0.677371	0.081294
Zr17	Zr	0.469523	0.839817	-0.081153
Zr18	Zr	0.597434	0.514912	0.081315
O19	O	0.573586	0.806474	0.051014
O20	O	0.573577	0.806484	-0.179963
O21	O	0.391708	0.806501	0.050985
O22	O	0.675258	0.548218	0.180154
O23	O	0.675249	0.548228	-0.050823
O24	O	0.493381	0.548245	0.180125
O25	O	0.675253	0.677346	-0.050823
O26	O	0.573587	0.677351	0.180137
O27	O	0.493384	0.677363	0.180124
O28	O	0.675257	0.677341	0.051031
O29	O	0.493377	0.908346	-0.179976
O30	O	0.573580	0.446383	0.180138
O31	O	0.675255	0.446368	0.180155
O32	O	0.675250	0.446373	0.051032
O33	O	0.391707	0.908356	-0.050870
O34	O	0.493382	0.908341	-0.050853
O35	O	0.563408	0.601346	0.114105
O36	O	0.623260	0.601340	0.038102
O37	O	0.563407	0.753372	-0.037921
O38	O	0.503555	0.753377	0.038082
C39	C	0.533473	0.474178	0.000082
C40	C	0.533471	0.405218	0.000083
C41	C	0.564729	-0.018094	-0.039591
C42	C	0.564725	0.046707	-0.039595
C43	C	0.533481	0.079107	0.000079
C44	C	0.502235	0.046709	0.039751
C45	C	0.502236	-0.018086	0.039749
C46	C	0.502228	0.308020	0.039758
C47	C	0.502231	0.372817	0.039759
C48	C	0.564717	0.372812	-0.039586
C49	C	0.564719	0.308018	-0.039587
C50	C	0.533470	0.275629	0.000082
C51	C	0.533474	0.205366	0.000083
C52	C	0.533480	0.149364	0.000082
C53	C	0.373477	0.677388	0.000056
C54	C	0.319175	0.677397	0.000047
C55	C	0.013719	0.597991	0.039785
C56	C	-0.037299	0.597986	0.039792
O57	O	-0.037116	0.530495	0.073564
N58	N	-0.094058	0.677344	0.000108
C59	C	-0.099799	0.756713	-0.039579
O60	O	-0.152761	0.824212	-0.073332
C61	C	-0.048781	0.756716	-0.039581
C62	C	0.007978	0.677353	0.000100
C63	C	0.070476	0.518634	0.079463
C64	C	0.121490	0.518640	0.079455
C65	C	0.115749	0.598002	0.039769
C66	C	0.058993	0.677358	0.000092
C67	C	-0.054521	0.836084	-0.079263
C68	C	-0.003497	0.836081	-0.079261
C69	C	0.053261	0.756717	-0.039580
C70	C	0.104266	0.756725	-0.039602
N71	N	0.161026	0.677367	0.000082
C72	C	0.166767	0.598006	0.039767
C73	C	-0.206937	0.756698	-0.039571
C74	C	-0.257955	0.756695	-0.039574
C75	C	-0.195451	0.597969	0.039798
C76	C	-0.144433	0.597973	0.039796
C77	C	-0.150178	0.677340	0.000113
C78	C	0.273899	0.598022	0.039747
C79	C	0.324916	0.598035	0.039733
C80	C	0.262409	0.756760	-0.039636
C81	C	0.211396	0.756749	-0.039625
C82	C	0.217146	0.677373	0.000072
O83	O	0.104129	0.824183	-0.073355
O84	O	0.219732	0.530517	0.073523
C85	C	0.693480	0.677341	0.000107
C86	C	0.747783	0.677333	0.000115
C87	C	0.533470	0.677373	-0.203113
C88	C	0.533468	0.677376	-0.272076
C89	C	0.533485	0.880552	0.000080
C90	C	0.533487	0.949511	0.000080
C91	C	0.502225	0.756735	-0.344158
C92	C	0.502230	0.756732	-0.408952
C93	C	0.533475	0.677371	-0.401664
C94	C	0.564722	0.598006	-0.329574
C95	C	0.564720	0.598009	-0.264781
C96	C	0.564731	0.597991	-0.590877
C97	C	0.564729	0.597994	-0.655678
C98	C	0.502241	0.756714	-0.735049
C99	C	0.502239	0.756717	-0.670255
C100	C	0.533489	0.677353	-0.598172
C101	C	0.533484	0.677357	-0.527914
C102	C	0.533477	0.677366	-0.471920
C103	C	0.533487	0.677356	0.203276
C104	C	0.533489	0.677353	0.272238
C105	C	0.693474	0.474154	0.000108
C106	C	0.747775	0.405186	0.000117
C107	C	0.533481	0.474169	0.203277
C108	C	0.533481	0.405206	0.272240
C109	C	0.693482	0.474145	0.203302
C110	C	0.747785	0.405174	0.272274
C111	C	0.373475	0.880584	-0.203140
C112	C	0.319172	0.949555	-0.272111
C113	C	0.373483	0.880575	0.000055
C114	C	0.319183	0.949543	0.000046
C115	C	0.533477	0.880560	-0.203114
C116	C	0.533476	0.949523	-0.272077
C117	C	0.742030	0.372804	-0.039569
C118	C	0.793046	0.308011	-0.039575
C119	C	0.849807	0.275595	0.000108
C120	C	0.855551	0.307983	0.039795
C121	C	0.804535	0.372780	0.039797
C122	C	0.564727	0.372814	0.344315
C123	C	0.564725	0.308025	0.409119
C124	C	0.533481	0.275625	0.401846
C125	C	0.502232	0.308024	0.329763
C126	C	0.502231	0.372816	0.264961
C127	C	0.804534	0.372782	0.264991
C128	C	0.855563	0.307986	0.329790
C129	C	0.849842	0.275578	0.401873
C130	C	0.793087	0.307977	0.409154
C131	C	0.742060	0.372777	0.344355
C132	C	0.262423	0.981955	-0.264828
C133	C	0.211394	1.046772	-0.329628
C134	C	0.217115	1.079182	-0.401710
C135	C	0.273870	1.046780	-0.408992
C136	C	0.324898	0.981969	-0.344193
C137	C	0.324927	0.981932	0.039724
C138	C	0.273911	1.046743	0.039713
C139	C	0.217150	1.079161	0.000027
C140	C	0.211407	1.046770	-0.039656
C141	C	0.262423	0.981964	-0.039649
C142	C	0.564726	0.981903	-0.264780
C143	C	0.564737	1.046692	-0.329572
C144	C	0.533494	1.079105	-0.401660
C145	C	0.502243	1.046719	-0.408955
C146	C	0.502236	0.981926	-0.344164
H147	H	0.590174	-0.044473	-0.071894
H148	H	0.476785	0.399198	0.072065
H149	H	0.533504	1.131863	-0.454410
H150	H	0.476806	1.073120	-0.467658
Br151	Br	0.401912	0.938000	-0.354091
H152	H	0.476786	0.955570	-0.350116
Br153	Br	0.607121	0.264050	-0.093432
H154	H	0.590164	0.073083	-0.071899
Br155	Br	0.533489	0.187693	0.489801
Br156	Br	0.607126	0.416774	-0.093425
Br157	Br	0.459833	0.264042	0.319906
H158	H	-0.304166	0.821321	-0.071895
Br159	Br	0.459823	0.864426	-0.680152
H160	H	0.278599	1.073105	0.072031
Br161	Br	0.078283	0.410914	0.133333
H162	H	0.371140	0.955542	0.072046
H163	H	0.695817	0.399196	-0.071893
H164	H	-0.211623	0.821333	-0.071889
Br165	Br	0.459822	0.264069	0.093598
H166	H	0.175614	1.131930	0.000028
H167	H	0.590175	0.533364	-0.649735
H168	H	0.590167	0.955522	-0.206088
Br169	Br	0.254615	0.938012	-0.093500
Br170	Br	0.459828	0.090685	0.093589
H171	H	0.809204	0.399158	0.206304
H172	H	0.476794	-0.044459	0.072052
Br173	Br	0.281624	1.090773	-0.506824
Br174	Br	-0.011299	0.943800	-0.133116
H175	H	0.371131	0.533405	0.072048
Br176	Br	0.607114	0.490283	-0.493058
H177	H	0.165187	1.073143	-0.323684
H178	H	0.476798	0.821336	-0.793749
Br179	Br	0.665045	0.416726	0.354253
Br180	Br	0.932579	0.264028	0.319890
H181	H	0.590161	0.533388	-0.206089
Br182	Br	0.281710	0.490297	0.093621
Br183	Br	0.607137	0.416767	0.354206
H184	H	0.165185	1.073174	-0.071967
Br185	Br	0.785333	0.263987	0.506986
Br186	Br	0.919101	0.187635	0.489808
H187	H	0.167702	0.454014	0.111764
Br188	Br	0.607139	0.264069	0.506936
H189	H	0.809220	0.399137	0.072118
Br190	Br	0.459824	0.416765	0.167147
H191	H	0.165180	0.821373	-0.071946
H192	H	0.257753	0.955570	-0.206141
H193	H	-0.190784	0.533348	0.072110
Br194	Br	-0.067408	0.490262	0.093650
Br195	Br	-0.131541	0.943798	-0.133112
H196	H	0.257744	0.821375	-0.071950
Br197	Br	0.147857	1.167142	-0.489645
Br198	Br	0.785238	0.264067	-0.093437
Br199	Br	0.459816	0.864446	-0.354059
Br200	Br	0.459827	0.864438	-0.506778
Br201	Br	0.919038	0.187655	0.000098
H202	H	0.590165	0.533388	-0.323644
Br203	Br	0.932588	0.263980	0.093650
H204	H	0.590184	1.073054	-0.323617
