data_functionalizedCrystal
_audit_creation_method	'MofGen! by Chris Wilmer'
_symmetry_space_group_name_H-M	'P1'
_symmetry_Int_Tables_number	1
_symmetry_cell_setting	triclinic
loop_
_symmetry_equiv_pos_as_xyz
  x,y,z
_cell_length_a	11.169417
_cell_length_b	10.686285
_cell_length_c	11.169417
_cell_angle_alpha	94.374231
_cell_angle_beta	90.000551
_cell_angle_gamma	85.633103
loop_
_atom_site_label
_atom_site_type_symbol
_atom_site_fract_x
_atom_site_fract_y
_atom_site_fract_z
Zn1	Zn	1.871441	-0.502498	0.641928
Zn2	Zn	2.204774	-0.169165	0.975261
Zn3	Zn	2.538107	0.164168	1.308595
Zn4	Zn	1.886805	-0.713453	0.425878
Zn5	Zn	2.220138	-0.380119	0.759211
Zn6	Zn	2.553472	-0.046786	1.092545
Zn7	Zn	1.670792	-0.502486	0.441264
Zn8	Zn	2.004125	-0.169152	0.774598
Zn9	Zn	2.337459	0.164181	1.107931
Zn10	Zn	1.686142	-0.713442	0.626525
Zn11	Zn	2.019475	-0.380109	0.959858
Zn12	Zn	2.352808	-0.046776	1.293191
O13	O	1.778795	-0.607970	0.533899
O14	O	2.112128	-0.274636	0.867232
O15	O	2.445462	0.058697	1.200565
O16	O	2.041429	-0.530492	0.613276
O17	O	2.374763	-0.197158	0.946609
O18	O	2.708096	0.136175	1.279942
O19	O	1.858156	-0.685466	0.259970
O20	O	2.191490	-0.352133	0.593303
O21	O	2.524823	-0.018800	0.926636
O22	O	1.684555	-0.325916	0.480768
O23	O	2.017888	0.007417	0.814102
O24	O	2.351221	0.340750	1.147435
O25	O	2.052717	-0.685479	0.454545
O26	O	2.386050	-0.352145	0.787878
O27	O	2.719384	-0.018812	1.121211
O28	O	1.831970	-0.325926	0.628195
O29	O	2.165304	0.007408	0.961528
O30	O	2.498637	0.340741	1.294862
O31	O	1.699453	-0.530470	0.271274
O32	O	2.032786	-0.197137	0.604607
O33	O	2.366119	0.136197	0.937941
O34	O	1.504878	-0.530460	0.465833
O35	O	1.838211	-0.197127	0.799166
O36	O	2.171545	0.136207	1.132499
O37	O	1.710716	-0.685461	0.796518
O38	O	2.044049	-0.352128	1.129851
O39	O	2.377383	-0.018795	1.463184
O40	O	1.516155	-0.685449	0.601942
O41	O	1.849488	-0.352116	0.935276
O42	O	2.182822	-0.018782	1.268609
O43	O	1.846854	-0.530482	0.807834
O44	O	2.180188	-0.197148	1.141168
O45	O	2.513521	0.136185	1.474501
O46	O	1.873040	-0.890022	0.439609
O47	O	2.206374	-0.556689	0.772942
O48	O	2.539707	-0.223356	1.106275
O49	O	1.725614	-0.890015	0.587023
O50	O	2.058947	-0.556682	0.920356
O51	O	2.392281	-0.223348	1.253690
C52	C	1.466969	-0.607953	0.533886
C53	C	1.800302	-0.274619	0.867220
C54	C	2.133636	0.058714	1.200553
C55	C	1.333571	-0.607976	0.533907
C56	C	1.666904	-0.274643	0.867241
C57	C	2.000237	0.058691	1.200574
C58	C	1.802692	-0.935802	0.510001
C59	C	2.136026	-0.602468	0.843334
C60	C	2.469359	-0.269135	1.176668
C61	C	1.813026	-1.076049	0.499817
C62	C	2.146359	-0.742716	0.833151
C63	C	2.479692	-0.409383	1.166484
C64	C	2.091838	-0.607988	0.533912
C65	C	2.425172	-0.274654	0.867245
C66	C	2.758505	0.058679	1.200579
C67	C	2.225239	-0.607995	0.533918
C68	C	2.558572	-0.274662	0.867251
C69	C	2.891906	0.058671	1.200584
C70	C	1.754837	-0.278858	0.557916
C71	C	2.088170	0.054476	0.891250
C72	C	2.421503	0.387809	1.224583
C73	C	1.744627	-0.138610	0.568151
C74	C	2.077960	0.194723	0.901484
C75	C	2.411294	0.528057	1.234818
C76	C	1.778783	-0.607972	0.846941
C77	C	2.112117	-0.274638	1.180274
C78	C	2.445450	0.058695	1.513608
C79	C	1.778779	-0.607973	0.980341
C80	C	2.112112	-0.274639	1.313674
C81	C	2.445445	0.058694	1.647008
C82	C	1.778794	-0.607991	1.222073
C83	C	2.112127	-0.274657	1.555406
C84	C	2.445460	0.058676	1.888739
C85	C	1.778782	-0.607974	1.088674
C86	C	2.112115	-0.274641	1.422007
C87	C	2.445449	0.058692	1.755340
H88	H	1.879485	-1.129789	0.433510
H89	H	2.212819	-0.796456	0.766843
H90	H	2.546152	-0.463122	1.100176
H91	H	1.678163	-1.084878	0.634447
H92	H	2.011497	-0.751545	0.967780
H93	H	2.344830	-0.418211	1.301114
