data_functionalizedCrystal
_audit_creation_method	'MofGen! by Chris Wilmer'
_symmetry_space_group_name_H-M	'P1'
_symmetry_Int_Tables_number	1
_symmetry_cell_setting	triclinic
loop_
_symmetry_equiv_pos_as_xyz
  x,y,z
_cell_length_a	31.640172
_cell_length_b	31.640171
_cell_length_c	18.426585
_cell_angle_alpha	59.993709
_cell_angle_beta	90.005061
_cell_angle_gamma	59.976482
loop_
_atom_site_label
_atom_site_type_symbol
_atom_site_fract_x
_atom_site_fract_y
_atom_site_fract_z
Zr1	Zr	0.406976	0.462715	-0.095349
O2	O	0.339438	0.550938	-0.211290
O3	O	0.427708	0.374504	-0.059778
O4	O	0.427662	0.462714	-0.211225
O5	O	0.339488	0.462725	0.059588
O6	O	0.497222	0.462700	-0.211206
O7	O	0.339485	0.462727	-0.059843
O8	O	0.497304	0.304908	0.059705
O9	O	0.339406	0.620516	-0.211323
O10	O	0.488427	0.410772	-0.044628
O11	O	0.436518	0.410780	0.044488
O12	O	0.436464	0.514636	-0.133821
O13	O	0.384555	0.514644	-0.044705
Zr14	Zr	0.517921	0.462688	0.095160
Zr15	Zr	0.517915	0.462693	-0.095319
Zr16	Zr	0.406981	0.462710	0.095130
Zr17	Zr	0.406923	0.573685	-0.095402
Zr18	Zr	0.517973	0.351718	0.095212
O19	O	0.497188	0.550899	0.059588
O20	O	0.497180	0.550906	-0.211248
O21	O	0.339447	0.550931	0.059546
O22	O	0.585458	0.374465	0.211101
O23	O	0.585450	0.374472	-0.059735
O24	O	0.427717	0.374497	0.211058
O25	O	0.585408	0.462678	-0.059777
O26	O	0.497235	0.462689	0.211035
O27	O	0.427675	0.462703	0.211017
O28	O	0.585412	0.462676	0.059654
O29	O	0.427588	0.620499	-0.211299
O30	O	0.497309	0.304904	0.211110
O31	O	0.585491	0.304887	0.211134
O32	O	0.585486	0.304890	0.059729
O33	O	0.339410	0.620513	-0.059918
O34	O	0.427592	0.620495	-0.059894
O35	O	0.488433	0.410767	0.133632
O36	O	0.540341	0.410759	0.044516
O37	O	0.488378	0.514623	-0.044677
O38	O	0.436469	0.514631	0.044439
C39	C	0.462514	0.323895	-0.000029
C40	C	0.462536	0.276785	-0.000006
C41	C	0.500794	-0.097790	0.065724
C42	C	0.500840	0.079163	0.065773
O43	O	0.533465	0.069422	0.121739
N44	N	0.462503	0.139647	-0.000046
C45	C	0.424155	0.155894	-0.065886
O46	O	0.391551	0.211400	-0.121874
C47	C	0.424111	-0.021059	-0.065938
C48	C	0.462447	-0.081544	-0.000109
C49	C	0.539127	-0.158272	0.131547
C50	C	0.539113	-0.202507	0.131537
C51	C	0.500767	-0.186261	0.065704
C52	C	0.462434	-0.125779	-0.000119
C53	C	0.385765	-0.004813	-0.131781
C54	C	0.385759	-0.049057	-0.131790
C55	C	0.424095	-0.109542	-0.065960
C56	C	0.424074	-0.153768	-0.065963
N57	N	0.462410	-0.214252	-0.000143
C58	C	0.500757	-0.230499	0.065690
C59	C	0.424179	0.248794	-0.065853
C60	C	0.424189	0.293032	-0.065840
C61	C	0.500875	0.216298	0.065819
C62	C	0.500863	0.172059	0.065808
C63	C	0.462516	0.188309	-0.000034
C64	C	0.500725	-0.323393	0.065664
C65	C	0.500707	-0.367629	0.065650
C66	C	0.424023	-0.290891	-0.066011
C67	C	0.424040	-0.246659	-0.065994
C68	C	0.462395	-0.262914	-0.000153
O69	O	0.391469	-0.144072	-0.121905
O70	O	0.533362	-0.286007	0.121658
C71	C	0.500807	-0.053555	0.065734
C72	C	0.462474	0.006927	-0.000089
C73	C	0.424128	0.023173	-0.065922
C74	C	0.462484	0.051165	-0.000075
C75	C	0.500831	0.034918	0.065758
C76	C	0.539167	-0.025566	0.131578
C77	C	0.539154	-0.069801	0.131567
C78	C	0.385791	0.083657	-0.131742
C79	C	0.385807	0.127890	-0.131726
C80	C	0.424154	0.111643	-0.065892
C81	C	0.323680	0.462729	-0.000132
C82	C	0.276583	0.462739	-0.000145
C83	C	-0.086814	0.516922	-0.046643
C84	C	0.090167	0.516940	-0.046673
O85	O	0.089981	0.563050	-0.086243
N86	N	0.139424	0.462726	-0.000118
C87	C	0.144434	0.408503	0.046452
O88	O	0.190391	0.362390	0.086057
C89	C	-0.032547	0.408485	0.046487
C90	C	-0.081803	0.462703	-0.000078
C91	C	-0.136068	0.571136	-0.093204
C92	C	-0.180311	0.571131	-0.093200
C93	C	-0.175299	0.516912	-0.046635
C94	C	-0.126045	0.462698	-0.000074
C95	C	-0.027535	0.354263	0.093062
C96	C	-0.071786	0.354263	0.093068
C97	C	-0.121042	0.408481	0.046503
C98	C	-0.165276	0.408474	0.046494
N99	N	-0.214532	0.462689	-0.000061
C100	C	-0.219544	0.516908	-0.046625
C101	C	0.237350	0.408516	0.046430
C102	C	0.281595	0.408520	0.046420
C103	C	0.227324	0.516958	-0.046704
C104	C	0.183079	0.516953	-0.046699
C105	C	0.188093	0.462730	-0.000125
C106	C	-0.312454	0.516893	-0.046614
C107	C	-0.356698	0.516883	-0.046609
C108	C	-0.302424	0.408446	0.046519
C109	C	-0.258184	0.408455	0.046510
C110	C	-0.263202	0.462684	-0.000058
O111	O	-0.165130	0.362389	0.086051
O112	O	-0.265505	0.563013	-0.086208
C113	C	-0.042572	0.516927	-0.046647
C114	C	0.006682	0.462713	-0.000086
C115	C	0.011694	0.408495	0.046478
C116	C	0.050927	0.462718	-0.000096
C117	C	0.045916	0.516936	-0.046661
C118	C	-0.003341	0.571151	-0.093216
C119	C	-0.047583	0.571146	-0.093212
C120	C	0.060950	0.354280	0.093033
C121	C	0.105191	0.354289	0.093024
C122	C	0.100179	0.408508	0.046460
C123	C	0.601217	0.462674	-0.000057
C124	C	0.648313	0.462664	-0.000044
C125	C	0.462441	0.462707	-0.238354
C126	C	0.462439	0.462709	-0.319217
C127	C	0.462383	0.601508	-0.000160
C128	C	0.462361	0.648618	-0.000183
C129	C	0.462458	0.462691	-0.615301
C130	C	0.462454	0.462694	-0.532920
C131	C	0.462448	0.462700	-0.467262
C132	C	0.462445	0.462703	-0.384875
C133	C	0.462456	0.462696	0.238165
C134	C	0.462458	0.462694	0.319028
C135	C	0.601282	0.323867	0.000009
C136	C	0.648401	0.276748	0.000044
C137	C	0.462521	0.323889	0.238231
C138	C	0.462546	0.276777	0.319116
C139	C	0.601289	0.323861	0.238268
C140	C	0.648411	0.276740	0.319167
C141	C	0.323607	0.601542	-0.238458
C142	C	0.276486	0.648663	-0.319356
C143	C	0.323614	0.601536	-0.000198
C144	C	0.276495	0.648655	-0.000233
C145	C	0.462376	0.601514	-0.238420
C146	C	0.462351	0.648626	-0.319306
C147	C	0.643430	0.254627	-0.046480
C148	C	0.687699	0.210360	-0.046465
C149	C	0.736939	0.188212	0.000080
C150	C	0.741909	0.210337	0.046605
C151	C	0.697640	0.254606	0.046584
C152	C	0.489656	0.254647	0.403641
C153	C	0.489677	0.210387	0.479649
C154	C	0.462591	0.188255	0.471130
C155	C	0.435477	0.210390	0.386596
C156	C	0.435453	0.254652	0.310590
C157	C	0.697640	0.254608	0.310640
C158	C	0.741920	0.210339	0.386645
C159	C	0.736969	0.188200	0.471176
C160	C	0.687735	0.210337	0.479701
C161	C	0.643456	0.254608	0.403697
C162	C	0.227257	0.670801	-0.310829
C163	C	0.182977	0.715084	-0.386834
C164	C	0.187927	0.737224	-0.471365
C165	C	0.237162	0.715084	-0.479891
C166	C	0.281440	0.670805	-0.403886
C167	C	0.281467	0.670780	0.046283
C168	C	0.237198	0.715060	0.046247
C169	C	0.187958	0.737210	-0.000301
C170	C	0.182988	0.715082	-0.046822
C171	C	0.227256	0.670807	-0.046791
C172	C	0.489443	0.670743	-0.310758
C173	C	0.489430	0.715004	-0.386751
C174	C	0.462322	0.737149	-0.471291
C175	C	0.435229	0.715027	-0.479837
C176	C	0.435245	0.670764	-0.403845
H177	H	0.570332	-0.251754	0.185140
H178	H	0.511758	0.192369	0.548473
Cl179	Cl	0.132257	0.792889	-0.566907
Cl180	Cl	0.549059	0.096025	0.148566
H181	H	0.511517	0.652720	-0.241928
H182	H	0.570356	-0.171510	0.185158
Cl183	Cl	0.462627	0.132609	0.566691
H184	H	0.392951	0.262035	-0.119472
H185	H	0.413424	0.192364	0.379673
H186	H	0.603341	0.272660	-0.084393
H187	H	0.321524	0.652781	-0.410840
Cl188	Cl	0.792586	0.132556	0.000099
Cl189	Cl	0.121089	0.742905	-0.376096
Cl190	Cl	0.703877	0.282434	0.204381
H191	H	0.413379	0.272665	0.241769
Cl192	Cl	0.243377	0.742923	-0.586166
H193	H	0.241254	0.733069	0.084133
Cl194	Cl	0.343363	0.642947	0.104802
H195	H	-0.218076	0.364306	0.084437
H196	H	0.603373	0.272623	0.410652
H197	H	0.782006	0.192297	0.084500
H198	H	0.683642	0.192351	-0.084351
H199	H	0.413182	0.652761	-0.410817
Cl200	Cl	0.401147	0.742878	-0.586123
Cl201	Cl	0.803808	0.182515	0.375907
Cl202	Cl	0.792640	0.132543	0.566717
Cl203	Cl	0.462304	0.792796	-0.566817
H204	H	-0.396805	0.561036	-0.084532
H205	H	-0.298352	0.364302	0.084428
H206	H	0.223216	0.652776	-0.242006
H207	H	0.531925	-0.416879	0.119260
H208	H	0.151916	0.773262	-0.000319
H209	H	0.683712	0.192306	0.548537
H210	H	0.142891	0.733124	-0.084720
H211	H	0.511491	0.733011	-0.379776
H212	H	0.531958	-0.336637	0.119279
Cl213	Cl	0.549083	0.195882	0.148579
H214	H	0.223202	0.652793	-0.084667
H215	H	0.142975	0.561102	-0.084617
H216	H	0.511713	0.272662	0.410595
H217	H	0.392967	0.342278	-0.119434
H218	H	0.701695	0.272612	0.084475
H219	H	0.354552	0.044431	-0.185392
H220	H	0.392811	-0.197408	-0.119576
Cl221	Cl	0.337549	-0.028623	-0.214570
H222	H	0.570371	-0.119048	0.185172
Cl223	Cl	0.375817	-0.270478	-0.148766
H224	H	0.354585	0.177139	-0.185331
Cl225	Cl	0.337577	0.104093	-0.214510
Cl226	Cl	0.587373	-0.045981	0.214341
Cl227	Cl	0.034378	0.286098	0.151608
Cl228	Cl	-0.318771	0.585067	-0.105159
Cl229	Cl	-0.142381	0.639306	-0.151750
Cl230	Cl	0.221032	0.585118	-0.105248
Cl231	Cl	0.343513	0.340357	0.104947
Cl232	Cl	-0.242228	0.639295	-0.151729
Cl233	Cl	-0.065477	0.286093	0.151622
Cl234	Cl	-0.109501	0.639310	-0.151751
Cl235	Cl	-0.009633	0.639311	-0.151754
Cl236	Cl	0.167111	0.286122	0.151566
Cl237	Cl	0.067261	0.286112	0.151580
Cl238	Cl	0.243663	0.340343	0.104986
