data_functionalizedCrystal
_audit_creation_method	'MofGen! by Chris Wilmer'
_symmetry_space_group_name_H-M	'P1'
_symmetry_Int_Tables_number	1
_symmetry_cell_setting	triclinic
loop_
_symmetry_equiv_pos_as_xyz
  x,y,z
_cell_length_a	10.540539
_cell_length_b	14.044220
_cell_length_c	12.503572
_cell_angle_alpha	93.835250
_cell_angle_beta	93.560877
_cell_angle_gamma	91.142815
loop_
_atom_site_label
_atom_site_type_symbol
_atom_site_fract_x
_atom_site_fract_y
_atom_site_fract_z
O1	O	0.299541	-1.265193	-0.089197
O2	O	0.799541	-0.765193	0.410803
O3	O	0.288487	-0.989150	-0.089224
O4	O	0.788487	-0.489150	0.410776
O5	O	0.109945	-1.133469	-0.089208
O6	O	0.609945	-0.633469	0.410792
O7	O	0.478084	-1.120874	-0.089212
O8	O	0.978084	-0.620874	0.410788
O9	O	0.123396	-1.122616	0.089432
O10	O	0.623396	-0.622616	0.589432
O11	O	0.301939	-0.978297	0.089417
O12	O	0.801939	-0.478297	0.589417
O13	O	0.312993	-1.254339	0.089444
O14	O	0.812993	-0.754339	0.589444
Cu15	Cu	0.308694	-1.115327	0.105742
Cu16	Cu	0.808694	-0.615327	0.605742
Cu17	Cu	0.292786	-1.128163	-0.105522
Cu18	Cu	0.792786	-0.628163	0.394478
O19	O	0.491536	-1.110020	0.089428
O20	O	0.991536	-0.610020	0.589428
C21	C	0.290375	-0.948377	0.000093
C22	C	0.790375	-0.448377	0.500093
C23	C	0.275945	-0.843054	0.000082
C24	C	0.775945	-0.343054	0.500082
C25	C	0.069272	-1.127098	0.000110
C26	C	0.569272	-0.627098	0.500110
C27	C	-0.071962	-1.124272	0.000104
C28	C	0.428038	-0.624272	0.500104
C29	C	-0.266368	-1.016008	-0.000308
C30	C	0.233632	-0.516008	0.499692
C31	C	-0.119430	-1.018848	0.000095
C32	C	0.380570	-0.518848	0.500095
C33	C	-0.120809	-1.168809	0.102122
C34	C	0.379191	-0.668809	0.602122
C35	C	-0.267711	-1.165206	0.102207
C36	C	0.232289	-0.665206	0.602207
C37	C	-0.283309	-1.179693	-0.100941
C38	C	0.216691	-0.679693	0.399059
C39	C	-0.136331	-1.180746	-0.102289
C40	C	0.363669	-0.680746	0.397711
C41	C	0.311105	-1.295113	0.000125
C42	C	0.811105	-0.795113	0.500125
C43	C	0.325535	-1.400436	0.000129
C44	C	0.825535	-0.900436	0.500129
C45	C	0.532208	-1.116392	0.000108
C46	C	1.032208	-0.616392	0.500108
C47	C	0.673442	-1.119218	0.000107
C48	C	1.173442	-0.619218	0.500107
N49	N	0.319883	-1.106306	0.254333
N50	N	0.819883	-0.606306	0.754333
C51	C	0.249566	-0.650213	0.000104
C52	C	0.749566	-0.150213	0.500104
C53	C	0.351908	-0.593272	0.000107
C54	C	0.851908	-0.093272	0.500107
C55	C	0.337231	-0.485969	0.000119
C56	C	0.837231	0.014031	0.500119
C57	C	0.264241	-0.757526	0.000092
C58	C	0.764241	-0.257526	0.500092
N59	N	0.281588	-1.137191	-0.254113
N60	N	0.781588	-0.637191	0.245887
C61	C	0.336354	-1.093036	0.473447
C62	C	0.836354	-0.593036	0.973447
C63	C	0.265121	-1.150458	0.526780
C64	C	0.765121	-0.650458	1.026780
C65	C	0.274286	-1.143074	0.648703
C66	C	0.774286	-0.643074	1.148703
C67	C	0.327191	-1.100419	0.351513
C68	C	0.827191	-0.600419	0.851513
H69	H	-0.086369	-0.983371	-0.073036
H70	H	0.413631	-0.483371	0.426964
H71	H	0.150932	-0.618375	0.000110
H72	H	0.650932	-0.118375	0.500110
Cl73	Cl	0.504205	-0.642425	0.000099
Cl74	Cl	1.004205	-0.142425	0.500099
H75	H	0.404216	-1.038335	0.519348
H76	H	0.904216	-0.538335	1.019348
H77	H	-0.295291	-0.970113	0.072433
H78	H	0.204709	-0.470113	0.572433
Cl79	Cl	-0.325527	-0.958568	-0.113261
Cl80	Cl	0.174473	-0.458568	0.386739
Cl81	Cl	-0.052712	-0.949908	0.113177
Cl82	Cl	0.447288	-0.449908	0.613177
H83	H	0.197256	-1.205164	0.480873
H84	H	0.697256	-0.705164	0.980873
H85	H	-0.293959	-1.123078	0.178460
H86	H	0.206041	-0.623078	0.678460
H87	H	-0.090342	-1.245999	0.105922
H88	H	0.409658	-0.745999	0.605922
Cl89	Cl	-0.329402	-1.281826	0.109380
Cl90	Cl	0.170598	-0.781826	0.609380
Cl91	Cl	-0.346320	-1.134257	-0.220322
Cl92	Cl	0.153680	-0.634257	0.279678
Cl93	Cl	-0.087022	-1.130992	-0.218829
Cl94	Cl	0.412978	-0.630992	0.281171
Cl95	Cl	-0.087649	-1.299994	-0.111796
Cl96	Cl	0.412351	-0.799994	0.388204
Cl97	Cl	-0.051721	-1.107277	0.219326
Cl98	Cl	0.448279	-0.607277	0.719326
Cl99	Cl	-0.344418	-1.297321	-0.101992
Cl100	Cl	0.155582	-0.797321	0.398008
