data_functionalizedCrystal
_audit_creation_method	'MofGen! by Chris Wilmer'
_symmetry_space_group_name_H-M	'P1'
_symmetry_Int_Tables_number	1
_symmetry_cell_setting	triclinic
loop_
_symmetry_equiv_pos_as_xyz
  x,y,z
_cell_length_a	10.654550
_cell_length_b	27.731996
_cell_length_c	9.130313
_cell_angle_alpha	89.992822
_cell_angle_beta	89.996220
_cell_angle_gamma	83.553145
loop_
_atom_site_label
_atom_site_type_symbol
_atom_site_fract_x
_atom_site_fract_y
_atom_site_fract_z
O1	O	1.664947	0.067885	-0.121941
O2	O	1.299194	0.074353	-0.121920
O3	O	1.493464	0.000792	-0.121899
O4	O	1.470677	0.141447	-0.121961
O5	O	1.493462	0.000794	0.121700
O6	O	1.299191	0.074355	0.121679
O7	O	1.664945	0.067887	0.121658
Cu8	Cu	1.482068	0.071121	0.143911
Cu9	Cu	1.482071	0.071119	-0.144173
O10	O	1.470675	0.141449	0.121638
C11	C	1.252415	0.073879	-0.000117
C12	C	1.113032	0.072458	-0.000107
C13	C	1.492995	-0.017218	-0.000095
C14	C	1.491585	-0.070883	-0.000080
C15	C	1.031705	0.115770	-0.000148
C16	C	0.900741	0.114432	-0.000173
C17	C	0.932445	0.026467	-0.000122
C18	C	1.063406	0.027805	-0.000087
C19	C	1.013399	0.166556	-0.000183
C20	C	0.882435	0.165218	-0.000208
C21	C	1.482716	-0.403655	-0.132937
C22	C	1.477362	-0.605347	-0.132962
O23	O	1.476616	-0.631423	-0.245892
N24	N	1.476695	-0.630567	-0.000178
C25	C	1.477359	-0.605361	0.132623
O26	O	1.476657	-0.631440	0.245564
C27	C	1.482704	-0.403670	0.132647
C28	C	1.483383	-0.378453	-0.000147
C29	C	1.483393	-0.378438	-0.265719
C30	C	1.484739	-0.328019	-0.265711
C31	C	1.485406	-0.302816	-0.132921
C32	C	1.484729	-0.328033	-0.000139
C33	C	1.483359	-0.378464	0.265445
C34	C	1.484692	-0.328038	0.265440
C35	C	1.485371	-0.302821	0.132646
C36	C	1.486742	-0.252411	0.132659
N37	N	1.487408	-0.227191	-0.000126
C38	C	1.486740	-0.252394	-0.132916
C39	C	1.474556	-0.711252	0.132601
C40	C	1.473222	-0.761674	0.132595
C41	C	1.473222	-0.761657	-0.132990
C42	C	1.474565	-0.711234	-0.132983
C43	C	1.475222	-0.686032	-0.000184
C44	C	1.489567	-0.146509	-0.132889
C45	C	1.490917	-0.096085	-0.132870
C46	C	1.490910	-0.096107	0.132715
C47	C	1.489567	-0.146527	0.132696
C48	C	1.488890	-0.171726	-0.000118
O49	O	1.487473	-0.226303	0.245530
O50	O	1.487415	-0.226305	-0.245840
C51	C	1.481370	-0.454075	-0.132944
C52	C	1.480693	-0.479292	-0.000162
C53	C	1.481360	-0.454090	0.132628
C54	C	1.479359	-0.529715	-0.000168
C55	C	1.478691	-0.554917	-0.132958
C56	C	1.479357	-0.529697	-0.265742
C57	C	1.480703	-0.479277	-0.265734
C58	C	1.480694	-0.479310	0.265413
C59	C	1.479350	-0.529729	0.265394
C60	C	1.478682	-0.554932	0.132604
C61	C	1.711724	0.068361	-0.000148
C62	C	1.851107	0.069782	-0.000167
C63	C	1.471144	0.159458	-0.000170
C64	C	1.472554	0.213123	-0.000195
N65	N	1.482075	0.071123	0.346534
N66	N	1.482074	0.071114	-0.346795
C67	C	1.568119	0.038561	0.423195
C68	C	1.568116	0.038555	0.576531
C69	C	1.396020	0.103677	0.576533
C70	C	1.396018	0.103680	0.423199
C71	C	1.667482	0.000964	0.423195
C72	C	1.667478	0.000959	0.576532
H73	H	1.129619	-0.007464	-0.000033
H74	H	1.041885	0.186420	0.101760
N75	N	1.794839	0.011932	0.631665
H76	H	1.834069	-0.016080	0.693128
H77	H	1.851580	0.016845	0.545594
N78	N	0.878919	-0.021693	-0.000089
H79	H	0.783614	-0.015970	-0.000111
H80	H	0.908750	-0.040669	-0.090376
N81	N	1.059737	0.187972	-0.139500
H82	H	0.985801	0.197336	-0.206839
H83	H	1.102421	0.217700	-0.115184
N84	N	1.303214	0.138791	0.659233
H85	H	1.316981	0.173150	0.632546
H86	H	1.214250	0.132862	0.632520
H87	H	0.836110	0.180568	0.104954
H88	H	1.638458	-0.034149	0.624096
H89	H	0.839890	0.184353	-0.102170
H90	H	1.485287	-0.307491	-0.373845
H91	H	1.485209	-0.307520	0.373584
H92	H	1.491473	-0.075556	-0.241011
N93	N	1.478665	-0.556884	-0.408972
H94	H	1.401037	-0.544449	-0.467043
H95	H	1.556833	-0.551755	-0.466890
H96	H	1.489010	-0.167020	-0.241039
N97	N	1.482759	-0.405620	-0.408954
H98	H	1.483420	-0.381988	-0.493057
H99	H	1.560113	-0.430186	-0.414679
H100	H	1.475116	-0.690705	-0.241115
H101	H	1.472679	-0.782185	-0.241113
N102	N	1.641176	-0.048244	0.368075
H103	H	1.555994	-0.055608	0.404916
H104	H	1.641239	-0.048227	0.257459
H105	H	1.481240	-0.458795	0.373549
N106	N	1.481420	-0.452074	-0.408948
H107	H	1.559055	-0.464505	-0.467016
H108	H	1.403259	-0.457195	-0.466875
H109	H	1.489025	-0.167060	0.240827
H110	H	1.491460	-0.075578	0.240829
N111	N	1.787596	0.016554	0.360159
H112	H	1.797896	0.050528	0.394281
H113	H	1.862087	-0.006439	0.394304
N114	N	1.472516	-0.788871	0.275821
H115	H	1.473140	-0.765250	0.359936
H116	H	1.394088	-0.806133	0.281615
N117	N	1.475273	-0.684073	0.275843
H118	H	1.474655	-0.707706	0.359948
H119	H	1.553704	-0.666814	0.281628
N120	N	1.482605	-0.405647	0.408685
H121	H	1.404172	-0.422904	0.414603
H122	H	1.559968	-0.430204	0.414555
H123	H	1.478807	-0.550257	0.373539
N124	N	1.303192	0.138792	0.340511
H125	H	1.248678	0.159414	0.412349
H126	H	1.350817	0.160338	0.276876
