data_functionalizedCrystal
_audit_creation_method	'MofGen! by Chris Wilmer'
_symmetry_space_group_name_H-M	'P1'
_symmetry_Int_Tables_number	1
_symmetry_cell_setting	triclinic
loop_
_symmetry_equiv_pos_as_xyz
  x,y,z
_cell_length_a	14.560438
_cell_length_b	14.628931
_cell_length_c	14.628931
_cell_angle_alpha	60.000000
_cell_angle_beta	89.999957
_cell_angle_gamma	60.000693
loop_
_atom_site_label
_atom_site_type_symbol
_atom_site_fract_x
_atom_site_fract_y
_atom_site_fract_z
Zr1	Zr	0.884753	1.000595	-0.119971
O2	O	0.738108	1.191297	-0.265930
O3	O	0.929708	0.809890	-0.075226
O4	O	0.929709	1.000595	-0.265932
O5	O	0.738107	1.000593	0.075207
O6	O	1.080847	1.000598	-0.265934
O7	O	0.738107	1.000592	-0.075225
O8	O	1.080846	0.659461	0.075204
O9	O	0.738108	1.341729	-0.265931
O10	O	1.061673	0.888333	-0.056145
O11	O	0.948881	0.888331	0.056122
O12	O	0.948881	1.112861	-0.168409
O13	O	0.836088	1.112860	-0.056143
Zr14	Zr	1.125801	1.000600	0.119948
Zr15	Zr	1.125801	1.000599	-0.119973
Zr16	Zr	0.884753	1.000595	0.119950
Zr17	Zr	0.884754	1.240516	-0.119971
Zr18	Zr	1.125801	0.760678	0.119948
O19	O	1.080846	1.191305	0.075203
O20	O	1.080847	1.191304	-0.265934
O21	O	0.738107	1.191298	0.075207
O22	O	1.272446	0.809897	0.265907
O23	O	1.272447	0.809896	-0.075230
O24	O	0.929707	0.809891	0.265911
O25	O	1.272447	1.000602	-0.075230
O26	O	1.080846	1.000599	0.265909
O27	O	0.929708	1.000597	0.265910
O28	O	1.272447	1.000603	0.075202
O29	O	0.929709	1.341733	-0.265933
O30	O	1.080845	0.659462	0.265909
O31	O	1.272446	0.659466	0.265907
O32	O	1.272447	0.659465	0.075202
O33	O	0.738108	1.341730	-0.075225
O34	O	0.929709	1.341733	-0.075227
O35	O	1.061673	0.888333	0.168386
O36	O	1.174466	0.888335	0.056120
O37	O	1.061674	1.112864	-0.056145
O38	O	0.948881	1.112862	0.056122
C39	C	1.005277	0.700492	-0.000011
C40	C	1.005277	0.598639	-0.000011
C41	C	1.061229	0.553231	-0.055703
C42	C	1.061231	0.447960	-0.055704
C43	C	0.703763	1.000592	-0.000009
C44	C	0.601432	1.000590	-0.000008
C45	C	0.553360	1.000588	0.082869
C46	C	0.457202	1.000600	0.082863
C47	C	0.457199	1.000611	-0.082901
C48	C	0.553350	1.000608	-0.082898
C49	C	0.601442	1.000570	0.165760
C50	C	0.553371	1.000567	0.248644
C51	C	0.457213	1.000579	0.248638
C52	C	0.409126	1.000594	0.165748
C53	C	1.306791	1.000603	-0.000015
C54	C	1.409122	1.000605	-0.000016
C55	C	1.005278	1.000596	-0.300116
C56	C	1.005278	1.000596	-0.401969
C57	C	1.005278	1.300703	-0.000012
C58	C	1.005278	1.402555	-0.000012
C59	C	0.949325	1.111977	-0.503069
C60	C	0.949324	1.111980	-0.608341
C61	C	1.005277	1.000598	0.300093
C62	C	1.005277	1.000598	0.401946
C63	C	1.306791	0.700498	-0.000014
C64	C	1.409122	0.598647	-0.000015
C65	C	1.005276	0.700493	0.300094
C66	C	1.005276	0.598640	0.401947
C67	C	1.306790	0.700499	0.300091
C68	C	1.409121	0.598648	0.401943
C69	C	0.703764	1.300696	-0.300114
C70	C	0.601433	1.402547	-0.401966
C71	C	0.703764	1.300697	-0.000009
C72	C	0.601433	1.402548	-0.000008
C73	C	1.005278	1.300702	-0.300117
C74	C	1.005278	1.402554	-0.401970
C75	C	1.398791	0.553237	-0.055706
C76	C	1.504555	0.447969	-0.055708
C77	C	1.061229	0.553232	0.503047
C78	C	1.061230	0.447962	0.608318
C79	C	1.510696	0.553240	0.391659
C80	C	1.616462	0.447972	0.496927
H81	H	1.109138	0.592283	-0.103378
H82	H	0.957377	0.559577	0.047671
O83	O	1.398632	0.552044	0.505353
C84	C	1.339388	0.496590	0.517722
H85	H	1.286226	0.539847	0.431609
H86	H	1.282329	0.517479	0.568158
H87	H	1.401699	0.387607	0.563399
H88	H	1.311648	0.592298	-0.103389
H89	H	0.957377	0.441595	0.511305
H90	H	0.592523	1.000565	0.316126
H91	H	1.109129	0.408916	-0.103389
O92	O	0.947939	0.552266	0.391584
C93	C	0.832996	0.654341	0.332562
H94	H	0.812136	0.735741	0.340464
H95	H	0.779782	0.617798	0.369012
H96	H	0.814123	0.692026	0.240487
H97	H	1.519360	0.592301	0.304924
H98	H	1.614802	0.441603	0.047672
O99	O	1.494401	0.401285	-0.112572
C100	C	1.602260	0.306555	-0.099897
H101	H	1.665915	0.322360	-0.078307
H102	H	1.601300	0.314252	-0.181430
H103	H	1.626782	0.206455	-0.029708
H104	H	0.418068	1.000589	0.316119
O105	O	1.118211	0.600050	0.513194
C106	C	1.042561	0.734147	0.461310
H107	H	0.965052	0.774631	0.396179
H108	H	1.085203	0.783788	0.418701
H109	H	1.016256	0.752456	0.527093
O110	O	1.062262	0.886906	-0.494536
C111	C	0.986616	0.879978	-0.435732
H112	H	0.909111	0.981767	-0.472378
H113	H	1.029263	0.830487	-0.343646
H114	H	0.960304	0.822080	-0.443619
O115	O	1.513019	0.552037	0.057032
C116	C	1.525440	0.496584	0.171451
H117	H	1.438921	0.539847	0.181103
H118	H	1.576118	0.517465	0.207360
H119	H	1.571324	0.387602	0.218411
H120	H	1.109134	0.408911	0.695048
H121	H	1.703599	0.408919	0.488297
H122	H	0.679741	1.000556	0.165774
O123	O	1.502240	0.449162	0.608479
C124	C	1.489821	0.504613	0.667446
H125	H	1.576340	0.461353	0.720358
H126	H	1.439147	0.483726	0.724241
H127	H	1.443932	0.613596	0.605426
O128	O	0.948042	0.449352	0.056711
C129	C	0.865437	0.583447	-0.018577
H130	H	0.890195	0.623945	-0.095724
H131	H	0.858369	0.633081	0.023873
H132	H	0.780953	0.601750	-0.044760
H133	H	0.418041	1.000621	-0.150386
O134	O	0.315793	1.000456	0.165980
C135	C	0.283677	1.000440	0.256910
H136	H	0.359523	0.959820	0.324152
H137	H	0.250808	0.937917	0.293206
H138	H	0.214732	1.103565	0.226902
H139	H	0.901428	1.207333	-0.511689
O140	O	0.599943	1.000546	-0.163453
C141	C	0.536879	1.000582	-0.236625
H142	H	0.488785	0.959877	-0.191982
H143	H	0.596021	0.938159	-0.263377
H144	H	0.474839	1.103734	-0.313684
O145	O	0.892353	1.225714	-0.711828
C146	C	0.967987	1.232614	-0.770659
H147	H	1.056667	1.166154	-0.708530
H148	H	0.942470	1.336274	-0.823668
H149	H	0.965982	1.200997	-0.827351
H150	H	1.053183	0.905240	-0.393349
