data_functionalizedCrystal
_audit_creation_method	'MofGen! by Chris Wilmer'
_symmetry_space_group_name_H-M	'P1'
_symmetry_Int_Tables_number	1
_symmetry_cell_setting	triclinic
loop_
_symmetry_equiv_pos_as_xyz
  x,y,z
_cell_length_a	10.489741
_cell_length_b	14.044220
_cell_length_c	13.101039
_cell_angle_alpha	86.332523
_cell_angle_beta	86.610661
_cell_angle_gamma	91.135974
loop_
_atom_site_label
_atom_site_type_symbol
_atom_site_fract_x
_atom_site_fract_y
_atom_site_fract_z
O1	O	1.714050	-0.128652	-0.085154
O2	O	1.964050	0.121348	0.164846
O3	O	2.214050	0.371348	0.414846
O4	O	2.464050	0.621348	0.664846
O5	O	1.344130	-0.141213	-0.085170
O6	O	1.594130	0.108787	0.164830
O7	O	1.844130	0.358787	0.414830
O8	O	2.094130	0.608787	0.664830
O9	O	1.523536	0.003089	-0.085152
O10	O	1.773536	0.253089	0.164848
O11	O	2.023536	0.503089	0.414848
O12	O	2.273536	0.753089	0.664848
O13	O	1.534643	-0.272954	-0.085172
O14	O	1.784643	-0.022954	0.164828
O15	O	2.034643	0.227046	0.414828
O16	O	2.284643	0.477046	0.664828
O17	O	1.510666	-0.007281	0.085277
O18	O	1.760666	0.242719	0.335277
O19	O	2.010666	0.492719	0.585277
O20	O	2.260666	0.742719	0.835277
O21	O	1.331259	-0.151584	0.085259
O22	O	1.581259	0.098416	0.335259
O23	O	1.831259	0.348416	0.585259
O24	O	2.081259	0.598416	0.835259
O25	O	1.701180	-0.139023	0.085275
O26	O	1.951180	0.110977	0.335275
O27	O	2.201180	0.360977	0.585275
O28	O	2.451180	0.610977	0.835275
Zn29	Zn	1.514176	-0.146950	0.112326
Zn30	Zn	1.764176	0.103050	0.362326
Zn31	Zn	2.014176	0.353050	0.612326
Zn32	Zn	2.264176	0.603050	0.862326
Zn33	Zn	1.531133	-0.133286	-0.112221
Zn34	Zn	1.781133	0.116714	0.137779
Zn35	Zn	2.031133	0.366714	0.387779
Zn36	Zn	2.281133	0.616714	0.637779
O37	O	1.521773	-0.283325	0.085257
O38	O	1.771773	-0.033325	0.335257
O39	O	2.021773	0.216675	0.585257
O40	O	2.271773	0.466675	0.835257
C41	C	1.290067	-0.145450	0.000043
C42	C	1.540067	0.104550	0.250043
C43	C	1.790067	0.354550	0.500043
C44	C	2.040067	0.604550	0.750043
C45	C	1.148150	-0.142611	0.000037
C46	C	1.398150	0.107389	0.250037
C47	C	1.648150	0.357389	0.500037
C48	C	1.898150	0.607389	0.750037
C49	C	1.070696	-0.050795	0.000053
C50	C	1.320696	0.199205	0.250053
C51	C	1.570696	0.449205	0.500053
C52	C	1.820696	0.699205	0.750053
C53	C	0.989314	-0.089055	-0.083978
C54	C	1.239314	0.160945	0.166022
C55	C	1.489314	0.410945	0.416022
C56	C	1.739314	0.660945	0.666022
C57	C	0.976661	-0.099302	0.084051
C58	C	1.226661	0.150698	0.334051
C59	C	1.476661	0.400698	0.584051
C60	C	1.726661	0.650698	0.834051
C61	C	1.068642	-0.180904	-0.084064
C62	C	1.318642	0.069096	0.165936
C63	C	1.568642	0.319096	0.415936
C64	C	1.818642	0.569096	0.665936
C65	C	1.055992	-0.191143	0.084041
C66	C	1.305992	0.058857	0.334041
C67	C	1.555992	0.308857	0.584041
C68	C	1.805992	0.558857	0.834041
C69	C	0.974646	-0.229468	-0.000011
C70	C	1.224646	0.020532	0.249989
C71	C	1.474646	0.270532	0.499989
C72	C	1.724646	0.520532	0.749989
C73	C	1.512240	0.033252	0.000063
C74	C	1.762240	0.283252	0.250063
C75	C	2.012240	0.533252	0.500063
C76	C	2.262240	0.783252	0.750063
C77	C	1.497740	0.138576	0.000063
C78	C	1.747740	0.388576	0.250063
C79	C	1.997740	0.638576	0.500063
C80	C	2.247740	0.888576	0.750063
C81	C	1.755243	-0.134786	0.000060
C82	C	2.005243	0.115214	0.250060
C83	C	2.255243	0.365214	0.500060
C84	C	2.505243	0.615214	0.750060
C85	C	1.897160	-0.137625	0.000060
C86	C	2.147160	0.112375	0.250060
C87	C	2.397160	0.362375	0.500060
C88	C	2.647160	0.612375	0.750060
C89	C	1.533069	-0.313487	0.000040
C90	C	1.783069	-0.063487	0.250040
C91	C	2.033069	0.186513	0.500040
C92	C	2.283069	0.436513	0.750040
C93	C	1.547569	-0.418812	0.000033
C94	C	1.797569	-0.168812	0.250033
C95	C	2.047569	0.081188	0.500033
C96	C	2.297569	0.331188	0.750033
N97	N	1.502612	-0.156275	0.265573
N98	N	1.752612	0.093725	0.515573
N99	N	2.002612	0.343725	0.765573
N100	N	2.252612	0.593725	1.015573
C101	C	1.471233	0.331420	0.000047
C102	C	1.721233	0.581420	0.250047
C103	C	1.971233	0.831420	0.500047
C104	C	2.221233	1.081420	0.750047
C105	C	1.574071	0.388351	0.000049
C106	C	1.824071	0.638351	0.250049
C107	C	2.074071	0.888351	0.500049
C108	C	2.324071	1.138351	0.750049
C109	C	1.559322	0.495655	0.000040
C110	C	1.809322	0.745655	0.250040
C111	C	2.059322	0.995655	0.500040
C112	C	2.309322	1.245655	0.750040
C113	C	1.485980	0.224105	0.000056
C114	C	1.735980	0.474105	0.250056
C115	C	1.985980	0.724105	0.500056
C116	C	2.235980	0.974105	0.750056
N117	N	1.542706	-0.123954	-0.265468
N118	N	1.792706	0.126046	-0.015468
N119	N	2.042706	0.376046	0.234532
N120	N	2.292706	0.626046	0.484532
C121	C	1.486881	-0.168970	0.474614
C122	C	1.736881	0.081030	0.724614
C123	C	1.986881	0.331030	0.974614
C124	C	2.236881	0.581030	1.224614
C125	C	1.558434	-0.111261	0.525497
C126	C	1.808434	0.138739	0.775497
C127	C	2.058434	0.388739	1.025497
C128	C	2.308434	0.638739	1.275497
C129	C	1.549680	-0.118325	0.641815
C130	C	1.799680	0.131675	0.891815
C131	C	2.049680	0.381675	1.141815
C132	C	2.299680	0.631675	1.391815
C133	C	1.495633	-0.161908	0.358286
C134	C	1.745633	0.088092	0.608286
C135	C	1.995633	0.338092	0.858286
C136	C	2.245633	0.588092	1.108286
H137	H	0.932889	-0.305023	-0.000062
H138	H	1.182889	-0.055023	0.249938
H139	H	1.432889	0.194977	0.499938
H140	H	1.682889	0.444977	0.749938
H141	H	1.085610	-0.234283	0.155082
H142	H	1.335610	0.015717	0.405082
H143	H	1.585610	0.265717	0.655082
H144	H	1.835610	0.515717	0.905082
H145	H	1.626267	-0.056551	0.481702
H146	H	1.876267	0.193449	0.731702
H147	H	2.126267	0.443449	0.981702
H148	H	2.376267	0.693449	1.231702
H149	H	1.108778	-0.215395	-0.155186
H150	H	1.358778	0.034605	0.094814
H151	H	1.608778	0.284605	0.344814
H152	H	1.858778	0.534605	0.594814
H153	H	0.936376	-0.064759	0.155093
H154	H	1.186376	0.185241	0.405093
H155	H	1.436376	0.435241	0.655093
H156	H	1.686376	0.685241	0.905093
H157	H	1.673195	0.356507	-0.000016
H158	H	1.923195	0.606507	0.249984
H159	H	2.173195	0.856507	0.499984
H160	H	2.423195	1.106507	0.749984
H161	H	1.372122	0.363266	0.000041
H162	H	1.622122	0.613266	0.250041
H163	H	1.872122	0.863266	0.500041
H164	H	2.122122	1.113266	0.750041
H165	H	1.112738	0.024689	-0.000047
H166	H	1.362738	0.274689	0.249953
H167	H	1.612738	0.524689	0.499953
H168	H	1.862738	0.774689	0.749953
H169	H	1.419054	-0.223678	0.518405
H170	H	1.669054	0.026322	0.768405
H171	H	1.919054	0.276322	1.018405
H172	H	2.169054	0.526322	1.268405
H173	H	0.959724	-0.045883	-0.155016
H174	H	1.209724	0.204117	0.094984
H175	H	1.459724	0.454117	0.344984
H176	H	1.709724	0.704117	0.594984
