data_functionalizedCrystal
_audit_creation_method	'MofGen! by Chris Wilmer'
_symmetry_space_group_name_H-M	'P1'
_symmetry_Int_Tables_number	1
_symmetry_cell_setting	triclinic
loop_
_symmetry_equiv_pos_as_xyz
  x,y,z
_cell_length_a	6.817900
_cell_length_b	11.102289
_cell_length_c	12.908943
_cell_angle_alpha	94.412341
_cell_angle_beta	100.860631
_cell_angle_gamma	108.605707
loop_
_atom_site_label
_atom_site_type_symbol
_atom_site_fract_x
_atom_site_fract_y
_atom_site_fract_z
V1	V	-4.022089	-0.174253	-0.328682
O2	O	-3.982824	0.010006	-0.322425
O3	O	-3.999478	-0.347084	-0.326434
O4	O	-3.959861	-0.170856	-0.472031
O5	O	-4.022714	-0.167442	-0.175820
V6	V	-4.504167	-0.152298	-0.310398
O7	O	-4.286517	-0.222412	-0.368788
O8	O	-4.689936	-0.104138	-0.270292
O9	O	-4.303571	0.020533	-0.312646
O10	O	-4.660828	-0.336557	-0.316655
O11	O	-4.620938	-0.159109	-0.463260
O12	O	-4.343188	-0.155695	-0.167049
C13	C	-3.851199	-0.389239	-0.321248
C14	C	-3.913907	-0.530526	-0.320366
C15	C	-3.800664	-0.164441	-0.506971
C16	C	-3.831240	-0.162808	-0.624160
C17	C	-4.125943	-0.603351	-0.325210
C18	C	-4.184854	-0.736106	-0.324390
C19	C	-3.819670	-0.723199	-0.313877
C20	C	-3.760765	-0.590447	-0.314705
C21	C	-4.336778	-0.610803	-0.331275
C22	C	-4.395690	-0.743558	-0.330455
C23	C	-4.253829	-0.172350	-0.855107
C24	C	-4.282568	-0.170816	-0.965217
C25	C	-3.917455	-0.158196	-0.954491
C26	C	-3.888716	-0.159730	-0.844381
C27	C	-4.056912	-0.166809	-0.794693
C28	C	-4.028175	-0.168353	-0.684583
C29	C	-3.663060	-0.155723	-0.673857
C30	C	-3.691799	-0.154189	-0.783967
C31	C	-4.115193	0.062681	-0.317829
C32	C	-4.031723	0.203967	-0.318718
C33	C	-4.165728	-0.162114	-0.132103
C34	C	-4.114390	-0.163741	-0.014913
H35	H	-3.588114	-0.531160	-0.310772
H36	H	-4.442914	-0.175328	-1.014402
O37	O	-4.527304	-0.812218	-0.423663
C38	C	-4.581091	-0.969363	-0.575316
C39	C	-4.431820	-0.891661	-0.469797
H40	H	-4.503970	-1.033631	-0.612635
H41	H	-4.611975	-0.900710	-0.632452
H42	H	-4.737928	-1.031339	-0.558937
H43	H	-4.274897	-0.829679	-0.486075
H44	H	-4.401114	-0.960384	-0.412694
H45	H	-3.694996	-0.772003	-0.309269
H46	H	-4.427782	-0.591212	-0.407942
H47	H	-3.502715	-0.151217	-0.624657
O48	O	-4.191594	-0.175453	-0.636293
C49	C	-4.424274	-0.295010	-0.532460
C50	C	-4.239220	-0.287147	-0.587117
H51	H	-4.462807	-0.385293	-0.492668
H52	H	-4.570058	-0.298788	-0.594523
H53	H	-4.376849	-0.206702	-0.469658
H54	H	-4.286441	-0.375433	-0.649913
H55	H	-4.093484	-0.283306	-0.524991
O56	O	-3.754168	-0.151144	-1.002869
C57	C	-3.521371	-0.031484	-1.106605
C58	C	-3.706334	-0.039329	-1.051883
H59	H	-3.482610	0.058926	-1.146228
H60	H	-3.568726	-0.119681	-1.169517
H61	H	-3.375733	-0.027851	-1.044509
H62	H	-3.852044	-0.042922	-1.113901
H63	H	-3.658802	0.048867	-0.988951
O64	O	-4.480356	-0.773997	-0.244611
C65	C	-4.635186	-0.941981	-0.146525
C66	C	-4.539435	-0.907694	-0.243805
H67	H	-4.682937	-1.050071	-0.145829
H68	H	-4.781160	-0.911774	-0.151350
H69	H	-4.512190	-0.889453	-0.070329
H70	H	-4.662273	-0.960206	-0.320049
H71	H	-4.393418	-0.937872	-0.238886
H72	H	-4.357072	-0.557934	-0.256948
H73	H	-4.390788	-0.178128	-0.814652
H74	H	-3.554864	-0.148421	-0.824438
