data_functionalizedCrystal
_audit_creation_method	'MofGen! by Chris Wilmer'
_symmetry_space_group_name_H-M	'P1'
_symmetry_Int_Tables_number	1
_symmetry_cell_setting	triclinic
loop_
_symmetry_equiv_pos_as_xyz
  x,y,z
_cell_length_a	12.759395
_cell_length_b	12.759394
_cell_length_c	12.759387
_cell_angle_alpha	89.970033
_cell_angle_beta	89.979491
_cell_angle_gamma	90.015393
loop_
_atom_site_label
_atom_site_type_symbol
_atom_site_fract_x
_atom_site_fract_y
_atom_site_fract_z
Zn1	Zn	1.606275	-0.418168	-0.594011
Zn2	Zn	1.606168	-0.593885	-0.418334
Zn3	Zn	1.430573	-0.418225	-0.418348
Zn4	Zn	1.430568	-0.593810	-0.593973
O5	O	1.518396	-0.506022	-0.506167
O6	O	1.753282	-0.441485	-0.570717
O7	O	1.582832	-0.570639	-0.271315
O8	O	1.453927	-0.271197	-0.441672
O9	O	1.753203	-0.570583	-0.441648
O10	O	1.583014	-0.271154	-0.570731
O11	O	1.453824	-0.441582	-0.271325
O12	O	1.283551	-0.441510	-0.441635
O13	O	1.453918	-0.570456	-0.740999
O14	O	1.283548	-0.570511	-0.570666
O15	O	1.583010	-0.441412	-0.741027
O16	O	1.582828	-0.740896	-0.441611
O17	O	1.453815	-0.740841	-0.570653
C18	C	1.245428	-0.506009	-0.506149
C19	C	1.128652	-0.506029	-0.506166
C20	C	1.128687	-0.640576	-0.640308
C21	C	1.073843	-0.707857	-0.707383
C22	C	0.964121	-0.707870	-0.707396
C23	C	0.909241	-0.640592	-0.640329
C24	C	0.964084	-0.573310	-0.573255
C25	C	1.073808	-0.573307	-0.573247
C26	C	0.964049	-0.438760	-0.439119
C27	C	1.073771	-0.438751	-0.439099
C28	C	0.909169	-0.371482	-0.372053
C29	C	0.964012	-0.304204	-0.304971
C30	C	1.073741	-0.304195	-0.304960
C31	C	1.128615	-0.371469	-0.372025
C32	C	1.518338	-0.778990	-0.506149
C33	C	1.518409	-0.895766	-0.506177
C34	C	1.652727	-0.895564	-0.640667
C35	C	1.719919	-0.950324	-0.707920
C36	C	1.719981	-1.060046	-0.707942
C37	C	1.652842	-1.115010	-0.640707
C38	C	1.585650	-1.060250	-0.573454
C39	C	1.585597	-0.950526	-0.573437
C40	C	1.451328	-1.060452	-0.438971
C41	C	1.451270	-0.950731	-0.438942
C42	C	1.384189	-1.115417	-0.371736
C43	C	1.317001	-1.060657	-0.304476
C44	C	1.316942	-0.950929	-0.304456
C45	C	1.384077	-0.895971	-0.371689
C46	C	1.792429	-0.506036	-0.506185
C47	C	1.909206	-0.506042	-0.506193
C48	C	1.518475	-0.505919	-0.780200
C49	C	1.518509	-0.505875	-0.896977
C50	C	1.518483	-0.231989	-0.506207
C51	C	1.518520	-0.115212	-0.506224
C52	C	1.652941	-0.371511	-0.897026
C53	C	1.720171	-0.304313	-0.951911
C54	C	1.720197	-0.304275	-1.061633
C55	C	1.652982	-0.371439	-1.116472
C56	C	1.585752	-0.438637	-1.061587
C57	C	1.585736	-0.438671	-0.951862
C58	C	1.451317	-0.572995	-1.061538
C59	C	1.451295	-0.573040	-0.951816
C60	C	1.384102	-0.640159	-1.116377
C61	C	1.316875	-0.707364	-1.061492
C62	C	1.316854	-0.707400	-0.951763
C63	C	1.384064	-0.640238	-0.896931
C64	C	1.518377	-0.506049	-0.233199
C65	C	1.518547	-0.505797	-0.116423
H66	H	0.819828	-0.371492	-0.372072
H67	H	1.218028	-0.640580	-0.640297
H68	H	1.262149	-0.762038	-1.106150
H69	H	1.384241	-1.204758	-0.371763
H70	H	1.118539	-0.762632	-0.761989
H71	H	1.384057	-0.640265	-0.807590
C72	C	1.384127	-0.640124	-1.237067
H73	H	1.334465	-0.689742	-1.261864
H74	H	1.451922	-0.658296	-1.261894
H75	H	1.365988	-0.572311	-1.261902
C76	C	1.793770	-0.889863	-0.781869
H77	H	1.784121	-0.816673	-0.772220
H78	H	1.778379	-0.907805	-0.852452
H79	H	1.864379	-0.907801	-0.766541
C80	C	0.903791	-0.781831	-0.781221
H81	H	0.952186	-0.821888	-0.821172
H82	H	0.861038	-0.741659	-0.827054
H83	H	0.860941	-0.827579	-0.740987
H84	H	1.652937	-0.371545	-0.807685
H85	H	1.262336	-1.105417	-0.249744
H86	H	0.819900	-0.640599	-0.640355
H87	H	0.919320	-0.249426	-0.250376
C88	C	1.134060	-0.230181	-0.231180
H89	H	1.085658	-0.190122	-0.191241
H90	H	1.176892	-0.184454	-0.271448
H91	H	1.176831	-0.270310	-0.185317
C92	C	1.794146	-0.230362	-1.122014
H93	H	1.784526	-0.239958	-1.195213
H94	H	1.864727	-0.245751	-1.104042
H95	H	1.778789	-0.159770	-1.104048
H96	H	1.653000	-0.371393	-1.205813
C97	C	1.794105	-0.230442	-0.891587
H98	H	1.784472	-0.240093	-0.818380
H99	H	1.778768	-0.159842	-0.909579
H100	H	1.864695	-0.245834	-0.909580
C101	C	1.249305	-0.371459	-0.372012
H102	H	1.274111	-0.321759	-0.322457
H103	H	1.274159	-0.353380	-0.439842
H104	H	1.274103	-0.439236	-0.353711
H105	H	1.652693	-0.806223	-0.640645
H106	H	1.774684	-1.104631	-0.762717
C107	C	1.652908	-1.235700	-0.640737
H108	H	1.702542	-1.260441	-0.690417
H109	H	1.585115	-1.260564	-0.658852
H110	H	1.671128	-1.260555	-0.572954
H111	H	1.262222	-0.906349	-0.249695
H112	H	1.262095	-0.762110	-0.907082
H113	H	1.384040	-0.806630	-0.371674
