data_functionalizedCrystal
_audit_creation_method	'MofGen! by Chris Wilmer'
_symmetry_space_group_name_H-M	'P1'
_symmetry_Int_Tables_number	1
_symmetry_cell_setting	triclinic
loop_
_symmetry_equiv_pos_as_xyz
  x,y,z
_cell_length_a	19.188931
_cell_length_b	15.944551
_cell_length_c	15.021413
_cell_angle_alpha	89.996935
_cell_angle_beta	89.994243
_cell_angle_gamma	96.678241
loop_
_atom_site_label
_atom_site_type_symbol
_atom_site_fract_x
_atom_site_fract_y
_atom_site_fract_z
O1	O	0.926420	-0.104855	-0.074002
O2	O	0.723145	-0.118971	-0.074011
O3	O	0.830333	0.010382	-0.073998
O4	O	0.819231	-0.234209	-0.074015
O5	O	0.830316	0.010364	0.074066
O6	O	0.723128	-0.118990	0.074053
O7	O	0.926403	-0.104873	0.074062
Zn8	Zn	0.824763	-0.111935	0.097566
Zn9	Zn	0.824785	-0.111910	-0.097515
O10	O	0.819214	-0.234227	0.074050
C11	C	0.697124	-0.118524	0.000020
C12	C	0.619616	-0.117151	0.000017
C13	C	0.829864	0.041665	0.000034
C14	C	0.828482	0.134906	0.000035
C15	C	0.952423	-0.105321	0.000029
C16	C	1.029931	-0.106693	0.000027
C17	C	1.074659	-0.030793	0.000024
C18	C	1.147486	-0.032082	0.000029
C19	C	1.175583	-0.109276	0.000019
C20	C	1.130845	-0.185187	0.000027
C21	C	1.058019	-0.183895	0.000031
N22	N	1.283736	-0.168276	-0.050388
N23	N	1.352917	-0.169497	-0.050394
C24	C	1.395001	-0.113172	0.000010
N25	N	1.365291	-0.055566	0.050409
N26	N	1.296103	-0.054342	0.050410
C27	C	1.254549	-0.110685	0.000016
C28	C	1.518697	-0.038664	0.000015
C29	C	1.591525	-0.039956	0.000025
C30	C	1.574882	-0.193063	0.000014
C31	C	1.502056	-0.191769	0.000012
C32	C	1.473968	-0.114567	0.000008
C33	C	0.819684	-0.265510	0.000015
C34	C	0.821065	-0.358751	0.000009
N35	N	0.824752	-0.111951	0.230704
C36	C	0.758739	0.349502	0.000019
C37	C	0.791117	0.410631	0.073025
C38	C	0.825982	0.305623	0.000028
C39	C	0.791150	0.410633	-0.072954
C40	C	0.823563	0.470527	0.000017
C41	C	0.858379	0.365524	0.073094
C42	C	0.858402	0.365519	-0.072951
C43	C	0.890829	0.426631	0.000073
C44	C	0.827374	0.210626	0.000034
C45	C	0.822176	0.565522	0.000017
N46	N	0.824801	-0.111887	-0.230652
C47	C	0.775181	-0.171736	0.470381
C48	C	0.838271	-0.187807	0.529717
C49	C	0.824770	-0.111930	0.412311
C50	C	0.761697	-0.095877	0.529716
C51	C	0.824782	-0.111911	0.587735
C52	C	0.887892	-0.128038	0.470340
C53	C	0.811277	-0.036076	0.470334
C54	C	0.874413	-0.052114	0.529644
C55	C	0.824763	-0.111942	0.311253
C56	C	0.824797	-0.111898	0.688790
H57	H	1.051795	0.032071	0.000024
H58	H	0.762707	0.430611	-0.134680
Cl59	Cl	0.970271	-0.149104	0.430248
H60	H	1.495827	0.024199	0.000015
H61	H	0.886826	0.345503	-0.134673
H62	H	0.886789	0.345632	0.134883
H63	H	0.849694	-0.251947	0.555800
H64	H	0.916399	-0.001527	0.555501
Cl65	Cl	0.793610	0.062920	0.430027
Cl66	Cl	0.710501	-0.249881	0.430200
H67	H	1.183911	0.029727	0.000024
Cl68	Cl	1.166165	-0.282231	0.000018
Cl69	Cl	0.747197	0.441502	0.168314
Cl70	Cl	1.001787	-0.279322	0.000031
Cl71	Cl	0.977077	0.478153	0.000136
Cl72	Cl	0.672566	0.297755	0.000122
Cl73	Cl	0.679339	-0.074925	0.569986
Cl74	Cl	1.610196	-0.290109	0.000016
H75	H	1.627942	0.021854	0.000030
H76	H	1.465637	-0.253575	0.000009
