data_functionalizedCrystal
_audit_creation_method	'MofGen! by Chris Wilmer'
_symmetry_space_group_name_H-M	'P1'
_symmetry_Int_Tables_number	1
_symmetry_cell_setting	triclinic
loop_
_symmetry_equiv_pos_as_xyz
  x,y,z
_cell_length_a	9.065218
_cell_length_b	12.837942
_cell_length_c	7.540329
_cell_angle_alpha	89.996889
_cell_angle_beta	89.996962
_cell_angle_gamma	89.922413
loop_
_atom_site_label
_atom_site_type_symbol
_atom_site_fract_x
_atom_site_fract_y
_atom_site_fract_z
O1	O	1.978903	0.152196	-0.147486
O2	O	1.551136	0.164680	-0.147489
O3	O	1.755535	0.007446	-0.147477
O4	O	1.774505	0.309430	-0.147498
O5	O	1.755521	0.007444	0.147488
O6	O	1.551123	0.164678	0.147476
O7	O	1.978890	0.152194	0.147479
Cu8	Cu	1.765005	0.158436	0.174410
Cu9	Cu	1.765021	0.158438	-0.174420
O10	O	1.774491	0.309428	0.147467
C11	C	1.495997	0.163479	-0.000007
C12	C	1.331718	0.159892	-0.000007
C13	C	1.749119	-0.031235	0.000005
C14	C	1.730006	-0.146492	0.000002
C15	C	1.959783	-0.385293	-0.000034
C16	C	1.941831	-0.493587	-0.000037
C17	C	1.676152	-0.471377	-0.000020
C18	C	1.694104	-0.363083	-0.000017
C19	C	1.835924	-0.320045	-0.000021
C20	C	1.853874	-0.211748	-0.000006
C21	C	1.588196	-0.189540	-0.000001
C22	C	1.570245	-0.297835	-0.000004
C23	C	2.034029	0.153395	-0.000007
C24	C	2.198308	0.156983	-0.000018
C25	C	1.780907	0.348110	-0.000019
C26	C	1.800020	0.463366	-0.000027
N27	N	1.765004	0.158434	0.419759
N28	N	1.765032	0.158433	-0.419769
H29	H	2.075258	-0.350251	-0.000020
H30	H	1.487341	-0.136403	0.000023
H31	H	2.042690	-0.546709	-0.000053
O32	O	1.991660	-0.169986	-0.000333
C33	C	2.068087	-0.203219	-0.153089
H34	H	1.985420	-0.226487	-0.259850
H35	H	2.140497	-0.273006	-0.118565
C36	C	2.266961	-0.085243	-0.091245
C37	C	2.165428	-0.113812	-0.222376
H38	H	2.327011	-0.030095	-0.133982
H39	H	2.215474	-0.062855	0.011674
H40	H	2.327287	-0.143406	-0.062486
H41	H	2.105092	-0.055653	-0.251116
H42	H	2.216907	-0.136188	-0.325302
H43	H	1.454779	-0.332891	-0.000008
O44	O	1.538504	-0.513366	0.000058
C45	C	1.549229	-0.622940	-0.000003
H46	H	1.660942	-0.647273	0.055830
H47	H	1.537843	-0.653135	-0.141517
C48	C	1.288211	-0.639092	0.047095
C49	C	1.425415	-0.668977	0.115685
H50	H	1.211834	-0.667491	0.118449
H51	H	1.280983	-0.565269	0.047130
H52	H	1.278744	-0.664255	-0.070832
H53	H	1.434888	-0.643802	0.233600
H54	H	1.432641	-0.742797	0.115673
