data_functionalizedCrystal
_audit_creation_method	'MofGen! by Chris Wilmer'
_symmetry_space_group_name_H-M	'P1'
_symmetry_Int_Tables_number	1
_symmetry_cell_setting	triclinic
loop_
_symmetry_equiv_pos_as_xyz
  x,y,z
_cell_length_a	25.639239
_cell_length_b	19.077105
_cell_length_c	19.076919
_cell_angle_alpha	89.923776
_cell_angle_beta	92.268407
_cell_angle_gamma	92.265071
loop_
_atom_site_label
_atom_site_type_symbol
_atom_site_fract_x
_atom_site_fract_y
_atom_site_fract_z
Zn1	Zn	-0.252939	-1.058187	-0.440398
Zn2	Zn	-0.337004	-1.062799	-0.322884
Zn3	Zn	-0.245935	-0.945407	-0.318192
Zn4	Zn	-0.336689	-0.940620	-0.435637
O5	O	-0.293142	-1.001753	-0.379278
O6	O	-0.267153	-1.157129	-0.428766
O7	O	-0.322124	-1.051160	-0.223931
O8	O	-0.173702	-0.960440	-0.334431
O9	O	-0.328916	-1.160518	-0.342429
O10	O	-0.178848	-1.043299	-0.424215
O11	O	-0.255216	-0.964912	-0.220483
O12	O	-0.254910	-0.846441	-0.329815
O13	O	-0.328378	-0.952283	-0.534600
O14	O	-0.321587	-0.842925	-0.416101
O15	O	-0.266848	-1.038658	-0.538097
O16	O	-0.410124	-1.046519	-0.337813
O17	O	-0.409893	-0.956755	-0.420652
C18	C	-0.287455	-0.819187	-0.371933
C19	C	-0.285035	-0.741083	-0.368807
C20	C	-0.428980	-1.001636	-0.379241
C21	C	-0.487094	-1.001650	-0.379251
C22	C	-0.298359	-0.994422	-0.562557
C23	C	-0.300582	-0.991298	-0.640660
C24	C	-0.847575	-1.048607	-0.336225
C25	C	-0.902180	-1.048634	-0.336235
O26	O	-0.930513	-1.088438	-0.299613
N27	N	-0.929386	-1.001875	-0.379329
C28	C	-0.901983	-0.955090	-0.422421
O29	O	-0.930137	-0.915321	-0.459077
C30	C	-0.847379	-0.955067	-0.422413
C31	C	-0.820176	-1.001825	-0.379311
C32	C	-0.820372	-1.095362	-0.293127
C33	C	-0.765771	-1.095334	-0.293116
C34	C	-0.738372	-1.048551	-0.336202
C35	C	-0.765574	-1.001797	-0.379300
C36	C	-0.819977	-0.908287	-0.465508
C37	C	-0.765369	-0.908268	-0.465497
C38	C	-0.738167	-0.955026	-0.422395
C39	C	-0.683574	-0.954987	-0.422375
N40	N	-0.656368	-1.001746	-0.379282
C41	C	-0.683767	-1.048528	-0.336195
C42	C	-1.016656	-0.955143	-0.422434
C43	C	-1.071259	-0.955162	-0.422438
C44	C	-1.071452	-1.048707	-0.336253
C45	C	-1.016848	-1.048684	-0.336246
C46	C	-0.989450	-1.001902	-0.379340
C47	C	-0.569100	-1.048466	-0.336174
C48	C	-0.514493	-1.048432	-0.336164
C49	C	-0.514304	-0.954890	-0.422351
C50	C	-0.568906	-0.954921	-0.422359
C51	C	-0.596303	-1.001715	-0.379268
O52	O	-0.655207	-0.915205	-0.458982
O53	O	-0.655607	-1.088298	-0.299552
C54	C	-0.156774	-1.001889	-0.379331
C55	C	-0.098662	-1.001947	-0.379354
C56	C	-0.298851	-1.185032	-0.386652
C57	C	-0.301284	-1.263135	-0.389794
C58	C	-0.318661	-0.702581	-0.412193
C59	C	-0.316381	-0.629194	-0.409259
C60	C	-0.280476	-0.594312	-0.362936
C61	C	-0.246846	-0.632820	-0.319549
C62	C	-0.249125	-0.706205	-0.322486
C63	C	-0.269932	-0.375028	-0.349344
C64	C	-0.267658	-0.301638	-0.346409
C65	C	-0.337192	-0.298017	-0.436121
C66	C	-0.339469	-0.371404	-0.439051
C67	C	-0.305837	-0.409905	-0.395666
N68	N	-0.278146	-0.519299	-0.359935
N69	N	-0.308166	-0.484917	-0.398671
C70	C	-0.269593	-1.034799	-0.679175
C71	C	-0.271680	-1.031855	-0.752561
C72	C	-0.304759	-0.985413	-0.787430
C73	C	-0.335750	-0.941907	-0.748910
C74	C	-0.333660	-0.944848	-0.675526
C75	C	-0.314442	-0.971792	-1.006711
C76	C	-0.316531	-0.968856	-1.080100
C77	C	-0.252460	-1.058803	-1.083746
C78	C	-0.250375	-1.061742	-1.010361
C79	C	-0.281364	-1.018234	-0.971846
N80	N	-0.306894	-0.982404	-0.862442
N81	N	-0.279226	-1.021240	-0.896836
C82	C	-0.287908	-1.009096	-0.196713
C83	C	-0.285541	-1.012356	-0.118616
H84	H	-0.591400	-1.086571	-0.301087
H85	H	-0.368707	-0.399800	-0.476771
N86	N	-0.350314	-0.921410	-1.115731
N87	N	-0.352174	-0.918795	-1.181252
H88	H	-0.376032	-0.885289	-1.206418
H89	H	-0.591056	-0.916849	-0.457458
N90	N	-0.235808	-1.082239	-0.643550
N91	N	-0.254431	-1.128639	-0.604397
H92	H	-0.230569	-1.162143	-0.579237
N93	N	-0.214767	-0.745526	-0.278170
N94	N	-0.182710	-0.714375	-0.236816
H95	H	-0.158441	-0.742144	-0.205520
H96	H	-0.842116	-0.870208	-0.500603
N97	N	-0.365309	-0.900414	-0.636170
N98	N	-0.344349	-0.857299	-0.593424
H99	H	-0.366700	-0.825914	-0.565627
H100	H	-0.246446	-1.067280	-0.783917
N101	N	-0.486303	-0.907104	-0.466351
N102	N	-0.437549	-0.907092	-0.466330
H103	H	-0.417771	-0.873345	-0.497406
N104	N	-0.737986	-1.143084	-0.249075
N105	N	-0.705513	-1.120170	-0.203271
H106	H	-0.685895	-1.153894	-0.172161
N107	N	-0.371548	-0.258689	-0.480429
N108	N	-0.402860	-0.218701	-0.453985
H109	H	-0.427126	-0.190926	-0.485280
H110	H	-0.347900	-0.730976	-0.449912
H111	H	-0.238414	-0.273239	-0.308691
N112	N	-0.350726	-0.589850	-0.453568
N113	N	-0.332391	-0.547129	-0.496752
H114	H	-0.356648	-0.519340	-0.528045
N115	N	-0.848363	-1.143150	-0.249118
N116	N	-0.880890	-1.186935	-0.275671
H117	H	-0.900656	-1.220685	-0.244584
N118	N	-0.235579	-0.414339	-0.305020
N119	N	-0.203528	-0.383183	-0.263660
H120	H	-0.179265	-0.410949	-0.232352
N121	N	-1.099437	-1.096501	-0.292235
N122	N	-1.091374	-1.094490	-0.227205
H123	H	-1.111138	-1.128242	-0.196118
H124	H	-0.217610	-0.604413	-0.281834
H125	H	-0.223440	-1.099562	-0.981975
N126	N	-0.346099	-0.927346	-0.967387
N127	N	-0.375633	-0.885886	-0.998531
H128	H	-0.397993	-0.854494	-0.970757
N129	N	-0.220811	-1.103238	-1.123099
N130	N	-0.222681	-1.100610	-1.188620
H131	H	-0.200327	-1.131993	-1.216413
N132	N	-0.369528	-0.894456	-0.784532
N133	N	-0.350895	-0.848062	-0.823684
H134	H	-0.374750	-0.814548	-0.848844
N135	N	-0.486709	-1.096187	-0.292122
N136	N	-0.490847	-1.094170	-0.227096
H137	H	-0.471227	-1.127897	-0.195990
N138	N	-0.989072	-1.096448	-0.292213
N139	N	-1.013548	-1.138209	-0.253744
H140	H	-0.993934	-1.171945	-0.222644
N141	N	-1.099041	-0.907384	-0.466448
N142	N	-1.090840	-0.842735	-0.459120
H143	H	-1.110460	-0.808991	-0.490206
N144	N	-0.988680	-0.907346	-0.466458
N145	N	-1.012981	-0.865604	-0.504929
H146	H	-0.993226	-0.831848	-0.536023
H147	H	-0.743065	-0.870174	-0.500592
