data_functionalizedCrystal
_audit_creation_method	'MofGen! by Chris Wilmer'
_symmetry_space_group_name_H-M	'P1'
_symmetry_Int_Tables_number	1
_symmetry_cell_setting	triclinic
loop_
_symmetry_equiv_pos_as_xyz
  x,y,z
_cell_length_a	18.101398
_cell_length_b	21.295417
_cell_length_c	18.101389
_cell_angle_alpha	89.973488
_cell_angle_beta	89.977624
_cell_angle_gamma	90.025773
loop_
_atom_site_label
_atom_site_type_symbol
_atom_site_fract_x
_atom_site_fract_y
_atom_site_fract_z
Zn1	Zn	1.132110	-0.250730	-0.418817
Zn2	Zn	1.132011	-0.355991	-0.294967
Zn3	Zn	1.008273	-0.250731	-0.294979
Zn4	Zn	1.008221	-0.355957	-0.418755
O5	O	1.070154	-0.303352	-0.356880
O6	O	1.235730	-0.264707	-0.402409
O7	O	1.115578	-0.342043	-0.191335
O8	O	1.024763	-0.162641	-0.311437
O9	O	1.235657	-0.342042	-0.311417
O10	O	1.115746	-0.162641	-0.402421
O11	O	1.024668	-0.264708	-0.191344
O12	O	0.904633	-0.264675	-0.311377
O13	O	1.024674	-0.341984	-0.522397
O14	O	0.904595	-0.341984	-0.402315
O15	O	1.115695	-0.264674	-0.522442
O16	O	1.115527	-0.444076	-0.311357
O17	O	1.024579	-0.444051	-0.402304
C18	C	0.877743	-0.303327	-0.356841
C19	C	0.795429	-0.303331	-0.356842
C20	C	0.496338	-0.303370	-0.356904
C21	C	0.527663	-0.254486	-0.299967
C22	C	0.613281	-0.254617	-0.299724
C23	C	0.644721	-0.303350	-0.356873
C24	C	0.613604	-0.369659	-0.335543
C25	C	0.527959	-0.369388	-0.335147
C26	C	0.527950	-0.286521	-0.435305
C27	C	0.613601	-0.285045	-0.434877
C28	C	0.728580	-0.303343	-0.356857
C29	C	0.412479	-0.303382	-0.356919
C30	C	1.070057	-0.466904	-0.356839
C31	C	1.070083	-0.536872	-0.356846
C32	C	1.117482	-0.569731	-0.309538
C33	C	1.117516	-0.635473	-0.309555
C34	C	1.070139	-0.668354	-0.356871
C35	C	1.022737	-0.635488	-0.404188
C36	C	1.022709	-0.569746	-0.404175
N37	N	1.005355	-0.771616	-0.362504
N38	N	1.005383	-0.834068	-0.362512
C39	C	1.070222	-0.866429	-0.356914
N40	N	1.135032	-0.833980	-0.351293
N41	N	1.135002	-0.771523	-0.351282
C42	C	1.070165	-0.739640	-0.356891
C43	C	1.117662	-0.970573	-0.309622
C44	C	1.117698	-1.036317	-0.309644
C45	C	1.022912	-1.036330	-0.404273
C46	C	1.022883	-0.970588	-0.404255
C47	C	1.070257	-0.937713	-0.356925
C48	C	1.263316	-0.303378	-0.356919
C49	C	1.345630	-0.303389	-0.356935
C50	C	1.070190	-0.303325	-0.550042
C51	C	1.070205	-0.303313	-0.632356
C52	C	1.070271	-0.139162	-0.356937
C53	C	1.070321	-0.069194	-0.356961
C54	C	1.070233	-0.303264	-0.783064
C55	C	1.012975	-0.351896	-0.814389
C56	C	1.012766	-0.351725	-0.900008
C57	C	1.070260	-0.303217	-0.931447
C58	C	1.049373	-0.236834	-0.900368
C59	C	1.048941	-0.237143	-0.814723
C60	C	1.148530	-0.320426	-0.814638
C61	C	1.148126	-0.321862	-0.900288
C62	C	1.070277	-0.303186	-1.015306
C63	C	1.070215	-0.303291	-0.699205
C64	C	1.070160	-0.303334	-0.164469
C65	C	1.070288	-0.303168	-0.082155
H66	H	0.506115	-0.265498	-0.242211
N67	N	0.638960	-0.268587	-0.226851
N68	N	0.678534	-0.229954	-0.193147
H69	H	0.696670	-0.239821	-0.141677
H70	H	0.984110	-0.542992	-0.442700
N71	N	0.974518	-1.069900	-0.452616
N72	N	0.979384	-1.062515	-0.520955
H73	H	0.945206	-1.086226	-0.555102
H74	H	1.089808	-0.199595	-0.920733
H75	H	0.507236	-0.407043	-0.374809
H76	H	0.992786	-0.222051	-0.921814
H77	H	1.156058	-0.542966	-0.271002
N78	N	1.166056	-0.936998	-0.261274
N79	N	1.208379	-0.966348	-0.219041
H80	H	1.242558	-0.942637	-0.184895
H81	H	0.507949	-0.383677	-0.277832
N82	N	0.639150	-0.416570	-0.385943
N83	N	0.680676	-0.401620	-0.438268
H84	H	0.698719	-0.434749	-0.473865
N85	N	0.640474	-0.387892	-0.264418
N86	N	0.682531	-0.352165	-0.229316
H87	H	0.701508	-0.365038	-0.179082
H88	H	0.984283	-0.943832	-0.442774
H89	H	1.163880	-0.370718	-0.920598
H90	H	1.025851	-0.401281	-0.793790
N91	N	1.099003	-0.190120	-0.788734
N92	N	1.134145	-0.157176	-0.833851
H93	H	1.169497	-0.123963	-0.815500
N94	N	0.974351	-0.669081	-0.452521
N95	N	0.974381	-0.727778	-0.452525
H96	H	0.940210	-0.751505	-0.486664
H97	H	0.506377	-0.239011	-0.454697
N98	N	0.639119	-0.223828	-0.455046
N99	N	0.680075	-0.193759	-0.412172
H100	H	0.698102	-0.150524	-0.426414
N101	N	0.501843	-0.192612	-0.316534
N102	N	0.464608	-0.163013	-0.269971
H103	H	0.446368	-0.119312	-0.281669
N104	N	1.029089	-0.413476	-0.926361
N105	N	1.040714	-0.457001	-0.881500
H106	H	1.052226	-0.500619	-0.900108
H107	H	0.635005	-0.318055	-0.479573
N108	N	0.502550	-0.331200	-0.488515
N109	N	0.461347	-0.375277	-0.468883
H110	H	0.443410	-0.406837	-0.506455
H111	H	1.156117	-0.662232	-0.271032
H112	H	1.156301	-1.063070	-0.271122
N113	N	0.940611	-0.337797	-0.787375
N114	N	0.931026	-0.292089	-0.745152
H115	H	0.879920	-0.282131	-0.726069
N116	N	0.939991	-0.337440	-0.925699
N117	N	0.889198	-0.327561	-0.880376
H118	H	0.837796	-0.317472	-0.898519
N119	N	1.204487	-0.280675	-0.927146
N120	N	1.188110	-0.236711	-0.969876
H121	H	1.227914	-0.207619	-0.988848
H122	H	1.167589	-0.368026	-0.793034
N123	N	0.639668	-0.192926	-0.316476
N124	N	0.594831	-0.149473	-0.328427
H125	H	0.613464	-0.105899	-0.340248
N126	N	0.977154	-0.218925	-0.789664
N127	N	0.927719	-0.206073	-0.835427
H128	H	0.877016	-0.193207	-0.817733
N129	N	1.202037	-0.275986	-0.789229
N130	N	1.182692	-0.231850	-0.748048
H131	H	1.220475	-0.200461	-0.730101
