data_functionalizedCrystal
_audit_creation_method	'MofGen! by Chris Wilmer'
_symmetry_space_group_name_H-M	'P1'
_symmetry_Int_Tables_number	1
_symmetry_cell_setting	triclinic
loop_
_symmetry_equiv_pos_as_xyz
  x,y,z
_cell_length_a	21.395362
_cell_length_b	19.121063
_cell_length_c	21.395355
_cell_angle_alpha	92.420740
_cell_angle_beta	89.956060
_cell_angle_gamma	92.485681
loop_
_atom_site_label
_atom_site_type_symbol
_atom_site_fract_x
_atom_site_fract_y
_atom_site_fract_z
Zn1	Zn	0.947241	-0.279403	-0.365205
Zn2	Zn	1.447241	0.220597	0.134795
Zn3	Zn	0.942680	-0.396839	-0.264891
Zn4	Zn	1.442680	0.103161	0.235109
Zn5	Zn	0.842454	-0.279436	-0.260407
Zn6	Zn	1.342454	0.220564	0.239593
Zn7	Zn	0.837961	-0.396853	-0.369596
Zn8	Zn	1.337961	0.103147	0.130404
O9	O	0.892584	-0.338133	-0.315025
O10	O	1.392584	0.161867	0.184975
O11	O	1.034314	-0.294962	-0.351936
O12	O	1.534314	0.205038	0.148064
O13	O	0.929357	-0.381273	-0.176618
O14	O	1.429357	0.118727	0.323382
O15	O	0.860144	-0.181145	-0.270595
O16	O	1.360144	0.318855	0.229405
O17	O	1.030964	-0.381241	-0.278236
O18	O	1.530964	0.118759	0.221764
O19	O	0.937130	-0.181121	-0.347589
O20	O	1.437130	0.318879	0.152411
O21	O	0.855721	-0.295017	-0.173324
O22	O	1.355721	0.204983	0.326676
O23	O	0.754180	-0.295031	-0.274853
O24	O	1.254180	0.204969	0.225147
O25	O	0.852486	-0.381266	-0.456691
O26	O	1.352486	0.118734	0.043309
O27	O	0.750879	-0.381297	-0.355073
O28	O	1.250879	0.118703	0.144927
O29	O	0.932773	-0.294976	-0.453465
O30	O	1.432773	0.205024	0.046535
O31	O	0.925000	-0.495127	-0.282494
O32	O	1.425000	0.004873	0.217506
O33	O	0.848063	-0.495138	-0.359420
O34	O	1.348063	0.004862	0.140580
C35	C	0.729795	-0.338170	-0.314953
C36	C	1.229795	0.161830	0.185047
C37	C	0.660152	-0.338203	-0.314938
C38	C	1.160152	0.161797	0.185062
C39	C	0.625735	-0.383181	-0.356651
C40	C	1.125735	0.116819	0.143349
C41	C	0.560300	-0.383164	-0.356679
C42	C	1.060300	0.116836	0.143321
C43	C	0.529285	-0.338176	-0.314982
C44	C	1.029285	0.161824	0.185018
C45	C	0.563711	-0.293189	-0.273266
C46	C	1.063711	0.206811	0.226734
C47	C	0.629145	-0.293202	-0.273244
C48	C	1.129145	0.206798	0.226756
C49	C	0.425776	-0.332517	-0.258362
C50	C	0.925776	0.167483	0.241638
C51	C	0.360343	-0.332509	-0.258383
C52	C	0.860343	0.167491	0.241617
C53	C	0.327466	-0.338130	-0.315049
C54	C	0.827466	0.161870	0.184951
C55	C	0.360030	-0.343774	-0.371698
C56	C	0.860030	0.156226	0.128302
C57	C	0.425463	-0.343788	-0.371676
C58	C	0.925463	0.156212	0.128324
C59	C	0.458334	-0.338156	-0.315001
C60	C	0.958334	0.161844	0.184999
C61	C	0.222096	-0.383092	-0.356795
C62	C	0.722096	0.116908	0.143205
C63	C	0.156661	-0.383070	-0.356824
C64	C	0.656661	0.116930	0.143176
C65	C	0.160073	-0.293098	-0.273405
C66	C	0.660073	0.206902	0.226595
C67	C	0.225508	-0.293117	-0.273383
C68	C	0.725508	0.206883	0.226617
C69	C	0.256516	-0.338117	-0.315077
C70	C	0.756516	0.161883	0.184923
C71	C	0.885566	-0.520617	-0.321934
C72	C	1.385566	-0.020617	0.178066
C73	C	0.882621	-0.598685	-0.324911
C74	C	1.382621	-0.098685	0.175089
C75	C	0.921325	-0.635332	-0.286291
C76	C	1.421325	-0.135332	0.213709
C77	C	0.918559	-0.708685	-0.289094
C78	C	1.418559	-0.208685	0.210906
C79	C	0.877085	-0.745389	-0.330515
C80	C	1.377085	-0.245389	0.169485
C81	C	0.838379	-0.708736	-0.369139
C82	C	1.338379	-0.208736	0.130861
C83	C	0.841149	-0.635385	-0.366338
C84	C	1.341149	-0.135385	0.133662
C85	C	0.866720	-0.966864	-0.340976
C86	C	1.366720	-0.466864	0.159024
C87	C	0.863952	-1.040221	-0.343772
C88	C	1.363952	-0.540221	0.156228
C89	C	0.944133	-1.040164	-0.263728
C90	C	1.444133	-0.540164	0.236272
C91	C	0.946896	-0.966812	-0.260928
C92	C	1.446896	-0.466812	0.239072
C93	C	0.908193	-0.930165	-0.299555
C94	C	1.408193	-0.430165	0.200445
C95	C	0.874256	-0.820367	-0.333380
C96	C	1.374256	-0.320367	0.166620
C97	C	0.911026	-0.855188	-0.296692
C98	C	1.411026	-0.355188	0.203308
C99	C	1.056009	-0.338096	-0.315097
C100	C	1.556009	0.161904	0.184903
C101	C	1.125651	-0.338080	-0.315127
C102	C	1.625651	0.161920	0.184873
C103	C	0.892637	-0.338119	-0.478447
C104	C	1.392637	0.161881	0.021553
C105	C	0.892659	-0.338112	-0.548089
C106	C	1.392659	0.161888	-0.048089
C107	C	0.899647	-0.154936	-0.308102
C108	C	1.399647	0.345064	0.191898
C109	C	0.902656	-0.076868	-0.305152
C110	C	1.402656	0.423132	0.194848
C111	C	0.934463	-0.293179	-0.579123
C112	C	1.434463	0.206821	-0.079123
C113	C	0.934463	-0.293149	-0.644557
C114	C	1.434463	0.206851	-0.144557
C115	C	0.892666	-0.338065	-0.678955
C116	C	1.392666	0.161935	-0.178955
C117	C	0.850854	-0.383001	-0.647913
C118	C	1.350854	0.116999	-0.147913
C119	C	0.850851	-0.383025	-0.582480
C120	C	1.350851	0.116975	-0.082480
C121	C	0.885286	-0.401308	-0.785023
C122	C	1.385286	0.098692	-0.285023
C123	C	0.885294	-0.401285	-0.850455
C124	C	1.385294	0.098715	-0.350455
C125	C	0.892672	-0.337990	-0.880773
C126	C	1.392672	0.162010	-0.380773
C127	C	0.900056	-0.274717	-0.845651
C128	C	1.400056	0.225283	-0.345651
C129	C	0.900053	-0.274741	-0.780218
C130	C	1.400053	0.225259	-0.280218
C131	C	0.892664	-0.338043	-0.749907
C132	C	1.392664	0.161957	-0.249907
C133	C	0.934479	-0.293021	-0.982759
C134	C	1.434479	0.206979	-0.482759
C135	C	0.934475	-0.292989	-1.048194
C136	C	1.434475	0.207011	-0.548194
C137	C	0.850869	-0.382847	-1.051549
C138	C	1.350869	0.117153	-0.551549
C139	C	0.850870	-0.382872	-0.986115
C140	C	1.350870	0.117128	-0.486115
C141	C	0.892678	-0.337960	-0.951723
C142	C	1.392678	0.162040	-0.451723
C143	C	0.892570	-0.338096	-0.152236
C144	C	1.392570	0.161904	0.347764
C145	C	0.892676	-0.337904	-0.082588
C146	C	1.392676	0.162096	0.417412
H147	H	0.452538	-0.327937	-0.212214
H148	H	0.952538	0.172063	0.287786
Br149	Br	0.991215	-0.232068	-0.936081
Br150	Br	1.491215	0.267932	-0.436081
H151	H	0.816820	-0.419569	-0.675924
H152	H	1.316820	0.080431	-0.175924
Br153	Br	0.521622	-0.232127	-0.216682
Br154	Br	1.021622	0.267873	0.283318
Br155	Br	0.264182	-0.444159	-0.413381
Br156	Br	0.764182	0.055841	0.086619
H157	H	0.835205	-0.937033	-0.372426
H158	H	1.335205	-0.437033	0.127574
Br159	Br	0.794111	-0.444009	-0.540359
Br160	Br	1.294111	0.055991	-0.040359
Br161	Br	0.788624	-0.585648	-0.418757
Br162	Br	1.288624	-0.085648	0.081243
H163	H	0.968506	-0.256607	-0.551125
H164	H	1.468506	0.243393	-0.051125
H165	H	0.950076	-0.738520	-0.257645
H166	H	1.450076	-0.238520	0.242355
Br167	Br	0.991186	-0.232147	-0.686684
Br168	Br	1.491186	0.267853	-0.186684
H169	H	0.816830	-0.419411	-1.079555
H170	H	1.316830	0.080589	-0.579555
H171	H	0.451974	-0.348381	-0.417801
H172	H	0.951974	0.151619	0.082199
H173	H	0.333263	-0.348350	-0.417841
H174	H	0.833263	0.151650	0.082159
H175	H	0.816832	-0.419466	-0.960847
H176	H	1.316832	0.080534	-0.460847
Br177	Br	0.875290	-0.487217	-0.743883
Br178	Br	1.375290	0.012783	-0.243883
H179	H	0.906064	-0.223221	-0.751624
H180	H	1.406064	0.276779	-0.251624
H181	H	0.980668	-0.936929	-0.227201
H182	H	1.480668	-0.436929	0.272799
Br183	Br	0.967314	-0.805375	-0.240485
Br184	Br	1.467314	-0.305375	0.259515
Br185	Br	0.667814	-0.444251	-0.413238
Br186	Br	1.167814	0.055749	0.086762
H187	H	0.804613	-0.738626	-0.402867
H188	H	1.304613	-0.238626	0.097133
H189	H	0.134822	-0.256465	-0.239458
H190	H	0.634822	0.243535	0.260542
H191	H	0.532271	-0.419790	-0.390649
H192	H	1.032271	0.080210	0.109351
Br193	Br	0.875282	-0.487155	-0.898113
Br194	Br	1.375282	0.012845	-0.398113
H195	H	0.975644	-1.070010	-0.232282
H196	H	1.475644	-0.570010	0.267718
H197	H	0.830186	-1.070103	-0.377512
H198	H	1.330186	-0.570103	0.122488
Br199	Br	0.817972	-0.870186	-0.389593
Br200	Br	1.317972	-0.370186	0.110407
Br201	Br	0.675859	-0.232154	-0.216630
Br202	Br	1.175859	0.267846	0.283370
Br203	Br	0.910076	-0.188811	-0.886789
Br204	Br	1.410076	0.311189	-0.386789
Br205	Br	0.991223	-0.232014	-1.090314
Br206	Br	1.491223	0.267986	-0.590314
H207	H	0.955095	-0.605453	-0.252559
H208	H	1.455095	-0.105453	0.247441
H209	H	0.128639	-0.419695	-0.390795
H210	H	0.628639	0.080305	0.109205
H211	H	0.333835	-0.327917	-0.212256
H212	H	0.833835	0.172083	0.287744
H213	H	0.253531	-0.256494	-0.239412
H214	H	0.753531	0.243506	0.260588
