data_functionalizedCrystal
_audit_creation_method	'MofGen! by Chris Wilmer'
_symmetry_space_group_name_H-M	'P1'
_symmetry_Int_Tables_number	1
_symmetry_cell_setting	triclinic
loop_
_symmetry_equiv_pos_as_xyz
  x,y,z
_cell_length_a	12.827893
_cell_length_b	18.101395
_cell_length_c	12.827885
_cell_angle_alpha	89.967625
_cell_angle_beta	89.980728
_cell_angle_gamma	90.031075
loop_
_atom_site_label
_atom_site_type_symbol
_atom_site_fract_x
_atom_site_fract_y
_atom_site_fract_z
Zn1	Zn	1.597556	-0.294794	-0.590830
Zn2	Zn	2.097556	0.205206	-0.090830
Zn3	Zn	1.597402	-0.418654	-0.416082
Zn4	Zn	2.097402	0.081346	0.083918
Zn5	Zn	1.422797	-0.294830	-0.416103
Zn6	Zn	1.922797	0.205170	0.083897
Zn7	Zn	1.422734	-0.418598	-0.590782
Zn8	Zn	1.922734	0.081402	-0.090782
O9	O	1.510122	-0.356719	-0.503449
O10	O	2.010122	0.143281	-0.003449
O11	O	1.743771	-0.311233	-0.567660
O12	O	2.243771	0.188767	-0.067660
O13	O	1.574202	-0.402266	-0.269849
O14	O	2.074202	0.097734	0.230151
O15	O	1.446070	-0.191193	-0.439310
O16	O	1.946070	0.308807	0.060690
O17	O	1.743658	-0.402231	-0.439274
O18	O	2.243658	0.097769	0.060726
O19	O	1.574464	-0.191166	-0.567681
O20	O	2.074464	0.308834	-0.067681
O21	O	1.445920	-0.311294	-0.269865
O22	O	1.945920	0.188706	0.230135
O23	O	1.276553	-0.311241	-0.439264
O24	O	1.776553	0.188759	0.060736
O25	O	1.445963	-0.402137	-0.737025
O26	O	1.945963	0.097863	-0.237025
O27	O	1.276507	-0.402172	-0.567600
O28	O	1.776507	0.097828	-0.067600
O29	O	1.574403	-0.311179	-0.737060
O30	O	2.074403	0.188821	-0.237060
O31	O	1.574141	-0.522279	-0.439228
O32	O	2.074141	-0.022279	0.060772
O33	O	1.445814	-0.522239	-0.567579
O34	O	1.945814	-0.022239	-0.067579
C35	C	1.238612	-0.356705	-0.503430
C36	C	1.738612	0.143295	-0.003430
C37	C	1.122459	-0.356717	-0.503446
C38	C	1.622459	0.143283	-0.003446
C39	C	1.070679	-0.401783	-0.566852
C40	C	1.570679	0.098217	-0.066852
C41	C	0.950629	-0.401796	-0.566871
C42	C	1.450629	0.098204	-0.066871
C43	C	1.509982	-0.549130	-0.503419
C44	C	2.009982	-0.049130	-0.003419
C45	C	1.510018	-0.631444	-0.503440
C46	C	2.010018	-0.131444	-0.003440
C47	C	1.510247	-0.930535	-0.503497
C48	C	2.010247	-0.430535	-0.003497
C49	C	1.429695	-0.899215	-0.584452
C50	C	1.929695	-0.399215	-0.084452
C51	C	1.429312	-0.813597	-0.584199
C52	C	1.929312	-0.313597	-0.084199
C53	C	1.510134	-0.782152	-0.503470
C54	C	2.010134	-0.282152	-0.003470
C55	C	1.480314	-0.813311	-0.393335
C56	C	1.980314	-0.313311	0.106665
C57	C	1.479795	-0.898956	-0.393820
C58	C	1.979795	-0.398956	0.106180
C59	C	1.620796	-0.898877	-0.531706
C60	C	2.120796	-0.398877	-0.031706
C61	C	1.620146	-0.813226	-0.534121
C62	C	2.120146	-0.313226	-0.034121
C63	C	1.510071	-0.698293	-0.503448
C64	C	2.010071	-0.198293	-0.003448
C65	C	1.510307	-1.014394	-0.503511
C66	C	2.010307	-0.514394	-0.003511
C67	C	1.782692	-0.356734	-0.503470
C68	C	2.282692	0.143266	-0.003470
C69	C	1.898845	-0.356740	-0.503479
C70	C	2.398845	0.143260	-0.003479
C71	C	1.510193	-0.356648	-0.776020
C72	C	2.010193	0.143352	-0.276020
C73	C	1.510224	-0.356618	-0.892173
C74	C	2.010224	0.143382	-0.392173
C75	C	1.510291	-0.163557	-0.503503
C76	C	2.010291	0.336443	-0.003503
C77	C	1.510363	-0.081243	-0.503526
C78	C	2.010363	0.418757	-0.003526
C79	C	1.573787	-0.311600	-0.943975
C80	C	2.073787	0.188400	-0.443975
C81	C	1.573820	-0.311568	-1.064025
C82	C	2.073820	0.188432	-0.564025
C83	C	1.510111	-0.356737	-0.231940
C84	C	2.010111	0.143263	0.268060
C85	C	1.510284	-0.356558	-0.115787
C86	C	2.010284	0.143442	0.384213
H87	H	1.448166	-0.919757	-0.666380
H88	H	1.948166	-0.419757	-0.166380
O89	O	1.438167	-0.407640	-0.951146
O90	O	1.938167	0.092360	-0.451146
H91	H	1.356137	-0.394947	-0.930259
H92	H	1.856137	0.105053	-0.430259
O93	O	1.129670	-0.452864	-0.638773
O94	O	1.629670	0.047136	-0.138773
H95	H	1.214705	-0.444832	-0.627481
H96	H	1.714705	0.055168	-0.127481
O97	O	1.438174	-0.407612	-1.056806
O98	O	1.938174	0.092388	-0.556806
H99	H	1.484928	-0.445277	-1.007061
H100	H	1.984928	0.054723	-0.507061
O101	O	1.649957	-0.786237	-0.641475
O102	O	2.149957	-0.286237	-0.141475
H103	H	1.586694	-0.750836	-0.672877
H104	H	2.086694	-0.250836	-0.172877
O105	O	0.891699	-0.452968	-0.638734
O106	O	1.391699	0.047032	-0.138734
H107	H	0.912631	-0.440394	-0.720813
H108	H	1.412631	0.059606	-0.220813
O109	O	1.554137	-0.926400	-0.311194
O110	O	2.054137	-0.426400	0.188806
H111	H	1.615859	-0.960393	-0.348242
H112	H	2.115859	-0.460393	0.151758
H113	H	1.077913	-0.318141	-0.449179
H114	H	1.577913	0.181859	0.050821
H115	H	0.943368	-0.318158	-0.449188
H116	H	1.443368	0.181842	0.050812
O117	O	1.453943	-0.785679	-0.692386
O118	O	1.953943	-0.285679	-0.192386
H119	H	1.466241	-0.833350	-0.745358
H120	H	1.966241	-0.333350	-0.245358
H121	H	1.683338	-0.791817	-0.479455
H122	H	2.183338	-0.291817	0.020545
O123	O	1.321805	-0.927794	-0.560014
O124	O	1.821805	-0.427794	-0.060014
H125	H	1.325304	-0.964207	-0.490458
H126	H	1.825304	-0.464207	0.009542
H127	H	1.347370	-0.793175	-0.565514
H128	H	1.847370	-0.293175	-0.065514
H129	H	1.398984	-0.919000	-0.369923
H130	H	1.898984	-0.419000	0.130077
H131	H	1.537139	-0.792944	-0.331373
H132	H	2.037139	-0.292944	0.168627
O133	O	1.656804	-0.927401	-0.636280
O134	O	2.156804	-0.427401	-0.136280
H135	H	1.730669	-0.958518	-0.626324
H136	H	2.230669	-0.458518	-0.126324
H137	H	1.400359	-0.791927	-0.369010
H138	H	1.900359	-0.291927	0.130990
O139	O	1.700248	-0.925876	-0.453677
O140	O	2.200248	-0.425876	0.046323
H141	H	1.677947	-0.906960	-0.374461
H142	H	2.177947	-0.406960	0.125539
O143	O	1.645853	-0.260579	-0.885009
O144	O	2.145853	0.239421	-0.385009
H145	H	1.634526	-0.268617	-0.799970
H146	H	2.134526	0.231383	-0.299970
H147	H	1.628242	-0.273028	-1.108574
H148	H	2.128242	0.226972	-0.608574
