data_functionalizedCrystal
_audit_creation_method	'MofGen! by Chris Wilmer'
_symmetry_space_group_name_H-M	'P1'
_symmetry_Int_Tables_number	1
_symmetry_cell_setting	triclinic
loop_
_symmetry_equiv_pos_as_xyz
  x,y,z
_cell_length_a	16.793024
_cell_length_b	16.793047
_cell_length_c	33.586455
_cell_angle_alpha	113.253857
_cell_angle_beta	66.219990
_cell_angle_gamma	112.758327
loop_
_atom_site_label
_atom_site_type_symbol
_atom_site_fract_x
_atom_site_fract_y
_atom_site_fract_z
O1	O	0.005016	-0.570216	-0.583573
O2	O	-0.034529	-0.474528	-0.453458
O3	O	0.114723	-0.474535	-0.528082
O4	O	-0.144235	-0.570209	-0.508949
O5	O	0.108729	-0.346329	-0.530229
O6	O	-0.040523	-0.346322	-0.455605
O7	O	-0.000977	-0.442010	-0.585721
Zn8	Zn	-0.021701	-0.373810	-0.521004
Zn9	Zn	-0.013805	-0.542728	-0.518175
O10	O	-0.150229	-0.442003	-0.511097
C11	C	0.005100	-0.790970	-0.238461
C12	C	-0.040584	-0.395375	-0.435637
C13	C	-0.044693	-0.353446	-0.386631
C14	C	-0.039275	-0.401741	-0.363054
C15	C	-0.040566	-0.125547	-0.300731
C16	C	-0.044689	-0.223451	-0.321635
C17	C	-0.039266	-0.270752	-0.297563
C18	C	0.005118	-0.521142	-0.103554
C19	C	-0.046224	-0.263935	-0.366370
C20	C	-0.036476	-0.360146	-0.318399
C21	C	-0.030850	-0.408530	-0.294565
C22	C	-0.028014	-0.367522	-0.249895
C23	C	-0.030804	-0.278128	-0.229058
C24	C	-0.036430	-0.229743	-0.252892
C25	C	-0.027971	-0.237122	-0.184383
C26	C	-0.022345	-0.285507	-0.160550
C27	C	-0.019555	-0.374900	-0.181386
C28	C	-0.022391	-0.415909	-0.226057
C29	C	-0.019601	-0.505302	-0.246894
C30	C	-0.013975	-0.553687	-0.223060
C31	C	-0.011142	-0.512684	-0.178391
C32	C	-0.013932	-0.423291	-0.157554
C33	C	-0.005516	-0.561069	-0.154557
C34	C	-0.002726	-0.650463	-0.175394
C35	C	-0.005562	-0.691471	-0.220064
C36	C	-0.011185	-0.643081	-0.243897
C37	C	-0.022434	-0.546309	-0.291568
C38	C	-0.019644	-0.635702	-0.312405
C39	C	-0.014021	-0.684089	-0.288567
C40	C	-0.022480	-0.676711	-0.357076
C41	C	-0.028106	-0.628326	-0.380910
C42	C	-0.030896	-0.538933	-0.360073
C43	C	-0.028060	-0.497924	-0.315402
C44	C	-0.036522	-0.490548	-0.383907
C45	C	0.815184	-0.521162	-0.508596
C46	C	0.415541	-0.125553	-0.528781
C47	C	0.375032	-0.223457	-0.531493
C48	C	0.423813	-0.270761	-0.529101
C49	C	0.149318	-0.395376	-0.530584
C50	C	0.246774	-0.353455	-0.532364
C51	C	0.294574	-0.401748	-0.529976
C52	C	0.548961	-0.790984	-0.510398
C53	C	0.286104	-0.263940	-0.532530
C54	C	0.383336	-0.360149	-0.528302
C55	C	0.432207	-0.407971	-0.525810
C56	C	0.392316	-0.497392	-0.524993
C57	C	0.303554	-0.538991	-0.526667
C58	C	0.254683	-0.491169	-0.529159
C59	C	0.263666	-0.628421	-0.525851
C60	C	0.312537	-0.676243	-0.523359
C61	C	0.401299	-0.634644	-0.521685
C62	C	0.441190	-0.545223	-0.522502
C63	C	0.529952	-0.503624	-0.520828
C64	C	0.578823	-0.551446	-0.518336
C65	C	0.538939	-0.640864	-0.517520
C66	C	0.450177	-0.682463	-0.519194
C67	C	0.587810	-0.688687	-0.515028
C68	C	0.676572	-0.647088	-0.513354
C69	C	0.716463	-0.557666	-0.514172
C70	C	0.667586	-0.509847	-0.516662
C71	C	0.569840	-0.414195	-0.521644
C72	C	0.658602	-0.372596	-0.519970
C73	C	0.707476	-0.420426	-0.517480
C74	C	0.698493	-0.283174	-0.520788
C75	C	0.649622	-0.235352	-0.523280
C76	C	0.560860	-0.276951	-0.524954
C77	C	0.520969	-0.366372	-0.524136
C78	C	0.511989	-0.229129	-0.527446
C79	C	-0.040530	-0.395407	-0.935652
C80	C	0.005063	-0.791004	-0.738448
C81	C	0.009186	-0.693099	-0.717543
C82	C	0.003779	-0.645796	-0.741620
C83	C	0.005077	-0.521171	-0.603544
C84	C	0.009198	-0.563096	-0.652550
C85	C	0.003786	-0.514804	-0.676131
C86	C	-0.040516	-0.125574	-0.800747
C87	C	0.010719	-0.652613	-0.672809
C88	C	0.000994	-0.556406	-0.720789
C89	C	-0.004621	-0.508585	-0.744908
C90	C	-0.007444	-0.419162	-0.724369
C91	C	-0.004651	-0.377560	-0.679711
C92	C	0.000964	-0.425381	-0.655592
C93	C	-0.007471	-0.288129	-0.659174
C94	C	-0.013086	-0.240308	-0.683293
C95	C	-0.015878	-0.281910	-0.727951
C96	C	-0.013056	-0.371333	-0.748490
C97	C	-0.015848	-0.412935	-0.793148
C98	C	-0.021463	-0.365114	-0.817267
C99	C	-0.024282	-0.275694	-0.796731
C100	C	-0.021490	-0.234092	-0.752073
C101	C	-0.029897	-0.227873	-0.820850
C102	C	-0.032690	-0.269476	-0.865508
C103	C	-0.029867	-0.358899	-0.886047
C104	C	-0.024255	-0.406717	-0.861925
C105	C	-0.013028	-0.502367	-0.813685
C106	C	-0.015821	-0.543969	-0.858343
C107	C	-0.021433	-0.496140	-0.882464
C108	C	-0.012998	-0.633392	-0.878882
C109	C	-0.007383	-0.681213	-0.854763
C110	C	-0.004591	-0.639611	-0.810105
C111	C	-0.007414	-0.550188	-0.789566
C112	C	0.001024	-0.687432	-0.785986
O113	O	-0.000965	0.173549	-0.277957
O114	O	-0.040516	-0.085616	-0.325254
O115	O	0.108737	0.059592	-0.327284
O116	O	-0.150219	0.028341	-0.275927
O117	O	0.114753	0.055151	-0.263265
O118	O	-0.034500	-0.090057	-0.261234
O119	O	0.005051	0.169108	-0.213937
Zn120	Zn	-0.013769	0.038820	-0.227421
Zn121	Zn	-0.021696	0.044672	-0.311770
O122	O	-0.144202	0.023900	-0.211907
O123	O	-0.034458	-0.474571	0.046517
O124	O	0.005076	-0.570190	-0.083599
O125	O	-0.144170	-0.570237	-0.008972
O126	O	0.114787	-0.474523	-0.028110
O127	O	-0.150200	-0.442024	-0.011093
O128	O	-0.000954	-0.441976	-0.085720
O129	O	-0.040488	-0.346357	0.044396
Zn130	Zn	-0.021679	-0.373810	-0.020999
Zn131	Zn	-0.013734	-0.542737	-0.018204
O132	O	0.108757	-0.346309	-0.030231
C133	C	-0.850734	0.086244	-0.289716
C134	C	-0.450996	0.035117	-0.097351
C135	C	-0.410501	0.028587	-0.146852
C136	C	-0.459292	0.034683	-0.169840
C137	C	-0.184802	0.024283	-0.235878
C138	C	-0.282257	0.023363	-0.213592
C139	C	-0.330068	0.029423	-0.237088
C140	C	-0.584541	0.075410	-0.428242
C141	C	-0.321573	0.024104	-0.168302
C142	C	-0.418828	0.035176	-0.215083
C143	C	-0.467711	0.041476	-0.238329
C144	C	-0.427833	0.042022	-0.283580
C145	C	-0.339073	0.036269	-0.305586
C146	C	-0.290190	0.029970	-0.282340
C147	C	-0.299198	0.036812	-0.350842
C148	C	-0.348081	0.043111	-0.374088
C149	C	-0.436841	0.048864	-0.352082
C150	C	-0.476719	0.048318	-0.306830
C151	C	-0.565480	0.054071	-0.284825
C152	C	-0.614362	0.060370	-0.308071
C153	C	-0.574491	0.060913	-0.353321
C154	C	-0.485730	0.055160	-0.375326
C155	C	-0.623374	0.067212	-0.376567
C156	C	-0.712134	0.072965	-0.354561
C157	C	-0.752012	0.072419	-0.309309
C158	C	-0.703123	0.066123	-0.286065
C159	C	-0.605355	0.053528	-0.239569
C160	C	-0.694115	0.059281	-0.217564
C161	C	-0.743001	0.065577	-0.240813
C162	C	-0.733993	0.058735	-0.172312
C163	C	-0.685110	0.052436	-0.149066
C164	C	-0.596350	0.046683	-0.171072
C165	C	-0.556472	0.047229	-0.216323
C166	C	-0.547467	0.040383	-0.147826
O167	O	0.585213	0.169090	-0.504004
O168	O	0.494056	-0.090076	-0.525516
O169	O	0.488081	0.055124	-0.449918
O170	O	0.591189	0.023889	-0.579602
O171	O	0.359978	0.059584	-0.452885
O172	O	0.365953	-0.085616	-0.528483
O173	O	0.457110	0.173550	-0.506971
Zn174	Zn	0.391193	0.044675	-0.518198
Zn175	Zn	0.559974	0.038798	-0.514289
O176	O	0.463086	0.028349	-0.582569
C177	C	0.815354	-0.521094	-0.008709
C178	C	0.415547	-0.125494	-0.028771
C179	C	0.375059	-0.223405	-0.031498
C180	C	0.423859	-0.270708	-0.029121
C181	C	0.149365	-0.395355	-0.030599
C182	C	0.246820	-0.353421	-0.032381
C183	C	0.294640	-0.401713	-0.030008
C184	C	0.549171	-0.790955	-0.010537
C185	C	0.286131	-0.263897	-0.032533
C186	C	0.383402	-0.360104	-0.028335
C187	C	0.432293	-0.407926	-0.025859
C188	C	0.392422	-0.497356	-0.025055
C189	C	0.303660	-0.538965	-0.026727
C190	C	0.254769	-0.491143	-0.029204
C191	C	0.263791	-0.628403	-0.025925
C192	C	0.312683	-0.676224	-0.023448
C193	C	0.401445	-0.634615	-0.021775
C194	C	0.441316	-0.545185	-0.022579
C195	C	0.530078	-0.503576	-0.020906
C196	C	0.578969	-0.551398	-0.018429
C197	C	0.539104	-0.640825	-0.017627
C198	C	0.450342	-0.682434	-0.019300
C199	C	0.587995	-0.688646	-0.015150
C200	C	0.676757	-0.647037	-0.013477
C201	C	0.716628	-0.557607	-0.014281
C202	C	0.667731	-0.509789	-0.016757
C203	C	0.569946	-0.414138	-0.021709
C204	C	0.658708	-0.372530	-0.020036
C205	C	0.707602	-0.420359	-0.017561
C206	C	0.698579	-0.283100	-0.020840
C207	C	0.649688	-0.235278	-0.023317
C208	C	0.560926	-0.276887	-0.024990
C209	C	0.521055	-0.366317	-0.024186
C210	C	0.512035	-0.229066	-0.027467
O211	O	-0.620614	0.089309	0.052274
O212	O	-0.529507	0.043784	-0.078544
O213	O	-0.523494	0.194833	-0.006033
O214	O	-0.626628	-0.061740	-0.020236
O215	O	-0.395386	0.185419	-0.005549
O216	O	-0.401400	0.034370	-0.078059
O217	O	-0.492507	0.079895	0.052758
Zn218	Zn	-0.426614	0.055638	-0.012574
Zn219	Zn	-0.595401	0.068041	-0.013212
O220	O	-0.498521	-0.071154	-0.019752
C221	C	-0.437537	0.048335	0.402491
C222	C	-0.837226	0.099430	0.210091
C223	C	-0.739773	0.100339	0.187806
C224	C	-0.691967	0.094287	0.211308
C225	C	-0.571027	0.088563	0.071568
C226	C	-0.611521	0.095108	0.121070
C227	C	-0.562739	0.089011	0.144061
C228	C	-0.171338	0.037467	0.263967
C229	C	-0.700452	0.099593	0.142516
C230	C	-0.603213	0.088528	0.189308
C231	C	-0.554892	0.082255	0.212848
C232	C	-0.466098	0.076466	0.191141
C233	C	-0.425624	0.076949	0.145894
C234	C	-0.473945	0.083222	0.122354
C235	C	-0.336822	0.071163	0.124188
C236	C	-0.288502	0.064890	0.147728
C237	C	-0.328975	0.064407	0.192975
C238	C	-0.417770	0.070196	0.214682
C239	C	-0.458244	0.069713	0.259929
C240	C	-0.409923	0.063441	0.283469
C241	C	-0.321132	0.057655	0.261765
C242	C	-0.280658	0.058138	0.216518
C243	C	-0.272811	0.051382	0.285305
C244	C	-0.313285	0.050899	0.330552
C245	C	-0.402079	0.056688	0.352259
C246	C	-0.450397	0.062957	0.328716
C247	C	-0.547046	0.075500	0.281635
C248	C	-0.587520	0.075016	0.326882
C249	C	-0.539191	0.068747	0.350423
C250	C	-0.676314	0.080806	0.348589
C251	C	-0.724634	0.087078	0.325049
C252	C	-0.684160	0.087561	0.279802
C253	C	-0.595366	0.081772	0.258095
C254	C	-0.732481	0.093834	0.256262
O255	O	-0.040608	-1.085661	-0.825229
O256	O	-0.001018	-0.826491	-0.777938
O257	O	-0.150287	-0.971682	-0.775894
O258	O	0.108661	-0.940470	-0.827272
O259	O	-0.144253	-0.976123	-0.711878
O260	O	0.005016	-0.830932	-0.713922
O261	O	-0.034575	-1.090102	-0.761213
Zn262	Zn	-0.013821	-0.961222	-0.727403
Zn263	Zn	-0.021771	-0.955371	-0.811747
O264	O	0.114695	-0.944911	-0.763256
C265	C	-0.049592	-0.210784	-0.393004
C266	C	0.026679	-0.208027	-0.431124
C267	C	0.023605	-0.159081	-0.455673
H268	H	-0.050341	-0.151202	-0.374344
H269	H	-0.102665	-0.239048	-0.402465
H270	H	0.079738	-0.179760	-0.421662
H271	H	0.027443	-0.267595	-0.449795
H272	H	-0.029468	-0.187345	-0.465135
H273	H	0.022854	-0.099502	-0.437010
H274	H	0.075349	-0.157210	-0.481543
H275	H	-0.217624	0.025258	-0.300336
H276	H	0.182201	-0.525171	-0.030575
C277	C	-0.016346	-0.142872	-0.660896
C278	C	-0.096805	-0.134716	-0.660206
C279	C	-0.099848	-0.044974	-0.639573
H280	H	0.033726	-0.105558	-0.677548
H281	H	-0.013919	-0.124848	-0.630710
H282	H	-0.099224	-0.152729	-0.690386
H283	H	-0.146891	-0.172010	-0.643552
H284	H	-0.097422	-0.026950	-0.609387
H285	H	-0.049773	-0.007667	-0.656226
H286	H	-0.154443	-0.039430	-0.639098
H287	H	-0.709407	0.080425	0.385586
C288	C	-0.016064	-0.678913	-0.927559
C289	C	-0.012391	-0.767831	-0.940435
C290	C	-0.015226	-0.809795	-0.985270
H291	H	0.034061	-0.647255	-0.947004
H292	H	-0.070617	-0.678734	-0.929792
H293	H	0.042156	-0.768004	-0.938206
H294	H	-0.062512	-0.799513	-0.921002
H295	H	-0.069779	-0.809617	-0.987502
H296	H	0.034900	-0.778130	-1.004710
H297	H	-0.012742	-0.870133	-0.994010
C298	C	0.795284	-0.237635	-0.018925
C299	C	0.796644	-0.163043	0.019501
C300	C	0.885706	-0.121144	0.021286
H301	H	0.831250	-0.218398	-0.045394
H302	H	0.818807	-0.279052	-0.017302
H303	H	0.773133	-0.121634	0.017874
H304	H	0.760697	-0.182256	0.045976
H305	H	0.909229	-0.162561	0.022909
H306	H	0.921664	-0.101912	-0.005185
H307	H	0.886639	-0.070534	0.047360
H308	H	0.003321	-0.760550	-0.802778
H309	H	-0.226632	0.032105	-0.368836
C310	C	-0.830721	0.065155	-0.148362
C311	C	-0.837002	0.145761	-0.148528
C312	C	-0.926092	0.151709	-0.126477
H313	H	-0.847647	0.063980	-0.117945
H314	H	-0.869969	0.015689	-0.163716
H315	H	-0.797768	0.195214	-0.133174
H316	H	-0.820095	0.146954	-0.178940
H317	H	-0.965339	0.102243	-0.141830
H318	H	-0.943010	0.150531	-0.096060
H319	H	-0.930367	0.206396	-0.126590
H320	H	0.682238	-0.162236	-0.523943
H321	H	-0.005085	-0.754331	-0.871556
C322	C	0.555616	-0.131634	-0.528311
C323	C	0.644168	-0.105322	-0.526295
C324	C	0.684377	-0.015511	-0.527079
H325	H	0.521832	-0.094359	-0.502989
H326	H	0.556621	-0.125839	-0.555539
H327	H	0.643157	-0.111110	-0.499070
H328	H	0.677975	-0.142573	-0.551615
H329	H	0.685382	-0.009716	-0.554307
H330	H	0.650586	0.021756	-0.501756
H331	H	0.744466	0.002350	-0.525715
C332	C	0.167098	-0.673796	-0.027858
C333	C	0.160826	-0.673325	-0.068084
C334	C	0.071772	-0.715160	-0.069891
H335	H	0.127758	-0.642125	-0.002611
H336	H	0.150287	-0.734176	-0.027051
H337	H	0.177625	-0.612956	-0.068886
H338	H	0.200145	-0.705000	-0.093338
H339	H	0.054961	-0.775540	-0.069084
H340	H	0.032439	-0.683485	-0.044642
H341	H	0.067506	-0.714854	-0.097186
H342	H	-0.030255	-0.164038	-0.167345
H343	H	-0.047834	-0.232081	-0.882358
H344	H	0.013347	-0.692513	-0.652885
C345	C	-0.292555	0.071637	0.074859
C346	C	-0.204093	0.065182	0.060829
C347	C	-0.163284	0.065610	0.015388
H348	H	-0.291297	0.126043	0.071829
H349	H	-0.326132	0.021885	0.056579
H350	H	-0.170524	0.114930	0.079104
H351	H	-0.205325	0.010779	0.063848
H352	H	-0.196862	0.015858	-0.002892
H353	H	-0.162033	0.120016	0.012362
H354	H	-0.103262	0.061222	0.005862
H355	H	0.280077	-0.749342	-0.022791
H356	H	0.003251	-0.391359	-0.619081
C357	C	-0.191759	0.058392	0.124058
C358	C	-0.185784	-0.022220	0.124383
C359	C	-0.096683	-0.028248	0.102577
H360	H	-0.152648	0.107830	0.139494
H361	H	-0.174487	0.059530	0.093604
H362	H	-0.203045	-0.023350	0.154832
H363	H	-0.224875	-0.071672	0.108944
H364	H	-0.079411	-0.027110	0.072122
H365	H	-0.057579	0.021194	0.118015
H366	H	-0.092618	-0.082946	0.102790
C367	C	-0.267667	0.019713	-0.142503
C368	C	-0.240674	-0.059985	-0.163737
C369	C	-0.191002	-0.064052	-0.139988
H370	H	-0.304169	0.020787	-0.112211
H371	H	-0.215767	0.069941	-0.142287
H372	H	-0.292566	-0.110199	-0.163948
H373	H	-0.204160	-0.061077	-0.194027
H374	H	-0.139102	-0.013824	-0.139773
H375	H	-0.227510	-0.062975	-0.109697
H376	H	-0.172674	-0.118122	-0.154395
H377	H	-0.023718	-0.530163	-0.918978
H378	H	-0.805083	0.098565	0.274011
H379	H	-0.005182	-0.254109	-0.622664
H380	H	-0.023809	-0.160979	-0.735279
C381	C	-0.263395	0.030130	0.352700
C382	C	-0.245951	0.103314	0.389882
C383	C	-0.200005	0.084210	0.410300
H384	H	-0.207907	0.019605	0.331346
H385	H	-0.299564	-0.021944	0.362690
H386	H	-0.209783	0.155372	0.379891
H387	H	-0.301423	0.113850	0.411246
H388	H	-0.236174	0.032136	0.420290
H389	H	-0.144520	0.073684	0.388942
H390	H	-0.188171	0.133858	0.435532
H391	H	-0.315470	0.043557	-0.411085
C392	C	0.232166	-0.210681	-0.033820
C393	C	0.155818	-0.208081	0.004301
C394	C	0.106087	-0.159059	0.003137
H395	H	0.213685	-0.238798	-0.060558
H396	H	0.268703	-0.151062	-0.033722
H397	H	0.119287	-0.267690	0.004199
H398	H	0.174273	-0.179958	0.031044
H399	H	0.142624	-0.099439	0.003234
H400	H	0.087612	-0.187180	-0.023603
H401	H	0.054283	-0.157281	0.029003
C402	C	-0.728687	0.051659	-0.099759
C403	C	-0.805236	-0.022067	-0.096343
C404	C	-0.845396	-0.022821	-0.050931
H405	H	-0.745959	0.105785	-0.082020
H406	H	-0.686730	0.047015	-0.089013
H407	H	-0.847185	-0.017416	-0.107083
H408	H	-0.787988	-0.076205	-0.114072
H409	H	-0.803439	-0.027464	-0.040185
H410	H	-0.862663	0.031309	-0.033196
H411	H	-0.897333	-0.072847	-0.048607
C412	C	-0.019463	-0.240794	-0.111818
C413	C	-0.098055	-0.212760	-0.085134
C414	C	-0.095441	-0.171571	-0.040239
H415	H	0.031893	-0.190117	-0.110754
H416	H	-0.015751	-0.282559	-0.100525
H417	H	-0.101758	-0.170997	-0.096424
H418	H	-0.149423	-0.263420	-0.086185
H419	H	-0.091729	-0.213336	-0.028946
H420	H	-0.044082	-0.120898	-0.039180
H421	H	-0.148767	-0.152552	-0.022128
C422	C	0.406730	-0.779943	-0.018457
C423	C	0.318178	-0.806263	-0.020474
C424	C	0.277986	-0.896084	-0.019706
H425	H	0.405712	-0.785779	0.008759
H426	H	0.440548	-0.817186	-0.043791
H427	H	0.284368	-0.769030	0.004859
H428	H	0.319170	-0.800448	-0.047688
H429	H	0.311805	-0.933327	-0.045041
H430	H	0.276975	-0.901912	0.007510
H431	H	0.217903	-0.913956	-0.021078
H432	H	-0.030422	-0.661858	-0.417434
H433	H	0.780178	-0.386331	-0.016193
C434	C	-0.010948	-0.781528	-0.311369
C435	C	-0.014631	-0.807188	-0.355777
C436	C	-0.011793	-0.896935	-0.376795
H437	H	-0.061068	-0.819060	-0.294859
H438	H	0.043610	-0.787464	-0.312021
H439	H	-0.069183	-0.801260	-0.355123
H440	H	0.035485	-0.769680	-0.372299
H441	H	0.042765	-0.902872	-0.377446
H442	H	-0.061914	-0.934459	-0.360281
H443	H	-0.014283	-0.914355	-0.406929
C444	C	-0.839725	0.072020	-0.216873
C445	C	-0.845968	0.152631	-0.217055
C446	C	-0.935052	0.158603	-0.195019
H447	H	-0.856677	0.070853	-0.186452
H448	H	-0.878969	0.022559	-0.232230
H449	H	-0.806736	0.202079	-0.201696
H450	H	-0.829034	0.153816	-0.247469
H451	H	-0.974296	0.109142	-0.210376
H452	H	-0.951996	0.157433	-0.164599
H453	H	-0.939301	0.213292	-0.195143
H454	H	-0.011621	-0.389765	-0.121028
H455	H	0.012418	-0.684570	-0.156900
H456	H	-0.453130	0.055597	-0.412328
H457	H	0.682288	-0.162154	-0.023969
H458	H	0.279916	-0.749353	-0.522691
H459	H	-0.746339	0.088530	-0.372795
C460	C	0.722239	-0.696877	-0.003625
C461	C	0.673019	-0.712770	0.038748
C462	C	0.714887	-0.758660	0.047852
H463	H	0.782012	-0.661446	-0.003384
H464	H	0.724241	-0.752670	-0.026431
H465	H	0.671027	-0.656987	0.061548
H466	H	0.613248	-0.748210	0.038518
H467	H	0.716889	-0.814453	0.025046
H468	H	0.774659	-0.723224	0.048090
H469	H	0.681493	-0.769457	0.076600
H470	H	-0.580066	0.039960	-0.110823
H471	H	0.544632	-0.155941	-0.028119
H472	H	-0.740818	0.102779	0.123104
H473	H	-0.020209	-0.749804	-0.374113
C474	C	0.406543	-0.779963	-0.518336
C475	C	0.317995	-0.806274	-0.520358
C476	C	0.277784	-0.896086	-0.519576
H477	H	0.405514	-0.785784	-0.491115
H478	H	0.440355	-0.817222	-0.543664
H479	H	0.284191	-0.769026	-0.495032
H480	H	0.318998	-0.800475	-0.547577
H481	H	0.311596	-0.933345	-0.544904
H482	H	0.276762	-0.901899	-0.492354
H483	H	0.217704	-0.913952	-0.520952
C484	C	-0.039608	-0.535410	-0.432604
C485	C	-0.035951	-0.624419	-0.445806
C486	C	-0.038788	-0.665773	-0.490661
H487	H	0.010522	-0.503503	-0.451936
H488	H	-0.094157	-0.535004	-0.434741
H489	H	0.018592	-0.624820	-0.443671
H490	H	-0.086077	-0.656351	-0.426486
H491	H	-0.093337	-0.665367	-0.492799
H492	H	0.011343	-0.633858	-0.509989
H493	H	-0.036316	-0.726172	-0.499623
H494	H	-0.572284	0.068372	0.387422
C495	C	0.232375	-0.210726	-0.534015
C496	C	0.275912	-0.180918	-0.572981
C497	C	0.226437	-0.131901	-0.574362
H498	H	0.228305	-0.160310	-0.507858
H499	H	0.173350	-0.248122	-0.534685
H500	H	0.334922	-0.143524	-0.572307
H501	H	0.279983	-0.231315	-0.599144
H502	H	0.167412	-0.169297	-0.575032
H503	H	0.222370	-0.081490	-0.548204
H504	H	0.255965	-0.111677	-0.600802
H505	H	-0.208057	0.053400	0.198770
C506	C	0.166897	-0.673914	-0.527649
C507	C	0.142319	-0.762819	-0.526384
C508	C	0.053177	-0.804756	-0.528035
H509	H	0.162352	-0.673774	-0.554909
H510	H	0.127641	-0.642198	-0.502358
H511	H	0.181564	-0.794527	-0.551672
H512	H	0.146844	-0.762984	-0.499126
H513	H	0.013921	-0.773040	-0.502744
H514	H	0.048640	-0.804610	-0.555295
H515	H	0.036487	-0.865080	-0.527173
C516	C	-0.821397	0.093548	0.348668
C517	C	-0.827354	0.174142	0.348314
C518	C	-0.916475	0.180135	0.370059
H519	H	-0.838770	0.092417	0.379125
H520	H	-0.860439	0.044075	0.333194
H521	H	-0.788325	0.223602	0.363789
H522	H	-0.809999	0.175291	0.317863
H523	H	-0.955517	0.130662	0.354585
H524	H	-0.933840	0.179001	0.400515
H525	H	-0.920530	0.234814	0.369818
H526	H	-0.038719	-0.156659	-0.235851
H527	H	0.182115	-0.525189	-0.530531
H528	H	0.710767	-0.684484	-0.506030
H529	H	0.780052	-0.386407	-0.516111
H530	H	-0.440845	0.083623	0.085362
C531	C	0.795238	-0.237654	-0.518945
C532	C	0.819807	-0.148736	-0.520190
C533	C	0.908914	-0.106770	-0.518484
H534	H	0.834556	-0.269311	-0.544215
H535	H	0.799694	-0.237832	-0.491667
H536	H	0.815359	-0.148562	-0.547464
H537	H	0.780513	-0.117055	-0.494921
H538	H	0.913369	-0.106949	-0.491206
H539	H	0.948223	-0.138435	-0.543755
H540	H	0.925593	-0.046433	-0.519324
