data_functionalizedCrystal
_audit_creation_method	'MofGen! by Chris Wilmer'
_symmetry_space_group_name_H-M	'P1'
_symmetry_Int_Tables_number	1
_symmetry_cell_setting	triclinic
loop_
_symmetry_equiv_pos_as_xyz
  x,y,z
_cell_length_a	17.637651
_cell_length_b	25.639243
_cell_length_c	17.639306
_cell_angle_alpha	101.227787
_cell_angle_beta	92.131371
_cell_angle_gamma	78.779139
loop_
_atom_site_label
_atom_site_type_symbol
_atom_site_fract_x
_atom_site_fract_y
_atom_site_fract_z
Zn1	Zn	-0.389168	-0.796522	-0.368209
Zn2	Zn	-0.490516	-0.762513	-0.215527
Zn3	Zn	-0.363525	-0.695546	-0.241234
Zn4	Zn	-0.516144	-0.688660	-0.342464
O5	O	-0.439838	-0.735810	-0.291858
O6	O	-0.402619	-0.865177	-0.347971
O7	O	-0.452213	-0.742279	-0.112674
O8	O	-0.260640	-0.726055	-0.279610
O9	O	-0.477079	-0.840191	-0.235796
O10	O	-0.279480	-0.800241	-0.372898
O11	O	-0.358913	-0.693078	-0.131560
O12	O	-0.383763	-0.621466	-0.254646
O13	O	-0.520758	-0.714319	-0.452142
O14	O	-0.495892	-0.616407	-0.329019
O15	O	-0.427469	-0.793565	-0.471057
O16	O	-0.600202	-0.735602	-0.210832
O17	O	-0.619031	-0.681343	-0.304092
C18	C	-0.439827	-0.599965	-0.291829
C19	C	-0.439844	-0.541849	-0.291831
C20	C	-0.637178	-0.704051	-0.251896
C21	C	-0.721606	-0.690514	-0.234825
C22	C	-0.401159	-0.194492	-0.350333
C23	C	-0.401159	-0.139888	-0.350337
O24	O	-0.368246	-0.122707	-0.400043
N25	N	-0.439839	-0.099574	-0.291879
C26	C	-0.478515	-0.113866	-0.233407
O27	O	-0.511415	-0.074562	-0.183684
C28	C	-0.478510	-0.168469	-0.233400
C29	C	-0.439834	-0.208781	-0.291867
C30	C	-0.362485	-0.234802	-0.408794
C31	C	-0.362486	-0.289402	-0.408790
C32	C	-0.401161	-0.303691	-0.350324
C33	C	-0.439835	-0.263380	-0.291863
C34	C	-0.517181	-0.182760	-0.174926
C35	C	-0.517172	-0.237368	-0.174924
C36	C	-0.478496	-0.277680	-0.233391
C37	C	-0.478511	-0.332269	-0.233393
N38	N	-0.439831	-0.372583	-0.291851
C39	C	-0.401156	-0.358294	-0.350317
C40	C	-0.478522	0.000803	-0.233426
C41	C	-0.478533	0.055406	-0.233436
C42	C	-0.401175	0.029380	-0.350365
C43	C	-0.401170	-0.025223	-0.350358
C44	C	-0.439842	-0.039511	-0.291885
C45	C	-0.401162	-0.472957	-0.350304
C46	C	-0.401169	-0.527560	-0.350296
C47	C	-0.478523	-0.501530	-0.233365
C48	C	-0.478519	-0.446931	-0.233375
C49	C	-0.439833	-0.432647	-0.291848
O50	O	-0.511404	-0.349491	-0.183710
O51	O	-0.368253	-0.397604	-0.400027
C52	C	-1.048081	-0.839010	-0.421782
C53	C	-1.127411	-0.826272	-0.405728
C54	C	-1.107881	-0.749056	-0.308493
C55	C	-1.028547	-0.761789	-0.324536
C56	C	-0.998654	-0.806766	-0.381182
C57	C	-0.979120	-0.729545	-0.283936
C58	C	-0.899793	-0.742275	-0.299981
C59	C	-0.869894	-0.787249	-0.356626
C60	C	-0.919327	-0.819496	-0.397227
C61	C	-1.009016	-0.684566	-0.227295
C62	C	-0.959589	-0.652322	-0.186695
C63	C	-0.880260	-0.665054	-0.202736
C64	C	-0.850360	-0.710028	-0.259380
C65	C	-0.830827	-0.632807	-0.162135
C66	C	-0.751500	-0.645537	-0.178179
C67	C	-0.771034	-0.722758	-0.275425
C68	C	-0.241731	-0.767710	-0.331993
C69	C	-0.157309	-0.781304	-0.349096
C70	C	-0.479832	-0.756967	-0.489923
C71	C	-0.496876	-0.765983	-0.574326
C72	C	-0.439850	0.127814	-0.291888
C73	C	-0.439854	0.069699	-0.291900
C74	C	-0.310080	-0.667566	-0.901101
C75	C	-0.326111	-0.676047	-0.980408
C76	C	-0.423254	-0.727274	-0.960723
C77	C	-0.407229	-0.718800	-0.881414
C78	C	-0.350642	-0.688945	-0.851609
C79	C	-0.447790	-0.740179	-0.831922
C80	C	-0.431769	-0.731702	-0.752619
C81	C	-0.375186	-0.701847	-0.722808
C82	C	-0.334621	-0.680469	-0.772307
C83	C	-0.504381	-0.770030	-0.861727
C84	C	-0.544943	-0.791409	-0.812235
C85	C	-0.528918	-0.782936	-0.732932
C86	C	-0.472335	-0.753081	-0.703121
C87	C	-0.569484	-0.804315	-0.683433
C88	C	-0.553463	-0.795838	-0.604130
C89	C	-0.456314	-0.744605	-0.623818
C90	C	-0.399945	-0.714774	-0.094575
C91	C	-0.382688	-0.705894	-0.010216
H92	H	-0.369674	-0.560382	-0.397910
F93	F	-0.396080	-0.712835	-0.592095
F94	F	-0.360004	-0.068122	-0.412585
H95	H	-0.510037	0.088225	-0.185833
H96	H	-0.263993	-0.643262	-0.876835
F97	F	-0.629713	-0.836081	-0.715162
F98	F	-0.519690	-0.014396	-0.171189
H99	H	-0.369657	-0.461335	-0.397917
F100	F	-0.558332	-0.139869	-0.112688
F101	F	-0.739213	-0.770633	-0.335706
F102	F	-1.180013	-0.860596	-0.448941
H103	H	-0.805301	-0.797613	-0.369688
F104	F	-0.558334	-0.252569	-0.112687
H105	H	-0.517422	-0.776932	-0.926302
F106	F	-0.862654	-0.584936	-0.101860
F107	F	-0.887506	-0.867370	-0.457507
H108	H	-0.330991	-0.322221	-0.456399
H109	H	-1.023740	-0.875638	-0.467903
F110	F	-1.139706	-0.701187	-0.248214
H111	H	-1.073611	-0.674199	-0.214240
F112	F	-0.519705	-0.404026	-0.171164
H113	H	-0.983940	-0.615701	-0.140576
F114	F	-0.519683	-0.516747	-0.171146
F115	F	-0.321318	-0.219605	-0.471027
H116	H	-0.369682	0.041023	-0.397970
F117	F	-0.698893	-0.611221	-0.134967
F118	F	-0.358140	-0.692821	-0.638405
H119	H	-0.288534	-0.656164	-0.748040
H120	H	-0.293073	-0.658638	-1.020703
H121	H	-0.469330	-0.751580	-0.985000
F122	F	-0.605168	-0.823179	-0.843963
H123	H	-0.586482	-0.813256	-0.563834
