data_functionalizedCrystal
_audit_creation_method	'MofGen! by Chris Wilmer'
_symmetry_space_group_name_H-M	'P1'
_symmetry_Int_Tables_number	1
_symmetry_cell_setting	triclinic
loop_
_symmetry_equiv_pos_as_xyz
  x,y,z
_cell_length_a	18.215407
_cell_length_b	13.032721
_cell_length_c	18.215399
_cell_angle_alpha	97.154738
_cell_angle_beta	89.980167
_cell_angle_gamma	97.205008
loop_
_atom_site_label
_atom_site_type_symbol
_atom_site_fract_x
_atom_site_fract_y
_atom_site_fract_z
Zn1	Zn	1.087881	-0.416041	-0.453320
Zn2	Zn	1.072167	-0.590804	-0.345882
Zn3	Zn	0.964810	-0.416075	-0.330271
Zn4	Zn	0.949162	-0.590746	-0.468902
O5	O	1.018505	-0.503417	-0.399594
O6	O	1.188780	-0.439234	-0.439081
O7	O	1.057898	-0.567665	-0.240831
O8	O	0.994261	-0.269831	-0.333539
O9	O	1.177235	-0.567632	-0.360147
O10	O	1.084681	-0.269806	-0.423943
O11	O	0.979024	-0.439292	-0.229361
O12	O	0.859751	-0.439236	-0.348648
O13	O	0.967591	-0.567533	-0.569816
O14	O	0.848254	-0.567566	-0.450500
O15	O	1.069507	-0.439177	-0.558368
O16	O	1.042724	-0.737036	-0.375256
O17	O	0.952353	-0.736993	-0.465638
C18	C	0.827300	-0.503399	-0.399571
C19	C	0.745500	-0.503416	-0.399581
C20	C	0.551329	-0.570343	-0.452566
C21	C	0.474470	-0.570346	-0.452575
C22	C	0.486431	-0.436510	-0.346640
C23	C	0.563289	-0.436502	-0.346634
C24	C	0.595736	-0.503424	-0.399597
C25	C	0.442019	-0.503435	-0.399612
C26	C	0.358685	-0.503438	-0.399621
C27	C	0.679075	-0.503420	-0.399588
C28	C	0.994156	-0.774933	-0.423847
C29	C	0.983806	-0.891089	-0.434248
C30	C	1.023945	-0.942861	-0.394199
C31	C	1.013250	-1.062914	-0.404947
C32	C	1.210456	-0.503435	-0.399617
C33	C	1.292254	-0.503443	-0.399627
C34	C	1.018556	-0.503345	-0.591540
C35	C	1.018578	-0.503314	-0.673337
C36	C	1.042969	-0.230840	-0.375262
C37	C	1.053395	-0.114684	-0.364893
C38	C	1.071668	-0.436417	-0.855565
C39	C	1.071680	-0.436386	-0.932421
C40	C	0.965554	-0.570049	-0.944331
C41	C	0.965540	-0.570074	-0.867476
C42	C	1.018601	-0.503259	-0.823095
C43	C	1.018627	-0.503204	-0.976807
C44	C	1.018639	-0.503172	-1.060137
C45	C	1.018589	-0.503290	-0.739759
C46	C	1.018503	-0.503413	-0.208387
C47	C	1.018650	-0.503149	-0.126565
H48	H	0.577745	-0.624833	-0.495693
H49	H	1.114891	-0.381955	-0.958854
C50	C	0.611457	-0.363973	-0.289009
C51	C	0.590720	-0.386618	-0.218191
C52	C	0.635082	-0.319836	-0.165094
H53	H	0.605195	-0.293740	-0.293487
H54	H	0.661884	-0.373561	-0.296544
H55	H	0.540305	-0.377021	-0.210658
H56	H	0.596985	-0.456839	-0.213689
H57	H	0.685509	-0.329424	-0.172629
H58	H	0.628817	-0.249607	-0.169579
H59	H	0.621023	-0.335197	-0.117038
C60	C	0.451144	-0.364033	-0.289063
C61	C	0.401717	-0.423125	-0.247095
C62	C	0.369205	-0.356395	-0.194042
H63	H	0.425192	-0.318534	-0.313120
H64	H	0.488574	-0.324191	-0.257474
H65	H	0.364292	-0.462948	-0.278680
H66	H	0.427650	-0.468620	-0.223022
H67	H	0.406635	-0.316554	-0.162453
H68	H	0.343257	-0.310900	-0.218105
H69	H	0.335670	-0.396480	-0.165556
H70	H	1.114872	-0.382009	-0.819432
H71	H	0.922355	-0.624450	-0.980476
H72	H	0.438318	-0.624836	-0.495709
C73	C	0.907884	-0.642767	-0.832360
C74	C	0.861434	-0.701301	-0.887677
C75	C	0.808321	-0.768280	-0.855357
H76	H	0.879325	-0.602914	-0.798813
H77	H	0.931925	-0.688365	-0.806468
H78	H	0.837395	-0.655709	-0.913557
H79	H	0.889971	-0.741175	-0.921228
H80	H	0.832362	-0.813878	-0.829465
H81	H	0.779768	-0.728419	-0.821810
H82	H	0.776803	-0.808010	-0.892885
H83	H	1.066232	-0.898309	-0.351957
H84	H	0.970967	-1.107465	-0.447198
C85	C	1.109715	-1.055105	-0.308568
C86	C	1.109111	-0.947875	-0.309084
C87	C	1.160974	-0.892959	-0.257202
H88	H	1.157626	-1.072746	-0.320903
H89	H	1.097386	-1.072941	-0.260681
H90	H	1.121445	-0.930047	-0.356960
H91	H	1.061213	-0.930204	-0.296741
H92	H	1.148645	-0.910795	-0.209315
H93	H	1.208881	-0.910608	-0.269542
H94	H	1.160566	-0.820199	-0.257540
C95	C	0.927436	-0.950674	-0.490516
C96	C	0.928018	-1.057904	-0.489973
C97	C	0.876092	-1.112823	-0.541792
H98	H	0.939703	-0.932904	-0.538423
H99	H	0.879545	-0.932971	-0.478119
H100	H	0.975898	-1.075600	-0.502375
H101	H	0.915743	-1.075704	-0.442079
H102	H	0.828201	-1.095119	-0.529395
H103	H	0.888363	-1.095044	-0.589696
H104	H	0.876475	-1.185583	-0.541426
