data_functionalizedCrystal
_audit_creation_method	'MofGen! by Chris Wilmer'
_symmetry_space_group_name_H-M	'P1'
_symmetry_Int_Tables_number	1
_symmetry_cell_setting	triclinic
loop_
_symmetry_equiv_pos_as_xyz
  x,y,z
_cell_length_a	11.169416
_cell_length_b	12.759401
_cell_length_c	12.759393
_cell_angle_alpha	89.980441
_cell_angle_beta	90.028644
_cell_angle_gamma	89.991510
loop_
_atom_site_label
_atom_site_type_symbol
_atom_site_fract_x
_atom_site_fract_y
_atom_site_fract_z
Zn1	Zn	-0.477796	-1.606287	0.594032
Zn2	Zn	-0.678528	-1.606195	0.418362
Zn3	Zn	-0.477851	-1.430589	0.418369
Zn4	Zn	-0.678429	-1.430591	0.594000
O5	O	-0.578151	-1.518416	0.506191
O6	O	-0.504441	-1.753296	0.570740
O7	O	-0.651973	-1.582861	0.271341
O8	O	-0.309894	-1.453934	0.441687
O9	O	-0.651919	-1.753228	0.441675
O10	O	-0.309853	-1.583018	0.570747
O11	O	-0.504537	-1.453844	0.271347
O12	O	-0.504440	-1.283568	0.441656
O13	O	-0.651749	-1.453937	0.741025
O14	O	-0.651804	-1.283570	0.570691
O15	O	-0.504345	-1.583020	0.741049
O16	O	-0.846465	-1.582863	0.441644
O17	O	-0.846392	-1.453848	0.570684
C18	C	-0.578118	-1.245448	0.506171
C19	C	-0.578133	-1.128672	0.506188
C20	C	-0.654986	-1.073838	0.573265
C21	C	-0.654996	-0.964114	0.573274
C22	C	-0.501298	-0.964067	0.439121
C23	C	-0.501282	-1.073789	0.439118
C24	C	-0.743726	-1.073864	0.650714
C25	C	-0.743737	-0.964140	0.650723
C26	C	-0.889976	-1.518374	0.506183
C27	C	-1.023376	-1.518452	0.506214
C28	C	-0.265109	-1.518486	0.506222
C29	C	-0.131709	-1.518516	0.506235
C30	C	-0.578030	-1.518489	0.780224
C31	C	-0.577978	-1.518521	0.897001
C32	C	-0.578175	-0.792449	0.506206
C33	C	-0.578160	-0.909226	0.506201
C34	C	-0.578185	-1.518403	0.233223
C35	C	-0.577899	-1.518575	0.116447
C36	C	-0.501218	-1.585743	0.951877
C37	C	-0.501174	-1.585768	1.061601
C38	C	-0.654663	-1.451345	1.061563
C39	C	-0.654699	-1.451315	0.951841
C40	C	-0.412606	-1.663355	0.951900
C41	C	-0.412562	-1.663380	1.061624
H42	H	-0.438693	-1.118431	0.384504
H43	H	-0.438728	-0.919368	0.384516
C44	C	-0.294625	-1.542924	0.850730
C45	C	-0.287140	-1.633952	0.911710
H46	H	-0.217171	-1.524777	0.825915
H47	H	-0.325476	-1.487248	0.892083
H48	H	-0.346293	-1.555021	0.792826
H49	H	-0.235479	-1.621852	0.969619
H50	H	-0.256272	-1.689640	0.870355
C51	C	-0.299318	-1.626060	1.217191
C52	C	-0.293349	-1.624067	1.107594
H53	H	-0.225728	-1.601777	1.245570
H54	H	-0.313626	-1.695749	1.240183
H55	H	-0.362640	-1.581992	1.240148
H56	H	-0.230032	-1.668142	1.084637
H57	H	-0.279027	-1.554367	1.084593
C58	C	-0.466632	-1.839814	1.016482
C59	C	-0.446187	-1.773221	1.101838
H60	H	-0.487398	-1.907618	1.041311
H61	H	-0.396120	-1.844252	0.975140
H62	H	-0.530260	-1.812739	0.975117
H63	H	-0.382554	-1.800292	1.143199
H64	H	-0.516708	-1.768786	1.143197
C65	C	-0.689963	-1.028778	0.827254
C66	C	-0.710255	-1.114113	0.760602
H67	H	-0.669293	-1.053629	0.895090
H68	H	-0.760504	-0.987427	0.831577
H69	H	-0.626314	-0.987416	0.800305
H70	H	-0.773910	-1.155471	0.787547
H71	H	-0.639706	-1.155482	0.756282
H72	H	-0.831976	-1.107884	0.621434
H73	H	-0.717201	-1.396572	0.907165
C74	C	-0.945247	-1.009263	0.603137
C75	C	-0.869178	-0.923915	0.621113
H76	H	-1.022682	-0.984427	0.584852
H77	H	-0.950382	-1.050643	0.664865
H78	H	-0.914271	-1.050593	0.547488
H79	H	-0.900149	-0.882589	0.676767
H80	H	-0.864046	-0.882518	0.559377
H81	H	-0.717123	-1.396626	1.106227
H82	H	-0.710557	-0.930140	0.728073
H83	H	-0.445929	-1.740629	0.917867
