data_functionalizedCrystal
_audit_creation_method	'MofGen! by Chris Wilmer'
_symmetry_space_group_name_H-M	'P1'
_symmetry_Int_Tables_number	1
_symmetry_cell_setting	triclinic
loop_
_symmetry_equiv_pos_as_xyz
  x,y,z
_cell_length_a	15.624803
_cell_length_b	15.538191
_cell_length_c	14.048226
_cell_angle_alpha	89.996115
_cell_angle_beta	71.907567
_cell_angle_gamma	66.736403
loop_
_atom_site_label
_atom_site_type_symbol
_atom_site_fract_x
_atom_site_fract_y
_atom_site_fract_z
O1	O	1.156123	0.122867	-0.478341
O2	O	0.888823	0.137528	-0.386048
O3	O	1.074505	-0.006867	-0.450165
O4	O	0.970441	0.267262	-0.414224
O5	O	1.074491	-0.006876	-0.291839
O6	O	0.888809	0.137519	-0.227722
O7	O	1.156109	0.122858	-0.320015
Zn8	Zn	1.022457	0.130187	-0.248731
Zn9	Zn	1.022475	0.130199	-0.457332
O10	O	0.970427	0.267253	-0.255898
C11	C	0.855441	0.136862	-0.295361
C12	C	0.755999	0.134879	-0.261026
C13	C	0.429095	0.128331	-0.579722
C14	C	0.335663	0.126450	-0.547460
C15	C	0.335625	0.126440	-0.374852
C16	C	0.429062	0.128317	-0.407100
C17	C	0.475789	0.129263	-0.509536
C18	C	0.475755	0.129249	-0.336913
C19	C	0.569181	0.131130	-0.369158
C20	C	0.615914	0.132080	-0.471590
C21	C	0.569215	0.131145	-0.541781
C22	C	0.429023	0.128309	-0.234477
C23	C	0.475716	0.129241	-0.164290
C24	C	0.569147	0.131116	-0.196536
C25	C	0.615880	0.132066	-0.298967
C26	C	0.615846	0.132051	-0.126345
C27	C	0.709272	0.133933	-0.158590
C28	C	0.709306	0.133947	-0.331213
C29	C	1.085386	-0.041953	-0.374764
C30	C	1.117817	-0.146487	-0.385972
C31	C	0.795620	-0.434679	-0.274703
C32	C	0.826117	-0.532907	-0.285231
C33	C	0.997655	-0.555136	-0.344460
C34	C	0.967173	-0.456908	-0.333942
C35	C	0.866154	-0.396687	-0.299062
C36	C	1.037706	-0.418916	-0.358300
C37	C	1.007226	-0.320697	-0.347778
C38	C	0.906212	-0.260469	-0.312897
C39	C	0.835673	-0.298468	-0.288539
C40	C	1.138724	-0.479139	-0.393173
C41	C	1.209258	-0.441146	-0.417532
C42	C	1.178778	-0.342925	-0.407017
C43	C	1.077764	-0.282698	-0.372135
C44	C	1.249316	-0.304927	-0.431374
C45	C	1.218836	-0.206708	-0.420852
C46	C	1.047283	-0.184479	-0.361613
C47	C	1.189490	0.123524	-0.410704
C48	C	1.288932	0.125507	-0.445045
C49	C	0.959546	0.302339	-0.331301
C50	C	0.927114	0.406873	-0.320100
N51	N	1.022451	0.130179	-0.106368
N52	N	1.022490	0.130199	-0.599698
C53	C	1.104681	0.066268	-0.084945
C54	C	1.104688	0.066267	0.014711
C55	C	1.022465	0.130183	0.092940
C56	C	0.940227	0.194098	0.071513
C57	C	0.940219	0.194093	-0.028140
C58	C	0.940251	0.194105	0.279219
C59	C	0.940260	0.194111	0.378878
C60	C	1.104720	0.066279	0.322070
C61	C	1.104712	0.066274	0.222417
C62	C	1.022474	0.130190	0.200996
H63	H	0.437657	0.128474	-0.080886
H64	H	0.965024	-0.135443	-0.333217
H65	H	0.297647	0.125694	-0.604622
C66	C	1.195134	-0.004047	-0.170991
N67	N	1.263264	-0.057014	-0.235798
C68	C	0.326254	0.126233	-0.199010
N69	N	0.248849	0.124665	-0.172298
H70	H	1.171680	0.014236	0.339516
H71	H	0.753414	-0.249432	-0.260143
C72	C	0.849776	0.264398	0.157571
N73	N	0.781646	0.317349	0.222390
C74	C	0.564430	0.131017	-0.013667
N75	N	0.525704	0.130238	0.071203
C76	C	0.849807	0.264417	0.464932
N77	N	0.781676	0.317371	0.529748
C78	C	0.849764	0.264408	-0.051705
N79	N	0.781630	0.317373	-0.069452
C80	C	0.872682	-0.152424	-0.301323
N81	N	0.847428	-0.071045	-0.292608
H82	H	1.171646	0.014225	0.032151
C83	C	0.684494	-0.368430	-0.236334
N84	N	0.600797	-0.318532	-0.207432
C85	C	0.620620	0.132186	-0.654466
N86	N	0.659337	0.132974	-0.739337
H87	H	0.873282	0.246149	0.261785
C88	C	0.718687	0.134148	-0.507060
N89	N	0.796096	0.135704	-0.533777
C90	C	0.480501	0.129372	-0.692407
N91	N	0.519218	0.130160	-0.777278
C92	C	0.760640	0.134954	-0.081382
N93	N	0.799329	0.135726	-0.023227
H94	H	0.768672	-0.563835	-0.265378
C95	C	1.108773	-0.621389	-0.382828
N96	N	1.192469	-0.671291	-0.411731
C97	C	1.320376	-0.507400	-0.455900
N98	N	1.404072	-0.557301	-0.484803
H99	H	1.163538	-0.559114	-0.401748
H100	H	1.171666	0.014233	0.158720
C101	C	1.360433	-0.371183	-0.469733
N102	N	1.444128	-0.421086	-0.498625
H103	H	0.747355	0.134715	-0.414627
H104	H	0.297566	0.125672	-0.291447
C105	C	1.296426	-0.164914	-0.447653
N106	N	1.354870	-0.133435	-0.467838
