data_functionalizedCrystal
_audit_creation_method	'MofGen! by Chris Wilmer'
_symmetry_space_group_name_H-M	'P1'
_symmetry_Int_Tables_number	1
_symmetry_cell_setting	triclinic
loop_
_symmetry_equiv_pos_as_xyz
  x,y,z
_cell_length_a	21.395364
_cell_length_b	14.908178
_cell_length_c	21.395355
_cell_angle_alpha	93.314561
_cell_angle_beta	90.024552
_cell_angle_gamma	93.328811
loop_
_atom_site_label
_atom_site_type_symbol
_atom_site_fract_x
_atom_site_fract_y
_atom_site_fract_z
Zn1	Zn	0.943529	-0.358933	0.339876
Zn2	Zn	0.937409	-0.509786	0.229052
Zn3	Zn	0.838743	-0.358972	0.235111
Zn4	Zn	0.832690	-0.509802	0.333791
O5	O	0.888093	-0.434373	0.284457
O6	O	1.030396	-0.378920	0.325185
O7	O	0.924292	-0.489790	0.142177
O8	O	0.857737	-0.232712	0.254090
O9	O	1.025900	-0.489751	0.243764
O10	O	0.934723	-0.232683	0.331060
O11	O	0.851803	-0.378988	0.146629
O12	O	0.750261	-0.379003	0.248190
O13	O	0.847421	-0.489779	0.422277
O14	O	0.745814	-0.489817	0.320691
O15	O	0.928854	-0.378936	0.426747
O16	O	0.918424	-0.636043	0.237864
O17	O	0.841487	-0.636055	0.314816
C18	C	0.725303	-0.434417	0.284438
C19	C	0.655660	-0.434457	0.284444
C20	C	0.625307	-0.376842	0.326898
C21	C	0.559873	-0.376818	0.326902
C22	C	0.524793	-0.434426	0.284456
C23	C	0.555154	-0.492045	0.241994
C24	C	0.620588	-0.492061	0.241988
C25	C	0.417825	-0.515676	0.276162
C26	C	0.352393	-0.515662	0.276173
C27	C	0.322975	-0.434376	0.284472
C28	C	0.358997	-0.353102	0.292774
C29	C	0.424431	-0.353118	0.292768
C30	C	0.453842	-0.434414	0.284458
C31	C	0.221670	-0.376730	0.326933
C32	C	0.156235	-0.376704	0.326932
C33	C	0.151517	-0.491939	0.242027
C34	C	0.216952	-0.491956	0.242025
C35	C	0.252024	-0.434353	0.284481
C36	C	0.878651	-0.668785	0.275036
C37	C	0.874670	-0.769068	0.271026
C38	C	0.947293	-0.957329	0.343727
C39	C	0.943554	-1.051553	0.339962
C40	C	0.863450	-1.051742	0.259734
C41	C	0.867189	-0.957518	0.263499
C42	C	0.909112	-0.910315	0.305496
C43	C	0.912854	-0.816088	0.309258
C44	C	0.832748	-0.816279	0.229034
C45	C	0.829009	-0.910504	0.225269
C46	C	1.051518	-0.434330	0.284477
C47	C	1.121160	-0.434311	0.284486
C48	C	0.888146	-0.434355	0.447881
C49	C	0.888168	-0.434347	0.517523
C50	C	0.897588	-0.199046	0.293929
C51	C	0.901634	-0.098763	0.297966
C52	C	0.888079	-0.434326	0.121672
C53	C	0.888188	-0.434080	0.052041
C54	C	0.930569	-0.376629	0.552565
C55	C	0.930569	-0.376590	0.618002
C56	C	0.888175	-0.434286	0.648394
C57	C	0.845767	-0.492008	0.613344
C58	C	0.845763	-0.492039	0.547909
C59	C	0.879956	-0.515525	0.748803
C60	C	0.879964	-0.515495	0.814238
C61	C	0.888183	-0.434190	0.850219
C62	C	0.896407	-0.352912	0.820758
C63	C	0.896404	-0.352942	0.755322
C64	C	0.888174	-0.434258	0.719347
C65	C	0.930587	-0.376425	0.956215
C66	C	0.930583	-0.376385	1.021653
C67	C	0.845784	-0.491811	1.016994
C68	C	0.845784	-0.491843	0.951557
C69	C	0.888189	-0.434151	0.921171
H70	H	0.241665	-0.538877	0.207457
H71	H	0.526589	-0.538948	0.207435
C72	C	0.993397	-0.905402	0.389928
H73	H	1.015596	-0.946899	0.412163
H74	H	1.022170	-0.868608	0.367466
H75	H	0.970859	-0.868676	0.418672
C76	C	0.985555	-1.103266	0.382011
H77	H	1.011061	-1.061655	0.407557
H78	H	0.960116	-1.140046	0.407818
H79	H	1.011414	-1.139991	0.356597
C80	C	0.905448	-0.263468	0.860325
H81	H	0.910349	-0.215071	0.833408
H82	H	0.869861	-0.255533	0.886153
H83	H	0.941724	-0.264620	0.885820
C84	C	0.790748	-0.764566	0.186976
H85	H	0.765250	-0.806177	0.161422
H86	H	0.764893	-0.727831	0.212379
H87	H	0.816198	-0.727796	0.161167
C88	C	0.817333	-1.103672	0.213547
H89	H	0.795123	-1.062179	0.191320
H90	H	0.839853	-1.140417	0.184805
H91	H	0.788560	-1.140448	0.236029
H92	H	0.965097	-0.329651	0.527829
H93	H	0.323068	-0.581840	0.269416
H94	H	0.965096	-0.329584	0.646538
C95	C	0.450182	-0.605094	0.267029
H96	H	0.494310	-0.593464	0.268207
H97	H	0.437934	-0.643118	0.299541
H98	H	0.438270	-0.633855	0.227693
H99	H	0.903098	-0.286763	0.731338
H100	H	0.645301	-0.538979	0.207415
C101	C	0.977223	-0.312963	0.922785
H102	H	0.971155	-0.321257	0.878795
H103	H	0.970500	-0.252340	0.935932
H104	H	1.018791	-0.326157	0.932999
C105	C	0.977227	-0.312892	1.060199
H106	H	1.002483	-0.278546	1.032728
H107	H	0.954850	-0.273570	1.087291
H108	H	1.003134	-0.347395	1.084353
C109	C	0.112938	-0.555310	0.195341
H110	H	0.069620	-0.547054	0.201428
H111	H	0.124178	-0.542026	0.153791
H112	H	0.121205	-0.615954	0.202011
H113	H	0.811248	-0.538981	0.638094
H114	H	0.811260	-0.538778	1.041739
C115	C	0.799148	-0.555340	0.913009
H116	H	0.773901	-0.589702	0.940479
H117	H	0.773240	-0.520847	0.888854
H118	H	0.821531	-0.594661	0.885918
C119	C	0.464056	-0.263727	0.301894
H120	H	0.507237	-0.275383	0.300706
H121	H	0.454860	-0.225699	0.269384
H122	H	0.454522	-0.234957	0.341232
C123	C	0.782895	-0.962428	0.179075
H124	H	0.760690	-0.920930	0.156849
H125	H	0.805419	-0.999168	0.150333
H126	H	0.754119	-0.999208	0.201551
C127	C	0.870926	-0.604895	0.846642
H128	H	0.872115	-0.593235	0.890766
H129	H	0.831617	-0.633762	0.834750
H130	H	0.903482	-0.642839	0.834407
H131	H	0.131523	-0.329782	0.361502
H132	H	0.873096	-0.581716	0.719514
C133	C	0.958958	-0.764166	0.355461
H134	H	0.981154	-0.805664	0.377697
H135	H	0.987735	-0.727374	0.333001
H136	H	0.936420	-0.727436	0.384204
C137	C	0.526476	-0.313449	0.373610
H138	H	0.556736	-0.279152	0.398897
H139	H	0.502532	-0.274078	0.351279
H140	H	0.499565	-0.348034	0.399480
C141	C	0.799124	-0.555533	0.509358
H142	H	0.805193	-0.547286	0.466035
H143	H	0.805846	-0.616146	0.517657
H144	H	0.757557	-0.542327	0.520592
C145	C	0.663886	-0.313481	0.373595
H146	H	0.707204	-0.321746	0.367516
H147	H	0.655620	-0.252838	0.366938
H148	H	0.652643	-0.326784	0.415145
C149	C	0.326647	-0.263683	0.301906
H150	H	0.282518	-0.275309	0.300715
H151	H	0.338557	-0.234920	0.341238
H152	H	0.338898	-0.225660	0.269391
C153	C	0.260253	-0.313363	0.373627
H154	H	0.232802	-0.279035	0.398906
H155	H	0.284387	-0.347940	0.399496
H156	H	0.287365	-0.274006	0.351280
