data_functionalizedCrystal
_audit_creation_method	'MofGen! by Chris Wilmer'
_symmetry_space_group_name_H-M	'P1'
_symmetry_Int_Tables_number	1
_symmetry_cell_setting	triclinic
loop_
_symmetry_equiv_pos_as_xyz
  x,y,z
_cell_length_a	11.169417
_cell_length_b	16.959454
_cell_length_c	11.169409
_cell_angle_alpha	90.032943
_cell_angle_beta	90.019824
_cell_angle_gamma	90.020954
loop_
_atom_site_label
_atom_site_type_symbol
_atom_site_fract_x
_atom_site_fract_y
_atom_site_fract_z
Zn1	Zn	1.834881	-0.314599	0.678538
Zn2	Zn	2.168214	0.018734	1.011871
Zn3	Zn	2.501548	0.352068	1.345204
Zn4	Zn	1.834736	-0.446806	0.477852
Zn5	Zn	2.168070	-0.113472	0.811186
Zn6	Zn	2.501403	0.219861	1.144519
Zn7	Zn	1.634167	-0.314647	0.477872
Zn8	Zn	1.967500	0.018686	0.811205
Zn9	Zn	2.300834	0.352019	1.144539
Zn10	Zn	1.634140	-0.446741	0.678497
Zn11	Zn	1.967474	-0.113408	1.011831
Zn12	Zn	2.300807	0.219925	1.345164
O13	O	1.734481	-0.380698	0.578190
O14	O	2.067815	-0.047365	0.911523
O15	O	2.401148	0.285968	1.244857
O16	O	2.002812	-0.332143	0.651925
O17	O	2.336145	0.001190	0.985258
O18	O	2.669478	0.334523	1.318592
O19	O	1.808081	-0.429322	0.309905
O20	O	2.141414	-0.095988	0.643239
O21	O	2.474748	0.237345	0.976572
O22	O	1.660864	-0.204030	0.504516
O23	O	1.994197	0.129303	0.837849
O24	O	2.327531	0.462637	1.171183
O25	O	2.002705	-0.429275	0.504482
O26	O	2.336039	-0.095942	0.837816
O27	O	2.669372	0.237392	1.171149
O28	O	1.808328	-0.203995	0.651944
O29	O	2.141661	0.129339	0.985277
O30	O	2.474994	0.462672	1.318611
O31	O	1.660724	-0.332225	0.309920
O32	O	1.994057	0.001108	0.643253
O33	O	2.327390	0.334441	0.976586
O34	O	1.466214	-0.332163	0.504477
O35	O	1.799547	0.001170	0.837810
O36	O	2.132880	0.334504	1.171143
O37	O	1.660819	-0.429165	0.846452
O38	O	1.994152	-0.095832	1.179786
O39	O	2.327485	0.237501	1.513119
O40	O	1.466194	-0.429212	0.651875
O41	O	1.799528	-0.095879	0.985209
O42	O	2.132861	0.237455	1.318542
O43	O	1.808302	-0.332081	0.846482
O44	O	2.141635	0.001252	1.179815
O45	O	2.474969	0.334586	1.513149
O46	O	1.808055	-0.557408	0.504443
O47	O	2.141389	-0.224075	0.837777
O48	O	2.474722	0.109259	1.171110
O49	O	1.660678	-0.557361	0.651856
O50	O	1.994012	-0.224028	0.985190
O51	O	2.327345	0.109306	1.318523
C52	C	1.422657	-0.380686	0.578174
C53	C	1.755990	-0.047353	0.911508
C54	C	2.089323	0.285980	1.244841
C55	C	1.289257	-0.380700	0.578196
C56	C	1.622590	-0.047367	0.911530
C57	C	1.955923	0.285966	1.244863
C58	C	1.734381	-0.586065	0.578169
C59	C	2.067714	-0.252731	0.911503
C60	C	2.401047	0.080602	1.244836
C61	C	1.734447	-0.673921	0.578201
C62	C	2.067781	-0.340588	0.911534
C63	C	2.401114	-0.007255	1.244868
C64	C	1.657853	-1.045402	0.654940
C65	C	1.991187	-0.712069	0.988273
C66	C	2.324520	-0.378735	1.321606
C67	C	1.811443	-1.045391	0.501562
C68	C	2.144777	-0.712058	0.834896
C69	C	2.478110	-0.378725	1.168229
C70	C	1.811401	-0.962846	0.501551
C71	C	2.144735	-0.629512	0.834885
C72	C	2.478068	-0.296179	1.168218
C73	C	1.734583	-0.921574	0.578234
C74	C	2.067916	-0.588241	0.911568
C75	C	2.401250	-0.254907	1.244901
C76	C	1.657807	-0.962849	0.654928
C77	C	1.991140	-0.629515	0.988262
C78	C	2.324473	-0.296182	1.321595
C79	C	1.888168	-0.921565	0.424850
C80	C	2.221501	-0.588232	0.758184
C81	C	2.554835	-0.254898	1.091517
C82	C	1.888128	-0.839014	0.424835
C83	C	2.221461	-0.505681	0.758168
C84	C	2.554795	-0.172347	1.091502
C85	C	1.811315	-0.797741	0.501525
C86	C	2.144648	-0.464408	0.834858
C87	C	2.477982	-0.131074	1.168192
C88	C	1.734536	-0.839021	0.578223
C89	C	2.067870	-0.505687	0.911556
C90	C	2.401203	-0.172354	1.244890
C91	C	1.657718	-0.797749	0.654906
C92	C	1.991051	-0.464416	0.988239
C93	C	2.324384	-0.131083	1.321573
C94	C	1.580944	-0.839027	0.731611
C95	C	1.914278	-0.505694	1.064944
C96	C	2.247611	-0.172361	1.398278
C97	C	1.580993	-0.921576	0.731618
C98	C	1.914327	-0.588242	1.064952
C99	C	2.247660	-0.254909	1.398285
C100	C	1.811266	-0.715193	0.501518
C101	C	2.144599	-0.381859	0.834851
C102	C	2.477933	-0.048526	1.168185
C103	C	1.657671	-0.715196	0.654895
C104	C	1.991004	-0.381862	0.988228
C105	C	2.324338	-0.048529	1.321562
C106	C	2.047524	-0.380711	0.578206
C107	C	2.380857	-0.047378	0.911539
C108	C	2.714190	0.285956	1.244873
C109	C	2.180924	-0.380716	0.578213
C110	C	2.514257	-0.047383	0.911546
C111	C	2.847590	0.285950	1.244880
C112	C	1.734573	-0.380611	0.891232
C113	C	2.067907	-0.047277	1.224566
C114	C	2.401240	0.286056	1.557899
C115	C	1.734613	-0.380573	1.024633
C116	C	2.067946	-0.047240	1.357966
C117	C	2.401279	0.286093	1.691299
C118	C	1.734615	-0.174530	0.578237
C119	C	2.067948	0.158803	0.911570
C120	C	2.401282	0.492137	1.244903
C121	C	1.734672	-0.086674	0.578257
C122	C	2.068005	0.246660	0.911590
C123	C	2.401339	0.579993	1.244923
C124	C	1.734459	-0.380729	0.266365
C125	C	2.067792	-0.047395	0.599698
C126	C	2.401125	0.285938	0.933032
C127	C	1.734652	-0.380543	0.132966
C128	C	2.067985	-0.047210	0.466299
C129	C	2.401318	0.286123	0.799632
H130	H	1.595120	-0.681597	0.717344
H131	H	1.928454	-0.348264	1.050678
H132	H	2.261787	-0.014931	1.384011
H133	H	1.518393	-0.805415	0.794042
H134	H	1.851726	-0.472081	1.127375
H135	H	2.185059	-0.138748	1.460708
F136	F	1.499292	-0.965512	0.813244
F137	F	1.832625	-0.632178	1.146578
F138	F	2.165958	-0.298845	1.479911
F139	F	1.576155	-1.089332	0.736575
F140	F	1.909488	-0.755999	1.069909
F141	F	2.242821	-0.422666	1.403242
H142	H	1.873978	-1.078999	0.439123
H143	H	2.207312	-0.745666	0.772457
H144	H	2.540645	-0.412333	1.105790
H145	H	1.950700	-0.955174	0.362410
H146	H	2.284034	-0.621841	0.695744
H147	H	2.617367	-0.288507	1.029077
F148	F	1.969844	-0.795090	0.343208
F149	F	2.303177	-0.461757	0.676541
F150	F	2.636510	-0.128424	1.009874
F151	F	1.892956	-0.671265	0.419878
F152	F	2.226290	-0.337932	0.753211
F153	F	2.559623	-0.004599	1.086545
