data_functionalizedCrystal
_audit_creation_method	'MofGen! by Chris Wilmer'
_symmetry_space_group_name_H-M	'P1'
_symmetry_Int_Tables_number	1
_symmetry_cell_setting	triclinic
loop_
_symmetry_equiv_pos_as_xyz
  x,y,z
_cell_length_a	10.654550
_cell_length_b	15.625429
_cell_length_c	9.730223
_cell_angle_alpha	71.918450
_cell_angle_beta	89.999957
_cell_angle_gamma	84.353363
loop_
_atom_site_label
_atom_site_type_symbol
_atom_site_fract_x
_atom_site_fract_y
_atom_site_fract_z
O1	O	1.666521	0.126624	-0.177284
O2	O	1.300917	0.138688	-0.183320
O3	O	1.493487	0.001480	-0.114928
O4	O	1.473950	0.263832	-0.245676
O5	O	1.493475	0.001477	0.113654
O6	O	1.300904	0.138684	0.045261
O7	O	1.666508	0.126621	0.051298
Zn8	Zn	1.483704	0.132652	0.084572
Zn9	Zn	1.483721	0.132657	-0.216594
O10	O	1.473937	0.263828	-0.017094
C11	C	1.254122	0.137801	-0.068591
C12	C	1.114706	0.135150	-0.067280
C13	C	1.034379	0.215936	-0.107537
C14	C	0.903384	0.213441	-0.106270
C15	C	0.933056	0.049366	-0.024490
C16	C	1.064048	0.051863	-0.025748
C17	C	1.492597	-0.032114	0.016101
C18	C	1.489947	-0.132211	0.065977
C19	C	1.481231	-0.461407	-0.392937
C20	C	1.478735	-0.555463	-0.346028
C21	C	1.478722	-0.555453	-0.096844
C22	C	1.481224	-0.461396	-0.143732
C23	C	1.482476	-0.414381	-0.291780
C24	C	1.482470	-0.414370	-0.042575
C25	C	1.484964	-0.320321	-0.089459
C26	C	1.486213	-0.273298	-0.237501
C27	C	1.484971	-0.320331	-0.338664
C28	C	1.481208	-0.461386	0.105472
C29	C	1.482454	-0.414360	0.206629
C30	C	1.484958	-0.320310	0.159746
C31	C	1.486207	-0.273287	0.011704
C32	C	1.486200	-0.273276	0.260909
C33	C	1.488695	-0.179227	0.214025
C34	C	1.488701	-0.179238	-0.035180
C35	C	1.713303	0.127508	-0.063434
C36	C	1.852719	0.130158	-0.064754
C37	C	1.474828	0.297423	-0.148127
C38	C	1.477478	0.397520	-0.198012
N39	N	1.483702	0.132648	0.290110
N40	N	1.483732	0.132654	-0.422129
C41	C	1.569002	0.071918	0.392308
C42	C	1.569014	0.071919	0.536190
C43	C	1.398424	0.193386	0.475662
C44	C	1.398407	0.193381	0.331784
H45	H	0.837987	0.279225	-0.139049
C46	C	1.477339	-0.607181	0.066004
N47	N	1.476300	-0.646141	0.188665
H48	H	1.328980	0.242835	0.509607
C49	C	1.481071	-0.466087	0.369478
N50	N	1.480032	-0.505048	0.492138
C51	C	0.877319	-0.042245	0.021180
N52	N	0.835340	-0.111249	0.055575
H53	H	1.485167	-0.311569	0.381450
H54	H	1.328940	0.242835	0.248568
C55	C	1.490072	-0.127495	0.325303
N56	N	1.491108	-0.088531	0.409122
H57	H	1.129454	-0.013927	0.007040
C58	C	1.490085	-0.127516	-0.198041
N59	N	1.491124	-0.088558	-0.320702
H60	H	1.075620	0.283754	-0.141345
H61	H	1.638471	0.022466	0.619399
C62	C	1.482615	-0.409685	-0.555797
N63	N	1.483653	-0.370728	-0.678459
C64	C	1.477330	-0.607186	-0.457324
N65	N	1.476256	-0.646142	-0.541150
C66	C	1.662819	0.005103	0.346476
N67	N	1.733482	-0.045227	0.311961
C68	C	1.486355	-0.268609	-0.501525
N69	N	1.487394	-0.229652	-0.624186
H70	H	1.488231	-0.196716	-0.275672
H71	H	1.479163	-0.537966	0.143640
