data_functionalizedCrystal
_audit_creation_method	'MofGen! by Chris Wilmer'
_symmetry_space_group_name_H-M	'P1'
_symmetry_Int_Tables_number	1
_symmetry_cell_setting	triclinic
loop_
_symmetry_equiv_pos_as_xyz
  x,y,z
_cell_length_a	27.732064
_cell_length_b	27.732048
_cell_length_c	9.130313
_cell_angle_alpha	89.990549
_cell_angle_beta	90.004113
_cell_angle_gamma	82.646040
loop_
_atom_site_label
_atom_site_type_symbol
_atom_site_fract_x
_atom_site_fract_y
_atom_site_fract_z
O1	O	0.640921	0.057555	-0.121554
O2	O	0.974255	0.390888	0.211780
O3	O	1.307588	0.724222	0.545113
O4	O	0.500129	0.066292	-0.121616
O5	O	0.833462	0.399625	0.211717
O6	O	1.166796	0.732959	0.545051
O7	O	0.574898	-0.008473	-0.121555
O8	O	0.908231	0.324860	0.211778
O9	O	1.241564	0.658194	0.545112
O10	O	0.566152	0.132320	-0.121615
O11	O	0.899486	0.465653	0.211719
O12	O	1.232819	0.798987	0.545052
O13	O	0.574893	-0.008475	0.122044
O14	O	0.908226	0.324858	0.455377
O15	O	1.241559	0.658192	0.788710
O16	O	0.500124	0.066290	0.121983
O17	O	0.833457	0.399623	0.455316
O18	O	1.166791	0.732957	0.788649
O19	O	0.640916	0.057553	0.122045
O20	O	0.974249	0.390886	0.455379
O21	O	1.307583	0.724220	0.788712
Cu22	Cu	0.570520	0.061921	0.144256
Cu23	Cu	0.903853	0.395255	0.477590
Cu24	Cu	1.237186	0.728588	0.810923
Cu25	Cu	0.570525	0.061924	-0.143827
Cu26	Cu	0.903859	0.395257	0.189506
Cu27	Cu	1.237192	0.728590	0.522839
O28	O	0.566147	0.132318	0.121984
O29	O	0.899481	0.465651	0.455317
O30	O	1.232814	0.798985	0.788651
C31	C	0.482120	0.066106	0.000176
C32	C	0.815453	0.399440	0.333509
C33	C	1.148786	0.732773	0.666842
C34	C	0.428465	0.065551	0.000153
C35	C	0.761799	0.398884	0.333486
C36	C	1.095132	0.732217	0.666820
C37	C	0.051392	0.017583	0.000257
C38	C	0.384726	0.350917	0.333590
C39	C	0.718059	0.684250	0.666924
C40	C	0.253053	0.019630	0.000218
C41	C	0.586386	0.352963	0.333551
C42	C	0.919719	0.686296	0.666885
O43	O	0.284305	-0.017591	0.000288
O44	O	0.617639	0.315742	0.333622
O45	O	0.950972	0.649075	0.666955
N46	N	0.272180	0.063964	0.000193
N47	N	0.605513	0.397297	0.333526
N48	N	0.938847	0.730631	0.666859
C49	C	0.240889	0.107790	0.000187
C50	C	0.574222	0.441123	0.333520
C51	C	0.907556	0.774456	0.666853
O52	O	0.261785	0.145546	0.000179
O53	O	0.595119	0.478879	0.333513
O54	O	0.928452	0.812212	0.666846
C55	C	0.039230	0.105743	0.000236
C56	C	0.372563	0.439076	0.333569
C57	C	0.705896	0.772410	0.666903
C58	C	0.020105	0.061406	0.000247
C59	C	0.353439	0.394739	0.333580
C60	C	0.686772	0.728072	0.666913
C61	C	0.032267	-0.026750	0.000269
C62	C	0.365601	0.306583	0.333602
C63	C	0.698934	0.639916	0.666936
C64	C	-0.018145	-0.027261	0.000271
C65	C	0.315189	0.306072	0.333604
C66	C	0.648522	0.639405	0.666937
C67	C	-0.049432	0.016561	0.000260
C68	C	0.283902	0.349895	0.333594
C69	C	0.617235	0.683228	0.666927
C70	C	-0.030307	0.060895	0.000248
C71	C	0.303027	0.394228	0.333582
C72	C	0.636360	0.727561	0.666915
C73	C	0.007940	0.149568	0.000241
C74	C	0.341273	0.482902	0.333574
C75	C	0.674606	0.816235	0.666907
C76	C	-0.042478	0.149053	0.000257
C77	C	0.290856	0.482386	0.333590
C78	C	0.624189	0.815719	0.666923
C79	C	-0.061602	0.104716	0.000267
C80	C	0.271731	0.438049	0.333600
C81	C	0.605064	0.771382	0.666934
C82	C	-0.112006	0.104206	0.000240
C83	C	0.221327	0.437539	0.333573
C84	C	0.554661	0.770873	0.666906
N85	N	-0.131134	0.059872	0.000265
N86	N	0.202200	0.393205	0.333598
N87	N	0.535533	0.726539	0.666932
C88	C	-0.099846	0.016049	0.000275
C89	C	0.233487	0.349383	0.333609
C90	C	0.566820	0.682716	0.666942
C91	C	0.346763	0.108861	0.000158
C92	C	0.680097	0.442194	0.333491
C93	C	1.013430	0.775528	0.666824
C94	C	0.397178	0.109373	0.000143
C95	C	0.730511	0.442706	0.333476
C96	C	1.063845	0.776040	0.666809
C97	C	0.409338	0.021213	0.000177
C98	C	0.742672	0.354546	0.333510
C99	C	1.076005	0.687879	0.666843
C100	C	0.358923	0.020701	0.000181
C101	C	0.692256	0.354035	0.333515
C102	C	1.025589	0.687368	0.666848
C103	C	0.327636	0.064527	0.000183
C104	C	0.660969	0.397860	0.333516
C105	C	0.994303	0.731194	0.666850
C106	C	-0.205716	0.014979	0.000278
C107	C	0.127617	0.348313	0.333611
C108	C	0.460951	0.681646	0.666944
C109	C	-0.256133	0.014472	0.000273
C110	C	0.077200	0.347806	0.333607
C111	C	0.410534	0.681139	0.666940
C112	C	-0.268289	0.102632	0.000247
C113	C	0.065045	0.435966	0.333581
C114	C	0.398378	0.769299	0.666914
C115	C	-0.217876	0.103140	0.000244
C116	C	0.115457	0.436473	0.333577
C117	C	0.448791	0.769806	0.666910
C118	C	-0.186590	0.059309	0.000264
C119	C	0.146743	0.392643	0.333597
C120	C	0.480076	0.725976	0.666931
O121	O	-0.143287	0.141407	0.000186
O122	O	0.190046	0.474741	0.333519
O123	O	0.523380	0.808074	0.666852
O124	O	-0.120752	-0.021701	0.000315
O125	O	0.212581	0.311632	0.333649
O126	O	0.545915	0.644966	0.666982
C127	C	0.101805	0.018094	0.000255
C128	C	0.435138	0.351428	0.333588
C129	C	0.768471	0.684761	0.666922
C130	C	0.120930	0.062428	0.000243
C131	C	0.454263	0.395761	0.333576
C132	C	0.787596	0.729095	0.666910
C133	C	0.089642	0.106250	0.000233
C134	C	0.422976	0.439584	0.333566
C135	C	0.756309	0.772917	0.666899
C136	C	0.171344	0.062940	0.000228
C137	C	0.504677	0.396273	0.333561
C138	C	0.838011	0.729606	0.666895
C139	C	0.202631	0.019117	0.000238
C140	C	0.535965	0.352451	0.333572
C141	C	0.869298	0.685784	0.666905
C142	C	0.183504	-0.025217	0.000264
C143	C	0.516837	0.308116	0.333597
C144	C	0.850170	0.641450	0.666930
C145	C	0.133092	-0.025728	0.000265
C146	C	0.466425	0.307605	0.333599
C147	C	0.799758	0.640939	0.666932
C148	C	0.108770	0.150585	0.000207
C149	C	0.442103	0.483918	0.333541
C150	C	0.775437	0.817251	0.666874
C151	C	0.159183	0.151092	0.000204
C152	C	0.492516	0.484426	0.333537
C153	C	0.825849	0.817759	0.666871
C154	C	0.190470	0.107270	0.000214
C155	C	0.523803	0.440603	0.333548
C156	C	0.857136	0.773936	0.666881
C157	C	0.574712	-0.026481	0.000248
C158	C	0.908045	0.306853	0.333582
C159	C	1.241378	0.640186	0.666915
C160	C	0.574159	-0.080136	0.000260
C161	C	0.907492	0.253198	0.333593
C162	C	1.240826	0.586531	0.666927
C163	C	0.614862	-0.418948	0.000203
C164	C	0.948196	-0.085615	0.333536
C165	C	1.281529	0.247718	0.666870
C166	C	0.612811	-0.620608	0.000182
C167	C	0.946145	-0.287275	0.333515
C168	C	1.279478	0.046059	0.666848
O169	O	0.650032	-0.651862	0.000134
O170	O	0.983365	-0.318528	0.333467
O171	O	1.316698	0.014805	0.666801
N172	N	0.568476	-0.639735	0.000163
N173	N	0.901810	-0.306401	0.333497
N174	N	1.235143	0.026932	0.666830
C175	C	0.524651	-0.608442	0.000141
C176	C	0.857985	-0.275109	0.333474
C177	C	1.191318	0.058224	0.666807
O178	O	0.486895	-0.629338	0.000110
O179	O	0.820228	-0.296004	0.333443
O180	O	1.153561	0.037329	0.666776
C181	C	0.526703	-0.406784	0.000152
C182	C	0.860036	-0.073450	0.333485
C183	C	1.193369	0.259883	0.666818
C184	C	0.571040	-0.387660	0.000185
C185	C	0.904374	-0.054327	0.333518
C186	C	1.237707	0.279006	0.666851
C187	C	0.659196	-0.399824	0.000235
C188	C	0.992530	-0.066491	0.333568
C189	C	1.325863	0.266842	0.666901
C190	C	0.659709	-0.349412	0.000248
C191	C	0.993042	-0.016079	0.333581
C192	C	1.326375	0.317254	0.666914
C193	C	0.615887	-0.318124	0.000230
C194	C	0.949220	0.015209	0.333563
C195	C	1.282554	0.348542	0.666896
C196	C	0.571553	-0.337248	0.000198
C197	C	0.904886	-0.003915	0.333531
C198	C	1.238219	0.329418	0.666865
C199	C	0.482878	-0.375493	0.000119
C200	C	0.816211	-0.042159	0.333452
C201	C	1.149545	0.291174	0.666785
C202	C	0.483395	-0.325075	0.000118
C203	C	0.816728	0.008258	0.333451
C204	C	1.150062	0.341591	0.666784
C205	C	0.527733	-0.305952	0.000151
C206	C	0.861066	0.027381	0.333484
C207	C	1.194399	0.360715	0.666817
C208	C	0.528243	-0.255548	0.000193
C209	C	0.861576	0.077785	0.333527
C210	C	1.194910	0.411118	0.666860
N211	N	0.572578	-0.236422	0.000212
N212	N	0.905911	0.096911	0.333545
N213	N	1.239245	0.430245	0.666878
C214	C	0.616400	-0.267710	0.000230
C215	C	0.949733	0.065623	0.333563
C216	C	1.283067	0.398957	0.666896
C217	C	0.523577	-0.714317	0.000138
C218	C	0.856911	-0.380983	0.333471
C219	C	1.190244	-0.047650	0.666805
C220	C	0.523064	-0.764731	0.000138
C221	C	0.856398	-0.431398	0.333471
C222	C	1.189731	-0.098064	0.666805
C223	C	0.611225	-0.776893	0.000176
C224	C	0.944558	-0.443560	0.333509
C225	C	1.277891	-0.110227	0.666843
C226	C	0.611737	-0.726478	0.000187
C227	C	0.945070	-0.393145	0.333520
C228	C	1.278404	-0.059811	0.666853
C229	C	0.567912	-0.695190	0.000156
C230	C	0.901245	-0.361857	0.333490
C231	C	1.234579	-0.028524	0.666823
C232	C	0.617472	-0.161841	0.000259
C233	C	0.950806	0.171493	0.333592
C234	C	1.284139	0.504826	0.666926
C235	C	0.617981	-0.111424	0.000278
C236	C	0.951314	0.221910	0.333612
C237	C	1.284647	0.555243	0.666945
C238	C	0.529821	-0.099266	0.000232
C239	C	0.863154	0.234067	0.333566
C240	C	1.196487	0.567401	0.666899
C241	C	0.529312	-0.149679	0.000221
C242	C	0.862645	0.183655	0.333554
C243	C	1.195979	0.516988	0.666887
C244	C	0.573142	-0.180965	0.000229
C245	C	0.906475	0.152368	0.333562
C246	C	1.239808	0.485701	0.666896
O247	O	0.491043	-0.224267	0.000224
O248	O	0.824376	0.109067	0.333558
O249	O	1.157709	0.442400	0.666891
O250	O	0.654151	-0.246805	0.000228
O251	O	0.987484	0.086528	0.333562
O252	O	1.320818	0.419861	0.666895
C253	C	0.614350	-0.469360	0.000190
C254	C	0.947683	-0.136027	0.333523
C255	C	1.281017	0.197306	0.666856
C256	C	0.570016	-0.488484	0.000158
C257	C	0.903349	-0.155151	0.333492
C258	C	1.236683	0.178182	0.666825
C259	C	0.526194	-0.457196	0.000140
C260	C	0.859527	-0.123863	0.333473
C261	C	1.192861	0.209470	0.666807
C262	C	0.569503	-0.538899	0.000158
C263	C	0.902836	-0.205565	0.333491
C264	C	1.236170	0.127768	0.666825
C265	C	0.613325	-0.570187	0.000176
C266	C	0.946658	-0.236853	0.333510
C267	C	1.279991	0.096480	0.666843
C268	C	0.657660	-0.551060	0.000195
C269	C	0.990993	-0.217727	0.333528
C270	C	1.324326	0.115606	0.666861
C271	C	0.658172	-0.500648	0.000208
C272	C	0.991505	-0.167315	0.333541
C273	C	1.324839	0.166018	0.666875
C274	C	0.481859	-0.476323	0.000122
C275	C	0.815193	-0.142989	0.333455
C276	C	1.148526	0.190344	0.666788
C277	C	0.481351	-0.526735	0.000110
C278	C	0.814684	-0.193402	0.333443
C279	C	1.148017	0.139932	0.666777
C280	C	0.525172	-0.558023	0.000128
C281	C	0.858506	-0.224690	0.333462
C282	C	1.191839	0.108643	0.666795
C283	C	0.658925	0.057739	0.000250
C284	C	0.992259	0.391072	0.333583
C285	C	1.325592	0.724405	0.666917
C286	C	0.712580	0.058295	0.000263
C287	C	1.045913	0.391628	0.333596
C288	C	1.379247	0.724961	0.666930
C289	C	0.566333	0.150326	0.000178
C290	C	0.899667	0.483659	0.333511
C291	C	1.233000	0.816993	0.666844
C292	C	0.566886	0.203981	0.000156
C293	C	0.900219	0.537314	0.333489
C294	C	1.233553	0.870648	0.666823
N295	N	0.570519	0.061919	0.346879
N296	N	0.903852	0.395253	0.680212
N297	N	1.237186	0.728586	1.013546
N298	N	0.570530	0.061922	-0.346450
N299	N	0.903863	0.395255	-0.013117
N300	N	1.237197	0.728589	0.320217
C301	C	0.603637	0.028827	0.423558
C302	C	0.936971	0.362160	0.756891
C303	C	1.270304	0.695494	1.090225
C304	C	0.603642	0.028827	0.576895
C305	C	0.936975	0.362160	0.910228
C306	C	1.270309	0.695494	1.243562
C307	C	0.537408	0.095016	0.576860
C308	C	0.870741	0.428349	0.910194
C309	C	1.204075	0.761683	1.243527
C310	C	0.537401	0.095013	0.423526
C311	C	0.870735	0.428347	0.756860
C312	C	1.204068	0.761680	1.090193
H313	H	-0.180248	-0.020712	0.000294
H314	H	0.153085	0.312622	0.333627
H315	H	0.486418	0.645955	0.666960
C316	C	0.640074	-0.007573	0.661236
C317	C	0.973408	0.325761	0.994569
C318	C	1.306741	0.659094	1.327902
H319	H	0.659798	-0.027279	0.593622
H320	H	0.993131	0.306055	0.926955
H321	H	1.326464	0.639388	1.260288
H322	H	0.622843	-0.027578	0.721068
H323	H	0.956177	0.305755	1.054401
H324	H	1.289510	0.639089	1.387734
H325	H	0.660067	0.009685	0.721034
H326	H	0.993400	0.343018	1.054368
H327	H	1.326734	0.676351	1.387701
C328	C	0.028966	0.198340	0.000251
C329	C	0.362299	0.531673	0.333584
C330	C	0.695632	0.865007	0.666917
H331	H	0.003105	0.224361	0.000269
H332	H	0.336439	0.557694	0.333602
H333	H	0.669772	0.891028	0.666936
H334	H	0.048377	0.200385	-0.084694
H335	H	0.381710	0.533718	0.248640
H336	H	0.715044	0.867051	0.581973
H337	H	0.048380	0.200368	0.085214
H338	H	0.381713	0.533701	0.418547
H339	H	0.715046	0.867034	0.751880
C340	C	0.443760	-0.026991	0.000200
C341	C	0.777093	0.306342	0.333533
C342	C	1.110427	0.639676	0.666866
H343	H	0.476523	-0.020332	0.000201
H344	H	0.809856	0.313001	0.333534
H345	H	1.143189	0.646335	0.666868
H346	H	0.437997	-0.045191	-0.084731
H347	H	0.771330	0.288142	0.248602
H348	H	1.104663	0.621476	0.581936
H349	H	0.438002	-0.045183	0.085176
H350	H	0.771336	0.288150	0.418509
H351	H	1.104669	0.621483	0.751843
H352	H	0.510430	0.121961	0.361090
H353	H	0.843763	0.455294	0.694424
H354	H	1.177097	0.788628	1.027757
C355	C	0.659427	-0.811316	0.000173
C356	C	0.992761	-0.477983	0.333507
C357	C	1.326094	-0.144649	0.666840
H358	H	0.652768	-0.844079	0.000153
H359	H	0.986101	-0.510745	0.333486
H360	H	1.319434	-0.177412	0.666820
H361	H	0.677630	-0.805564	0.085118
H362	H	1.010963	-0.472231	0.418451
H363	H	1.344297	-0.138898	0.751784
H364	H	0.677618	-0.805548	-0.084790
H365	H	1.010951	-0.472214	0.248544
H366	H	1.344284	-0.138881	0.581877
H367	H	0.510445	0.121961	0.639282
H368	H	0.843778	0.455294	0.972615
H369	H	1.177112	0.788628	1.305949
H370	H	-0.271701	-0.021634	0.000278
H371	H	0.061632	0.311699	0.333611
H372	H	0.394966	0.645033	0.666945
H373	H	0.057737	-0.062438	0.000282
H374	H	0.391070	0.270896	0.333615
H375	H	0.724404	0.604229	0.666949
C376	C	-0.039175	-0.076032	0.000309
C377	C	0.294158	0.257301	0.333643
C378	C	0.627491	0.590634	0.666976
H379	H	-0.013316	-0.102054	0.000332
H380	H	0.320017	0.231279	0.333666
H381	H	0.653351	0.564612	0.666999
H382	H	-0.058594	-0.078071	-0.084628
H383	H	0.274739	0.255262	0.248706
H384	H	0.608072	0.588596	0.582039
H385	H	-0.058582	-0.078065	0.085280
H386	H	0.274751	0.255268	0.418613
H387	H	0.608085	0.588602	0.751946
C388	C	0.337890	-0.028069	0.000207
C389	C	0.671223	0.305265	0.333541
C390	C	1.004557	0.638598	0.666874
H391	H	0.363748	-0.054092	0.000219
H392	H	0.697081	0.279241	0.333552
H393	H	1.030415	0.612575	0.666886
H394	H	0.318470	-0.030102	-0.084730
H395	H	0.651803	0.303231	0.248603
H396	H	0.985137	0.636564	0.581936
H397	H	0.318484	-0.030104	0.085177
H398	H	0.651817	0.303229	0.418510
H399	H	0.985151	0.636563	0.751844
C400	C	0.474293	-0.785761	0.000113
C401	C	0.807626	-0.452428	0.333447
C402	C	1.140960	-0.119095	0.666780
H403	H	0.448270	-0.759903	0.000087
H404	H	0.781604	-0.426570	0.333420
H405	H	1.114937	-0.093236	0.666754
H406	H	0.472254	-0.805181	0.085056
H407	H	0.805587	-0.471847	0.418389
H408	H	1.138921	-0.138514	0.751723
H409	H	0.472262	-0.805168	-0.084851
H410	H	0.805596	-0.471835	0.248482
H411	H	1.138929	-0.138502	0.581815
C412	C	0.433652	-0.441912	0.000117
C413	C	0.766986	-0.108579	0.333450
C414	C	1.100319	0.224755	0.666784
H415	H	0.407178	-0.460528	0.000116
H416	H	0.740512	-0.127194	0.333450
H417	H	1.073845	0.206139	0.666783
H418	H	0.432014	-0.421983	-0.084821
H419	H	0.765348	-0.088649	0.248512
H420	H	1.098681	0.244684	0.581845
H421	H	0.432019	-0.422002	0.085086
H422	H	0.765352	-0.088669	0.418419
H423	H	1.098686	0.244664	0.751753
C424	C	0.418210	0.158144	0.000116
C425	C	0.751543	0.491477	0.333450
C426	C	1.084876	0.824810	0.666783
H427	H	0.392352	0.184167	0.000127
H428	H	0.725685	0.517500	0.333460
H429	H	1.059018	0.850834	0.666793
H430	H	0.437619	0.160182	-0.084835
H431	H	0.770953	0.493515	0.248499
H432	H	1.104286	0.826848	0.581832
H433	H	0.437626	0.160175	0.085073
H434	H	0.770960	0.493508	0.418406
H435	H	1.104293	0.826841	0.751739
C436	C	0.312354	0.157072	0.000143
C437	C	0.645687	0.490406	0.333476
C438	C	0.979020	0.823739	0.666809
H439	H	0.330971	0.183546	0.000110
H440	H	0.664304	0.516879	0.333444
H441	H	0.997637	0.850212	0.666777
H442	H	0.292437	0.158710	0.085093
H443	H	0.625770	0.492044	0.418426
H444	H	0.959104	0.825377	0.751759
H445	H	0.292432	0.158708	-0.084815
H446	H	0.625765	0.492041	0.248519
H447	H	0.959098	0.825374	0.581852
C448	C	0.707405	-0.434234	0.000266
C449	C	1.040738	-0.100901	0.333600
C450	C	1.374072	0.232432	0.666933
H451	H	0.733878	-0.415617	0.000296
H452	H	1.067211	-0.082284	0.333630
H453	H	1.400544	0.251050	0.666963
H454	H	0.709048	-0.454153	-0.084675
H455	H	1.042381	-0.120819	0.248659
H456	H	1.375714	0.212514	0.581992
H457	H	0.709036	-0.454155	0.085232
H458	H	1.042369	-0.120822	0.418566
H459	H	1.375702	0.212512	0.751899
C460	C	-0.076890	0.197262	0.000244
C461	C	0.256443	0.530595	0.333577
C462	C	0.589776	0.863929	0.666911
H463	H	-0.058277	0.223738	0.000223
H464	H	0.275057	0.557071	0.333556
H465	H	0.608390	0.890404	0.666890
H466	H	-0.096809	0.198896	0.085189
H467	H	0.236524	0.532229	0.418523
H468	H	0.569858	0.865563	0.751856
H469	H	-0.096811	0.198897	-0.084718
H470	H	0.236523	0.532231	0.248615
H471	H	0.569856	0.865564	0.581949
C472	C	0.666753	-0.090389	0.000316
C473	C	1.000086	0.242945	0.333649
C474	C	1.333419	0.576278	0.666983
H475	H	0.660785	-0.055882	0.000336
H476	H	0.994118	0.277451	0.333669
H477	H	1.327451	0.610784	0.667003
H478	H	0.684783	-0.101144	-0.084623
H479	H	1.018117	0.232190	0.248710
H480	H	1.351450	0.565523	0.582044
H481	H	0.684775	-0.101158	0.085284
H482	H	1.018109	0.232175	0.418618
H483	H	1.351442	0.565508	0.751951
C484	C	0.660508	-0.705446	0.000209
C485	C	0.993841	-0.372113	0.333543
C486	C	1.327174	-0.038780	0.666876
H487	H	0.686531	-0.731305	0.000213
H488	H	1.019864	-0.397972	0.333546
H489	H	1.353197	-0.064638	0.666879
H490	H	0.662542	-0.686036	0.085154
H491	H	0.995875	-0.352702	0.418488
H492	H	1.329208	-0.019369	0.751821
H493	H	0.662544	-0.686031	-0.084753
H494	H	0.995877	-0.352698	0.248580
H495	H	1.329210	-0.019364	0.581914
H496	H	-0.202304	0.139243	0.000234
H497	H	0.131029	0.472576	0.333567
H498	H	0.464362	0.805909	0.666900
C499	C	0.432577	-0.547767	0.000073
C500	C	0.765910	-0.214434	0.333406
C501	C	1.099244	0.118899	0.666739
H502	H	0.438543	-0.582274	0.000074
H503	H	0.771876	-0.248940	0.333407
H504	H	1.105210	0.084393	0.666741
H505	H	0.414555	-0.536996	-0.084886
H506	H	0.747888	-0.203662	0.248448
H507	H	1.081222	0.129671	0.581781
H508	H	0.414547	-0.537012	0.085022
H509	H	0.747880	-0.203679	0.418355
H510	H	1.081213	0.129654	0.751688
H511	H	0.693341	-0.576544	0.000216
H512	H	1.026674	-0.243211	0.333549
H513	H	1.360008	0.090122	0.666883
C514	C	0.217926	-0.073420	0.000281
C515	C	0.551259	0.259913	0.333614
C516	C	0.884592	0.593246	0.666948
H517	H	0.250688	-0.066761	0.000289
H518	H	0.584022	0.266572	0.333622
H519	H	0.917355	0.599906	0.666955
H520	H	0.212164	-0.091618	-0.084655
H521	H	0.545497	0.241715	0.248678
H522	H	0.878830	0.575049	0.582011
H523	H	0.212167	-0.091615	0.085252
H524	H	0.545501	0.241718	0.418585
H525	H	0.878834	0.575051	0.751918
C526	C	-0.302708	0.150834	0.000231
C527	C	0.030625	0.484168	0.333565
C528	C	0.363958	0.817501	0.666898
H529	H	-0.284101	0.177315	0.000211
H530	H	0.049232	0.510648	0.333544
H531	H	0.382566	0.843981	0.666878
H532	H	-0.322625	0.152462	0.085180
H533	H	0.010708	0.485796	0.418513
H534	H	0.344042	0.819129	0.751847
H535	H	-0.322630	0.152467	-0.084727
H536	H	0.010703	0.485800	0.248606
H537	H	0.344037	0.819133	0.581939
C538	C	0.112061	-0.074499	0.000292
C539	C	0.445394	0.258834	0.333626
C540	C	0.778728	0.592167	0.666959
H541	H	0.137920	-0.100521	0.000311
H542	H	0.471254	0.232812	0.333645
H543	H	0.804587	0.566145	0.666978
H544	H	0.092643	-0.076535	-0.084649
H545	H	0.425976	0.256798	0.248685
H546	H	0.759310	0.590132	0.582018
H547	H	0.092653	-0.076534	0.085259
H548	H	0.425987	0.256799	0.418592
H549	H	0.759320	0.590132	0.751925
H550	H	0.487888	-0.688846	0.000114
H551	H	0.821221	-0.355513	0.333447
H552	H	1.154554	-0.022179	0.666780
C553	C	0.180216	0.199865	0.000185
C554	C	0.513549	0.533199	0.333519
C555	C	0.846883	0.866532	0.666852
H556	H	0.214722	0.193898	0.000177
H557	H	0.548056	0.527232	0.333510
H558	H	0.881389	0.860565	0.666843
H559	H	0.169455	0.217889	0.085129
H560	H	0.502788	0.551222	0.418462
H561	H	0.836121	0.884556	0.751795
H562	H	0.169451	0.217894	-0.084779
H563	H	0.502785	0.551227	0.248555
H564	H	0.836118	0.884561	0.581888
C565	C	0.665684	-0.196249	0.000281
C566	C	0.999017	0.137084	0.333614
C567	C	1.332350	0.470418	0.666947
H568	H	0.692158	-0.177633	0.000315
H569	H	1.025491	0.155701	0.333648
H570	H	1.358824	0.489034	0.666982
H571	H	0.667325	-0.216164	-0.084667
H572	H	1.000658	0.117169	0.248666
H573	H	1.333992	0.450502	0.581999
H574	H	0.667315	-0.216173	0.085240
H575	H	1.000648	0.117161	0.418573
H576	H	1.333981	0.450494	0.751907
C577	C	0.708480	-0.328383	0.000256
C578	C	1.041814	0.004950	0.333590
C579	C	1.375147	0.338284	0.666923
H580	H	0.734502	-0.354243	0.000248
H581	H	1.067835	-0.020910	0.333582
H582	H	1.401169	0.312424	0.666915
H583	H	0.710519	-0.308973	0.085201
H584	H	1.043853	0.024360	0.418534
H585	H	1.377186	0.357693	0.751868
H586	H	0.710514	-0.308967	-0.084706
H587	H	1.043847	0.024366	0.248627
H588	H	1.377180	0.357699	0.581960
H589	H	0.447706	-0.299603	0.000091
H590	H	0.781040	0.033731	0.333424
H591	H	1.114373	0.367064	0.666757
C592	C	0.480542	-0.170716	0.000181
C593	C	0.813876	0.162618	0.333514
C594	C	1.147209	0.495951	0.666848
H595	H	0.454517	-0.144859	0.000162
H596	H	0.787851	0.188474	0.333496
H597	H	1.121184	0.521808	0.666829
H598	H	0.478503	-0.190140	0.085112
H599	H	0.811836	0.143193	0.418445
H600	H	1.145170	0.476526	0.751778
H601	H	0.478515	-0.190118	-0.084796
H602	H	0.811849	0.143216	0.248538
H603	H	1.145182	0.476549	0.581871
C604	C	0.640060	-0.007579	0.339251
C605	C	0.973394	0.325755	0.672584
C606	C	1.306727	0.659088	1.005917
H607	H	0.659782	-0.027290	0.406885
H608	H	0.993115	0.306043	0.740218
H609	H	1.326448	0.639376	1.073551
H610	H	0.660049	0.009670	0.279416
H611	H	0.993382	0.343003	0.612749
H612	H	1.326715	0.676337	0.946083
H613	H	0.622818	-0.027585	0.279457
H614	H	0.956151	0.305748	0.612790
H615	H	1.289485	0.639081	0.946123
H616	H	0.083300	0.186271	0.000201
H617	H	0.416634	0.519604	0.333534
H618	H	0.749967	0.852938	0.666868
H619	H	0.446774	-0.391054	0.000083
H620	H	0.780107	-0.057720	0.333416
H621	H	1.113440	0.275613	0.666749
C622	C	0.481619	-0.064845	0.000203
C623	C	0.814953	0.268488	0.333536
C624	C	1.148286	0.601821	0.666870
H625	H	0.455138	-0.083452	0.000191
H626	H	0.788472	0.249881	0.333524
H627	H	1.121805	0.583215	0.666858
H628	H	0.479995	-0.044921	-0.084746
H629	H	0.813328	0.288412	0.248588
H630	H	1.146662	0.621745	0.581921
H631	H	0.479984	-0.044931	0.085162
H632	H	0.813318	0.288403	0.418495
H633	H	1.146651	0.621736	0.751828
H634	H	0.694276	-0.485083	0.000234
H635	H	1.027610	-0.151750	0.333568
H636	H	1.360943	0.181583	0.666901
