data_functionalizedCrystal
_audit_creation_method	'MofGen! by Chris Wilmer'
_symmetry_space_group_name_H-M	'P1'
_symmetry_Int_Tables_number	1
_symmetry_cell_setting	triclinic
loop_
_symmetry_equiv_pos_as_xyz
  x,y,z
_cell_length_a	19.120904
_cell_length_b	17.077404
_cell_length_c	17.077402
_cell_angle_alpha	90.023108
_cell_angle_beta	87.587932
_cell_angle_gamma	87.577137
loop_
_atom_site_label
_atom_site_type_symbol
_atom_site_fract_x
_atom_site_fract_y
_atom_site_fract_z
Zn1	Zn	-0.397109	-1.181100	0.331454
Zn2	Zn	-0.279660	-1.186613	0.457124
Zn3	Zn	-0.279675	-1.055437	0.325878
Zn4	Zn	-0.397068	-1.049801	0.462681
O5	O	-0.338378	-1.118238	0.394284
O6	O	-0.381540	-1.291677	0.348133
O7	O	-0.181379	-1.173878	0.435055
O8	O	-0.295276	-1.072157	0.216772
O9	O	-0.295250	-1.295728	0.440462
O10	O	-0.381554	-1.164481	0.220869
O11	O	-0.181391	-1.077503	0.338629
O12	O	-0.295237	-0.944843	0.344016
O13	O	-0.495356	-1.062553	0.449933
O14	O	-0.381485	-0.940703	0.444525
O15	O	-0.495386	-1.159017	0.353521
O16	O	-0.295211	-1.168413	0.567707
O17	O	-0.381470	-1.067899	0.571790
C18	C	-0.338359	-0.914291	0.394269
C19	C	-0.338367	-0.827041	0.394282
C20	C	-0.338350	-1.118163	0.598231
C21	C	-0.338361	-1.118202	0.685481
C22	C	-0.521567	-1.109541	0.402969
C23	C	-0.599631	-1.105835	0.406669
C24	C	-0.636323	-1.154315	0.358214
C25	C	-0.709672	-1.150824	0.361688
C26	C	-0.746329	-1.098855	0.413623
C27	C	-0.709633	-1.050370	0.462080
C28	C	-0.636284	-1.053858	0.458601
C29	C	-0.967793	-1.085806	0.426634
C30	C	-1.041146	-1.082324	0.430111
C31	C	-1.041181	-1.182777	0.329718
C32	C	-0.967831	-1.186264	0.326247
C33	C	-0.931141	-1.137775	0.374701
C34	C	-0.821304	-1.095287	0.417177
C35	C	-0.856167	-1.141341	0.371142
C36	C	-0.155902	-1.126946	0.385577
C37	C	-0.077838	-1.130804	0.381655
C38	C	-0.338398	-1.322981	0.394300
C39	C	-0.338406	-1.410230	0.394307
C40	C	-0.383204	-0.783918	0.446689
C41	C	-0.383216	-0.701937	0.446692
C42	C	-0.338385	-0.663080	0.394290
C43	C	-0.293546	-0.706208	0.341877
C44	C	-0.293539	-0.788187	0.341872
C45	C	-0.293563	-0.535337	0.341894
C46	C	-0.293569	-0.453352	0.341900
C47	C	-0.383240	-0.449087	0.446713
C48	C	-0.383233	-0.531067	0.446708
C49	C	-0.338392	-0.574189	0.394296
C50	C	-0.338422	-1.118333	0.189542
C51	C	-0.338440	-1.118374	0.102293
C52	C	-0.293494	-1.170589	0.724322
C53	C	-0.293512	-1.170627	0.806303
C54	C	-0.338394	-1.118273	0.849442
C55	C	-0.383266	-1.065883	0.810596
C56	C	-0.383251	-1.065850	0.728616
C57	C	-0.383293	-1.065955	0.981467
C58	C	-0.383307	-1.065987	1.063452
C59	C	-0.293554	-1.170731	1.059154
C60	C	-0.293539	-1.170698	0.977174
C61	C	-0.338410	-1.118307	0.938334
H62	H	-0.606482	-1.196636	0.315926
Cl63	Cl	-0.439586	-0.647730	0.512578
H64	H	-0.606411	-1.014372	0.498051
H65	H	-0.256989	-1.213325	0.942051
Cl66	Cl	-0.439587	-0.579915	0.512591
Cl67	Cl	-0.237063	-1.236405	0.670098
Cl68	Cl	-1.087229	-1.016982	0.495400
Cl69	Cl	-0.755796	-1.211808	0.300805
H70	H	-0.257055	-0.570445	0.299207
H71	H	-0.257020	-1.213392	1.090782
Cl72	Cl	-0.810083	-1.206662	0.305848
Cl73	Cl	-0.921678	-1.024850	0.487549
Cl74	Cl	-0.237107	-1.236490	0.855128
Cl75	Cl	-0.237207	-0.404504	0.276026
H76	H	-0.419788	-1.023192	0.696993
Cl77	Cl	-0.237171	-0.842398	0.275984
Cl78	Cl	-0.439723	-1.000161	1.117683
H79	H	-0.419835	-1.023295	0.949846
H80	H	-0.419708	-0.815550	0.489364
Cl81	Cl	-1.087310	-1.243726	0.268805
H82	H	-0.739485	-1.008053	0.504363
Cl83	Cl	-0.921754	-1.251599	0.260956
Cl84	Cl	-0.867393	-1.029960	0.482467
H85	H	-0.419753	-0.413973	0.489387
H86	H	-0.257047	-0.674564	0.299208
H87	H	-0.419813	-1.023259	0.845726
