data_functionalizedCrystal
_audit_creation_method	'MofGen! by Chris Wilmer'
_symmetry_space_group_name_H-M	'P1'
_symmetry_Int_Tables_number	1
_symmetry_cell_setting	triclinic
loop_
_symmetry_equiv_pos_as_xyz
  x,y,z
_cell_length_a	10.686220
_cell_length_b	12.594516
_cell_length_c	10.686551
_cell_angle_alpha	94.402830
_cell_angle_beta	90.308082
_cell_angle_gamma	85.591823
loop_
_atom_site_label
_atom_site_type_symbol
_atom_site_fract_x
_atom_site_fract_y
_atom_site_fract_z
Zn1	Zn	1.972226	0.259495	-0.562401
Zn2	Zn	2.472226	0.759495	-0.062401
Zn3	Zn	1.955950	0.452146	-0.352654
Zn4	Zn	2.455950	0.952146	0.147346
Zn5	Zn	1.746338	0.286723	-0.368720
Zn6	Zn	2.246338	0.786723	0.131280
Zn7	Zn	1.762381	0.449989	-0.578431
Zn8	Zn	2.262381	0.949989	-0.078431
O9	O	1.859224	0.362088	-0.465552
O10	O	2.359224	0.862088	0.034448
O11	O	2.145611	0.274558	-0.521145
O12	O	2.645611	0.774558	-0.021145
O13	O	1.914619	0.442500	-0.179240
O14	O	2.414619	0.942500	0.320760
O15	O	1.776399	0.134158	-0.394428
O16	O	2.276399	0.634158	0.105572
O17	O	2.133654	0.416098	-0.367045
O18	O	2.633654	0.916098	0.132955
O19	O	1.942358	0.114153	-0.536724
O20	O	2.442358	0.614153	-0.036724
O21	O	1.760618	0.320964	-0.191044
O22	O	2.260618	0.820964	0.308956
O23	O	1.572921	0.318873	-0.409972
O24	O	2.072921	0.818873	0.090028
O25	O	1.803743	0.412422	-0.751850
O26	O	2.303743	0.912422	-0.251850
O27	O	1.584708	0.438824	-0.564045
O28	O	2.084708	0.938824	-0.064045
O29	O	1.957915	0.272466	-0.740073
O30	O	2.457915	0.772466	-0.240073
O31	O	1.930176	0.600813	-0.382589
O32	O	2.430176	1.100813	0.117411
O33	O	1.787961	0.599228	-0.548467
O34	O	2.287961	1.099228	-0.048467
C35	C	1.533298	0.381570	-0.490492
C36	C	2.033298	0.881570	0.009508
C37	C	1.393868	0.389927	-0.501191
C38	C	1.893868	0.889927	-0.001191
C39	C	1.859080	0.638639	-0.465548
C40	C	2.359080	1.138639	0.034452
C41	C	1.859136	0.756938	-0.465580
C42	C	2.359136	1.256938	0.034420
C43	C	1.781757	0.825374	-0.555743
C44	C	2.281757	1.325374	-0.055743
C45	C	1.742387	0.906053	-0.443617
C46	C	2.242387	1.406053	0.056383
C47	C	1.898575	0.887053	-0.577720
C48	C	2.398575	1.387053	-0.077720
C49	C	1.819701	0.836068	-0.353397
C50	C	2.319701	1.336068	0.146603
C51	C	1.975948	0.817052	-0.487574
C52	C	2.475948	1.317052	0.012426
C53	C	1.936615	0.897702	-0.375365
C54	C	2.436615	1.397702	0.124635
C55	C	2.186422	0.342531	-0.440515
C56	C	2.686422	0.842531	0.059485
C57	C	2.325854	0.334198	-0.429846
C58	C	2.825854	0.834198	0.070154
C59	C	1.884434	0.339166	-0.792751
C60	C	2.384434	0.839166	-0.292751
C61	C	1.895177	0.329398	-0.932183
C62	C	2.395177	0.829398	-0.432183
C63	C	1.859349	1.084457	-0.465582
C64	C	2.359349	1.584457	0.034418
C65	C	1.859261	0.966156	-0.465602
C66	C	2.359261	1.466156	0.034398
C67	C	1.834184	0.384840	-0.139620
C68	C	2.334184	0.884840	0.360380
C69	C	1.823684	0.394293	-0.000170
C70	C	2.323684	0.894293	0.499830
H71	H	1.374292	0.280092	-0.360577
H72	H	1.874292	0.780092	0.139423
H73	H	1.754260	0.457328	-0.951705
H74	H	2.254260	0.957328	-0.451705
Br75	Br	1.672510	0.772501	-0.682676
Br76	Br	2.172510	1.272501	-0.182676
Br77	Br	1.313135	0.480132	-0.616636
Br78	Br	1.813135	0.980132	-0.116636
H79	H	1.643662	0.944873	-0.425035
H80	H	2.143662	1.444873	0.074965
H81	H	2.074656	0.778233	-0.506212
H82	H	2.574656	1.278233	-0.006212
Br83	Br	1.764003	0.798431	-0.195313
Br84	Br	2.264003	1.298431	0.304687
H85	H	1.931882	0.909776	-0.672546
H86	H	2.431882	1.409776	-0.172546
H87	H	1.964614	0.266366	-0.980653
H88	H	2.464614	0.766366	-0.480653
H89	H	2.002099	0.929241	-0.299044
H90	H	2.502099	1.429241	0.200956
