data_functionalizedCrystal
_audit_creation_method	'MofGen! by Chris Wilmer'
_symmetry_space_group_name_H-M	'P1'
_symmetry_Int_Tables_number	1
_symmetry_cell_setting	triclinic
loop_
_symmetry_equiv_pos_as_xyz
  x,y,z
_cell_length_a	12.759401
_cell_length_b	18.050589
_cell_length_c	12.759393
_cell_angle_alpha	90.030621
_cell_angle_beta	90.018496
_cell_angle_gamma	90.028382
loop_
_atom_site_label
_atom_site_type_symbol
_atom_site_fract_x
_atom_site_fract_y
_atom_site_fract_z
Zn1	Zn	1.606157	-0.295612	0.593988
Zn2	Zn	2.106157	0.204388	1.093988
Zn3	Zn	1.606010	-0.419823	0.418311
Zn4	Zn	2.106010	0.080177	0.918311
Zn5	Zn	1.430459	-0.295651	0.418328
Zn6	Zn	1.930459	0.204349	0.918328
Zn7	Zn	1.430406	-0.419766	0.593953
Zn8	Zn	1.930406	0.080234	1.093953
O9	O	1.518258	-0.357713	0.506145
O10	O	2.018258	0.142287	1.006145
O11	O	1.753158	-0.312097	0.570692
O12	O	2.253158	0.187903	1.070692
O13	O	1.582683	-0.403391	0.271292
O14	O	2.082683	0.096609	0.771292
O15	O	1.453849	-0.191722	0.441651
O16	O	1.953849	0.308278	0.941651
O17	O	1.753050	-0.403354	0.441623
O18	O	2.253050	0.096646	0.941623
O19	O	1.582934	-0.191693	0.570708
O20	O	2.082934	0.308307	1.070708
O21	O	1.453706	-0.312163	0.271304
O22	O	1.953706	0.187837	0.771304
O23	O	1.283431	-0.312108	0.441617
O24	O	1.783431	0.187892	0.941617
O25	O	1.453759	-0.403256	0.740979
O26	O	1.953759	0.096744	1.240979
O27	O	1.283392	-0.403294	0.570648
O28	O	1.783392	0.096706	1.070648
O29	O	1.582882	-0.312041	0.741005
O30	O	2.082882	0.187959	1.241005
O31	O	1.582632	-0.523740	0.441589
O32	O	2.082632	-0.023740	0.941589
O33	O	1.453616	-0.523698	0.570632
O34	O	1.953616	-0.023698	1.070632
C35	C	1.245290	-0.357699	0.506131
C36	C	1.745290	0.142301	1.006131
C37	C	1.128514	-0.357711	0.506149
C38	C	1.628514	0.142289	1.006149
C39	C	1.073659	-0.405268	0.573225
C40	C	1.573659	0.094732	1.073225
C41	C	0.963935	-0.405277	0.573236
C42	C	1.463935	0.094723	1.073236
C43	C	0.963930	-0.310171	0.439088
C44	C	1.463930	0.189829	0.939088
C45	C	1.073652	-0.310159	0.439083
C46	C	1.573652	0.189841	0.939083
C47	C	1.073661	-0.460179	0.650671
C48	C	1.573661	0.039821	1.150671
C49	C	0.963937	-0.460188	0.650683
C50	C	1.463937	0.039812	1.150683
C51	C	1.518131	-0.550665	0.506127
C52	C	2.018131	-0.050665	1.006127
C53	C	1.518173	-0.633211	0.506155
C54	C	2.018173	-0.133211	1.006155
C55	C	1.448083	-0.832666	0.576304
C56	C	1.948083	-0.332666	1.076304
C57	C	1.422469	-0.882114	0.480436
C58	C	1.922469	-0.382114	0.980436
C59	C	1.518276	-0.784341	0.506169
C60	C	2.018276	-0.284341	1.006169
C61	C	1.543942	-0.881974	0.602048
C62	C	2.043942	-0.381974	1.102048
C63	C	1.518374	-0.930326	0.506191
C64	C	2.018374	-0.430326	1.006191
C65	C	1.492611	-0.832703	0.410250
C66	C	1.992611	-0.332703	0.910250
C67	C	1.614129	-0.832558	0.531927
C68	C	2.114129	-0.332558	1.031927
C69	C	1.588551	-0.881985	0.435992
C70	C	2.088551	-0.381985	0.935992
C71	C	1.518217	-0.700243	0.506158
C72	C	2.018217	-0.200243	1.006158
C73	C	1.518433	-1.014423	0.506191
C74	C	2.018433	-0.514423	1.006191
C75	C	1.792291	-0.357727	0.506160
C76	C	2.292291	0.142273	1.006160
C77	C	1.909068	-0.357733	0.506166
C78	C	2.409068	0.142267	1.006166
C79	C	1.518331	-0.357638	0.780178
C80	C	2.018331	0.142362	1.280178
C81	C	1.518363	-0.357606	0.896955
C82	C	2.018363	0.142394	1.396955
C83	C	1.518414	-0.164007	0.506185
C84	C	2.018414	0.335993	1.006185
C85	C	1.518480	-0.081462	0.506203
C86	C	2.018480	0.418538	1.006203
C87	C	1.518245	-0.357734	0.233178
C88	C	2.018245	0.142266	0.733178
C89	C	1.518417	-0.357557	0.116401
C90	C	2.018417	0.142443	0.616401
C91	C	1.585606	-0.310106	0.951832
C92	C	2.085606	0.189894	1.451832
C93	C	1.585631	-0.310079	1.061557
C94	C	2.085631	0.189921	1.561557
C95	C	1.451166	-0.405059	1.061516
C96	C	1.951166	0.094941	1.561516
C97	C	1.451136	-0.405081	0.951794
C98	C	1.951136	0.094919	1.451794
C99	C	1.663242	-0.255273	0.951857
C100	C	2.163242	0.244727	1.451857
C101	C	1.663267	-0.255246	1.061581
C102	C	2.163267	0.244754	1.561581
H103	H	0.934122	-0.517692	0.628752
H104	H	1.434122	-0.017692	1.128752
H105	H	1.388636	-0.811010	0.635531
H106	H	1.888636	-0.311010	1.135531
H107	H	1.107657	-0.514786	0.621388
H108	H	1.607657	-0.014786	1.121388
F109	F	1.625120	-0.183851	1.106088
F110	F	2.125120	0.316149	1.606088
F111	F	0.905533	-0.259565	0.367716
F112	F	1.405533	0.240435	0.867716
F113	F	1.769618	-0.275372	1.100509
F114	F	2.269618	0.224628	1.600509
F115	F	1.572264	-0.910267	0.708018
F116	F	2.072264	-0.410267	1.208018
H117	H	1.396376	-0.443758	0.907117
H118	H	1.896376	0.056242	1.407117
F119	F	1.379623	-0.455582	1.119889
F120	F	1.879623	0.044418	1.619889
F121	F	1.316573	-0.910564	0.451961
F122	F	1.816573	-0.410564	0.951961
F123	F	1.666196	-0.910112	0.358394
F124	F	2.166196	-0.410112	0.858394
H125	H	1.103474	-0.444840	0.732077
H126	H	1.603474	0.055160	1.232077
F127	F	0.919503	-0.433354	0.751783
F128	F	1.419503	0.066646	1.251783
F129	F	1.132029	-0.259531	0.367709
F130	F	1.632029	0.240469	0.867709
F131	F	1.634814	-0.180100	0.912956
F132	F	2.134814	0.319900	1.412956
H133	H	1.695124	-0.810777	0.553739
H134	H	2.195124	-0.310777	1.053739
F135	F	1.764233	-0.282219	0.907364
F136	F	2.264233	0.217781	1.407364
H137	H	1.470848	-0.811149	0.329152
H138	H	1.970848	-0.311149	0.829152
