data_functionalizedCrystal
_audit_creation_method	'MofGen! by Chris Wilmer'
_symmetry_space_group_name_H-M	'P1'
_symmetry_Int_Tables_number	1
_symmetry_cell_setting	triclinic
loop_
_symmetry_equiv_pos_as_xyz
  x,y,z
_cell_length_a	18.101398
_cell_length_b	18.050590
_cell_length_c	18.101390
_cell_angle_alpha	89.966356
_cell_angle_beta	89.989901
_cell_angle_gamma	90.014109
loop_
_atom_site_label
_atom_site_type_symbol
_atom_site_fract_x
_atom_site_fract_y
_atom_site_fract_z
Zn1	Zn	1.132188	-0.295719	-0.418547
Zn2	Zn	1.632188	0.204281	0.081453
Zn3	Zn	1.132110	-0.419925	-0.294704
Zn4	Zn	1.632110	0.080075	0.205296
Zn5	Zn	1.008346	-0.295744	-0.294740
Zn6	Zn	1.508346	0.204256	0.205260
Zn7	Zn	1.008325	-0.419862	-0.418524
Zn8	Zn	1.508325	0.080138	0.081476
O9	O	1.070242	-0.357812	-0.356628
O10	O	1.570242	0.142188	0.143372
O11	O	1.235811	-0.312211	-0.402113
O12	O	1.735811	0.187789	0.097887
O13	O	1.115669	-0.403488	-0.191076
O14	O	1.615669	0.096512	0.308924
O15	O	1.024816	-0.191816	-0.311187
O16	O	1.524816	0.308184	0.188813
O17	O	1.235754	-0.403465	-0.311126
O18	O	1.735754	0.096535	0.188874
O19	O	1.115802	-0.191798	-0.402148
O20	O	1.615802	0.308202	0.097852
O21	O	1.024740	-0.312253	-0.191102
O22	O	1.524740	0.187747	0.308898
O23	O	0.904711	-0.312192	-0.311165
O24	O	1.404711	0.187808	0.188835
O25	O	1.024779	-0.403358	-0.522160
O26	O	1.524779	0.096642	-0.022160
O27	O	0.904695	-0.403382	-0.402109
O28	O	1.404695	0.096618	0.097891
O29	O	1.115781	-0.312151	-0.522177
O30	O	1.615781	0.187849	-0.022177
O31	O	1.115648	-0.523841	-0.311104
O32	O	1.615648	-0.023841	0.188896
O33	O	1.024704	-0.523795	-0.402074
O34	O	1.524704	-0.023795	0.097926
C35	C	0.877832	-0.357783	-0.356639
C36	C	1.377832	0.142217	0.143361
C37	C	0.795518	-0.357789	-0.356661
C38	C	1.295518	0.142211	0.143339
C39	C	0.496427	-0.357832	-0.356630
C40	C	0.996427	0.142168	0.143370
C41	C	0.527767	-0.415484	-0.413567
C42	C	1.027767	0.084516	0.086433
C43	C	0.613385	-0.415303	-0.413801
C44	C	1.113385	0.084697	0.086199
C45	C	0.644809	-0.357811	-0.356645
C46	C	1.144809	0.142189	0.143355
C47	C	0.613738	-0.279588	-0.377974
C48	C	1.113738	0.220412	0.122026
C49	C	0.528093	-0.279934	-0.378379
C50	C	1.028093	0.220066	0.121621
C51	C	0.527978	-0.377715	-0.278227
C52	C	1.027978	0.122285	0.221773
C53	C	0.613628	-0.379431	-0.278646
C54	C	1.113628	0.120569	0.221354
C55	C	0.728669	-0.357795	-0.356653
C56	C	1.228669	0.142205	0.143347
C57	C	0.412567	-0.357844	-0.356624
C58	C	0.912567	0.142156	0.143376
C59	C	1.070185	-0.550765	-0.356599
C60	C	1.570185	-0.050765	0.143401
C61	C	1.070229	-0.633310	-0.356611
C62	C	1.570229	-0.133310	0.143389
C63	C	1.119787	-0.832759	-0.307211
C64	C	1.619787	-0.332759	0.192789
C65	C	1.137877	-0.882087	-0.374798
C66	C	1.637877	-0.382087	0.125202
C67	C	1.070271	-0.784441	-0.356641
C68	C	1.570271	-0.284441	0.143359
C69	C	1.052256	-0.882195	-0.289084
C70	C	1.552256	-0.382195	0.210916
C71	C	1.070313	-0.930426	-0.356663
C72	C	1.570313	-0.430426	0.143337
C73	C	1.088395	-0.832681	-0.424263
C74	C	1.588395	-0.332681	0.075737
C75	C	1.002743	-0.832785	-0.338504
C76	C	1.502743	-0.332785	0.161496
C77	C	1.020807	-0.882090	-0.406138
C78	C	1.520807	-0.382090	0.093862
C79	C	1.070249	-0.700342	-0.356627
C80	C	1.570249	-0.200342	0.143373
C81	C	1.070335	-1.014522	-0.356685
C82	C	1.570335	-0.514522	0.143315
C83	C	1.263404	-0.357842	-0.356619
C84	C	1.763404	0.142158	0.143381
C85	C	1.345718	-0.357855	-0.356614
C86	C	1.845718	0.142145	0.143386
C87	C	1.070286	-0.357745	-0.549790
C88	C	1.570286	0.142255	-0.049790
C89	C	1.070305	-0.357716	-0.632105
C90	C	1.570305	0.142284	-0.132105
C91	C	1.070320	-0.164107	-0.356674
C92	C	1.570320	0.335893	0.143326
C93	C	1.070353	-0.081561	-0.356694
C94	C	1.570353	0.418439	0.143306
C95	C	1.070345	-0.357669	-0.931196
C96	C	1.570345	0.142331	-0.431196
C97	C	1.127790	-0.300486	-0.899881
C98	C	1.627790	0.199514	-0.399881
C99	C	1.127610	-0.300274	-0.814263
C100	C	1.627610	0.199726	-0.314263
C101	C	1.070326	-0.357692	-0.782813
C102	C	1.570326	0.142308	-0.282813
C103	C	0.992305	-0.336423	-0.813900
C104	C	1.492305	0.163577	-0.313900
C105	C	0.992648	-0.335995	-0.899545
C106	C	1.492648	0.164005	-0.399545
C107	C	1.090235	-0.436269	-0.899604
C108	C	1.590235	0.063731	-0.399604
C109	C	1.091947	-0.435868	-0.813953
C110	C	1.591947	0.064132	-0.313953
C111	C	1.070310	-0.357707	-0.698954
C112	C	1.570310	0.142293	-0.198954
C113	C	1.070356	-0.357653	-1.015055
C114	C	1.570356	0.142347	-0.515055
C115	C	1.070241	-0.357826	-0.164218
C116	C	1.570241	0.142174	0.335782
C117	C	1.070366	-0.357646	-0.081904
C118	C	1.570366	0.142354	0.418096
H119	H	0.634393	-0.473310	-0.400433
H120	H	1.134393	0.026690	0.099567
Br121	Br	0.963692	-0.241721	-0.778183
Br122	Br	1.463692	0.258279	-0.278183
H123	H	0.507361	-0.235440	-0.338810
H124	H	1.007361	0.264560	0.161190
Br125	Br	1.187650	-0.462599	-0.780096
Br126	Br	1.687650	0.037401	-0.280096
Br127	Br	1.026832	-0.918447	-0.193847
Br128	Br	1.526832	-0.418447	0.306153
H129	H	1.185833	-0.313642	-0.920473
H130	H	1.685833	0.186358	-0.420473
Br131	Br	1.224040	-0.322464	-0.779227
Br132	Br	1.724040	0.177536	-0.279227
H133	H	0.506377	-0.433780	-0.258844
H134	H	1.006377	0.066220	0.241156
H135	H	0.633945	-0.436992	-0.262560
H136	H	1.133945	0.063008	0.237440
Br137	Br	1.106128	-0.203975	-0.935783
Br138	Br	1.606128	0.296025	-0.435783
Br139	Br	0.649275	-0.314524	-0.204138
Br140	Br	1.149275	0.185476	0.295862
Br141	Br	1.113941	-0.796592	-0.519528
Br142	Br	1.613941	-0.296592	-0.019528
H143	H	1.114443	-0.242046	-0.793793
H144	H	1.614443	0.257954	-0.293793
H145	H	0.948342	-0.376790	-0.793528
H146	H	1.448342	0.123210	-0.293528
H147	H	0.508128	-0.263071	-0.435695
H148	H	1.008128	0.236929	0.064305
Br149	Br	0.647662	-0.206048	-0.311015
Br150	Br	1.147662	0.293952	0.188985
Br151	Br	1.027280	-0.510701	-0.778275
Br152	Br	1.527280	-0.010701	-0.278275
H153	H	0.978951	-0.903614	-0.447997
H154	H	1.478951	-0.403614	0.052003
H155	H	1.048399	-0.478877	-0.919860
H156	H	1.548399	0.021123	-0.419860
H157	H	1.195002	-0.903745	-0.390152
H158	H	1.695002	-0.403745	0.109848
H159	H	1.161676	-0.811098	-0.265452
H160	H	1.661676	-0.311098	0.234548
Br161	Br	0.964508	-0.240244	-0.932875
Br162	Br	1.464508	0.259756	-0.432875
Br163	Br	0.493424	-0.512485	-0.391543
Br164	Br	0.993424	-0.012485	0.108457
H165	H	0.506254	-0.402495	-0.471322
H166	H	1.006254	0.097505	0.028678
H167	H	0.507710	-0.335722	-0.235804
H168	H	1.007710	0.164278	0.264196
H169	H	0.633885	-0.402147	-0.471892
H170	H	1.133885	0.097853	0.028108
Br171	Br	0.918876	-0.402379	-0.934075
Br172	Br	1.418876	0.097621	-0.434075
Br173	Br	0.649505	-0.250970	-0.472466
Br174	Br	1.149505	0.249030	0.027534
H175	H	0.945635	-0.811111	-0.323129
H176	H	1.445635	-0.311111	0.176871
H177	H	1.146131	-0.455634	-0.921239
H178	H	1.646131	0.044366	-0.421239
