data_functionalizedCrystal
_audit_creation_method	'MofGen! by Chris Wilmer'
_symmetry_space_group_name_H-M	'P1'
_symmetry_Int_Tables_number	1
_symmetry_cell_setting	triclinic
loop_
_symmetry_equiv_pos_as_xyz
  x,y,z
_cell_length_a	10.654550
_cell_length_b	19.188930
_cell_length_c	9.130313
_cell_angle_alpha	89.990369
_cell_angle_beta	89.999724
_cell_angle_gamma	83.814856
loop_
_atom_site_label
_atom_site_type_symbol
_atom_site_fract_x
_atom_site_fract_y
_atom_site_fract_z
O1	O	1.665764	0.098062	-0.121709
O2	O	1.300088	0.107405	-0.121737
O3	O	1.493479	0.001147	-0.121693
O4	O	1.472374	0.204320	-0.121752
O5	O	1.493466	0.001143	0.121905
O6	O	1.300075	0.107401	0.121862
O7	O	1.665751	0.098059	0.121890
Cu8	Cu	1.482912	0.102730	0.144118
Cu9	Cu	1.482928	0.102734	-0.143965
O10	O	1.472361	0.204317	0.121847
C11	C	1.253298	0.106717	0.000059
C12	C	1.113898	0.104665	0.000049
C13	C	1.033089	0.167228	0.000035
C14	C	0.902109	0.165295	0.000061
C15	C	0.932761	0.038231	0.000109
C16	C	1.063738	0.040164	0.000094
C17	C	1.492789	-0.024870	0.000110
C18	C	1.490737	-0.102388	0.000123
C19	C	1.604213	-0.146570	0.000138
C20	C	1.602285	-0.219407	0.000115
C21	C	1.486876	-0.248058	0.000105
C22	C	1.373386	-0.203866	0.000081
C23	C	1.375316	-0.131032	0.000090
N24	N	1.398655	-0.356641	0.082999
N25	N	1.396828	-0.425831	0.082994
C26	C	1.481052	-0.467505	0.000075
N27	N	1.567190	-0.437375	-0.082821
N28	N	1.569020	-0.368178	-0.082809
C29	C	1.484770	-0.327034	0.000094
C30	C	1.592445	-0.590665	0.000063
C31	C	1.590513	-0.663502	0.000030
C32	C	1.361610	-0.647960	0.000011
C33	C	1.363545	-0.575124	0.000029
C34	C	1.478966	-0.546481	0.000062
C35	C	1.712541	0.098746	0.000091
C36	C	1.851941	0.100799	0.000091
C37	C	1.473051	0.230334	0.000040
C38	C	1.475102	0.307852	0.000018
N39	N	1.482910	0.102727	0.346741
N40	N	1.482939	0.102731	-0.346588
C41	C	1.568572	0.055696	0.423412
C42	C	1.568584	0.055696	0.576749
C43	C	1.397268	0.149764	0.576730
C44	C	1.397251	0.149760	0.423396
H45	H	1.073924	0.219748	0.000010
H46	H	1.267641	-0.671287	-0.000005
H47	H	0.836318	0.216240	0.000053
H48	H	1.638336	0.017398	0.639171
C49	C	1.303063	0.201503	0.661055
H50	H	1.315349	0.194776	0.763357
H51	H	1.219295	0.193489	0.635948
H52	H	1.316447	0.248172	0.635896
H53	H	0.891904	-0.014283	0.000154
H54	H	1.271141	-0.539150	0.000024
C55	C	1.303030	0.201500	0.339045
H56	H	1.315283	0.194757	0.236747
H57	H	1.316410	0.248168	0.364148
H58	H	1.219262	0.193483	0.364185
C59	C	1.152635	-0.028658	0.000103
H60	H	1.104004	-0.067349	0.000109
H61	H	1.204374	-0.030545	0.085044
H62	H	1.204356	-0.030542	-0.084863
C63	C	1.250492	-0.082427	0.000075
H64	H	1.268172	-0.034946	0.000075
H65	H	1.203138	-0.091179	0.085012
H66	H	1.203163	-0.091161	-0.084895
C67	C	1.731167	-0.115063	0.000169
H68	H	1.716069	-0.065356	0.000185
H69	H	1.777888	-0.130183	-0.084770
H70	H	1.777858	-0.130201	0.085138
C71	C	1.727112	-0.268015	0.000143
H72	H	1.796128	-0.240525	0.000173
H73	H	1.731130	-0.296746	-0.084803
H74	H	1.731097	-0.296756	0.085104
H75	H	1.638319	0.017397	0.361004
C76	C	1.246439	-0.235380	0.000075
H77	H	1.261540	-0.285086	0.000087
H78	H	1.199734	-0.220244	-0.084876
H79	H	1.199729	-0.220258	0.085031
H80	H	1.686428	-0.567342	0.000083
C81	C	1.715342	-0.712103	0.000050
H82	H	1.784354	-0.684609	0.000086
H83	H	1.719363	-0.740830	-0.084901
H84	H	1.719331	-0.740847	0.085006
