data_functionalizedCrystal
_audit_creation_method	'MofGen! by Chris Wilmer'
_symmetry_space_group_name_H-M	'P1'
_symmetry_Int_Tables_number	1
_symmetry_cell_setting	triclinic
loop_
_symmetry_equiv_pos_as_xyz
  x,y,z
_cell_length_a	23.532407
_cell_length_b	15.944551
_cell_length_c	15.021413
_cell_angle_alpha	90.002826
_cell_angle_beta	89.999348
_cell_angle_gamma	96.826292
loop_
_atom_site_label
_atom_site_type_symbol
_atom_site_fract_x
_atom_site_fract_y
_atom_site_fract_z
O1	O	0.073442	-1.113910	-0.073949
O2	O	0.082498	-0.869284	-0.073972
O3	O	-0.004933	-0.998974	-0.073943
O4	O	0.160873	-0.984220	-0.073977
O5	O	-0.004921	-0.998953	0.074121
O6	O	0.082510	-0.869263	0.074092
O7	O	0.073455	-1.113889	0.074116
Zn8	Zn	0.077985	-0.991573	0.097612
Zn9	Zn	0.077968	-0.991600	-0.097469
O10	O	0.160886	-0.984200	0.074087
C11	C	0.082128	-0.837983	0.000057
C12	C	0.081001	-0.744746	0.000049
C13	C	-0.026144	-0.998588	0.000091
C14	C	-0.089366	-0.997458	0.000098
N15	N	0.077995	-0.991561	0.230750
C16	C	-0.488199	-1.067121	0.000056
C17	C	-0.547603	-1.066072	0.000049
O18	O	-0.584098	-1.130650	0.000022
N19	N	-0.570528	-0.988971	0.000042
C20	C	-0.534045	-0.912915	0.000033
O21	O	-0.558999	-0.847239	0.000026
C22	C	-0.474642	-0.913965	0.000034
C23	C	-0.451721	-0.991071	0.000049
C24	C	-0.465277	-1.144220	0.000070
C25	C	-0.405877	-1.145269	0.000079
C26	C	-0.369399	-1.069219	0.000073
C27	C	-0.392320	-0.992120	0.000058
C28	C	-0.438160	-0.837910	0.000018
C29	C	-0.378754	-0.838967	0.000018
C30	C	-0.355832	-0.916072	0.000034
C31	C	-0.296442	-0.917118	0.000060
N32	N	-0.273517	-0.994219	0.000067
C33	C	-0.309995	-1.070269	0.000073
C34	C	-0.658796	-0.910716	0.000031
C35	C	-0.718198	-0.909664	0.000037
C36	C	-0.731752	-1.062821	0.000050
C37	C	-0.672349	-1.063872	0.000051
C38	C	-0.635871	-0.987816	0.000037
C39	C	-0.185250	-1.072466	0.000092
C40	C	-0.125844	-1.073508	0.000104
C41	C	-0.112295	-0.920352	0.000085
C42	C	-0.171696	-0.919309	0.000078
C43	C	-0.208173	-0.995373	0.000078
O44	O	-0.259913	-0.852574	0.000083
O45	O	-0.285033	-1.135935	0.000069
C46	C	0.182097	-0.984586	0.000051
C47	C	0.245318	-0.985715	0.000038
C48	C	0.073824	-1.145190	0.000084
C49	C	0.074951	-1.238427	0.000087
C50	C	0.024113	-0.530369	0.000078
C51	C	0.050524	-0.469137	-0.072931
C52	C	0.078962	-0.574038	0.000060
C53	C	0.050549	-0.469138	0.073049
C54	C	0.076989	-0.409142	0.000075
C55	C	0.105388	-0.514033	-0.073009
C56	C	0.105405	-0.514041	0.073036
C57	C	0.131856	-0.452826	0.000010
C58	C	0.080097	-0.669030	0.000051
C59	C	0.075858	-0.314150	0.000077
N60	N	0.077953	-0.991619	-0.230606
C61	C	0.118404	-0.931583	0.470420
C62	C	0.129461	-1.007390	0.529759
C63	C	0.077981	-0.991582	0.412357
C64	C	0.066938	-0.915796	0.529760
C65	C	0.077969	-0.991596	0.587781
C66	C	0.089063	-1.067428	0.470389
C67	C	0.026518	-0.975783	0.470385
C68	C	0.037552	-1.051645	0.529697
C69	C	0.077990	-0.991573	0.311300
C70	C	0.077960	-0.991614	0.688836
H71	H	-0.214943	-1.134405	0.000089
H72	H	-0.629098	-0.848778	0.000027
C73	C	0.181548	-1.099303	0.616251
C74	C	0.188202	-1.025447	0.564981
H75	H	0.217814	-1.110446	0.637990
H76	H	0.156834	-1.092256	0.664980
H77	H	0.165490	-1.145300	0.580546
H78	H	0.204256	-0.979448	0.600688
H79	H	0.212924	-1.032489	0.516245
H80	H	0.003360	-1.102446	0.555561
C81	C	0.096721	-0.766537	0.535029
C82	C	0.054327	-0.829268	0.564959
H83	H	0.088936	-0.713117	0.556753
H84	H	0.132993	-0.778175	0.556238
H85	H	0.096978	-0.765767	0.471796
H86	H	0.054073	-0.830042	0.628193
H87	H	0.018046	-0.817627	0.543754
H88	H	0.177423	-0.419284	-0.000040
H89	H	0.027320	-0.449230	-0.134645
H90	H	0.128564	-0.533834	-0.134800
H91	H	-0.387220	-1.208056	0.000088
H92	H	0.128590	-0.533969	0.134754
H93	H	-0.349056	-0.777032	0.000006
H94	H	0.098450	-1.131539	0.444420
H95	H	-0.016985	-0.962383	0.444284
C96	C	-0.495106	-1.274462	-0.076021
C97	C	-0.505366	-1.227827	0.000082
H98	H	-0.519850	-1.326083	-0.076004
H99	H	-0.502067	-1.242843	-0.127651
H100	H	-0.456442	-1.286100	-0.076012
H101	H	-0.544029	-1.216184	0.000070
H102	H	-0.498410	-1.259453	0.051725
C103	C	-0.145218	-1.224796	0.000110
C104	C	-0.100650	-1.158269	0.000114
H105	H	-0.129664	-1.277120	0.000109
H106	H	-0.168106	-1.221194	0.051738
H107	H	-0.168104	-1.221197	-0.051529
H108	H	-0.077767	-1.161864	0.051757
H109	H	-0.077753	-1.161872	-0.051519
C110	C	-0.082442	-0.790155	-0.076052
C111	C	-0.072191	-0.836760	0.000072
H112	H	-0.057684	-0.738547	-0.076062
H113	H	-0.075494	-0.821808	-0.127667
H114	H	-0.121101	-0.778493	-0.076045
H115	H	-0.033533	-0.848427	0.000062
H116	H	-0.079135	-0.805100	0.051701
H117	H	-0.761464	-1.124746	0.000052
C118	C	-0.691727	-1.215151	0.000059
C119	C	-0.647157	-1.148627	0.000054
H120	H	-0.676176	-1.267477	0.000053
H121	H	-0.714610	-1.211548	0.051691
H122	H	-0.714617	-1.211550	-0.051576
H123	H	-0.624270	-1.152225	0.051692
H124	H	-0.624265	-1.152232	-0.051584
H125	H	0.027346	-0.449239	0.134770
H126	H	-0.456812	-0.775123	0.000000
C127	C	-0.698819	-0.758384	0.000021
C128	C	-0.743389	-0.824908	0.000027
H129	H	-0.714371	-0.706058	0.000005
H130	H	-0.675937	-0.761974	0.051655
H131	H	-0.675929	-0.761998	-0.051612
H132	H	-0.766277	-0.821297	0.051663
H133	H	-0.766281	-0.821316	-0.051613
C134	C	-0.230634	-0.829293	-0.076053
C135	C	-0.196899	-0.834558	0.000069
H136	H	-0.246193	-0.776973	-0.076060
H137	H	-0.207736	-0.832888	-0.127670
H138	H	-0.260859	-0.874441	-0.076045
H139	H	-0.166671	-0.789413	0.000058
H140	H	-0.219799	-0.830955	0.051699
H141	H	-0.021407	-0.564086	-0.000003
C142	C	0.218438	-0.879925	0.465244
C143	C	0.164587	-0.863160	0.435270
H144	H	0.246948	-0.837689	0.443536
H145	H	0.218976	-0.879789	0.528469
H146	H	0.225913	-0.933665	0.444039
H147	H	0.157109	-0.809422	0.456480
H148	H	0.164047	-0.863287	0.372031
