data_functionalizedCrystal
_audit_creation_method	'MofGen! by Chris Wilmer'
_symmetry_space_group_name_H-M	'P1'
_symmetry_Int_Tables_number	1
_symmetry_cell_setting	triclinic
loop_
_symmetry_equiv_pos_as_xyz
  x,y,z
_cell_length_a	21.395362
_cell_length_b	13.033304
_cell_length_c	21.395355
_cell_angle_alpha	97.216878
_cell_angle_beta	89.979451
_cell_angle_gamma	82.802461
loop_
_atom_site_label
_atom_site_type_symbol
_atom_site_fract_x
_atom_site_fract_y
_atom_site_fract_z
Zn1	Zn	-0.128019	-1.597779	-0.476158
Zn2	Zn	0.205315	-1.264445	-0.142825
Zn3	Zn	0.538648	-0.931112	0.190508
Zn4	Zn	-0.232791	-1.597619	-0.371365
Zn5	Zn	0.100543	-1.264285	-0.038032
Zn6	Zn	0.433876	-0.930952	0.295302
Zn7	Zn	-0.141309	-1.422990	-0.358059
Zn8	Zn	0.192024	-1.089657	-0.024726
Zn9	Zn	0.525357	-0.756324	0.308607
Zn10	Zn	-0.246057	-1.422942	-0.462778
Zn11	Zn	0.087277	-1.089608	-0.129444
Zn12	Zn	0.420610	-0.756275	0.203889
O13	O	-0.187044	-1.510332	-0.417090
O14	O	0.146289	-1.176999	-0.083757
O15	O	0.479623	-0.843666	0.249577
O16	O	-0.130803	-1.744010	-0.473426
O17	O	0.202530	-1.410677	-0.140092
O18	O	0.535864	-1.077343	0.193241
O19	O	-0.220666	-1.574407	-0.281918
O20	O	0.112667	-1.241074	0.051415
O21	O	0.446001	-0.907741	0.384748
O22	O	-0.051862	-1.446264	-0.373757
O23	O	0.281471	-1.112930	-0.040423
O24	O	0.614805	-0.779597	0.292910
O25	O	-0.207778	-1.743892	-0.396434
O26	O	0.125555	-1.410559	-0.063101
O27	O	0.458888	-1.077226	0.270232
O28	O	-0.042097	-1.574680	-0.460524
O29	O	0.291236	-1.241346	-0.127190
O30	O	0.624569	-0.908013	0.206143
O31	O	-0.153455	-1.446109	-0.272143
O32	O	0.179878	-1.112775	0.061191
O33	O	0.513212	-0.779442	0.394524
O34	O	-0.166318	-1.276731	-0.360782
O35	O	0.167015	-0.943398	-0.027449
O36	O	0.500348	-0.610065	0.305885
O37	O	-0.230388	-1.446181	-0.552234
O38	O	0.102945	-1.112847	-0.218901
O39	O	0.436278	-0.779514	0.114432
O40	O	-0.243276	-1.276696	-0.437718
O41	O	0.090057	-0.943362	-0.104385
O42	O	0.423391	-0.610029	0.228948
O43	O	-0.143666	-1.574633	-0.562065
O44	O	0.189667	-1.241299	-0.228731
O45	O	0.523000	-0.907966	0.104602
O46	O	-0.322235	-1.574360	-0.383460
O47	O	0.011098	-1.241027	-0.050126
O48	O	0.344432	-0.907694	0.283207
O49	O	-0.331981	-1.446026	-0.450620
O50	O	0.001352	-1.112692	-0.117287
O51	O	0.334685	-0.779359	0.216046
C52	C	-0.207679	-1.238792	-0.396355
C53	C	0.125654	-0.905459	-0.063021
C54	C	0.458987	-0.572125	0.270312
C55	C	-0.216522	-1.122626	-0.387499
C56	C	0.116811	-0.789292	-0.054166
C57	C	0.450144	-0.455959	0.279168
C58	C	-0.182438	-1.070893	-0.421703
C59	C	0.150895	-0.737560	-0.088370
C60	C	0.484229	-0.404226	0.244963
C61	C	-0.191577	-0.950829	-0.412551
C62	C	0.141756	-0.617496	-0.079218
C63	C	0.475090	-0.284163	0.254115
C64	C	-0.349842	-1.510199	-0.417048
C65	C	-0.016508	-1.176865	-0.083714
C66	C	0.316825	-0.843532	0.249619
C67	C	-0.419480	-1.510237	-0.417058
C68	C	-0.086147	-1.176904	-0.083725
C69	C	0.247187	-0.843570	0.249609
C70	C	-0.447055	-1.577065	-0.462263
C71	C	-0.113721	-1.243732	-0.128930
C72	C	0.219612	-0.910398	0.204404
C73	C	-0.512487	-1.577102	-0.462281
C74	C	-0.179154	-1.243769	-0.128948
C75	C	0.154179	-0.910435	0.204386
C76	C	-0.550342	-1.510322	-0.417084
C77	C	-0.217009	-1.176988	-0.083750
C78	C	0.116325	-0.843655	0.249583
C79	C	-0.522760	-1.443481	-0.371875
C80	C	-0.189427	-1.110147	-0.038541
C81	C	0.143906	-0.776814	0.294792
C82	C	-0.457329	-1.443438	-0.371862
C83	C	-0.123996	-1.110105	-0.038529
C84	C	0.209337	-0.776772	0.294805
C85	C	-0.654661	-1.502186	-0.360024
C86	C	-0.321327	-1.168853	-0.026691
C87	C	0.012006	-0.835520	0.306642
C88	C	-0.720090	-1.502236	-0.360037
C89	C	-0.386757	-1.168903	-0.026703
C90	C	-0.053423	-0.835569	0.306630
C91	C	-0.752153	-1.510446	-0.417123
C92	C	-0.418820	-1.177112	-0.083790
C93	C	-0.085487	-0.843779	0.249543
C94	C	-0.718777	-1.518628	-0.474201
C95	C	-0.385444	-1.185295	-0.140868
C96	C	-0.052111	-0.851961	0.192465
C97	C	-0.653347	-1.518586	-0.474188
C98	C	-0.320013	-1.185252	-0.140855
C99	C	0.013320	-0.851919	0.192478
C100	C	-0.621291	-1.510359	-0.417093
C101	C	-0.287958	-1.177026	-0.083760
C102	C	0.045375	-0.843693	0.249574
C103	C	-0.850677	-1.577317	-0.462352
C104	C	-0.517344	-1.243984	-0.129019
C105	C	-0.184010	-0.910650	0.204315
C106	C	-0.916111	-1.577346	-0.462371
C107	C	-0.582778	-1.244013	-0.129037
C108	C	-0.249445	-0.910680	0.204296
C109	C	-0.926383	-1.443731	-0.371959
C110	C	-0.593049	-1.110397	-0.038626
C111	C	-0.259716	-0.777064	0.294708
C112	C	-0.860950	-1.443696	-0.371946
C113	C	-0.527617	-1.110362	-0.038612
C114	C	-0.194283	-0.777029	0.294721
C115	C	-0.823101	-1.510495	-0.417142
C116	C	-0.489767	-1.177161	-0.083808
C117	C	-0.156434	-0.843828	0.249525
C118	C	-0.023608	-1.510495	-0.417148
C119	C	0.309725	-1.177162	-0.083815
C120	C	0.643058	-0.843828	0.249518
C121	C	0.046038	-1.510564	-0.417173
C122	C	0.379372	-1.177231	-0.083840
C123	C	0.712705	-0.843898	0.249493
C124	C	-0.187025	-1.510419	-0.580520
C125	C	0.146309	-1.177086	-0.247187
C126	C	0.479642	-0.843752	0.086147
C127	C	-0.187016	-1.510456	-0.650164
C128	C	0.146317	-1.177123	-0.316831
C129	C	0.479650	-0.843789	0.016503
C130	C	-0.166325	-0.782933	-0.437902
C131	C	0.167008	-0.449600	-0.104569
C132	C	0.500342	-0.116266	0.228764
C133	C	-0.157488	-0.899099	-0.446761
C134	C	0.175846	-0.565766	-0.113427
C135	C	0.509179	-0.232433	0.219906
C136	C	-0.141859	-1.577338	-0.687997
C137	C	0.191475	-1.244005	-0.354664
C138	C	0.524808	-0.910671	-0.021330
C139	C	-0.141832	-1.577337	-0.753432
C140	C	0.191501	-1.244003	-0.420099
C141	C	0.524835	-0.910670	-0.086766
C142	C	-0.186973	-1.510464	-0.781033
C143	C	0.146360	-1.177131	-0.447700
C144	C	0.479694	-0.843798	-0.114366
C145	C	-0.232135	-1.443569	-0.743192
C146	C	0.101199	-1.110236	-0.409858
C147	C	0.434532	-0.776903	-0.076525
C148	C	-0.232156	-1.443565	-0.677757
C149	C	0.101177	-1.110232	-0.344424
C150	C	0.434511	-0.776898	-0.011090
C151	C	-0.244019	-1.502166	-0.884063
C152	C	0.089314	-1.168832	-0.550730
C153	C	0.422647	-0.835499	-0.217397
C154	C	-0.243998	-1.502177	-0.949497
C155	C	0.089335	-1.168844	-0.616164
C156	C	0.422668	-0.835510	-0.282831
C157	C	-0.186906	-1.510471	-0.982854
C158	C	0.146427	-1.177137	-0.649521
C159	C	0.479760	-0.843804	-0.316188
C160	C	-0.129832	-1.518775	-0.950771
C161	C	0.203501	-1.185442	-0.617438
C162	C	0.536834	-0.852108	-0.284105
C163	C	-0.129854	-1.518771	-0.885337
C164	C	0.203479	-1.185438	-0.552004
C165	C	0.536813	-0.852104	-0.218670
C166	C	-0.186954	-1.510461	-0.851985
C167	C	0.146379	-1.177127	-0.518652
C168	C	0.479712	-0.843794	-0.185319
C169	C	-0.141716	-1.577355	-1.091640
C170	C	0.191617	-1.244021	-0.758307
C171	C	0.524951	-0.910688	-0.424973
C172	C	-0.141689	-1.577346	-1.157076
C173	C	0.191645	-1.244013	-0.823743
C174	C	0.524978	-0.910679	-0.490409
C175	C	-0.231996	-1.443584	-1.146834
C176	C	0.101337	-1.110251	-0.813501
C177	C	0.434670	-0.776917	-0.480168
C178	C	-0.232019	-1.443587	-1.081399
C179	C	0.101315	-1.110254	-0.748066
C180	C	0.434648	-0.776921	-0.414733
C181	C	-0.186879	-1.510478	-1.053806
C182	C	0.146455	-1.177145	-0.720473
C183	C	0.479788	-0.843812	-0.387140
C184	C	-0.187013	-1.510306	-0.254300
C185	C	0.146320	-1.176973	0.079033
C186	C	0.479653	-0.843639	0.412366
C187	C	-0.186830	-1.510472	-0.184672
C188	C	0.146504	-1.177138	0.148661
C189	C	0.479837	-0.843805	0.481994
H190	H	-0.416240	-1.631454	-0.499066
H191	H	-0.082906	-1.298121	-0.165732
H192	H	0.250427	-0.964787	0.167601
N193	N	-0.109870	-0.958148	-0.494534
N194	N	0.223464	-0.624814	-0.161201
N195	N	0.556797	-0.291481	0.172133
H196	H	-0.066519	-0.939224	-0.483453
H197	H	0.266814	-0.605890	-0.150120
H198	H	0.600148	-0.272557	0.183213
H199	H	-0.110143	-1.035528	-0.494283
H200	H	0.223190	-0.702195	-0.160949
H201	H	0.556524	-0.368861	0.172384
H202	H	-0.252468	-1.078029	-0.351438
H203	H	0.080866	-0.744696	-0.018105
H204	H	0.414199	-0.411363	0.315228
H205	H	-0.747259	-1.495580	-0.313561
H206	H	-0.413926	-1.162247	0.019772
H207	H	-0.080592	-0.828913	0.353106
H208	H	-0.534944	-1.631512	-0.499099
H209	H	-0.201611	-1.298179	-0.165766
H210	H	0.131723	-0.964846	0.167567
H211	H	-0.938561	-1.631766	-0.499185
H212	H	-0.605228	-1.298432	-0.165851
H213	H	-0.271894	-0.965099	0.167482
N214	N	-0.831203	-1.371625	-0.323184
N215	N	-0.497870	-1.038292	0.010149
N216	N	-0.164536	-0.704958	0.343483
H217	H	-0.865111	-1.329326	-0.294552
H218	H	-0.531777	-0.995992	0.038781
H219	H	-0.198444	-0.662659	0.372114
H220	H	-0.800811	-1.414179	-0.297456
H221	H	-0.467478	-1.080846	0.035877
H222	H	-0.134145	-0.747512	0.369211
N223	N	-0.967198	-1.371695	-0.323209
N224	N	-0.633865	-1.038362	0.010125
N225	N	-0.300532	-0.705029	0.343458
H226	H	-0.998042	-1.323258	-0.344953
H227	H	-0.664709	-0.989925	-0.011620
H228	H	-0.331376	-0.656591	0.321714
H229	H	-0.991066	-1.414279	-0.297457
H230	H	-0.657732	-1.080946	0.035877
H231	H	-0.324399	-0.747613	0.369210
H232	H	-0.146489	-1.115490	-0.457760
H233	H	0.186844	-0.782156	-0.124427
H234	H	0.520177	-0.448823	0.208906
N235	N	-0.617345	-1.527396	-0.535742
N236	N	-0.284012	-1.194063	-0.202409
N237	N	0.049321	-0.860729	0.130924
H238	H	-0.623539	-1.595021	-0.562266
H239	H	-0.290206	-1.261688	-0.228933
H240	H	0.043127	-0.928355	0.104400
H241	H	-0.633365	-1.466894	-0.559084
H242	H	-0.300031	-1.133561	-0.225751
H243	H	0.033302	-0.800228	0.107582
N244	N	-0.753348	-1.527491	-0.535780
N245	N	-0.420015	-1.194157	-0.202446
N246	N	-0.086682	-0.860824	0.130887
H247	H	-0.799863	-1.526272	-0.527130
H248	H	-0.466530	-1.192938	-0.193796
H249	H	-0.133196	-0.859605	0.139537
H250	H	-0.746524	-1.467024	-0.559143
H251	H	-0.413191	-1.133690	-0.225810
H252	H	-0.079858	-0.800357	0.107524
H253	H	-0.083382	-1.525530	-0.859217
H254	H	0.249951	-1.192196	-0.525884
H255	H	0.583284	-0.858863	-0.192551
N256	N	-0.280871	-1.371422	-0.636957
N257	N	0.052463	-1.038089	-0.303624
N258	N	0.385796	-0.704756	0.029710
H259	H	-0.306693	-1.413861	-0.613056
H260	H	0.026640	-1.080527	-0.279723
H261	H	0.359973	-0.747194	0.053610
H262	H	-0.259052	-1.323026	-0.606140
H263	H	0.074281	-0.989692	-0.272807
H264	H	0.407614	-0.656359	0.060526
H265	H	-0.083343	-1.525530	-0.977929
H266	H	0.249991	-1.192197	-0.644596
H267	H	0.583324	-0.858864	-0.311263
H268	H	-0.819859	-1.631706	-0.499155
H269	H	-0.486526	-1.298372	-0.165822
H270	H	-0.153192	-0.965039	0.167512
H271	H	-0.227525	-0.906237	-0.376488
H272	H	0.105809	-0.572903	-0.043155
H273	H	0.439142	-0.239570	0.290178
H274	H	-0.628561	-1.495497	-0.313534
H275	H	-0.295227	-1.162164	0.019799
H276	H	0.038106	-0.828830	0.353133
H277	H	-0.553586	-1.389105	-0.335076
H278	H	-0.220253	-1.055772	-0.001743
H279	H	0.113081	-0.722439	0.331591
H280	H	-0.434878	-1.389018	-0.335050
H281	H	-0.101545	-1.055684	-0.001716
H282	H	0.231788	-0.722351	0.331617
N283	N	-0.093174	-1.649479	-0.658236
N284	N	0.240160	-1.316146	-0.324902
N285	N	0.573493	-0.982813	0.008431
H286	H	-0.064562	-1.691848	-0.692136
H287	H	0.268772	-1.358515	-0.358802
H288	H	0.602105	-1.025182	-0.025469
H289	H	-0.067416	-1.606966	-0.627835
H290	H	0.265918	-1.273633	-0.294501
H291	H	0.599251	-0.940299	0.038832
H292	H	-0.105056	-1.631798	-0.784241
H293	H	0.228277	-1.298464	-0.450908
H294	H	0.561611	-0.965131	-0.117575
H295	H	-0.290471	-1.495421	-0.975615
H296	H	0.042862	-1.162088	-0.642282
H297	H	0.376196	-0.828755	-0.308948
N298	N	-0.093031	-1.649493	-1.061873
N299	N	0.240302	-1.316160	-0.728539
N300	N	0.573635	-0.982827	-0.395206
H301	H	-0.064416	-1.691858	-1.095771
H302	H	0.268918	-1.358525	-0.762438
H303	H	0.602251	-1.025192	-0.429104
H304	H	-0.067277	-1.606979	-1.031468
H305	H	0.266056	-1.273646	-0.698134
H306	H	0.599389	-0.940313	-0.364801
H307	H	-0.104912	-1.631808	-1.187879
H308	H	0.228421	-1.298474	-0.854545
H309	H	0.561754	-0.965141	-0.521212
N310	N	-0.280681	-1.371446	-1.176593
N311	N	0.052652	-1.038113	-0.843260
N312	N	0.385985	-0.704780	-0.509927
H313	H	-0.273815	-1.381594	-1.223787
H314	H	0.059518	-1.048261	-0.890454
H315	H	0.392852	-0.714927	-0.557120
H316	H	-0.324201	-1.387665	-1.166398
H317	H	0.009132	-1.054332	-0.833064
H318	H	0.342466	-0.720998	-0.499731
H319	H	-0.268794	-1.389131	-1.050595
H320	H	0.064539	-1.055797	-0.717262
H321	H	0.397873	-0.722464	-0.383929
N322	N	-0.305601	-1.493234	-0.848089
N323	N	0.027733	-1.159900	-0.514756
N324	N	0.361066	-0.826567	-0.181423
H325	H	-0.341751	-1.487990	-0.878342
H326	H	-0.008418	-1.154656	-0.545009
H327	H	0.324916	-0.821323	-0.211675
H328	H	-0.306579	-1.556913	-0.825818
H329	H	0.026754	-1.223580	-0.492485
H330	H	0.360087	-0.890246	-0.159152
N331	N	-0.280814	-1.371424	-0.772955
N332	N	0.052519	-1.038091	-0.439622
N333	N	0.385852	-0.704758	-0.106288
H334	H	-0.273948	-1.381573	-0.820149
H335	H	0.059386	-1.048240	-0.486815
H336	H	0.392719	-0.714906	-0.153482
H337	H	-0.324337	-1.387630	-0.762759
H338	H	0.008996	-1.054296	-0.429426
H339	H	0.342329	-0.720963	-0.096093
