data_functionalizedCrystal
_audit_creation_method	'MofGen! by Chris Wilmer'
_symmetry_space_group_name_H-M	'P1'
_symmetry_Int_Tables_number	1
_symmetry_cell_setting	triclinic
loop_
_symmetry_equiv_pos_as_xyz
  x,y,z
_cell_length_a	8.559649
_cell_length_b	19.188924
_cell_length_c	7.681481
_cell_angle_alpha	84.275467
_cell_angle_beta	94.913240
_cell_angle_gamma	76.460314
loop_
_atom_site_label
_atom_site_type_symbol
_atom_site_fract_x
_atom_site_fract_y
_atom_site_fract_z
O1	O	2.105138	-0.016273	-0.146399
O2	O	1.639678	0.019799	-0.146412
O3	O	1.885848	-0.100597	-0.146384
O4	O	1.858968	0.104122	-0.146426
O5	O	1.916148	-0.115446	0.146477
O6	O	1.669978	0.004950	0.146449
O7	O	2.135437	-0.031122	0.146463
Zn8	Zn	1.907519	-0.015443	0.192954
Zn9	Zn	1.867597	0.004120	-0.192903
O10	O	1.889268	0.089274	0.146435
C11	C	1.595279	0.015108	0.000017
C12	C	1.417841	0.023245	0.000013
C13	C	1.900130	-0.133987	0.000048
C14	C	1.897523	-0.211356	0.000053
C15	C	1.879790	-0.239597	-0.159586
C16	C	1.877316	-0.312290	-0.159600
C17	C	1.892609	-0.356743	0.000035
C18	C	1.910335	-0.328493	0.159695
C19	C	1.912792	-0.255799	0.159704
N20	N	1.992007	-0.486984	0.118850
N21	N	1.989675	-0.556040	0.118830
C22	C	1.885203	-0.575764	0.000018
N23	N	1.783168	-0.523824	-0.118802
N24	N	1.785507	-0.454763	-0.118788
C25	C	1.889945	-0.435567	0.000043
C26	C	1.864784	-0.682826	-0.159647
C27	C	1.862301	-0.755519	-0.159654
C28	C	1.895337	-0.771723	0.159646
C29	C	1.897803	-0.699029	0.159648
C30	C	1.882534	-0.654585	-0.000003
C31	C	2.179837	-0.026431	0.000030
C32	C	2.357273	-0.034568	0.000022
C33	C	1.874986	0.122664	-0.000001
C34	C	1.877591	0.200033	-0.000017
N35	N	1.934775	-0.028796	0.456291
N36	N	1.840353	0.017467	-0.456241
H37	H	1.333940	0.078971	-0.000008
H38	H	2.031179	-0.076016	0.531508
H39	H	1.912257	-0.676037	0.289644
O40	O	1.725324	0.073857	0.454321
C41	C	1.511197	0.178702	0.473387
C42	C	1.641430	0.114881	0.574908
H43	H	1.443311	0.211879	0.570837
H44	H	1.571130	0.214251	0.387103
H45	H	1.422658	0.157191	0.387043
H46	H	1.730010	0.136329	0.661347
H47	H	1.581387	0.079343	0.661081
O48	O	1.457481	-0.100996	-0.000198
C49	C	1.652756	-0.176895	-0.151957
C50	C	1.539357	-0.101627	-0.151905
H51	H	1.718958	-0.177434	-0.274617
H52	H	1.744564	-0.189888	-0.029476
H53	H	1.578599	-0.219104	-0.151864
H54	H	1.613381	-0.059369	-0.152059
H55	H	1.447545	-0.088695	-0.274374
H56	H	1.867352	-0.203415	-0.289587
H57	H	1.922782	-0.364690	0.289671
O58	O	1.859829	-0.339634	-0.314777
C59	C	1.692281	-0.332740	-0.587577
C60	C	1.711923	-0.301692	-0.411935
H61	H	1.572690	-0.302087	-0.666163
H62	H	1.796353	-0.326827	-0.666463
H63	H	1.693219	-0.392335	-0.560071
H64	H	1.710946	-0.242090	-0.439281
H65	H	1.607854	-0.307660	-0.333103
H66	H	1.927227	-0.232806	0.289705
H67	H	1.852342	-0.646637	-0.289644
H68	H	1.847852	-0.778510	-0.289656
O69	O	1.910408	-0.814853	0.314820
C70	C	2.076352	-0.866335	0.587680
C71	C	2.059492	-0.817453	0.412029
H72	H	2.196895	-0.868465	0.666306
H73	H	1.973225	-0.843650	0.666519
H74	H	2.071456	-0.923124	0.560187
H75	H	2.064429	-0.760652	0.439361
H76	H	2.162613	-0.840197	0.333244
