data_functionalizedCrystal
_audit_creation_method	'MofGen! by Chris Wilmer'
_symmetry_space_group_name_H-M	'P1'
_symmetry_Int_Tables_number	1
_symmetry_cell_setting	triclinic
loop_
_symmetry_equiv_pos_as_xyz
  x,y,z
_cell_length_a	8.559649
_cell_length_b	8.559649
_cell_length_c	7.088929
_cell_angle_alpha	84.655815
_cell_angle_beta	95.325015
_cell_angle_gamma	69.778664
loop_
_atom_site_label
_atom_site_type_symbol
_atom_site_fract_x
_atom_site_fract_y
_atom_site_fract_z
O1	O	2.108185	-0.036318	-0.158958
O2	O	1.632699	0.047464	-0.158965
O3	O	1.912333	-0.232170	-0.158959
O4	O	1.828551	0.243315	-0.158964
O5	O	1.949712	-0.269616	0.159017
O6	O	1.670079	0.010018	0.159011
O7	O	2.145564	-0.073764	0.159018
Cu8	Cu	1.911235	-0.035292	0.188048
Cu9	Cu	1.867029	0.008992	-0.187995
O10	O	1.865931	0.205870	0.159012
C11	C	1.591080	0.035090	0.000022
C12	C	1.411380	0.053990	0.000019
C13	C	1.937372	-0.311201	0.000026
C14	C	1.956269	-0.490899	0.000015
C15	C	2.187183	-0.061390	0.000027
C16	C	2.366881	-0.080288	0.000017
C17	C	1.840892	0.284902	0.000023
C18	C	1.821992	0.464601	0.000021
N19	N	1.942338	-0.066441	0.452537
N20	N	1.835940	0.040127	-0.452484
H21	H	1.311991	0.183419	0.000007
H22	H	2.085699	-0.590290	0.000033
O23	O	2.074097	-0.198058	0.549851
C24	C	2.225822	-0.185860	0.501004
H25	H	2.204420	-0.049668	0.445856
H26	H	2.270828	-0.268071	0.384950
C27	C	2.385960	-0.412730	0.746647
C28	C	2.359676	-0.245453	0.678928
H29	H	2.468531	-0.449496	0.856395
H30	H	2.283741	-0.420953	0.779552
H31	H	2.423457	-0.481218	0.649919
H32	H	2.322160	-0.176965	0.775647
H33	H	2.461892	-0.237220	0.646043
O34	O	1.704192	0.171810	0.450332
C35	C	1.552464	0.159561	0.499095
H36	H	1.577228	0.080031	0.644481
H37	H	1.498936	0.098193	0.386487
C38	C	1.395162	0.434193	0.329516
C39	C	1.425576	0.336524	0.508090
H40	H	1.316888	0.543351	0.335057
H41	H	1.497383	0.442444	0.296657
H42	H	1.350564	0.383033	0.235695
H43	H	1.470193	0.387673	0.601903
H44	H	1.323360	0.328286	0.540966
H45	H	1.692573	-0.436021	0.000025
H46	H	1.466259	-0.209706	0.000009
