data_functionalizedCrystal
_audit_creation_method	'MofGen! by Chris Wilmer'
_symmetry_space_group_name_H-M	'P1'
_symmetry_Int_Tables_number	1
_symmetry_cell_setting	triclinic
loop_
_symmetry_equiv_pos_as_xyz
  x,y,z
_cell_length_a	16.109301
_cell_length_b	17.699083
_cell_length_c	15.186229
_cell_angle_alpha	89.995368
_cell_angle_beta	89.999362
_cell_angle_gamma	83.372248
loop_
_atom_site_label
_atom_site_type_symbol
_atom_site_fract_x
_atom_site_fract_y
_atom_site_fract_z
O1	O	1.102963	0.097285	-0.073175
O2	O	0.860880	0.109391	-0.073189
O3	O	0.988761	-0.006841	-0.073174
O4	O	0.975082	0.213517	-0.073190
O5	O	0.988753	-0.006843	0.073284
O6	O	0.860872	0.109390	0.073268
O7	O	1.102955	0.097283	0.073283
Zn8	Zn	0.981912	0.103336	0.096529
Zn9	Zn	0.981923	0.103338	-0.096435
O10	O	0.975074	0.213516	0.073267
C11	C	0.829902	0.108900	0.000038
C12	C	0.737609	0.107430	0.000033
C13	C	0.515224	0.172981	0.000038
C14	C	0.428506	0.171594	0.000044
C15	C	0.448618	0.033688	0.000050
C16	C	0.535334	0.035076	0.000051
C17	C	0.568635	0.104725	0.000040
C18	C	0.395200	0.101949	0.000046
C19	C	0.301177	0.100445	0.000052
C20	C	0.662664	0.106230	0.000036
C21	C	0.988267	-0.035040	0.000055
C22	C	0.986796	-0.119060	0.000055
C23	C	1.061860	-0.167574	0.000061
C24	C	1.060473	-0.246519	0.000053
C25	C	0.984022	-0.276949	0.000046
C26	C	0.908953	-0.228429	0.000038
C27	C	0.910341	-0.149485	0.000039
C28	C	0.903356	-0.546800	0.000030
C29	C	0.901974	-0.625750	0.000031
C30	C	1.053488	-0.643834	0.000044
C31	C	1.054876	-0.564890	0.000046
C32	C	0.979807	-0.516377	0.000033
C33	C	0.981312	-0.430776	0.000040
C34	C	0.982517	-0.362549	0.000045
C35	C	1.133933	0.097774	0.000054
C36	C	1.226226	0.099244	0.000053
C37	C	0.975568	0.241714	0.000037
C38	C	0.977039	0.325734	0.000031
N39	N	0.981910	0.103334	0.228221
N40	N	0.981931	0.103334	-0.228128
C41	C	1.038555	0.051884	0.453951
C42	C	1.038558	0.051882	0.546141
C43	C	0.925280	0.154787	0.546136
C44	C	0.925274	0.154785	0.453948
C45	C	0.981916	0.103334	0.407858
C46	C	0.981925	0.103334	0.592236
C47	C	0.981927	0.103333	0.692192
C48	C	0.981913	0.103334	0.307896
H49	H	0.578824	-0.020510	0.000055
H50	H	0.385022	0.227175	0.000044
H51	H	0.421494	-0.023018	0.000064
H52	H	1.084677	0.009985	0.583667
H53	H	0.542334	0.229694	0.000036
O54	O	1.133446	-0.293566	-0.000054
C55	C	1.179873	-0.279779	-0.075908
H56	H	1.159336	-0.219888	-0.101197
H57	H	1.168603	-0.322952	-0.129027
C58	C	1.298777	-0.360862	-0.021793
C59	C	1.273558	-0.287300	-0.052848
H60	H	1.356567	-0.365504	-0.007571
H61	H	1.267498	-0.370153	0.029310
H62	H	1.289378	-0.396831	-0.066064
H63	H	1.282948	-0.251333	-0.008574
H64	H	1.304841	-0.278003	-0.103944
H65	H	0.879165	0.196679	0.583672
O66	O	1.136073	-0.137927	-0.000050
C67	C	1.141421	-0.092814	-0.075912
H68	H	1.075853	-0.073132	-0.101202
H69	H	1.178273	-0.127698	-0.129025
C70	C	1.266583	-0.047173	-0.021806
C71	C	1.186051	-0.022993	-0.052864
H72	H	1.294116	-0.004106	-0.007592
H73	H	1.262983	-0.077568	0.029302
H74	H	1.297283	-0.076243	-0.066073
H75	H	1.155350	0.006068	-0.008594
H76	H	1.189648	0.007409	-0.103964
H77	H	1.117130	-0.540119	0.000056
O78	O	1.126336	-0.691069	0.000008
C79	C	1.108725	-0.767273	0.000023
H80	H	1.043430	-0.770283	-0.027713
H81	H	1.111916	-0.790112	0.070285
C82	C	1.253573	-0.811902	-0.023344
C83	C	1.173380	-0.815598	-0.057415
H84	H	1.293457	-0.841712	-0.058770
H85	H	1.265439	-0.760562	-0.023350
H86	H	1.256221	-0.830933	0.035208
H87	H	1.170730	-0.796559	-0.115961
H88	H	1.161515	-0.866936	-0.057420
O89	O	0.827633	-0.655185	-0.000022
C90	C	0.761672	-0.595439	-0.000014
H91	H	0.784870	-0.541813	-0.027738
H92	H	0.738512	-0.584266	0.070244
C93	C	0.661076	-0.683571	-0.023412
C94	C	0.689566	-0.617709	-0.057470
H95	H	0.616595	-0.697309	-0.058850
H96	H	0.705514	-0.723824	-0.023414
H97	H	0.641782	-0.674252	0.035136
H98	H	0.708869	-0.627031	-0.116013
H99	H	0.645129	-0.577458	-0.057479
O100	O	0.834761	-0.258112	0.000069
C101	C	0.849630	-0.338193	0.000050
H102	H	0.914547	-0.356750	0.027782
H103	H	0.845649	-0.360164	-0.070213
C104	C	0.703825	-0.348131	0.023421
C105	C	0.783555	-0.370923	0.057489
H106	H	0.663065	-0.368322	0.058849
H107	H	0.693806	-0.294179	0.023431
H108	H	0.700520	-0.366442	-0.035130
H109	H	0.786862	-0.352605	0.116035
H110	H	0.793573	-0.424873	0.057491
H111	H	0.879148	0.196682	0.416417
H112	H	0.842230	-0.507310	0.000020
H113	H	0.849216	-0.109986	0.000034
H114	H	1.084675	0.009988	0.416427
