data_functionalizedCrystal
_audit_creation_method	'MofGen! by Chris Wilmer'
_symmetry_space_group_name_H-M	'P1'
_symmetry_Int_Tables_number	1
_symmetry_cell_setting	triclinic
loop_
_symmetry_equiv_pos_as_xyz
  x,y,z
_cell_length_a	18.215407
_cell_length_b	16.120444
_cell_length_c	18.215399
_cell_angle_alpha	92.870532
_cell_angle_beta	89.982632
_cell_angle_gamma	92.923925
loop_
_atom_site_label
_atom_site_type_symbol
_atom_site_fract_x
_atom_site_fract_y
_atom_site_fract_z
Zn1	Zn	1.110204	-0.331974	-0.430919
Zn2	Zn	1.610204	0.168026	0.069081
Zn3	Zn	1.103869	-0.471396	-0.314090
Zn4	Zn	1.603869	0.028604	0.185910
Zn5	Zn	0.987136	-0.331994	-0.307872
Zn6	Zn	1.487136	0.168006	0.192128
Zn7	Zn	0.980861	-0.471342	-0.437118
Zn8	Zn	1.480861	0.028658	0.062882
O9	O	1.045517	-0.401676	-0.372500
O10	O	1.545517	0.098324	0.127500
O11	O	1.212347	-0.350483	-0.415429
O12	O	1.712347	0.149517	0.084571
O13	O	1.088358	-0.452934	-0.210282
O14	O	1.588358	0.047066	0.289718
O15	O	1.008739	-0.215325	-0.318999
O16	O	1.508739	0.284675	0.181001
O17	O	1.207693	-0.452915	-0.329595
O18	O	1.707693	0.047085	0.170405
O19	O	1.099157	-0.215310	-0.409400
O20	O	1.599157	0.284690	0.090600
O21	O	1.002595	-0.350517	-0.205714
O22	O	1.502595	0.149483	0.294286
O23	O	0.883320	-0.350464	-0.325009
O24	O	1.383320	0.149536	0.174991
O25	O	0.998044	-0.452824	-0.539278
O26	O	1.498044	0.047176	-0.039278
O27	O	0.878710	-0.452843	-0.419965
O28	O	1.378710	0.047157	0.080035
O29	O	1.093072	-0.350430	-0.534724
O30	O	1.593072	0.149570	-0.034724
O31	O	1.082274	-0.588055	-0.335606
O32	O	1.582274	-0.088055	0.164394
O33	O	0.991901	-0.588015	-0.425994
O34	O	1.491901	-0.088015	0.074006
C35	C	0.854312	-0.401651	-0.372486
C36	C	1.354312	0.098349	0.127514
C37	C	0.772513	-0.401660	-0.372498
C38	C	1.272513	0.098340	0.127502
C39	C	0.586737	-0.348433	-0.417271
C40	C	1.086737	0.151567	0.082729
C41	C	0.509878	-0.348440	-0.417274
C42	C	1.009878	0.151560	0.082726
C43	C	0.505049	-0.454943	-0.327742
C44	C	1.005049	0.045057	0.172258
C45	C	0.581907	-0.454931	-0.327736
C46	C	1.081907	0.045069	0.172264
C47	C	0.622749	-0.401677	-0.372505
C48	C	1.122749	0.098323	0.127495
C49	C	0.469032	-0.401696	-0.372514
C50	C	0.969032	0.098304	0.127486
C51	C	0.385698	-0.401704	-0.372516
C52	C	0.885698	0.098296	0.127484
C53	C	0.706088	-0.401668	-0.372501
C54	C	1.206088	0.098332	0.127499
C55	C	1.035739	-0.618285	-0.382163
C56	C	1.535739	-0.118285	0.117837
C57	C	1.031623	-0.710951	-0.386322
C58	C	1.531623	-0.210951	0.113678
C59	C	1.067050	-0.921893	-0.351084
C60	C	1.567050	-0.421893	0.148916
C61	C	1.024121	-0.880608	-0.393923
C62	C	1.524121	-0.380608	0.106077
C63	C	1.028296	-0.786202	-0.389692
C64	C	1.528296	-0.286202	0.110308
C65	C	1.062876	-1.016308	-0.355314
C66	C	1.562876	-0.516308	0.144686
C67	C	1.237469	-0.401703	-0.372514
C68	C	1.737469	0.098297	0.127486
C69	C	1.319267	-0.401714	-0.372520
C70	C	1.819267	0.098286	0.127480
C71	C	1.045565	-0.401619	-0.564450
C72	C	1.545565	0.098381	-0.064450
C73	C	1.045585	-0.401594	-0.646248
C74	C	1.545585	0.098406	-0.146248
C75	C	1.055354	-0.184222	-0.362814
C76	C	1.555354	0.315778	0.137186
C77	C	1.059546	-0.091555	-0.358687
C78	C	1.559546	0.408445	0.141313
C79	C	1.095085	-0.348228	-0.832070
C80	C	1.595085	0.151772	-0.332070
C81	C	1.095095	-0.348204	-0.908927
C82	C	1.595095	0.151796	-0.408927
C83	C	0.996143	-0.454831	-0.913659
C84	C	1.496143	0.045169	-0.413659
C85	C	0.996130	-0.454851	-0.836802
C86	C	1.496130	0.045149	-0.336802
C87	C	1.045605	-0.401551	-0.796010
C88	C	1.545605	0.098449	-0.296010
C89	C	1.045628	-0.401507	-0.949724
C90	C	1.545628	0.098493	-0.449724
C91	C	1.045638	-0.401481	-1.033056
C92	C	1.545638	0.098519	-0.533056
C93	C	1.045594	-0.401575	-0.712672
C94	C	1.545594	0.098425	-0.212672
C95	C	1.045515	-0.401673	-0.181293
C96	C	1.545515	0.098327	0.318707
C97	C	1.045648	-0.401463	-0.099485
C98	C	1.545648	0.098537	0.400515
H99	H	0.480561	-0.305082	-0.453726
H100	H	0.980561	0.194918	0.046274
Cl101	Cl	1.128628	-0.867001	-0.289557
Cl102	Cl	1.628628	-0.367001	0.210443
H103	H	0.471786	-0.498301	-0.291294
H104	H	0.971786	0.001699	0.208706
H105	H	0.984234	-0.916164	-0.433775
H106	H	1.484234	-0.416164	0.066225
H107	H	0.955832	-0.498271	-0.807441
H108	H	1.455832	0.001729	-0.307441
H109	H	1.135369	-0.304826	-0.798858
H110	H	1.635369	0.195174	-0.298858
H111	H	0.611228	-0.498290	-0.291278
H112	H	1.111228	0.001710	0.208722
H113	H	1.135386	-0.304782	-0.938284
H114	H	1.635386	0.195218	-0.438284
H115	H	0.619988	-0.305068	-0.453722
H116	H	1.119988	0.194932	0.046278
Cl117	Cl	0.933952	-0.521838	-0.964946
Cl118	Cl	1.433952	-0.021838	-0.464946
