data_functionalizedCrystal
_audit_creation_method	'MofGen! by Chris Wilmer'
_symmetry_space_group_name_H-M	'P1'
_symmetry_Int_Tables_number	1
_symmetry_cell_setting	triclinic
loop_
_symmetry_equiv_pos_as_xyz
  x,y,z
_cell_length_a	14.044191
_cell_length_b	14.044220
_cell_length_c	9.798715
_cell_angle_alpha	89.995876
_cell_angle_beta	89.998658
_cell_angle_gamma	93.190327
loop_
_atom_site_label
_atom_site_type_symbol
_atom_site_fract_x
_atom_site_fract_y
_atom_site_fract_z
O1	O	1.277171	0.230198	-0.113431
O2	O	1.000499	0.221885	-0.113448
O3	O	1.134682	0.087705	-0.113426
O4	O	1.142988	0.364377	-0.113453
O5	O	1.134671	0.087704	0.113556
O6	O	1.000488	0.221884	0.113534
O7	O	1.277161	0.230196	0.113551
Zn8	Zn	1.138823	0.226040	0.149581
Zn9	Zn	1.138837	0.226042	-0.149478
O10	O	1.142977	0.364376	0.113529
C11	C	0.964872	0.218248	0.000041
C12	C	0.858728	0.207401	0.000035
C13	C	0.613270	0.264501	0.000043
C14	C	0.664395	0.187585	0.000048
C15	C	0.772532	0.198613	0.000041
C16	C	0.505123	0.253474	0.000050
C17	C	1.131041	0.052083	0.000065
C18	C	1.120197	-0.054060	0.000066
C19	C	1.100370	-0.248398	0.000045
C20	C	1.177285	-0.299526	0.000046
C21	C	1.166253	-0.407663	0.000034
C22	C	1.111400	-0.140252	0.000057
C23	C	1.312788	0.233834	0.000059
C24	C	1.418931	0.244681	0.000056
C25	C	1.146618	0.399998	0.000035
C26	C	1.157463	0.506142	0.000025
N27	N	1.138820	0.226039	0.353681
N28	N	1.138847	0.226036	-0.353578
C29	C	1.195139	0.169432	0.421467
C30	C	1.195154	0.169430	0.578629
H31	H	1.251419	-0.262085	-0.000041
H32	H	1.243375	0.120970	0.636922
O33	O	1.011883	-0.292947	0.000224
C34	C	0.861783	-0.316882	0.117865
C35	C	0.961956	-0.266339	0.117811
H36	H	0.821396	-0.295404	0.212938
H37	H	0.821268	-0.295327	0.022942
H38	H	0.868554	-0.397397	0.117793
H39	H	0.955273	-0.185816	0.117931
H40	H	1.002434	-0.287972	0.212726
H41	H	0.626952	0.113452	-0.000041
H42	H	1.090630	0.274506	0.588138
O43	O	0.658082	0.352867	-0.000038
C44	C	0.808297	0.444559	0.000009
C45	C	0.757655	0.344432	0.000074
H46	H	0.888810	0.437773	0.000129
H47	H	0.786842	0.485024	-0.095013
H48	H	0.786720	0.485011	0.094970
H49	H	0.779206	0.303900	-0.094823
H50	H	0.779111	0.304039	0.095159
O51	O	1.252548	0.111493	0.351938
C52	C	1.294043	-0.049839	0.307921
C53	C	1.228947	0.015655	0.386736
H54	H	1.274998	-0.127337	0.336048
H55	H	1.283760	-0.039594	0.193555
H56	H	1.371618	-0.031059	0.335885
H57	H	1.151348	-0.003085	0.358887
H58	H	1.239311	0.005399	0.501083
H59	H	1.090610	0.274497	0.411997
