data_functionalizedCrystal
_audit_creation_method	'MofGen! by Chris Wilmer'
_symmetry_space_group_name_H-M	'P1'
_symmetry_Int_Tables_number	1
_symmetry_cell_setting	triclinic
loop_
_symmetry_equiv_pos_as_xyz
  x,y,z
_cell_length_a	14.044191
_cell_length_b	11.892283
_cell_length_c	12.837942
_cell_angle_alpha	94.307221
_cell_angle_beta	94.010358
_cell_angle_gamma	85.751873
loop_
_atom_site_label
_atom_site_type_symbol
_atom_site_fract_x
_atom_site_fract_y
_atom_site_fract_z
O1	O	1.274970	0.093945	0.258165
O2	O	0.998178	0.093959	0.249064
O3	O	1.130437	0.093945	0.102144
O4	O	1.142711	0.093959	0.405086
O5	O	1.141440	-0.094058	0.089913
O6	O	1.009181	-0.094044	0.236834
O7	O	1.285974	-0.094059	0.245935
Zn8	Zn	1.149324	-0.123901	0.239442
Zn9	Zn	1.134827	0.123802	0.255557
O10	O	1.153715	-0.094045	0.392855
C11	C	0.968005	-0.000041	0.238967
C12	C	0.861706	-0.000035	0.227090
N13	N	1.159226	-0.292952	0.228445
C14	C	1.228219	-0.470463	0.151876
C15	C	1.221278	-0.352123	0.159569
C16	C	1.104113	-0.352128	0.289633
C17	C	1.111055	-0.470467	0.281939
C18	C	1.173109	-0.529630	0.213057
C19	C	1.180045	-0.647972	0.205358
C20	C	1.062886	-0.647974	0.335427
C21	C	1.055944	-0.529635	0.343121
C22	C	0.617067	-0.000044	0.289612
C23	C	0.667089	-0.000046	0.205392
C24	C	0.775384	-0.000040	0.217468
C25	C	0.508763	-0.000050	0.277538
C26	C	1.316146	-0.000056	0.256032
C27	C	1.422445	-0.000054	0.267909
C28	C	1.131792	-0.000055	0.057025
C29	C	1.119424	-0.000053	-0.059196
N30	N	1.124932	0.292852	0.266547
C31	C	1.268103	-0.000037	-0.286401
C32	C	1.256487	-0.000035	-0.395602
C33	C	1.084576	-0.000037	-0.386798
C34	C	1.096192	-0.000040	-0.277598
C35	C	1.187959	-0.000041	-0.227404
C36	C	1.199574	-0.000052	-0.118202
C37	C	1.027664	-0.000047	-0.109400
C38	C	1.016048	-0.000044	-0.218600
C39	C	1.152359	-0.000041	0.437975
C40	C	1.164727	-0.000036	0.554196
H41	H	1.230570	-0.696142	0.149268
H42	H	0.628578	0.000030	0.124226
C43	C	1.296476	-0.535545	0.076104
N44	N	1.347891	-0.584563	0.019032
C45	C	0.987686	-0.464541	0.418884
N46	N	0.936269	-0.415514	0.475948
H47	H	1.321749	-0.000027	-0.443633
C48	C	0.669085	-0.000028	0.399265
N49	N	0.708276	-0.000010	0.481855
C50	C	1.300518	-0.000050	-0.062990
N51	N	1.376551	-0.000044	-0.021407
H52	H	1.009864	-0.000024	-0.427685
C53	C	1.002265	-0.713068	0.402736
N54	N	0.956607	-0.762098	0.453432
H55	H	1.266155	-0.303952	0.109751
C56	C	1.369045	-0.000045	-0.231186
N57	N	1.445078	-0.000050	-0.189599
H58	H	1.053597	-0.303941	0.345723
H59	H	0.941334	-0.000039	-0.259483
H60	H	0.962405	-0.000059	-0.061353
