data_functionalizedCrystal
_audit_creation_method	'MofGen! by Chris Wilmer'
_symmetry_space_group_name_H-M	'P1'
_symmetry_Int_Tables_number	1
_symmetry_cell_setting	triclinic
loop_
_symmetry_equiv_pos_as_xyz
  x,y,z
_cell_length_a	13.897449
_cell_length_b	21.295417
_cell_length_c	13.897441
_cell_angle_alpha	90.035375
_cell_angle_beta	90.020733
_cell_angle_gamma	90.030982
loop_
_atom_site_label
_atom_site_type_symbol
_atom_site_fract_x
_atom_site_fract_y
_atom_site_fract_z
Zn1	Zn	1.474622	-0.250568	0.545349
Zn2	Zn	1.474482	-0.355847	0.384037
Zn3	Zn	1.313311	-0.250598	0.384068
Zn4	Zn	1.313259	-0.355805	0.545290
O5	O	1.393919	-0.303204	0.464686
O6	O	1.609585	-0.264538	0.523963
O7	O	1.453066	-0.341915	0.249059
O8	O	1.334790	-0.162504	0.405499
O9	O	1.609482	-0.341886	0.405448
O10	O	1.453304	-0.162482	0.523992
O11	O	1.334654	-0.264589	0.249082
O12	O	1.178323	-0.264549	0.405442
O13	O	1.334701	-0.341815	0.680279
O14	O	1.178284	-0.341844	0.523891
O15	O	1.453254	-0.264498	0.680323
O16	O	1.453015	-0.443931	0.405390
O17	O	1.334565	-0.443900	0.523862
C18	C	1.143304	-0.303196	0.464664
C19	C	1.036090	-0.303207	0.464677
C20	C	0.839795	-0.303210	0.464703
C21	C	0.949028	-0.303207	0.464686
C22	C	1.393796	-0.466756	0.464637
C23	C	1.393831	-0.536724	0.464648
C24	C	1.455507	-0.569522	0.526392
C25	C	1.455541	-0.635265	0.526416
C26	C	1.393910	-0.668207	0.464679
C27	C	1.332223	-0.635401	0.402931
C28	C	1.332183	-0.569659	0.402916
N29	N	1.386620	-0.771473	0.380261
N30	N	1.386663	-0.833925	0.380279
C31	C	1.394022	-0.866281	0.464722
N32	N	1.401356	-0.833827	0.549150
N33	N	1.401318	-0.771370	0.549132
C34	C	1.393945	-0.739492	0.464689
C35	C	1.455738	-0.970365	0.526497
C36	C	1.455765	-1.036108	0.526522
C37	C	1.332452	-1.036243	0.403029
C38	C	1.332420	-0.970501	0.403012
C39	C	1.394068	-0.937565	0.464745
C40	C	1.645512	-0.303213	0.464708
C41	C	1.752726	-0.303217	0.464718
C42	C	1.393987	-0.303149	0.716279
C43	C	1.394016	-0.303125	0.823493
C44	C	1.394068	-0.139014	0.464756
C45	C	1.394132	-0.069046	0.464786
C46	C	1.393906	-0.303214	0.214072
C47	C	1.394064	-0.303061	0.106858
C48	C	1.394043	-0.303082	1.019788
C49	C	1.394025	-0.303108	0.910556
H50	H	1.505702	-0.542708	0.576660
H51	H	1.505756	-0.661974	0.576706
Br52	Br	1.248571	-0.680106	0.319154
Br53	Br	1.248472	-0.525144	0.319118
H54	H	1.505932	-0.943548	0.576766
H55	H	1.505988	-1.062811	0.576805
H56	H	1.282202	-0.943795	0.352731
H57	H	1.282265	-1.063064	0.352768
