data_functionalizedCrystal
_audit_creation_method	'MofGen! by Chris Wilmer'
_symmetry_space_group_name_H-M	'P1'
_symmetry_Int_Tables_number	1
_symmetry_cell_setting	triclinic
loop_
_symmetry_equiv_pos_as_xyz
  x,y,z
_cell_length_a	13.033304
_cell_length_b	12.645330
_cell_length_c	13.032268
_cell_angle_alpha	97.155998
_cell_angle_beta	89.077769
_cell_angle_gamma	97.167543
loop_
_atom_site_label
_atom_site_type_symbol
_atom_site_fract_x
_atom_site_fract_y
_atom_site_fract_z
Zn1	Zn	-1.498562	0.329843	0.781567
Zn2	Zn	-0.998562	0.829843	1.281567
Zn3	Zn	-1.520353	0.482183	0.609614
Zn4	Zn	-1.020353	0.982183	1.109614
Zn5	Zn	-1.348421	0.324241	0.587737
Zn6	Zn	-0.848421	0.824241	1.087737
Zn7	Zn	-1.326618	0.526369	0.759654
Zn8	Zn	-0.826618	1.026369	1.259654
O9	O	-1.423488	0.415659	0.684643
O10	O	-0.923488	0.915659	1.184643
O11	O	-1.645365	0.333904	0.777082
O12	O	-1.145365	0.833904	1.277082
O13	O	-1.515790	0.440395	0.462801
O14	O	-1.015790	0.940395	0.962801
O15	O	-1.368342	0.176638	0.613464
O16	O	-0.868342	0.676638	1.113464
O17	O	-1.661375	0.445827	0.650750
O18	O	-1.161375	0.945827	1.150750
O19	O	-1.478650	0.180754	0.755870
O20	O	-0.978650	0.680754	1.255870
O21	O	-1.389472	0.324356	0.446729
O22	O	-0.889472	0.824356	0.946729
O23	O	-1.201615	0.367202	0.592217
O24	O	-0.701615	0.867202	1.092217
O25	O	-1.331183	0.521136	0.906472
O26	O	-0.831183	1.021136	1.406472
O27	O	-1.185597	0.515704	0.718523
O28	O	-0.685597	1.015704	1.218523
O29	O	-1.457509	0.376749	0.922571
O30	O	-0.957509	0.876749	1.422571
O31	O	-1.494649	0.636390	0.629502
O32	O	-0.994649	1.136390	1.129502
O33	O	-1.352313	0.668854	0.739736
O34	O	-0.852313	1.168854	1.239736
C35	C	-1.156291	0.445641	0.650619
C36	C	-0.656291	0.945641	1.150619
C37	C	-1.041980	0.458496	0.636088
C38	C	-0.541980	0.958496	1.136088
C39	C	-0.983083	0.408964	0.692213
C40	C	-0.483083	0.908964	1.192213
C41	C	-0.864936	0.422249	0.677196
C42	C	-0.364936	0.922249	1.177196
C43	C	-1.423497	0.139156	0.684671
C44	C	-0.923497	0.639156	1.184671
C45	C	-1.423501	0.021327	0.684683
C46	C	-0.923501	0.521327	1.184683
C47	C	-1.354487	-0.148906	0.594853
C48	C	-0.854487	0.351094	1.094853
C49	C	-1.354087	-0.026270	0.595045
C50	C	-0.854087	0.473730	1.095045
C51	C	-1.380352	-0.004204	0.789297
C52	C	-0.880352	0.495796	1.289297
C53	C	-1.379893	-0.126812	0.788764
C54	C	-0.879893	0.373188	1.288764
C55	C	-1.535920	-0.162076	0.670878
C56	C	-1.035920	0.337924	1.170878
C57	C	-1.535592	-0.039745	0.668410
C58	C	-1.035592	0.460255	1.168410
C59	C	-0.691730	0.385555	0.718794
C60	C	-0.191730	0.885555	1.218794
C61	C	-0.806040	0.372710	0.733329
C62	C	-0.306040	0.872710	1.233329
C63	C	-1.423505	0.691087	0.684641
C64	C	-0.923505	1.191087	1.184641
C65	C	-1.423601	0.808910	0.684687
C66	C	-0.923601	1.308910	1.184687
C67	C	-1.389483	0.454496	0.952879
C68	C	-0.889483	0.954496	1.452879
C69	C	-1.374992	0.471046	1.067185
C70	C	-0.874992	0.971046	1.567185
C71	C	-1.457420	0.376890	0.417458
C72	C	-0.957420	0.876890	0.917458
C73	C	-1.472110	0.360019	0.303178
C74	C	-0.972110	0.860019	0.803178
C75	C	-1.431035	0.406985	1.126112
C76	C	-0.931035	0.906985	1.626112
C77	C	-1.416059	0.424089	1.244253
C78	C	-0.916059	0.924089	1.744253
H79	H	-1.382682	-0.009867	0.517038
H80	H	-0.882682	0.490133	1.017038
H81	H	-1.531177	0.292501	1.266169
H82	H	-1.031177	0.792501	1.766169
O83	O	-0.815886	0.491447	0.598805
O84	O	-0.315886	0.991447	1.098805
H85	H	-0.834247	0.574913	0.618897
H86	H	-0.334247	1.074913	1.118897
H87	H	-1.272031	-0.168127	0.602733
H88	H	-0.772031	0.331873	1.102733
O89	O	-0.855085	0.303504	0.811716
O90	O	-0.355085	0.803504	1.311716
H91	H	-0.940184	0.303934	0.811219
H92	H	-0.440184	0.803934	1.311219
H93	H	-1.004937	0.510735	0.576917
H94	H	-0.504937	1.010735	1.076917
O95	O	-1.392147	-0.206100	0.491147
O96	O	-0.892147	0.293900	0.991147
H97	H	-1.460523	-0.265211	0.502518
H98	H	-0.960523	0.234789	1.002518
H99	H	-1.271116	0.014728	0.603082
H100	H	-0.771116	0.514728	1.103082
H101	H	-1.297378	-0.143118	0.802082
H102	H	-0.797378	0.356882	1.302082
O103	O	-1.442648	-0.162532	0.879476
O104	O	-0.942648	0.337468	1.379476
H105	H	-1.473184	-0.092237	0.923532
H106	H	-0.973184	0.407763	1.423532
O107	O	-1.337806	0.513513	1.293270
O108	O	-0.837806	1.013513	1.793270
H109	H	-1.299025	0.557832	1.232133
H110	H	-0.799025	1.057832	1.732133
H111	H	-1.428504	0.027511	0.857440
H112	H	-0.928504	0.527511	1.357440
O113	O	-1.032135	0.339758	0.770592
O114	O	-0.532135	0.839758	1.270592
H115	H	-1.117234	0.340188	0.770091
H116	H	-0.617234	0.840188	1.270091
O117	O	-1.272093	0.052679	0.807635
O118	O	-0.772093	0.552679	1.307635
H119	H	-1.248831	0.099166	0.742401
H120	H	-0.748831	0.599166	1.242401
H121	H	-1.572564	-0.207230	0.596634
H122	H	-1.072564	0.292770	1.096634
H123	H	-1.567881	-0.024681	0.591490
H124	H	-1.067881	0.475319	1.091490
O125	O	-1.608892	0.001903	0.750232
O126	O	-1.108892	0.501903	1.250232
H127	H	-1.566384	0.067068	0.804018
H128	H	-1.066384	0.567068	1.304018
O129	O	-1.604366	-0.198129	0.757758
O130	O	-1.104366	0.301871	1.257758
H131	H	-1.558675	-0.236533	0.810529
H132	H	-1.058675	0.263467	1.310529
H133	H	-1.490099	0.339474	1.089097
H134	H	-0.990099	0.839474	1.589097
H135	H	-1.315918	0.538548	1.104198
H136	H	-0.815918	1.038548	1.604198
