data_functionalizedCrystal
_audit_creation_method	'MofGen! by Chris Wilmer'
_symmetry_space_group_name_H-M	'P1'
_symmetry_Int_Tables_number	1
_symmetry_cell_setting	triclinic
loop_
_symmetry_equiv_pos_as_xyz
  x,y,z
_cell_length_a	17.638686
_cell_length_b	25.639240
_cell_length_c	17.640968
_cell_angle_alpha	78.760674
_cell_angle_beta	65.692372
_cell_angle_gamma	78.797489
loop_
_atom_site_label
_atom_site_type_symbol
_atom_site_fract_x
_atom_site_fract_y
_atom_site_fract_z
Zn1	Zn	1.353973	-0.293198	-0.720119
Zn2	Zn	1.325974	-0.395323	-0.582257
Zn3	Zn	1.188300	-0.293173	-0.554514
Zn4	Zn	1.216099	-0.365866	-0.692233
O5	O	1.271086	-0.336890	-0.637281
O6	O	1.465576	-0.319083	-0.725113
O7	O	1.284359	-0.394090	-0.463245
O8	O	1.210360	-0.220014	-0.576541
O9	O	1.445006	-0.394114	-0.623826
O10	O	1.332080	-0.220032	-0.698211
O11	O	1.183211	-0.319041	-0.442862
O12	O	1.076670	-0.290478	-0.549502
O13	O	1.257740	-0.343909	-0.811264
O14	O	1.097093	-0.343885	-0.650684
O15	O	1.359035	-0.290520	-0.831752
O16	O	1.311315	-0.464577	-0.596786
O17	O	1.230590	-0.442936	-0.677585
C18	C	1.056981	-0.313983	-0.594057
C19	C	0.965390	-0.304193	-0.575585
C20	C	0.717351	-0.411350	-0.777818
C21	C	0.631283	-0.402149	-0.760440
C22	C	0.610016	-0.346415	-0.655243
C23	C	0.696083	-0.355613	-0.672609
C24	C	0.749745	-0.388081	-0.733898
C25	C	0.728476	-0.332344	-0.628689
C26	C	0.814537	-0.341539	-0.646057
C27	C	0.868204	-0.374004	-0.707345
C28	C	0.835805	-0.397276	-0.751267
C29	C	0.674814	-0.299873	-0.567404
C30	C	0.707207	-0.276604	-0.523484
C31	C	0.793269	-0.285802	-0.540848
C32	C	0.846936	-0.318267	-0.602136
C33	C	0.825667	-0.262530	-0.496927
C34	C	0.911728	-0.271726	-0.514295
C35	C	0.932996	-0.327463	-0.619504
C36	C	1.270957	-0.472727	-0.637193
C37	C	1.270982	-0.530844	-0.637198
C38	C	1.334511	-0.891173	-0.700735
C39	C	1.334538	-0.945778	-0.700756
O40	O	1.388401	-0.973979	-0.754683
N41	N	1.271217	-0.973133	-0.637384
C42	C	1.207858	-0.945878	-0.573990
O43	O	1.154000	-0.974159	-0.520089
C44	C	1.207828	-0.891273	-0.573972
C45	C	1.271159	-0.863923	-0.637344
C46	C	1.397836	-0.863823	-0.764102
C47	C	1.397809	-0.809222	-0.764079
C48	C	1.334457	-0.781971	-0.700689
C49	C	1.271132	-0.809321	-0.637322
C50	C	1.144467	-0.864018	-0.510583
C51	C	1.144442	-0.809409	-0.510571
C52	C	1.207773	-0.782059	-0.573943
C53	C	1.207752	-0.727470	-0.573909
N54	N	1.271074	-0.700115	-0.637281
C55	C	1.334426	-0.727366	-0.700672
C56	C	1.207926	-1.060552	-0.574033
C57	C	1.207959	-1.115157	-0.574046
C58	C	1.334638	-1.115053	-0.700814
C59	C	1.334608	-1.060448	-0.700796
C60	C	1.271248	-1.033197	-0.637405
C61	C	1.334365	-0.612700	-0.700619
C62	C	1.334334	-0.558094	-0.700588
C63	C	1.207653	-0.558202	-0.573824
C64	C	1.207686	-0.612803	-0.573851
C65	C	1.271046	-0.640050	-0.637256
O66	O	1.153916	-0.699234	-0.520011
O67	O	1.388269	-0.699077	-0.754570
C68	C	1.486028	-0.359887	-0.680675
C69	C	1.577623	-0.369687	-0.699166
C70	C	1.314611	-0.313931	-0.852249
C71	C	1.333159	-0.304148	-0.943855
C72	C	1.271242	-0.200523	-0.637392
C73	C	1.271309	-0.142411	-0.637439
C74	C	1.130497	-0.410963	-1.191809
C75	C	1.147942	-0.401766	-1.277891
C76	C	1.253412	-0.346176	-1.299212
C77	C	1.235973	-0.355367	-1.213130
C78	C	1.174514	-0.387762	-1.159435
C79	C	1.279990	-0.332166	-1.180756
C80	C	1.262555	-0.341359	-1.094682
C81	C	1.201101	-0.373753	-1.040982
C82	C	1.157079	-0.396955	-1.073361
C83	C	1.341452	-0.299774	-1.234454
C84	C	1.385470	-0.276573	-1.202079
C85	C	1.368031	-0.285762	-1.116003
C86	C	1.306577	-0.318157	-1.062303
C87	C	1.412053	-0.262561	-1.083624
C88	C	1.394617	-0.271753	-0.997550
C89	C	1.289141	-0.327350	-0.976229
C90	C	1.227778	-0.359726	-0.423159
C91	C	1.209390	-0.369380	-0.331586
H92	H	0.604739	-0.292384	-0.553270
H93	H	0.663505	-0.250167	-0.473585
C94	C	1.138915	-0.642552	-0.505167
C95	C	1.095524	-0.663288	-0.541134
C96	C	1.032170	-0.690697	-0.477893
H97	H	1.101099	-0.618556	-0.467373
H98	H	1.163193	-0.671084	-0.475673
H99	H	1.071245	-0.634759	-0.570614
H100	H	1.133316	-0.687291	-0.578922
H101	H	1.056449	-0.719229	-0.448399
H102	H	0.994361	-0.666698	-0.440102
H103	H	1.002727	-0.704774	-0.502288
H104	H	0.566313	-0.319978	-0.605343
H105	H	1.156396	-1.137423	-0.522435
C106	C	1.139087	-1.031070	-0.505099
C107	C	1.083658	-1.066722	-0.449598
C108	C	1.020239	-1.039587	-0.386083
H109	H	1.109424	-1.002572	-0.529222
H110	H	1.163333	-1.016985	-0.475527
H111	H	1.059413	-1.080799	-0.479166
H112	H	1.113296	-1.095221	-0.425454
H113	H	1.044486	-1.025502	-0.356510
H114	H	0.990583	-1.011090	-0.410213
H115	H	0.982628	-1.063774	-0.348414
C116	C	0.775607	-0.446519	-0.844488
C117	C	0.771225	-0.424262	-0.921852
C118	C	0.824887	-0.456638	-0.983286
H119	H	0.759078	-0.481439	-0.829585
H120	H	0.831519	-0.448650	-0.848595
H121	H	0.715325	-0.422137	-0.917743
H122	H	0.787761	-0.389345	-0.936781
H123	H	0.880799	-0.458769	-0.987394
H124	H	0.808353	-0.491556	-0.968375
H125	H	0.821927	-0.441539	-1.035786
C126	C	1.452123	-0.241323	-1.260266
C127	C	1.430000	-0.189914	-1.235735
C128	C	1.491384	-0.157428	-1.289308
H129	H	1.456259	-0.239104	-1.316189
H130	H	1.504636	-0.256374	-1.257311
H131	H	1.377502	-0.174866	-1.238698
H132	H	1.425871	-0.192116	-1.179821
H133	H	1.543897	-0.172479	-1.286353
H134	H	1.495516	-0.155213	-1.345227
H135	H	1.476387	-0.122545	-1.272666
H136	H	0.781965	-0.236091	-0.447031
H137	H	1.449426	-0.886004	-0.815727
H138	H	0.938104	-0.252773	-0.478537
C139	C	1.403411	-1.030842	-0.769703
C140	C	1.458882	-1.066399	-0.825227
C141	C	1.522267	-1.039146	-0.888725
H142	H	1.433048	-1.016731	-0.745566
H143	H	1.379138	-1.002351	-0.799261
H144	H	1.483153	-1.094881	-0.795673
H145	H	1.429270	-1.080512	-0.849385
H146	H	1.497995	-1.010654	-0.918283
H147	H	1.551898	-1.025036	-0.864581
H148	H	1.559908	-1.063266	-0.926410
C149	C	1.075606	-0.893602	-0.441730
C150	C	1.020112	-0.858034	-0.386237
C151	C	0.956655	-0.885264	-0.322804
H152	H	1.099783	-0.922106	-0.412121
H153	H	1.046014	-0.907689	-0.465956
H154	H	1.049699	-0.843956	-0.362013
H155	H	0.995913	-0.829530	-0.415821
H156	H	0.927063	-0.899351	-0.347030
H157	H	0.980840	-0.913768	-0.293202
H158	H	0.918990	-0.861135	-0.285149
C159	C	1.403045	-0.528312	-0.769302
C160	C	1.389481	-0.474662	-0.755710
C161	C	1.452762	-0.447213	-0.818984
H162	H	1.402211	-0.529979	-0.822270
H163	H	1.456011	-0.544415	-0.768466
H164	H	1.336529	-0.458563	-0.756555
H165	H	1.390323	-0.472978	-0.702754
H166	H	1.505728	-0.463316	-0.818147
H167	H	1.451923	-0.448885	-0.871948
H168	H	1.443572	-0.410810	-0.809766
H169	H	1.430460	-0.252859	-0.971191
C170	C	1.403249	-0.642188	-0.769509
C171	C	1.458704	-0.606542	-0.824982
C172	C	1.522176	-0.633690	-0.888446
H173	H	1.379082	-0.656288	-0.799128
H174	H	1.432868	-0.670680	-0.745309
H175	H	1.429089	-0.578060	-0.849180
H176	H	1.482893	-0.592441	-0.795388
H177	H	1.551795	-0.662182	-0.864246
H178	H	1.498001	-0.647788	-0.918057
H179	H	1.559814	-0.609509	-0.926087
H180	H	0.976690	-0.353904	-0.669408
H181	H	1.355648	-0.292292	-1.304540
H182	H	1.112093	-0.420662	-1.304245
H183	H	1.092844	-0.787224	-0.458951
H184	H	0.938281	-0.381487	-0.721490
H185	H	1.156074	-0.536007	-0.522210
C186	C	1.320076	-0.311000	-1.357643
C187	C	1.325913	-0.307905	-1.439951
C188	C	1.387305	-0.275498	-1.493796
H189	H	1.372631	-0.326040	-1.354809
H190	H	1.305195	-0.276071	-1.341177
H191	H	1.340798	-0.342827	-1.456413
H192	H	1.273373	-0.292860	-1.442812
H193	H	1.372424	-0.240569	-1.477330
H194	H	1.439856	-0.290541	-1.490954
H195	H	1.391268	-0.273390	-1.549647
H196	H	1.449376	-0.786956	-0.815684
C197	C	1.403322	-1.144733	-0.769595
C198	C	1.389773	-1.198403	-0.756054
C199	C	1.453016	-1.225759	-0.819400
H200	H	1.456311	-1.143028	-0.768821
H201	H	1.402415	-1.128592	-0.822529
H202	H	1.390689	-1.214539	-0.703134
H203	H	1.336796	-1.200124	-0.756836
H204	H	1.452108	-1.209619	-0.872334
H205	H	1.506001	-1.224050	-0.818621
H206	H	1.443827	-1.262176	-0.810225
H207	H	0.879499	-0.423717	-0.801170
H208	H	1.239076	-0.353714	-0.932503
C209	C	1.182342	-0.383757	-0.947564
C210	C	1.255016	-0.408519	-0.934903
C211	C	1.237770	-0.417736	-0.848858
H212	H	1.139479	-0.406388	-0.920129
H213	H	1.164223	-0.350576	-0.925221
H214	H	1.273124	-0.441695	-0.957236
H215	H	1.297889	-0.385896	-0.962317
H216	H	1.219650	-0.384555	-0.826515
H217	H	1.194904	-0.440366	-0.821431
H218	H	1.287077	-0.434533	-0.840257
H219	H	1.462098	-0.236189	-1.127356
C220	C	1.090477	-0.432228	-1.015111
C221	C	1.112627	-0.483643	-1.039618
C222	C	1.051311	-0.516156	-0.985968
H223	H	1.037927	-0.417226	-1.017989
H224	H	1.086420	-0.434414	-0.959211
H225	H	1.116674	-0.481455	-1.095503
H226	H	1.165167	-0.498661	-1.036736
H227	H	1.047254	-0.518343	-0.930069
H228	H	0.998765	-0.501149	-0.988851
H229	H	1.066335	-0.551046	-1.002584
C230	C	1.063895	-0.446236	-1.133559
C231	C	1.086045	-0.497652	-1.158066
C232	C	1.024729	-0.530165	-1.104417
H233	H	1.011345	-0.431234	-1.136437
H234	H	1.059838	-0.448423	-1.077660
H235	H	1.090092	-0.495463	-1.213952
H236	H	1.138584	-0.512669	-1.155184
H237	H	1.020672	-0.532352	-1.048517
H238	H	0.972183	-0.515158	-1.107299
H239	H	1.039753	-0.565055	-1.121032
H240	H	0.604914	-0.421098	-0.796213
