data_functionalizedCrystal
_audit_creation_method	'MofGen! by Chris Wilmer'
_symmetry_space_group_name_H-M	'P1'
_symmetry_Int_Tables_number	1
_symmetry_cell_setting	triclinic
loop_
_symmetry_equiv_pos_as_xyz
  x,y,z
_cell_length_a	15.995350
_cell_length_b	14.421503
_cell_length_c	15.995350
_cell_angle_alpha	89.993477
_cell_angle_beta	83.492375
_cell_angle_gamma	90.003984
loop_
_atom_site_label
_atom_site_type_symbol
_atom_site_fract_x
_atom_site_fract_y
_atom_site_fract_z
O1	O	1.110991	0.077028	0.107915
O2	O	0.867215	0.077047	0.121243
O3	O	0.995767	0.077036	-0.007309
O4	O	0.982439	0.077039	0.236466
O5	O	0.995745	-0.077187	-0.007290
O6	O	0.867194	-0.077176	0.121262
O7	O	1.110969	-0.077195	0.107934
Cu8	Cu	0.989080	-0.091268	0.114600
Cu9	Cu	0.989105	0.091120	0.114577
O10	O	0.982418	-0.077184	0.236486
C11	C	0.836010	-0.000062	0.120701
C12	C	0.743060	-0.000055	0.119049
N13	N	0.989068	-0.219549	0.114615
C14	C	0.405312	-0.000074	0.113117
C15	C	0.452746	-0.000420	0.021565
C16	C	0.549436	-0.000065	0.023217
C17	C	0.572873	-0.000065	0.116060
C18	C	0.531798	0.088001	0.161205
C19	C	0.435162	0.088068	0.158905
C20	C	0.434799	-0.087313	0.160819
C21	C	0.531744	-0.088471	0.160797
C22	C	0.667570	-0.000057	0.117727
C23	C	0.310614	-0.000076	0.111452
C24	C	0.929615	-0.469198	0.174031
C25	C	1.005274	-0.531006	0.190282
C26	C	0.989089	-0.408710	0.114595
C27	C	0.913449	-0.530996	0.098363
C28	C	0.989101	-0.591432	0.114578
C29	C	1.064785	-0.469158	0.130884
C30	C	0.972911	-0.469142	0.038933
C31	C	1.048624	-0.530923	0.055152
C32	C	0.989080	-0.303449	0.114607
C33	C	0.989119	-0.696691	0.114565
C34	C	1.142175	-0.000084	0.108476
C35	C	1.235125	-0.000085	0.110127
C36	C	0.995205	-0.000074	-0.038494
C37	C	0.993553	-0.000068	-0.131444
N38	N	0.989123	0.219401	0.114555
C39	C	0.987621	-0.000071	-0.469192
C40	C	0.896069	0.000282	-0.421758
C41	C	0.897721	-0.000066	-0.325068
C42	C	0.990564	-0.000069	-0.301631
C43	C	1.035708	-0.088140	-0.342698
C44	C	1.033408	-0.088214	-0.439334
C45	C	1.035324	0.087167	-0.439713
C46	C	1.035302	0.088331	-0.342768
C47	C	0.992231	-0.000071	-0.206934
C48	C	0.985956	-0.000075	-0.563890
C49	C	0.982980	-0.000072	0.267671
C50	C	0.984631	-0.000072	0.360621
H51	H	0.577856	-0.063195	-0.012270
H52	H	0.959192	-0.441948	-0.025025
N53	N	0.993993	0.170081	-0.308511
N54	N	1.020070	0.248269	-0.333069
H55	H	0.990904	0.306006	-0.308862
H56	H	0.879372	-0.442096	0.224333
N57	N	0.997802	0.170912	-0.465501
N58	N	0.994323	0.186454	-0.541910
H59	H	0.967818	0.245595	-0.560125
H60	H	1.004335	-0.153677	-0.314308
H61	H	1.000471	-0.154045	-0.457627
N62	N	1.022444	-0.565120	0.270536
N63	N	1.025808	-0.650505	0.283166
H64	H	1.037928	-0.674597	0.339848
N65	N	1.120231	0.095003	-0.323479
N66	N	1.149300	0.034440	-0.278904
H67	H	1.209284	0.039148	-0.265277
H68	H	1.128771	-0.442109	0.144682
H69	H	1.098979	-0.557855	0.004879
H70	H	0.402914	0.092064	0.226121
H71	H	0.849478	-0.558161	0.084642
H72	H	1.102825	0.087757	-0.471474
N73	N	0.852897	-0.079395	-0.290082
N74	N	0.846327	-0.093438	-0.212498
H75	H	0.814669	-0.149468	-0.187788
H76	H	0.862234	0.063067	-0.296653
H77	H	0.547109	-0.093790	0.228501
H78	H	0.545923	0.091275	0.229414
H79	H	1.103916	-0.091418	-0.328572
H80	H	0.859631	-0.062518	-0.441344
N81	N	0.429547	-0.079695	-0.024301
N82	N	0.377777	-0.136862	0.009945
H83	H	0.361408	-0.192869	-0.022439
H84	H	1.100624	-0.092212	-0.471581
N85	N	0.850181	0.079511	-0.445031
N86	N	0.838184	0.091507	-0.520143
H87	H	0.805777	0.147466	-0.536586
N88	N	0.428157	0.078354	-0.024150
N89	N	0.352760	0.089172	-0.035605
H90	H	0.335388	0.144807	-0.067888
N91	N	0.584401	0.079260	-0.021629
N92	N	0.575120	0.089565	-0.097620
H93	H	0.599812	0.145593	-0.129295
N94	N	0.412212	0.170656	0.117586
N95	N	0.467540	0.227843	0.090644
H96	H	0.451336	0.286173	0.061460
H97	H	0.414254	-0.154065	0.130896
N98	N	0.567432	0.170216	0.121866
N99	N	0.623065	0.164178	0.060590
H100	H	0.648241	0.222241	0.032810
H101	H	0.559052	-0.153621	0.127841
N102	N	0.394953	-0.088051	0.245496
N103	N	0.345044	-0.024674	0.270701
H104	H	0.316899	-0.025188	0.330502
