data_functionalizedCrystal
_audit_creation_method	'MofGen! by Chris Wilmer'
_symmetry_space_group_name_H-M	'P1'
_symmetry_Int_Tables_number	1
_symmetry_cell_setting	triclinic
loop_
_symmetry_equiv_pos_as_xyz
  x,y,z
_cell_length_a	12.827893
_cell_length_b	12.827892
_cell_length_c	12.827885
_cell_angle_alpha	90.029786
_cell_angle_beta	90.019272
_cell_angle_gamma	90.015362
loop_
_atom_site_label
_atom_site_type_symbol
_atom_site_fract_x
_atom_site_fract_y
_atom_site_fract_z
Zn1	Zn	1.597670	-0.415983	0.590849
Zn2	Zn	2.097670	0.084017	1.090849
Zn3	Zn	1.597564	-0.590761	0.416109
Zn4	Zn	2.097564	-0.090761	0.916109
Zn5	Zn	1.422911	-0.416034	0.416122
Zn6	Zn	1.922911	0.083966	0.916122
Zn7	Zn	1.422896	-0.590683	0.590809
Zn8	Zn	1.922896	-0.090683	1.090809
O9	O	1.510260	-0.503365	0.503472
O10	O	2.010260	-0.003365	1.003472
O11	O	1.743892	-0.439179	0.567680
O12	O	2.243892	0.060821	1.067680
O13	O	1.574357	-0.567637	0.269875
O14	O	2.074357	-0.067637	0.769875
O15	O	1.446144	-0.269791	0.439322
O16	O	1.946144	0.230209	0.939322
O17	O	1.743814	-0.567587	0.439300
O18	O	2.243814	-0.067587	0.939300
O19	O	1.574538	-0.269754	0.567693
O20	O	2.074538	0.230246	1.067693
O21	O	1.446041	-0.439266	0.269884
O22	O	1.946041	0.060734	0.769884
O23	O	1.276673	-0.439190	0.439284
O24	O	1.776673	0.060810	0.939284
O25	O	1.446118	-0.567455	0.737050
O26	O	1.946118	-0.067455	1.237050
O27	O	1.276662	-0.567504	0.567625
O28	O	1.776662	-0.067504	1.067625
O29	O	1.574524	-0.439104	0.737080
O30	O	2.074524	0.060896	1.237080
O31	O	1.574343	-0.736986	0.439261
O32	O	2.074343	-0.236986	0.939261
O33	O	1.446016	-0.736929	0.567612
O34	O	1.946016	-0.236929	1.067612
C35	C	1.238750	-0.503345	0.503452
C36	C	1.738750	-0.003345	1.003452
C37	C	1.122597	-0.503362	0.503469
C38	C	1.622597	-0.003362	1.003469
C39	C	1.070835	-0.566954	0.566878
C40	C	1.570835	-0.066954	1.066878
C41	C	0.950784	-0.566973	0.566896
C42	C	1.450784	-0.066973	1.066896
C43	C	1.510195	-0.774875	0.503454
C44	C	2.010195	-0.274875	1.003454
C45	C	1.510262	-0.891028	0.503481
C46	C	2.010262	-0.391028	1.003481
C47	C	1.573838	-0.942807	0.440039
C48	C	2.073838	-0.442807	0.940039
C49	C	1.573910	-1.062857	0.440066
C50	C	2.073910	-0.562857	0.940066
C51	C	1.782830	-0.503386	0.503493
C52	C	2.282830	-0.003386	1.003493
C53	C	1.898983	-0.503395	0.503502
C54	C	2.398983	-0.003395	1.003502
C55	C	1.510331	-0.503265	0.776043
C56	C	2.010331	-0.003265	1.276043
C57	C	1.510362	-0.503222	0.892196
C58	C	2.010362	-0.003222	1.392196
C59	C	1.510354	-0.230795	0.503514
C60	C	2.010354	0.269205	1.003514
C61	C	1.510394	-0.114642	0.503531
C62	C	2.010394	0.385358	1.003531
C63	C	1.510249	-0.503390	0.231962
C64	C	2.010249	-0.003390	0.731962
C65	C	1.510422	-0.503138	0.115810
C66	C	2.010422	-0.003138	0.615810
C67	C	1.573907	-0.439697	0.943995
C68	C	2.073907	0.060303	1.443995
C69	C	1.573940	-0.439652	1.064045
C70	C	2.073940	0.060348	1.564045
H71	H	1.115396	-0.621381	0.621155
H72	H	1.615396	-0.121381	1.121155
Cl73	Cl	0.967698	-0.419336	0.419673
Cl74	Cl	1.467698	0.080664	0.919673
Cl75	Cl	1.657944	-1.131599	0.356197
Cl76	Cl	2.157944	-0.631599	0.856197
Cl77	Cl	1.657803	-0.874038	0.356153
Cl78	Cl	2.157803	-0.374038	0.856153
Cl79	Cl	1.426346	-1.045907	0.587391
Cl80	Cl	1.926346	-0.545907	1.087391
H81	H	0.906270	-0.621420	0.621181
H82	H	1.406270	-0.121420	1.121181
H83	H	1.078036	-0.448927	0.449199
H84	H	1.578036	0.051073	0.949199
H85	H	1.455890	-0.935576	0.557819
H86	H	1.955890	-0.435576	1.057819
Cl87	Cl	1.426393	-0.587136	0.960937
Cl88	Cl	1.926393	-0.087136	1.460937
H89	H	1.628283	-0.385342	0.899465
H90	H	2.128283	0.114658	1.399465
H91	H	1.628348	-0.385270	1.108591
H92	H	2.128348	0.114730	1.608591
Cl93	Cl	1.426424	-0.587119	1.047047
Cl94	Cl	1.926424	-0.087119	1.547047
