data_functionalizedCrystal
_audit_creation_method	'MofGen! by Chris Wilmer'
_symmetry_space_group_name_H-M	'P1'
_symmetry_Int_Tables_number	1
_symmetry_cell_setting	triclinic
loop_
_symmetry_equiv_pos_as_xyz
  x,y,z
_cell_length_a	23.532361
_cell_length_b	23.532407
_cell_length_c	10.868271
_cell_angle_alpha	89.990218
_cell_angle_beta	89.999961
_cell_angle_gamma	82.839173
loop_
_atom_site_label
_atom_site_type_symbol
_atom_site_fract_x
_atom_site_fract_y
_atom_site_fract_z
O1	O	0.755277	0.069009	-0.102211
O2	O	1.255277	0.569009	0.397789
O3	O	0.589409	0.079040	-0.102243
O4	O	1.089409	0.579040	0.397757
O5	O	0.677345	-0.008908	-0.102203
O6	O	1.177345	0.491092	0.397797
O7	O	0.667341	0.156957	-0.102250
O8	O	1.167341	0.656957	0.397750
O9	O	0.677338	-0.008912	0.102441
O10	O	1.177338	0.491088	0.602441
O11	O	0.589402	0.079036	0.102402
O12	O	1.089402	0.579036	0.602402
O13	O	0.755269	0.069006	0.102433
O14	O	1.255269	0.569006	0.602433
Zn15	Zn	0.672335	0.074020	0.134910
Zn16	Zn	1.172335	0.574020	0.634910
Zn17	Zn	0.672344	0.074025	-0.134719
Zn18	Zn	1.172344	0.574025	0.365281
O19	O	0.667334	0.156954	0.102394
O20	O	1.167334	0.656954	0.602394
C21	C	0.568189	0.078787	0.000076
C22	C	1.068189	0.578787	0.500076
C23	C	0.504971	0.078032	0.000065
C24	C	1.004971	0.578032	0.500065
C25	C	0.231731	0.074730	-0.111478
C26	C	0.731731	0.574730	0.388522
C27	C	0.291131	0.075445	-0.111482
C28	C	0.791131	0.575445	0.388518
O29	O	0.321860	0.075797	-0.206350
O30	O	0.821860	0.575797	0.293650
N31	N	0.320832	0.075804	0.000071
N32	N	0.820832	0.575804	0.500071
C33	C	0.291132	0.075443	0.111633
C34	C	0.791132	0.575443	0.611633
O35	O	0.321850	0.075814	0.206517
O36	O	0.821850	0.575814	0.706517
C37	C	0.231734	0.074724	0.111635
C38	C	0.731734	0.574724	0.611635
C39	C	0.202035	0.074370	0.000076
C40	C	0.702035	0.574370	0.500076
C41	C	0.202032	0.074376	-0.223029
C42	C	0.702032	0.574376	0.276971
C43	C	0.142636	0.073662	-0.223025
C44	C	0.642636	0.573662	0.276975
C45	C	0.112939	0.073302	-0.111471
C46	C	0.612939	0.573302	0.388529
C47	C	0.142639	0.073657	0.000079
C48	C	0.642639	0.573657	0.500079
C49	C	0.202035	0.074358	0.223197
C50	C	0.702035	0.574358	0.723197
C51	C	0.142633	0.073639	0.223189
C52	C	0.642633	0.573639	0.723189
C53	C	0.112934	0.073285	0.111630
C54	C	0.612934	0.573285	0.611630
C55	C	0.053547	0.072583	0.111637
C56	C	0.553547	0.572583	0.611637
N57	N	0.023845	0.072224	0.000085
N58	N	0.523845	0.572224	0.500085
C59	C	0.053541	0.072583	-0.111469
C60	C	0.553541	0.572583	0.388531
C61	C	0.415872	0.076952	0.111621
C62	C	0.915872	0.576952	0.611621
C63	C	0.475269	0.077675	0.111620
C64	C	0.975269	0.577675	0.611620
C65	C	0.475263	0.077676	-0.111495
C66	C	0.975263	0.577676	0.388505
C67	C	0.415865	0.076957	-0.111493
C68	C	0.915865	0.576957	0.388507
C69	C	0.386171	0.076593	0.000069
C70	C	0.886171	0.576593	0.500069
C71	C	-0.071194	0.071085	-0.111453
C72	C	0.428806	0.571085	0.388547
C73	C	-0.130596	0.070373	-0.111439
C74	C	0.369404	0.570373	0.388561
C75	C	-0.130585	0.070369	0.111675
C76	C	0.369415	0.570369	0.611675
C77	C	-0.071189	0.071084	0.111663
C78	C	0.428811	0.571084	0.611663
C79	C	-0.041495	0.071440	0.000088
C80	C	0.458505	0.571440	0.500088
O81	O	0.022780	0.072229	0.206457
O82	O	0.522780	0.572229	0.706457
O83	O	0.022817	0.072205	-0.206337
O84	O	0.522817	0.572205	0.293663
C85	C	0.677086	-0.030126	0.000122
C86	C	1.177086	0.469874	0.500122
C87	C	0.676320	-0.093343	0.000131
C88	C	1.176320	0.406657	0.500131
C89	C	0.723555	-0.492454	0.000073
C90	C	1.223555	0.007546	0.500073
C91	C	0.722844	-0.551854	0.000063
C92	C	1.222844	-0.051854	0.500063
O93	O	0.766630	-0.588606	0.000026
O94	O	1.266630	-0.088606	0.500026
N95	N	0.670566	-0.574471	0.000054
N96	N	1.170566	-0.074471	0.500054
C97	C	0.618997	-0.537685	0.000042
C98	C	1.118997	-0.037685	0.500042
O99	O	0.574465	-0.562377	0.000033
O100	O	1.074465	-0.062377	0.500033
C101	C	0.619709	-0.478286	0.000043
C102	C	1.119709	0.021714	0.500043
C103	C	0.671990	-0.455672	0.000064
C104	C	1.171990	0.044328	0.500064
C105	C	0.775832	-0.469839	0.000093
C106	C	1.275832	0.030161	0.500093
C107	C	0.776543	-0.410443	0.000105
C108	C	1.276543	0.089557	0.500105
C109	C	0.724977	-0.373662	0.000096
C110	C	1.224977	0.126338	0.500096
C111	C	0.672701	-0.396276	0.000076
C112	C	1.172701	0.103724	0.500076
C113	C	0.568140	-0.441501	0.000022
C114	C	1.068140	0.058499	0.500022
C115	C	0.568857	-0.382099	0.000022
C116	C	1.068857	0.117901	0.500022
C117	C	0.621137	-0.359485	0.000043
C118	C	1.121137	0.140515	0.500043
C119	C	0.621847	-0.300099	0.000080
C120	C	1.121847	0.199901	0.500080
N121	N	0.674124	-0.277481	0.000089
N122	N	1.174124	0.222519	0.500089
C123	C	0.725690	-0.314263	0.000097
C124	C	1.225690	0.185737	0.500097
C125	C	0.617505	-0.662427	0.000039
C126	C	1.117505	-0.162427	0.500039
C127	C	0.616793	-0.721825	0.000047
C128	C	1.116793	-0.221825	0.500047
C129	C	0.720640	-0.735990	0.000066
C130	C	1.220640	-0.235990	0.500066
C131	C	0.721352	-0.676591	0.000066
C132	C	1.221352	-0.176591	0.500066
C133	C	0.669783	-0.639810	0.000048
C134	C	1.169783	-0.139810	0.500048
C135	C	0.727179	-0.189526	0.000123
C136	C	1.227179	0.310474	0.500123
C137	C	0.727886	-0.130124	0.000140
C138	C	1.227886	0.369876	0.500140
C139	C	0.624039	-0.115965	0.000114
C140	C	1.124039	0.384035	0.500114
C141	C	0.623332	-0.175361	0.000104
C142	C	1.123332	0.324639	0.500104
C143	C	0.674907	-0.212141	0.000104
C144	C	1.174907	0.287859	0.500104
O145	O	0.578083	-0.263312	0.000112
O146	O	1.078083	0.236688	0.500112
O147	O	0.770214	-0.289562	0.000090
O148	O	1.270214	0.210438	0.500090
C149	C	0.776489	0.069258	0.000112
C150	C	1.276489	0.569258	0.500112
C151	C	0.839708	0.070014	0.000115
C152	C	1.339708	0.570014	0.500115
C153	C	0.667592	0.178171	0.000066
C154	C	1.167592	0.678171	0.500066
C155	C	0.668358	0.241388	0.000049
C156	C	1.168358	0.741388	0.500049
N157	N	0.672332	0.074017	0.318924
N158	N	1.172332	0.574017	0.818924
N159	N	0.672351	0.074024	-0.318733
N160	N	1.172351	0.574024	0.181267
C161	C	0.672341	0.074024	0.569930
C162	C	1.172341	0.574024	1.069930
C163	C	0.672334	0.074022	0.430252
C164	C	1.172334	0.574022	0.930252
H165	H	0.391698	0.076662	0.202473
H166	H	0.891698	0.576662	0.702473
H167	H	0.580761	-0.193774	0.000121
H168	H	1.080761	0.306226	0.500121
H169	H	0.817825	-0.499782	0.000095
H170	H	1.317825	0.000218	0.500095
H171	H	0.391688	0.076669	-0.202335
H172	H	0.891688	0.576669	0.297665
H173	H	0.582056	-0.086007	0.000112
H174	H	1.082056	0.413993	0.500112
H175	H	0.769176	-0.219466	0.000118
H176	H	1.269176	0.280534	0.500118
H177	H	0.819115	-0.392037	0.000117
H178	H	1.319115	0.107963	0.500117
H179	H	0.226207	0.074644	0.314041
H180	H	0.726207	0.574644	0.814041
H181	H	-0.047025	0.071375	-0.202307
H182	H	0.452975	0.571375	0.297693
H183	H	0.499453	0.077968	-0.202329
H184	H	0.999453	0.577968	0.297671
H185	H	0.118460	0.073372	-0.313868
H186	H	0.618460	0.573372	0.186132
H187	H	0.499444	0.077972	0.202463
H188	H	0.999444	0.577972	0.702463
H189	H	-0.154775	0.070087	-0.202288
H190	H	0.345225	0.570087	0.297712
H191	H	-0.154774	0.070079	0.202500
H192	H	0.345226	0.570079	0.702500
H193	H	0.526862	-0.352154	0.000005
H194	H	1.026862	0.147846	0.500005
H195	H	0.575509	-0.632483	0.000034
H196	H	1.075509	-0.132483	0.500034
H197	H	0.118458	0.073347	0.314038
H198	H	0.618458	0.573347	0.814038
H199	H	0.770461	-0.111716	0.000160
H200	H	1.270461	0.388284	0.500160
H201	H	-0.047008	0.071383	0.202503
H202	H	0.452992	0.571383	0.702503
H203	H	0.763923	-0.658183	0.000083
H204	H	1.263923	-0.158183	0.500083
H205	H	0.226204	0.074667	-0.313874
H206	H	0.726204	0.574667	0.186126
H207	H	0.762627	-0.765949	0.000068
H208	H	1.262627	-0.265949	0.500068
H209	H	0.574220	-0.740232	0.000051
H210	H	1.074220	-0.240232	0.500051
H211	H	0.525567	-0.459902	-0.000003
H212	H	1.025567	0.040098	0.499997
