data_functionalizedCrystal
_audit_creation_method	'MofGen! by Chris Wilmer'
_symmetry_space_group_name_H-M	'P1'
_symmetry_Int_Tables_number	1
_symmetry_cell_setting	triclinic
loop_
_symmetry_equiv_pos_as_xyz
  x,y,z
_cell_length_a	17.699097
_cell_length_b	10.065875
_cell_length_c	17.699104
_cell_angle_alpha	81.228896
_cell_angle_beta	83.289974
_cell_angle_gamma	98.733071
loop_
_atom_site_label
_atom_site_type_symbol
_atom_site_fract_x
_atom_site_fract_y
_atom_site_fract_z
O1	O	1.015182	0.113610	0.084602
O2	O	0.794803	0.113589	0.097046
O3	O	0.911209	0.113588	-0.019363
O4	O	0.898776	0.113611	0.201010
O5	O	0.889012	-0.113401	0.002923
O6	O	0.772606	-0.113400	0.119332
O7	O	0.992984	-0.113378	0.106888
Zn8	Zn	0.879271	-0.149428	0.116649
Zn9	Zn	0.908517	0.149639	0.087285
O10	O	0.876578	-0.113378	0.223297
C11	C	0.755508	0.000091	0.107742
C12	C	0.671489	0.000083	0.106400
N13	N	0.859317	-0.353534	0.136688
C14	C	0.167875	0.123869	0.086017
C15	C	0.246819	0.123862	0.087274
C16	C	0.274185	0.000125	0.100052
C17	C	0.222603	-0.123614	0.111566
C18	C	0.143662	-0.123605	0.110304
C19	C	0.540964	-0.123649	0.116657
C20	C	0.619911	-0.123648	0.117921
C21	C	0.644121	0.123818	0.093627
C22	C	0.565180	0.123826	0.092365
C23	C	0.513606	0.000089	0.103875
C24	C	0.428006	0.000098	0.102510
C25	C	0.359781	0.000115	0.101422
C26	C	0.901569	-0.421313	0.094253
C27	C	0.886218	-0.578480	0.109681
C28	C	1.032280	0.000122	0.096192
C29	C	1.116300	0.000140	0.097533
C30	C	0.899662	0.000093	-0.036417
C31	C	0.898317	0.000093	-0.120434
N32	N	0.928477	0.353744	0.067240
C33	C	0.959065	0.000137	-0.645306
C34	C	0.960323	0.000125	-0.566361
C35	C	0.891987	0.000116	-0.517746
C36	C	0.822388	0.000104	-0.548078
C37	C	0.821130	0.000106	-0.627021
C38	C	0.827460	0.000093	-0.229711
C39	C	0.828724	0.000095	-0.150764
C40	C	0.966653	0.000112	-0.169051
C41	C	0.965395	0.000114	-0.247994
C42	C	0.895796	0.000096	-0.278318
C43	C	0.894432	0.000106	-0.363919
C44	C	0.893351	0.000115	-0.432147
C45	C	0.888126	0.000120	0.240350
C46	C	0.889471	0.000130	0.324366
H47	H	0.288810	0.224614	0.077892
H48	H	0.838673	-0.636801	0.157434
C49	C	0.991880	-0.568752	0.003501
C50	C	1.027872	-0.661745	-0.032669
C51	C	1.086274	-0.590400	-0.091394
H52	H	1.028911	-0.512984	0.025057
H53	H	0.970045	-0.513056	-0.033368
H54	H	1.049707	-0.717418	0.004193
H55	H	0.990862	-0.717517	-0.054242
H56	H	1.064439	-0.534704	-0.128263
H57	H	1.123299	-0.534634	-0.069831
H58	H	1.110697	-0.653485	-0.115947
C59	C	0.754576	0.000356	-0.097969
C60	C	0.762679	0.117155	-0.063593
C61	C	0.694392	0.117453	-0.014962
H62	H	0.744402	-0.078707	-0.058961
H63	H	0.712930	0.000415	-0.127315
H64	H	0.804313	0.117083	-0.034248
H65	H	0.772842	0.196236	-0.102582
H66	H	0.652745	0.117513	-0.044308
H67	H	0.684224	0.038386	0.024041
H68	H	0.699878	0.196706	0.008362
C69	C	0.795987	-0.431538	0.200352
C70	C	0.793369	-0.571918	0.203015
C71	C	0.735045	-0.643813	0.261660
H72	H	0.747669	-0.408376	0.190128
H73	H	0.806528	-0.408260	0.248560
H74	H	0.782823	-0.595187	0.154818
H75	H	0.841672	-0.595120	0.213250
H76	H	0.745585	-0.620534	0.309868
H77	H	0.686731	-0.620640	0.251430
H78	H	0.733265	-0.739067	0.263479
H79	H	0.949106	-0.362989	0.046497
C80	C	0.751827	0.000149	-0.262489
C81	C	0.692258	0.000181	-0.203018
C82	C	0.622573	0.000250	-0.233189
H83	H	0.740621	-0.078987	-0.285124
H84	H	0.756168	0.079335	-0.300655
H85	H	0.687916	-0.078997	-0.164866
H86	H	0.703439	0.079312	-0.180378
H87	H	0.626915	0.079436	-0.271355
H88	H	0.611375	-0.078887	-0.255823
H89	H	0.582149	0.000284	-0.192845
H90	H	1.021042	0.000129	-0.287574
H91	H	1.014714	0.000157	-0.684885
C92	C	0.535625	0.258313	0.078439
C93	C	0.597693	0.366672	0.068601
C94	C	0.570500	0.490583	0.055758
H95	H	0.499501	0.263661	0.121527
H96	H	0.511208	0.263525	0.033298
H97	H	0.622097	0.361463	0.113737
H98	H	0.633822	0.361370	0.025512
H99	H	0.546084	0.495795	0.010617
H100	H	0.534376	0.495916	0.098848
H101	H	0.612610	0.564119	0.049075
H102	H	0.498983	-0.224404	0.126019
C103	C	0.649747	-0.257899	0.131661
C104	C	0.703007	-0.265101	0.068015
C105	C	0.730516	-0.388736	0.080648
H106	H	0.607807	-0.331707	0.138307
H107	H	0.674234	-0.263059	0.176757
H108	H	0.678520	-0.259955	0.022932
H109	H	0.744961	-0.191322	0.061358
H110	H	0.755003	-0.393896	0.125744
H111	H	0.688572	-0.462535	0.087295
H112	H	0.766662	-0.393634	0.037470
C113	C	1.042137	0.000048	-0.135971
C114	C	1.028614	0.000003	-0.056428
C115	C	1.098127	-0.000069	-0.025930
H116	H	1.078061	0.079189	-0.160347
H117	H	1.062532	-0.079133	-0.144854
H118	H	1.008230	0.079176	-0.047551
H119	H	0.992702	-0.079132	-0.032032
H120	H	1.118523	-0.079251	-0.034813
H121	H	1.134047	0.079073	-0.050311
H122	H	1.088961	-0.000113	0.028044
C123	C	1.035967	0.000200	-0.533588
C124	C	1.095547	0.000251	-0.593063
C125	C	1.165244	0.000332	-0.562904
H126	H	1.031695	-0.078939	-0.495421
H127	H	1.047110	0.079383	-0.510962
H128	H	1.084406	-0.078924	-0.615677
H129	H	1.099843	0.079384	-0.631235
H130	H	1.176387	0.079515	-0.540278
H131	H	1.160965	-0.078808	-0.524737
H132	H	1.205679	0.000379	-0.603254
H133	H	0.766747	0.000088	-0.508488
C134	C	0.745500	0.000175	-0.659811
C135	C	0.685927	0.000205	-0.600346
C136	C	0.616246	0.000281	-0.630523
H137	H	0.734295	-0.078959	-0.682449
H138	H	0.749846	0.079363	-0.697977
H139	H	0.681580	-0.078976	-0.562194
H140	H	0.697106	0.079333	-0.577702
H141	H	0.620591	0.079470	-0.668689
H142	H	0.605048	-0.078854	-0.653160
H143	H	0.575818	0.000314	-0.590182
C144	C	0.138323	0.258358	0.072096
C145	C	0.200394	0.366712	0.062260
C146	C	0.173204	0.490627	0.049423
H147	H	0.102201	0.263704	0.115186
H148	H	0.113905	0.263579	0.026956
H149	H	0.224799	0.361494	0.107395
H150	H	0.236521	0.361412	0.019169
H151	H	0.148786	0.495847	0.004283
H152	H	0.137082	0.495958	0.092516
H153	H	0.215315	0.564159	0.042741
H154	H	0.686123	0.224571	0.084252
H155	H	0.244891	-0.224362	0.121966
H156	H	0.101668	-0.224358	0.119689
