data_functionalizedCrystal
_audit_creation_method	'MofGen! by Chris Wilmer'
_symmetry_space_group_name_H-M	'P1'
_symmetry_Int_Tables_number	1
_symmetry_cell_setting	triclinic
loop_
_symmetry_equiv_pos_as_xyz
  x,y,z
_cell_length_a	19.805407
_cell_length_b	12.759400
_cell_length_c	12.759393
_cell_angle_alpha	90.031769
_cell_angle_beta	89.978485
_cell_angle_gamma	89.985315
loop_
_atom_site_label
_atom_site_type_symbol
_atom_site_fract_x
_atom_site_fract_y
_atom_site_fract_z
Zn1	Zn	1.034804	0.418202	-0.594097
Zn2	Zn	1.034738	0.593922	-0.418417
Zn3	Zn	0.921615	0.418257	-0.418424
Zn4	Zn	0.921605	0.593840	-0.594046
O5	O	0.978190	0.506055	-0.506246
O6	O	1.129512	0.441523	-0.570812
O7	O	1.019708	0.570677	-0.271397
O8	O	0.936661	0.271229	-0.441752
O9	O	1.129463	0.570623	-0.441740
O10	O	1.019821	0.271188	-0.570818
O11	O	0.936597	0.441617	-0.271402
O12	O	0.826897	0.441537	-0.441702
O13	O	0.936645	0.570484	-0.741074
O14	O	0.826890	0.570537	-0.570731
O15	O	1.019811	0.441443	-0.741112
O16	O	1.019699	0.740932	-0.441691
O17	O	0.936581	0.740872	-0.570725
C18	C	0.978150	0.779023	-0.506224
C19	C	0.978195	0.895799	-0.506250
C20	C	0.802334	0.506035	-0.506212
C21	C	0.727102	0.506052	-0.506223
C22	C	0.978234	0.505948	-0.780280
C23	C	0.978253	0.505903	-0.897056
C24	C	0.691772	0.573323	-0.573299
C25	C	0.621084	0.573325	-0.573314
C26	C	0.585727	0.506060	-0.506246
C27	C	0.621062	0.438781	-0.439167
C28	C	0.691749	0.438775	-0.439158
C29	C	0.335989	0.438805	-0.439201
C30	C	0.265296	0.438818	-0.439213
C31	C	0.265323	0.573354	-0.573357
C32	C	0.336011	0.573348	-0.573349
C33	C	0.371339	0.506066	-0.506274
C34	C	0.447988	0.506063	-0.506260
C35	C	0.509080	0.506067	-0.506254
C36	C	1.154733	0.506076	-0.506281
C37	C	1.229965	0.506085	-0.506296
C38	C	0.978249	0.232022	-0.506291
C39	C	0.978274	0.115245	-0.506310
C40	C	1.021523	0.950658	-0.439137
C41	C	1.021564	1.060382	-0.439169
C42	C	0.934945	1.060379	-0.573431
C43	C	0.934907	0.950657	-0.573403
C44	C	1.071530	0.950660	-0.361618
C45	C	1.071571	1.060384	-0.361650
C46	C	0.934995	0.438689	-0.951927
C47	C	0.935016	0.438657	-1.061651
C48	C	1.021558	0.573057	-1.061624
C49	C	1.021533	0.573093	-0.951902
C50	C	0.885033	0.361091	-0.951943
C51	C	0.885054	0.361060	-1.061668
C52	C	0.978186	0.506086	-0.233279
C53	C	0.978298	0.505836	-0.116503
H54	H	0.592321	0.628105	-0.627934
H55	H	0.835256	0.390185	-1.095688
H56	H	1.121373	1.094329	-0.390868
H57	H	0.899109	0.279678	-1.091466
C58	C	1.052651	1.100738	-0.251716
C59	C	1.049029	1.219419	-0.230443
C60	C	1.030108	1.259773	-0.120515
C61	C	1.014808	1.181446	-0.031859
C62	C	1.018429	1.062757	-0.053129
C63	C	1.037351	1.022403	-0.163057
H64	H	1.060355	1.277408	-0.296074
H65	H	1.027427	1.347634	-0.104770
H66	H	1.000801	1.211318	0.049517
H67	H	1.007103	1.004768	0.012502
H68	H	1.040031	0.934542	-0.178802
C69	C	0.730662	0.647317	-0.647076
C70	C	0.720923	0.766744	-0.638303
C71	C	0.759811	0.840737	-0.712085
C72	C	0.808438	0.795303	-0.794640
C73	C	0.818179	0.675870	-0.803416
C74	C	0.779291	0.601877	-0.729634
H75	H	0.684925	0.800382	-0.577188
H76	H	0.752600	0.929149	-0.705588
H77	H	0.837225	0.850077	-0.849258
H78	H	0.854178	0.642232	-0.864531
H79	H	0.786503	0.513464	-0.736132
C80	C	0.226460	0.647360	-0.647152
C81	C	0.265352	0.721354	-0.720918
C82	C	0.226492	0.795360	-0.794707
C83	C	0.148739	0.795371	-0.794730
C84	C	0.109842	0.721374	-0.720961
C85	C	0.148703	0.647368	-0.647172
H86	H	0.322914	0.721348	-0.720904
H87	H	0.255286	0.850137	-0.849316
H88	H	0.119971	0.850154	-0.849353
H89	H	0.052281	0.721380	-0.720976
H90	H	0.119909	0.592591	-0.592564
H91	H	1.056795	0.627760	-1.106293
H92	H	0.899702	1.105058	-0.628106
C93	C	1.142320	0.910313	-0.391153
C94	C	1.199427	0.988645	-0.414998
C95	C	1.270214	0.948297	-0.444533
C96	C	1.283894	0.829617	-0.450224
C97	C	1.226786	0.751277	-0.426378
C98	C	1.155998	0.791625	-0.396842
H99	H	1.189301	1.076505	-0.410786
H100	H	1.312490	1.006289	-0.462186
H101	H	1.336295	0.799749	-0.472088
H102	H	1.236911	0.663417	-0.430590
H103	H	1.113723	0.733633	-0.379190
C104	C	1.046196	0.904796	-0.257146
C105	C	1.092610	0.833490	-0.191686
C106	C	1.067277	0.787629	-0.087212
C107	C	0.995531	0.813074	-0.048198
C108	C	0.949113	0.884384	-0.113659
C109	C	0.974445	0.930245	-0.218133
H110	H	1.145724	0.814651	-0.220566
H111	H	1.101640	0.734841	-0.038754
H112	H	0.976779	0.779125	0.029140
H113	H	0.895998	0.903223	-0.084780
H114	H	0.940083	0.983033	-0.266592
H115	H	1.056748	0.627840	-0.907231
H116	H	0.364795	0.628126	-0.627959
H117	H	0.236511	0.384037	-0.384598
C118	C	0.374844	0.364827	-0.365390
C119	C	0.335950	0.290862	-0.291596
C120	C	0.374810	0.216893	-0.217768
C121	C	0.452563	0.216888	-0.217735
C122	C	0.491461	0.290855	-0.291532
C123	C	0.452602	0.364825	-0.365359
H124	H	0.278389	0.290863	-0.291618
H125	H	0.346014	0.162137	-0.163139
H126	H	0.481329	0.162131	-0.163083
H127	H	0.549022	0.290854	-0.291509
H128	H	0.481397	0.419580	-0.419989
H129	H	0.832599	0.382880	-0.922160
C130	C	0.910412	0.256695	-0.905984
C131	C	0.873087	0.153905	-0.931330
C132	C	0.898468	0.049509	-0.885370
C133	C	0.961174	0.047904	-0.814065
C134	C	0.998502	0.150697	-0.788716
C135	C	0.973121	0.255093	-0.834675
H136	H	0.826665	0.155090	-0.984117
H137	H	0.870834	-0.026585	-0.904136
H138	H	0.979962	-0.029376	-0.780043
H139	H	1.044924	0.149512	-0.735928
H140	H	1.000755	0.331187	-0.815909
H141	H	0.592268	0.384009	-0.384563
H142	H	0.720514	0.383990	-0.384543
H143	H	0.899632	0.905992	-0.628062
