data_functionalizedCrystal
_audit_creation_method	'MofGen! by Chris Wilmer'
_symmetry_space_group_name_H-M	'P1'
_symmetry_Int_Tables_number	1
_symmetry_cell_setting	triclinic
loop_
_symmetry_equiv_pos_as_xyz
  x,y,z
_cell_length_a	11.169417
_cell_length_b	16.120531
_cell_length_c	11.169409
_cell_angle_alpha	87.142764
_cell_angle_beta	89.980176
_cell_angle_gamma	87.066981
loop_
_atom_site_label
_atom_site_type_symbol
_atom_site_fract_x
_atom_site_fract_y
_atom_site_fract_z
Zn1	Zn	1.810559	0.331818	-0.702676
Zn2	Zn	1.800194	0.471261	-0.512135
Zn3	Zn	1.609842	0.331869	-0.502014
Zn4	Zn	1.599603	0.471193	-0.712775
O5	O	1.705049	0.401535	-0.607400
O6	O	1.977133	0.350323	-0.677410
O7	O	1.774890	0.452820	-0.342846
O8	O	1.645090	0.215197	-0.520171
O9	O	1.969518	0.452771	-0.537420
O10	O	1.792557	0.215160	-0.667596
O11	O	1.635039	0.350409	-0.335411
O12	O	1.440534	0.350344	-0.529963
O13	O	1.627640	0.452655	-0.879381
O14	O	1.433012	0.452705	-0.684808
O15	O	1.782629	0.350257	-0.871962
O16	O	1.764962	0.587917	-0.547212
O17	O	1.617588	0.587867	-0.694621
C18	C	1.393226	0.401523	-0.607384
C19	C	1.259824	0.401538	-0.607407
C20	C	1.689072	0.618142	-0.623137
C21	C	1.682346	0.710808	-0.629909
C22	C	1.670074	0.880468	-0.642299
C23	C	1.740069	0.921762	-0.572433
C24	C	1.733241	1.016167	-0.579327
C25	C	1.676901	0.786055	-0.635407
C26	C	2.018091	0.401549	-0.607417
C27	C	2.151490	0.401554	-0.607424
C28	C	1.705148	0.401443	-0.920436
C29	C	1.705190	0.401403	-1.053833
C30	C	1.721079	1.184083	-0.591606
C31	C	1.727801	1.091418	-0.584819
C32	C	1.705024	0.401568	-0.295578
C33	C	1.705232	0.401372	-0.162164
H34	H	1.805121	0.886215	-0.507442
H35	H	1.605026	0.916013	-0.707283
