data_functionalizedCrystal
_audit_creation_method	'MofGen! by Chris Wilmer'
_symmetry_space_group_name_H-M	'P1'
_symmetry_Int_Tables_number	1
_symmetry_cell_setting	triclinic
loop_
_symmetry_equiv_pos_as_xyz
  x,y,z
_cell_length_a	15.297327
_cell_length_b	12.827893
_cell_length_c	12.827885
_cell_angle_alpha	90.021189
_cell_angle_beta	99.642748
_cell_angle_gamma	80.295064
loop_
_atom_site_label
_atom_site_type_symbol
_atom_site_fract_x
_atom_site_fract_y
_atom_site_fract_z
Zn1	Zn	-0.359162	-1.525595	-0.662829
Zn2	Zn	-0.510046	-1.495209	-0.518308
Zn3	Zn	-0.359201	-1.350828	-0.488105
Zn4	Zn	-0.509974	-1.320556	-0.692988
O5	O	-0.434596	-1.423047	-0.590558
O6	O	-0.379191	-1.667797	-0.643676
O7	O	-0.490083	-1.476008	-0.368075
O8	O	-0.232951	-1.399396	-0.486021
O9	O	-0.490045	-1.645473	-0.537497
O10	O	-0.232923	-1.527797	-0.614390
O11	O	-0.379258	-1.369932	-0.345885
O12	O	-0.379187	-1.200579	-0.515265
O13	O	-0.489922	-1.347803	-0.835214
O14	O	-0.489960	-1.178339	-0.665792
O15	O	-0.379121	-1.498444	-0.813057
O16	O	-0.636281	-1.446655	-0.566742
O17	O	-0.636228	-1.318339	-0.695078
C18	C	-0.434571	-1.151542	-0.590525
C19	C	-0.434581	-1.035387	-0.590539
C20	C	-0.489350	-0.972573	-0.537896
C21	C	-0.489362	-0.852520	-0.537910
C22	C	-0.668989	-1.375944	-0.637483
C23	C	-0.769263	-1.355888	-0.657593
C24	C	-1.051904	-1.566817	-0.447187
C25	C	-0.957691	-1.585659	-0.428287
C26	C	-0.910580	-1.528219	-0.485612
C27	C	-0.957690	-1.451931	-0.561839
C28	C	-1.051911	-1.433081	-0.580735
C29	C	-0.910587	-1.394483	-0.619160
C30	C	-0.957697	-1.318195	-0.695388
C31	C	-1.051909	-1.299349	-0.714280
C32	C	-1.099021	-1.356790	-0.656955
C33	C	-0.816365	-1.413333	-0.600265
C34	C	-0.816373	-1.279597	-0.733813
C35	C	-0.910585	-1.260755	-0.752712
C36	C	-0.199288	-1.470363	-0.543472
C37	C	-0.099014	-1.490526	-0.523407
C38	C	-0.434509	-1.423136	-0.863111
C39	C	-0.434472	-1.423174	-0.979256
C40	C	-0.434615	-0.695613	-0.590582
C41	C	-0.434604	-0.811769	-0.590567
C42	C	-0.379622	-1.370707	-1.020059
C43	C	-0.379582	-1.370745	-1.140101
C44	C	-0.434617	-1.423031	-0.319052
C45	C	-0.434400	-1.423246	-0.202856
H46	H	-0.536249	-0.798544	-0.492837
H47	H	-0.481404	-1.468120	-1.033195
H48	H	-0.387705	-1.000285	-0.635624
H49	H	-0.778015	-1.232822	-0.780490
O50	O	-0.323472	-1.317137	-1.181824
C51	C	-0.272529	-1.268290	-1.100163
H52	H	-0.269374	-1.311637	-1.021705
H53	H	-0.201462	-1.271468	-1.117557
H54	H	-0.305554	-1.182270	-1.095194
H55	H	-0.387708	-0.865739	-0.635634
H56	H	-0.778017	-1.475446	-0.538200
H57	H	-0.833868	-1.543564	-0.470219
O58	O	-0.490555	-1.476762	-1.161101
C59	C	-0.580480	-1.435851	-1.205667
H60	H	-0.582381	-1.395389	-1.285318
H61	H	-0.620944	-1.503136	-1.217396
H62	H	-0.610830	-1.375948	-1.150328
O63	O	-0.912071	-1.659835	-0.354248
C64	C	-0.973853	-1.706477	-0.307688
H65	H	-1.040984	-1.696641	-0.363956
H66	H	-0.946583	-1.794275	-0.291150
H67	H	-0.983949	-1.666235	-0.230309
H68	H	-1.090271	-1.613570	-0.400515
H69	H	-0.536232	-1.007673	-0.492819
O70	O	-0.323660	-1.317175	-0.955564
C71	C	-0.336169	-1.329039	-0.850068
H72	H	-0.365740	-1.403749	-0.841193
H73	H	-0.268640	-1.335557	-0.794997
H74	H	-0.384239	-1.257407	-0.828705
O75	O	-1.190542	-1.338682	-0.675316
C76	C	-1.221924	-1.432541	-0.708565
H77	H	-1.167593	-1.503605	-0.679873
H78	H	-1.284971	-1.438539	-0.674089
H79	H	-1.238584	-1.431376	-0.798617
H80	H	-1.090264	-1.237219	-0.776337
H81	H	-0.948955	-1.198640	-0.814777
