data_functionalizedCrystal
_audit_creation_method	'MofGen! by Chris Wilmer'
_symmetry_space_group_name_H-M	'P1'
_symmetry_Int_Tables_number	1
_symmetry_cell_setting	triclinic
loop_
_symmetry_equiv_pos_as_xyz
  x,y,z
_cell_length_a	14.519731
_cell_length_b	14.519709
_cell_length_c	9.130313
_cell_angle_alpha	89.997798
_cell_angle_beta	89.999669
_cell_angle_gamma	83.684499
loop_
_atom_site_label
_atom_site_type_symbol
_atom_site_fract_x
_atom_site_fract_y
_atom_site_fract_z
O1	O	1.223850	0.120981	-0.121806
O2	O	1.723850	0.620981	0.378194
O3	O	0.955376	0.135197	-0.121808
O4	O	1.455376	0.635197	0.378192
O5	O	1.096731	-0.006149	-0.121794
O6	O	1.596731	0.493851	0.378206
O7	O	1.082495	0.262327	-0.121820
O8	O	1.582495	0.762327	0.378180
O9	O	1.096729	-0.006145	0.121805
O10	O	1.596729	0.493855	0.621805
O11	O	0.955374	0.135201	0.121791
O12	O	1.455374	0.635201	0.621791
O13	O	1.223848	0.120984	0.121793
O14	O	1.723848	0.620984	0.621793
Cu15	Cu	1.089611	0.128093	0.144034
Cu16	Cu	1.589611	0.628093	0.644034
Cu17	Cu	1.089613	0.128088	-0.144050
Cu18	Cu	1.589613	0.628088	0.355950
O19	O	1.082493	0.262330	0.121779
O20	O	1.582493	0.762330	0.621779
C21	C	0.921016	0.134532	-0.000009
C22	C	1.421016	0.634532	0.499991
C23	C	0.818635	0.132536	-0.000010
C24	C	1.318635	0.632536	0.499990
C25	C	0.735491	0.130915	-0.000015
C26	C	1.235491	0.630915	0.499985
C27	C	0.631182	0.128888	-0.000016
C28	C	1.131182	0.628888	0.499984
C29	C	0.548043	0.127280	-0.000016
C30	C	1.048043	0.627280	0.499984
C31	C	0.443728	0.125253	-0.000019
C32	C	0.943728	0.625253	0.499981
C33	C	1.096067	-0.040507	0.000006
C34	C	1.596067	0.459493	0.500006
C35	C	1.094079	-0.142889	0.000007
C36	C	1.594079	0.357111	0.500007
C37	C	1.086759	-0.517785	-0.000031
C38	C	1.586759	-0.017785	0.499969
C39	C	1.088792	-0.413477	-0.000020
C40	C	1.588792	0.086523	0.499980
C41	C	1.090419	-0.330340	-0.000011
C42	C	1.590419	0.169660	0.499989
C43	C	1.092452	-0.226025	-0.000003
C44	C	1.592452	0.273975	0.499997
C45	C	1.258209	0.121649	-0.000009
C46	C	1.758209	0.621649	0.499991
C47	C	1.360589	0.123645	-0.000018
C48	C	1.860589	0.623645	0.499982
C49	C	1.083157	0.296688	-0.000024
C50	C	1.583157	0.796688	0.499976
C51	C	1.085146	0.399070	-0.000035
C52	C	1.585146	0.899070	0.499965
N53	N	1.089616	0.128095	0.346657
N54	N	1.589616	0.628095	0.846657
N55	N	1.089615	0.128078	-0.346672
N56	N	1.589615	0.628078	0.153328
C57	C	1.152224	0.065529	0.423315
C58	C	1.652224	0.565529	0.923315
C59	C	1.152222	0.065518	0.576652
C60	C	1.652222	0.565518	1.076652
C61	C	1.027000	0.190648	0.576659
C62	C	1.527000	0.690648	1.076659
C63	C	1.026999	0.190654	0.423325
C64	C	1.526999	0.690654	0.923325
C65	C	1.214842	0.002970	0.346648
C66	C	1.714842	0.502970	0.846648
C67	C	1.277456	-0.059601	0.423306
C68	C	1.777456	0.440399	0.923306
C69	C	1.277453	-0.059612	0.576643
C70	C	1.777453	0.440388	1.076643
C71	C	1.214837	0.002948	0.653321
C72	C	1.714837	0.502948	1.153321
H73	H	1.214851	0.002975	0.221793
H74	H	1.714851	0.502975	0.721793
O75	O	1.344968	-0.127097	0.340617
O76	O	1.844968	0.372903	0.840617
H77	H	1.334452	-0.116582	0.221115
H78	H	1.834452	0.383418	0.721115
H79	H	1.328429	-0.110566	0.639057
H80	H	1.828429	0.389434	1.139057
O81	O	1.214831	0.002941	0.818708
O82	O	1.714831	0.502941	1.318708
H83	H	1.268889	-0.051074	0.859136
H84	H	1.768889	0.448926	1.359136
O85	O	0.959477	0.258131	0.659351
O86	O	1.459477	0.758131	1.159351
H87	H	0.970004	0.247623	0.778853
H88	H	1.470004	0.747623	1.278853
O89	O	0.959479	0.258140	0.340626
O90	O	1.459479	0.758140	0.840626
H91	H	0.915949	0.301650	0.419695
H92	H	1.415949	0.801650	0.919695
