data_functionalizedCrystal
_audit_creation_method	'MofGen! by Chris Wilmer'
_symmetry_space_group_name_H-M	'P1'
_symmetry_Int_Tables_number	1
_symmetry_cell_setting	triclinic
loop_
_symmetry_equiv_pos_as_xyz
  x,y,z
_cell_length_a	15.944499
_cell_length_b	15.944493
_cell_length_c	10.268362
_cell_angle_alpha	90.000590
_cell_angle_beta	89.992825
_cell_angle_gamma	83.476327
loop_
_atom_site_label
_atom_site_type_symbol
_atom_site_fract_x
_atom_site_fract_y
_atom_site_fract_z
O1	O	1.114529	0.108129	-0.108361
O2	O	0.869970	0.121531	-0.108344
O3	O	0.998953	-0.007450	-0.108364
O4	O	0.985546	0.237109	-0.108341
O5	O	0.998942	-0.007455	0.108237
O6	O	0.869959	0.121526	0.108256
O7	O	1.114518	0.108124	0.108240
Cu8	Cu	0.992237	0.114824	0.128025
Cu9	Cu	0.992251	0.114830	-0.128130
O10	O	0.985535	0.237104	0.108259
C11	C	0.838670	0.120979	-0.000042
C12	C	0.745422	0.119334	-0.000037
C13	C	0.453871	0.194269	-0.000049
C14	C	0.514913	0.155319	-0.106851
C15	C	0.409787	0.113358	-0.000068
C16	C	0.514888	0.155292	0.106701
C17	C	0.574695	0.116299	-0.000050
C18	C	0.469602	0.074386	-0.106957
C19	C	0.469570	0.074370	0.106690
C20	C	0.530595	0.035361	-0.000137
C21	C	0.314787	0.111666	-0.000079
C22	C	0.669694	0.117984	-0.000049
C23	C	0.998400	-0.038747	-0.000069
C24	C	0.996757	-0.131995	-0.000086
C25	C	1.072679	-0.367769	-0.000066
C26	C	1.031743	-0.418327	-0.106858
C27	C	0.993713	-0.302716	-0.000070
C28	C	1.031713	-0.418308	0.106693
C29	C	0.990778	-0.467625	-0.000048
C30	C	0.952797	-0.352045	-0.106950
C31	C	0.952780	-0.352023	0.106698
C32	C	0.911785	-0.402548	-0.000120
C33	C	0.995405	-0.207716	-0.000083
C34	C	0.989079	-0.562622	-0.000044
C35	C	1.145818	0.108675	-0.000065
C36	C	1.239066	0.110320	-0.000079
C37	C	0.986088	0.268401	-0.000039
C38	C	0.987731	0.361650	-0.000031
N39	N	0.992234	0.114819	0.308191
N40	N	0.992260	0.114829	-0.308296
C41	C	0.992246	0.114829	0.573862
C42	C	0.992237	0.114826	0.426024
H43	H	0.535009	0.189546	-0.197131
H44	H	0.563787	-0.031847	-0.000200
C45	C	1.076371	-0.456911	-0.227136
C46	C	1.160534	-0.439660	-0.226640
C47	C	1.201679	-0.475197	-0.337404
H48	H	1.048987	-0.433372	-0.303069
H49	H	1.074588	-0.516266	-0.226663
H50	H	1.162313	-0.380316	-0.227126
H51	H	1.187941	-0.463199	-0.150733
H52	H	1.199896	-0.534552	-0.336931
H53	H	1.174288	-0.451655	-0.413328
H54	H	1.258790	-0.463504	-0.337076
H55	H	1.065074	-0.447248	0.196972
H56	H	0.449635	0.040198	-0.197351
H57	H	0.449456	0.040174	0.196979
C58	C	0.541509	0.201065	0.227050
C59	C	0.502270	0.284206	0.226556
C60	C	0.526759	0.326400	0.337402
H61	H	0.601038	0.201447	0.226717
H62	H	0.525192	0.172911	0.302920
H63	H	0.518591	0.312353	0.150706
H64	H	0.442740	0.283849	0.226909
H65	H	0.510443	0.298246	0.413271
H66	H	0.586289	0.326776	0.337059
H67	H	0.500134	0.382813	0.337087
C68	C	1.163308	-0.346748	-0.000124
C69	C	1.163678	-0.258981	0.001059
C70	C	1.247144	-0.239575	0.001025
H71	H	1.191343	-0.369481	-0.076060
H72	H	1.191638	-0.370376	0.075010
H73	H	1.135360	-0.235362	-0.074067
H74	H	1.135660	-0.236228	0.076990
H75	H	1.275474	-0.263204	0.076158
H76	H	1.275172	-0.262313	-0.074913
H77	H	1.247406	-0.180025	0.001839
C78	C	0.908450	-0.313462	-0.227435
C79	C	0.910587	-0.225922	-0.226088
C80	C	0.869760	-0.190352	-0.337069
H81	H	0.851448	-0.325474	-0.227866
H82	H	0.936321	-0.336695	-0.303209
H83	H	0.882714	-0.202697	-0.150334
H84	H	0.967578	-0.213886	-0.225676
H85	H	0.897632	-0.213585	-0.412842
H86	H	0.812761	-0.202370	-0.337490
H87	H	0.871212	-0.130954	-0.336175
H88	H	0.843713	-0.418002	-0.000174
H89	H	0.919455	-0.323059	0.196991
H90	H	0.420527	0.261416	-0.000146
