data_functionalizedCrystal
_audit_creation_method	'MofGen! by Chris Wilmer'
_symmetry_space_group_name_H-M	'P1'
_symmetry_Int_Tables_number	1
_symmetry_cell_setting	triclinic
loop_
_symmetry_equiv_pos_as_xyz
  x,y,z
_cell_length_a	33.592126
_cell_length_b	33.591377
_cell_length_c	33.588093
_cell_angle_alpha	60.004089
_cell_angle_beta	60.008299
_cell_angle_gamma	59.994549
loop_
_atom_site_label
_atom_site_type_symbol
_atom_site_fract_x
_atom_site_fract_y
_atom_site_fract_z
O1	O	0.055297	-0.581666	0.486338
O2	O	0.020882	-0.452873	0.391864
O3	O	0.102445	-0.534352	0.391775
O4	O	-0.026266	-0.500187	0.486427
O5	O	0.129510	-0.507292	0.418747
O6	O	0.047947	-0.425814	0.418835
O7	O	0.082362	-0.554606	0.513309
Cu8	Cu	0.067626	-0.487739	0.468535
Cu9	Cu	0.035618	-0.519740	0.436638
O10	O	0.000799	-0.473128	0.513398
N11	N	0.090139	-0.465235	0.490972
N12	N	0.013110	-0.542249	0.414202
C13	C	0.124394	-0.431229	0.734914
C14	C	0.334265	-0.431145	0.524799
C15	C	0.124204	-0.431200	0.524965
C16	C	0.124184	-0.221175	0.524955
C17	C	0.158017	-0.322536	0.558710
C18	C	0.158027	-0.397406	0.558711
C19	C	0.176763	-0.378688	0.577408
C20	C	0.258412	-0.364594	0.534386
C21	C	0.309454	-0.381596	0.517340
C22	C	0.309485	-0.464188	0.548836
C23	C	0.258444	-0.447186	0.565883
C24	C	0.170304	-0.297002	0.508532
C25	C	0.153260	-0.245956	0.491537
C26	C	0.111648	-0.245983	0.574901
C27	C	0.128691	-0.297029	0.591896
C28	C	0.107841	-0.385091	0.571080
C29	C	0.090813	-0.402108	0.554078
C30	C	0.174153	-0.443755	0.512351
C31	C	0.191183	-0.426739	0.529347
C32	C	0.107923	-0.385106	0.659111
C33	C	0.090955	-0.402138	0.710156
C34	C	0.174335	-0.443795	0.710087
C35	C	0.191302	-0.426764	0.659041
C36	C	0.158095	-0.397418	0.633555
C37	C	0.232909	-0.397388	0.558656
C38	C	0.105069	-0.449619	0.791057
C39	C	0.390406	-0.449193	0.505789
C40	C	0.104813	-0.449599	0.506607
C41	C	0.105125	-0.165028	0.506915
C42	C	-0.020560	-0.576246	0.169890
C43	C	-0.020889	-0.786183	0.379970
C44	C	-0.020859	-0.576235	0.380063
C45	C	-0.230772	-0.576015	0.379658
C46	C	-0.129417	-0.609898	0.346025
C47	C	-0.054587	-0.609979	0.346172
C48	C	-0.073269	-0.628671	0.327396
C49	C	-0.087401	-0.710299	0.370335
C50	C	-0.070424	-0.761345	0.387369
C51	C	0.012165	-0.761428	0.356003
C52	C	-0.004813	-0.710383	0.338967
C53	C	-0.155001	-0.622196	0.396191
C54	C	-0.206043	-0.605128	0.413125
C55	C	-0.205914	-0.563467	0.329724
C56	C	-0.154872	-0.580535	0.312790
C57	C	-0.066886	-0.559797	0.333828
C58	C	-0.049903	-0.542809	0.350903
C59	C	-0.008321	-0.626180	0.392654
C60	C	-0.025304	-0.643170	0.375585
C61	C	-0.066758	-0.559805	0.245702
C62	C	-0.049671	-0.542819	0.194658
C63	C	-0.008026	-0.626194	0.194706
C64	C	-0.025111	-0.643179	0.245752
C65	C	-0.054479	-0.609983	0.271248
C66	C	-0.054597	-0.684821	0.346135
C67	C	-0.002109	-0.556901	0.113746
C68	C	-0.002869	-0.842328	0.398966
C69	C	-0.002496	-0.556887	0.398501
C70	C	-0.286914	-0.556929	0.397631
N71	N	0.436349	-0.465146	0.490703
O72	O	0.592194	-0.469605	0.374236
O73	O	0.592389	-0.564393	0.502890
O74	O	0.592305	-0.564176	0.421300
O75	O	0.592277	-0.469822	0.455826
O76	O	0.511216	-0.537214	0.448415
O77	O	0.511300	-0.537431	0.530004
O78	O	0.511104	-0.442643	0.401350
Cu79	Cu	0.503798	-0.487575	0.468153
Cu80	Cu	0.599695	-0.519461	0.436087
O81	O	0.511188	-0.442860	0.482940
N82	N	0.667145	-0.541890	0.413532
N83	N	0.090108	-0.119085	0.490958
O84	O	-0.026275	0.036848	0.486394
O85	O	0.102381	0.036888	0.391584
O86	O	0.020751	0.036852	0.391854
O87	O	0.055356	0.036884	0.486124
O88	O	0.047821	-0.044242	0.418876
O89	O	0.129452	-0.044207	0.418606
O90	O	0.000796	-0.044246	0.513417
Cu91	Cu	0.067596	-0.051631	0.468479
Cu92	Cu	0.035582	0.044273	0.436522
O93	O	0.082426	-0.044211	0.513146
N94	N	0.013063	0.111726	0.414043
N95	N	0.090453	-0.465282	0.837001
O96	O	0.085913	-0.581648	0.992925
O97	O	-0.008857	-0.452947	0.992970
O98	O	-0.008635	-0.534562	0.992946
O99	O	0.085691	-0.500033	0.992949
O100	O	0.018365	-0.507512	0.911855
O101	O	0.018143	-0.425898	0.911878
O102	O	0.112912	-0.554598	0.911834
Cu103	Cu	0.067993	-0.487778	0.904452
Cu104	Cu	0.036063	-0.519767	1.000352
O105	O	0.112691	-0.472984	0.911857
N106	N	0.013602	-0.542269	1.067803
C107	C	0.031188	-0.423114	0.392334
C108	C	0.132194	-0.524016	0.392223
C109	C	0.072056	-0.584366	0.512840
C110	C	-0.028950	-0.483464	0.512950
C111	C	0.551868	-0.563965	0.532655
C112	C	0.551766	-0.563697	0.431617
C113	C	0.551623	-0.443070	0.371586
C114	C	0.551728	-0.443339	0.472623
C115	C	0.132090	-0.003555	0.392006
C116	C	0.031035	-0.003698	0.392374
C117	C	-0.028947	-0.003703	0.512961
C118	C	0.072143	-0.003661	0.512626
C119	C	-0.008408	-0.423209	0.952430
C120	C	-0.008128	-0.524272	0.952385
C121	C	0.112464	-0.584336	0.952374
C122	C	0.112190	-0.483267	0.952401
H123	H	0.050098	-0.392105	0.730957
C124	C	0.263513	-0.284665	0.501541
C125	C	0.230346	-0.309856	0.526443
H126	H	0.246185	-0.250872	0.496640
H127	H	0.283399	-0.289395	0.470871
H128	H	0.283445	-0.296639	0.520227
H129	H	0.210416	-0.297884	0.507755
H130	H	0.210452	-0.305123	0.557117
H131	H	0.169160	-0.531297	0.362501
H132	H	0.142219	-0.621297	0.952354
C133	C	0.093354	-0.670833	0.536350
C134	C	0.081977	-0.634310	0.552899
H135	H	0.099476	-0.701666	0.561083
H136	H	0.121544	-0.670691	0.507994
H137	H	0.066755	-0.664914	0.528758
H138	H	0.108578	-0.640227	0.560488
H139	H	0.053784	-0.634453	0.581264
C140	C	-0.072494	-0.045400	0.593976
C141	C	-0.078826	-0.003715	0.553140
H142	H	-0.103289	-0.045407	0.618778
H143	H	-0.052000	-0.045386	0.605731
H144	H	-0.057907	-0.073678	0.585113
H145	H	-0.093411	0.024563	0.562002
H146	H	-0.099329	-0.003725	0.541383
H147	H	-0.037749	-0.531650	0.952352
H148	H	-0.097137	-0.782089	0.407066
C149	C	-0.109010	-0.426073	0.535653
C150	C	-0.078852	-0.473640	0.553077
H151	H	-0.139816	-0.420007	0.560428
H152	H	-0.113277	-0.422411	0.507959
H153	H	-0.094391	-0.403539	0.526762
H154	H	-0.093469	-0.496174	0.561965
H155	H	-0.074586	-0.477306	0.580779
C156	C	0.551961	-0.586774	0.612721
C157	C	0.551942	-0.604140	0.582535
H158	H	0.552010	-0.611578	0.643513
H159	H	0.523668	-0.559085	0.617018
H160	H	0.580223	-0.577889	0.598107
H161	H	0.523678	-0.613021	0.597147
H162	H	0.580238	-0.631837	0.578240
H163	H	0.141823	-0.475877	0.952395
C164	C	0.551716	-0.586140	0.374076
C165	C	0.551779	-0.603713	0.421648
H166	H	0.551721	-0.610844	0.367924
H167	H	0.579968	-0.577237	0.351566
H168	H	0.523412	-0.558426	0.370477
H169	H	0.580085	-0.631425	0.425246
H170	H	0.523524	-0.612623	0.444164
H171	H	0.080878	-0.361206	0.638363
H172	H	0.551560	-0.413310	0.334638
H173	H	0.079554	-0.003651	0.542242
C174	C	0.551774	-0.420895	0.530165
C175	C	0.551713	-0.403323	0.482592
H176	H	0.551761	-0.396189	0.536320
H177	H	0.580075	-0.448604	0.533765
H178	H	0.523520	-0.429802	0.552676
H179	H	0.579969	-0.394419	0.460081
H180	H	0.523409	-0.375605	0.478989
H181	H	0.201378	-0.467681	0.730833
C182	C	-0.031218	-0.343119	0.952457
C183	C	-0.048576	-0.373313	0.952449
H184	H	-0.056018	-0.312317	0.952472
H185	H	-0.003523	-0.338845	0.924177
H186	H	-0.022348	-0.357716	0.980734
H187	H	-0.057443	-0.358718	0.924170
H188	H	-0.076280	-0.377585	0.980732
H189	H	0.168963	-0.003318	0.362168
C190	C	-0.026543	-0.003754	0.369991
C191	C	0.021040	-0.003728	0.352396
H192	H	-0.032709	-0.003781	0.345312
H193	H	-0.049035	0.024527	0.378860
H194	H	-0.030151	-0.032032	0.397730
H195	H	0.024647	0.024552	0.324659
H196	H	0.043539	-0.032012	0.343520
H197	H	0.080840	-0.361208	0.594989
C198	C	0.272016	-0.469650	0.664103
C199	C	0.246456	-0.440300	0.630951
H200	H	0.306065	-0.478003	0.646761
H201	H	0.263667	-0.498515	0.684012
H202	H	0.263657	-0.452332	0.684013
H203	H	0.254812	-0.457620	0.611043
H204	H	0.254809	-0.411431	0.611033
H205	H	0.201155	-0.467643	0.488446
C206	C	0.010140	-0.359245	0.597046
C207	C	0.035648	-0.388579	0.567676
H208	H	-0.023916	-0.350897	0.605444
H209	H	0.018484	-0.330376	0.579727
H210	H	0.018548	-0.376572	0.625888
H211	H	0.027243	-0.371251	0.538832
H212	H	0.027300	-0.417452	0.584995
H213	H	0.237680	-0.473893	0.585645
C214	C	0.267419	-0.422926	0.464979
C215	C	0.246347	-0.440258	0.515749
H216	H	0.301474	-0.431270	0.456583
H217	H	0.253051	-0.388491	0.453265
H218	H	0.262029	-0.437269	0.450657
H219	H	0.251734	-0.425912	0.530070
H220	H	0.260719	-0.474699	0.527467
C221	C	0.304393	-0.544123	0.581676
C222	C	0.337557	-0.518927	0.556773
H223	H	0.321724	-0.577916	0.586578
H224	H	0.284463	-0.532152	0.562994
H225	H	0.284506	-0.539393	0.612350
H226	H	0.357442	-0.523654	0.526098
H227	H	0.357496	-0.530902	0.575455
H228	H	0.330218	-0.354891	0.497577
H229	H	0.194180	-0.317769	0.481510
C230	C	0.196103	-0.251053	0.410839
C231	C	0.166763	-0.217885	0.436377
H232	H	0.204442	-0.233722	0.376786
H233	H	0.178792	-0.270968	0.419218
H234	H	0.224980	-0.270958	0.419187
H235	H	0.137885	-0.197982	0.428032
H236	H	0.184075	-0.197961	0.427994
H237	H	0.118680	-0.317820	0.632757
C238	C	0.104983	-0.230267	0.640689
C239	C	0.079415	-0.217939	0.611374
H240	H	0.085081	-0.212955	0.663207
H241	H	0.133826	-0.221886	0.620755
H242	H	0.113373	-0.264323	0.657994
H243	H	0.071028	-0.183884	0.594067
H244	H	0.050563	-0.226317	0.631311
C245	C	-0.092566	-0.462112	0.199745
C246	C	-0.063180	-0.487658	0.166583
H247	H	-0.100908	-0.428059	0.182411
H248	H	-0.075286	-0.470491	0.219697
H249	H	-0.121439	-0.470456	0.219612
H250	H	-0.034305	-0.479316	0.146719
H251	H	-0.080460	-0.479275	0.146623
H252	H	-0.090673	-0.532769	0.266460
H253	H	0.015877	-0.653227	0.173952
H254	H	-0.090726	-0.532768	0.309877
C255	C	0.017763	-0.723886	0.240670
C256	C	-0.011615	-0.698339	0.273831
H257	H	0.026091	-0.757939	0.258005
H258	H	0.046639	-0.715554	0.220808
H259	H	0.000479	-0.715496	0.220713
H260	H	0.005670	-0.706727	0.293785
H261	H	-0.040496	-0.706675	0.293701
C262	C	-0.263229	-0.486080	0.300394
C263	C	-0.233896	-0.531193	0.293193
H264	H	-0.280504	-0.466156	0.277841
H265	H	-0.243311	-0.470528	0.295526
H266	H	-0.285771	-0.490961	0.332696
H267	H	-0.211351	-0.526312	0.260891
H268	H	-0.253816	-0.546748	0.298056
C269	C	-0.092683	-0.462102	0.307890
C270	C	-0.063403	-0.487649	0.337322
H271	H	-0.101010	-0.428049	0.299500
H272	H	-0.121562	-0.470420	0.325161
H273	H	-0.075328	-0.470506	0.279046
H274	H	-0.080760	-0.479248	0.366168
H275	H	-0.034519	-0.479327	0.320051
H276	H	0.015526	-0.653210	0.416597
H277	H	-0.134277	-0.646110	0.423254
C278	C	-0.029154	-0.719449	0.439890
C279	C	-0.011785	-0.698327	0.389129
H280	H	-0.020804	-0.753499	0.448244
H281	H	-0.063589	-0.705083	0.451578
H282	H	-0.014842	-0.714095	0.454272
H283	H	-0.026100	-0.703678	0.374748
H284	H	0.022656	-0.712697	0.377436
C285	C	0.065739	-0.694748	0.270584
C286	C	0.031249	-0.682376	0.312367
H287	H	0.088004	-0.677460	0.254164
H288	H	0.049640	-0.686368	0.249542
H289	H	0.082971	-0.728809	0.279712
H290	H	0.014015	-0.648316	0.303239
H291	H	0.047350	-0.690752	0.333413
C292	C	0.084550	-0.818893	0.320563
C293	C	0.066888	-0.789533	0.348130
H294	H	0.118332	-0.836245	0.315705
H295	H	0.079863	-0.798982	0.289875
H296	H	0.067436	-0.841370	0.337418
H297	H	0.083999	-0.767054	0.331273
H298	H	0.071578	-0.809446	0.378823
H299	H	-0.226875	-0.615140	0.453976
C300	C	-0.157624	-0.694516	0.355390
C301	C	-0.142119	-0.682194	0.378193
H302	H	-0.191404	-0.677159	0.360234
H303	H	-0.152217	-0.728558	0.369007
H304	H	-0.139772	-0.686179	0.321461
H305	H	-0.159969	-0.690534	0.412123
H306	H	-0.147531	-0.648145	0.364578
C307	C	-0.139045	-0.584313	0.236472
C308	C	-0.126743	-0.567023	0.257644
H309	H	-0.121677	-0.575974	0.202428
H310	H	-0.173082	-0.569943	0.241797
H311	H	-0.130711	-0.618751	0.250826
H312	H	-0.135080	-0.532585	0.243292
H313	H	-0.092699	-0.581392	0.252315
C314	C	-0.026314	-0.343085	0.369781
C315	C	0.021263	-0.373172	0.352272
H316	H	-0.032441	-0.312254	0.345047
H317	H	-0.029945	-0.338858	0.397484
H318	H	-0.048821	-0.357736	0.378679
H319	H	0.043771	-0.358522	0.343378
H320	H	0.024899	-0.377397	0.324561
