data_functionalizedCrystal
_audit_creation_method	'MofGen! by Chris Wilmer'
_symmetry_space_group_name_H-M	'P1'
_symmetry_Int_Tables_number	1
_symmetry_cell_setting	triclinic
loop_
_symmetry_equiv_pos_as_xyz
  x,y,z
_cell_length_a	18.215407
_cell_length_b	21.295417
_cell_length_c	18.215399
_cell_angle_alpha	89.967848
_cell_angle_beta	89.980167
_cell_angle_gamma	90.030955
loop_
_atom_site_label
_atom_site_type_symbol
_atom_site_fract_x
_atom_site_fract_y
_atom_site_fract_z
Zn1	Zn	1.125043	-0.250608	-0.416094
Zn2	Zn	1.458377	0.082725	-0.082761
Zn3	Zn	1.791710	0.416059	0.250572
Zn4	Zn	1.124940	-0.355879	-0.293019
Zn5	Zn	1.458273	-0.022546	0.040314
Zn6	Zn	1.791606	0.310787	0.373648
Zn7	Zn	1.001976	-0.250629	-0.293042
Zn8	Zn	1.335309	0.082705	0.040292
Zn9	Zn	1.668642	0.416038	0.373625
Zn10	Zn	1.001930	-0.355844	-0.416044
Zn11	Zn	1.335263	-0.022511	-0.082711
Zn12	Zn	1.668596	0.310822	0.250623
O13	O	1.063472	-0.303240	-0.354550
O14	O	1.396805	0.030093	-0.021216
O15	O	1.730139	0.363427	0.312117
O16	O	1.228014	-0.264579	-0.399780
O17	O	1.561347	0.068755	-0.066446
O18	O	1.894680	0.402088	0.266887
O19	O	1.108604	-0.341941	-0.190038
O20	O	1.441937	-0.008608	0.143296
O21	O	1.775271	0.324726	0.476629
O22	O	1.018364	-0.162537	-0.309396
O23	O	1.351697	0.170797	0.023938
O24	O	1.685030	0.504130	0.357271
O25	O	1.227938	-0.341921	-0.309357
O26	O	1.561271	-0.008588	0.023976
O27	O	1.894604	0.324746	0.357310
O28	O	1.108781	-0.162521	-0.399802
O29	O	1.442114	0.170812	-0.066468
O30	O	1.775447	0.504145	0.266865
O31	O	1.018263	-0.264614	-0.190054
O32	O	1.351596	0.068720	0.143279
O33	O	1.684930	0.402053	0.476612
O34	O	0.898985	-0.264580	-0.309347
O35	O	1.232319	0.068754	0.023987
O36	O	1.565652	0.402087	0.357320
O37	O	1.018285	-0.341861	-0.519035
O38	O	1.351618	-0.008528	-0.185702
O39	O	1.684952	0.324805	0.147632
O40	O	0.898951	-0.341881	-0.399716
O41	O	1.232285	-0.008548	-0.066383
O42	O	1.565618	0.324786	0.266951
O43	O	1.108736	-0.264545	-0.519072
O44	O	1.442069	0.068789	-0.185739
O45	O	1.775403	0.402122	0.147595
O46	O	1.108559	-0.443964	-0.309308
O47	O	1.441893	-0.110631	0.024025
O48	O	1.775226	0.222703	0.357359
O49	O	1.018184	-0.443938	-0.399694
O50	O	1.351518	-0.110605	-0.066361
O51	O	1.684851	0.222728	0.266973
C52	C	0.872266	-0.303229	-0.354529
C53	C	1.205599	0.030104	-0.021195
C54	C	1.538932	0.363437	0.312138
C55	C	0.790467	-0.303240	-0.354537
C56	C	1.123800	0.030093	-0.021204
C57	C	1.457134	0.363427	0.312130
C58	C	1.063376	-0.466792	-0.354509
C59	C	1.396709	-0.133458	-0.021176
C60	C	1.730042	0.199875	0.312158
C61	C	1.063402	-0.536760	-0.354516
C62	C	1.396735	-0.203427	-0.021183
C63	C	1.730068	0.129907	0.312150
C64	C	0.602275	-0.343554	-0.401533
C65	C	0.935608	-0.010221	-0.068200
C66	C	1.268941	0.323113	0.265133
C67	C	0.525416	-0.343556	-0.401542
C68	C	0.858749	-0.010223	-0.068209
C69	C	1.192082	0.323111	0.265124
C70	C	0.525422	-0.262938	-0.307582
C71	C	0.858755	0.070396	0.025751
C72	C	1.192088	0.403729	0.359084
C73	C	0.602279	-0.262933	-0.307577
C74	C	0.935612	0.070400	0.025756
C75	C	1.268946	0.403734	0.359089
C76	C	0.640703	-0.303245	-0.354552
C77	C	0.974037	0.030089	-0.021218
C78	C	1.307370	0.363422	0.312115
C79	C	0.486987	-0.303251	-0.354566
C80	C	0.820321	0.030082	-0.021233
C81	C	1.153654	0.363415	0.312101
C82	C	0.403654	-0.303253	-0.354575
C83	C	0.736987	0.030080	-0.021242
C84	C	1.070320	0.363413	0.312091
C85	C	0.724042	-0.303242	-0.354543
C86	C	1.057376	0.030091	-0.021210
C87	C	1.390709	0.363424	0.312123
C88	C	1.110502	-0.569619	-0.307500
C89	C	1.443835	-0.236286	0.025833
C90	C	1.777168	0.097048	0.359166
C91	C	1.110536	-0.635361	-0.307517
C92	C	1.443869	-0.302028	0.025816
C93	C	1.777203	0.031305	0.359150
C94	C	1.063457	-0.668242	-0.354542
C95	C	1.396791	-0.334909	-0.021208
C96	C	1.730124	-0.001576	0.312125
C97	C	1.016354	-0.635375	-0.401566
C98	C	1.349687	-0.302042	-0.068233
C99	C	1.683021	0.031291	0.265100
C100	C	1.016326	-0.569634	-0.401554
C101	C	1.349660	-0.236301	-0.068220
C102	C	1.682993	0.097033	0.265113
N103	N	0.999079	-0.771508	-0.360145
N104	N	1.332412	-0.438175	-0.026811
N105	N	1.665745	-0.104842	0.306522
N106	N	0.999107	-0.833960	-0.360153
N107	N	1.332441	-0.500627	-0.026819
N108	N	1.665774	-0.167293	0.306514
C109	C	1.063540	-0.866317	-0.354584
C110	C	1.396873	-0.532984	-0.021250
C111	C	1.730207	-0.199650	0.312083
N112	N	1.127944	-0.833863	-0.348993
N113	N	1.461277	-0.500530	-0.015659
N114	N	1.794611	-0.167197	0.317674
N115	N	1.127915	-0.771406	-0.348981
N116	N	1.461248	-0.438073	-0.015648
N117	N	1.794581	-0.104740	0.317686
C118	C	1.063483	-0.739528	-0.354561
C119	C	1.396816	-0.406194	-0.021228
C120	C	1.730149	-0.072861	0.312106
C121	C	1.110681	-0.970462	-0.307584
C122	C	1.444015	-0.637128	0.025750
C123	C	1.777348	-0.303795	0.359083
C124	C	1.110717	-1.036205	-0.307605
C125	C	1.444050	-0.702872	0.025728
C126	C	1.777384	-0.369539	0.359061
C127	C	1.016528	-1.036218	-0.401651
C128	C	1.349862	-0.702885	-0.068317
C129	C	1.683195	-0.369551	0.265016
C130	C	1.016499	-0.970475	-0.401633
C131	C	1.349833	-0.637142	-0.068300
C132	C	1.683166	-0.303809	0.265034
C133	C	1.063575	-0.937601	-0.354595
C134	C	1.396908	-0.604268	-0.021262
C135	C	1.730241	-0.270935	0.312071
C136	C	1.255425	-0.303251	-0.354571
C137	C	1.588758	0.030082	-0.021238
C138	C	1.922092	0.363415	0.312095
C139	C	1.337224	-0.303256	-0.354581
C140	C	1.670557	0.030077	-0.021247
C141	C	2.003890	0.363410	0.312086
C142	C	1.063517	-0.303197	-0.546503
C143	C	1.396850	0.030137	-0.213169
C144	C	1.730184	0.363470	0.120164
C145	C	1.063536	-0.303178	-0.628302
C146	C	1.396869	0.030155	-0.294968
C147	C	1.730203	0.363488	0.038365
C148	C	1.063589	-0.139050	-0.354607
C149	C	1.396922	0.194284	-0.021273
C150	C	1.730256	0.527617	0.312060
C151	C	1.063639	-0.069082	-0.354631
C152	C	1.396972	0.264252	-0.021298
C153	C	1.730305	0.597585	0.312036
C154	C	1.110651	-0.262882	-0.816516
C155	C	1.443984	0.070451	-0.483183
C156	C	1.777317	0.403785	-0.149850
C157	C	1.110660	-0.262863	-0.893375
C158	C	1.443993	0.070470	-0.560042
C159	C	1.777326	0.403803	-0.226708
C160	C	1.016473	-0.343377	-0.893325
C161	C	1.349807	-0.010044	-0.559992
C162	C	1.683140	0.323289	-0.226659
C163	C	1.016461	-0.343392	-0.816468
C164	C	1.349795	-0.010059	-0.483134
C165	C	1.683128	0.323275	-0.149801
C166	C	1.063554	-0.303145	-0.778065
C167	C	1.396888	0.030188	-0.444732
C168	C	1.730221	0.363521	-0.111399
C169	C	1.063575	-0.303112	-0.931781
C170	C	1.396908	0.030221	-0.598448
C171	C	1.730242	0.363555	-0.265115
C172	C	1.063584	-0.303093	-1.015115
C173	C	1.396917	0.030241	-0.681782
C174	C	1.730251	0.363574	-0.348449
C175	C	1.063544	-0.303164	-0.694726
C176	C	1.396878	0.030170	-0.361393
C177	C	1.730211	0.363503	-0.028060
C178	C	1.063470	-0.303238	-0.163344
C179	C	1.396803	0.030095	0.169990
C180	C	1.730136	0.363429	0.503323
C181	C	1.063593	-0.303079	-0.081545
C182	C	1.396927	0.030254	0.251788
C183	C	1.730260	0.363588	0.585122
H184	H	0.633557	-0.376377	-0.439785
H185	H	0.966891	-0.043044	-0.106451
H186	H	1.300224	0.290290	0.226882
H187	H	1.149015	-0.943694	-0.269285
H188	H	1.482349	-0.610361	0.064048
H189	H	1.815682	-0.277028	0.397382
C190	C	0.891724	-0.655686	-0.437308
C191	C	1.225058	-0.322352	-0.103974
C192	C	1.558391	0.010981	0.229359
C193	C	0.964603	-0.671513	-0.453258
C194	C	1.297937	-0.338180	-0.119925
C195	C	1.631270	-0.004846	0.213408
H196	H	0.859778	-0.677993	-0.469227
H197	H	1.193111	-0.344659	-0.135894
H198	H	1.526445	-0.011326	0.197439
H199	H	0.880990	-0.666502	-0.387860
H200	H	1.214323	-0.333168	-0.054527
H201	H	1.547656	0.000165	0.278807
H202	H	0.884978	-0.611828	-0.444031
H203	H	1.218311	-0.278495	-0.110697
H204	H	1.551644	0.054839	0.222636
H205	H	0.971351	-0.715370	-0.446530
H206	H	1.304685	-0.382037	-0.113196
H207	H	1.638018	-0.048704	0.220137
H208	H	0.975341	-0.660701	-0.502718
H209	H	1.308675	-0.327368	-0.169385
H210	H	1.642008	0.005965	0.163949
H211	H	1.148893	-0.662121	-0.269231
H212	H	1.482227	-0.328787	0.064102
H213	H	1.815560	0.004546	0.397435
H214	H	1.149076	-1.062958	-0.269321
H215	H	1.482409	-0.729625	0.064013
H216	H	1.815743	-0.396292	0.397346
C217	C	0.533135	-0.423248	-0.494408
C218	C	0.866469	-0.089915	-0.161075
C219	C	1.199802	0.243418	0.172258
C220	C	0.483175	-0.387868	-0.453183
C221	C	0.816508	-0.054535	-0.119850
C222	C	1.149842	0.278798	0.213484
H223	H	0.507056	-0.450608	-0.526287
H224	H	0.840389	-0.117274	-0.192954
H225	H	1.173723	0.216059	0.140379
H226	H	0.563138	-0.395851	-0.522614
H227	H	0.896472	-0.062518	-0.189281
H228	H	1.229805	0.270815	0.144053
H229	H	0.563086	-0.447288	-0.462281
H230	H	0.896419	-0.113955	-0.128947
H231	H	1.229753	0.219378	0.204386
H232	H	0.453228	-0.363824	-0.485311
H233	H	0.786561	-0.030491	-0.151977
H234	H	1.119894	0.302842	0.181356
H235	H	0.453159	-0.415268	-0.424975
H236	H	0.786492	-0.081935	-0.091642
H237	H	1.119826	0.251398	0.241691
H238	H	0.978133	-0.376146	-0.924602
H239	H	1.311467	-0.042813	-0.591269
H240	H	1.644800	0.290521	-0.257935
H241	H	1.148995	-0.230109	-0.785251
H242	H	1.482328	0.103225	-0.451918
H243	H	1.815662	0.436558	-0.118585
H244	H	0.494127	-0.230118	-0.269336
H245	H	0.827460	0.103215	0.063997
H246	H	1.160794	0.436548	0.397330
H247	H	0.977971	-0.542879	-0.439840
H248	H	1.311304	-0.209546	-0.106507
H249	H	1.644638	0.123787	0.226826
H250	H	0.633569	-0.230104	-0.269319
H251	H	0.966902	0.103229	0.064014
H252	H	1.300235	0.436562	0.397347
C253	C	0.974620	-0.379161	-0.698626
C254	C	1.307954	-0.045828	-0.365293
C255	C	1.641287	0.287506	-0.031960
C256	C	0.964688	-0.387652	-0.774196
C257	C	1.298022	-0.054319	-0.440862
C258	C	1.631355	0.279015	-0.107529
H259	H	0.942654	-0.406480	-0.672531
H260	H	1.275988	-0.073147	-0.339197
H261	H	1.609321	0.260186	-0.005864
H262	H	1.024053	-0.388379	-0.686041
H263	H	1.357386	-0.055046	-0.352708
H264	H	1.690720	0.278287	-0.019375
H265	H	0.963877	-0.336865	-0.686056
H266	H	1.297210	-0.003532	-0.352723
H267	H	1.630543	0.329802	-0.019389
H268	H	0.975437	-0.429947	-0.786767
H269	H	1.308771	-0.096614	-0.453433
H270	H	1.642104	0.236719	-0.120100
H271	H	0.915244	-0.378438	-0.786786
H272	H	1.248578	-0.045105	-0.453452
H273	H	1.581911	0.288229	-0.120119
C274	C	0.974751	-1.136996	-0.443429
C275	C	1.308084	-0.803663	-0.110096
C276	C	1.641418	-0.470330	0.223238
C277	C	0.964780	-1.072353	-0.453344
C278	C	1.298113	-0.739020	-0.120011
C279	C	1.631446	-0.405686	0.213323
H280	H	0.942801	-1.159305	-0.475343
H281	H	1.276134	-0.825972	-0.142010
H282	H	1.609467	-0.492639	0.191324
H283	H	1.024191	-1.147720	-0.454248
H284	H	1.357524	-0.814386	-0.120914
H285	H	1.690858	-0.481053	0.212419
H286	H	0.964011	-1.147805	-0.393973
H287	H	1.297344	-0.814471	-0.060640
H288	H	1.630677	-0.481138	0.272693
H289	H	0.975525	-1.061544	-0.502799
H290	H	1.308859	-0.728210	-0.169465
H291	H	1.642192	-0.394877	0.163868
H292	H	0.915328	-1.061625	-0.442531
H293	H	1.248662	-0.728292	-0.109197
H294	H	1.581995	-0.394959	0.224136
H295	H	0.978143	-0.943720	-0.439914
H296	H	1.311476	-0.610386	-0.106581
H297	H	1.644810	-0.277053	0.226752
C298	C	1.203610	-0.576215	-0.214547
C299	C	1.536943	-0.242882	0.118786
C300	C	1.870276	0.090451	0.452119
C301	C	1.162257	-0.533485	-0.255808
C302	C	1.495590	-0.200151	0.077525
C303	C	1.828923	0.133182	0.410859
H304	H	1.235565	-0.553905	-0.182640
H305	H	1.568899	-0.220572	0.150693
H306	H	1.902232	0.112762	0.484026
H307	H	1.171572	-0.601894	-0.186370
H308	H	1.504906	-0.268561	0.146963
H309	H	1.838239	0.064772	0.480296
H310	H	1.231746	-0.601819	-0.246652
H311	H	1.565079	-0.268486	0.086682
H312	H	1.898412	0.064847	0.420015
H313	H	1.134116	-0.507884	-0.223704
H314	H	1.467450	-0.174550	0.109630
H315	H	1.800783	0.158783	0.442963
H316	H	1.194298	-0.507795	-0.283987
H317	H	1.527631	-0.174462	0.049346
H318	H	1.860965	0.158872	0.382680
C319	C	1.203764	-0.183289	-0.885699
C320	C	1.537097	0.150045	-0.552366
C321	C	1.870430	0.483378	-0.219032
C322	C	1.162433	-0.218608	-0.935640
C323	C	1.495767	0.114726	-0.602307
C324	C	1.829100	0.448059	-0.268973
H325	H	1.235730	-0.155969	-0.911793
H326	H	1.569064	0.177365	-0.578460
H327	H	1.902397	0.510698	-0.245127
H328	H	1.171713	-0.159215	-0.855726
H329	H	1.505046	0.174118	-0.522393
H330	H	1.838380	0.507451	-0.189059
H331	H	1.231887	-0.210731	-0.855716
H332	H	1.565221	0.122602	-0.522383
H333	H	1.898554	0.455935	-0.189050
H334	H	1.134305	-0.191165	-0.965620
H335	H	1.467639	0.142168	-0.632286
H336	H	1.800972	0.475501	-0.298953
H337	H	1.194488	-0.242683	-0.965626
H338	H	1.527821	0.090650	-0.632293
H339	H	1.861155	0.423984	-0.298959
