data_functionalizedCrystal
_audit_creation_method	'MofGen! by Chris Wilmer'
_symmetry_space_group_name_H-M	'P1'
_symmetry_Int_Tables_number	1
_symmetry_cell_setting	triclinic
loop_
_symmetry_equiv_pos_as_xyz
  x,y,z
_cell_length_a	18.627054
_cell_length_b	18.627468
_cell_length_c	18.627297
_cell_angle_alpha	90.003243
_cell_angle_beta	120.002644
_cell_angle_gamma	60.000256
loop_
_atom_site_label
_atom_site_type_symbol
_atom_site_fract_x
_atom_site_fract_y
_atom_site_fract_z
O1	O	-0.633186	-0.492538	-0.021341
O2	O	-0.486190	-0.388129	0.021268
O3	O	-0.633189	-0.388138	-0.125737
O4	O	-0.486187	-0.492528	0.125663
O5	O	-0.513782	-0.507535	-0.125736
O6	O	-0.366783	-0.507526	0.021269
O7	O	-0.513779	-0.611935	-0.021340
Zn8	Zn	-0.421322	-0.578687	-0.000036
Zn9	Zn	-0.578647	-0.421376	-0.000037
O10	O	-0.366780	-0.611925	0.125664
C11	C	-0.355986	-0.387029	0.030957
C12	C	-0.406385	-0.431327	0.024865
C13	C	-0.398781	-0.300631	0.031563
C14	C	-0.225985	-0.387034	0.030951
C15	C	-0.137385	-0.431338	0.024852
C16	C	-0.268977	-0.300636	0.031557
C17	C	-0.355982	-0.257032	0.030952
C18	C	-0.406376	-0.162336	0.024853
C19	C	-0.268981	-0.430436	0.031563
C20	C	-0.643986	-0.387037	-0.387036
C21	C	-0.593587	-0.431335	-0.431336
C22	C	-0.730995	-0.300642	-0.430440
C23	C	-0.643985	-0.387038	-0.257035
C24	C	-0.593586	-0.431336	-0.162338
C25	C	-0.730995	-0.300643	-0.300636
C26	C	-0.773991	-0.257043	-0.387035
C27	C	-0.862595	-0.162350	-0.431334
C28	C	-0.601187	-0.430440	-0.300637
C29	C	-0.773980	-0.613048	-0.031046
C30	C	-0.862583	-0.568751	-0.024951
C31	C	-0.730982	-0.699445	-0.031654
C32	C	-0.643978	-0.613042	-0.031040
C33	C	-0.593582	-0.568739	-0.024941
C34	C	-0.601178	-0.699439	-0.031649
C35	C	-0.643974	-0.743043	-0.031045
C36	C	-0.593573	-0.837739	-0.024949
C37	C	-0.730986	-0.569641	-0.031650
O38	O	0.104411	-0.611950	-0.021351
O39	O	-0.104385	-0.507540	0.021255
O40	O	-0.104393	-0.507553	-0.125748
O41	O	0.104419	-0.611937	0.125653
O42	O	-0.104388	-0.388155	-0.125753
O43	O	-0.104380	-0.388141	0.021250
O44	O	0.104416	-0.492552	-0.021356
Zn45	Zn	0.000019	-0.421390	-0.000054
Zn46	Zn	0.000012	-0.578702	-0.000047
O47	O	0.104424	-0.492538	0.125647
O48	O	-0.513770	0.125658	-0.021354
O49	O	-0.366775	-0.125737	0.021251
O50	O	-0.513779	0.021252	-0.125752
O51	O	-0.366766	-0.021330	0.125649
O52	O	-0.633182	0.021256	-0.125746
O53	O	-0.486177	-0.125732	0.021257
O54	O	-0.633173	0.125663	-0.021348
Zn55	Zn	-0.578633	-0.000034	-0.000045
Zn56	Zn	-0.421315	-0.000040	-0.000052
O57	O	-0.486169	-0.021326	0.125655
O58	O	-1.104407	0.125638	-0.492526
O59	O	-0.895598	-0.125752	-0.388134
O60	O	-0.895604	0.021249	-0.388126
O61	O	-1.104402	-0.021363	-0.492534
O62	O	-0.895607	0.021253	-0.507529
O63	O	-0.895601	-0.125748	-0.507537
O64	O	-1.104411	0.125642	-0.611929
Zn65	Zn	-1.000007	-0.000053	-0.578691
Zn66	Zn	-1.000002	-0.000057	-0.421372
O67	O	-1.104405	-0.021359	-0.611937
O68	O	-0.486182	-0.492534	-0.611934
O69	O	-0.633189	-0.388138	-0.507539
O70	O	-0.486188	-0.388131	-0.507532
O71	O	-0.633183	-0.492540	-0.611941
O72	O	-0.366783	-0.507526	-0.388130
O73	O	-0.513784	-0.507533	-0.388137
O74	O	-0.366777	-0.611929	-0.492531
Zn75	Zn	-0.421322	-0.578687	-0.421376
Zn76	Zn	-0.578644	-0.421379	-0.578694
O77	O	-0.513778	-0.611935	-0.492538
C78	C	-0.225976	-0.743022	0.386962
C79	C	-0.137372	-0.837715	0.431261
C80	C	-0.268972	-0.699423	0.430367
C81	C	-0.355983	-0.613027	0.256963
C82	C	-0.406383	-0.568728	0.162266
C83	C	-0.398781	-0.569625	0.300566
C84	C	-0.355981	-0.613029	0.386964
C85	C	-0.406379	-0.568732	0.431265
C86	C	-0.268974	-0.699421	0.300563
C87	C	-0.356004	-0.257067	-0.387053
C88	C	-0.406399	-0.162375	-0.431355
C89	C	-0.398806	-0.300669	-0.430455
C90	C	-0.226001	-0.387059	-0.257050
C91	C	-0.137395	-0.431355	-0.162353
C92	C	-0.269000	-0.430463	-0.300650
C93	C	-0.356011	-0.387063	-0.387049
C94	C	-0.406413	-0.431363	-0.431347
C95	C	-0.268994	-0.300665	-0.300654
C96	C	0.356042	-0.613031	0.386949
C97	C	0.406446	-0.568732	0.431248
C98	C	0.398837	-0.699425	0.430354
C99	C	0.226031	-0.613034	0.256949
C100	C	0.137426	-0.568737	0.162252
C101	C	0.269024	-0.699428	0.300552
C102	C	0.356034	-0.743026	0.386951
C103	C	0.406429	-0.837719	0.431252
C104	C	0.269032	-0.569630	0.300550
C105	C	-0.773975	0.030904	-0.387037
C106	C	-0.862575	0.024802	-0.431332
C107	C	-0.730979	0.031501	-0.430444
C108	C	-0.643976	0.030925	-0.257045
C109	C	-0.593580	0.024846	-0.162350
C110	C	-0.601177	0.031522	-0.300648
C111	C	-0.643973	0.030899	-0.387044
C112	C	-0.593575	0.024792	-0.431345
C113	C	-0.730982	0.031527	-0.300642
O114	O	-0.633215	0.125618	-0.611950
O115	O	-0.486204	-0.125776	-0.507557
O116	O	-0.633198	0.021215	-0.507543
O117	O	-0.486221	-0.021373	-0.611963
O118	O	-0.513787	0.021218	-0.388143
O119	O	-0.366793	-0.125773	-0.388157
O120	O	-0.513803	0.125621	-0.492550
Zn121	Zn	-0.421339	-0.000075	-0.421396
Zn122	Zn	-0.578669	-0.000080	-0.578711
O123	O	-0.366810	-0.021370	-0.492563
C124	C	-0.355973	-0.030976	0.386947
C125	C	-0.406370	-0.024871	0.431249
C126	C	-0.268969	-0.031575	0.430346
C127	C	-0.355972	-0.031000	0.256947
C128	C	-0.406367	-0.024920	0.162253
C129	C	-0.268968	-0.031599	0.300544
C130	C	-0.225975	-0.030976	0.386940
C131	C	-0.137377	-0.024871	0.431234
C132	C	-0.398769	-0.031599	0.300551
H133	H	-0.233004	-0.501424	0.032540
N134	N	-0.221292	-0.032867	0.524379
H135	H	-0.261756	-0.033149	0.545384
H136	H	-0.220891	0.021048	0.527907
H137	H	0.233032	-0.734430	0.265544
N138	N	-0.778629	0.032837	-0.254254
H139	H	-0.779016	-0.021081	-0.251026
H140	H	-0.850610	0.087361	-0.287887
N141	N	-0.778638	-0.745822	-0.032952
H142	H	-0.840389	-0.705077	-0.033234
H143	H	-0.727845	-0.800134	0.020966
H144	H	-0.468787	-0.265629	0.032550
H145	H	0.233100	-0.498667	0.265523
N146	N	-0.221324	-0.254262	0.032836
H147	H	-0.200423	-0.236750	0.087330
H148	H	-0.272100	-0.199988	-0.021119
N149	N	-0.778582	-0.254229	-0.254231
H150	H	-0.738087	-0.294962	-0.192750
H151	H	-0.850604	-0.236673	-0.287840
H152	H	-0.232990	-0.032580	0.265532
H153	H	-0.468794	-0.032561	0.265546
N154	N	-0.221313	-0.745789	0.524396
H155	H	-0.261778	-0.705031	0.545394
H156	H	-0.149306	-0.763299	0.562735
N157	N	-0.778672	-0.254273	-0.524473
H158	H	-0.738205	-0.295020	-0.545476
H159	H	-0.779076	-0.199956	-0.528002
H160	H	-0.531154	-0.501417	-0.265626
N161	N	-0.508449	0.032834	-0.254290
H162	H	-0.450931	-0.021079	-0.251086
H163	H	-0.487826	0.033162	-0.192852
N164	N	-0.508311	-0.745873	-0.032752
H165	H	-0.487550	-0.705145	-0.032970
H166	H	-0.524293	-0.763467	-0.087193
N167	N	-0.778639	-0.475616	-0.032931
H168	H	-0.840388	-0.454618	-0.033212
H169	H	-0.799474	-0.437278	-0.087428
H170	H	-0.468796	-0.498640	0.265557
N171	N	-0.221319	-0.745794	0.254190
H172	H	-0.272046	-0.748989	0.199879
H173	H	-0.159567	-0.807234	0.295006
H174	H	-0.468830	-0.265659	-0.501440
N175	N	-0.221351	-0.524487	-0.254283
H176	H	-0.159599	-0.545485	-0.192814
H177	H	-0.200521	-0.562826	-0.287948
N178	N	-0.221325	-0.254300	-0.254279
H179	H	-0.261792	-0.192835	-0.295028
H180	H	-0.149323	-0.287966	-0.236777
N181	N	-0.778643	0.032792	-0.524476
H182	H	-0.840395	0.033075	-0.545475
H183	H	-0.727857	-0.021125	-0.528005
N184	N	0.491571	-0.745792	0.524389
H185	H	0.512294	-0.705044	0.545390
H186	H	0.549017	-0.800110	0.527921
