data_functionalizedCrystal
_audit_creation_method	'MofGen! by Chris Wilmer'
_symmetry_space_group_name_H-M	'P1'
_symmetry_Int_Tables_number	1
_symmetry_cell_setting	triclinic
loop_
_symmetry_equiv_pos_as_xyz
  x,y,z
_cell_length_a	14.971487
_cell_length_b	14.519709
_cell_length_c	14.048226
_cell_angle_alpha	89.992623
_cell_angle_beta	90.000286
_cell_angle_gamma	96.352726
loop_
_atom_site_label
_atom_site_type_symbol
_atom_site_fract_x
_atom_site_fract_y
_atom_site_fract_z
O1	O	-1.187014	0.120187	-0.079026
O2	O	-0.687014	0.620187	0.420974
O3	O	-0.926622	0.134578	-0.079058
O4	O	-0.426622	0.634578	0.420942
O5	O	-1.063722	-0.006860	-0.079033
O6	O	-0.563722	0.493140	0.420967
O7	O	-1.049914	0.261625	-0.079052
O8	O	-0.549914	0.761625	0.420948
O9	O	-1.063706	-0.006868	0.079288
O10	O	-0.563706	0.493132	0.579288
O11	O	-0.926606	0.134570	0.079263
O12	O	-0.426606	0.634570	0.579263
O13	O	-1.186998	0.120178	0.079295
O14	O	-0.686998	0.620178	0.579295
Zn15	Zn	-1.056799	0.127373	0.104416
Zn16	Zn	-0.556799	0.627373	0.604416
Zn17	Zn	-1.056821	0.127384	-0.104179
Zn18	Zn	-0.556821	0.627384	0.395821
O19	O	-1.049898	0.261617	0.079270
O20	O	-0.549898	0.761617	0.579270
C21	C	-0.893289	0.133930	0.000098
C22	C	-0.393289	0.633930	0.500098
C23	C	-0.793991	0.132001	0.000086
C24	C	-0.293991	0.632001	0.500086
C25	C	-0.736812	0.215093	0.000081
C26	C	-0.236812	0.715093	0.500081
C27	C	-0.643512	0.213274	0.000093
C28	C	-0.143512	0.713274	0.500093
C29	C	-0.607392	0.128364	0.000104
C30	C	-0.107392	0.628364	0.500104
C31	C	-0.664578	0.045267	0.000112
C32	C	-0.164578	0.545267	0.500112
C33	C	-0.757876	0.047086	0.000107
C34	C	-0.257876	0.547086	0.500107
C35	C	-0.470113	0.041481	0.000121
C36	C	0.029887	0.541481	0.500121
C37	C	-0.376808	0.039662	0.000125
C38	C	0.123192	0.539662	0.500125
C39	C	-0.355749	0.207670	0.000107
C40	C	0.144251	0.707670	0.500107
C41	C	-0.449047	0.209489	0.000102
C42	C	0.050953	0.709489	0.500102
C43	C	-0.506227	0.126391	0.000109
C44	C	-0.006227	0.626391	0.500109
C45	C	-1.063070	-0.041224	0.000128
C46	C	-0.563070	0.458776	0.500128
C47	C	-1.061142	-0.143604	0.000128
C48	C	-0.561142	0.356396	0.500128
C49	C	-1.054043	-0.518495	0.000102
C50	C	-0.554043	-0.018495	0.500102
C51	C	-1.056014	-0.414189	0.000110
C52	C	-0.556014	0.085811	0.500110
C53	C	-1.057592	-0.331053	0.000116
C54	C	-0.557592	0.168947	0.500116
C55	C	-1.059564	-0.226740	0.000122
C56	C	-0.559564	0.273260	0.500122
C57	C	-0.220331	0.120826	0.000131
C58	C	0.279669	0.620826	0.500131
C59	C	-0.319629	0.122753	0.000119
C60	C	0.180371	0.622753	0.500119
C61	C	-1.050550	0.295980	0.000107
C62	C	-0.550550	0.795980	0.500107
C63	C	-1.052478	0.398360	0.000100
C64	C	-0.552478	0.898360	0.500100
N65	N	-1.056791	0.127365	0.246777
N66	N	-0.556791	0.627365	0.746777
N67	N	-1.056836	0.127385	-0.246540
N68	N	-0.556836	0.627385	0.253460
C69	C	-1.117518	0.064762	0.296606
C70	C	-0.617518	0.564762	0.796606
C71	C	-1.117524	0.064761	0.396264
C72	C	-0.617524	0.564761	0.896264
C73	C	-1.056806	0.127369	0.446090
C74	C	-0.556806	0.627369	0.946090
C75	C	-0.996073	0.189975	0.396254
C76	C	-0.496073	0.689975	0.896254
C77	C	-0.996063	0.189970	0.296598
C78	C	-0.496063	0.689970	0.796598
C79	C	-0.996099	0.189982	0.603968
C80	C	-0.496099	0.689982	1.103968
C81	C	-0.996109	0.189988	0.703631
C82	C	-0.496109	0.689988	1.203631
C83	C	-1.117559	0.064773	0.703634
C84	C	-0.617559	0.564773	1.203634
C85	C	-1.117550	0.064768	0.603978
C86	C	-0.617550	0.564768	1.103978
C87	C	-1.056817	0.127375	0.554148
C88	C	-0.556817	0.627375	1.054148
H89	H	-0.478453	0.278630	0.000084
H90	H	0.021547	0.778630	0.500084
O91	O	-1.182991	-0.002788	0.242873
O92	O	-0.682991	0.497212	0.742873
H93	H	-1.172783	0.007722	0.165204
H94	H	-0.672783	0.507722	0.665204
O95	O	-0.337852	-0.051921	0.000149
O96	O	0.162148	0.448079	0.500149
H97	H	-0.295846	-0.056753	0.064680
H98	H	0.204154	0.443247	0.564680
O99	O	-0.294084	0.297302	0.000111
O100	O	0.205916	0.797302	0.500111
H101	H	-0.223139	0.281775	0.000130
H102	H	0.276861	0.781775	0.500130
H103	H	-0.635161	-0.023869	0.000135
H104	H	-0.135161	0.476131	0.500135
H105	H	-0.516667	-0.026186	0.000128
H106	H	-0.016667	0.473814	0.500128
H107	H	-0.804431	-0.020576	0.000111
H108	H	-0.304431	0.479424	0.500111
H109	H	-1.166994	0.013793	0.563409
H110	H	-0.666994	0.513793	1.063409
H111	H	-1.166972	0.013785	0.436834
H112	H	-0.666972	0.513785	0.936834
H113	H	-1.167009	0.013796	0.744211
H114	H	-0.667009	0.513796	1.244211
H115	H	-0.946641	0.240960	0.563400
H116	H	-0.446641	0.740960	1.063400
O117	O	-0.930605	0.257493	0.757379
O118	O	-0.430605	0.757493	1.257379
H119	H	-0.888358	0.301013	0.705989
H120	H	-0.388358	0.801013	1.205989
O121	O	-0.930589	0.257512	0.449988
O122	O	-0.430589	0.757512	0.949988
H123	H	-0.887065	0.218625	0.495415
H124	H	-0.387065	0.718625	0.995415
O125	O	-0.930570	0.257496	0.242846
O126	O	-0.430570	0.757496	0.742846
H127	H	-0.888357	0.301039	0.294233
H128	H	-0.388357	0.801039	0.794233
H129	H	-0.766213	0.284236	0.000071
H130	H	-0.266213	0.784236	0.500071
H131	H	-0.596960	0.280936	0.000087
H132	H	-0.096960	0.780936	0.500087
