data_functionalizedCrystal
_audit_creation_method	'MofGen! by Chris Wilmer'
_symmetry_space_group_name_H-M	'P1'
_symmetry_Int_Tables_number	1
_symmetry_cell_setting	triclinic
loop_
_symmetry_equiv_pos_as_xyz
  x,y,z
_cell_length_a	14.971482
_cell_length_b	10.654559
_cell_length_c	14.048226
_cell_angle_alpha	89.996188
_cell_angle_beta	89.994098
_cell_angle_gamma	84.050646
loop_
_atom_site_label
_atom_site_type_symbol
_atom_site_fract_x
_atom_site_fract_y
_atom_site_fract_z
O1	O	1.187843	0.163636	-0.079143
O2	O	0.927550	0.183239	-0.079147
O3	O	1.063677	-0.009365	-0.079145
O4	O	1.051716	0.356240	-0.079145
O5	O	1.063660	-0.009377	0.079177
O6	O	0.927533	0.183228	0.079175
O7	O	1.187827	0.163625	0.079179
Zn8	Zn	1.057677	0.173424	0.104314
Zn9	Zn	1.057699	0.173439	-0.104282
O10	O	1.051700	0.356229	0.079176
C11	C	0.894212	0.182358	0.000013
C12	C	0.794900	0.179733	0.000012
C13	C	0.748240	0.178491	0.086314
C14	C	0.654928	0.176004	0.086315
C15	C	0.608277	0.174770	0.000013
C16	C	0.654945	0.176008	-0.086296
C17	C	0.748256	0.178486	-0.086296
C18	C	0.460454	0.170848	-0.086290
C19	C	0.367137	0.168373	-0.086290
C20	C	0.367127	0.168367	0.086321
C21	C	0.460438	0.170844	0.086321
C22	C	0.507098	0.172085	0.000012
C23	C	1.062789	-0.056159	0.000014
C24	C	1.060156	-0.195574	0.000008
C25	C	0.977532	-0.246225	0.000004
C26	C	0.975064	-0.377221	0.000012
C27	C	1.137851	-0.406903	0.000022
C28	C	1.140318	-0.275909	0.000022
C29	C	0.897370	-0.165890	-0.000009
C30	C	0.814739	-0.216541	-0.000014
C31	C	0.812271	-0.347536	-0.000007
C32	C	0.892433	-0.427881	0.000005
C33	C	1.221165	0.164506	0.000016
C34	C	1.320476	0.167131	0.000012
C35	C	1.052588	0.403023	0.000016
C36	C	1.055221	0.542437	0.000016
N37	N	1.057669	0.173413	0.246674
N38	N	1.057715	0.173440	-0.246642
C39	C	1.117965	0.088163	0.296493
C40	C	1.117971	0.088163	0.396151
C41	C	1.057685	0.173419	0.445988
C42	C	0.997382	0.258673	0.396162
C43	C	0.997372	0.258667	0.296506
C44	C	0.997408	0.258682	0.603876
C45	C	0.997418	0.258690	0.703539
C46	C	1.118007	0.088178	0.703521
C47	C	1.117997	0.088172	0.603865
C48	C	1.057695	0.173428	0.554046
H49	H	0.786215	0.179506	0.156591
H50	H	0.786245	0.179500	-0.156572
H51	H	0.329131	0.167357	0.156597
H52	H	0.948291	0.328086	0.436745
H53	H	0.749475	-0.151116	-0.000015
H54	H	0.329156	0.167369	-0.156565
C55	C	1.184287	-0.005608	0.241677
H56	H	1.175655	0.006605	0.175190
H57	H	1.174063	-0.089448	0.258016
H58	H	1.244066	0.008187	0.257999
H59	H	0.744990	-0.388772	-0.000001
C60	C	0.900081	-0.021799	-0.000013
H61	H	0.840508	0.018794	-0.000015
H62	H	0.930712	0.002354	-0.055220
H63	H	0.930687	0.002351	0.055208
H64	H	1.207598	-0.234668	0.000026
C65	C	0.931050	0.352447	0.241705
H66	H	0.895152	0.403232	0.285657
H67	H	0.893535	0.307183	0.202841
H68	H	0.963550	0.404800	0.202819
H69	H	0.890417	-0.534545	0.000010
C70	C	0.511752	0.172209	0.181250
H71	H	0.470601	0.171106	0.232653
H72	H	0.541783	0.246353	0.184833
H73	H	0.554522	0.099990	0.184837
C74	C	0.511779	0.172223	-0.181228
H75	H	0.470631	0.171148	-0.232627
H76	H	0.554552	0.100016	-0.184822
H77	H	0.541805	0.246379	-0.184809
H78	H	0.616943	0.174972	0.156590
C79	C	1.226020	-0.495277	0.000021
H80	H	1.212717	-0.580546	0.000011
H81	H	1.259866	-0.479917	0.055230
H82	H	1.259868	-0.479900	-0.055197
H83	H	1.167069	0.018745	0.436713
C84	C	1.184331	-0.005611	0.758317
H85	H	1.175696	0.006588	0.824806
H86	H	1.244108	0.008163	0.741975
H87	H	1.174091	-0.089452	0.741990
C88	C	1.184310	-0.005608	0.549046
H89	H	1.220219	-0.056391	0.592987
H90	H	1.221816	0.039652	0.510155
H91	H	1.151799	-0.057964	0.510185
H92	H	0.948300	0.328103	0.563317
C93	C	0.931048	0.352390	0.758358
H94	H	0.895108	0.403130	0.714416
H95	H	0.963493	0.404778	0.797252
H96	H	0.893565	0.307037	0.797216
H97	H	0.616955	0.174994	-0.156564
