data_functionalizedCrystal
_audit_creation_method	'MofGen! by Chris Wilmer'
_symmetry_space_group_name_H-M	'P1'
_symmetry_Int_Tables_number	1
_symmetry_cell_setting	triclinic
loop_
_symmetry_equiv_pos_as_xyz
  x,y,z
_cell_length_a	15.298068
_cell_length_b	25.639239
_cell_length_c	15.296720
_cell_angle_alpha	99.638856
_cell_angle_beta	88.354818
_cell_angle_gamma	99.697604
loop_
_atom_site_label
_atom_site_type_symbol
_atom_site_fract_x
_atom_site_fract_y
_atom_site_fract_z
Zn1	Zn	1.253307	-0.155542	-0.727335
Zn2	Zn	1.278537	-0.225763	-0.580852
Zn3	Zn	1.132189	-0.150461	-0.555502
Zn4	Zn	1.106752	-0.255075	-0.701870
O5	O	1.192696	-0.196710	-0.641390
O6	O	1.379234	-0.154716	-0.729169
O7	O	1.280327	-0.201381	-0.454931
O8	O	1.148342	-0.077966	-0.578344
O9	O	1.397770	-0.206307	-0.621550
O10	O	1.237327	-0.081699	-0.704589
O11	O	1.172807	-0.146057	-0.436306
O12	O	1.006234	-0.174479	-0.553652
O13	O	1.104989	-0.256265	-0.827807
O14	O	0.987546	-0.251338	-0.661188
O15	O	1.212662	-0.183138	-0.846516
O16	O	1.255662	-0.302820	-0.596858
O17	O	1.129453	-0.324356	-0.685769
C18	C	0.965106	-0.215539	-0.601907
C19	C	0.867739	-0.223609	-0.585037
C20	C	1.192556	-0.332560	-0.641324
C21	C	1.192571	-0.390674	-0.641339
C22	C	0.554614	-0.139164	-0.761966
C23	C	0.646094	-0.131584	-0.777822
C24	C	0.701510	-0.154589	-0.729627
C25	C	0.665436	-0.185177	-0.665574
C26	C	0.573945	-0.192761	-0.649721
C27	C	0.720842	-0.208186	-0.617382
C28	C	0.684768	-0.238773	-0.553329
C29	C	0.593286	-0.246356	-0.537479
C30	C	0.537870	-0.223350	-0.585674
C31	C	0.812332	-0.200602	-0.633234
C32	C	0.831664	-0.254198	-0.520989
C33	C	0.740183	-0.261778	-0.505134
C34	C	1.258543	-0.739803	-0.595215
C35	C	1.258575	-0.794406	-0.595232
O36	O	1.314522	-0.813098	-0.555945
N37	N	1.192840	-0.832943	-0.641475
C38	C	1.127074	-0.816876	-0.687710
O39	O	1.071165	-0.854669	-0.727045
C40	C	1.127047	-0.762274	-0.687697
C41	C	1.192781	-0.723739	-0.641444
C42	C	1.324272	-0.701268	-0.548966
C43	C	1.324239	-0.646669	-0.548947
C44	C	1.258477	-0.630605	-0.595177
C45	C	1.192748	-0.669139	-0.641425
C46	C	1.061286	-0.746208	-0.733937
C47	C	1.061264	-0.691601	-0.733921
C48	C	1.126998	-0.653066	-0.687668
C49	C	1.126952	-0.598476	-0.687636
N50	N	1.192687	-0.559939	-0.641394
C51	C	1.258449	-0.576003	-0.595164
C52	C	1.127138	-0.931543	-0.687735
C53	C	1.127161	-0.986144	-0.687743
C54	C	1.258663	-0.963670	-0.595267
C55	C	1.258635	-0.909068	-0.595254
C56	C	1.192873	-0.893005	-0.641492
C57	C	1.258374	-0.461342	-0.595128
C58	C	1.258333	-0.406739	-0.595110
C59	C	1.126835	-0.429217	-0.687590
C60	C	1.126873	-0.483816	-0.687604
C61	C	1.192650	-0.499876	-0.641371
O62	O	1.071036	-0.579744	-0.726907
O63	O	1.314356	-0.538205	-0.555845
C64	C	1.421175	-0.177809	-0.681028
C65	C	1.518539	-0.169754	-0.697919
C66	C	1.153174	-0.223538	-0.869828
C67	C	1.136332	-0.234970	-0.967175
C68	C	1.192858	-0.060330	-0.641479
C69	C	1.192927	-0.002213	-0.641517
C70	C	1.313102	-0.114907	-1.280543
C71	C	1.328932	-0.104166	-1.189082
C72	C	1.280783	-0.136866	-1.133600
C73	C	1.216802	-0.180309	-1.169589
C74	C	1.200976	-0.191053	-1.261060
C75	C	1.168657	-0.213013	-1.114118
C76	C	1.104676	-0.256455	-1.150107
C77	C	1.088852	-0.267198	-1.241569
C78	C	1.137001	-0.234498	-1.297050
C79	C	1.184483	-0.202268	-1.022647
C80	C	1.072357	-0.278415	-1.003165
C81	C	1.056527	-0.289155	-1.094626
C82	C	1.232115	-0.169945	-0.413849
C83	C	1.249127	-0.158351	-0.316533
H84	H	0.841695	-0.175697	-0.685386
F85	F	1.364345	-0.080114	-1.339594
F86	F	1.252574	-0.156034	-0.984355
F87	F	0.991270	-0.674511	-0.783138
H88	H	1.073627	-1.017515	-0.725397
F89	F	0.991327	-0.787210	-0.783175
H90	H	1.073349	-0.515193	-0.725270
F91	F	0.798872	-0.146521	-0.746502
H92	H	1.004433	-0.324527	-1.123941
F93	F	1.397022	-0.057933	-1.150786
F94	F	1.120160	-0.245929	-1.394396
F95	F	0.701779	-0.294330	-0.436966
F96	F	1.328598	-0.868060	-0.546026
F97	F	0.440504	-0.231415	-0.568800
H98	H	1.293675	-0.128118	-1.059129
F99	F	1.020771	-0.313440	-1.279871
F100	F	1.021114	-0.313221	-0.944123
H101	H	1.073289	-0.416129	-0.725227
F102	F	0.495631	-0.114691	-0.813260
F103	F	0.684480	-0.099035	-0.845992
H104	H	1.073580	-0.918469	-0.725384
H105	H	0.563916	-0.271266	-0.485330
H106	H	0.876783	-0.272934	-0.481749
F107	F	1.394211	-0.605663	-0.499730
H108	H	1.311862	-0.375363	-0.557442
H109	H	1.311938	-0.474410	-0.557483
H110	H	1.377828	-0.714340	-0.511321
H111	H	1.312213	-0.976759	-0.557627
