data_functionalizedCrystal
_audit_creation_method	'MofGen! by Chris Wilmer'
_symmetry_space_group_name_H-M	'P1'
_symmetry_Int_Tables_number	1
_symmetry_cell_setting	triclinic
loop_
_symmetry_equiv_pos_as_xyz
  x,y,z
_cell_length_a	14.908742
_cell_length_b	18.101395
_cell_length_c	14.908308
_cell_angle_alpha	93.266316
_cell_angle_beta	96.760659
_cell_angle_gamma	86.737639
loop_
_atom_site_label
_atom_site_type_symbol
_atom_site_fract_x
_atom_site_fract_y
_atom_site_fract_z
Zn1	Zn	1.354140	-0.379376	-0.431778
Zn2	Zn	1.362750	-0.496467	-0.280425
Zn3	Zn	1.211517	-0.365899	-0.289185
Zn4	Zn	1.202723	-0.496425	-0.440488
O5	O	1.282783	-0.434542	-0.360469
O6	O	1.481942	-0.400567	-0.404389
O7	O	1.349973	-0.473524	-0.154924
O8	O	1.230514	-0.264059	-0.308120
O9	O	1.488268	-0.486592	-0.293191
O10	O	1.335298	-0.273960	-0.412883
O11	O	1.238863	-0.377596	-0.161360
O12	O	1.083691	-0.377556	-0.316567
O13	O	1.215524	-0.486521	-0.565996
O14	O	1.077229	-0.473453	-0.427729
O15	O	1.326770	-0.400526	-0.559596
O16	O	1.341445	-0.600090	-0.301637
O17	O	1.223874	-0.600059	-0.419235
C18	C	1.047619	-0.424038	-0.374044
C19	C	0.947013	-0.419563	-0.379873
C20	C	0.801912	-0.368555	-0.446067
C21	C	0.896439	-0.372753	-0.440595
C22	C	0.903053	-0.462180	-0.324622
C23	C	0.808525	-0.457981	-0.330094
C24	C	0.757958	-0.411166	-0.390818
C25	C	0.663429	-0.406965	-0.396285
C26	C	0.670044	-0.496395	-0.280317
C27	C	0.764572	-0.500593	-0.274845
C28	C	1.282663	-0.626946	-0.360449
C29	C	1.282693	-0.709262	-0.360466
C30	C	1.282889	-1.008364	-0.360504
C31	C	1.209068	-0.977065	-0.434657
C32	C	1.208749	-0.891423	-0.434457
C33	C	1.282792	-0.859976	-0.360486
C34	C	1.262474	-0.885720	-0.266584
C35	C	1.262000	-0.971364	-0.267030
C36	C	1.377228	-0.982069	-0.379403
C37	C	1.376544	-0.896486	-0.381528
C38	C	1.282738	-0.776114	-0.360470
C39	C	1.282940	-1.092226	-0.360513
C40	C	1.518865	-0.445087	-0.346841
C41	C	1.619469	-0.449581	-0.341034
C42	C	1.269206	-0.445022	-0.596556
C43	C	1.263420	-0.449488	-0.697162
C44	C	1.282926	-0.241389	-0.360507
C45	C	1.282987	-0.159078	-0.360523
C46	C	1.368385	-0.368317	-0.879550
C47	C	1.362952	-0.372511	-0.974078
C48	C	1.247116	-0.462066	-0.980750
C49	C	1.252549	-0.457872	-0.886221
C50	C	1.313187	-0.410997	-0.835625
C51	C	1.318624	-0.406807	-0.741094
C52	C	1.202784	-0.496358	-0.747767
C53	C	1.197351	-0.500552	-0.842296
C54	C	1.296359	-0.424051	-0.125297
C55	C	1.302320	-0.419384	-0.024681
H56	H	0.634247	-0.531094	-0.235331
H57	H	1.197747	-0.500229	-1.021961
Cl58	Cl	1.157431	-0.846490	-0.240234
H59	H	1.220822	-0.874235	-0.504257
H60	H	0.760740	-0.330429	-0.495502
H61	H	0.932223	-0.338054	-0.485585
H62	H	1.434012	-0.875402	-0.331014
H63	H	1.396825	-1.007717	-0.446418
Cl64	Cl	1.432346	-0.318852	-1.029296
H65	H	1.147980	-0.538715	-0.883504
Cl66	Cl	0.966638	-0.521035	-0.248299
Cl67	Cl	1.133398	-0.550024	-0.692541
H68	H	0.622259	-0.368842	-0.445726
H69	H	0.805756	-0.538710	-0.225408
H70	H	1.139450	-0.994793	-0.422754
Cl71	Cl	1.227433	-1.014781	-0.542796
Cl72	Cl	1.100615	-0.853884	-0.415807
Cl73	Cl	1.400358	-0.871224	-0.488181
Cl74	Cl	1.155783	-0.996067	-0.241321
Cl75	Cl	1.341862	-1.002980	-0.179273
Cl76	Cl	1.462042	-1.013411	-0.295929
Cl77	Cl	1.343248	-0.853965	-0.179326
Cl78	Cl	1.444622	-0.309398	-0.815939
Cl79	Cl	1.394855	-0.347881	-0.677488
