data_functionalizedCrystal
_audit_creation_method	'MofGen! by Chris Wilmer'
_symmetry_space_group_name_H-M	'P1'
_symmetry_Int_Tables_number	1
_symmetry_cell_setting	triclinic
loop_
_symmetry_equiv_pos_as_xyz
  x,y,z
_cell_length_a	17.077404
_cell_length_b	12.759399
_cell_length_c	17.077396
_cell_angle_alpha	89.973998
_cell_angle_beta	89.980499
_cell_angle_gamma	90.015341
loop_
_atom_site_label
_atom_site_type_symbol
_atom_site_fract_x
_atom_site_fract_y
_atom_site_fract_z
Zn1	Zn	1.200097	-0.418260	-0.443856
Zn2	Zn	1.200022	-0.593961	-0.312596
Zn3	Zn	1.068829	-0.418297	-0.312604
Zn4	Zn	1.068815	-0.593898	-0.443820
O5	O	1.134441	-0.506104	-0.378219
O6	O	1.309934	-0.441578	-0.426456
O7	O	1.182593	-0.570700	-0.202750
O8	O	1.086279	-0.271271	-0.330034
O9	O	1.309879	-0.570664	-0.330020
O10	O	1.182721	-0.271244	-0.426464
O11	O	1.086206	-0.441641	-0.202756
O12	O	0.958980	-0.441580	-0.329998
O13	O	1.086255	-0.570558	-0.553671
O14	O	0.958970	-0.570594	-0.426402
O15	O	1.182708	-0.441517	-0.553698
O16	O	1.182580	-0.740973	-0.329984
O17	O	1.086182	-0.740927	-0.426394
C18	C	0.930493	-0.506085	-0.378197
C19	C	0.843243	-0.506102	-0.378207
C20	C	0.802268	-0.573381	-0.428323
C21	C	0.720287	-0.573383	-0.428336
C22	C	0.679284	-0.506111	-0.378227
C23	C	0.720264	-0.438825	-0.328108
C24	C	0.802243	-0.438818	-0.328100
C25	C	0.549394	-0.438846	-0.328127
C26	C	0.467410	-0.438854	-0.328134
C27	C	0.467438	-0.573410	-0.428363
C28	C	0.549417	-0.573404	-0.428355
C29	C	0.590393	-0.506119	-0.378235
C30	C	1.134392	-0.779071	-0.378201
C31	C	1.134444	-0.895848	-0.378220
C32	C	1.184695	-0.950699	-0.328076
C33	C	1.184746	-1.060423	-0.328103
C34	C	1.084286	-1.060435	-0.428418
C35	C	1.084240	-0.950713	-0.428395
C36	C	1.277400	-1.210298	-0.300171
C37	C	1.327645	-1.265152	-0.250016
C38	C	1.339725	-1.229604	-0.173426
C39	C	1.301549	-1.139202	-0.146975
C40	C	1.251299	-1.084353	-0.197127
C41	C	1.239233	-1.119900	-0.273728
C42	C	0.991585	-0.800836	-0.456318
C43	C	0.941330	-0.745985	-0.506466
C44	C	0.929242	-0.781532	-0.583058
C45	C	0.967404	-0.871938	-0.609505
C46	C	1.017658	-0.926789	-0.559357
C47	C	1.029748	-0.891234	-0.482766
C48	C	1.339185	-0.506124	-0.378241
C49	C	1.426435	-0.506132	-0.378251
C50	C	1.134488	-0.506026	-0.582963
C51	C	1.134508	-0.505993	-0.670213
C52	C	1.134510	-0.232071	-0.378254
C53	C	1.134540	-0.115294	-0.378269
C54	C	1.184733	-0.438796	-0.711219
C55	C	1.184742	-0.438761	-0.793199
C56	C	1.134531	-0.505930	-0.834173
C57	C	1.084300	-0.573130	-0.793161
C58	C	1.084288	-0.573159	-0.711182
C59	C	1.084332	-0.573066	-0.964032
C60	C	1.084346	-0.573039	-1.046016
C61	C	1.184787	-0.438669	-1.046048
C62	C	1.184774	-0.438698	-0.964069
C63	C	1.134545	-0.505900	-0.923064
C64	C	1.134438	-0.506105	-0.174271
C65	C	1.134570	-0.505842	-0.087022
H66	H	0.835647	-0.628165	-0.469125
C67	C	1.004868	-0.761744	-0.372061
H68	H	0.974929	-0.700060	-0.363487
H69	H	1.058827	-0.746627	-0.364646
H70	H	0.989020	-0.814432	-0.336063
C71	C	1.239963	-0.364905	-0.666155
H72	H	1.269870	-0.324873	-0.702321
H73	H	1.274152	-0.405102	-0.634173
H74	H	1.209933	-0.319134	-0.634179
H75	H	0.910261	-0.672368	-0.484928
H76	H	1.225642	-0.384045	-0.826582
H77	H	1.380636	-1.274273	-0.132589
C78	C	1.240006	-0.364816	-0.919000
H79	H	1.269918	-0.324782	-0.955161
H80	H	1.274190	-0.405021	-0.887018
H81	H	1.209978	-0.319045	-0.887022
H82	H	1.358728	-1.338758	-0.271559
H83	H	1.220218	-1.010748	-0.175592
C84	C	1.314834	-1.100107	-0.062722
H85	H	1.350233	-1.145715	-0.036644
H86	H	1.266339	-1.099136	-0.035470
H87	H	1.336144	-1.031346	-0.064076
C88	C	1.240047	-0.364761	-1.091151
H89	H	1.232862	-0.374357	-1.145843
H90	H	1.292778	-0.380165	-1.077718
H91	H	1.228584	-0.294165	-1.077727
C92	C	1.029110	-0.646916	-1.091086
H93	H	0.999185	-0.686933	-1.054925
H94	H	1.059128	-0.692687	-1.123065
H95	H	0.994926	-0.606698	-1.123066
H96	H	0.434026	-0.384062	-0.287340
C97	C	1.264120	-1.249393	-0.384425
H98	H	1.228735	-1.203773	-0.410512
H99	H	1.242813	-1.318149	-0.383078
H100	H	1.312624	-1.250360	-0.411672
H101	H	1.043418	-0.627773	-0.930647
H102	H	1.048735	-1.000399	-0.580899
H103	H	0.686929	-0.628169	-0.469145
C104	C	0.594521	-0.647400	-0.483473
H105	H	0.558378	-0.687466	-0.513330
H106	H	0.626483	-0.693120	-0.453384
H107	H	0.626519	-0.607254	-0.517725
C108	C	1.029042	-0.647074	-0.666073
H109	H	1.036220	-0.637464	-0.611381
H110	H	1.040510	-0.717662	-0.679498
H111	H	0.976305	-0.631677	-0.679502
C112	C	1.029059	-1.120791	-0.483598
H113	H	1.036277	-1.193993	-0.476425
H114	H	1.040506	-1.102748	-0.536347
H115	H	0.976315	-1.102875	-0.472050
H116	H	0.434073	-0.628193	-0.469175
C117	C	0.594465	-0.364830	-0.272999
H118	H	0.558305	-0.324772	-0.243152
H119	H	0.626465	-0.319103	-0.303084
H120	H	0.626424	-0.404963	-0.238738
H121	H	0.686872	-0.384046	-0.287312
C122	C	0.847316	-0.364810	-0.272973
H123	H	0.811156	-0.324751	-0.243127
H124	H	0.879314	-0.319084	-0.303060
H125	H	0.879276	-0.404940	-0.238712
H126	H	1.225575	-0.906030	-0.287222
C127	C	0.954113	-0.911048	-0.693755
H128	H	0.984033	-0.972750	-0.702321
H129	H	0.969951	-0.858380	-0.729766
H130	H	0.900146	-0.926162	-0.701149
C131	C	0.873960	-0.721197	-0.638219
H132	H	0.852961	-0.662263	-0.611502
H133	H	0.832510	-0.765941	-0.654290
H134	H	0.902315	-0.698149	-0.682894
C135	C	1.029067	-0.647015	-0.838226
H136	H	0.999148	-0.687033	-0.802061
H137	H	1.059087	-0.692784	-0.870205
H138	H	0.994877	-0.606805	-0.870206
