data_functionalizedCrystal
_audit_creation_method	'MofGen! by Chris Wilmer'
_symmetry_space_group_name_H-M	'P1'
_symmetry_Int_Tables_number	1
_symmetry_cell_setting	triclinic
loop_
_symmetry_equiv_pos_as_xyz
  x,y,z
_cell_length_a	8.634740
_cell_length_b	8.634740
_cell_length_c	15.186229
_cell_angle_alpha	89.998446
_cell_angle_beta	89.997211
_cell_angle_gamma	100.570307
loop_
_atom_site_label
_atom_site_type_symbol
_atom_site_fract_x
_atom_site_fract_y
_atom_site_fract_z
O1	O	2.122442	0.514105	-0.073219
O2	O	1.667085	0.470995	-0.073222
O3	O	1.873208	0.264871	-0.073218
O4	O	1.916319	0.720228	-0.073222
O5	O	1.873192	0.264866	0.073239
O6	O	1.667068	0.470989	0.073235
O7	O	2.122425	0.514099	0.073238
Zn8	Zn	1.894744	0.492543	0.096490
Zn9	Zn	1.894766	0.492551	-0.096474
O10	O	1.916302	0.720223	0.073235
C11	C	1.608176	0.461226	0.000006
C12	C	1.432666	0.432108	0.000005
C13	C	1.863434	0.205967	0.000009
C14	C	1.834316	0.030458	0.000005
C15	C	2.181335	0.523868	0.000008
C16	C	2.356844	0.552987	0.000003
C17	C	1.926076	0.779127	0.000006
C18	C	1.955195	0.954636	0.000004
N19	N	1.894741	0.492539	0.228183
N20	N	1.894780	0.492545	-0.228166
C21	C	1.986054	0.401309	0.453907
C22	C	1.986058	0.401306	0.546097
C23	C	1.803456	0.583778	0.546103
C24	C	1.803444	0.583771	0.453915
C25	C	1.894752	0.492540	0.407819
C26	C	1.894769	0.492544	0.592197
C27	C	1.894773	0.492541	0.692153
C28	C	1.894746	0.492540	0.307857
H29	H	1.426209	0.678761	0.000008
H30	H	2.060400	0.327020	0.416378
Br31	Br	2.164822	0.070229	-0.000003
Br32	Br	1.624678	-0.085140	-0.000009
Br33	Br	1.679547	0.707591	0.608664
Br34	Br	1.679513	0.707579	0.391360
Br35	Br	2.109964	0.277479	0.608643
H36	H	1.363310	0.306341	-0.000016
