data_functionalizedCrystal
_audit_creation_method	'MofGen! by Chris Wilmer'
_symmetry_space_group_name_H-M	'P1'
_symmetry_Int_Tables_number	1
_symmetry_cell_setting	triclinic
loop_
_symmetry_equiv_pos_as_xyz
  x,y,z
_cell_length_a	14.395555
_cell_length_b	20.875641
_cell_length_c	20.875641
_cell_angle_alpha	60.089808
_cell_angle_beta	90.003252
_cell_angle_gamma	62.439513
loop_
_atom_site_label
_atom_site_type_symbol
_atom_site_fract_x
_atom_site_fract_y
_atom_site_fract_z
Zr1	Zr	0.937435	0.694320	-0.105736
O2	O	0.801299	0.820564	-0.209006
O3	O	0.974074	0.563064	-0.070804
O4	O	0.987755	0.687087	-0.204275
O5	O	0.782621	0.703995	0.026025
O6	O	1.140629	0.687083	-0.204270
O7	O	0.787619	0.696542	-0.075534
O8	O	1.116156	0.465228	0.034487
O9	O	0.807093	0.925849	-0.212731
O10	O	1.109942	0.618905	-0.059858
O11	O	0.992125	0.624470	0.015930
O12	O	1.008232	0.770491	-0.141216
O13	O	0.890415	0.776057	-0.065427
Zr14	Zr	1.173281	0.706201	0.056247
Zr15	Zr	1.181251	0.694313	-0.105728
Zr16	Zr	0.929465	0.706208	0.056238
Zr17	Zr	0.946676	0.862238	-0.111679
Zr18	Zr	1.164040	0.538284	0.062190
O19	O	1.136641	0.837457	0.021314
O20	O	1.147974	0.820555	-0.208993
O21	O	0.789967	0.837467	0.021302
O22	O	1.309416	0.579957	0.159516
O23	O	1.320749	0.563054	-0.070791
O24	O	0.962742	0.579967	0.159504
O25	O	1.328094	0.696526	-0.075514
O26	O	1.122961	0.713434	0.154786
O27	O	0.970087	0.713439	0.154781
O28	O	1.323097	0.703980	0.026045
O29	O	1.000894	0.925844	-0.212724
O30	O	1.109821	0.474677	0.163235
O31	O	1.303622	0.474672	0.163242
O32	O	1.309957	0.465223	0.034494
O33	O	0.800758	0.935298	-0.083983
O34	O	0.994559	0.935293	-0.083976
O35	O	1.102483	0.630030	0.091727
O36	O	1.220301	0.624464	0.015938
O37	O	1.118591	0.776051	-0.065419
O38	O	1.000773	0.781616	0.010369
C39	C	1.043799	0.490222	-0.017312
C40	C	1.039876	0.418936	-0.014789
C41	C	1.099529	0.382541	-0.053165
C42	C	1.095845	0.315557	-0.050787
C43	C	1.032502	0.284973	-0.010038
C44	C	0.972846	0.321371	0.028342
C45	C	0.976537	0.388350	0.025969
C46	C	1.014875	0.084962	0.001307
C47	C	1.011187	0.017980	0.003676
C48	C	1.134188	0.012169	-0.075453
C49	C	1.137867	0.079153	-0.077827
C50	C	1.078217	0.115542	-0.039443
N51	N	1.028732	0.216506	-0.007609
N52	N	1.081993	0.184004	-0.041868
C53	C	0.750382	0.700269	-0.024756
C54	C	0.646875	0.700272	-0.024759
C55	C	0.530829	0.782925	-0.069113
C56	C	0.499110	0.737893	-0.097543
C57	C	0.494172	0.745300	0.003665
C58	C	0.616522	0.655237	-0.053231
C59	C	0.611578	0.662660	0.048016
C60	C	0.579928	0.617566	0.019606
C61	C	1.360334	0.700252	-0.024733
C62	C	1.463840	0.700249	-0.024730
C63	C	1.065327	0.685391	-0.227350
C64	C	1.068711	0.680344	-0.296113
C65	C	1.066917	0.910300	-0.032177
C66	C	1.070840	0.981585	-0.034700
C67	C	1.017211	0.757098	-0.370885
C68	C	1.020404	0.752351	-0.435492
C69	C	1.075092	0.670850	-0.425325
C70	C	1.126599	0.594090	-0.350545
C71	C	1.123411	0.598838	-0.285940
C72	C	1.090324	0.648165	-0.613991
C73	C	1.093505	0.643423	-0.678604
C74	C	0.987312	0.801685	-0.763547
C75	C	0.984123	0.806425	-0.698936
C76	C	1.035635	0.729666	-0.624162
N77	N	1.078355	0.665995	-0.491363
N78	N	1.032379	0.734521	-0.558126
C79	C	1.045388	0.715130	0.177861
C80	C	1.042005	0.720177	0.246624
C81	C	1.348775	0.490213	-0.017301
C82	C	1.448358	0.418925	-0.014774
C83	C	1.033829	0.505091	0.185294
C84	C	1.026523	0.438852	0.256579
C85	C	1.338806	0.505082	0.185305
C86	C	1.435005	0.438841	0.256594
C87	C	0.771910	0.895439	-0.234794
C88	C	0.675710	0.961681	-0.306083
C89	C	0.761941	0.910308	-0.032188
C90	C	0.662357	0.981597	-0.034715
C91	C	1.076886	0.895430	-0.234783
C92	C	1.084193	0.961669	-0.306068
C93	C	1.437518	0.382544	-0.053160
C94	C	1.531079	0.315570	-0.050801
C95	C	1.635478	0.284972	-0.010053
C96	C	1.646317	0.321359	0.028334
C97	C	1.552757	0.388337	0.025970
C98	C	1.080697	0.410648	0.329627
C99	C	1.073828	0.348420	0.396613
C100	C	1.012790	0.314392	0.390549
C101	C	0.958609	0.342602	0.317494
C102	C	0.965472	0.404834	0.250509
C103	C	1.541691	0.404828	0.250512
C104	C	1.632091	0.342595	0.317489
C105	C	1.615802	0.314373	0.390548
C106	C	1.509105	0.348392	0.396628
C107	C	1.418708	0.410628	0.329652
C108	C	0.569025	0.995702	-0.300001
C109	C	0.478626	1.057955	-0.366979
C110	C	0.494915	1.086181	-0.440038
C111	C	0.601612	1.052157	-0.446119
C112	C	0.692009	0.989910	-0.379142
C113	C	0.673198	1.017983	0.003664
C114	C	0.579639	1.084975	0.001287
C115	C	0.475240	1.115575	-0.039464
C116	C	0.464401	1.079185	-0.077847
C117	C	0.557960	1.012199	-0.075475
C118	C	1.145240	0.995677	-0.299980
C119	C	1.152127	1.057907	-0.366953
C120	C	1.097959	1.086132	-0.440015
C121	C	1.036910	1.052117	-0.446102
C122	C	1.030030	0.989884	-0.379129
H123	H	1.151105	0.407441	-0.086351
C124	C	0.910913	0.428385	0.068185
N125	N	0.861485	0.458537	0.099985
H126	H	1.171133	0.527730	-0.342271
H127	H	0.992809	1.075107	-0.505597
C128	C	0.606863	0.523072	0.070282
N129	N	0.627145	0.451901	0.108446
C130	C	1.207555	0.112787	-0.122651
N131	N	1.260043	0.138121	-0.156414
C132	C	0.546015	0.972171	-0.117687
N133	N	0.537010	0.942024	-0.149482
C134	C	0.433466	0.780852	-0.180662
N135	N	0.384009	0.813219	-0.243266
C136	C	1.180063	0.514403	-0.203687
N137	N	1.222737	0.450803	-0.141733
C138	C	0.930663	0.886114	-0.845801
N139	N	0.887997	0.949710	-0.907757
H140	H	1.331842	0.438314	0.334616
C141	C	1.491205	0.317331	0.477001
N142	N	1.477726	0.293928	0.537541
H143	H	0.379387	1.104110	-0.111026
H144	H	1.138037	0.577051	-0.670316
C145	C	1.738386	0.211288	-0.007454
N146	N	1.815892	0.155786	-0.005497
H147	H	1.189351	0.972707	-0.240495
C148	C	0.687597	0.603838	-0.085793
N149	N	0.741130	0.565128	-0.110321
H150	H	1.352520	0.407455	-0.086351
C151	C	0.677199	0.619771	0.131115
N152	N	0.726628	0.587480	0.193703
H153	H	1.201837	1.085596	-0.361982
H154	H	1.007210	0.263719	0.445099
H155	H	1.522232	0.285951	-0.082060
H156	H	1.103570	1.136807	-0.494542
H157	H	0.980315	0.962201	-0.384097
H158	H	1.144421	0.285923	-0.082035
H159	H	1.182754	-0.017466	-0.106702
H160	H	0.391757	1.085647	-0.362012
C161	C	1.761166	0.287685	0.073161
N162	N	1.847674	0.262315	0.106930
C163	C	0.395464	1.154648	-0.513707
N164	N	0.320552	1.206215	-0.569192
H165	H	0.778875	0.962209	-0.384103
C166	C	0.619511	1.083207	-0.526491
N167	N	0.632989	1.106590	-0.587029
C168	C	0.591586	1.124985	0.043520
N169	N	0.600587	1.155117	0.075333
C170	C	0.422907	0.796753	0.036129
N171	N	0.369232	0.835512	0.060577
C172	C	0.957050	0.846757	-0.382080
N173	N	0.911740	0.914291	-0.390514
H174	H	0.978469	0.814852	-0.496374
C175	C	0.923971	0.896084	-0.710129
N176	N	0.878663	0.963616	-0.718560
H177	H	0.758197	0.993075	0.036853
H178	H	0.959599	-0.006917	0.036858
H179	H	0.399068	1.170120	-0.041390
H180	H	0.966308	0.114580	0.032565
C181	C	1.146978	0.563727	-0.531746
N182	N	1.189650	0.500123	-0.469795
C183	C	1.147840	0.448073	0.336316
N184	N	1.198408	0.476262	0.341361
H185	H	0.921276	0.296461	0.061525
H186	H	0.511095	0.852811	-0.106674
H187	H	1.561599	0.417949	0.057233
C188	C	1.133447	0.317392	0.476967
N189	N	1.178357	0.294021	0.537488
C190	C	0.891476	0.305157	0.310837
N191	N	0.840918	0.276947	0.305825
H192	H	0.921360	0.427789	0.191033
C193	C	1.715254	0.245904	0.464217
N194	N	1.790165	0.194330	0.519702
H195	H	1.554975	0.427797	0.191029
H196	H	1.718960	0.314902	0.312524
H197	H	0.555741	0.972724	-0.240518
