data_functionalizedCrystal
_audit_creation_method	'MofGen! by Chris Wilmer'
_symmetry_space_group_name_H-M	'P1'
_symmetry_Int_Tables_number	1
_symmetry_cell_setting	triclinic
loop_
_symmetry_equiv_pos_as_xyz
  x,y,z
_cell_length_a	15.944493
_cell_length_b	27.731996
_cell_length_c	15.021413
_cell_angle_alpha	89.998029
_cell_angle_beta	89.993251
_cell_angle_gamma	83.048216
loop_
_atom_site_label
_atom_site_type_symbol
_atom_site_fract_x
_atom_site_fract_y
_atom_site_fract_z
O1	O	1.113726	0.062202	-0.074032
O2	O	0.869066	0.069917	-0.074038
O3	O	0.999017	-0.004307	-0.074016
O4	O	0.983774	0.136426	-0.074054
O5	O	0.998996	-0.004296	0.074049
O6	O	0.869045	0.069928	0.074026
O7	O	1.113705	0.062213	0.074032
Zn8	Zn	0.991372	0.066072	0.097538
Zn9	Zn	0.991399	0.066058	-0.097543
O10	O	0.983754	0.136437	0.074010
C11	C	0.837765	0.069607	-0.000006
C12	C	0.744529	0.068662	-0.000008
C13	C	0.508183	0.112352	-0.000020
C14	C	0.457931	0.088797	0.072993
C15	C	0.573831	0.066910	-0.000005
C16	C	0.457956	0.088776	-0.072986
C17	C	0.408944	0.065222	-0.000007
C18	C	0.524807	0.043367	0.073068
C19	C	0.524835	0.043353	-0.072977
C20	C	0.474616	0.019764	0.000055
C21	C	0.668818	0.067884	-0.000004
C22	C	0.313960	0.064244	-0.000003
C23	C	0.998694	-0.022310	0.000020
C24	C	0.997750	-0.075970	0.000029
C25	C	0.991828	-0.408717	-0.080725
C26	C	0.988247	-0.610391	-0.080741
O27	O	0.987757	-0.636468	-0.149382
N28	N	0.987790	-0.635604	-0.000032
C29	C	0.988224	-0.610395	0.080687
O30	O	0.987745	-0.636468	0.149335
C31	C	0.991800	-0.408722	0.080702
C32	C	0.992264	-0.383512	-0.000012
C33	C	0.992292	-0.383507	-0.161433
C34	C	0.993192	-0.333092	-0.161428
C35	C	0.993628	-0.307887	-0.080715
C36	C	0.993164	-0.333098	-0.000008
C37	C	0.992227	-0.383514	0.161420
C38	C	0.993119	-0.333093	0.161416
C39	C	0.993584	-0.307883	0.080702
C40	C	0.994500	-0.257478	0.080710
N41	N	0.994956	-0.232264	0.000001
C42	C	0.994520	-0.257469	-0.080712
C43	C	0.986349	-0.716277	0.080674
C44	C	0.985456	-0.766695	0.080670
C45	C	0.985477	-0.766686	-0.080758
C46	C	0.986376	-0.716268	-0.080753
C47	C	0.986805	-0.691063	-0.000035
C48	C	0.996411	-0.151594	-0.080696
C49	C	0.997314	-0.101175	-0.080684
C50	C	0.997289	-0.101187	0.080744
C51	C	0.996390	-0.151603	0.080732
C52	C	0.995948	-0.176805	0.000005
O53	O	0.994981	-0.231368	0.149315
O54	O	0.994980	-0.231387	-0.149349
C55	C	0.990928	-0.459132	-0.080730
C56	C	0.990464	-0.484342	-0.000022
C57	C	0.990901	-0.459138	0.080691
C58	C	0.989572	-0.534761	-0.000025
C59	C	0.989136	-0.559965	-0.080738
C60	C	0.989592	-0.534752	-0.161447
C61	C	0.990492	-0.484337	-0.161442
C62	C	0.990445	-0.484351	0.161400
C63	C	0.989546	-0.534766	0.161388
C64	C	0.989109	-0.559971	0.080676
C65	C	1.145006	0.062523	-0.000002
C66	C	1.238242	0.063468	-0.000006
C67	C	0.984077	0.154440	-0.000027
C68	C	0.985020	0.208100	-0.000042
N69	N	0.991359	0.066081	0.230675
N70	N	0.991418	0.066045	-0.230681
C71	C	0.931261	0.100386	0.470348
C72	C	1.007038	0.109762	0.529681
C73	C	0.991381	0.066069	0.412282
C74	C	0.915625	0.056705	0.529691
C75	C	0.991395	0.066059	0.587706
C76	C	1.067196	0.075466	0.470309
C77	C	0.975733	0.022390	0.470313
C78	C	1.051565	0.031747	0.529619
C79	C	0.991372	0.066077	0.311225
C80	C	0.991413	0.066051	0.688761
H81	H	0.553883	0.024193	0.134857
H82	H	0.554047	0.024172	-0.134696
H83	H	0.428769	0.107971	-0.134705
O84	O	0.997724	-0.076758	-0.159173
C85	C	0.997164	-0.109822	-0.230410
H86	H	0.969917	-0.143756	-0.206747
H87	H	1.064486	-0.120266	-0.255226
C88	C	0.975885	-0.044313	-0.335731
C89	C	0.942412	-0.085989	-0.306670
H90	H	0.942115	-0.029611	-0.382774
H91	H	0.976265	-0.022037	-0.287738
H92	H	1.031985	-0.053022	-0.356404
H93	H	0.886317	-0.077278	-0.285987
H94	H	0.942021	-0.108263	-0.354661
O95	O	0.870568	0.135006	0.439397
C96	C	0.790905	0.125510	0.470930
H97	H	0.799503	0.102450	0.533840
H98	H	0.758242	0.105117	0.417789
C99	C	0.725832	0.202160	0.414912
C100	C	0.736392	0.173840	0.492183
H101	H	0.692204	0.231972	0.428018
H102	H	0.779502	0.208557	0.393664
H103	H	0.698616	0.185160	0.370635
H104	H	0.763617	0.190837	0.536454
H105	H	0.682725	0.167447	0.513439
O106	O	0.986691	-0.691723	-0.159107
C107	C	0.914410	-0.657092	-0.163943
H108	H	0.890286	-0.647705	-0.093863
H109	H	0.863107	-0.672694	-0.203751
C110	C	0.966969	-0.622396	-0.296191
C111	C	0.937345	-0.610864	-0.210117
H112	H	0.981115	-0.593881	-0.324677
H113	H	1.015666	-0.645728	-0.292935
H114	H	0.924212	-0.635399	-0.329353
H115	H	0.980105	-0.597867	-0.176953
H116	H	0.888657	-0.587528	-0.213368
H117	H	0.459675	-0.019408	0.000108
H118	H	0.993567	-0.312571	-0.227154
H119	H	1.020286	0.146695	0.555758
H120	H	0.851553	0.048789	0.555777
H121	H	0.993456	-0.312573	0.227148
O122	O	1.143571	0.085011	0.439180
C123	C	1.142626	0.084927	0.345324
H124	H	1.074655	0.092499	0.320782
H125	H	1.171861	0.047940	0.319879
C126	C	1.277405	0.115269	0.340471
C127	C	1.193922	0.124573	0.310327
H128	H	1.309050	0.139723	0.318882
H129	H	1.278044	0.115324	0.403704
H130	H	1.301756	0.084446	0.319264
H131	H	1.169570	0.155393	0.331543
H132	H	1.193281	0.124524	0.247097
O133	O	0.996093	-0.176129	-0.159060
C134	C	1.068360	-0.210770	-0.163917
H135	H	1.092477	-0.220167	-0.093844
H136	H	1.119673	-0.195173	-0.203732
C137	C	1.015784	-0.245443	-0.296162
C138	C	1.045401	-0.256988	-0.210096
H139	H	1.001624	-0.273952	-0.324650
H140	H	0.967098	-0.222104	-0.292892
H141	H	1.058550	-0.232445	-0.329329
H142	H	1.002632	-0.269980	-0.176927
H143	H	1.094080	-0.280331	-0.213361
O144	O	0.991909	-0.407915	-0.239923
C145	C	0.992487	-0.374841	-0.311145
H146	H	1.019718	-0.340908	-0.287462
H147	H	0.925174	-0.364398	-0.335969
C148	C	1.013820	-0.440334	-0.416491
C149	C	1.047272	-0.398659	-0.387405
H150	H	1.047610	-0.455027	-0.463534
H151	H	1.013428	-0.462617	-0.368508
H152	H	0.957726	-0.431626	-0.437171
H153	H	1.103360	-0.407369	-0.366715
H154	H	1.047675	-0.376378	-0.435386
O155	O	0.526359	0.159018	0.000008
C156	C	0.614724	0.159295	-0.000761
H157	H	0.646206	0.123508	-0.029257
H158	H	0.638085	0.163935	0.070090
C159	C	0.598499	0.245630	-0.023817
C160	C	0.637166	0.201676	-0.058823
H161	H	0.612343	0.271773	-0.059628
H162	H	0.538966	0.245443	-0.023296
H163	H	0.617970	0.249489	0.035225
H164	H	0.617686	0.197814	-0.117859
H165	H	0.696697	0.201863	-0.059355
H166	H	0.990801	-0.463834	0.227127
H167	H	0.428727	0.107992	0.134709
O168	O	0.984898	-0.791185	-0.159140
C169	C	0.911614	-0.814874	-0.163944
H170	H	0.861019	-0.795844	-0.118139
H171	H	0.927389	-0.854323	-0.142253
C172	C	0.940742	-0.836539	-0.316627
C173	C	0.878598	-0.813163	-0.260374
H174	H	0.920377	-0.835486	-0.376109
H175	H	0.990117	-0.820581	-0.313390
H176	H	0.953882	-0.869411	-0.298540
H177	H	0.865467	-0.780290	-0.278454
H178	H	0.829220	-0.829115	-0.263616
O179	O	0.984979	-0.791104	0.159156
C180	C	0.985575	-0.758041	0.230389
H181	H	0.959613	-0.720097	0.206720
H182	H	1.053080	-0.757759	0.255209
C183	C	0.961994	-0.820166	0.335714
C184	C	0.930100	-0.773563	0.306646
H185	H	0.927778	-0.829741	0.382756
H186	H	0.961595	-0.842441	0.287724
H187	H	1.018247	-0.819924	0.356392
H188	H	0.873852	-0.773807	0.285959
H189	H	0.930488	-0.751288	0.354635
H190	H	0.986702	-0.695760	0.146408
O191	O	0.991734	-0.407917	0.239907
C192	C	0.992325	-0.374851	0.311134
H193	H	0.966371	-0.336908	0.287456
H194	H	1.059828	-0.374569	0.335963
C195	C	0.968723	-0.436967	0.416467
C196	C	0.936839	-0.390366	0.387387
H197	H	0.934501	-0.446539	0.463506
H198	H	0.968328	-0.459246	0.368481
H199	H	1.024975	-0.436727	0.437152
H200	H	0.880593	-0.390608	0.366693
H201	H	0.937223	-0.368088	0.435372
H202	H	0.990870	-0.463816	-0.227168
O203	O	1.112395	-0.002831	0.560439
C204	C	1.192115	0.007215	0.529998
H205	H	1.189176	0.047500	0.513433
H206	H	1.210277	-0.015209	0.467806
C207	C	1.262241	-0.055420	0.623478
C208	C	1.258633	-0.005939	0.603140
H209	H	1.303275	-0.063536	0.668593
H210	H	1.208533	-0.062189	0.643984
H211	H	1.277373	-0.074101	0.571646
H212	H	1.243491	0.012741	0.654969
H213	H	1.312341	0.000833	0.582644
H214	H	0.996019	-0.172130	0.146456
O215	O	0.997557	-0.076661	0.159117
C216	C	0.925305	-0.042006	0.163907
H217	H	0.874185	-0.053374	0.118100
H218	H	0.942440	-0.005037	0.142209
C219	C	0.955076	-0.024770	0.316589
C220	C	0.892287	-0.038735	0.260333
H221	H	0.934709	-0.022749	0.376069
H222	H	1.003755	-0.048116	0.313361
H223	H	0.969349	0.006036	0.298497
H224	H	0.878022	-0.069542	0.278419
H225	H	0.843604	-0.015393	0.263566
O226	O	0.989043	-0.559182	-0.239905
C227	C	0.916475	-0.541385	-0.288987
H228	H	0.892874	-0.502945	-0.266049
H229	H	0.865004	-0.565913	-0.277774
C230	C	0.967601	-0.587946	-0.416908
C231	C	0.938618	-0.540732	-0.388740
H232	H	0.981258	-0.587545	-0.478441
H233	H	1.016491	-0.599938	-0.383840
H234	H	0.924704	-0.608381	-0.407556
H235	H	0.981519	-0.520299	-0.398082
H236	H	0.889736	-0.528737	-0.421812
H237	H	0.989174	-0.555288	0.227121
H238	H	0.962461	-0.014531	0.444215
