data_functionalizedCrystal
_audit_creation_method	'MofGen! by Chris Wilmer'
_symmetry_space_group_name_H-M	'P1'
_symmetry_Int_Tables_number	1
_symmetry_cell_setting	triclinic
loop_
_symmetry_equiv_pos_as_xyz
  x,y,z
_cell_length_a	19.121063
_cell_length_b	13.897449
_cell_length_c	13.897431
_cell_angle_alpha	90.049745
_cell_angle_beta	92.361648
_cell_angle_gamma	87.529779
loop_
_atom_site_label
_atom_site_type_symbol
_atom_site_fract_x
_atom_site_fract_y
_atom_site_fract_z
Zn1	Zn	-0.279244	-1.458561	-0.561708
Zn2	Zn	-0.396796	-1.451462	-0.407281
Zn3	Zn	-0.279370	-1.297161	-0.400433
Zn4	Zn	-0.396657	-1.290328	-0.568526
O5	O	-0.338017	-1.374378	-0.484487
O6	O	-0.294843	-1.592600	-0.541235
O7	O	-0.381330	-1.430882	-0.271398
O8	O	-0.181072	-1.324401	-0.416107
O9	O	-0.381208	-1.587385	-0.427779
O10	O	-0.180979	-1.442981	-0.534595
O11	O	-0.295058	-1.317518	-0.266366
O12	O	-0.294923	-1.161273	-0.422719
O13	O	-0.380971	-1.312756	-0.702597
O14	O	-0.381093	-1.156253	-0.546216
O15	O	-0.294708	-1.436356	-0.697588
O16	O	-0.495059	-1.424257	-0.434390
O17	O	-0.494957	-1.305873	-0.552856
C18	C	-0.338007	-1.123764	-0.484465
C19	C	-0.338020	-1.016550	-0.484479
C20	C	-0.520491	-1.363579	-0.495127
C21	C	-0.598554	-1.359048	-0.499712
C22	C	-0.337810	-1.374586	-0.736069
C23	C	-0.337722	-1.374675	-0.843278
C24	C	-0.635258	-1.418603	-0.440237
C25	C	-0.708607	-1.414347	-0.444555
C26	C	-0.745250	-1.350530	-0.508342
C27	C	-0.708541	-1.290972	-0.567822
C28	C	-0.635193	-1.295234	-0.563509
C29	C	-0.966710	-1.334580	-0.524451
C30	C	-1.040063	-1.330321	-0.528758
C31	C	-1.040123	-1.453698	-0.405491
C32	C	-0.966775	-1.457949	-0.401180
C33	C	-0.930072	-1.398396	-0.460664
C34	C	-0.820224	-1.346175	-0.512754
C35	C	-0.855099	-1.402755	-0.456256
C36	C	-0.154830	-1.385245	-0.473827
C37	C	-0.076767	-1.389876	-0.469284
C38	C	-0.338027	-1.625970	-0.484510
C39	C	-0.338031	-1.733184	-0.484520
C40	C	-0.338023	-0.820254	-0.484504
C41	C	-0.338019	-0.929487	-0.484487
C42	C	-0.338172	-1.374229	-0.233881
C43	C	-0.338062	-1.374339	-0.126661
C44	C	-0.337963	-1.374445	-0.039586
C45	C	-0.337831	-1.374575	0.069654
H46	H	-0.605428	-1.470565	-0.388291
H47	H	-0.936832	-1.286087	-0.572884
H48	H	-0.825262	-1.454719	-0.404324
C49	C	-1.080369	-1.260121	-0.598938
N50	N	-1.110727	-1.207249	-0.651795
C51	C	-0.748978	-1.479856	-0.379122
N52	N	-0.779385	-1.529200	-0.329833
H53	H	-0.936941	-1.509914	-0.349239
C54	C	-0.594819	-1.229719	-0.628936
N55	N	-0.564410	-1.180373	-0.678220
H56	H	-0.850067	-1.294214	-0.564687
H57	H	-1.070015	-1.502184	-0.357064
C58	C	-0.748851	-1.220769	-0.637985
N59	N	-0.779212	-1.167887	-0.690830
