data_functionalizedCrystal
_audit_creation_method	'MofGen! by Chris Wilmer'
_symmetry_space_group_name_H-M	'P1'
_symmetry_Int_Tables_number	1
_symmetry_cell_setting	triclinic
loop_
_symmetry_equiv_pos_as_xyz
  x,y,z
_cell_length_a	19.077409
_cell_length_b	13.031981
_cell_length_c	19.076919
_cell_angle_alpha	84.787276
_cell_angle_beta	94.476475
_cell_angle_gamma	99.759648
loop_
_atom_site_label
_atom_site_type_symbol
_atom_site_fract_x
_atom_site_fract_y
_atom_site_fract_z
Zn1	Zn	1.030978	-0.373940	-0.324672
Zn2	Zn	1.021885	-0.541415	-0.193008
Zn3	Zn	0.917830	-0.373974	-0.211518
Zn4	Zn	0.898118	-0.555991	-0.314371
O5	O	0.967203	-0.461330	-0.260892
O6	O	1.128922	-0.390041	-0.303771
O7	O	1.012527	-0.513119	-0.097317
O8	O	0.944894	-0.227706	-0.238585
O9	O	1.122241	-0.513085	-0.207038
O10	O	1.028024	-0.227681	-0.321719
O11	O	0.936078	-0.390101	-0.110916
O12	O	0.816065	-0.404234	-0.228596
O13	O	0.911297	-0.537926	-0.413883
O14	O	0.801583	-0.537960	-0.304162
O15	O	1.008909	-0.404174	-0.421452
O16	O	0.993412	-0.689612	-0.197050
O17	O	0.902481	-0.700321	-0.286214
C18	C	0.783116	-0.472683	-0.267270
C19	C	0.704359	-0.477566	-0.270014
C20	C	0.260238	-0.512508	-0.289728
C21	C	0.334238	-0.507927	-0.287137
C22	C	0.378760	-0.435909	-0.246582
C23	C	0.349280	-0.368475	-0.208610
C24	C	0.275281	-0.373062	-0.211197
C25	C	0.600880	-0.414719	-0.234629
C26	C	0.674883	-0.410135	-0.232046
C27	C	0.659836	-0.549589	-0.310573
C28	C	0.585837	-0.554165	-0.313160
C29	C	0.556363	-0.486735	-0.275185
N30	N	0.454400	-0.431223	-0.243934
N31	N	0.480724	-0.491427	-0.277829
C32	C	0.944839	-0.732891	-0.238520
C33	C	0.935336	-0.849063	-0.228970
C34	C	0.972200	-0.900765	-0.265889
C35	C	0.962378	-1.020835	-0.256020
C36	C	1.152009	-0.449933	-0.254489
C37	C	1.230762	-0.445077	-0.251761
C38	C	0.958919	-0.472672	-0.443827
C39	C	0.955389	-0.477506	-0.521783
C40	C	0.989672	-0.188709	-0.283366
C41	C	0.999247	-0.072534	-0.292943
C42	C	1.004549	-0.410142	-0.562349
C43	C	1.001223	-0.414680	-0.635597
C44	C	0.948741	-0.486588	-0.668278
C45	C	0.899575	-0.553954	-0.627708
C46	C	0.902898	-0.549410	-0.554461
C47	C	0.933351	-0.507640	-0.886920
C48	C	0.930033	-0.512181	-0.960172
C49	C	1.031681	-0.372905	-0.968056
C50	C	1.035001	-0.368372	-0.894807
C51	C	0.985834	-0.435735	-0.854244
N52	N	0.945342	-0.491231	-0.743150
N53	N	0.989230	-0.431086	-0.779374
C54	C	0.975502	-0.449954	-0.078673
C55	C	0.979193	-0.444817	-0.000737
H56	H	1.011029	-0.856140	-0.304806
O57	O	0.915998	-1.074183	-0.209682
C58	C	0.810718	-1.202957	-0.193414
C59	C	0.863198	-1.142631	-0.245962
H60	H	0.768007	-1.258296	-0.222728
H61	H	0.840741	-1.249840	-0.151477
H62	H	0.784525	-1.145332	-0.167138
H63	H	0.889405	-1.200183	-0.272289
H64	H	0.833138	-1.095733	-0.287855
O65	O	0.879134	-0.582132	-0.991943
C66	C	0.854212	-0.728907	-1.063387
C67	C	0.911923	-0.649776	-1.027425
H68	H	0.880700	-0.783604	-1.092095
H69	H	0.819640	-0.776351	-1.021843
H70	H	0.819565	-0.685290	-1.102888
H71	H	0.946620	-0.693310	-0.987927
H72	H	0.946444	-0.602334	-1.069008
H73	H	0.893324	-0.562506	-0.853900
O74	O	0.542507	-0.624176	-0.352451
C75	C	0.446951	-0.771095	-0.353001
C76	C	0.495967	-0.691859	-0.308423
H77	H	0.409321	-0.825851	-0.317421
H78	H	0.414545	-0.727676	-0.394869
H79	H	0.480740	-0.818463	-0.379715
H80	H	0.462232	-0.644469	-0.281664
H81	H	0.528377	-0.735340	-0.266596
O82	O	1.045570	-1.019145	-0.339320
C83	C	1.097539	-0.850800	-0.391496
C84	C	1.045069	-0.911130	-0.338939
H85	H	1.097140	-0.763461	-0.391216
H86	H	1.153527	-0.867765	-0.375510
H87	H	1.080755	-0.876528	-0.446713
H88	H	1.061788	-0.885438	-0.283706
H89	H	0.989094	-0.894163	-0.354985
H90	H	1.071709	-0.318061	-1.001091
H91	H	0.856840	-0.612499	-0.654323
H92	H	0.358233	-0.562838	-0.318053
O93	O	1.086022	-0.298639	-0.863006
C94	C	1.186527	-0.273478	-0.778089
C95	C	1.128806	-0.352574	-0.814070
H96	H	1.221123	-0.317051	-0.738506
H97	H	1.221149	-0.226092	-0.819617
H98	H	1.160003	-0.218718	-0.749474
H99	H	1.155270	-0.407400	-0.842683
H100	H	1.094190	-0.399883	-0.772511
H101	H	0.683843	-0.604487	-0.341489
H102	H	0.896501	-0.893691	-0.190060
O103	O	1.055557	-0.340197	-0.530721
C104	C	1.156049	-0.202573	-0.546276
C105	C	1.098309	-0.281723	-0.582183
H106	H	1.190639	-0.155290	-0.587866
H107	H	1.129619	-0.147728	-0.517638
H108	H	1.190668	-0.246164	-0.506728
H109	H	1.063672	-0.238219	-0.621763
H110	H	1.124785	-0.336565	-0.610775
O111	O	0.572373	-0.349107	-0.197729
C112	C	0.595112	-0.210339	-0.119541
C113	C	0.627494	-0.284573	-0.161310
H114	H	0.639660	-0.158160	-0.090074
H115	H	0.563535	-0.159837	-0.157481
H116	H	0.558156	-0.258124	-0.080106
H117	H	0.664481	-0.236870	-0.200747
H118	H	0.659028	-0.335078	-0.123327
O119	O	0.217092	-0.582555	-0.329139
C120	C	0.209990	-0.720339	-0.406791
C121	C	0.258930	-0.641077	-0.362173
H122	H	0.243796	-0.767661	-0.433523
H123	H	0.172313	-0.775136	-0.371277
H124	H	0.177623	-0.676841	-0.448648
H125	H	0.291342	-0.684488	-0.320312
H126	H	0.296560	-0.586283	-0.397733
O127	O	0.392596	-0.298658	-0.169164
C128	C	0.481545	-0.273332	-0.072721
C129	C	0.432538	-0.352514	-0.117347
H130	H	0.513840	-0.316844	-0.030808
H131	H	0.519278	-0.218620	-0.108228
H132	H	0.447754	-0.225903	-0.046061
H133	H	0.466272	-0.400014	-0.144014
H134	H	0.394803	-0.407154	-0.081807
O135	O	1.048883	-0.349131	-0.675042
C136	C	1.066287	-0.212574	-0.769056
C137	C	1.012237	-0.286747	-0.724429
H138	H	1.036679	-0.162133	-0.809006
H139	H	1.104358	-0.160332	-0.733148
H140	H	1.097842	-0.260408	-0.798085
H141	H	0.980633	-0.238996	-0.695394
H142	H	0.974214	-0.338991	-0.760373
O143	O	0.855116	-0.614967	-0.515153
C144	C	0.753934	-0.753571	-0.515061
C145	C	0.808013	-0.679401	-0.559658
H146	H	0.715828	-0.805669	-0.551026
H147	H	0.783483	-0.804158	-0.475157
H148	H	0.722426	-0.705733	-0.485982
H149	H	0.839536	-0.727156	-0.588782
H150	H	0.778422	-0.628811	-0.599519
H151	H	0.251283	-0.318150	-0.180282
H152	H	0.711133	-0.351477	-0.199027
