data_functionalizedCrystal
_audit_creation_method	'MofGen! by Chris Wilmer'
_symmetry_space_group_name_H-M	'P1'
_symmetry_Int_Tables_number	1
_symmetry_cell_setting	triclinic
loop_
_symmetry_equiv_pos_as_xyz
  x,y,z
_cell_length_a	11.169417
_cell_length_b	19.077068
_cell_length_c	11.169409
_cell_angle_alpha	87.740935
_cell_angle_beta	90.019824
_cell_angle_gamma	92.327792
loop_
_atom_site_label
_atom_site_type_symbol
_atom_site_fract_x
_atom_site_fract_y
_atom_site_fract_z
Zn1	Zn	1.815630	-0.280126	0.697665
Zn2	Zn	1.807395	-0.397846	0.505018
Zn3	Zn	1.614913	-0.280169	0.497002
Zn4	Zn	1.606803	-0.397789	0.705659
O5	O	1.711185	-0.338983	0.601336
O6	O	1.982486	-0.295748	0.672119
O7	O	1.781809	-0.382278	0.336008
O8	O	1.648378	-0.181673	0.516921
O9	O	1.976436	-0.382237	0.530582
O10	O	1.795844	-0.181642	0.664347
O11	O	1.640393	-0.295821	0.330119
O12	O	1.445887	-0.295766	0.524672
O13	O	1.634556	-0.382139	0.872546
O14	O	1.439929	-0.382181	0.677971
O15	O	1.787981	-0.295693	0.866672
O16	O	1.773945	-0.496329	0.538333
O17	O	1.626571	-0.496287	0.685743
C18	C	1.399361	-0.338972	0.601320
C19	C	1.265960	-0.338984	0.601343
C20	C	1.698517	-0.521846	0.613802
C21	C	1.693208	-0.600075	0.619175
C22	C	1.767503	-0.636826	0.545014
C23	C	1.762516	-0.710331	0.550075
C24	C	1.683227	-0.747084	0.629291
C25	C	1.608929	-0.710328	0.703460
C26	C	1.613923	-0.636824	0.698404
C27	C	1.660064	-0.966916	0.652640
C28	C	1.655073	-1.040425	0.657687
C29	C	1.808662	-1.040424	0.504303
C30	C	1.813643	-0.966918	0.499250
C31	C	1.739350	-0.930169	0.573423
N32	N	1.678125	-0.822218	0.634463
N33	N	1.744459	-0.855036	0.568256
C34	C	2.024226	-0.338994	0.601353
C35	C	2.157626	-0.338999	0.601360
C36	C	1.711282	-0.338905	0.914373
C37	C	1.711324	-0.338871	1.047771
C38	C	1.723935	-0.155406	0.588848
C39	C	1.729368	-0.077176	0.583526
C40	C	1.711160	-0.339010	0.289513
C41	C	1.711365	-0.338845	0.156103
H42	H	1.832062	-0.606907	0.480503
C43	C	1.578399	-0.926501	0.734294
N44	N	1.516908	-0.896058	0.795823
H45	H	1.878206	-0.936996	0.434746
C46	C	1.844239	-0.750754	0.468484
N47	N	1.905795	-0.781200	0.407024
C48	C	1.890383	-1.080854	0.422722
N49	N	1.951941	-1.111307	0.361274
C50	C	1.567853	-1.080852	0.744842
N51	N	1.502164	-1.111301	0.810485
H52	H	1.544376	-0.740258	0.767964
C53	C	1.532193	-0.596398	0.779988
N54	N	1.470634	-0.565951	0.841442
