data_functionalizedCrystal
_audit_creation_method	'MofGen! by Chris Wilmer'
_symmetry_space_group_name_H-M	'P1'
_symmetry_Int_Tables_number	1
_symmetry_cell_setting	triclinic
loop_
_symmetry_equiv_pos_as_xyz
  x,y,z
_cell_length_a	23.532361
_cell_length_b	22.010155
_cell_length_c	10.723024
_cell_angle_alpha	89.996780
_cell_angle_beta	96.351231
_cell_angle_gamma	90.011417
loop_
_atom_site_label
_atom_site_type_symbol
_atom_site_fract_x
_atom_site_fract_y
_atom_site_fract_z
O1	O	0.756267	0.050463	-0.151188
O2	O	0.590543	0.050477	-0.173164
O3	O	0.677228	0.050467	0.019521
O4	O	0.669582	0.050473	-0.343873
O5	O	0.677201	-0.050583	0.019521
O6	O	0.590516	-0.050573	-0.173164
O7	O	0.756241	-0.050588	-0.151188
Cu8	Cu	0.673376	-0.059807	-0.162176
Cu9	Cu	0.673407	0.059697	-0.162176
O10	O	0.669556	-0.050578	-0.343873
C11	C	0.569309	-0.000046	-0.172614
C12	C	0.506080	-0.000041	-0.170959
N13	N	0.673358	-0.143860	-0.162175
C14	C	0.232804	0.055038	-0.163722
C15	C	0.292214	0.055040	-0.165288
O16	O	0.322957	0.101884	-0.166055
N17	N	0.321910	-0.000043	-0.166080
C18	C	0.292194	-0.055131	-0.165292
O19	O	0.322909	-0.101983	-0.166107
C20	C	0.232786	-0.055132	-0.163716
C21	C	0.203092	-0.000045	-0.162938
C22	C	0.203110	0.110120	-0.162942
C23	C	0.143704	0.110118	-0.161378
C24	C	0.113992	0.055035	-0.160594
C25	C	0.143686	-0.000047	-0.161374
C26	C	0.203072	-0.110219	-0.162919
C27	C	0.143659	-0.110215	-0.161343
C28	C	0.113965	-0.055129	-0.160565
C29	C	0.054568	-0.055133	-0.159026
N30	N	0.024872	-0.000050	-0.158235
C31	C	0.054584	0.055034	-0.159019
C32	C	0.416956	-0.055125	-0.168598
C33	C	0.476363	-0.055125	-0.170182
C34	C	0.476378	0.055046	-0.170176
C35	C	0.416970	0.055045	-0.168601
C36	C	0.387260	-0.000042	-0.167806
C37	C	-0.070173	0.055026	-0.155736
C38	C	-0.129585	0.055019	-0.154177
C39	C	-0.129595	-0.055151	-0.154176
C40	C	-0.070189	-0.055145	-0.155741
C41	C	-0.040479	-0.000051	-0.156517
O42	O	0.023788	-0.101953	-0.158253
O43	O	0.023863	0.101878	-0.158186
C44	C	0.708242	-0.563641	-0.237444
C45	C	0.708249	-0.627249	-0.237441
O46	O	0.737888	-0.660142	-0.301428
N47	N	0.673418	-0.659067	-0.162162
C48	C	0.638583	-0.627274	-0.086871
O49	O	0.608958	-0.660178	-0.022840
C50	C	0.638580	-0.563667	-0.086869
C51	C	0.673408	-0.531853	-0.162162
C52	C	0.743068	-0.531826	-0.312730
C53	C	0.743060	-0.468223	-0.312735
C54	C	0.708227	-0.436435	-0.237453
C55	C	0.673401	-0.468249	-0.162167
C56	C	0.603749	-0.531876	-0.011573
C57	C	0.603749	-0.468265	-0.011576
C58	C	0.638577	-0.436450	-0.086869
C59	C	0.638560	-0.372858	-0.086890
N60	N	0.673390	-0.341040	-0.162169
C61	C	0.708224	-0.372828	-0.237450
C62	C	0.638594	-0.760852	-0.086881
C63	C	0.638593	-0.824457	-0.086890
C64	C	0.708260	-0.824427	-0.237457
C65	C	0.708257	-0.760821	-0.237455
C66	C	0.673424	-0.729034	-0.162160
C67	C	0.708205	-0.239257	-0.237455
C68	C	0.708192	-0.175648	-0.237457
C69	C	0.638528	-0.175683	-0.086885
C70	C	0.638538	-0.239286	-0.086887
C71	C	0.673381	-0.271072	-0.162176
O72	O	0.608938	-0.339924	-0.022931
O73	O	0.737849	-0.339916	-0.301459
C74	C	0.777474	-0.000063	-0.151738
C75	C	0.840703	-0.000064	-0.153393
C76	C	0.676658	-0.000057	0.066003
C77	C	0.674993	-0.000055	0.204504
N78	N	0.673430	0.143749	-0.162167
C79	C	0.670125	-0.000052	-0.390355
C80	C	0.671790	-0.000050	-0.528857
C81	C	0.723498	-0.000058	0.281016
C82	C	0.721778	-0.000056	0.424165
H83	H	-0.153759	0.099879	-0.153547
O84	O	0.505300	0.108518	-0.171097
C85	C	0.533622	0.111823	-0.280096
H86	H	0.540497	0.063998	-0.316371
H87	H	0.506510	0.139013	-0.355169
C88	C	0.583452	0.202048	-0.204196
C89	C	0.591900	0.143308	-0.248743
H90	H	0.619399	0.221471	-0.184859
H91	H	0.564369	0.199823	-0.130763
H92	H	0.560857	0.224698	-0.266764
H93	H	0.614488	0.120656	-0.186170
H94	H	0.610988	0.145529	-0.322166
O95	O	0.505118	-0.108690	-0.170894
C96	C	0.466145	-0.157304	-0.169901
H97	H	0.426005	-0.141152	-0.129277
H98	H	0.454235	-0.174238	-0.269851
C99	C	0.543183	-0.229190	-0.138570
C100	C	0.493885	-0.209352	-0.088665
H101	H	0.560294	-0.261297	-0.088465
H102	H	0.569440	-0.196438	-0.139244
H103	H	0.533251	-0.243297	-0.221860
H104	H	0.503818	-0.195238	-0.005383
H105	H	0.467629	-0.242103	-0.087975
H106	H	0.766297	-0.000065	0.240543
H107	H	-0.046012	-0.100001	-0.156400
O108	O	0.231875	0.163687	-0.163761
C109	C	0.192917	0.212295	-0.162701
H110	H	0.148363	0.196135	-0.201078
H111	H	0.192191	0.229234	-0.062420
C112	C	0.266251	0.284191	-0.198030
C113	C	0.211529	0.264343	-0.245176
H114	H	0.277732	0.316298	-0.248899
H115	H	0.292498	0.251443	-0.198739
H116	H	0.265639	0.298302	-0.114463
H117	H	0.212144	0.250226	-0.328734
H118	H	0.185282	0.297090	-0.244482
O119	O	0.771265	-0.000031	0.502761
C120	C	0.758532	-0.000044	0.628190
H121	H	0.713777	0.019089	0.632486
H122	H	0.760511	-0.048523	0.665861
C123	C	0.857372	0.016082	0.703236
C124	C	0.802406	0.039587	0.708513
H125	H	0.884437	0.040526	0.752786
H126	H	0.865952	0.016088	0.618733
H127	H	0.859014	-0.024317	0.734627
H128	H	0.800763	0.079982	0.677108
H129	H	0.793827	0.039588	0.793013
H130	H	0.610166	-0.149789	-0.025596
H131	H	0.630264	-0.000052	0.405409
O132	O	0.388219	0.108610	-0.167786
C133	C	0.427188	0.157224	-0.168856
H134	H	0.471738	0.141071	-0.130471
H135	H	0.427920	0.174160	-0.269140
C136	C	0.353870	0.229109	-0.133551
C137	C	0.408586	0.209270	-0.086396
H138	H	0.342395	0.261215	-0.082691
H139	H	0.327615	0.196357	-0.132835
H140	H	0.354487	0.243218	-0.217121
H141	H	0.407967	0.195154	-0.002834
H142	H	0.434841	0.242021	-0.087096
H143	H	0.771424	-0.442325	-0.374041
H144	H	0.575388	-0.557768	0.049741
H145	H	0.610171	-0.265191	-0.025593
H146	H	0.610223	-0.734974	-0.025572
O147	O	0.623897	-0.000129	0.252628
C148	C	0.592724	-0.052469	0.211496
H149	H	0.608534	-0.069922	0.121371
H150	H	0.599062	-0.089115	0.286890
C151	C	0.509338	-0.015130	0.297155
C152	C	0.528753	-0.036563	0.186456
H153	H	0.469877	-0.005319	0.281714
H154	H	0.530339	0.020132	0.324871
H155	H	0.514624	-0.045671	0.359973
H156	H	0.523473	-0.006019	0.123646
H157	H	0.507748	-0.071819	0.158729
O158	O	-0.041411	0.108597	-0.156554
C159	C	-0.080367	0.157207	-0.155503
H160	H	-0.124921	0.141048	-0.193885
H161	H	-0.081096	0.174147	-0.055224
C162	C	-0.007029	0.229099	-0.190826
C163	C	-0.061751	0.209253	-0.237977
H164	H	0.004455	0.261204	-0.241695
H165	H	0.019217	0.196350	-0.191529
H166	H	-0.007644	0.243211	-0.107261
H167	H	-0.061134	0.195133	-0.321534
H168	H	-0.087997	0.242000	-0.237290
H169	H	0.119532	0.154975	-0.160739
O170	O	0.742080	-0.144838	-0.310631
C171	C	0.772816	-0.186540	-0.377092
H172	H	0.775942	-0.231880	-0.325392
H173	H	0.749738	-0.193312	-0.475304
C174	C	0.829505	-0.106012	-0.450361
C175	C	0.833348	-0.161697	-0.386856
H176	H	0.866843	-0.090687	-0.456390
H177	H	0.808796	-0.077916	-0.405589
H178	H	0.810270	-0.111663	-0.532198
H179	H	0.852576	-0.156044	-0.305016
H180	H	0.854061	-0.189792	-0.431615
O181	O	-0.158392	-0.108695	-0.153245
C182	C	-0.137861	-0.142198	-0.045527
H183	H	-0.092709	-0.126540	-0.010640
H184	H	-0.167068	-0.134553	0.031038
C185	C	-0.192425	-0.229501	-0.121262
C186	C	-0.136968	-0.210274	-0.078420
H187	H	-0.191877	-0.271494	-0.141548
H188	H	-0.206260	-0.206930	-0.193831
H189	H	-0.216759	-0.223126	-0.057450
H190	H	-0.112637	-0.216643	-0.142236
H191	H	-0.123130	-0.232848	-0.005861
O192	O	0.388024	-0.108602	-0.168006
C193	C	0.347635	-0.111907	-0.275190
H194	H	0.336726	-0.064081	-0.310984
H195	H	0.366303	-0.139085	-0.351479
C196	C	0.306432	-0.202150	-0.196902
C197	C	0.293030	-0.143409	-0.240859
H198	H	0.272750	-0.221584	-0.175729
H199	H	0.333644	-0.199925	-0.124692
H200	H	0.321990	-0.224790	-0.260484
H201	H	0.277479	-0.120767	-0.177273
H202	H	0.265814	-0.145631	-0.313058
O203	O	0.776922	-0.562605	-0.385984
C204	C	0.807666	-0.520873	-0.452396
H205	H	0.784113	-0.475541	-0.459924
H206	H	0.852167	-0.514097	-0.400486
C207	C	0.841880	-0.601354	-0.575652
C208	C	0.812949	-0.545678	-0.584906
H209	H	0.845142	-0.616655	-0.657388
H210	H	0.821169	-0.629471	-0.530906
H211	H	0.878961	-0.595700	-0.532388
H212	H	0.775867	-0.551334	-0.628155
H213	H	0.833654	-0.517563	-0.629663
H214	H	0.227239	-0.155076	-0.163549
O215	O	0.741967	-0.270194	-0.310666
C216	C	0.707579	-0.306983	-0.396231
H217	H	0.665179	-0.316535	-0.357880
H218	H	0.699217	-0.282465	-0.490121
C219	C	0.790662	-0.355655	-0.461780
C220	C	0.738587	-0.367391	-0.414670
H221	H	0.809790	-0.392916	-0.473160
H222	H	0.813830	-0.330868	-0.404137
H223	H	0.783687	-0.335221	-0.540016
H224	H	0.745564	-0.387817	-0.336429
H225	H	0.715421	-0.392183	-0.472301
H226	H	0.736616	-0.734922	-0.298766
H227	H	0.736623	-0.850321	-0.298758
H228	H	0.119472	-0.155075	-0.160707
H229	H	0.610226	-0.850355	-0.025593
H230	H	0.575383	-0.442387	0.049741
