data_functionalizedCrystal
_audit_creation_method	'MofGen! by Chris Wilmer'
_symmetry_space_group_name_H-M	'P1'
_symmetry_Int_Tables_number	1
_symmetry_cell_setting	triclinic
loop_
_symmetry_equiv_pos_as_xyz
  x,y,z
_cell_length_a	16.109301
_cell_length_b	10.654550
_cell_length_c	15.186229
_cell_angle_alpha	89.997420
_cell_angle_beta	89.999006
_cell_angle_gamma	83.973243
loop_
_atom_site_label
_atom_site_type_symbol
_atom_site_fract_x
_atom_site_fract_y
_atom_site_fract_z
O1	O	1.104090	0.161420	-0.073178
O2	O	1.604090	0.661420	0.426822
O3	O	0.862148	0.181508	-0.073190
O4	O	1.362148	0.681508	0.426810
O5	O	0.988682	-0.011350	-0.073180
O6	O	1.488682	0.488650	0.426820
O7	O	0.977556	0.354279	-0.073187
O8	O	1.477556	0.854279	0.426813
O9	O	0.988673	-0.011353	0.073277
O10	O	1.488673	0.488647	0.573277
O11	O	0.862139	0.181506	0.073267
O12	O	1.362139	0.681506	0.573267
O13	O	1.104082	0.161418	0.073279
O14	O	1.604082	0.661418	0.573279
Zn15	Zn	0.983109	0.171461	0.096527
Zn16	Zn	1.483109	0.671461	0.596527
Zn17	Zn	0.983120	0.171465	-0.096437
Zn18	Zn	1.483120	0.671465	0.403563
O19	O	0.977548	0.354276	0.073270
O20	O	1.477548	0.854276	0.573270
C21	C	0.831164	0.180693	0.000037
C22	C	1.331164	0.680693	0.500037
C23	C	0.738854	0.178254	0.000032
C24	C	1.238854	0.678254	0.500032
C25	C	0.430489	0.284717	0.000046
C26	C	0.930489	0.784717	0.500046
C27	C	0.517223	0.287021	0.000041
C28	C	1.017223	0.787021	0.500041
C29	C	0.535735	0.058200	0.000033
C30	C	1.035735	0.558200	0.500033
C31	C	0.449003	0.055898	0.000032
C32	C	0.949003	0.555898	0.500032
C33	C	0.396381	0.169160	0.000043
C34	C	0.896381	0.669160	0.500043
C35	C	0.569848	0.173766	0.000039
C36	C	1.069848	0.673766	0.500039
C37	C	0.663889	0.176264	0.000033
C38	C	1.163889	0.676264	0.500033
C39	C	0.302335	0.166663	0.000047
C40	C	0.802335	0.666663	0.500047
C41	C	0.987861	-0.058139	0.000047
C42	C	1.487861	0.441861	0.500047
C43	C	0.985417	-0.197549	0.000044
C44	C	1.485417	0.302451	0.500044
C45	C	1.059918	-0.278045	0.000050
C46	C	1.559918	0.221955	0.500050
C47	C	1.057616	-0.409035	0.000044
C48	C	1.557616	0.090965	0.500044
C49	C	0.906306	-0.379019	0.000029
C50	C	1.406306	0.120981	0.500029
C51	C	0.908608	-0.248032	0.000029
C52	C	1.408608	0.251968	0.500029
C53	C	1.136726	-0.227562	0.000066
C54	C	1.636726	0.272438	0.500066
C55	C	1.211233	-0.308060	0.000073
C56	C	1.711233	0.191940	0.500073
C57	C	1.208932	-0.439049	0.000067
C58	C	1.708932	0.060951	0.500067
C59	C	1.132123	-0.489541	0.000053
C60	C	1.632123	0.010459	0.500053
C61	C	1.135066	0.162233	0.000050
C62	C	1.635066	0.662233	0.500050
C63	C	1.227375	0.164673	0.000049
C64	C	1.727375	0.664673	0.500049
C65	C	0.978369	0.401065	0.000040
C66	C	1.478369	0.901065	0.500040
C67	C	0.980813	0.540475	0.000038
C68	C	1.480813	1.040475	0.500038
N69	N	0.983107	0.171458	0.228219
N70	N	1.483107	0.671458	0.728219
N71	N	0.983128	0.171458	-0.228130
N72	N	1.483128	0.671458	0.271870
C73	C	1.039156	0.086089	0.453946
C74	C	1.539156	0.586089	0.953946
C75	C	1.039159	0.086086	0.546136
C76	C	1.539159	0.586086	1.046136
C77	C	0.927074	0.256831	0.546137
C78	C	1.427074	0.756831	1.046137
C79	C	0.927068	0.256827	0.453949
C80	C	1.427068	0.756827	0.953949
C81	C	0.983114	0.171458	0.407856
C82	C	1.483114	0.671458	0.907856
C83	C	0.983122	0.171459	0.592234
C84	C	1.483122	0.671459	1.092234
C85	C	0.983125	0.171456	0.692190
C86	C	1.483125	0.671456	1.192190
C87	C	0.983110	0.171458	0.307893
C88	C	1.483110	0.671458	0.807893
H89	H	0.387646	0.376942	0.000054
H90	H	0.887646	0.876942	0.500054
C91	C	0.865420	0.350740	0.403246
C92	C	1.365420	0.850740	0.903246
H93	H	0.832050	0.401596	0.443899
H94	H	1.332050	0.901596	0.943899
H95	H	0.830552	0.305548	0.367288
H96	H	1.330552	0.805548	0.867288
H97	H	0.895632	0.403030	0.367278
H98	H	1.395632	0.903030	0.867278
H99	H	1.084791	0.016574	0.416420
H100	H	1.584791	0.516574	0.916420
C101	C	0.593617	-0.066381	0.000023
C102	C	1.093617	0.433619	0.500023
H103	H	0.560880	-0.135532	0.000012
H104	H	1.060880	0.364468	0.500012
H105	H	0.627838	-0.070251	0.051095
H106	H	1.127838	0.429749	0.551095
H107	H	0.627834	-0.070226	-0.051057
H108	H	1.127834	0.429774	0.448943
C109	C	1.100809	-0.007815	0.596832
C110	C	1.600809	0.492185	1.096832
H111	H	1.134188	-0.058648	0.556175
H112	H	1.634188	0.441352	1.056175
H113	H	1.070607	-0.060108	0.632800
H114	H	1.570607	0.439892	1.132800
H115	H	1.135679	0.037387	0.632788
H116	H	1.635679	0.537387	1.132788
H117	H	0.881444	0.326339	0.583674
H118	H	1.381444	0.826339	1.083674
H119	H	1.269599	-0.504588	0.000064
H120	H	1.769599	-0.004588	0.500064
H121	H	0.544988	0.381119	0.000042
H122	H	1.044988	0.881119	0.500042
C123	C	1.129588	-0.633626	0.000041
C124	C	1.629588	-0.133626	0.500041
H125	H	1.073175	-0.652165	0.000029
H126	H	1.573175	-0.152165	0.500029
H127	H	1.157006	-0.668812	0.051112
H128	H	1.657006	-0.168812	0.551112
H129	H	1.157010	-0.668789	-0.051040
H130	H	1.657010	-0.168789	0.448960
H131	H	0.421234	-0.038208	0.000027
H132	H	0.921234	0.461792	0.500027
H133	H	1.138608	-0.120905	0.000073
H134	H	1.638608	0.379095	0.500073
H135	H	1.273768	-0.266940	0.000062
H136	H	1.773768	0.233060	0.500062
H137	H	0.843772	-0.420140	0.000019
H138	H	1.343772	0.079860	0.500019
H139	H	0.847943	-0.182489	0.000025
H140	H	1.347943	0.317511	0.500025
