data_functionalizedCrystal
_audit_creation_method	'MofGen! by Chris Wilmer'
_symmetry_space_group_name_H-M	'P1'
_symmetry_Int_Tables_number	1
_symmetry_cell_setting	triclinic
loop_
_symmetry_equiv_pos_as_xyz
  x,y,z
_cell_length_a	12.827893
_cell_length_b	12.827892
_cell_length_c	12.827885
_cell_angle_alpha	90.026888
_cell_angle_beta	90.020999
_cell_angle_gamma	90.015540
loop_
_atom_site_label
_atom_site_type_symbol
_atom_site_fract_x
_atom_site_fract_y
_atom_site_fract_z
Zn1	Zn	-1.597656	0.416032	-0.590918
Zn2	Zn	-1.597544	0.590810	-0.416187
Zn3	Zn	-1.422897	0.416078	-0.416186
Zn4	Zn	-1.422876	0.590727	-0.590882
O5	O	-1.510243	0.503412	-0.503543
O6	O	-1.743877	0.439233	-0.567755
O7	O	-1.574338	0.567685	-0.269951
O8	O	-1.446134	0.269836	-0.439380
O9	O	-1.743795	0.567641	-0.439381
O10	O	-1.574529	0.269802	-0.567754
O11	O	-1.446026	0.439310	-0.269950
O12	O	-1.276658	0.439230	-0.439344
O13	O	-1.446099	0.567499	-0.737123
O14	O	-1.276643	0.567543	-0.567693
O15	O	-1.574509	0.439152	-0.737149
O16	O	-1.574318	0.737035	-0.439346
O17	O	-1.445991	0.736974	-0.567693
C18	C	-1.238733	0.503383	-0.503515
C19	C	-1.122580	0.503396	-0.503528
C20	C	-1.510169	0.774922	-0.503538
C21	C	-1.510232	0.891075	-0.503571
C22	C	-1.070775	0.439816	-0.440128
C23	C	-0.950725	0.439828	-0.440140
C24	C	-0.782813	0.503432	-0.503564
C25	C	-0.898966	0.503419	-0.503551
C26	C	-1.573806	0.942855	-0.440134
C27	C	-1.573874	1.062905	-0.440167
C28	C	-1.510314	0.503311	-0.776113
C29	C	-1.510345	0.503269	-0.892267
C30	C	-1.510338	1.230841	-0.503583
C31	C	-1.510357	1.114688	-0.503633
C32	C	-1.573893	0.439746	-0.944065
C33	C	-1.573925	0.439700	-1.064115
C34	C	-1.510232	0.503436	-0.232033
C35	C	-1.510405	0.503185	-0.115881
H36	H	-0.906174	0.385391	-0.385865
H37	H	-1.455858	0.935620	-0.557911
N38	N	-0.957956	0.575533	-0.575458
H39	H	-1.003272	0.533079	-0.623912
H40	H	-1.003152	0.623851	-0.532789
H41	H	-1.078055	0.557841	-0.557812
N42	N	-1.645991	0.367645	-1.123101
H43	H	-1.720664	0.383869	-1.104166
H44	H	-1.635712	0.377851	-1.200480
N45	N	-1.438324	0.575234	-1.056906
H46	H	-1.480798	0.623647	-1.011619
H47	H	-1.389952	0.532665	-1.011681
N48	N	-1.129740	0.367703	-0.368207
H49	H	-1.207142	0.377917	-0.378392
H50	H	-1.110738	0.293072	-0.384581
N51	N	-1.645850	0.883863	-0.368164
H52	H	-1.635592	0.806465	-0.378345
H53	H	-1.629657	0.902952	-0.293502
N54	N	-1.645937	0.367756	-0.885088
H55	H	-1.688352	0.325359	-0.936149
H56	H	-1.603366	0.319447	-0.839802
H57	H	-1.455956	0.557612	-0.936797
N58	N	-1.645965	1.121878	-0.368210
H59	H	-1.635791	1.199278	-0.378429
H60	H	-1.720598	1.102785	-0.384517
H61	H	-1.455921	1.070166	-0.557943
