data_functionalizedCrystal
_audit_creation_method	'MofGen! by Chris Wilmer'
_symmetry_space_group_name_H-M	'P1'
_symmetry_Int_Tables_number	1
_symmetry_cell_setting	triclinic
loop_
_symmetry_equiv_pos_as_xyz
  x,y,z
_cell_length_a	15.944499
_cell_length_b	14.519709
_cell_length_c	13.596369
_cell_angle_alpha	90.006934
_cell_angle_beta	89.992083
_cell_angle_gamma	96.421123
loop_
_atom_site_label
_atom_site_type_symbol
_atom_site_fract_x
_atom_site_fract_y
_atom_site_fract_z
O1	O	1.114724	-0.118716	-0.081852
O2	O	1.448058	0.214617	0.251481
O3	O	1.781391	0.547951	0.584814
O4	O	0.870190	-0.133430	-0.081842
O5	O	1.203523	0.199903	0.251492
O6	O	1.536857	0.533237	0.584825
O7	O	0.998941	0.008178	-0.081839
O8	O	1.332274	0.341511	0.251495
O9	O	1.665607	0.674845	0.584828
O10	O	0.985974	-0.260324	-0.081856
O11	O	1.319307	0.073009	0.251478
O12	O	1.652640	0.406343	0.584811
O13	O	0.998928	0.008186	0.081744
O14	O	1.332261	0.341519	0.415078
O15	O	1.665594	0.674852	0.748411
O16	O	0.870177	-0.133423	0.081741
O17	O	1.203511	0.199911	0.415074
O18	O	1.536844	0.533244	0.748408
O19	O	1.114711	-0.118708	0.081730
O20	O	1.448045	0.214625	0.415064
O21	O	1.781378	0.547958	0.748397
Zn22	Zn	0.992442	-0.126064	0.107708
Zn23	Zn	1.325776	0.207269	0.441041
Zn24	Zn	1.659109	0.540602	0.774375
Zn25	Zn	0.992459	-0.126074	-0.107819
Zn26	Zn	1.325793	0.207259	0.225514
Zn27	Zn	1.659126	0.540592	0.558847
O28	O	0.985961	-0.260317	0.081727
O29	O	1.319294	0.073017	0.415061
O30	O	1.652628	0.406350	0.748394
C31	C	0.838888	-0.132824	-0.000049
C32	C	1.172221	0.200509	0.333284
C33	C	1.505555	0.533843	0.666618
C34	C	0.745637	-0.131018	-0.000045
C35	C	1.078970	0.202316	0.333289
C36	C	1.412304	0.535649	0.666622
C37	C	0.454220	-0.213289	-0.000064
C38	C	0.787554	0.120045	0.333269
C39	C	1.120887	0.453378	0.666602
C40	C	0.515194	-0.170526	-0.080718
C41	C	0.848527	0.162807	0.252615
C42	C	1.181861	0.496141	0.585948
C43	C	0.409991	-0.124456	-0.000067
C44	C	0.743324	0.208877	0.333266
C45	C	1.076658	0.542210	0.666600
C46	C	0.515167	-0.170495	0.080562
C47	C	0.848500	0.162839	0.413895
C48	C	1.181834	0.496172	0.747228
C49	C	0.574905	-0.127685	-0.000054
C50	C	0.908238	0.205648	0.333279
C51	C	1.241571	0.538982	0.666612
C52	C	0.469736	-0.081669	-0.080787
C53	C	0.803070	0.251664	0.252546
C54	C	1.136403	0.584998	0.585879
C55	C	0.469703	-0.081650	0.080565
C56	C	0.803037	0.251683	0.413898
C57	C	1.136370	0.585016	0.747232
C58	C	0.530659	-0.038823	-0.000109
C59	C	0.863992	0.294510	0.333225
C60	C	1.197326	0.627844	0.666558
C61	C	0.314988	-0.122599	-0.000075
C62	C	0.648322	0.210734	0.333258
C63	C	0.981655	0.544068	0.666592
C64	C	0.669906	-0.129536	-0.000053
C65	C	1.003239	0.203798	0.333280
C66	C	1.336573	0.537131	0.666613
C67	C	0.998330	0.042540	-0.000047
C68	C	1.331663	0.375874	0.333286
C69	C	1.664997	0.709207	0.666620
C70	C	0.996519	0.144918	-0.000046
C71	C	1.329852	0.478251	0.333287
C72	C	1.663186	0.811585	0.666620
C73	C	1.146013	-0.119315	-0.000065
C74	C	1.479347	0.214019	0.333269
C75	C	1.812680	0.547352	0.666602
C76	C	1.239264	-0.121121	-0.000075
C77	C	1.572598	0.212213	0.333258
C78	C	1.905931	0.545546	0.666591
C79	C	0.986572	-0.294679	-0.000067
C80	C	1.319905	0.038654	0.333267
C81	C	1.653238	0.371988	0.666600
C82	C	0.988383	-0.397057	-0.000074
C83	C	1.321716	-0.063723	0.333260
C84	C	1.655049	0.269610	0.666593
N85	N	0.992437	-0.126057	0.254800
N86	N	1.325770	0.207276	0.588133
N87	N	1.659104	0.540610	0.921467
C88	C	0.989852	0.519801	-0.000072
C89	C	1.323186	0.853134	0.333262
C90	C	1.656519	1.186468	0.666595
C91	C	0.991704	0.415497	-0.000064
C92	C	1.325037	0.748830	0.333269
C93	C	1.658370	1.082163	0.666602
C94	C	0.993185	0.332363	-0.000058
C95	C	1.326519	0.665696	0.333275
C96	C	1.659852	0.999030	0.666609
C97	C	0.995037	0.228052	-0.000052
C98	C	1.328371	0.561385	0.333281
C99	C	1.661704	0.894719	0.666614
N100	N	0.992471	-0.126074	-0.254911
N101	N	1.325805	0.207259	0.078422
N102	N	1.659138	0.540592	0.411755
C103	C	0.992458	-0.126075	0.656091
C104	C	1.325791	0.207258	0.989424
C105	C	1.659125	0.540592	1.322758
C106	C	0.992450	-0.126073	0.544440
C107	C	1.325783	0.207260	0.877773
C108	C	1.659116	0.540593	1.211106
C109	C	0.992448	-0.126067	0.455449
C110	C	1.325781	0.207267	0.788782
C111	C	1.659115	0.540600	1.122116
C112	C	0.992439	-0.126063	0.343790
C113	C	1.325772	0.207270	0.677124
C114	C	1.659105	0.540603	1.010457
H115	H	0.420997	-0.287010	-0.000147
H116	H	0.754331	0.046323	0.333186
H117	H	1.087664	0.379656	0.666519
N118	N	0.541823	-0.220272	0.170882
N119	N	0.875157	0.113061	0.504215
N120	N	1.208490	0.446394	0.837548
H121	H	0.581822	-0.176618	0.211300
H122	H	0.915156	0.156715	0.544634
H123	H	1.248489	0.490048	0.877967
H124	H	0.571047	-0.275399	0.150221
H125	H	0.904380	0.057935	0.483554
H126	H	1.237713	0.391268	0.816887
N127	N	0.541907	-0.220283	-0.171046
N128	N	0.875240	0.113050	0.162288
N129	N	1.208574	0.446383	0.495621
H130	H	0.524573	-0.187386	-0.231957
H131	H	0.857906	0.145947	0.101377
H132	H	1.191240	0.479280	0.434710
H133	H	0.513819	-0.286173	-0.170911
H134	H	0.847153	0.047160	0.162422
H135	H	1.180486	0.380493	0.495756
H136	H	0.449708	-0.044135	-0.149051
H137	H	0.783042	0.289199	0.184283
H138	H	1.116375	0.622532	0.517616
N139	N	0.574462	0.058917	-0.000143
N140	N	0.907795	0.392251	0.333190
N141	N	1.241128	0.725584	0.666523
H142	H	0.557951	0.092339	-0.061085
H143	H	0.891284	0.425672	0.272248
H144	H	1.224617	0.759006	0.605581
H145	H	0.637594	0.057088	0.000476
H146	H	0.970927	0.390421	0.333810
H147	H	1.304260	0.723754	0.667143
N148	N	0.442967	-0.031920	0.170892
N149	N	0.776301	0.301414	0.504225
N150	N	1.109634	0.634747	0.837558
H151	H	0.414691	0.023903	0.150347
H152	H	0.748024	0.357237	0.483680
H153	H	1.081357	0.690570	0.817014
H154	H	0.494245	-0.011168	0.212222
H155	H	0.827578	0.322165	0.545555
H156	H	1.160912	0.655499	0.878889
