data_functionalizedCrystal
_audit_creation_method	'MofGen! by Chris Wilmer'
_symmetry_space_group_name_H-M	'P1'
_symmetry_Int_Tables_number	1
_symmetry_cell_setting	triclinic
loop_
_symmetry_equiv_pos_as_xyz
  x,y,z
_cell_length_a	13.897448
_cell_length_b	11.169417
_cell_length_c	11.169409
_cell_angle_alpha	90.019824
_cell_angle_beta	89.964424
_cell_angle_gamma	89.981429
loop_
_atom_site_label
_atom_site_type_symbol
_atom_site_fract_x
_atom_site_fract_y
_atom_site_fract_z
Zn1	Zn	-0.383914	-1.834901	-0.678516
Zn2	Zn	0.116086	-1.334901	-0.178516
Zn3	Zn	-0.545250	-1.834765	-0.477821
Zn4	Zn	-0.045250	-1.334765	0.022179
Zn5	Zn	-0.383973	-1.634187	-0.477850
Zn6	Zn	0.116027	-1.134187	0.022150
Zn7	Zn	-0.545171	-1.634169	-0.678466
Zn8	Zn	-0.045171	-1.134169	-0.178466
O9	O	-0.464577	-1.734505	-0.578163
O10	O	0.035423	-1.234505	-0.078163
O11	O	-0.405324	-2.002833	-0.651902
O12	O	0.094676	-1.502833	-0.151902
O13	O	-0.523914	-1.808108	-0.309875
O14	O	-0.023914	-1.308108	0.190125
O15	O	-0.248984	-1.660877	-0.504502
O16	O	0.251016	-1.160877	-0.004502
O17	O	-0.523857	-2.002732	-0.504453
O18	O	-0.023857	-1.502732	-0.004453
O19	O	-0.248940	-1.808341	-0.651930
O20	O	0.251060	-1.308341	-0.151930
O21	O	-0.405424	-1.660745	-0.309896
O22	O	0.094576	-1.160745	0.190104
O23	O	-0.405348	-1.466235	-0.504454
O24	O	0.094652	-0.966235	-0.004454
O25	O	-0.523723	-1.660846	-0.846423
O26	O	-0.023723	-1.160846	-0.346423
O27	O	-0.523780	-1.466221	-0.651845
O28	O	-0.023780	-0.966221	-0.151845
O29	O	-0.405248	-1.808323	-0.846459
O30	O	0.094752	-1.308323	-0.346459
O31	O	-0.680221	-1.808090	-0.504404
O32	O	-0.180221	-1.308090	-0.004404
O33	O	-0.680163	-1.660713	-0.651817
O34	O	-0.180163	-1.160713	-0.151817
C35	C	-0.464562	-1.422681	-0.578148
C36	C	0.035438	-0.922681	-0.078148
C37	C	-0.464579	-1.289281	-0.578170
C38	C	0.035421	-0.789281	-0.078170
C39	C	-0.715191	-1.734418	-0.578129
C40	C	-0.215191	-1.234418	-0.078129
C41	C	-0.822405	-1.734490	-0.578154
C42	C	-0.322405	-1.234490	-0.078154
C43	C	-0.464470	-1.734597	-0.891206
C44	C	0.035530	-1.234597	-0.391206
C45	C	-0.464424	-1.734637	-1.024606
C46	C	0.035576	-1.234637	-0.524606
C47	C	-1.018700	-1.734616	-0.578229
C48	C	-0.518700	-1.234616	-0.078229
C49	C	-0.909468	-1.734543	-0.578191
C50	C	-0.409468	-1.234543	-0.078191
C51	C	-0.212984	-1.734626	-0.578224
C52	C	0.287016	-1.234626	-0.078224
C53	C	-0.105770	-1.734677	-0.578251
C54	C	0.394230	-1.234677	-0.078251
C55	C	-0.464592	-2.047548	-0.578180
C56	C	0.035408	-1.547548	-0.078180
C57	C	-0.464599	-2.180948	-0.578186
C58	C	0.035401	-1.680948	-0.078186
C59	C	-0.464614	-1.734483	-0.266339
C60	C	0.035386	-1.234483	0.233661
C61	C	-0.464388	-1.734676	-0.132939
C62	C	0.035612	-1.234676	0.367061
