data_functionalizedCrystal
_audit_creation_method	'MofGen! by Chris Wilmer'
_symmetry_space_group_name_H-M	'P1'
_symmetry_Int_Tables_number	1
_symmetry_cell_setting	triclinic
loop_
_symmetry_equiv_pos_as_xyz
  x,y,z
_cell_length_a	10.685980
_cell_length_b	16.120444
_cell_length_c	10.686551
_cell_angle_alpha	88.708632
_cell_angle_beta	81.591741
_cell_angle_gamma	97.501748
loop_
_atom_site_label
_atom_site_type_symbol
_atom_site_fract_x
_atom_site_fract_y
_atom_site_fract_z
Zn1	Zn	1.982410	-0.186868	-0.879994
Zn2	Zn	2.315743	0.146465	-0.546661
Zn3	Zn	2.649076	0.479799	-0.213327
Zn4	Zn	1.955174	-0.337904	-0.678472
Zn5	Zn	2.288507	-0.004570	-0.345139
Zn6	Zn	2.621840	0.328763	-0.011806
Zn7	Zn	1.752175	-0.210072	-0.653109
Zn8	Zn	2.085509	0.123261	-0.319775
Zn9	Zn	2.418842	0.456594	0.013558
Zn10	Zn	1.759303	-0.337823	-0.874377
Zn11	Zn	2.092637	-0.004489	-0.541044
Zn12	Zn	2.425970	0.328844	-0.207710
O13	O	1.862265	-0.268167	-0.771488
O14	O	2.195599	0.065167	-0.438155
O15	O	2.528932	0.398500	-0.104821
O16	O	2.157123	-0.197226	-0.866227
O17	O	2.490456	0.136107	-0.532894
O18	O	2.823790	0.469441	-0.199561
O19	O	1.913864	-0.330691	-0.498169
O20	O	2.247198	0.002642	-0.164835
O21	O	2.580531	0.335975	0.168498
O22	O	1.791132	-0.090322	-0.674942
O23	O	2.124465	0.243012	-0.341608
O24	O	2.457798	0.576345	-0.008275
O25	O	2.137113	-0.308191	-0.718170
O26	O	2.470446	0.025142	-0.384837
O27	O	2.803780	0.358475	-0.051503
O28	O	1.960284	-0.073274	-0.841633
O29	O	2.293617	0.260060	-0.508300
O30	O	2.626950	0.593393	-0.174967
O31	O	1.764722	-0.236774	-0.479534
O32	O	2.098055	0.096559	-0.146201
O33	O	2.431389	0.429892	0.187132
O34	O	1.574794	-0.236696	-0.669495
O35	O	1.908128	0.096637	-0.336162
O36	O	2.241461	0.429971	-0.002828
O37	O	1.803280	-0.308053	-1.052061
O38	O	2.136613	0.025280	-0.718728
O39	O	2.469947	0.358614	-0.385394
O40	O	1.580031	-0.330553	-0.832060
O41	O	1.913365	0.002780	-0.498726
O42	O	2.246698	0.336113	-0.165393
O43	O	1.967195	-0.197148	-1.056188
O44	O	2.300529	0.136186	-0.722855
O45	O	2.633862	0.469519	-0.389521
O46	O	1.920776	-0.454566	-0.712723
O47	O	2.254109	-0.121232	-0.379390
O48	O	2.587443	0.212101	-0.046057
O49	O	1.776871	-0.454506	-0.856654
O50	O	2.110204	-0.121173	-0.523320
O51	O	2.443537	0.212161	-0.189987
C52	C	1.531175	-0.286134	-0.747416
C53	C	1.864508	0.047199	-0.414083
C54	C	2.197842	0.380532	-0.080750
C55	C	1.389534	-0.293839	-0.737150
C56	C	1.722867	0.039494	-0.403816
C57	C	2.056201	0.372827	-0.070483
C58	C	1.846678	-0.484784	-0.786861
C59	C	2.180011	-0.151451	-0.453528
C60	C	2.513345	0.181882	-0.120195
C61	C	1.840130	-0.577446	-0.793489
C62	C	2.173463	-0.244112	-0.460156
C63	C	2.506796	0.089221	-0.126822
C64	C	1.896569	-0.788377	-0.737402
C65	C	2.229902	-0.455044	-0.404069
C66	C	2.563236	-0.121710	-0.070735
C67	C	1.828199	-0.747091	-0.805604
C68	C	2.161532	-0.413758	-0.472271
C69	C	2.494866	-0.080425	-0.138937
C70	C	1.834839	-0.652692	-0.798861
C71	C	2.168173	-0.319358	-0.465528
C72	C	2.501506	0.013975	-0.132194
C73	C	1.889930	-0.882785	-0.744144
C74	C	2.223264	-0.549452	-0.410810
C75	C	2.556597	-0.216119	-0.077477
C76	C	2.194649	-0.250129	-0.795655
C77	C	2.527982	0.083204	-0.462321
C78	C	2.861315	0.416537	-0.128988
C79	C	2.336291	-0.242443	-0.805953
C80	C	2.669624	0.090890	-0.472620
C81	C	3.002957	0.424224	-0.139286
C82	C	1.889071	-0.250003	-1.101286
C83	C	2.222404	0.083330	-0.767952
C84	C	2.555738	0.416664	-0.434619
C85	C	1.900494	-0.242263	-1.241826
C86	C	2.233827	0.091071	-0.908492
C87	C	2.567160	0.424404	-0.575159
C88	C	1.877951	-0.050700	-0.756085
C89	C	2.211284	0.282634	-0.422752
C90	C	2.544617	0.615967	-0.089418
C91	C	1.884635	0.041972	-0.749521
C92	C	2.217968	0.375305	-0.416188
C93	C	2.551301	0.708638	-0.082854
C94	C	1.835642	-0.286196	-0.442975
C95	C	2.168975	0.047138	-0.109641
C96	C	2.502309	0.380471	0.223692
C97	C	1.824483	-0.293688	-0.302436
C98	C	2.157816	0.039646	0.030897
C99	C	2.491149	0.372979	0.364230
H100	H	1.326751	-0.343740	-0.670380
H101	H	1.660084	-0.010407	-0.337046
H102	H	1.993417	0.322926	-0.003713
H103	H	1.750671	-0.343638	-1.246811
H104	H	2.084004	-0.010305	-0.913478
H105	H	2.417338	0.323028	-0.580144
H106	H	1.974319	-0.192314	-1.297459
H107	H	2.307652	0.141020	-0.964125
H108	H	2.640986	0.474353	-0.630792
H109	H	1.399067	-0.192541	-0.872710
H110	H	1.732400	0.140793	-0.539377
H111	H	2.065734	0.474126	-0.206043
H112	H	1.764678	-0.782642	-0.869057
H113	H	2.098011	-0.449309	-0.535724
H114	H	2.431345	-0.115975	-0.202391
H115	H	1.960084	-0.752830	-0.673952
H116	H	2.293418	-0.419497	-0.340618
H117	H	2.626751	-0.086164	-0.007285
