data_functionalizedCrystal
_audit_creation_method	'MofGen! by Chris Wilmer'
_symmetry_space_group_name_H-M	'P1'
_symmetry_Int_Tables_number	1
_symmetry_cell_setting	triclinic
loop_
_symmetry_equiv_pos_as_xyz
  x,y,z
_cell_length_a	18.215407
_cell_length_b	13.897447
_cell_length_c	18.215399
_cell_angle_alpha	89.974944
_cell_angle_beta	89.982632
_cell_angle_gamma	90.016973
loop_
_atom_site_label
_atom_site_type_symbol
_atom_site_fract_x
_atom_site_fract_y
_atom_site_fract_z
Zn1	Zn	1.125099	-0.384091	-0.416082
Zn2	Zn	1.125019	-0.545400	-0.293022
Zn3	Zn	1.002032	-0.384114	-0.293035
Zn4	Zn	1.002009	-0.545338	-0.416052
O5	O	1.063540	-0.464736	-0.354548
O6	O	1.228073	-0.405505	-0.399765
O7	O	1.108681	-0.524041	-0.190040
O8	O	1.018400	-0.249129	-0.309375
O9	O	1.228014	-0.524019	-0.309354
O10	O	1.108817	-0.249112	-0.399778
O11	O	1.018322	-0.405544	-0.190049
O12	O	0.899045	-0.405484	-0.309346
O13	O	1.018361	-0.523913	-0.519041
O14	O	0.899028	-0.523935	-0.399727
O15	O	1.108795	-0.405445	-0.519063
O16	O	1.108659	-0.680374	-0.309325
O17	O	1.018284	-0.680328	-0.399714
C18	C	0.872334	-0.464706	-0.354535
C19	C	0.790535	-0.464717	-0.354547
C20	C	0.602370	-0.403134	-0.401699
C21	C	0.525512	-0.403142	-0.401701
C22	C	0.525461	-0.526365	-0.307410
C23	C	0.602319	-0.526351	-0.307404
C24	C	0.640771	-0.464737	-0.354553
C25	C	0.487055	-0.464759	-0.354561
C26	C	0.403722	-0.464768	-0.354563
C27	C	0.724110	-0.464726	-0.354550
C28	C	1.063480	-0.715350	-0.354531
C29	C	1.063522	-0.822564	-0.354548
C30	C	1.063557	-0.909634	-0.354565
C31	C	1.063609	-1.018866	-0.354584
C32	C	1.255493	-0.464766	-0.354561
C33	C	1.337292	-0.464779	-0.354567
C34	C	1.063585	-0.464669	-0.546501
C35	C	1.063604	-0.464641	-0.628300
C36	C	1.063620	-0.213143	-0.354581
C37	C	1.063654	-0.105929	-0.354595
C38	C	1.110710	-0.402897	-0.816507
C39	C	1.110718	-0.402869	-0.893365
C40	C	1.016550	-0.526236	-0.893331
C41	C	1.016538	-0.526258	-0.816474
C42	C	1.063622	-0.464590	-0.778063
C43	C	1.063643	-0.464540	-0.931780
C44	C	1.063652	-0.464510	-1.015113
C45	C	1.063612	-0.464619	-0.694724
C46	C	1.063538	-0.464732	-0.163342
C47	C	1.063661	-0.464489	-0.081543
H48	H	0.494144	-0.576530	-0.269024
C49	C	1.162490	-0.335054	-0.774257
H50	H	1.190529	-0.298300	-0.808163
H51	H	1.194543	-0.371956	-0.744271
H52	H	1.134337	-0.293029	-0.744281
H53	H	1.149061	-0.352630	-0.924662
C54	C	0.964769	-0.594073	-0.935585
H55	H	0.971524	-0.585232	-0.986865
H56	H	0.915323	-0.579958	-0.922986
H57	H	0.975525	-0.658890	-0.922978
H58	H	0.978189	-0.576495	-0.785173
C59	C	0.644666	-0.335354	-0.453554
H60	H	0.610785	-0.298661	-0.481627
H61	H	0.674656	-0.372295	-0.485571
H62	H	0.674641	-0.293271	-0.425448
C63	C	0.483274	-0.335383	-0.453565
H64	H	0.517185	-0.298694	-0.481646
H65	H	0.453286	-0.293311	-0.425473
H66	H	0.453300	-0.372348	-0.485586
C67	C	0.644563	-0.594121	-0.255544
H68	H	0.610655	-0.630828	-0.227473
H69	H	0.674538	-0.557165	-0.223525
H70	H	0.674549	-0.636191	-0.283646
