data_functionalizedCrystal
_audit_creation_method	'MofGen! by Chris Wilmer'
_symmetry_space_group_name_H-M	'P1'
_symmetry_Int_Tables_number	1
_symmetry_cell_setting	triclinic
loop_
_symmetry_equiv_pos_as_xyz
  x,y,z
_cell_length_a	14.971486
_cell_length_b	13.339070
_cell_length_c	13.448316
_cell_angle_alpha	89.996829
_cell_angle_beta	89.998199
_cell_angle_gamma	99.621712
loop_
_atom_site_label
_atom_site_type_symbol
_atom_site_fract_x
_atom_site_fract_y
_atom_site_fract_z
O1	O	1.219550	0.131873	-0.082571
O2	O	0.963055	0.147665	-0.082597
O3	O	1.061865	-0.007530	-0.082584
O4	O	1.120740	0.287068	-0.082584
O5	O	1.061845	-0.007540	0.082800
O6	O	0.963035	0.147656	0.082787
O7	O	1.219531	0.131864	0.082813
Cu8	Cu	1.091281	0.139759	0.097901
Cu9	Cu	1.091304	0.139770	-0.097685
O10	O	1.120720	0.287059	0.082800
C11	C	0.929545	0.146954	0.000091
C12	C	0.829725	0.144838	0.000081
C13	C	0.795041	0.236011	0.000082
C14	C	0.701248	0.234016	0.000097
C15	C	0.642141	0.140847	0.000103
C16	C	0.676832	0.049667	0.000105
C17	C	0.770623	0.051663	0.000097
C18	C	0.481342	0.045514	0.000119
C19	C	0.387545	0.043518	0.000125
C20	C	0.411968	0.227867	0.000119
C21	C	0.505759	0.229863	0.000111
C22	C	0.540442	0.138682	0.000111
C23	C	1.051910	-0.045236	0.000105
C24	C	1.022266	-0.157574	0.000098
C25	C	1.252762	-0.522088	0.000122
C26	C	1.280617	-0.416541	0.000135
C27	C	1.216032	-0.351794	0.000125
C28	C	1.123587	-0.392604	0.000104
C29	C	1.095729	-0.498161	0.000100
C30	C	1.058999	-0.327867	0.000103
C31	C	0.966554	-0.368677	0.000082
C32	C	0.938701	-0.474224	0.000077
C33	C	1.003286	-0.538970	0.000086
C34	C	1.086856	-0.222311	0.000107
C35	C	0.929823	-0.198384	0.000084
C36	C	0.901968	-0.303930	0.000072
C37	C	1.253040	0.132575	0.000122
C38	C	1.352860	0.134691	0.000126
C39	C	1.130675	0.324765	0.000108
C40	C	1.160319	0.437102	0.000109
N41	N	1.091271	0.139750	0.235465
N42	N	1.091319	0.139771	-0.235249
C43	C	1.135050	0.071058	0.287511
C44	C	1.135056	0.071057	0.391614
C45	C	1.091287	0.139754	0.443669
C46	C	1.047502	0.208449	0.391616
C47	C	1.047492	0.208445	0.287515
C48	C	1.047529	0.208456	0.608596
C49	C	1.047540	0.208463	0.712705
C50	C	1.135093	0.071069	0.712696
C51	C	1.135082	0.071064	0.608594
C52	C	1.091299	0.139761	0.556548
H53	H	0.628700	-0.026192	0.000124
N54	N	1.000279	0.282537	0.231370
H55	H	0.951060	0.243786	0.188192
H56	H	0.972610	0.326042	0.280202
N57	N	0.858788	0.336501	0.000064
H58	H	0.822580	0.393955	0.000068
H59	H	0.898239	0.341344	0.061369
N60	N	0.663793	0.332325	0.000114
H61	H	0.625430	0.335562	0.061435
H62	H	0.715487	0.391625	0.000072
N63	N	0.860163	-0.128552	0.000071
H64	H	0.820996	-0.141682	-0.061240
H65	H	0.821044	-0.141723	0.061416
H66	H	1.011859	0.264381	0.434005
H67	H	0.980611	-0.624916	0.000072
H68	H	0.798860	-0.022579	0.000096
H69	H	1.162125	-0.189094	0.000124
H70	H	1.011872	0.264394	0.566223
N71	N	0.374563	0.326212	0.000217
H72	H	0.426238	0.385536	0.000234
H73	H	0.336152	0.329461	-0.061060
N74	N	1.380318	-0.372530	0.000133
H75	H	1.388166	-0.295840	0.000133
H76	H	1.409734	-0.396208	0.061442
H77	H	0.553882	0.305729	0.000096
N78	N	1.246070	-0.237955	0.000132
H79	H	1.314433	-0.221926	0.000143
H80	H	1.221904	-0.207908	-0.061186
H81	H	0.826698	-0.337172	0.000056
H82	H	0.339422	-0.032348	0.000131
H83	H	1.170697	0.015121	0.245135
N84	N	0.518755	-0.052828	0.000125
H85	H	0.467081	-0.112154	0.000127
H86	H	0.557136	-0.056011	-0.061188
H87	H	1.305338	-0.574813	0.000138
H88	H	0.863426	-0.507447	0.000067
N89	N	1.182314	-0.002997	0.447751
H90	H	1.210058	-0.046500	0.398978
H91	H	1.231482	0.035863	0.490914
N92	N	1.182296	-0.003022	0.552445
H93	H	1.210033	-0.046542	0.601211
H94	H	1.136933	-0.047823	0.509262
N95	N	1.182320	-0.003025	0.768824
H96	H	1.175683	0.007396	0.842670
H97	H	1.154174	-0.074835	0.750634
N98	N	1.000345	0.282564	0.768854
H99	H	0.972604	0.326081	0.720088
H100	H	0.951182	0.243754	0.812065
