data_functionalizedCrystal
_audit_creation_method	'MofGen! by Chris Wilmer'
_symmetry_space_group_name_H-M	'P1'
_symmetry_Int_Tables_number	1
_symmetry_cell_setting	triclinic
loop_
_symmetry_equiv_pos_as_xyz
  x,y,z
_cell_length_a	16.109302
_cell_length_b	15.944493
_cell_length_c	14.586319
_cell_angle_alpha	90.002083
_cell_angle_beta	89.994552
_cell_angle_gamma	83.468412
loop_
_atom_site_label
_atom_site_type_symbol
_atom_site_fract_x
_atom_site_fract_y
_atom_site_fract_z
O1	O	1.103143	0.107972	-0.076269
O2	O	1.603143	0.607972	0.423731
O3	O	0.861083	0.121408	-0.076261
O4	O	1.361083	0.621408	0.423739
O5	O	0.988748	-0.007590	-0.076273
O6	O	1.488748	0.492410	0.423727
O7	O	0.975478	0.236970	-0.076257
O8	O	1.475478	0.736970	0.423743
O9	O	0.988739	-0.007592	0.076208
O10	O	1.488739	0.492408	0.576208
O11	O	0.861074	0.121406	0.076220
O12	O	1.361074	0.621406	0.576220
O13	O	1.103134	0.107970	0.076211
O14	O	1.603134	0.607970	0.576211
Cu15	Cu	0.982103	0.114688	0.090138
Cu16	Cu	1.482103	0.614688	0.590138
Cu17	Cu	0.982114	0.114690	-0.090188
Cu18	Cu	1.482114	0.614690	0.409812
O19	O	0.975469	0.236969	0.076224
O20	O	1.475469	0.736969	0.576224
C21	C	0.830103	0.120863	-0.000019
C22	C	1.330103	0.620863	0.499981
C23	C	0.737808	0.119231	-0.000017
C24	C	1.237808	0.619231	0.499983
C25	C	0.525462	0.115456	0.083091
C26	C	1.025462	0.615456	0.583091
C27	C	0.438742	0.113914	0.083088
C28	C	0.938742	0.613914	0.583088
C29	C	0.438762	0.113920	-0.083155
C30	C	0.938762	0.613920	0.416845
C31	C	0.525481	0.115456	-0.083151
C32	C	1.025481	0.615456	0.416849
C33	C	0.568828	0.116229	-0.000025
C34	C	1.068828	0.616229	0.499975
C35	C	0.395389	0.113150	-0.000032
C36	C	0.895389	0.613150	0.499968
C37	C	0.301363	0.111477	-0.000037
C38	C	0.801363	0.611477	0.499963
C39	C	0.662861	0.117900	-0.000020
C40	C	1.162861	0.617900	0.499980
C41	C	0.988201	-0.038886	-0.000036
C42	C	1.488201	0.461114	0.499964
C43	C	0.986575	-0.132134	-0.000048
C44	C	1.486575	0.367866	0.499952
C45	C	1.061722	-0.367918	-0.000033
C46	C	1.561722	0.132082	0.499967
C47	C	1.021203	-0.418472	-0.075212
C48	C	1.521203	0.081528	0.424788
C49	C	0.983562	-0.302854	-0.000037
C50	C	1.483562	0.197146	0.499963
C51	C	1.021176	-0.418450	0.075122
C52	C	1.521176	0.081550	0.575122
C53	C	0.980658	-0.467763	-0.000022
C54	C	1.480658	0.032237	0.499978
C55	C	0.943064	-0.352179	-0.075278
C56	C	1.443064	0.147821	0.424722
C57	C	0.943048	-0.352154	0.075124
C58	C	1.443048	0.147846	0.575124
C59	C	0.902472	-0.402675	-0.000074
C60	C	1.402472	0.097325	0.499926
C61	C	0.985238	-0.207855	-0.000046
C62	C	1.485238	0.292145	0.499954
C63	C	0.978976	-0.562759	-0.000019
C64	C	1.478976	-0.062759	0.499981
C65	C	1.134114	0.108516	-0.000032
C66	C	1.634114	0.608516	0.499968
C67	C	1.226409	0.110148	-0.000041
C68	C	1.726409	0.610148	0.499959
C69	C	0.976016	0.268264	-0.000015
C70	C	1.476016	0.768264	0.499985
C71	C	0.977642	0.361512	-0.000009
C72	C	1.477642	0.861512	0.499991
N73	N	0.982102	0.114686	0.216970
N74	N	1.482102	0.614686	0.716970
N75	N	0.982122	0.114686	-0.217019
N76	N	1.482122	0.614686	0.282981
C77	C	1.038651	0.057585	0.451971
C78	C	1.538651	0.557585	0.951971
C79	C	1.038653	0.057583	0.547952
C80	C	1.538653	0.557583	1.047952
C81	C	0.925567	0.171790	0.547973
C82	C	1.425567	0.671790	1.047973
C83	C	0.925561	0.171787	0.451993
C84	C	1.425561	0.671787	0.951993
C85	C	0.982108	0.114686	0.403995
C86	C	1.482108	0.614686	0.903995
C87	C	0.982116	0.114686	0.595956
C88	C	1.482116	0.614686	1.095956
C89	C	0.982118	0.114684	0.700023
C90	C	1.482118	0.614684	1.200023
C91	C	0.982105	0.114686	0.299921
C92	C	1.482105	0.614686	0.799921
H93	H	0.560791	0.116083	-0.150838
H94	H	1.060791	0.616083	0.349162
H95	H	0.403458	0.113292	-0.150833
H96	H	0.903458	0.613292	0.349167
C97	C	1.152667	-0.346827	-0.000136
C98	C	1.652667	0.153173	0.499864
H99	H	1.180316	-0.369654	-0.053623
H100	H	1.680316	0.130346	0.446377
H101	H	1.180696	-0.370510	0.052729
H102	H	1.680696	0.129490	0.552729
H103	H	1.153091	-0.287298	0.000402
H104	H	1.653091	0.212702	0.500402
C105	C	1.065774	-0.457547	0.160981
C106	C	1.565774	0.042453	0.660981
H107	H	1.027576	-0.485267	0.196390
H108	H	1.527576	0.014733	0.696390
H109	H	1.085935	-0.414289	0.196616
H110	H	1.585935	0.085711	0.696616
H111	H	1.111323	-0.497221	0.142899
H112	H	1.611323	0.002779	0.642899
H113	H	0.879529	0.218282	0.587063
H114	H	1.379529	0.718282	1.087063
C115	C	0.863363	0.234603	0.399216
C116	C	1.363363	0.734603	0.899216
H117	H	0.829694	0.268620	0.441547
H118	H	1.329694	0.768620	0.941547
H119	H	0.828760	0.204375	0.361779
H120	H	1.328760	0.704375	0.861779
H121	H	0.893268	0.269579	0.361770
H122	H	1.393268	0.769579	0.861770
H123	H	0.560753	0.116085	0.150778
H124	H	1.060753	0.616085	0.650778
C125	C	1.100848	-0.005222	0.399172
C126	C	1.600848	0.494778	0.899172
H127	H	1.092755	0.002959	0.335138
H128	H	1.592755	0.502959	0.835138
H129	H	1.091834	-0.061288	0.414900
H130	H	1.591834	0.438712	0.914900
H131	H	1.156332	0.003927	0.414896
H132	H	1.656332	0.503927	0.914896
H133	H	0.910078	-0.323348	-0.138904
H134	H	1.410078	0.176652	0.361096
C135	C	0.391041	0.113069	0.174516
C136	C	0.891041	0.613069	0.674516
H137	H	0.429279	0.113756	0.224019
H138	H	0.929279	0.613756	0.724019
H139	H	0.363560	0.063515	0.177970
H140	H	0.863560	0.563515	0.677970
H141	H	0.350862	0.161430	0.177971
H142	H	0.850862	0.661430	0.677971
H143	H	1.054214	-0.447428	-0.138774
H144	H	1.554214	0.052572	0.361226
H145	H	0.835094	-0.418119	-0.000112
H146	H	1.335094	0.081881	0.499888
C147	C	1.100854	-0.005225	0.600723
C148	C	1.600854	0.494775	1.100723
H149	H	1.134532	-0.039226	0.558387
H150	H	1.634532	0.460774	1.058387
H151	H	1.070959	-0.040203	0.638169
H152	H	1.570959	0.459797	1.138169
H153	H	1.135460	0.025009	0.638158
H154	H	1.635460	0.525009	1.138158
C155	C	0.898495	-0.313009	0.160991
C156	C	1.398495	0.186991	0.660991
H157	H	0.926355	-0.335812	0.214360
H158	H	1.426355	0.164188	0.714360
H159	H	0.842233	-0.325509	0.161535
H160	H	1.342233	0.174491	0.661535
H161	H	0.899432	-0.253548	0.160065
H162	H	1.399432	0.246452	0.660065
