data_functionalizedCrystal
_audit_creation_method	'MofGen! by Chris Wilmer'
_symmetry_space_group_name_H-M	'P1'
_symmetry_Int_Tables_number	1
_symmetry_cell_setting	triclinic
loop_
_symmetry_equiv_pos_as_xyz
  x,y,z
_cell_length_a	6.817900
_cell_length_b	14.858565
_cell_length_c	10.992410
_cell_angle_alpha	93.421726
_cell_angle_beta	108.764651
_cell_angle_gamma	104.523916
loop_
_atom_site_label
_atom_site_type_symbol
_atom_site_fract_x
_atom_site_fract_y
_atom_site_fract_z
V1	V	-4.092572	-0.128670	-0.400951
O2	O	-4.073418	0.006183	-0.392950
O3	O	-4.048847	-0.255131	-0.398564
O4	O	-4.070498	-0.126691	-0.575658
O5	O	-4.051617	-0.123146	-0.214630
V6	V	-4.572183	-0.112540	-0.378623
O7	O	-4.362412	-0.164052	-0.449931
O8	O	-4.752541	-0.077158	-0.329643
O9	O	-4.392702	0.013921	-0.381010
O10	O	-4.708735	-0.247393	-0.386624
O11	O	-4.730535	-0.118064	-0.564944
O12	O	-4.371051	-0.114519	-0.203916
C13	C	-3.894134	-0.285959	-0.392330
C14	C	-3.939846	-0.389343	-0.391542
C15	C	-4.107159	-0.767914	-0.388676
C16	C	-4.060599	-0.662584	-0.389473
C17	C	-4.023503	-0.578632	-0.390108
C18	C	-3.976941	-0.473295	-0.390907
C19	C	-3.921750	-0.122120	-0.618230
C20	C	-3.985016	-0.121339	-0.761056
C21	C	-3.853338	-0.114218	-0.956160
C22	C	-3.787586	-0.115417	-0.807680
C23	C	-4.167585	-0.213035	-0.838416
C24	C	-4.232035	-0.212224	-0.986980
C25	C	-4.139712	-0.034667	-0.948454
C26	C	-4.069076	-0.034232	-0.799440
C27	C	-4.210757	0.044745	-0.387241
C28	C	-4.144285	0.148127	-0.388037
C29	C	-4.183140	-0.119093	-0.161337
C30	C	-4.099112	-0.119870	-0.018510
H31	H	-3.650238	-0.049483	-0.754156
N32	N	-4.471332	-0.222786	-1.043488
H33	H	-4.515024	-0.222344	-1.140344
H34	H	-4.504616	-0.168872	-1.001564
N35	N	-4.092544	-0.298703	-0.804754
H36	H	-4.211132	-0.357350	-0.855022
H37	H	-4.056481	-0.300343	-0.708464
H38	H	-3.719950	-0.177485	-0.783038
N39	N	-4.376043	-0.039075	-1.002581
H40	H	-4.391841	0.019758	-1.041405
H41	H	-4.438004	-0.044020	-0.930420
N42	N	-4.365082	-0.223169	-0.800305
H43	H	-4.338041	-0.168287	-0.732361
H44	H	-4.396329	-0.283781	-0.763746
N45	N	-4.197038	-0.297677	-1.048522
H46	H	-4.139969	-0.335517	-0.979078
H47	H	-4.089087	-0.276918	-1.093517
N48	N	-3.712878	-0.026290	-0.980860
H49	H	-3.738627	0.030896	-0.941471
H50	H	-3.750149	-0.026898	-1.077632
N51	N	-4.018945	0.057572	-0.975161
H52	H	-3.936687	0.045059	-1.032954
H53	H	-3.914277	0.097140	-0.890360
N54	N	-3.806623	-0.195309	-1.019941
H55	H	-3.943972	-0.235689	-1.089048
H56	H	-3.749303	-0.234338	-0.952304
N57	N	-4.257566	-0.032802	-0.756377
H58	H	-4.308042	0.023879	-0.782347
H59	H	-4.210984	-0.029373	-0.658806
N60	N	-3.894455	0.055626	-0.729867
H61	H	-3.761445	0.039985	-0.673712
H62	H	-3.947819	0.092455	-0.673510
