data_functionalizedCrystal
_audit_creation_method	'MofGen! by Chris Wilmer'
_symmetry_space_group_name_H-M	'P1'
_symmetry_Int_Tables_number	1
_symmetry_cell_setting	triclinic
loop_
_symmetry_equiv_pos_as_xyz
  x,y,z
_cell_length_a	13.033293
_cell_length_b	13.031981
_cell_length_c	12.759393
_cell_angle_alpha	97.218097
_cell_angle_beta	97.209083
_cell_angle_gamma	103.320033
loop_
_atom_site_label
_atom_site_type_symbol
_atom_site_fract_x
_atom_site_fract_y
_atom_site_fract_z
Zn1	Zn	1.570254	-0.216774	0.767189
Zn2	Zn	1.547590	-0.394467	0.565898
Zn3	Zn	1.392616	-0.239373	0.565911
Zn4	Zn	1.370058	-0.416916	0.715955
O5	O	1.470129	-0.316882	0.653738
O6	O	1.715888	-0.221492	0.761924
O7	O	1.526988	-0.373956	0.418865
O8	O	1.435106	-0.087707	0.614059
O9	O	1.699236	-0.352043	0.614036
O10	O	1.565616	-0.071104	0.761937
O11	O	1.413129	-0.260009	0.418875
O12	O	1.240984	-0.281777	0.564379
O13	O	1.396658	-0.390304	0.869786
O14	O	1.224410	-0.412217	0.674615
O15	O	1.543742	-0.243260	0.907428
O16	O	1.505114	-0.546112	0.564356
O17	O	1.374681	-0.562606	0.674602
C18	C	1.194156	-0.351886	0.613939
C19	C	1.076090	-0.366886	0.596935
C20	C	1.435019	-0.592903	0.613945
C21	C	1.420096	-0.710974	0.596971
C22	C	1.031678	-0.309080	0.662610
C23	C	0.909651	-0.324582	0.645036
C24	C	1.477974	-0.755320	0.662627
C25	C	1.462552	-0.877352	0.645084
C26	C	1.747181	-0.281743	0.693693
C27	C	1.865243	-0.266768	0.710720
C28	C	1.470212	-0.316765	0.927797
C29	C	1.470247	-0.316716	1.044585
C30	C	1.505406	-0.039780	0.693714
C31	C	1.520439	0.078305	0.710749
C32	C	1.470118	-0.316914	0.380766
C33	C	1.470326	-0.316639	0.264051
C34	C	1.410992	-0.257367	1.099464
C35	C	1.411028	-0.257331	1.209198
C36	C	1.529584	-0.375994	1.209164
C37	C	1.529541	-0.376035	1.099431
C38	C	1.342548	-0.188854	1.099486
C39	C	1.342584	-0.188818	1.209219
H40	H	0.857337	-0.385551	0.575792
H41	H	1.538941	-0.702946	0.731829
O42	O	1.347277	-0.773298	0.514391
C43	C	1.214052	-0.779144	0.363133
C44	C	1.296466	-0.708443	0.456628
H45	H	1.172964	-0.726735	0.316393
H46	H	1.151896	-0.838122	0.395837
H47	H	1.256347	-0.824919	0.307906
H48	H	1.254264	-0.662599	0.511891
H49	H	1.358617	-0.649531	0.423849
H50	H	1.260695	-0.228187	1.227735
H51	H	1.401573	-0.929727	0.575886
O52	O	1.593168	-0.859065	0.793231
C53	C	1.674771	-0.680343	0.885985
C54	C	1.592390	-0.751142	0.792521
H55	H	1.674153	-0.593075	0.885456
H56	H	1.757744	-0.691078	0.876877
H57	H	1.653348	-0.704481	0.964871
H58	H	1.613712	-0.727050	0.713592
H59	H	1.509440	-0.740399	0.801724
H60	H	0.917557	-0.205792	0.779958
H61	H	1.375091	-0.103729	1.254051
H62	H	1.577860	-0.424290	1.253833
O63	O	1.013525	-0.439609	0.514413
C64	C	0.834869	-0.521290	0.421594
C65	C	0.905592	-0.438910	0.515107
H66	H	0.747593	-0.520737	0.422110
H67	H	0.845652	-0.604264	0.430654
H68	H	0.859022	-0.499803	0.342734
H69	H	0.881483	-0.460297	0.594010
H70	H	0.894800	-0.355960	0.505952
H71	H	1.577776	-0.424380	1.054748
H72	H	1.381955	-0.106972	1.080977
O73	O	1.094235	-0.236424	0.745187
C74	C	1.272903	-0.154649	0.837928
C75	C	1.202185	-0.236989	0.744380
H76	H	1.360197	-0.155062	0.837293
H77	H	1.248893	-0.176134	0.916841
H78	H	1.261969	-0.071729	0.828858
H79	H	1.213083	-0.319937	0.753347
H80	H	1.226212	-0.215412	0.665503
O81	O	1.240993	-0.227675	1.046172
C82	C	1.055978	-0.298235	1.059296
C83	C	1.170935	-0.254312	1.119803
H84	H	0.999302	-0.319762	1.118802
H85	H	1.051717	-0.372547	0.999639
H86	H	1.031805	-0.234835	1.014648
H87	H	1.195182	-0.317635	1.164513
H88	H	1.175134	-0.179976	1.179397
