data_functionalizedCrystal
_audit_creation_method	'MofGen! by Chris Wilmer'
_symmetry_space_group_name_H-M	'P1'
_symmetry_Int_Tables_number	1
_symmetry_cell_setting	triclinic
loop_
_symmetry_equiv_pos_as_xyz
  x,y,z
_cell_length_a	29.839134
_cell_length_b	29.839131
_cell_length_c	18.050583
_cell_angle_alpha	89.953166
_cell_angle_beta	89.974262
_cell_angle_gamma	90.030088
loop_
_atom_site_label
_atom_site_type_symbol
_atom_site_fract_x
_atom_site_fract_y
_atom_site_fract_z
Zn1	Zn	0.686756	-0.178883	-0.420051
Zn2	Zn	1.186756	0.321117	0.079949
Zn3	Zn	0.686691	-0.254023	-0.295838
Zn4	Zn	1.186691	0.245977	0.204162
Zn5	Zn	0.611633	-0.178901	-0.295854
Zn6	Zn	1.111633	0.321099	0.204146
Zn7	Zn	0.611594	-0.253980	-0.419965
Zn8	Zn	1.111594	0.246020	0.080035
O9	O	0.649169	-0.216447	-0.357927
O10	O	1.149169	0.283553	0.142073
O11	O	0.749614	-0.188861	-0.403603
O12	O	1.249614	0.311139	0.096397
O13	O	0.676724	-0.244083	-0.191915
O14	O	1.176724	0.255917	0.308085
O15	O	0.621642	-0.116031	-0.312371
O16	O	1.121642	0.383969	0.187629
O17	O	0.749567	-0.244066	-0.312344
O18	O	1.249567	0.255934	0.187656
O19	O	0.676834	-0.116018	-0.403618
O20	O	1.176834	0.383982	0.096382
O21	O	0.621579	-0.188892	-0.191927
O22	O	1.121579	0.311108	0.308073
O23	O	0.548761	-0.188850	-0.312288
O24	O	1.048761	0.311150	0.187712
O25	O	0.621575	-0.243992	-0.523901
O26	O	1.121575	0.256008	-0.023901
O27	O	0.548732	-0.244010	-0.403472
O28	O	1.048732	0.255990	0.096528
O29	O	0.676796	-0.188819	-0.523964
O30	O	1.176796	0.311181	-0.023964
O31	O	0.676686	-0.316884	-0.312261
O32	O	1.176686	0.183116	0.187739
O33	O	0.621513	-0.316853	-0.403457
O34	O	1.121513	0.183147	0.096543
C35	C	0.532446	-0.216427	-0.357873
C36	C	1.032446	0.283573	0.142127
C37	C	0.482512	-0.216430	-0.357868
C38	C	0.982512	0.283570	0.142132
C39	C	0.172863	-0.245211	-0.405348
C40	C	0.672863	0.254789	0.094652
C41	C	-0.014810	-0.245223	-0.405381
C42	C	0.485190	0.254777	0.094619
O43	O	-0.039080	-0.269673	-0.445719
O44	O	0.460920	0.230327	0.054281
N45	N	-0.038273	-0.216463	-0.357983
N46	N	0.461727	0.283537	0.142017
C47	C	-0.014815	-0.187695	-0.310576
C48	C	0.485185	0.312305	0.189424
O49	O	-0.039079	-0.163230	-0.270267
O50	O	0.460921	0.336770	0.229733
C51	C	0.172857	-0.187681	-0.310547
C52	C	0.672857	0.312319	0.189453
C53	C	0.196317	-0.216446	-0.357944
C54	C	0.696317	0.283554	0.142056
C55	C	0.196323	-0.273974	-0.452741
C56	C	0.696323	0.226026	0.047259
C57	C	0.243239	-0.273972	-0.452730
C58	C	0.743239	0.226028	0.047270
C59	C	0.266694	-0.245207	-0.405325
C60	C	0.766694	0.254793	0.094675
C61	C	0.243233	-0.216444	-0.357932
C62	C	0.743233	0.283556	0.142068
C63	C	0.196314	-0.158911	-0.263145
C64	C	0.696314	0.341089	0.236855
C65	C	0.243235	-0.158909	-0.263143
C66	C	0.743235	0.341091	0.236857
C67	C	0.266696	-0.187675	-0.310539
C68	C	0.766696	0.312325	0.189461
C69	C	0.313603	-0.187678	-0.310516
C70	C	0.813603	0.312322	0.189484
N71	N	0.337066	-0.216439	-0.357914
N72	N	0.837066	0.283561	0.142086
C73	C	0.313611	-0.245203	-0.405319
C74	C	0.813611	0.254797	0.094681
C75	C	-0.113346	-0.187706	-0.310593
C76	C	0.386654	0.312294	0.189407
C77	C	-0.160264	-0.187710	-0.310599
C78	C	0.339736	0.312290	0.189401
C79	C	-0.160256	-0.245237	-0.405406
C80	C	0.339744	0.254763	0.094594
C81	C	-0.113337	-0.245235	-0.405395
C82	C	0.386663	0.254765	0.094605
C83	C	-0.089883	-0.216466	-0.357992
C84	C	0.410117	0.283534	0.142008
C85	C	0.412137	-0.245198	-0.405290
C86	C	0.912137	0.254802	0.094710
C87	C	0.459057	-0.245195	-0.405272
C88	C	0.959057	0.254805	0.094728
C89	C	0.459044	-0.187665	-0.310469
C90	C	0.959044	0.312335	0.189531
C91	C	0.412129	-0.187670	-0.310484
C92	C	0.912129	0.312330	0.189516
C93	C	0.388677	-0.216438	-0.357901
C94	C	0.888677	0.283562	0.142099
O95	O	0.337902	-0.163238	-0.270205
O96	O	0.837902	0.336762	0.229795
O97	O	0.337883	-0.269658	-0.445634
O98	O	0.837883	0.230342	0.054366
C99	C	0.125947	-0.245213	-0.405360
C100	C	0.625947	0.254787	0.094640
C101	C	0.102487	-0.216450	-0.357967
C102	C	0.602487	0.283550	0.142033
C103	C	0.125941	-0.187685	-0.310562
C104	C	0.625941	0.312315	0.189438
C105	C	0.055569	-0.216454	-0.357973
C106	C	0.555569	0.283546	0.142027
C107	C	0.032114	-0.245218	-0.405377
C108	C	0.532114	0.254782	0.094623
C109	C	0.055577	-0.273979	-0.452776
C110	C	0.555577	0.226021	0.047224
C111	C	0.102493	-0.273977	-0.452764
C112	C	0.602493	0.226023	0.047236
C113	C	0.102478	-0.158925	-0.263164
C114	C	0.602478	0.341075	0.236836
C115	C	0.055563	-0.158929	-0.263178
C116	C	0.555563	0.341071	0.236822
C117	C	0.032108	-0.187694	-0.310583
C118	C	0.532108	0.312306	0.189417
C119	C	0.649100	-0.333169	-0.357864
C120	C	1.149100	0.166831	0.142136
C121	C	0.649112	-0.383104	-0.357862
C122	C	1.149112	0.116896	0.142138
C123	C	0.677901	-0.692705	-0.405507
C124	C	1.177901	-0.192705	0.094493
C125	C	0.677950	-0.880378	-0.405551
C126	C	1.177950	-0.380378	0.094449
O127	O	0.702360	-0.904607	-0.446014
O128	O	1.202360	-0.404607	0.053986
N129	N	0.649245	-0.903889	-0.358009
N130	N	1.149245	-0.403889	0.141991
C131	C	0.620524	-0.880478	-0.310456
C132	C	1.120524	-0.380478	0.189544
O133	O	0.596107	-0.904781	-0.270025
O134	O	1.096107	-0.404781	0.229975
C135	C	0.620473	-0.692806	-0.310416
C136	C	1.120473	-0.192806	0.189584
C137	C	0.649183	-0.669298	-0.357956
C138	C	1.149183	-0.169298	0.142044
C139	C	0.706608	-0.669197	-0.453043
C140	C	1.206608	-0.169197	0.046957
C141	C	0.706597	-0.622281	-0.453029
C142	C	1.206597	-0.122281	0.046971
C143	C	0.677879	-0.598874	-0.405478
C144	C	1.177879	-0.098874	0.094522
C145	C	0.649172	-0.622382	-0.357941
C146	C	1.149172	-0.122382	0.142059
C147	C	0.591750	-0.669396	-0.262867
C148	C	1.091750	-0.169396	0.237133
C149	C	0.591739	-0.622475	-0.262862
C150	C	1.091739	-0.122475	0.237138
C151	C	0.620449	-0.598967	-0.310402
C152	C	1.120449	-0.098967	0.189598
C153	C	0.620444	-0.552059	-0.310375
C154	C	1.120444	-0.052059	0.189625
N155	N	0.649148	-0.528549	-0.357918
N156	N	1.149148	-0.028549	0.142082
C157	C	0.677866	-0.551956	-0.405469
C158	C	1.177866	-0.051956	0.094531
C159	C	0.620553	-0.979009	-0.310479
C160	C	1.120553	-0.479009	0.189521
C161	C	0.620566	-1.025926	-0.310488
C162	C	1.120566	-0.525926	0.189512
C163	C	0.677991	-1.025823	-0.405585
C164	C	1.177991	-0.525823	0.094415
C165	C	0.677980	-0.978905	-0.405572
C166	C	1.177980	-0.478905	0.094428
C167	C	0.649258	-0.955498	-0.358022
C168	C	1.149258	-0.455498	0.141978
C169	C	0.677842	-0.453430	-0.405434
C170	C	1.177842	0.046570	0.094566
C171	C	0.677830	-0.406511	-0.405413
C172	C	1.177830	0.093489	0.094587
C173	C	0.620403	-0.406618	-0.310320
C174	C	1.120403	0.093382	0.189680
C175	C	0.620417	-0.453534	-0.310338
C176	C	1.120417	0.046466	0.189662
C177	C	0.649137	-0.476939	-0.357901
C178	C	1.149137	0.023061	0.142099
O179	O	0.596043	-0.527801	-0.269940
O180	O	1.096043	-0.027801	0.230060
O181	O	0.702273	-0.527645	-0.445905
O182	O	1.202273	-0.027645	0.054095
C183	C	0.677912	-0.739620	-0.405521
C184	C	1.177912	-0.239620	0.094479
C185	C	0.649204	-0.763129	-0.357984
C186	C	1.149204	-0.263129	0.142016
C187	C	0.620487	-0.739721	-0.310433
C188	C	1.120487	-0.239721	0.189567
C189	C	0.649218	-0.810046	-0.357994
C190	C	1.149218	-0.310046	0.142006
C191	C	0.677935	-0.833454	-0.405545
C192	C	1.177935	-0.333454	0.094455
C193	C	0.706640	-0.809943	-0.453087
C194	C	1.206640	-0.309943	0.046913
C195	C	0.706629	-0.763028	-0.453072
C196	C	1.206629	-0.263028	0.046928
C197	C	0.591782	-0.763232	-0.262891
C198	C	1.091782	-0.263232	0.237109
C199	C	0.591796	-0.810147	-0.262909
C200	C	1.091796	-0.310147	0.237091
C201	C	0.620513	-0.833555	-0.310460
C202	C	1.120513	-0.333555	0.189540
C203	C	0.766347	-0.216466	-0.357981
C204	C	1.266347	0.283534	0.142019
C205	C	0.816281	-0.216474	-0.358004
C206	C	1.316281	0.283526	0.141996
C207	C	0.649188	-0.216399	-0.551632
C208	C	1.149188	0.283601	-0.051632
C209	C	0.649197	-0.216378	-0.634178
C210	C	1.149197	0.283622	-0.134178
C211	C	0.649250	-0.099268	-0.358006
C212	C	1.149250	0.400732	0.141994
C213	C	0.649284	-0.049334	-0.358040
C214	C	1.149284	0.450666	0.141960
C215	C	0.679256	-0.186360	-0.833663
C216	C	1.179256	0.313640	-0.333663
C217	C	0.638283	-0.175361	-0.883050
C218	C	1.138283	0.324639	-0.383050
C219	C	0.649215	-0.216370	-0.785309
C220	C	1.149215	0.283630	-0.285309
C221	C	0.690204	-0.227341	-0.883004
C222	C	1.190204	0.272659	-0.383004
C223	C	0.649236	-0.216362	-0.931294
C224	C	1.149236	0.283638	-0.431294
C225	C	0.608220	-0.205350	-0.833608
C226	C	1.108220	0.294650	-0.333608
C227	C	0.660169	-0.257349	-0.833558
C228	C	1.160169	0.242651	-0.333558
C229	C	0.619168	-0.246365	-0.882922
C230	C	1.119168	0.253635	-0.382922
C231	C	0.649203	-0.216374	-0.701210
C232	C	1.149203	0.283626	-0.201210
C233	C	0.649243	-0.216359	-1.015390
C234	C	1.149243	0.283641	-0.515390
C235	C	0.649175	-0.216462	-0.164975
C236	C	1.149175	0.283538	0.335025
C237	C	0.649253	-0.216356	-0.082429
C238	C	1.149253	0.283644	0.417571
H239	H	0.478156	-0.268621	-0.443869
H240	H	0.978156	0.231379	0.056131
C241	C	0.598555	-0.392253	-0.184525
C242	C	1.098555	0.107747	0.315475
C243	C	0.588834	-0.380884	-0.258057
C244	C	1.088834	0.119116	0.241943
H245	H	0.579064	-0.376363	-0.152265
H246	H	1.079064	0.123637	0.347735
H247	H	0.594451	-0.423556	-0.177729
H248	H	1.094451	0.076444	0.322271
H249	H	0.628742	-0.384544	-0.173711
H250	H	1.128742	0.115456	0.326289
H251	H	0.558648	-0.388596	-0.268874
H252	H	1.058648	0.111404	0.231126
H253	H	0.592934	-0.349574	-0.264857
H254	H	1.092934	0.150426	0.235143
C255	C	0.454335	-0.130804	-0.216752
C256	C	0.954335	0.369196	0.283248
C257	C	0.484832	-0.156051	-0.258358
C258	C	0.984832	0.343949	0.241642
H259	H	0.470257	-0.111288	-0.184579
H260	H	0.970257	0.388712	0.315421
H261	H	0.436057	-0.113641	-0.249166
H262	H	0.936057	0.386359	0.250834
H263	H	0.436014	-0.150362	-0.188286
H264	H	0.936014	0.349638	0.311714
H265	H	0.503151	-0.136493	-0.286829
H266	H	1.003151	0.363507	0.213171
H267	H	0.503118	-0.173216	-0.225941
H268	H	1.003118	0.326784	0.274059
C269	C	0.712786	-0.569462	-0.552934
C270	C	1.212786	-0.069462	-0.052934
C271	C	0.738151	-0.596445	-0.505295
C272	C	1.238151	-0.096445	-0.005295
H273	H	0.732268	-0.553513	-0.585200
H274	H	1.232268	-0.053513	-0.085200
H275	H	0.693207	-0.587765	-0.581299
H276	H	1.193207	-0.087765	-0.081299
H277	H	0.695687	-0.548803	-0.524607
H278	H	1.195687	-0.048803	-0.024607
H279	H	0.755248	-0.617107	-0.533621
H280	H	1.255248	-0.117107	-0.033621
H281	H	0.757738	-0.578140	-0.476926
H282	H	1.257738	-0.078140	0.023074
H283	H	0.036472	-0.297401	-0.491372
H284	H	0.536472	0.202599	0.008628
C285	C	0.566301	-0.882110	-0.220699
C286	C	1.066301	-0.382110	0.279301
C287	C	0.560233	-0.835985	-0.210651
C288	C	1.060233	-0.335985	0.289349
H289	H	0.546815	-0.898059	-0.188439
H290	H	1.046815	-0.398059	0.311561
H291	H	0.559711	-0.889771	-0.270584
H292	H	1.059711	-0.389771	0.229416
H293	H	0.596491	-0.889783	-0.209877
H294	H	1.096491	-0.389783	0.290123
H295	H	0.530044	-0.828311	-0.221479
H296	H	1.030044	-0.328311	0.278521
H297	H	0.566819	-0.828321	-0.160755
H298	H	1.066819	-0.328321	0.339245
H299	H	0.629025	-0.140703	-0.904789
H300	H	1.129025	0.359297	-0.404789
H301	H	0.036465	-0.135505	-0.224576
H302	H	0.536465	0.364495	0.275424
C303	C	0.672132	-0.303717	-0.726617
C304	C	1.172132	0.196283	-0.226617
C305	C	0.672682	-0.304122	-0.804181
C306	C	1.172682	0.195878	-0.304181
H307	H	0.679858	-0.332594	-0.708482
H308	H	1.179858	0.167406	-0.208482
H309	H	0.693168	-0.282331	-0.709023
H310	H	1.193168	0.217669	-0.209023
H311	H	0.642995	-0.295957	-0.709743
H312	H	1.142995	0.204043	-0.209743
H313	H	0.701821	-0.311879	-0.821055
H314	H	1.201821	0.188121	-0.321055
H315	H	0.651645	-0.325515	-0.821783
H316	H	1.151645	0.174485	-0.321783
C317	C	0.097748	-0.102066	-0.169452
C318	C	0.597748	0.397934	0.330548
C319	C	0.128255	-0.127306	-0.211048
C320	C	0.628255	0.372694	0.288952
H321	H	0.113661	-0.082549	-0.137271
H322	H	0.613661	0.417451	0.362729
H323	H	0.079471	-0.084906	-0.201870
H324	H	0.579471	0.415094	0.298130
H325	H	0.079427	-0.121629	-0.140994
H326	H	0.579427	0.378371	0.359006
H327	H	0.146574	-0.107743	-0.239510
H328	H	0.646574	0.392257	0.260490
H329	H	0.146540	-0.144468	-0.178625
H330	H	0.646540	0.355532	0.321375
C331	C	0.595948	-0.323401	-0.885863
C332	C	1.095948	0.176599	-0.385863
C333	C	0.584849	-0.280620	-0.911952
C334	C	1.084849	0.219380	-0.411952
H335	H	0.574758	-0.344545	-0.903785
H336	H	1.074758	0.155455	-0.403785
H337	H	0.625026	-0.331261	-0.902868
H338	H	1.125026	0.168739	-0.402868
H339	H	0.595579	-0.323411	-0.833239
H340	H	1.095579	0.176589	-0.333239
H341	H	0.585221	-0.280609	-0.964576
H342	H	1.085221	0.219391	-0.464576
H343	H	0.555763	-0.272757	-0.894951
H344	H	1.055763	0.227243	-0.394951
H345	H	0.729993	-0.688250	-0.491770
H346	H	1.229993	-0.188250	0.008230
C347	C	0.738397	-0.926091	-0.416000
C348	C	1.238397	-0.426091	0.084000
C349	C	0.709536	-0.953068	-0.457834
C350	C	1.209536	-0.453068	0.042166
H351	H	0.757880	-0.910145	-0.448268
H352	H	1.257880	-0.410145	0.051732
H353	H	0.721293	-0.905433	-0.387692
H354	H	1.221293	-0.405433	0.112308
H355	H	0.755597	-0.944402	-0.383676
H356	H	1.255597	-0.444402	0.116324
H357	H	0.692334	-0.934756	-0.490154
H358	H	1.192334	-0.434756	0.009846
H359	H	0.726642	-0.973728	-0.486155
H360	H	1.226642	-0.473728	0.013845
C361	C	0.745830	-0.174192	-0.761754
C362	C	1.245830	0.325808	-0.261754
C363	C	0.713497	-0.152082	-0.804454
C364	C	1.213497	0.347918	-0.304454
H365	H	0.766968	-0.153029	-0.743725
H366	H	1.266968	0.346971	-0.243725
H367	H	0.731684	-0.188725	-0.721160
H368	H	1.231684	0.311275	-0.221160
H369	H	0.760771	-0.195811	-0.791423
H370	H	1.260771	0.304189	-0.291423
H371	H	0.698553	-0.130465	-0.774783
H372	H	1.198553	0.369535	-0.274783
H373	H	0.727644	-0.137542	-0.845054
H374	H	1.227644	0.362458	-0.345054
C375	C	0.703499	-1.097703	-0.447825
C376	C	1.203499	-0.597703	0.052175
C377	C	0.709556	-1.051559	-0.457861
C378	C	1.209556	-0.551559	0.042139
H379	H	0.722981	-1.113591	-0.480103
H380	H	1.222981	-0.613591	0.019897
H381	H	0.710101	-1.105411	-0.397947
H382	H	1.210101	-0.605411	0.102053
H383	H	0.673308	-1.105401	-0.458632
H384	H	1.173308	-0.605401	0.041368
H385	H	0.739746	-1.043860	-0.447048
H386	H	1.239746	-0.543860	0.052952
H387	H	0.702957	-1.043847	-0.507750
H388	H	1.202957	-0.543847	-0.007750
H389	H	0.177232	-0.297397	-0.491348
H390	H	0.677232	0.202603	0.008652
H391	H	0.262329	-0.135478	-0.224545
H392	H	0.762329	0.364522	0.275455
C393	C	0.563798	-0.983833	-0.216473
C394	C	1.063798	-0.483833	0.283527
C395	C	0.588984	-0.953284	-0.258199
C396	C	1.088984	-0.453284	0.241801
H397	H	0.544312	-0.967953	-0.184192
H398	H	1.044312	-0.467953	0.315808
H399	H	0.546606	-1.002126	-0.248804
H400	H	1.046606	-0.502126	0.251196
H401	H	0.583396	-1.002135	-0.188116
H402	H	1.083396	-0.502135	0.311884
H403	H	0.569385	-0.934984	-0.286561
H404	H	1.069385	-0.434984	0.213439
H405	H	0.606177	-0.934984	-0.225864
H406	H	1.106177	-0.434984	0.274136
C407	C	0.734592	-0.411129	-0.499420
C408	C	1.234592	0.088871	0.000580
C409	C	0.709387	-0.380671	-0.457678
C410	C	1.209387	0.119329	0.042322
H411	H	0.754070	-0.395177	-0.531688
H412	H	1.254070	0.104823	-0.031688
H413	H	0.751793	-0.429433	-0.467100
H414	H	1.251793	0.070567	0.032900
H415	H	0.715005	-0.429428	-0.527792
H416	H	1.215005	0.070572	-0.027792
H417	H	0.728974	-0.362375	-0.429301
H418	H	1.228974	0.137625	0.070699
H419	H	0.692185	-0.362359	-0.490002
H420	H	1.192185	0.137641	0.009998
C421	C	0.560152	-1.078739	-0.300069
C422	C	1.060152	-0.578739	0.199931
C423	C	0.589010	-1.051764	-0.258227
C424	C	1.089010	-0.551764	0.241773
H425	H	0.540670	-1.094690	-0.267806
H426	H	1.040670	-0.594690	0.232194
H427	H	0.542955	-1.060430	-0.332388
H428	H	1.042955	-0.560430	0.167612
H429	H	0.577261	-1.099396	-0.328383
H430	H	1.077261	-0.599396	0.171617
H431	H	0.571901	-1.031103	-0.229918
H432	H	1.071901	-0.531103	0.270082
H433	H	0.606209	-1.070074	-0.225896
H434	H	1.106209	-0.570074	0.274104
H435	H	0.724859	-0.236623	-0.904704
H436	H	1.224859	0.263377	-0.404704
H437	H	0.573555	-0.196028	-0.812002
H438	H	1.073555	0.303972	-0.312002
H439	H	0.393048	-0.268622	-0.443903
H440	H	0.893048	0.231378	0.056097
C441	C	-0.213012	-0.127285	-0.300459
C442	C	0.286988	0.372715	0.199541
C443	C	-0.186055	-0.156103	-0.258486
C444	C	0.313945	0.343897	0.241514
H445	H	-0.228936	-0.107775	-0.268283
H446	H	0.271064	0.392225	0.231717
H447	H	-0.194693	-0.110115	-0.332856
H448	H	0.305307	0.389885	0.167144
H449	H	-0.233693	-0.144421	-0.328693
H450	H	0.266307	0.355579	0.171307
H451	H	-0.165371	-0.138967	-0.230256
H452	H	0.334629	0.361033	0.269744
H453	H	-0.204375	-0.173274	-0.226076
H454	H	0.295625	0.326726	0.273924
H455	H	0.262336	-0.297395	-0.491326
H456	H	0.762336	0.202605	0.008674
H457	H	-0.094254	-0.164278	-0.271988
H458	H	0.405746	0.335722	0.228012
C459	C	0.359319	-0.181347	-0.210630
C460	C	0.859319	0.318653	0.289370
C461	C	0.386333	-0.156049	-0.258396
C462	C	0.886333	0.343951	0.241604
H463	H	0.343397	-0.161820	-0.178478
H464	H	0.843397	0.338180	0.321522
H465	H	0.338640	-0.198476	-0.238867
H466	H	0.838640	0.301524	0.261133
H467	H	0.377601	-0.200895	-0.182141
H468	H	0.877601	0.299105	0.317859
H469	H	0.368050	-0.136503	-0.286889
H470	H	0.868050	0.363497	0.213111
H471	H	0.407015	-0.138912	-0.230156
H472	H	0.907015	0.361088	0.269844
C473	C	0.097773	-0.330837	-0.546478
C474	C	0.597773	0.169163	-0.046478
C475	C	0.128276	-0.305594	-0.504870
C476	C	0.628276	0.194406	-0.004870
H477	H	0.113690	-0.350354	-0.578651
H478	H	0.613690	0.149646	-0.078651
H479	H	0.079457	-0.347998	-0.514066
H480	H	0.579457	0.152002	-0.014066
H481	H	0.079491	-0.311276	-0.574944
H482	H	0.579491	0.188724	-0.074944
H483	H	0.146557	-0.325155	-0.476400
H484	H	0.646557	0.174845	0.023600
H485	H	0.146600	-0.288431	-0.537287
H486	H	0.646600	0.211569	-0.037287
H487	H	0.177220	-0.135488	-0.224548
H488	H	0.677220	0.364512	0.275452
C489	C	0.763388	-0.767653	-0.547074
C490	C	1.263388	-0.267653	-0.047074
C491	C	0.738185	-0.737192	-0.505337
C492	C	1.238185	-0.237192	-0.005337
H493	H	0.782867	-0.751704	-0.579345
H494	H	1.282867	-0.251704	-0.079345
H495	H	0.780588	-0.785956	-0.514750
H496	H	1.280588	-0.285956	-0.014750
H497	H	0.743800	-0.785953	-0.575442
H498	H	1.243800	-0.285953	-0.075442
H499	H	0.757772	-0.718894	-0.476964
H500	H	1.257772	-0.218894	0.023036
H501	H	0.720983	-0.718881	-0.537665
H502	H	1.220983	-0.218881	-0.037665
H503	H	-0.179360	-0.268659	-0.444005
H504	H	0.320640	0.231341	0.055995
H505	H	-0.094238	-0.268658	-0.443991
H506	H	0.405762	0.231342	0.056009
H507	H	0.568372	-0.688528	-0.224154
H508	H	1.068372	-0.188528	0.275846
C509	C	0.534973	-0.627293	-0.168871
C510	C	1.034973	-0.127293	0.331129
C511	C	0.560166	-0.596747	-0.210591
C512	C	1.060166	-0.096747	0.289409
H513	H	0.515484	-0.611410	-0.136599
H514	H	1.015484	-0.111410	0.363401
H515	H	0.517784	-0.645586	-0.201205
H516	H	1.017784	-0.145586	0.298795
H517	H	0.554567	-0.645595	-0.140504
H518	H	1.054567	-0.145595	0.359496
H519	H	0.540573	-0.578447	-0.238962
H520	H	1.040573	-0.078447	0.261038
H521	H	0.577357	-0.578447	-0.178252
H522	H	1.077357	-0.078447	0.321748
C523	C	0.738287	-0.506132	-0.415892
C524	C	1.238287	-0.006132	0.084108
C525	C	0.709413	-0.479152	-0.457715
C526	C	1.209413	0.020848	0.042285
H527	H	0.757777	-0.522012	-0.448167
H528	H	1.257777	-0.022012	0.051833
H529	H	0.755475	-0.487835	-0.383562
H530	H	1.255475	0.012165	0.116438
H531	H	0.721190	-0.526852	-0.387591
H532	H	1.221190	-0.026852	0.112409
H533	H	0.726510	-0.458429	-0.486011
H534	H	1.226510	0.041571	0.013989
H535	H	0.692224	-0.497450	-0.490057
H536	H	1.192224	0.002550	0.009943
C537	C	0.560005	-0.506352	-0.299921
C538	C	1.060005	-0.006352	0.200079
C539	C	0.588864	-0.479379	-0.258077
C540	C	1.088864	0.020621	0.241923
H541	H	0.540527	-0.522308	-0.267659
H542	H	1.040527	-0.022308	0.232341
H543	H	0.542804	-0.488040	-0.332231
H544	H	1.042804	0.011960	0.167769
H545	H	0.577114	-0.527005	-0.328244
H546	H	1.077114	-0.027005	0.171756
H547	H	0.571756	-0.458724	-0.229758
H548	H	1.071756	0.041276	0.270242
H549	H	0.606067	-0.497693	-0.225754
H550	H	1.106067	0.002307	0.274246
H551	H	0.730025	-0.829010	-0.491802
H552	H	1.230025	-0.329010	0.008198
C553	C	0.535029	-0.768056	-0.168889
C554	C	1.035029	-0.268056	0.331111
C555	C	0.560217	-0.737507	-0.210612
C556	C	1.060217	-0.237507	0.289388
H557	H	0.515544	-0.752175	-0.136606
H558	H	1.015544	-0.252175	0.363394
H559	H	0.517835	-0.786346	-0.201221
H560	H	1.017835	-0.286346	0.298779
H561	H	0.554626	-0.786360	-0.140533
H562	H	1.054626	-0.286360	0.359467
H563	H	0.540619	-0.719204	-0.238971
H564	H	1.040619	-0.219204	0.261029
H565	H	0.577412	-0.719209	-0.178275
H566	H	1.077412	-0.219209	0.321725
