data_functionalizedCrystal
_audit_creation_method	'MofGen! by Chris Wilmer'
_symmetry_space_group_name_H-M	'P1'
_symmetry_Int_Tables_number	1
_symmetry_cell_setting	triclinic
loop_
_symmetry_equiv_pos_as_xyz
  x,y,z
_cell_length_a	15.538191
_cell_length_b	17.038272
_cell_length_c	14.750779
_cell_angle_alpha	76.426773
_cell_angle_beta	97.572172
_cell_angle_gamma	69.191825
loop_
_atom_site_label
_atom_site_type_symbol
_atom_site_fract_x
_atom_site_fract_y
_atom_site_fract_z
O1	O	1.211348	-0.226027	-0.079834
O2	O	0.944163	-0.137757	-0.079834
O3	O	1.076169	-0.295259	-0.079826
O4	O	1.079341	-0.068524	-0.079842
O5	O	1.113486	-0.339779	0.079826
O6	O	0.981480	-0.182277	0.079818
O7	O	1.248665	-0.270547	0.079819
Zn8	Zn	1.120997	-0.233481	0.105167
Zn9	Zn	1.071830	-0.174823	-0.105182
O10	O	1.116658	-0.113045	0.079811
C11	C	0.928466	-0.150782	-0.000008
C12	C	0.826097	-0.123272	-0.000008
C13	C	0.516405	-0.396569	-0.000005
C14	C	0.420212	-0.370700	-0.000007
C15	C	0.409427	-0.225194	-0.000017
C16	C	0.505622	-0.251052	-0.000010
C17	C	0.559104	-0.336740	-0.000005
C18	C	0.548321	-0.191224	-0.000010
C19	C	0.644507	-0.217079	-0.000007
C20	C	0.697994	-0.302762	-0.000005
C21	C	0.655290	-0.362595	-0.000003
C22	C	0.494837	-0.105535	-0.000021
C23	C	0.537536	-0.045706	-0.000021
C24	C	0.633725	-0.071563	-0.000012
C25	C	0.687212	-0.157246	-0.000010
C26	C	0.676429	-0.011730	-0.000015
C27	C	0.772615	-0.037585	-0.000013
C28	C	0.783398	-0.183101	-0.000008
C29	C	1.091939	-0.345828	-0.000000
C30	C	1.083321	-0.430177	-0.000001
C31	C	1.162445	-0.502729	0.000001
C32	C	1.154339	-0.581979	-0.000008
C33	C	1.067111	-0.588678	-0.000012
C34	C	0.987981	-0.516117	-0.000016
C35	C	0.996085	-0.436867	-0.000014
C36	C	1.038479	-0.826313	-0.000025
C37	C	1.030381	-0.905573	-0.000025
C38	C	1.196740	-0.971428	-0.000019
C39	C	1.204838	-0.892175	-0.000011
C40	C	1.125706	-0.819621	-0.000020
C41	C	1.058825	-0.669684	-0.000018
C42	C	1.133992	-0.738614	-0.000020
C43	C	1.264361	-0.257522	-0.000009
C44	C	1.366729	-0.285029	-0.000016
C45	C	1.100888	-0.062475	-0.000017
C46	C	1.109505	0.021876	-0.000023
N47	N	1.154558	-0.273515	0.248725
N48	N	1.038276	-0.134797	-0.248740
C49	C	0.944540	-0.023020	0.600530
C50	C	0.968065	-0.051070	0.701031
C51	C	1.084986	-0.190507	0.701000
C52	C	1.061467	-0.162470	0.600498
C53	C	0.991244	-0.078725	0.550271
C54	C	1.108172	-0.218176	0.550238
C55	C	1.084658	-0.190139	0.449744
C56	C	1.014440	-0.106396	0.399510
C57	C	0.967731	-0.050688	0.449777
C58	C	1.178399	-0.301918	0.600467
C59	C	1.225103	-0.357624	0.550208
C60	C	1.201585	-0.329589	0.449712
C61	C	1.131367	-0.245847	0.399478
C62	C	1.248294	-0.385297	0.399446
C63	C	1.224781	-0.357260	0.298952
C64	C	1.107854	-0.217810	0.298984
H65	H	0.776312	-0.323808	-0.000017
Cl66	Cl	1.253816	-0.673186	-0.000004
Cl67	Cl	0.342184	-0.117475	-0.000029
Cl68	Cl	0.373916	-0.073032	-0.000024
Cl69	Cl	0.470292	0.062013	-0.000033
H70	H	0.632868	0.058040	-0.000029
H71	H	1.305477	-0.453480	0.440354
H72	H	1.197543	-0.324741	0.682296
Cl73	Cl	0.878319	-0.524535	-0.000032
Cl74	Cl	1.283500	-0.427291	0.235767
Cl75	Cl	1.314494	-0.883753	-0.000037
Cl76	Cl	0.722534	-0.470323	0.000015
H77	H	1.282282	-0.425809	0.591114
Cl78	Cl	1.243645	-0.730188	-0.000021
Cl79	Cl	1.019561	-0.112532	0.235837
Cl80	Cl	0.850642	-0.290828	0.000010
Cl81	Cl	0.984884	-0.071147	0.273173
H82	H	0.559954	-0.466346	0.000005
H83	H	0.974043	-0.767247	-0.000032
Cl84	Cl	0.920715	-0.913991	-0.000023
H85	H	0.385450	-0.419425	-0.000009
H86	H	0.910542	0.017502	0.408880
Cl87	Cl	0.826298	0.037629	-0.000015
H88	H	0.887351	0.045170	0.559633
Cl89	Cl	0.949168	-0.678112	-0.000028
H90	H	0.930027	-0.005700	0.741947
H91	H	1.261164	-1.030509	-0.000013
H92	H	1.233477	-0.497286	0.000009
H93	H	0.931654	-0.377793	-0.000015
Cl94	Cl	1.173265	-0.295783	0.764150
