data_functionalizedCrystal
_audit_creation_method	'MofGen! by Chris Wilmer'
_symmetry_space_group_name_H-M	'P1'
_symmetry_Int_Tables_number	1
_symmetry_cell_setting	triclinic
loop_
_symmetry_equiv_pos_as_xyz
  x,y,z
_cell_length_a	12.594517
_cell_length_b	21.295417
_cell_length_c	12.594509
_cell_angle_alpha	90.036245
_cell_angle_beta	90.021327
_cell_angle_gamma	90.030306
loop_
_atom_site_label
_atom_site_type_symbol
_atom_site_fract_x
_atom_site_fract_y
_atom_site_fract_z
Zn1	Zn	1.627160	-0.250594	0.601801
Zn2	Zn	2.127160	0.249406	1.101801
Zn3	Zn	1.627006	-0.355872	0.423797
Zn4	Zn	2.127006	0.144128	0.923797
Zn5	Zn	1.449164	-0.250621	0.423830
Zn6	Zn	1.949164	0.249379	0.923830
Zn7	Zn	1.449101	-0.355829	0.601727
Zn8	Zn	1.949101	0.144171	1.101727
O9	O	1.538108	-0.303229	0.512789
O10	O	2.038108	0.196771	1.012789
O11	O	1.776085	-0.264566	0.578205
O12	O	2.276085	0.235434	1.078205
O13	O	1.603377	-0.341940	0.274856
O14	O	2.103377	0.158060	0.774856
O15	O	1.472866	-0.162528	0.447482
O16	O	1.972866	0.337472	0.947482
O17	O	1.775972	-0.341914	0.447427
O18	O	2.275972	0.158086	0.947427
O19	O	1.603639	-0.162508	0.578237
O20	O	2.103639	0.337492	1.078237
O21	O	1.472717	-0.264612	0.274879
O22	O	1.972717	0.235388	0.774879
O23	O	1.300210	-0.264570	0.447411
O24	O	1.800210	0.235430	0.947411
O25	O	1.472759	-0.341839	0.750683
O26	O	1.972759	0.158161	1.250683
O27	O	1.300164	-0.341865	0.578112
O28	O	1.800164	0.158135	1.078112
O29	O	1.603578	-0.264524	0.750737
O30	O	2.103578	0.235476	1.250737
O31	O	1.603316	-0.443956	0.447356
O32	O	2.103316	0.056044	0.947356
O33	O	1.472610	-0.443924	0.578080
O34	O	1.972610	0.056076	1.078080
C35	C	1.261567	-0.303216	0.512757
C36	C	1.761567	0.196784	1.012757
C37	C	1.143261	-0.303226	0.512769
C38	C	1.643261	0.196774	1.012769
C39	C	1.074002	-0.261127	0.441817
C40	C	1.574002	0.238873	0.941817
C41	C	1.003167	-0.318547	0.415623
C42	C	1.503167	0.181453	0.915623
C43	C	1.003298	-0.245834	0.538981
C44	C	1.503298	0.254166	1.038981
C45	C	1.073984	-0.360676	0.486525
C46	C	1.573984	0.139324	0.986525
C47	C	1.074121	-0.287924	0.609928
C48	C	1.574121	0.212076	1.109928
C49	C	1.003318	-0.345384	0.583771
C50	C	1.503318	0.154616	1.083771
C51	C	1.537968	-0.466780	0.512730
C52	C	2.037968	0.033220	1.012730
C53	C	1.538006	-0.536748	0.512740
C54	C	2.038006	-0.036748	1.012740
C55	C	1.606125	-0.569611	0.444742
C56	C	2.106125	-0.069611	0.944742
C57	C	1.606175	-0.635353	0.444766
C58	C	2.106175	-0.135353	0.944766
C59	C	1.538087	-0.668231	0.512777
C60	C	2.038087	-0.168231	1.012777
C61	C	1.469963	-0.635361	0.580789
C62	C	1.969963	-0.135361	1.080789
C63	C	1.469923	-0.569619	0.580770
C64	C	1.969923	-0.069619	1.080770
N65	N	1.444976	-0.771496	0.520881
N66	N	1.944976	-0.271496	1.020881
N67	N	1.445018	-0.833948	0.520892
N68	N	1.945018	-0.333948	1.020892
C69	C	1.538206	-0.866306	0.512838
C70	C	2.038206	-0.366306	1.012838
N71	N	1.631353	-0.833853	0.504752
N72	N	2.131353	-0.333853	1.004752
N73	N	1.631311	-0.771396	0.504735
N74	N	2.131311	-0.271396	1.004735
C75	C	1.538123	-0.739516	0.512805
C76	C	2.038123	-0.239516	1.012805
C77	C	1.606385	-0.970454	0.444862
C78	C	2.106385	-0.470454	0.944862
C79	C	1.606436	-1.036197	0.444893
C80	C	2.106436	-0.536197	0.944893
C81	C	1.470215	-1.036203	0.580910
C82	C	1.970215	-0.536203	1.080910
C83	C	1.470173	-0.970461	0.580885
C84	C	1.970173	-0.470461	1.080885
C85	C	1.538256	-0.937590	0.512855
C86	C	2.038256	-0.437590	1.012855
C87	C	1.815729	-0.303242	0.512821
C88	C	2.315729	0.196758	1.012821
C89	C	1.934034	-0.303247	0.512835
C90	C	2.434034	0.196753	1.012835
C91	C	1.538179	-0.303174	0.790410
C92	C	2.038179	0.196826	1.290410
C93	C	1.538209	-0.303150	0.908715
C94	C	2.038209	0.196850	1.408715
C95	C	1.538277	-0.139038	0.512871
C96	C	2.038277	0.360962	1.012871
C97	C	1.538349	-0.069070	0.512906
C98	C	2.038349	0.430930	1.012906
C99	C	1.538098	-0.303238	0.236248
C100	C	2.038098	0.196762	0.736248
C101	C	1.538274	-0.303084	0.117943
C102	C	2.038274	0.196916	0.617943
C103	C	1.467079	-0.345178	0.977939
C104	C	1.967079	0.154822	1.477939
C105	C	1.564193	-0.360559	1.048726
C106	C	2.064193	0.139441	1.548726
C107	C	1.441171	-0.287731	1.048728
C108	C	1.941171	0.212269	1.548728
C109	C	1.635374	-0.318561	0.977944
C110	C	2.135374	0.181439	1.477944
C111	C	1.512287	-0.245707	0.977939
C112	C	2.012287	0.254293	1.477939
C113	C	1.609468	-0.261066	1.048694
C114	C	2.109468	0.238934	1.548694
H115	H	0.972477	-0.381035	0.643801
H116	H	1.472477	0.118965	1.143801
O117	O	1.689265	-0.213945	1.089590
O118	O	2.189265	0.286055	1.589590
H119	H	1.688246	-0.213960	1.177713
H120	H	2.188246	0.286040	1.677713
H121	H	1.414781	-1.062971	0.636291
H122	H	1.914781	-0.562971	1.136291
O123	O	0.961875	-0.335717	0.306831
O124	O	1.461875	0.164283	0.806831
H125	H	0.912147	-0.296798	0.275870
H126	H	1.412147	0.203202	0.775870
H127	H	1.661914	-1.062953	0.389523
H128	H	2.161914	-0.562953	0.889523
O129	O	1.396523	-0.670815	0.654147
O130	O	1.896523	-0.170815	1.154147
H131	H	1.312991	-0.658242	0.635817
H132	H	1.812991	-0.158242	1.135817
H133	H	1.414451	-0.542862	0.636144
H134	H	1.914451	-0.042862	1.136144
H135	H	1.586154	-0.409109	1.079819
H136	H	2.086154	0.090891	1.579819
O137	O	1.115453	-0.270743	0.718692
O138	O	1.615453	0.229257	1.218692
H139	H	1.087198	-0.223049	0.740245
H140	H	1.587198	0.276951	1.240245
H141	H	1.414699	-0.943702	0.636251
H142	H	1.914699	-0.443702	1.136251
H143	H	1.717489	-0.331630	0.946982
H144	H	2.217489	0.168370	1.446982
O145	O	0.962169	-0.181533	0.568328
O146	O	1.462169	0.318467	1.068328
H147	H	0.990492	-0.146670	0.509288
H148	H	1.490492	0.353330	1.009288
H149	H	1.490297	-0.197170	0.946822
H150	H	1.990297	0.302830	1.446822
H151	H	1.661565	-0.542849	0.389350
H152	H	2.161565	-0.042849	0.889350
H153	H	1.661649	-0.662115	0.389393
H154	H	2.161649	-0.162115	0.889393
O155	O	1.387472	-0.392325	0.936757
O156	O	1.887472	0.107675	1.436757
H157	H	1.409281	-0.439946	0.965103
H158	H	1.909281	0.060054	1.465103
H159	H	1.359080	-0.274717	1.079821
H160	H	1.859080	0.225283	1.579821
O161	O	1.679831	-0.934987	0.371518
O162	O	2.179831	-0.434987	0.871518
H163	H	1.661653	-0.947652	0.287962
H164	H	2.161653	-0.447652	0.787962
O165	O	1.115137	-0.214018	0.362249
O166	O	1.615137	0.285982	0.862249
H167	H	1.086720	-0.226884	0.281685
H168	H	1.586720	0.273116	0.781685
H169	H	1.104905	-0.409235	0.464291
H170	H	1.604905	0.090765	0.964291
