data_functionalizedCrystal
_audit_creation_method	'MofGen! by Chris Wilmer'
_symmetry_space_group_name_H-M	'P1'
_symmetry_Int_Tables_number	1
_symmetry_cell_setting	triclinic
loop_
_symmetry_equiv_pos_as_xyz
  x,y,z
_cell_length_a	12.827892
_cell_length_b	10.686220
_cell_length_c	10.686551
_cell_angle_alpha	89.691918
_cell_angle_beta	85.594922
_cell_angle_gamma	85.603024
loop_
_atom_site_label
_atom_site_type_symbol
_atom_site_fract_x
_atom_site_fract_y
_atom_site_fract_z
Zn1	Zn	-0.254771	-1.972286	-0.562389
Zn2	Zn	0.245229	-1.472286	-0.062389
Zn3	Zn	-0.443915	-1.956055	-0.352633
Zn4	Zn	0.056085	-1.456055	0.147367
Zn5	Zn	-0.281503	-1.746404	-0.368707
Zn6	Zn	0.218497	-1.246404	0.131293
Zn7	Zn	-0.441797	-1.762485	-0.578411
Zn8	Zn	0.058203	-1.262485	-0.078411
O9	O	-0.355496	-1.859307	-0.465535
O10	O	0.144504	-1.359307	0.034465
O11	O	-0.269560	-2.145674	-0.521133
O12	O	0.230440	-1.645674	-0.021133
O13	O	-0.434445	-1.914721	-0.179220
O14	O	0.065555	-1.414721	0.320780
O15	O	-0.131715	-1.776430	-0.394421
O16	O	0.368285	-1.276430	0.105579
O17	O	-0.408523	-2.133750	-0.367026
O18	O	0.091477	-1.633750	0.132974
O19	O	-0.112075	-1.942384	-0.536719
O20	O	0.387925	-1.442384	-0.036719
O21	O	-0.315121	-1.760692	-0.191029
O22	O	0.184879	-1.260692	0.308971
O23	O	-0.313068	-1.572995	-0.409957
O24	O	0.186932	-1.072995	0.090043
O25	O	-0.404914	-1.803838	-0.751831
O26	O	0.095086	-1.303838	-0.251831
O27	O	-0.430835	-1.584810	-0.564025
O28	O	0.069165	-1.084810	-0.064025
O29	O	-0.267506	-1.957978	-0.740060
O30	O	0.232494	-1.457978	-0.240060
O31	O	-0.589876	-1.930315	-0.382561
O32	O	-0.089876	-1.430315	0.117439
O33	O	-0.588320	-1.788100	-0.548439
O34	O	-0.088320	-1.288100	-0.048439
C35	C	-0.374623	-1.533386	-0.490474
C36	C	0.125377	-1.033386	0.009526
C37	C	-0.382829	-1.393958	-0.501173
C38	C	0.117171	-0.893958	-0.001173
C39	C	-0.627013	-1.859227	-0.465519
C40	C	-0.127013	-1.359227	0.034481
C41	C	-0.743159	-1.859311	-0.465545
C42	C	-0.243159	-1.359311	0.034455
C43	C	-0.332992	-1.884512	-0.792735
C44	C	0.167008	-1.384512	-0.292735
C45	C	-0.323402	-1.895253	-0.932168
C46	C	0.176598	-1.395253	-0.432168
C47	C	-0.795668	-1.929780	-0.383541
C48	C	-0.295668	-1.429780	0.116459
C49	C	-0.915711	-1.929868	-0.383567
C50	C	-0.415711	-1.429868	0.116433
C51	C	-0.082916	-1.859424	-0.465576
C52	C	0.417084	-1.359424	0.034424
C53	C	0.033241	-1.859474	-0.465594
C54	C	0.533241	-1.359474	0.034406
C55	C	-0.336296	-2.186501	-0.440499
C56	C	0.163704	-1.686501	0.059501
C57	C	-0.328114	-2.325931	-0.429830
C58	C	0.171886	-1.825931	0.070170
C59	C	-0.377834	-1.834273	-0.139602
C60	C	0.122166	-1.334273	0.360398
C61	C	-0.387115	-1.823775	-0.000151
C62	C	0.112885	-1.323775	0.499849
H63	H	-0.751753	-1.990053	-0.313319
H64	H	-0.251753	-1.490053	0.186681
N65	N	-0.241410	-1.987201	-0.996353
N66	N	0.258590	-1.487201	-0.496353
H67	H	-0.253923	-2.075092	-0.966751
H68	H	0.246077	-1.575092	-0.466751
H69	H	-0.245982	-1.981997	-1.090188
H70	H	0.254018	-1.481997	-0.590188
N71	N	-0.975511	-2.009777	-0.290552
N72	N	-0.475511	-1.509777	0.209448
H73	H	-1.052789	-1.998508	-0.303750
H74	H	-0.552789	-1.498508	0.196250
H75	H	-0.949813	-2.100868	-0.303264
H76	H	-0.449813	-1.600868	0.196736
N77	N	-0.257738	-1.390054	-0.338077
N78	N	0.242262	-0.890054	0.161923
H79	H	-0.300970	-1.439917	-0.275734
H80	H	0.199030	-0.939917	0.224266
H81	H	-0.202709	-1.448302	-0.385125
H82	H	0.297291	-0.948302	0.114875
N83	N	-0.906962	-1.779557	-0.558603
N84	N	-0.406962	-1.279557	-0.058603
H85	H	-0.957527	-1.732592	-0.613347
H86	H	-0.457527	-1.232592	-0.113347
H87	H	-0.868661	-1.717620	-0.511869
H88	H	-0.368661	-1.217620	-0.011869
N89	N	-0.469098	-1.731832	-0.935964
N90	N	0.030902	-1.231832	-0.435964
H91	H	-0.464560	-1.736934	-0.842115
H92	H	0.035440	-1.236934	-0.342115
H93	H	-0.456538	-1.643986	-0.965659
H94	H	0.043462	-1.143986	-0.465659
H95	H	-0.787075	-1.799050	-0.535775
H96	H	-0.287075	-1.299050	-0.035775
H97	H	-0.435960	-1.345526	-0.570436
H98	H	0.064040	-0.845526	-0.070436
