data_functionalizedCrystal
_audit_creation_method	'MofGen! by Chris Wilmer'
_symmetry_space_group_name_H-M	'P1'
_symmetry_Int_Tables_number	1
_symmetry_cell_setting	triclinic
loop_
_symmetry_equiv_pos_as_xyz
  x,y,z
_cell_length_a	12.811457
_cell_length_b	11.792254
_cell_length_c	11.892095
_cell_angle_alpha	93.915908
_cell_angle_beta	91.498327
_cell_angle_gamma	84.120767
loop_
_atom_site_label
_atom_site_type_symbol
_atom_site_fract_x
_atom_site_fract_y
_atom_site_fract_z
O1	O	1.390093	0.156590	0.048503
O2	O	1.890093	0.656590	0.548503
O3	O	1.086814	0.170826	0.017410
O4	O	1.586814	0.670826	0.517410
O5	O	1.245806	-0.001417	0.033718
O6	O	1.745806	0.498583	0.533718
O7	O	1.231101	0.328834	0.032195
O8	O	1.731101	0.828834	0.532195
O9	O	1.232549	0.012922	0.220366
O10	O	1.732549	0.512922	0.720366
O11	O	1.073557	0.185165	0.204058
O12	O	1.573557	0.685165	0.704058
O13	O	1.376837	0.170929	0.235151
O14	O	1.876837	0.670929	0.735151
Zn15	Zn	1.223092	0.180324	0.249239
Zn16	Zn	1.723092	0.680324	0.749239
Zn17	Zn	1.240558	0.161432	0.003322
Zn18	Zn	1.740558	0.661432	0.503322
O19	O	1.217845	0.343173	0.218842
O20	O	1.717845	0.843173	0.718842
C21	C	1.041359	0.176759	0.106753
C22	C	1.541359	0.676759	0.606753
C23	C	0.925668	0.173059	0.094892
C24	C	1.425668	0.673059	0.594892
C25	C	0.693819	0.181719	0.276111
C26	C	1.193819	0.681719	0.776111
C27	C	0.585117	0.178243	0.264972
C28	C	1.085117	0.678243	0.764972
C29	C	0.599560	0.162622	0.061477
C30	C	1.099560	0.662622	0.561477
C31	C	0.708262	0.166098	0.072616
C32	C	1.208262	0.666098	0.572616
C33	C	0.755388	0.175648	0.179936
C34	C	1.255388	0.675648	0.679936
C35	C	0.864091	0.179133	0.191074
C36	C	1.364091	0.679133	0.691074
C37	C	0.878533	0.163504	-0.012420
C38	C	1.378533	0.663504	0.487580
C39	C	0.769831	0.160028	-0.023558
C40	C	1.269831	0.660028	0.476442
C41	C	1.238251	-0.036544	0.126947
C42	C	1.738251	0.463456	0.626947
C43	C	1.235479	-0.162573	0.126662
C44	C	1.735479	0.337427	0.626662
C45	C	1.233226	-0.264924	0.126427
C46	C	1.733226	0.235076	0.626427
C47	C	1.230410	-0.393328	0.126127
C48	C	1.730410	0.106672	0.626127
C49	C	1.422292	0.164997	0.145805
C50	C	1.922292	0.664997	0.645805
C51	C	1.537983	0.168696	0.157659
C52	C	2.037983	0.668696	0.657659
C53	C	1.225400	0.378299	0.125611
C54	C	1.725400	0.878299	0.625611
C55	C	1.228173	0.504328	0.125889
C56	C	1.728173	1.004328	0.625889
N57	N	1.211180	0.193217	0.417071
N58	N	1.711180	0.693217	0.917071
N59	N	1.252479	0.148530	-0.164509
N60	N	1.752479	0.648530	0.335491
C61	C	1.335372	0.058751	0.666458
C62	C	1.835372	0.558751	1.166458
C63	C	1.327053	0.067771	0.783946
C64	C	1.827053	0.567771	1.283946
C65	C	1.186218	0.220271	0.769538
C66	C	1.686218	0.720271	1.269538
C67	C	1.194537	0.211251	0.652050
C68	C	1.694537	0.711251	1.152050
C69	C	1.269118	0.130489	0.600514
C70	C	1.769118	0.630489	1.100514
C71	C	1.277441	0.121475	0.483024
C72	C	1.777441	0.621475	0.983024
C73	C	1.136602	0.273969	0.468617
C74	C	1.636602	0.773969	0.968617
C75	C	1.128283	0.282990	0.586106
C76	C	1.628283	0.782990	1.086106
H77	H	0.534991	0.183192	0.343287
H78	H	1.034991	0.683192	0.843287
H79	H	0.732188	0.189510	0.363495
H80	H	1.232188	0.689510	0.863495
N81	N	1.398523	-0.009593	0.855072
N82	N	1.898523	0.490407	1.355072
H83	H	1.354974	-0.056637	0.899721
H84	H	1.854974	0.443363	1.399721
H85	H	1.447016	-0.062045	0.804517
H86	H	1.947016	0.437955	1.304517
N87	N	0.548726	0.152297	-0.054266
N88	N	1.048726	0.652297	0.445734
H89	H	0.470522	0.151007	-0.046723
H90	H	0.970522	0.651007	0.453277
H91	H	0.562821	0.219702	-0.097587
H92	H	1.062821	0.719702	0.402413
H93	H	1.338171	0.055718	0.441065
H94	H	1.838171	0.555718	0.941065
N95	N	1.105787	0.307384	0.825122
N96	N	1.605787	0.807384	1.325122
H97	H	1.033204	0.291773	0.797102
H98	H	1.533204	0.791773	1.297102
H99	H	1.110658	0.302175	0.909546
H100	H	1.610658	0.802175	1.409546
N101	N	0.718994	0.149741	-0.139304
N102	N	1.218994	0.649741	0.360696
H103	H	0.774495	0.146427	-0.198540
H104	H	1.274495	0.646427	0.301460
H105	H	0.682255	0.077746	-0.147540
H106	H	1.182255	0.577746	0.352460
H107	H	0.928673	0.158568	-0.090732
H108	H	1.428673	0.658568	0.409268
H109	H	1.396105	-0.007001	0.624497
H110	H	1.896105	0.492999	1.124497
N111	N	1.047846	0.370086	0.641703
N112	N	1.547846	0.870086	1.141703
H113	H	1.084502	0.424607	0.694551
H114	H	1.584502	0.924607	1.194551
H115	H	1.007158	0.414085	0.582031
H116	H	1.507158	0.914085	1.082031
N117	N	0.914924	0.189442	0.306819
N118	N	1.414924	0.689442	0.806819
H119	H	0.859421	0.192757	0.366054
H120	H	1.359421	0.692757	0.866054
H121	H	0.967759	0.121013	0.316698
H122	H	1.467759	0.621013	0.816698
N123	N	1.065143	0.351359	0.397494
N124	N	1.565143	0.851359	0.897494
H125	H	1.081730	0.333396	0.315244
H126	H	1.581730	0.833396	0.815244
H127	H	0.989691	0.338854	0.410457
H128	H	1.489691	0.838854	0.910457
