data_functionalizedCrystal
_audit_creation_method	'MofGen! by Chris Wilmer'
_symmetry_space_group_name_H-M	'P1'
_symmetry_Int_Tables_number	1
_symmetry_cell_setting	triclinic
loop_
_symmetry_equiv_pos_as_xyz
  x,y,z
_cell_length_a	12.811457
_cell_length_b	14.519709
_cell_length_c	13.596369
_cell_angle_alpha	89.993066
_cell_angle_beta	95.426631
_cell_angle_gamma	83.862789
loop_
_atom_site_label
_atom_site_type_symbol
_atom_site_fract_x
_atom_site_fract_y
_atom_site_fract_z
O1	O	1.392891	0.124207	0.042450
O2	O	1.087336	0.137716	0.015193
O3	O	1.248215	-0.003258	0.029553
O4	O	1.232012	0.265181	0.028090
O5	O	1.248199	-0.003265	0.193134
O6	O	1.087320	0.137709	0.178774
O7	O	1.392875	0.124199	0.206032
Zn8	Zn	1.240095	0.130953	0.218375
Zn9	Zn	1.240116	0.130963	0.002849
O10	O	1.231996	0.265173	0.191671
C11	C	1.048223	0.136956	0.093495
C12	C	0.931702	0.134691	0.083101
C13	C	0.712731	0.130408	0.241926
C14	C	0.603250	0.128279	0.232165
C15	C	0.603257	0.128297	0.053819
C16	C	0.712738	0.130426	0.063580
C17	C	0.767471	0.131483	0.157637
C18	C	0.876954	0.133618	0.167397
C19	C	0.876960	0.133630	-0.010949
C20	C	0.767479	0.131501	-0.020710
C21	C	1.247452	-0.037623	0.111277
C22	C	1.245189	-0.140010	0.111075
C23	C	1.236858	-0.514925	0.110307
C24	C	1.239172	-0.410612	0.110520
C25	C	1.241023	-0.327471	0.110692
C26	C	1.243337	-0.223151	0.110904
C27	C	1.431988	0.124959	0.127727
C28	C	1.548508	0.127225	0.138114
C29	C	1.232759	0.299538	0.109946
C30	C	1.235022	0.401925	0.110140
N31	N	1.240088	0.130945	0.365466
N32	N	1.240131	0.130963	-0.144241
C33	C	1.240115	0.130964	0.766760
C34	C	1.240104	0.130962	0.655107
C35	C	1.240102	0.130955	0.566116
C36	C	1.240090	0.130952	0.454457
H37	H	0.558683	0.127409	0.300803
C38	C	0.937162	0.134761	0.270854
H39	H	0.888878	0.133801	0.319654
H40	H	0.971977	0.189300	0.277681
H41	H	0.987766	0.081863	0.279058
H42	H	0.558677	0.127421	-0.022758
C43	C	0.707266	0.130344	-0.124163
H44	H	0.634222	0.128928	-0.117906
H45	H	0.733113	0.076985	-0.158504
H46	H	0.717306	0.184422	-0.159900
C47	C	0.937171	0.134814	-0.103674
H48	H	0.888889	0.133887	-0.161085
H49	H	0.987788	0.081933	-0.102872
H50	H	0.971969	0.189370	-0.104275
C51	C	0.772943	0.131552	0.345381
H52	H	0.724662	0.130598	0.394185
H53	H	0.807761	0.186090	0.352203
H54	H	0.823544	0.078652	0.353586
