data_functionalizedCrystal
_audit_creation_method	'MofGen! by Chris Wilmer'
_symmetry_space_group_name_H-M	'P1'
_symmetry_Int_Tables_number	1
_symmetry_cell_setting	triclinic
loop_
_symmetry_equiv_pos_as_xyz
  x,y,z
_cell_length_a	14.560438
_cell_length_b	27.440280
_cell_length_c	14.560438
_cell_angle_alpha	90.002610
_cell_angle_beta	60.005846
_cell_angle_gamma	59.997888
loop_
_atom_site_label
_atom_site_type_symbol
_atom_site_fract_x
_atom_site_fract_y
_atom_site_fract_z
Zr1	Zr	1.005088	0.469524	-0.120267
O2	O	1.196690	0.391711	-0.266905
O3	O	0.813498	0.493375	-0.075334
O4	O	1.005083	0.493381	-0.266909
O5	O	1.005105	0.391703	0.075810
O6	O	1.005065	0.573584	-0.266890
O7	O	1.005105	0.391705	-0.075330
O8	O	0.662354	0.573573	0.075802
O9	O	1.347816	0.391714	-0.266883
O10	O	0.892284	0.563405	-0.056133
O11	O	0.892297	0.503550	0.056647
O12	O	1.117864	0.503557	-0.168908
O13	O	1.117877	0.443701	-0.056128
Zr14	Zr	1.005059	0.597436	0.120814
Zr15	Zr	1.005060	0.597438	-0.120237
Zr16	Zr	1.005088	0.469521	0.120783
Zr17	Zr	1.246116	0.469529	-0.120232
Zr18	Zr	0.764032	0.597431	0.120778
O19	O	1.196649	0.573584	0.075881
O20	O	1.196650	0.573588	-0.266862
O21	O	1.196690	0.391707	0.075838
O22	O	0.813457	0.675249	0.267451
O23	O	0.813458	0.675253	-0.075291
O24	O	0.813497	0.493372	0.267408
O25	O	1.005042	0.675257	-0.075263
O26	O	1.005064	0.573578	0.267456
O27	O	1.005082	0.493376	0.267437
O28	O	1.005042	0.675255	0.075877
O29	O	1.347793	0.493389	-0.266859
O30	O	0.662354	0.573571	0.267405
O31	O	0.662332	0.675246	0.267429
O32	O	0.662332	0.675248	0.075826
O33	O	1.347815	0.391712	-0.075280
O34	O	1.347793	0.493387	-0.075256
O35	O	0.892283	0.563403	0.169455
O36	O	0.892270	0.623258	0.056675
O37	O	1.117850	0.563410	-0.056100
O38	O	1.117863	0.503554	0.056680
C39	C	0.703585	0.533473	0.000229
C40	C	0.601262	0.533471	0.000214
C41	C	0.636399	0.489291	-0.083017
C42	C	0.540210	0.489301	-0.082961
C43	C	0.373749	0.577673	0.083569
C44	C	0.469937	0.577665	0.083507
C45	C	0.767724	0.445097	-0.166310
C46	C	0.802867	0.400914	-0.249547
C47	C	0.706678	0.400923	-0.249491
C48	C	0.575346	0.445117	-0.166197
C49	C	1.005109	0.373479	0.000236
C50	C	1.005121	0.319176	0.000223
C51	C	0.887302	0.013718	0.059172
C52	C	0.887295	-0.037300	0.059182
O53	O	0.787153	-0.037119	0.109280
N54	N	1.005044	-0.094057	0.000313
C55	C	1.122808	-0.099795	-0.058560
O56	O	1.222962	-0.152756	-0.108630
C57	C	1.122813	-0.048777	-0.058562
C58	C	1.005057	0.007979	0.000301
C59	C	0.769555	0.070472	0.118031
C60	C	0.769562	0.121487	0.118019
C61	C	0.887317	0.115748	0.059148
C62	C	1.005064	0.058994	0.000289
C63	C	1.240576	-0.054516	-0.117428
C64	C	1.240572	-0.003491	-0.117425
C65	C	1.122815	0.053265	-0.058562
C66	C	1.122827	0.104270	-0.058594
N67	N	1.005078	0.161027	0.000274
C68	C	0.887323	0.166766	0.059145
C69	C	1.122786	-0.206934	-0.058548
C70	C	1.122782	-0.257951	-0.058553
C71	C	0.887269	-0.195452	0.059191
C72	C	0.887274	-0.144435	0.059188
C73	C	1.005037	-0.150177	0.000321
C74	C	0.887348	0.273898	0.059115
C75	C	0.887366	0.324915	0.059094
C76	C	1.122879	0.262412	-0.058644
C77	C	1.122861	0.211400	-0.058629
C78	C	1.005086	0.217147	0.000259
O79	O	1.222918	0.104135	-0.108664
O80	O	0.787186	0.219729	0.109219
C81	C	1.306562	0.533486	0.000318
C82	C	1.408885	0.533488	0.000333
C83	C	1.005074	0.533483	-0.301244
C84	C	1.005074	0.533484	-0.403576
C85	C	1.005038	0.693481	0.000311
C86	C	1.005026	0.747784	0.000324
C87	C	1.005070	0.577666	-0.451650
C88	C	1.005065	0.577663	-0.547799
C89	C	1.005073	0.489292	-0.547795
C90	C	1.005069	0.489297	-0.451643
C91	C	1.005075	0.621853	-0.403583
C92	C	1.005072	0.666037	-0.451657
C93	C	1.005067	0.666035	-0.547806
C94	C	1.005064	0.621847	-0.595881
C95	C	1.005073	0.533477	0.301791
C96	C	1.005073	0.533476	0.404123
C97	C	0.703550	0.693475	0.000267
C98	C	0.601215	0.747775	0.000265
C99	C	0.703584	0.533470	0.301746
C100	C	0.601261	0.533467	0.404064
C101	C	0.703549	0.693471	0.301784
C102	C	0.601214	0.747771	0.404114
C103	C	1.306598	0.373488	-0.301237
C104	C	1.408933	0.319189	-0.403567
C105	C	1.306598	0.373485	0.000280
C106	C	1.408932	0.319184	0.000282
C107	C	1.306563	0.533489	-0.301200
C108	C	1.408886	0.533493	-0.403517
C109	C	0.553165	0.742033	-0.058631
C110	C	0.457024	0.793049	-0.058656
C111	C	0.408928	0.849808	0.000223
C112	C	0.456988	0.855549	0.059120
C113	C	0.553134	0.804533	0.059138
C114	C	0.553150	0.804520	0.393300
C115	C	0.457009	0.855545	0.489440
C116	C	0.408927	0.849820	0.596394
C117	C	0.457001	0.793065	0.607207
C118	C	0.553147	0.742041	0.511067
C119	C	1.457009	0.262440	-0.392753
C120	C	1.553180	0.211414	-0.488894
C121	C	1.601267	0.217140	-0.595848
C122	C	1.553187	0.273895	-0.606660
C123	C	1.457024	0.324919	-0.510521
C124	C	1.456993	0.324927	0.059168
C125	C	1.553160	0.273910	0.059166
C126	C	1.601259	0.217152	0.000284
C127	C	1.553194	0.211411	-0.058609
C128	C	1.457035	0.262427	-0.058613
C129	C	0.553178	0.564709	0.511017
C130	C	0.457040	0.564701	0.607151
C131	C	0.457073	0.502208	0.489364
C132	C	0.553216	0.502213	0.393233
C133	C	0.601223	0.595963	0.521848
C134	C	0.553139	0.627208	0.628806
C135	C	0.457001	0.627200	0.724940
C136	C	0.408947	0.595947	0.714116
H137	H	0.735298	0.364950	-0.317273
C138	C	0.757744	-0.082008	0.123950
H139	H	0.687619	-0.085903	0.159015
H140	H	0.752838	-0.060802	0.073139
H141	H	0.752851	-0.060809	0.179675
C142	C	0.605964	0.810857	0.123942
H143	H	0.563534	0.851968	0.159011
H144	H	0.696737	0.792258	0.073152
H145	H	0.590185	0.792258	0.179666
C146	C	1.005053	0.714636	-0.600685
H147	H	1.005039	0.708310	-0.664827
H148	H	1.080380	0.712806	-0.622589
H149	H	0.929711	0.752779	-0.547260
H150	H	1.336471	-0.008174	-0.165349
H151	H	0.417939	0.476764	0.480561
H152	H	0.673673	0.167697	0.165946
H153	H	1.417881	0.371125	-0.519339
H154	H	1.005047	0.621852	-0.674166
C155	C	0.606059	0.679605	-0.123409
H156	H	0.563673	0.683500	-0.158495
H157	H	0.590306	0.658398	-0.072604
H158	H	0.696838	0.658408	-0.179119
C159	C	0.706967	0.595973	0.416103
H160	H	0.728716	0.572894	0.350853
H161	H	0.781983	0.579254	0.416102
H162	H	0.675420	0.635784	0.416109
C163	C	0.303159	0.905920	0.000206
H164	H	0.281427	0.894365	-0.043295
H165	H	0.334650	0.929008	-0.031305
H166	H	0.228129	0.928997	0.075218
H167	H	0.417815	0.901769	0.107057
C168	C	1.606080	0.280185	-0.724313
H169	H	1.670223	0.241666	-0.780012
H170	H	1.643586	0.301385	-0.732758
H171	H	1.537054	0.301375	-0.732759
C172	C	0.404162	0.786723	-0.123432
H173	H	0.446563	0.745612	-0.158474
H174	H	0.419920	0.805320	-0.179156
H175	H	0.313383	0.805326	-0.072613
C176	C	1.404100	0.387354	0.123944
H177	H	1.446516	0.383459	0.159000
H178	H	1.313329	0.408555	0.179657
H179	H	1.419856	0.408559	0.073125
H180	H	0.592365	0.476774	0.306145
C181	C	0.404103	0.917969	0.477533
H182	H	0.339957	0.947541	0.550102
H183	H	0.366596	0.922427	0.437584
H184	H	0.473117	0.922453	0.437577
H185	H	1.592278	0.278597	0.107128
H186	H	0.909801	0.364936	-0.317367
H187	H	0.592284	0.809193	0.306221
H188	H	1.679568	0.175588	-0.674122
H189	H	0.497029	0.445130	-0.166175
H190	H	0.441322	0.613640	0.151282
C191	C	0.303159	0.905950	0.702138
H192	H	0.281417	0.940566	0.680369
H193	H	0.334656	0.905962	0.745650
H194	H	0.228134	0.905956	0.745621
C195	C	0.229295	0.626276	0.175191
H196	H	0.177042	0.619949	0.163314
H197	H	0.210826	0.664419	0.171738
H198	H	0.210894	0.624436	0.247057
C199	C	1.707028	0.161040	0.000301
H200	H	1.728747	0.172594	0.043816
H201	H	1.782053	0.137957	-0.074703
H202	H	1.675518	0.137957	0.031827
C203	C	1.606103	0.148975	-0.123364
H204	H	1.670242	0.119419	-0.114910
H205	H	1.643616	0.144489	-0.200824
H206	H	1.537081	0.144494	-0.094283
C207	C	1.404160	0.256106	-0.123375
H208	H	1.340005	0.294614	-0.114956
H209	H	1.366674	0.234900	-0.094302
H210	H	1.473192	0.234907	-0.200836
C211	C	0.404091	0.786775	0.724859
H212	H	0.339936	0.825294	0.780559
H213	H	0.473095	0.765577	0.733323
H214	H	0.366567	0.765582	0.733287
C215	C	1.005070	0.440701	-0.398752
H216	H	1.005053	0.447038	-0.334596
H217	H	1.080399	0.402556	-0.452161
H218	H	0.929730	0.442538	-0.376845
H219	H	0.791470	0.371128	0.107031
H220	H	1.005073	0.453315	-0.586944
C221	C	1.252389	0.148968	-0.123376
H222	H	1.322520	0.152859	-0.158433
H223	H	1.257294	0.127756	-0.179086
H224	H	1.257274	0.127778	-0.072533
H225	H	0.592278	0.652649	0.637611
C226	C	1.404145	0.256130	-0.275116
H227	H	1.446575	0.215021	-0.282461
H228	H	1.313374	0.274727	-0.235158
H229	H	1.419908	0.274738	-0.235163
H230	H	0.417862	0.652637	0.812026
C231	C	0.303208	0.595934	0.819862
H232	H	0.281450	0.619017	0.885113
H233	H	0.334740	0.556126	0.819854
H234	H	0.228184	0.612662	0.819864
H235	H	0.846055	0.445083	-0.166363
C236	C	0.640013	0.076796	0.182787
H237	H	0.569900	0.117907	0.217829
H238	H	0.635092	0.058198	0.238512
H239	H	0.635114	0.058195	0.131958
C240	C	0.757798	0.280226	0.123882
H241	H	0.687683	0.321337	0.158922
H242	H	0.752882	0.261630	0.179608
H243	H	0.752899	0.261623	0.073057
H244	H	0.592268	0.695835	0.519888
C245	C	1.606039	0.148992	-0.476980
H246	H	1.563606	0.152894	-0.399511
H247	H	1.696809	0.127787	-0.512013
H248	H	1.590285	0.127787	-0.512051
C249	C	1.005076	0.621859	-0.297820
H250	H	1.005069	0.654504	-0.276072
H251	H	1.080404	0.585553	-0.313727
H252	H	0.929735	0.625534	-0.238403
C253	C	1.005083	0.714637	-0.398784
H254	H	1.005102	0.708308	-0.334644
H255	H	0.929755	0.752781	-0.376878
H256	H	1.080424	0.712797	-0.452214
C257	C	0.757739	-0.189146	0.123964
H258	H	0.774610	-0.227661	0.115543
H259	H	0.709340	-0.167949	0.094897
H260	H	0.709368	-0.167947	0.201425
H261	H	1.218671	-0.304161	-0.106499
H262	H	1.336466	-0.100721	-0.165360
H263	H	1.218689	-0.211617	-0.106490
H264	H	1.218752	0.257749	-0.106580
