data_functionalizedCrystal
_audit_creation_method	'MofGen! by Chris Wilmer'
_symmetry_space_group_name_H-M	'P1'
_symmetry_Int_Tables_number	1
_symmetry_cell_setting	triclinic
loop_
_symmetry_equiv_pos_as_xyz
  x,y,z
_cell_length_a	19.188905
_cell_length_b	19.188930
_cell_length_c	18.266242
_cell_angle_alpha	89.988525
_cell_angle_beta	89.983837
_cell_angle_gamma	83.139668
loop_
_atom_site_label
_atom_site_type_symbol
_atom_site_fract_x
_atom_site_fract_y
_atom_site_fract_z
O1	O	0.926160	0.087085	-0.061010
O2	O	1.426160	0.587085	0.438990
O3	O	0.722847	0.098838	-0.060986
O4	O	1.222847	0.598838	0.439014
O5	O	0.830371	-0.008694	-0.060984
O6	O	1.330371	0.491306	0.439016
O7	O	0.818636	0.194618	-0.061011
O8	O	1.318636	0.694618	0.438989
O9	O	0.830353	-0.008700	0.060778
O10	O	1.330353	0.491300	0.560778
O11	O	0.722828	0.098833	0.060776
O12	O	1.222828	0.598833	0.560776
O13	O	0.926142	0.087080	0.060752
O14	O	1.426142	0.587080	0.560752
Zn15	Zn	0.824482	0.092955	0.080097
Zn16	Zn	1.324482	0.592955	0.580097
Zn17	Zn	0.824506	0.092963	-0.080330
Zn18	Zn	1.324506	0.592963	0.419670
O19	O	0.818618	0.194612	0.060751
O20	O	1.318618	0.694612	0.560751
C21	C	0.696826	0.098458	-0.000102
C22	C	1.196826	0.598458	0.499898
C23	C	0.619321	0.097324	-0.000092
C24	C	1.119321	0.597324	0.499908
C25	C	0.582939	0.096782	-0.066466
C26	C	1.082939	0.596782	0.433534
C27	C	0.510115	0.095709	-0.066475
C28	C	1.010115	0.595709	0.433525
C29	C	0.473678	0.095164	-0.000106
C30	C	0.973678	0.595164	0.499894
C31	C	0.510068	0.095709	0.066277
C32	C	1.010068	0.595709	0.566277
C33	C	0.582890	0.096789	0.066284
C34	C	1.082890	0.596789	0.566284
N35	N	0.364651	0.053733	0.049292
N36	N	0.864651	0.553733	0.549292
N37	N	0.295474	0.052705	0.049280
N38	N	0.795474	0.552705	0.549280
C39	C	0.254272	0.091911	-0.000123
C40	C	0.754272	0.591911	0.499877
N41	N	0.284861	0.132174	-0.049526
N42	N	0.784861	0.632174	0.450474
N43	N	0.354045	0.133199	-0.049517
N44	N	0.854045	0.633199	0.450483
C45	C	0.394716	0.093993	-0.000106
C46	C	0.894716	0.593993	0.499894
C47	C	0.138926	0.090207	-0.066512
C48	C	0.638926	0.590207	0.433488
C49	C	0.066100	0.089138	-0.066518
C50	C	0.566100	0.589138	0.433482
C51	C	0.066056	0.089132	0.066236
C52	C	0.566056	0.589132	0.566236
C53	C	0.138879	0.090207	0.066240
C54	C	0.638879	0.590207	0.566240
C55	C	0.175310	0.090742	-0.000136
C56	C	0.675310	0.590742	0.499864
C57	C	0.829982	-0.034708	-0.000101
C58	C	1.329982	0.465292	0.499899
C59	C	0.828841	-0.112213	-0.000095
C60	C	1.328841	0.387787	0.499905
C61	C	0.891933	-0.157142	-0.000099
C62	C	1.391933	0.342858	0.499901
C63	C	0.890861	-0.229966	-0.000110
C64	C	1.390861	0.270034	0.499890
C65	C	0.826694	-0.257857	-0.000103
C66	C	1.326694	0.242143	0.499897
C67	C	0.763594	-0.212917	-0.000103
C68	C	1.263594	0.287083	0.499897
C69	C	0.764668	-0.140095	-0.000099
C70	C	1.264668	0.359905	0.499901
N71	N	0.777640	-0.365859	0.041341
N72	N	1.277640	0.134141	0.541341
N73	N	0.776624	-0.435038	0.041338
N74	N	1.276624	0.064962	0.541338
C75	C	0.823456	-0.477265	-0.000118
C76	C	1.323456	0.022735	0.499882
N77	N	0.871352	-0.447702	-0.041561
N78	N	1.371352	0.052298	0.458439
N79	N	0.872369	-0.378517	-0.041556
N80	N	1.372369	0.121483	0.458444
C81	C	0.825523	-0.336819	-0.000108
C82	C	1.325523	0.163181	0.499892
C83	C	0.885390	-0.601159	-0.000135
C84	C	1.385390	-0.101159	0.499865
C85	C	0.884315	-0.673984	-0.000151
C86	C	1.384315	-0.173984	0.499849
C87	C	0.757047	-0.656933	-0.000137
C88	C	1.257047	-0.156933	0.499863
C89	C	0.758123	-0.584110	-0.000128
C90	C	1.258123	-0.084110	0.499872
C91	C	0.822296	-0.556228	-0.000124
C92	C	1.322296	-0.056228	0.499876
C93	C	0.952163	0.087460	-0.000134
C94	C	1.452163	0.587460	0.499866
C95	C	1.029668	0.088594	-0.000148
C96	C	1.529668	0.588594	0.499852
C97	C	0.819007	0.220626	-0.000134
C98	C	1.319007	0.720626	0.499866
C99	C	0.820148	0.298131	-0.000145
C100	C	1.320148	0.798131	0.499855
N101	N	0.824471	0.092950	0.189583
N102	N	1.324471	0.592950	0.689583
N103	N	0.824523	0.092962	-0.189817
N104	N	1.324523	0.592962	0.310183
C105	C	0.872098	0.045358	0.227893
C106	C	1.372098	0.545358	0.727893
C107	C	0.872103	0.045355	0.304538
C108	C	1.372103	0.545355	0.804538
C109	C	0.824487	0.092956	0.342870
C110	C	1.324487	0.592956	0.842870
C111	C	0.776851	0.140551	0.304552
C112	C	1.276851	0.640551	0.804552
C113	C	0.776843	0.140549	0.227908
C114	C	1.276843	0.640549	0.727908
N115	N	0.815411	0.154764	0.463195
N116	N	1.315411	0.654764	0.963195
N117	N	0.815423	0.154764	0.536003
N118	N	1.315423	0.654764	1.036003
C119	C	0.824506	0.092966	0.573793
C120	C	1.324506	0.592966	1.073793
N121	N	0.833592	0.031165	0.536024
N122	N	1.333592	0.531165	1.036024
N123	N	0.833584	0.031165	0.463209
N124	N	1.333584	0.531165	0.963209
C125	C	0.824490	0.092963	0.425977
C126	C	1.324490	0.592963	0.925977
C127	C	0.872141	0.045366	0.695210
C128	C	1.372141	0.545366	1.195210
C129	C	0.872141	0.045362	0.771856
C130	C	1.372141	0.545362	1.271856
C131	C	0.776892	0.140565	0.771868
C132	C	1.276892	0.640565	1.271868
C133	C	0.776889	0.140563	0.695223
C134	C	1.276889	0.640563	1.195223
C135	C	0.824517	0.092964	0.656898
C136	C	1.324517	0.592964	1.156898
H137	H	0.168502	0.090644	0.120290
H138	H	0.668502	0.590644	0.620290
C139	C	1.017623	-0.181316	-0.000110
C140	C	1.517623	0.318684	0.499890
C141	C	0.962471	-0.126495	-0.000102
C142	C	1.462471	0.373505	0.499898
H143	H	1.061169	-0.162392	-0.000117
H144	H	1.561169	0.337608	0.499883
H145	H	1.014549	-0.209371	0.042348
H146	H	1.514549	0.290629	0.542348
H147	H	1.014559	-0.209357	-0.042575
H148	H	1.514559	0.290643	0.457425
H149	H	0.965532	-0.098457	0.042366
H150	H	1.465532	0.401543	0.542366
H151	H	0.965547	-0.098428	-0.042564
H152	H	1.465547	0.401572	0.457436
C153	C	0.939180	-0.793183	-0.000177
C154	C	1.439180	-0.293183	0.499823
C155	C	0.953671	-0.723375	-0.000163
C156	C	1.453671	-0.223375	0.499837
H157	H	0.981998	-0.823674	-0.000190
H158	H	1.481998	-0.323674	0.499810
H159	H	0.912856	-0.801625	0.042282
H160	H	1.412856	-0.301625	0.542282
H161	H	0.912865	-0.801593	-0.042640
H162	H	1.412865	-0.301593	0.457360
H163	H	0.979981	-0.714963	0.042304
H164	H	1.479981	-0.214963	0.542304
H165	H	0.980005	-0.714929	-0.042626
H166	H	1.480005	-0.214929	0.457374
H167	H	0.711349	-0.235631	-0.000099
H168	H	1.211349	0.264369	0.499901
C169	C	0.963500	-0.321745	-0.062704
C170	C	1.463500	0.178255	0.437296
C171	C	0.960215	-0.279365	-0.000110
C172	C	1.460215	0.220635	0.499890
H173	H	1.006318	-0.352236	-0.062704
H174	H	1.506318	0.147764	0.437296
H175	H	0.925133	-0.348769	-0.062701
H176	H	1.425133	0.151231	0.437299
H177	H	0.961288	-0.292967	-0.105160
H178	H	1.461288	0.207033	0.394840
H179	H	0.962422	-0.308143	0.042346
H180	H	1.462422	0.191857	0.542346
H181	H	0.998593	-0.252338	-0.000107
H182	H	1.498593	0.247662	0.499893
H183	H	0.480487	0.095269	-0.120527
H184	H	0.980487	0.595269	0.379473
C185	C	0.703262	-0.464910	-0.000119
C186	C	1.203262	0.035090	0.499881
C187	C	0.688770	-0.534718	-0.000119
C188	C	1.188770	-0.034718	0.499881
H189	H	0.660444	-0.434418	-0.000120
H190	H	1.160444	0.065582	0.499880
H191	H	0.729570	-0.456491	0.042338
H192	H	1.229570	0.043509	0.542338
H193	H	0.729592	-0.456477	-0.042584
H194	H	1.229592	0.043523	0.457416
H195	H	0.662445	-0.543152	0.042350
H196	H	1.162445	-0.043152	0.542350
H197	H	0.662451	-0.543141	-0.042580
H198	H	1.162451	-0.043141	0.457420
C199	C	0.597348	0.157125	-0.179625
C200	C	1.097348	0.657125	0.320375
C201	C	0.622981	0.097378	-0.139426
C202	C	1.122981	0.597378	0.360574
H203	H	0.622073	0.157494	-0.224665
H204	H	1.122073	0.657494	0.275335
H205	H	0.548777	0.156398	-0.189124
H206	H	1.048777	0.656398	0.310876
H207	H	0.603822	0.198003	-0.152351
H208	H	1.103822	0.698003	0.347649
H209	H	0.616503	0.056499	-0.166698
H210	H	1.116503	0.556499	0.333302
H211	H	0.671564	0.098099	-0.129930
H212	H	1.171564	0.598099	0.370070
H213	H	0.910879	0.006599	0.196691
H214	H	1.410879	0.506599	0.696691
C215	C	0.681805	0.155949	0.390786
C216	C	1.181805	0.655949	0.890786
C217	C	0.724511	0.192875	0.346686
C218	C	1.224511	0.692875	0.846686
H219	H	0.649494	0.188252	0.416800
H220	H	1.149494	0.688252	0.916800
H221	H	0.656779	0.126955	0.360905
H222	H	1.156779	0.626955	0.860905
H223	H	0.710181	0.127605	0.424569
H224	H	1.210181	0.627605	0.924569
H225	H	0.696136	0.221215	0.312899
H226	H	1.196136	0.721215	0.812899
H227	H	0.749539	0.221881	0.376569
H228	H	1.249539	0.721881	0.876569
C229	C	0.682696	0.234652	0.235620
C230	C	1.182696	0.734652	0.735620
C231	C	0.724492	0.192871	0.185794
C232	C	1.224492	0.692871	0.685794
H233	H	0.650382	0.266957	0.209618
H234	H	1.150382	0.766957	0.709618
H235	H	0.657674	0.205654	0.265527
H236	H	1.157674	0.705654	0.765527
H237	H	0.711689	0.259691	0.265500
H238	H	1.211689	0.759691	0.765500
H239	H	0.695500	0.167828	0.155917
H240	H	1.195500	0.667828	0.655917
H241	H	0.749516	0.221873	0.155875
H242	H	1.249516	0.721873	0.655875
C243	C	0.398419	0.094037	0.125210
C244	C	0.898419	0.594037	0.625210
C245	C	0.470020	0.095105	0.139232
C246	C	0.970020	0.595105	0.639232
H247	H	0.373698	0.093661	0.170251
H248	H	0.873698	0.593661	0.670251
H249	H	0.381040	0.134565	0.097937
H250	H	0.881040	0.634565	0.597937
H251	H	0.391962	0.053152	0.097940
H252	H	0.891962	0.553152	0.597940
H253	H	0.476478	0.135993	0.166497
H254	H	0.976478	0.635993	0.666497
H255	H	0.487404	0.054573	0.166516
H256	H	0.987404	0.554573	0.666516
H257	H	0.713289	-0.103513	-0.000096
H258	H	1.213289	0.396487	0.499904
C259	C	0.887644	-0.049648	0.608963
C260	C	1.387644	0.450352	1.108963
C261	C	0.924510	-0.006908	0.653045
C262	C	1.424510	0.493092	1.153045
H263	H	0.919983	-0.081902	0.582923
H264	H	1.419983	0.418098	1.082923
H265	H	0.858697	-0.074739	0.638859
H266	H	1.358697	0.425261	1.138859
H267	H	0.859257	-0.021288	0.575203
H268	H	1.359257	0.478712	1.075203
H269	H	0.952894	-0.035268	0.686810
H270	H	1.452894	0.464732	1.186810
H271	H	0.953469	0.018185	0.623147
H272	H	1.453469	0.518185	1.123147
C273	C	0.966256	-0.048745	0.296835
C274	C	1.466256	0.451255	0.796835
C275	C	0.924456	-0.006964	0.346660
C276	C	1.424456	0.493036	0.846660
H277	H	0.998577	-0.081042	0.322840
H278	H	1.498577	0.418958	0.822840
H279	H	0.937271	-0.073787	0.266960
H280	H	1.437271	0.426213	0.766960
H281	H	0.991276	-0.019740	0.266923
H282	H	1.491276	0.480260	0.766923
H283	H	0.899431	-0.035969	0.376568
H284	H	1.399431	0.464031	0.876568
H285	H	0.953444	0.018079	0.376547
H286	H	1.453444	0.518079	0.876547
H287	H	0.937644	-0.578456	-0.000135
H288	H	1.437644	-0.078456	0.499865
H289	H	0.612511	0.097231	0.120336
H290	H	1.112511	0.597231	0.620336
C291	C	0.966303	-0.048725	0.764141
C292	C	1.466303	0.451275	1.264141
C293	C	0.924500	-0.006953	0.813969
C294	C	1.424500	0.493047	1.313969
H295	H	0.998631	-0.081019	0.790142
H296	H	1.498631	0.418981	1.290142
H297	H	0.937322	-0.073772	0.734267
H298	H	1.437322	0.426228	1.234267
H299	H	0.991316	-0.019714	0.734228
H300	H	1.491316	0.480286	1.234228
H301	H	0.899482	-0.035964	0.843878
H302	H	1.399482	0.464036	1.343878
H303	H	0.953485	0.018095	0.843856
H304	H	1.453485	0.518095	1.343856
H305	H	0.036389	0.088692	0.120275
H306	H	0.536389	0.588692	0.620275
H307	H	0.168589	0.090650	-0.120559
H308	H	0.668589	0.590650	0.379441
C309	C	0.682749	0.234669	0.702936
C310	C	1.182749	0.734669	1.202936
C311	C	0.724542	0.192886	0.653108
C312	C	1.224542	0.692886	1.153108
H313	H	0.650434	0.266974	0.676934
H314	H	1.150434	0.766974	1.176934
H315	H	0.657728	0.205671	0.732845
H316	H	1.157728	0.705671	1.232845
H317	H	0.711744	0.259708	0.732814
H318	H	1.211744	0.759708	1.232814
H319	H	0.695548	0.167843	0.623234
H320	H	1.195548	0.667843	1.123234
H321	H	0.749565	0.221887	0.623187
H322	H	1.249565	0.721887	1.123187
C323	C	0.698892	-0.760990	-0.000138
C324	C	1.198892	-0.260990	0.499862
C325	C	0.686512	-0.687582	-0.000131
C326	C	1.186512	-0.187582	0.499869
H327	H	0.655344	-0.779911	-0.000133
H328	H	1.155344	-0.279911	0.499867
H329	H	0.724864	-0.776410	-0.042600
H330	H	1.224864	-0.276410	0.457400
H331	H	0.724854	-0.776431	0.042323
H332	H	1.224854	-0.276431	0.542323
H333	H	0.660554	-0.672141	-0.042595
H334	H	1.160554	-0.172141	0.457405
H335	H	0.660529	-0.672156	0.042335
H336	H	1.160529	-0.172156	0.542335
H337	H	0.738119	0.179319	0.803078
H338	H	1.238119	0.679319	1.303078
C339	C	0.073466	0.089233	-0.197737
C340	C	0.573466	0.589233	0.302263
C341	C	0.026107	0.088540	-0.139483
C342	C	0.526107	0.588540	0.360517
H343	H	0.048774	0.088858	-0.242782
H344	H	0.548774	0.588858	0.257218
H345	H	0.096412	0.130357	-0.194985
H346	H	0.596412	0.630357	0.305015
H347	H	0.107325	0.048944	-0.194956
H348	H	0.607325	0.548944	0.305044
H349	H	-0.007750	0.128832	-0.142260
H350	H	0.492250	0.628832	0.357740
H351	H	0.003150	0.047411	-0.142236
H352	H	0.503150	0.547411	0.357764
