data_functionalizedCrystal
_audit_creation_method	'MofGen! by Chris Wilmer'
_symmetry_space_group_name_H-M	'P1'
_symmetry_Int_Tables_number	1
_symmetry_cell_setting	triclinic
loop_
_symmetry_equiv_pos_as_xyz
  x,y,z
_cell_length_a	12.759401
_cell_length_b	12.759399
_cell_length_c	12.759393
_cell_angle_alpha	89.969094
_cell_angle_beta	89.980375
_cell_angle_gamma	90.014160
loop_
_atom_site_label
_atom_site_type_symbol
_atom_site_fract_x
_atom_site_fract_y
_atom_site_fract_z
Zn1	Zn	1.606263	-0.418242	-0.593980
Zn2	Zn	1.606153	-0.593958	-0.418299
Zn3	Zn	1.430562	-0.418291	-0.418319
Zn4	Zn	1.430553	-0.593877	-0.593940
O5	O	1.518383	-0.506092	-0.506135
O6	O	1.753270	-0.441565	-0.570684
O7	O	1.582818	-0.570709	-0.271281
O8	O	1.453919	-0.271263	-0.441646
O9	O	1.753189	-0.570662	-0.441612
O10	O	1.583006	-0.271228	-0.570704
O11	O	1.453812	-0.441647	-0.271296
O12	O	1.283540	-0.441569	-0.441608
O13	O	1.453903	-0.570524	-0.740967
O14	O	1.283533	-0.570571	-0.570636
O15	O	1.582997	-0.441486	-0.740996
O16	O	1.582809	-0.740968	-0.441573
O17	O	1.453796	-0.740909	-0.570616
C18	C	1.245415	-0.506067	-0.506120
C19	C	1.128639	-0.506082	-0.506139
C20	C	1.518318	-0.779059	-0.506111
C21	C	1.518387	-0.895836	-0.506136
C22	C	1.585641	-0.950694	-0.439020
C23	C	1.585708	-1.060418	-0.439055
C24	C	1.451259	-1.060416	-0.573325
C25	C	1.451198	-0.950694	-0.573295
C26	C	1.073812	-0.438988	-0.573451
C27	C	0.964088	-0.439008	-0.573458
C28	C	0.964027	-0.573225	-0.438837
C29	C	1.073749	-0.573199	-0.438826
C30	C	1.128702	-0.371870	-0.640764
C31	C	1.073875	-0.304772	-0.708082
C32	C	0.964151	-0.304792	-0.708089
C33	C	0.909253	-0.371911	-0.640777
C34	C	1.792416	-0.506117	-0.506150
C35	C	1.909193	-0.506128	-0.506157
C36	C	1.518461	-0.505991	-0.780168
C37	C	1.518495	-0.505948	-0.896945
C38	C	1.518476	-0.232059	-0.506182
C39	C	1.518516	-0.115282	-0.506202
C40	C	1.585719	-0.438747	-0.951824
C41	C	1.585737	-0.438702	-1.061548
C42	C	1.451303	-0.573067	-1.061505
C43	C	1.451281	-0.573107	-0.951783
C44	C	1.518365	-0.506117	-0.233167
C45	C	1.518535	-0.505864	-0.116391
H46	H	1.640352	-0.906031	-0.384336
C47	C	1.658639	-0.365936	-0.892095
C48	C	1.644253	-0.380368	-0.784258
C49	C	1.711415	-0.313317	-0.729207
H50	H	1.643351	-0.295297	-0.909964
H51	H	1.729252	-0.381318	-0.910022
H52	H	1.573655	-0.364979	-0.766338
H53	H	1.659547	-0.450993	-0.766358
H54	H	1.782028	-0.328698	-0.747134
H55	H	1.696122	-0.242682	-0.747085
H56	H	1.701670	-0.323106	-0.656034
C57	C	1.658842	-0.365703	-1.120941
C58	C	1.717714	-0.306919	-1.049428
C59	C	1.785080	-0.239668	-1.104102
H60	H	1.618797	-0.319809	-1.163748
H61	H	1.704667	-0.405860	-1.163723
H62	H	1.671894	-0.266765	-1.006665
H63	H	1.757780	-0.352785	-1.006619
H64	H	1.830906	-0.279825	-1.146883
H65	H	1.745027	-0.193781	-1.146907
H66	H	1.825040	-0.199782	-1.055589
C67	C	1.658924	-1.119995	-0.366395
C68	C	1.726289	-1.182813	-0.426008
C69	C	1.793793	-1.237681	-0.359126
H70	H	1.618972	-1.162983	-0.320543
H71	H	1.698987	-1.071607	-0.326451
H72	H	1.686230	-1.231195	-0.465934
H73	H	1.766263	-1.139851	-0.471858
H74	H	1.833857	-1.189294	-0.319182
H75	H	1.753834	-1.280663	-0.313277
H76	H	1.839515	-1.280302	-0.399564
C77	C	1.378345	-1.120169	-0.646115
C78	C	1.392769	-1.228001	-0.631756
C79	C	1.325605	-1.283075	-0.698780
H80	H	1.393606	-1.102246	-0.716757
H81	H	1.307731	-1.102314	-0.630661
H82	H	1.463368	-1.245848	-0.647217
H83	H	1.377501	-1.245955	-0.561128
H84	H	1.254990	-1.265220	-0.683326
H85	H	1.340872	-1.265144	-0.769418
H86	H	1.335376	-1.356244	-0.689040
H87	H	1.396432	-0.906026	-0.627954
C88	C	1.133232	-0.646224	-0.365882
C89	C	1.106577	-0.750210	-0.388600
C90	C	1.161363	-0.817508	-0.321433
H91	H	1.115269	-0.630911	-0.295280
H92	H	1.206448	-0.636662	-0.375528
H93	H	1.033376	-0.759768	-0.378946
H94	H	1.124542	-0.765556	-0.459190
H95	H	1.234580	-0.807946	-0.331079
H96	H	1.143396	-0.802186	-0.250835
H97	H	1.143293	-0.888070	-0.336844
H98	H	1.218044	-0.371846	-0.640766
C99	C	1.133528	-0.232077	-0.781287
C100	C	1.196522	-0.291636	-0.848536
C101	C	1.251477	-0.224705	-0.915997
H102	H	1.176404	-0.186222	-0.741298
H103	H	1.085192	-0.192136	-0.821437
H104	H	1.244853	-0.331559	-0.808391
H105	H	1.153672	-0.337488	-0.888548
H106	H	1.203140	-0.184764	-0.956146
H107	H	1.294347	-0.178854	-0.875999
H108	H	1.294217	-0.265107	-0.961639
H109	H	0.819909	-0.371899	-0.640765
C110	C	0.904812	-0.231903	-0.781285
C111	C	0.976371	-0.173141	-0.840246
C112	C	0.921749	-0.105997	-0.907701
H113	H	0.861990	-0.185990	-0.741300
H114	H	0.862050	-0.272136	-0.827050
H115	H	1.019115	-0.132911	-0.794487
H116	H	1.019195	-0.219026	-0.880253
H117	H	0.878987	-0.146230	-0.953466
H118	H	0.878929	-0.060091	-0.867707
H119	H	0.970293	-0.066126	-0.947721
H120	H	1.396583	-0.627748	-1.106167
C121	C	0.904238	-0.646062	-0.365883
C122	C	0.796413	-0.631745	-0.380322
C123	C	0.741305	-0.698838	-0.313147
H124	H	0.922059	-0.630667	-0.295273
H125	H	0.922167	-0.716689	-0.381148
H126	H	0.778492	-0.561134	-0.365050
H127	H	0.778562	-0.647147	-0.450918
H128	H	0.759234	-0.769465	-0.328412
H129	H	0.759134	-0.683437	-0.242541
H130	H	0.668141	-0.689140	-0.322942
H131	H	1.396532	-0.627829	-0.907099
