data_functionalizedCrystal
_audit_creation_method	'MofGen! by Chris Wilmer'
_symmetry_space_group_name_H-M	'P1'
_symmetry_Int_Tables_number	1
_symmetry_cell_setting	triclinic
loop_
_symmetry_equiv_pos_as_xyz
  x,y,z
_cell_length_a	21.395362
_cell_length_b	10.686285
_cell_length_c	21.395355
_cell_angle_alpha	85.619443
_cell_angle_beta	89.956060
_cell_angle_gamma	85.645931
loop_
_atom_site_label
_atom_site_type_symbol
_atom_site_fract_x
_atom_site_fract_y
_atom_site_fract_z
Zn1	Zn	0.977081	-0.501939	-0.335532
Zn2	Zn	0.985062	-0.712908	-0.222746
Zn3	Zn	0.872298	-0.501998	-0.230731
Zn4	Zn	0.880345	-0.712934	-0.327450
O5	O	0.928696	-0.607445	-0.279115
O6	O	1.065816	-0.529889	-0.320611
O7	O	0.970076	-0.684945	-0.136127
O8	O	0.879490	-0.325422	-0.251357
O9	O	1.071680	-0.684888	-0.237748
O10	O	0.956473	-0.325378	-0.328354
O11	O	0.887229	-0.529990	-0.141993
O12	O	0.785689	-0.530015	-0.243520
O13	O	0.893204	-0.684932	-0.416201
O14	O	0.791601	-0.684989	-0.314579
O15	O	0.964276	-0.529915	-0.422138
O16	O	0.977879	-0.889481	-0.229911
O17	O	0.900944	-0.889500	-0.306837
C18	C	0.765911	-0.607512	-0.279040
C19	C	0.696272	-0.607571	-0.279021
C20	C	0.666658	-0.688373	-0.315957
C21	C	0.601221	-0.688342	-0.315987
C22	C	0.565402	-0.607522	-0.279068
C23	C	0.595024	-0.526705	-0.242129
C24	C	0.660459	-0.526729	-0.242106
C25	C	0.461288	-0.597357	-0.223048
C26	C	0.395855	-0.597342	-0.223070
C27	C	0.363578	-0.607440	-0.279140
C28	C	0.396745	-0.617580	-0.335189
C29	C	0.462180	-0.617604	-0.335165
C30	C	0.494448	-0.607486	-0.279089
C31	C	0.263010	-0.688213	-0.316111
C32	C	0.197572	-0.688173	-0.316141
C33	C	0.191376	-0.526542	-0.242278
C34	C	0.256813	-0.526575	-0.242254
C35	C	0.292626	-0.607417	-0.279169
C36	C	0.941168	-0.935273	-0.266644
C37	C	0.946560	-1.075519	-0.261330
C38	C	1.092117	-0.607379	-0.279191
C39	C	1.161757	-0.607351	-0.279223
C40	C	0.928747	-0.607420	-0.442539
C41	C	0.928769	-0.607409	-0.512181
C42	C	0.916194	-0.278338	-0.291648
C43	C	0.910866	-0.138091	-0.296989
C44	C	0.965774	-0.526688	-0.547987
C45	C	0.965771	-0.526634	-0.613424
C46	C	0.928771	-0.607323	-0.643053
C47	C	0.891758	-0.688049	-0.607238
C48	C	0.891757	-0.688092	-0.541802
C49	C	0.928146	-0.720937	-0.742404
C50	C	0.928151	-0.720896	-0.807838
C51	C	0.928770	-0.607189	-0.844878
C52	C	0.929396	-0.493520	-0.816476
C53	C	0.929395	-0.493563	-0.751040
C54	C	0.928767	-0.607284	-0.714006
C55	C	0.965773	-0.526403	-0.951640
C56	C	0.965766	-0.526347	-1.017078
C57	C	0.891756	-0.687773	-1.010891
C58	C	0.891760	-0.687818	-0.945453
C59	C	0.928772	-0.607135	-0.915832
C60	C	0.928678	-0.607380	-0.116330
C61	C	0.928764	-0.607035	-0.046702
H62	H	0.565855	-0.460899	-0.212071
Br63	Br	0.853052	-1.048558	-0.354651
H64	H	0.981242	-1.129246	-0.226729
H65	H	0.995911	-0.460987	-0.523873
H66	H	0.929904	-0.401010	-0.727918
Br67	Br	1.015979	-0.417045	-0.662030
Br68	Br	0.930241	-0.339194	-0.866737
Br69	Br	0.927309	-0.875159	-0.846377
Br70	Br	0.142771	-0.416844	-0.192179
H71	H	0.927473	-0.813506	-0.712251
H72	H	0.487562	-0.589129	-0.177387
Br73	Br	0.297007	-0.416910	-0.192123
H74	H	0.861630	-0.753743	-0.631366
H75	H	0.995907	-0.460699	-0.927521
Br76	Br	1.016002	-0.416806	-1.065674
H77	H	0.861623	-0.753459	-1.035013
H78	H	0.861631	-0.753558	-0.916299
H79	H	0.684570	-0.460927	-0.212028
Br80	Br	0.841531	-0.797649	-0.493205
H81	H	0.577105	-0.754140	-0.346067
Br82	Br	0.507189	-0.631360	-0.411227
Br83	Br	0.352950	-0.631281	-0.411290
Br84	Br	0.715259	-0.798083	-0.366058
Br85	Br	0.311618	-0.797918	-0.366212
Br86	Br	0.157380	-0.797832	-0.366280
H87	H	0.368856	-0.589093	-0.177431
