data_functionalizedCrystal
_audit_creation_method	'MofGen! by Chris Wilmer'
_symmetry_space_group_name_H-M	'P1'
_symmetry_Int_Tables_number	1
_symmetry_cell_setting	triclinic
loop_
_symmetry_equiv_pos_as_xyz
  x,y,z
_cell_length_a	17.038272
_cell_length_b	15.995350
_cell_length_c	15.072220
_cell_angle_alpha	89.998899
_cell_angle_beta	89.989222
_cell_angle_gamma	92.698035
loop_
_atom_site_label
_atom_site_type_symbol
_atom_site_fract_x
_atom_site_fract_y
_atom_site_fract_z
O1	O	1.037421	-0.181819	-0.073740
O2	O	1.370754	0.151515	0.259593
O3	O	1.704088	0.484848	0.592927
O4	O	0.809790	-0.178931	-0.073749
O5	O	1.143123	0.154402	0.259584
O6	O	1.476456	0.487735	0.592917
O7	O	0.929828	-0.058931	-0.073744
O8	O	1.263161	0.274403	0.259590
O9	O	1.596494	0.607736	0.592923
O10	O	0.917383	-0.301819	-0.073746
O11	O	1.250716	0.031514	0.259588
O12	O	1.584050	0.364847	0.592921
O13	O	0.929798	-0.058936	0.073822
O14	O	1.263131	0.274398	0.407155
O15	O	1.596465	0.607731	0.740488
O16	O	0.809760	-0.178936	0.073816
O17	O	1.143093	0.154397	0.407149
O18	O	1.476427	0.487730	0.740482
O19	O	1.037391	-0.181824	0.073825
O20	O	1.370725	0.151510	0.407159
O21	O	1.704058	0.484843	0.740492
Zn22	Zn	0.923571	-0.180381	0.097250
Zn23	Zn	1.256904	0.152953	0.430583
Zn24	Zn	1.590238	0.486286	0.763916
Zn25	Zn	0.923610	-0.180374	-0.097174
Zn26	Zn	1.256943	0.152959	0.236160
Zn27	Zn	1.590277	0.486292	0.569493
O28	O	0.917353	-0.301824	0.073819
O29	O	1.250687	0.031509	0.407153
O30	O	1.584020	0.364842	0.740486
C31	C	0.780646	-0.176308	0.000032
C32	C	1.113979	0.157025	0.333365
C33	C	1.447313	0.490359	0.666698
C34	C	0.693851	-0.168474	0.000028
C35	C	1.027184	0.164860	0.333361
C36	C	1.360518	0.498193	0.666695
C37	C	0.929298	-0.027702	0.000037
C38	C	1.262632	0.305632	0.333371
C39	C	1.595965	0.638965	0.666704
C40	C	0.927756	0.065359	0.000032
C41	C	1.261089	0.398692	0.333366
C42	C	1.594423	0.732025	0.666699
C43	C	1.066535	-0.184447	0.000042
C44	C	1.399868	0.148886	0.333375
C45	C	1.733202	0.482220	0.666709
C46	C	1.153330	-0.192281	0.000040
C47	C	1.486663	0.141052	0.333373
C48	C	1.819997	0.474385	0.666707
C49	C	1.203426	-0.120353	0.000038
C50	C	1.536760	0.212981	0.333371
C51	C	1.870093	0.546314	0.666704
C52	C	1.284979	-0.127719	0.000041
C53	C	1.618312	0.205614	0.333374
C54	C	1.951645	0.538948	0.666708
C55	C	1.316433	-0.207014	0.000040
C56	C	1.649766	0.126319	0.333373
C57	C	1.983100	0.459652	0.666707
C58	C	1.266330	-0.278948	0.000045
C59	C	1.599663	0.054385	0.333378
C60	C	1.932997	0.387718	0.666712
C61	C	1.184779	-0.271581	0.000048
C62	C	1.518113	0.061752	0.333381
C63	C	1.851446	0.395085	0.666715
C64	C	1.562197	-0.233041	0.000036
C65	C	1.895531	0.100293	0.333369
C66	C	2.228864	0.433626	0.666703
C67	C	1.643754	-0.240402	0.000030
C68	C	1.977088	0.092931	0.333364
C69	C	2.310421	0.426264	0.666697
C70	C	1.662398	-0.089172	0.000028
C71	C	1.995731	0.244161	0.333361
C72	C	2.329064	0.577495	0.666695
C73	C	1.580844	-0.081812	0.000026
C74	C	1.914178	0.251521	0.333359
C75	C	2.247511	0.584855	0.666692
C76	C	1.530749	-0.153746	0.000035
C77	C	1.864082	0.179587	0.333369
C78	C	2.197415	0.512921	0.666702
C79	C	1.399792	-0.214546	0.000040
C80	C	1.733126	0.118788	0.333374
C81	C	2.066459	0.452121	0.666707
C82	C	1.447391	-0.146214	0.000041
C83	C	1.780724	0.187119	0.333375
C84	C	2.114058	0.520453	0.666708
C85	C	0.917883	-0.333053	0.000037
C86	C	1.251216	0.000280	0.333370
C87	C	1.584549	0.333613	0.666703
C88	C	0.919425	-0.426114	0.000036
C89	C	1.252758	-0.092780	0.333369
C90	C	1.586092	0.240553	0.666702
N91	N	0.923550	-0.180385	0.229938
N92	N	1.256883	0.152948	0.563272
N93	N	1.590217	0.486281	0.896605
C94	C	0.922217	0.403501	0.000035
C95	C	1.255550	0.736834	0.333368
C96	C	1.588883	1.070167	0.666702
C97	C	0.836728	0.362156	-0.000300
C98	C	1.170061	0.695489	0.333034
C99	C	1.503394	1.028823	0.666367
C100	C	0.838270	0.265356	0.000033
C101	C	1.171604	0.598689	0.333366
C102	C	1.504937	0.932023	0.666700
C103	C	0.924964	0.235744	0.000033
C104	C	1.258298	0.569078	0.333366
C105	C	1.591631	0.902411	0.666700
C106	C	0.967114	0.273815	0.084300
C107	C	1.300447	0.607149	0.417634
C108	C	1.633780	0.940482	0.750967
C109	C	0.964966	0.370604	0.084371
C110	C	1.298299	0.703937	0.417704
C111	C	1.631633	1.037271	0.751037
C112	C	0.966766	0.370842	-0.083438
C113	C	1.300099	0.704175	0.249895
C114	C	1.633432	1.037509	0.583228
C115	C	0.966746	0.273898	-0.084552
C116	C	1.300079	0.607232	0.248781
C117	C	1.633412	0.940565	0.582115
C118	C	0.926522	0.140936	0.000035
C119	C	1.259855	0.474269	0.333368
C120	C	1.593188	0.807603	0.666702
C121	C	0.920662	0.498309	0.000039
C122	C	1.253995	0.831643	0.333372
C123	C	1.587328	1.164976	0.666706
N124	N	0.923637	-0.180364	-0.229863
N125	N	1.256971	0.152970	0.103471
N126	N	1.590304	0.486303	0.436804
C127	C	0.923608	-0.180371	0.589140
C128	C	1.256942	0.152963	0.922473
C129	C	1.590275	0.486296	1.255807
C130	C	0.859163	-0.244335	0.551530
C131	C	1.192496	0.088998	0.884863
C132	C	1.525829	0.422332	1.218196
C133	C	0.859310	-0.244596	0.448704
C134	C	1.192644	0.088738	0.782037
C135	C	1.525977	0.422071	1.115371
C136	C	0.923579	-0.180378	0.410936
C137	C	1.256912	0.152955	0.744269
C138	C	1.590245	0.486289	1.077603
C139	C	1.005158	-0.205271	0.448230
C140	C	1.338491	0.128063	0.781564
C141	C	1.671825	0.461396	1.114897
C142	C	1.004797	-0.205732	0.551088
C143	C	1.338130	0.127601	0.884422
C144	C	1.671463	0.460935	1.217755
C145	C	0.907202	-0.091363	0.551240
C146	C	1.240536	0.241971	0.884573
C147	C	1.573869	0.575304	1.217907
C148	C	0.905331	-0.091815	0.448377
C149	C	1.238664	0.241518	0.781710
C150	C	1.571997	0.574851	1.115043
C151	C	0.923567	-0.180381	0.310222
C152	C	1.256900	0.152953	0.643556
C153	C	1.590234	0.486286	0.976889
C154	C	0.923625	-0.180370	0.689853
C155	C	1.256959	0.152963	1.023187
C156	C	1.590292	0.486296	1.356520
H157	H	1.177823	-0.055782	0.000033
H158	H	1.511157	0.277551	0.333366
H159	H	1.844490	0.610885	0.666700
Cl160	Cl	1.065448	0.245004	0.089144
Cl161	Cl	1.398782	0.578337	0.422478
Cl162	Cl	1.732115	0.911670	0.755811
Cl163	Cl	1.305873	-0.378635	0.000045
Cl164	Cl	1.639206	-0.045302	0.333379
Cl165	Cl	1.972539	0.288032	0.666712
H166	H	1.555241	-0.017241	0.000027
H167	H	1.888574	0.316092	0.333360
H168	H	2.221908	0.649425	0.666693
Cl169	Cl	0.786731	0.225995	0.093449
Cl170	Cl	1.120064	0.559328	0.426782
Cl171	Cl	1.453398	0.892662	0.760115
Cl172	Cl	0.784042	0.396513	0.092201
Cl173	Cl	1.117375	0.729846	0.425534
Cl174	Cl	1.450708	1.063180	0.758867
H175	H	1.143991	-0.330154	0.000053
H176	H	1.477324	0.003180	0.333386
H177	H	1.810657	0.336513	0.666720
H178	H	0.798327	-0.228819	0.576289
H179	H	1.131661	0.104514	0.909622
H180	H	1.464994	0.437847	1.242955
H181	H	1.669361	-0.304977	0.000042
H182	H	2.002694	0.028356	0.333376
H183	H	2.336027	0.361689	0.666709
Cl184	Cl	1.064079	0.412948	-0.084316
Cl185	Cl	1.397412	0.746281	0.249018
Cl186	Cl	1.730745	1.079615	0.582351
Cl187	Cl	1.064356	0.243225	-0.092414
Cl188	Cl	1.397689	0.576559	0.240919
Cl189	Cl	1.731023	0.909892	0.574253
H190	H	1.325765	-0.069147	0.000043
H191	H	1.659098	0.264187	0.333376
H192	H	1.992431	0.597520	0.666709
H193	H	1.421777	-0.081652	0.000032
H194	H	1.755111	0.251682	0.333365
H195	H	2.088444	0.585015	0.666699
Cl196	Cl	1.439342	-0.314229	0.000029
Cl197	Cl	1.772675	0.019104	0.333362
Cl198	Cl	2.106009	0.352438	0.666695
H199	H	0.949221	-0.041536	0.422670
H200	H	1.282554	0.291797	0.756004
H201	H	1.615887	0.625130	1.089337
Cl202	Cl	0.979760	-0.017766	0.588790
Cl203	Cl	1.313094	0.315568	0.922123
Cl204	Cl	1.646427	0.648901	1.255456
H205	H	1.019254	-0.270823	0.575070
H206	H	1.352587	0.062511	0.908403
H207	H	1.685920	0.395844	1.241737
H208	H	0.845320	-0.073059	0.424002
H209	H	1.178653	0.260274	0.757335
H210	H	1.511987	0.593607	1.090669
H211	H	1.703194	-0.030608	0.000021
H212	H	2.036527	0.302726	0.333354
H213	H	2.369861	0.636059	0.666688
H214	H	1.521419	-0.291615	0.000040
H215	H	1.854752	0.041718	0.333373
H216	H	2.188085	0.375052	0.666706
Cl217	Cl	1.080971	-0.135632	0.410462
Cl218	Cl	1.414304	0.197702	0.743795
Cl219	Cl	1.747637	0.531035	1.077128
Cl220	Cl	0.765673	-0.220428	0.409773
Cl221	Cl	1.099007	0.112905	0.743106
Cl222	Cl	1.432340	0.446238	1.076439
H223	H	0.805137	0.239297	-0.060373
H224	H	1.138471	0.572630	0.272960
H225	H	1.471804	0.905964	0.606294
Cl226	Cl	1.080990	-0.136920	0.589502
Cl227	Cl	1.414323	0.196414	0.922835
Cl228	Cl	1.747656	0.529747	1.256168
Cl229	Cl	0.783987	0.394527	-0.093599
Cl230	Cl	1.117320	0.727860	0.239734
Cl231	Cl	1.450654	1.061193	0.573067
H232	H	0.935929	0.248848	-0.146891
H233	H	1.269263	0.582181	0.186443
H234	H	1.602596	0.915514	0.519776
H235	H	0.869494	-0.309888	0.577368
H236	H	1.202828	0.023445	0.910702
H237	H	1.536161	0.356779	1.244035
Cl238	Cl	0.875454	-0.346395	0.410695
Cl239	Cl	1.208787	-0.013061	0.744029
Cl240	Cl	1.542120	0.320272	1.077362
Cl241	Cl	1.028015	-0.304676	0.408449
Cl242	Cl	1.361348	0.028657	0.741782
Cl243	Cl	1.694682	0.361990	1.075115
H244	H	0.934206	0.391094	0.147362
H245	H	1.267539	0.724427	0.480695
H246	H	1.600872	1.057760	0.814028
Cl247	Cl	1.061865	0.413494	0.090287
Cl248	Cl	1.395198	0.746827	0.423620
Cl249	Cl	1.728532	1.080160	0.756953
Cl250	Cl	0.921879	0.233219	0.181120
Cl251	Cl	1.255212	0.566552	0.514454
Cl252	Cl	1.588546	0.899886	0.847787
H253	H	0.938828	0.393375	-0.147308
H254	H	1.272161	0.726708	0.186026
H255	H	1.605495	1.060042	0.519359
Cl256	Cl	0.817337	-0.056648	0.591332
Cl257	Cl	1.150670	0.276685	0.924665
Cl258	Cl	1.484003	0.610018	1.257999
