data_functionalizedCrystal
_audit_creation_method	'MofGen! by Chris Wilmer'
_symmetry_space_group_name_H-M	'P1'
_symmetry_Int_Tables_number	1
_symmetry_cell_setting	triclinic
loop_
_symmetry_equiv_pos_as_xyz
  x,y,z
_cell_length_a	18.050591
_cell_length_b	21.295417
_cell_length_c	18.050582
_cell_angle_alpha	89.974292
_cell_angle_beta	89.989456
_cell_angle_gamma	90.028543
loop_
_atom_site_label
_atom_site_type_symbol
_atom_site_fract_x
_atom_site_fract_y
_atom_site_fract_z
Zn1	Zn	1.135285	-0.250669	-0.419810
Zn2	Zn	1.135192	-0.355930	-0.295613
Zn3	Zn	1.011104	-0.250676	-0.295643
Zn4	Zn	1.011049	-0.355902	-0.419771
O5	O	1.073157	-0.303294	-0.357709
O6	O	1.239197	-0.264640	-0.403338
O7	O	1.118716	-0.341983	-0.191692
O8	O	1.027639	-0.162586	-0.312143
O9	O	1.239129	-0.341975	-0.312091
O10	O	1.118874	-0.162580	-0.403368
O11	O	1.027549	-0.264654	-0.191715
O12	O	0.907172	-0.264626	-0.312105
O13	O	1.027545	-0.341927	-0.523701
O14	O	0.907132	-0.341935	-0.403301
O15	O	1.118820	-0.264613	-0.523729
O16	O	1.118663	-0.444016	-0.312054
O17	O	1.027455	-0.443995	-0.403272
C18	C	0.880205	-0.303279	-0.357703
C19	C	0.797660	-0.303287	-0.357718
C20	C	0.548833	-0.345415	-0.407243
C21	C	0.598203	-0.360732	-0.339456
C22	C	0.500539	-0.303307	-0.357717
C23	C	0.598251	-0.288010	-0.425500
C24	C	0.646524	-0.303299	-0.357721
C25	C	0.548821	-0.318654	-0.289894
C26	C	0.548866	-0.245905	-0.375984
C27	C	0.598213	-0.261201	-0.308150
C28	C	0.416441	-0.303314	-0.357715
C29	C	0.730621	-0.303293	-0.357715
C30	C	1.073063	-0.466846	-0.357672
C31	C	1.073090	-0.536814	-0.357680
C32	C	1.120569	-0.569620	-0.405215
C33	C	1.120595	-0.635363	-0.405233
C34	C	1.073151	-0.668296	-0.357704
C35	C	1.025662	-0.635482	-0.310166
C36	C	1.025632	-0.569741	-0.310154
N37	N	1.067546	-0.771554	-0.292710
N38	N	1.067579	-0.834005	-0.292723
C39	C	1.073237	-0.866371	-0.357737
N40	N	1.078875	-0.833927	-0.422739
N41	N	1.078846	-0.771469	-0.422725
C42	C	1.073178	-0.739582	-0.357711
C43	C	1.120747	-0.970463	-0.405296
C44	C	1.120768	-1.036207	-0.405315
C45	C	1.025839	-1.036325	-0.310241
C46	C	1.025814	-0.970582	-0.310228
C47	C	1.073272	-0.937655	-0.357754
C48	C	1.266863	-0.303310	-0.357716
C49	C	1.349409	-0.303317	-0.357718
C50	C	1.073187	-0.303266	-0.551415
C51	C	1.073199	-0.303254	-0.633961
C52	C	1.073273	-0.139104	-0.357763
C53	C	1.073322	-0.069136	-0.357786
C54	C	1.023601	-0.345241	-0.833396
C55	C	1.091356	-0.360629	-0.882781
C56	C	1.073236	-0.303206	-0.785091
C57	C	1.005518	-0.287800	-0.882788
C58	C	1.073265	-0.303161	-0.931076
C59	C	1.141026	-0.318625	-0.833389
C60	C	1.055142	-0.245770	-0.833391
C61	C	1.122944	-0.261136	-0.882754
C62	C	1.073218	-0.303234	-0.700993
C63	C	1.073291	-0.303133	-1.015173
C64	C	1.073171	-0.303277	-0.164757
C65	C	1.073303	-0.303111	-0.082212
H66	H	0.619757	-0.225588	-0.266221
N67	N	1.178623	-0.214032	-0.911295
H68	H	1.165412	-0.170787	-0.892535
H69	H	1.229716	-0.225792	-0.893220
H70	H	0.527177	-0.197379	-0.391458
N71	N	1.034821	-0.181478	-0.804617
H72	H	1.071780	-0.149580	-0.823352
H73	H	0.983606	-0.169953	-0.822560
H74	H	0.619964	-0.275074	-0.482822
H75	H	1.159431	-1.062917	-0.444027
N76	N	0.929648	-0.270561	-0.911535
H77	H	0.892189	-0.302361	-0.893580
H78	H	0.915650	-0.227492	-0.892792
N79	N	0.520099	-0.392621	-0.462643
H80	H	0.489319	-0.370359	-0.501285
H81	H	0.563251	-0.414308	-0.487393
N82	N	0.626907	-0.425027	-0.318974
H83	H	0.608947	-0.456810	-0.356411
H84	H	0.682853	-0.424391	-0.318641
N85	N	1.216897	-0.335978	-0.804742
H86	H	1.230651	-0.379211	-0.823146
H87	H	1.254435	-0.304412	-0.823094
H88	H	1.159210	-0.542813	-0.443915
N89	N	0.520191	-0.335861	-0.213940
H90	H	0.464240	-0.335776	-0.214412
H91	H	0.538627	-0.379066	-0.200075
N92	N	1.171807	-0.670758	-0.456504
H93	H	1.201865	-0.639923	-0.486609
H94	H	1.206203	-0.698022	-0.426300
H95	H	0.987204	-1.063138	-0.271546
H96	H	0.987031	-0.662301	-0.271469
N97	N	0.974422	-0.534352	-0.258881
H98	H	0.944368	-0.565188	-0.228774
H99	H	1.004666	-0.507073	-0.224533
N100	N	0.974614	-0.935191	-0.258951
H101	H	0.921548	-0.946665	-0.270438
H102	H	0.986255	-0.946665	-0.205922
H103	H	1.159388	-0.943653	-0.443997
H104	H	1.106677	-0.409183	-0.904476
N105	N	0.968054	-0.392382	-0.804680
H106	H	0.981833	-0.435742	-0.822646
H107	H	0.968127	-0.391728	-0.748735
