data_functionalizedCrystal
_audit_creation_method	'MofGen! by Chris Wilmer'
_symmetry_space_group_name_H-M	'P1'
_symmetry_Int_Tables_number	1
_symmetry_cell_setting	triclinic
loop_
_symmetry_equiv_pos_as_xyz
  x,y,z
_cell_length_a	21.395362
_cell_length_b	29.839132
_cell_length_c	21.395355
_cell_angle_alpha	89.977614
_cell_angle_beta	90.043940
_cell_angle_gamma	89.938860
loop_
_atom_site_label
_atom_site_type_symbol
_atom_site_fract_x
_atom_site_fract_y
_atom_site_fract_z
Zn1	Zn	0.957796	0.178715	0.354569
Zn2	Zn	1.457796	0.678715	0.854569
Zn3	Zn	0.957672	0.253830	0.249784
Zn4	Zn	1.457672	0.753830	0.749784
Zn5	Zn	0.853011	0.178736	0.249770
Zn6	Zn	1.353011	0.678736	0.749770
Zn7	Zn	0.852954	0.253840	0.354489
Zn8	Zn	1.352954	0.753840	0.854489
O9	O	0.905358	0.216280	0.302153
O10	O	1.405358	0.716280	0.802153
O11	O	1.045458	0.188667	0.340708
O12	O	1.545458	0.688667	0.840708
O13	O	0.943761	0.243874	0.162104
O14	O	1.443761	0.743874	0.662104
O15	O	0.866987	0.115866	0.263699
O16	O	1.366987	0.615866	0.763699
O17	O	1.045366	0.243853	0.263723
O18	O	1.545366	0.743853	0.763723
O19	O	0.943972	0.115851	0.340694
O20	O	1.443972	0.615851	0.840694
O21	O	0.866867	0.188702	0.162094
O22	O	1.366867	0.688702	0.662094
O23	O	0.765326	0.188711	0.263622
O24	O	1.265326	0.688711	0.763622
O25	O	0.866889	0.243869	0.442177
O26	O	1.366889	0.743869	0.942177
O27	O	0.765283	0.243890	0.340558
O28	O	1.265283	0.743890	0.840558
O29	O	0.943916	0.188676	0.442236
O30	O	1.443916	0.688676	0.942236
O31	O	0.943705	0.316699	0.263646
O32	O	1.443705	0.816699	0.763646
O33	O	0.866769	0.316705	0.340572
O34	O	1.366769	0.816705	0.840572
C35	C	0.742571	0.216304	0.302080
C36	C	1.242571	0.716304	0.802080
C37	C	0.672929	0.216325	0.302064
C38	C	1.172929	0.716325	0.802064
C39	C	0.905234	0.333003	0.302116
C40	C	1.405234	0.833003	0.802116
C41	C	0.905238	0.382937	0.302120
C42	C	1.405238	0.882937	0.802120
C43	C	0.640211	0.245094	0.342065
C44	C	1.140211	0.745094	0.842065
C45	C	0.574775	0.245083	0.342093
C46	C	1.074775	0.745083	0.842093
C47	C	0.542061	0.216308	0.302109
C48	C	1.042061	0.716308	0.802109
C49	C	0.574788	0.187533	0.262105
C50	C	1.074788	0.687533	0.762105
C51	C	0.640222	0.187541	0.262083
C52	C	1.140222	0.687541	0.762083
C53	C	0.438338	0.212688	0.245704
C54	C	0.938338	0.712688	0.745704
C55	C	0.372905	0.212683	0.245725
C56	C	0.872905	0.712683	0.745725
C57	C	0.340240	0.216278	0.302178
C58	C	0.840240	0.716278	0.802178
C59	C	0.373017	0.219889	0.358611
C60	C	0.873017	0.719889	0.858611
C61	C	0.438451	0.219897	0.358589
C62	C	0.938451	0.719897	0.858589
C63	C	0.471109	0.216295	0.302129
C64	C	0.971109	0.716295	0.802129
C65	C	0.236569	0.245037	0.342212
C66	C	0.736569	0.745037	0.842212
C67	C	0.171133	0.245023	0.342241
C68	C	0.671133	0.745023	0.842241
C69	C	0.171146	0.187475	0.262248
C70	C	0.671146	0.687475	0.762248
C71	C	0.236582	0.187487	0.262225
C72	C	0.736582	0.687487	0.762225
C73	C	0.269289	0.216270	0.302206
C74	C	0.769289	0.716270	0.802206
C75	C	0.945447	0.692564	0.262130
C76	C	1.445447	1.192564	0.762130
C77	C	0.945507	0.880237	0.262145
C78	C	1.445507	1.380237	0.762145
O79	O	0.979626	0.904488	0.228133
O80	O	1.479626	1.404488	0.728133
N81	N	0.905424	0.903722	0.302163
N82	N	1.405424	1.403722	0.802163
C83	C	0.865326	0.880286	0.342184
C84	C	1.365326	1.380286	0.842184
O85	O	0.831239	0.904567	0.376227
O86	O	1.331239	1.404567	0.876227
C87	C	0.865270	0.692614	0.342172
C88	C	1.365270	1.192614	0.842172
C89	C	0.905351	0.669131	0.302147
C90	C	1.405351	1.169131	0.802147
C91	C	0.985526	0.669082	0.222108
C92	C	1.485526	1.169082	0.722108
C93	C	0.985508	0.622167	0.222103
C94	C	1.485508	1.122167	0.722103
C95	C	0.945412	0.598734	0.262119
C96	C	1.445412	1.098734	0.762119
C97	C	0.905333	0.622216	0.302141
C98	C	1.405333	1.122216	0.802141
C99	C	0.825175	0.669178	0.382196
C100	C	1.325175	1.169178	0.882196
C101	C	0.825166	0.622257	0.382190
C102	C	1.325166	1.122257	0.882190
C103	C	0.865247	0.598775	0.342165
C104	C	1.365247	1.098775	0.842165
C105	C	0.865219	0.551867	0.342152
C106	C	1.365219	1.051867	0.842152
N107	N	0.905302	0.528383	0.302133
N108	N	1.405302	1.028383	0.802133
C109	C	0.945399	0.551816	0.262117
C110	C	1.445399	1.051816	0.762117
C111	C	0.865357	0.978817	0.342186
C112	C	1.365357	1.478817	0.842186
C113	C	0.865370	1.025734	0.342188
C114	C	1.365370	1.525734	0.842188
C115	C	0.945553	1.025683	0.262150
C116	C	1.445553	1.525683	0.762150
C117	C	0.945536	0.978764	0.262145
C118	C	1.445536	1.478764	0.762145
C119	C	0.905440	0.955332	0.302168
C120	C	1.405440	1.455332	0.802168
C121	C	0.945358	0.453290	0.262108
C122	C	1.445358	0.953290	0.762108
C123	C	0.945335	0.406370	0.262104
C124	C	1.445335	0.906370	0.762104
C125	C	0.865155	0.406426	0.342145
C126	C	1.365155	0.906426	0.842145
C127	C	0.865176	0.453342	0.342147
C128	C	1.365176	0.953342	0.842147
C129	C	0.905282	0.476772	0.302126
C130	C	1.405282	0.976772	0.802126
O131	O	0.831122	0.527587	0.376151
O132	O	1.331122	1.027587	0.876151
O133	O	0.979490	0.527526	0.228089
O134	O	1.479490	1.027526	0.728089
C135	C	0.945465	0.739480	0.262136
C136	C	1.445465	1.239480	0.762136
C137	C	0.905386	0.762962	0.302158
C138	C	1.405386	1.262962	0.802158
C139	C	0.865290	0.739529	0.342174
C140	C	1.365290	1.239529	0.842174
C141	C	0.905400	0.809880	0.302160
C142	C	1.405400	1.309880	0.802160
C143	C	0.945496	0.833313	0.262144
C144	C	1.445496	1.333313	0.762144
C145	C	0.985579	0.809828	0.222125
C146	C	1.485579	1.309828	0.722125
C147	C	0.985561	0.762913	0.222120
C148	C	1.485561	1.262913	0.722120
C149	C	0.825207	0.763014	0.382193
C150	C	1.325207	1.263014	0.882193
C151	C	0.825228	0.809930	0.382194
C152	C	1.325228	1.309930	0.882194
C153	C	0.865324	0.833363	0.342178
C154	C	1.365324	1.333363	0.842178
C155	C	1.068782	0.216257	0.302226
C156	C	1.568782	0.716257	0.802226
C157	C	1.138423	0.216247	0.302257
C158	C	1.638423	0.716247	0.802257
C159	C	0.905410	0.216271	0.465576
C160	C	1.405410	0.716271	0.965576
C161	C	0.905432	0.216267	0.535218
C162	C	1.405432	0.716267	1.035218
C163	C	0.905476	1.099102	0.302191
C164	C	1.405476	1.599102	0.802191
C165	C	0.905467	1.049167	0.302172
C166	C	1.405467	1.549167	0.802172
C167	C	0.905343	0.216257	0.139365
C168	C	1.405343	0.716257	0.639365
C169	C	0.905442	0.216134	0.069724
C170	C	1.405442	0.716134	0.569724
C171	C	0.945539	0.187527	0.567962
C172	C	1.445539	0.687527	1.067962
C173	C	0.945538	0.187507	0.633398
C174	C	1.445538	0.687507	1.133398
C175	C	0.905437	0.216237	0.666086
C176	C	1.405437	0.716237	1.166086
C177	C	0.865323	0.244979	0.633333
C178	C	1.365323	0.744979	1.133333
C179	C	0.865321	0.244994	0.567899
C180	C	1.365321	0.744994	1.067899
C181	C	0.900447	0.256689	0.769746
C182	C	1.400447	0.756689	1.269746
C183	C	0.900454	0.256674	0.835179
C184	C	1.400454	0.756674	1.335179
C185	C	0.905441	0.216189	0.867907
C186	C	1.405441	0.716189	1.367907
C187	C	0.910435	0.175717	0.835194
C188	C	1.410435	0.675717	1.335194
C189	C	0.910432	0.175733	0.769759
C190	C	1.410432	0.675733	1.269759
C191	C	0.905435	0.216223	0.737038
C192	C	1.405435	0.716223	1.237038
C193	C	0.945549	0.187425	0.971604
C194	C	1.445549	0.687425	1.471604
C195	C	0.945544	0.187405	1.037041
C196	C	1.445544	0.687405	1.537041
C197	C	0.865332	0.244881	1.036975
C198	C	1.365332	0.744881	1.536975
C199	C	0.865334	0.244897	0.971540
C200	C	1.365334	0.744897	1.471540
C201	C	0.905446	0.216170	0.938858
C202	C	1.405446	0.716170	1.438858
H203	H	0.548130	0.268511	0.374669
H204	H	1.048130	0.768511	0.874669
O205	O	0.826296	0.272853	0.536061
O206	O	1.326296	0.772853	1.036061
C207	C	0.785870	0.247293	0.498168
C208	C	1.285870	0.747293	0.998168
H209	H	0.782041	0.211905	0.517884
H210	H	1.282041	0.711905	1.017884
H211	H	0.737632	0.263549	0.497387
H212	H	1.237632	0.763549	0.997387
H213	H	0.805245	0.245756	0.448592
H214	H	1.305245	0.745756	0.948592
O215	O	0.671980	0.159644	0.223131
O216	O	1.171980	0.659644	0.723131
C217	C	0.655890	0.169386	0.160666
C218	C	1.155890	0.669386	0.660666
H219	H	0.637832	0.205269	0.157416
H220	H	1.137832	0.705269	0.657416
H221	H	0.698894	0.165491	0.129706
H222	H	1.198894	0.665491	0.629706
H223	H	0.617934	0.145275	0.144365
H224	H	1.117934	0.645275	0.644365
O225	O	0.984402	0.159585	0.536156
O226	O	1.484402	0.659585	1.036156
C227	C	0.948749	0.130575	0.498309
C228	C	1.448749	0.630575	0.998309
H229	H	0.901256	0.146438	0.488461
H230	H	1.401256	0.646438	0.988461
H231	H	0.974274	0.124542	0.452318
H232	H	1.474274	0.624542	0.952318
H233	H	0.941889	0.097286	0.523542
H234	H	1.441889	0.597286	1.023542
H235	H	0.978174	0.959647	0.229553
H236	H	1.478174	1.459647	0.729553
H237	H	0.144494	0.268450	0.374819
H238	H	0.644494	0.768450	0.874819
H239	H	0.666837	0.268532	0.374622
H240	H	1.166837	0.768532	0.874622
H241	H	0.346223	0.209746	0.199774
H242	H	0.846223	0.709746	0.699774
H243	H	0.346423	0.222815	0.404581
H244	H	0.846423	0.722815	0.904581
O245	O	0.268249	0.273006	0.381113
O246	O	0.768249	0.773006	0.881113
C247	C	0.225335	0.298401	0.416421
C248	C	0.725335	0.798401	0.916421
H249	H	0.178726	0.279995	0.418654
H250	H	0.678726	0.779995	0.918654
H251	H	0.244288	0.303246	0.465767
H252	H	0.744288	0.803246	0.965767
H253	H	0.218289	0.332497	0.393394
H254	H	0.718289	0.832497	0.893394
H255	H	0.978207	0.164031	0.944993
H256	H	1.478207	0.664031	1.444993
H257	H	0.896218	0.289648	0.743105
H258	H	1.396218	0.789648	1.243105
H259	H	0.978196	0.164101	0.660064
H260	H	1.478196	0.664101	1.160064
O261	O	0.984242	0.383610	0.223135
O262	O	1.484242	0.883610	0.723135
C263	C	0.970574	0.395102	0.160673
C264	C	1.470574	0.895102	0.660673
H265	H	0.946499	0.429190	0.159350
H266	H	1.446499	0.929190	0.659350
H267	H	1.015808	0.396676	0.132637
H268	H	1.515808	0.896676	0.632637
H269	H	0.938364	0.368734	0.139524
H270	H	1.438364	0.868734	0.639524
H271	H	1.018180	0.688156	0.189522
H272	H	1.518180	1.188156	0.689522
O273	O	1.024478	0.599309	0.183314
O274	O	1.524478	1.099309	0.683314
C275	C	1.064932	0.572131	0.219036
C276	C	1.564932	1.072131	0.719036
H277	H	1.042806	0.565103	0.266487
H278	H	1.542806	1.065103	0.766487
H279	H	1.073338	0.539140	0.193520
H280	H	1.573338	1.039140	0.693520
H281	H	1.111362	0.590171	0.225985
H282	H	1.611362	1.090171	0.725985
H283	H	0.914497	0.142779	0.743127
H284	H	1.414497	0.642779	1.243127
H285	H	0.832540	0.472462	0.374741
H286	H	1.332540	0.972462	0.874741
H287	H	0.144511	0.164043	0.229695
H288	H	0.644511	0.664043	0.729695
O289	O	0.984521	1.048519	0.223374
O290	O	1.484521	1.548519	0.723374
C291	C	0.975940	1.094964	0.231972
C292	C	1.475940	1.594964	0.731972
H293	H	0.955341	1.101362	0.280279
H294	H	1.455341	1.601362	0.780279
H295	H	1.022893	1.112744	0.227855
H296	H	1.522893	1.612744	0.727855
H297	H	0.942650	1.108344	0.194736
H298	H	1.442650	1.608344	0.694736
H299	H	0.832507	0.387340	0.374724
H300	H	1.332507	0.887340	0.874724
H301	H	0.832726	1.044850	0.374775
H302	H	1.332726	1.544850	0.874775
H303	H	0.263221	0.164062	0.229648
H304	H	0.763221	0.664062	0.729648
O305	O	0.826342	0.956127	0.381082
O306	O	1.326342	1.456127	0.881082
C307	C	0.790981	0.986922	0.416408
C308	C	1.290981	1.486922	0.916408
H309	H	0.788844	1.020375	0.390739
H310	H	1.288844	1.520375	0.890739
H311	H	0.741604	0.973415	0.423025
H312	H	1.241604	1.473415	0.923025
H313	H	0.813898	0.991877	0.464024
H314	H	1.313898	1.491877	0.964024
O315	O	0.915158	0.136389	0.867000
O316	O	1.415158	0.636389	1.367000
C317	C	0.861828	0.130607	0.904813
C318	C	1.361828	0.630607	1.404813
H319	H	0.821520	0.151243	0.885061
H320	H	1.321520	0.651243	1.385061
H321	H	0.848230	0.093681	0.905538
H322	H	1.348230	0.593681	1.405538
H323	H	0.872609	0.142222	0.954415
H324	H	1.372609	0.642222	1.454415
H325	H	0.464927	0.209759	0.199730
H326	H	0.964927	0.709759	0.699730
H327	H	0.792557	0.743938	0.414780
H328	H	1.292557	1.243938	0.914780
O329	O	0.786222	0.691912	0.421139
O330	O	1.286222	1.191912	0.921139
C331	C	0.750827	0.661159	0.456444
C332	C	1.250827	1.161159	0.956444
H333	H	0.776485	0.627692	0.458631
H334	H	1.276485	1.127692	0.958631
H335	H	0.744127	0.674699	0.505806
H336	H	1.244127	1.174699	1.005806
H337	H	0.703249	0.656220	0.433444
H338	H	1.203249	1.156220	0.933444
H339	H	0.978202	0.163998	1.063700
H340	H	1.478202	0.663998	1.563700
H341	H	0.832671	0.268369	0.659952
H342	H	1.332671	0.768369	1.159952
O343	O	0.786224	0.832758	0.420989
O344	O	1.286224	1.332758	0.920989
C345	C	0.745788	0.859960	0.385282
C346	C	1.245788	1.359960	0.885282
H347	H	0.741930	0.845846	0.335926
H348	H	1.241930	1.345846	0.835926
H349	H	0.697562	0.860528	0.407889
H350	H	1.197562	1.360528	0.907889
H351	H	0.765174	0.895500	0.383156
H352	H	1.265174	1.395500	0.883156
O353	O	0.786305	0.599475	0.421136
O354	O	1.286305	1.099475	0.921136
C355	C	0.821948	0.572280	0.461634
C356	C	1.321948	1.072280	0.961634
H357	H	0.871299	0.586370	0.465564
H358	H	1.371299	1.086370	0.965564
H359	H	0.799266	0.571754	0.509825
H360	H	1.299266	1.071754	1.009825
H361	H	0.824101	0.536726	0.442262
H362	H	1.324101	1.036726	0.942262
H363	H	0.832675	0.268268	1.063589
H364	H	1.332675	0.768268	1.563589
H365	H	0.465135	0.222836	0.404539
H366	H	0.965135	0.722836	0.904539
O367	O	0.826357	0.272861	0.939825
O368	O	1.326357	0.772861	1.439825
C369	C	0.790950	0.298206	0.982705
C370	C	1.290950	0.798206	1.482705
H371	H	0.816613	0.299748	1.029367
H372	H	1.316613	0.799748	1.529367
H373	H	0.784220	0.333607	0.963790
H374	H	1.284220	0.833607	1.463790
H375	H	0.743386	0.281758	0.989632
H376	H	1.243386	0.781758	1.489632
H377	H	1.018199	0.743797	0.189527
H378	H	1.518199	1.243797	0.689527
H379	H	1.018225	0.828916	0.189541
H380	H	1.518225	1.328916	0.689541
O381	O	0.895571	0.296024	0.866857
O382	O	1.395571	0.796024	1.366857
C383	C	0.891174	0.331761	0.823941
C384	C	1.391174	0.831761	1.323941
H385	H	0.873032	0.318676	0.777286
H386	H	1.373032	0.818676	1.277286
H387	H	0.857619	0.358182	0.842821
H388	H	1.357619	0.858182	1.342821
H389	H	0.939316	0.347323	0.817014
H390	H	1.439316	0.847323	1.317014
O391	O	0.543039	0.159518	0.223330
O392	O	1.043039	0.659518	0.723330
C393	C	0.559129	0.114758	0.237123
C394	C	1.059129	0.614758	0.737123
H395	H	0.577175	0.112544	0.287177
H396	H	1.077175	0.612544	0.787177
H397	H	0.516127	0.092554	0.231798
H398	H	1.016127	0.592554	0.731798
H399	H	0.597093	0.102983	0.203549
H400	H	1.097093	0.602983	0.703549
H401	H	0.978018	0.472362	0.229521
H402	H	1.478018	0.972362	0.729521
