data_functionalizedCrystal
_audit_creation_method	'MofGen! by Chris Wilmer'
_symmetry_space_group_name_H-M	'P1'
_symmetry_Int_Tables_number	1
_symmetry_cell_setting	triclinic
loop_
_symmetry_equiv_pos_as_xyz
  x,y,z
_cell_length_a	23.532407
_cell_length_b	23.532407
_cell_length_c	9.798715
_cell_angle_alpha	90.007792
_cell_angle_beta	89.998337
_cell_angle_gamma	82.848678
loop_
_atom_site_label
_atom_site_type_symbol
_atom_site_fract_x
_atom_site_fract_y
_atom_site_fract_z
O1	O	0.755259	0.069134	0.113334
O2	O	1.005259	0.319134	0.363334
O3	O	1.255259	0.569134	0.613334
O4	O	1.505259	0.819134	0.863334
O5	O	0.589396	0.079137	0.113376
O6	O	0.839396	0.329137	0.363376
O7	O	1.089396	0.579137	0.613376
O8	O	1.339396	0.829137	0.863376
O9	O	0.677329	-0.008797	0.113329
O10	O	0.927329	0.241203	0.363329
O11	O	1.177329	0.491203	0.613329
O12	O	1.427329	0.741203	0.863329
O13	O	0.667326	0.157067	0.113382
O14	O	0.917326	0.407067	0.363382
O15	O	1.167326	0.657067	0.613382
O16	O	1.417326	0.907067	0.863382
O17	O	0.677322	-0.008797	-0.113653
O18	O	0.927322	0.241203	0.136347
O19	O	1.177322	0.491203	0.386347
O20	O	1.427322	0.741203	0.636347
O21	O	0.589389	0.079137	-0.113606
O22	O	0.839389	0.329137	0.136394
O23	O	1.089389	0.579137	0.386394
O24	O	1.339389	0.829137	0.636394
O25	O	0.755252	0.069133	-0.113648
O26	O	1.005252	0.319133	0.136352
O27	O	1.255252	0.569133	0.386352
O28	O	1.505252	0.819133	0.636352
Zn29	Zn	0.672320	0.074135	-0.149665
Zn30	Zn	0.922320	0.324135	0.100335
Zn31	Zn	1.172320	0.574135	0.350335
Zn32	Zn	1.422320	0.824135	0.600335
Zn33	Zn	0.672328	0.074135	0.149394
Zn34	Zn	0.922328	0.324135	0.399394
Zn35	Zn	1.172328	0.574135	0.649394
Zn36	Zn	1.422328	0.824135	0.899394
O37	O	0.667319	0.157067	-0.113600
O38	O	0.917319	0.407067	0.136400
O39	O	1.167319	0.657067	0.386400
O40	O	1.417319	0.907067	0.636400
C41	C	0.568176	0.078882	-0.000110
C42	C	0.818176	0.328882	0.249890
C43	C	1.068176	0.578882	0.499890
C44	C	1.318176	0.828882	0.749890
C45	C	0.504959	0.078116	-0.000095
C46	C	0.754959	0.328116	0.249905
C47	C	1.004959	0.578116	0.499905
C48	C	1.254959	0.828116	0.749905
C49	C	0.105856	0.125350	-0.000142
C50	C	0.355856	0.375350	0.249858
C51	C	0.605856	0.625350	0.499858
C52	C	0.855856	0.875350	0.749858
C53	C	0.046456	0.124638	-0.000150
C54	C	0.296456	0.374638	0.249850
C55	C	0.546456	0.624638	0.499850
C56	C	0.796456	0.874638	0.749850
O57	O	0.009711	0.168424	-0.000186
O58	O	0.259711	0.418424	0.249814
O59	O	0.509711	0.668424	0.499814
O60	O	0.759711	0.918424	0.749814
N61	N	0.023830	0.072362	-0.000164
N62	N	0.273830	0.322362	0.249836
N63	N	0.523830	0.572362	0.499836
N64	N	0.773830	0.822362	0.749836
C65	C	0.060607	0.020794	-0.000184
C66	C	0.310607	0.270794	0.249816
C67	C	0.560607	0.520794	0.499816
C68	C	0.810607	0.770794	0.749816
O69	O	0.035908	-0.023737	-0.000198
O70	O	0.285908	0.226263	0.249802
O71	O	0.535908	0.476263	0.499802
O72	O	0.785908	0.726263	0.749802
C73	C	0.120006	0.021506	-0.000185
C74	C	0.370006	0.271506	0.249815
C75	C	0.620006	0.521506	0.499815
C76	C	0.870006	0.771506	0.749815
C77	C	0.142629	0.073785	-0.000157
C78	C	0.392629	0.323785	0.249843
C79	C	0.642629	0.573785	0.499843
C80	C	0.892629	0.823785	0.749843
C81	C	0.128479	0.177625	-0.000115
C82	C	0.378479	0.427625	0.249885
C83	C	0.628479	0.677625	0.499885
C84	C	0.878479	0.927625	0.749885
C85	C	0.187876	0.178336	-0.000104
C86	C	0.437876	0.428336	0.249896
C87	C	0.687876	0.678336	0.499896
C88	C	0.937876	0.928336	0.749896
C89	C	0.224649	0.126772	-0.000119
C90	C	0.474649	0.376772	0.249881
C91	C	0.724649	0.626772	0.499881
C92	C	0.974649	0.876772	0.749881
C93	C	0.202025	0.074497	-0.000146
C94	C	0.452025	0.324497	0.249854
C95	C	0.702025	0.574497	0.499854
C96	C	0.952025	0.824497	0.749854
C97	C	0.156783	-0.030062	-0.000215
C98	C	0.406783	0.219938	0.249785
C99	C	0.656783	0.469938	0.499785
C100	C	0.906783	0.719938	0.749785
C101	C	0.216185	-0.029345	-0.000217
C102	C	0.466185	0.220655	0.249783
C103	C	0.716185	0.470655	0.499783
C104	C	0.966185	0.720655	0.749783
C105	C	0.238808	0.022934	-0.000189
C106	C	0.488808	0.272934	0.249811
C107	C	0.738808	0.522934	0.499811
C108	C	0.988808	0.772934	0.749811
C109	C	0.298194	0.023643	-0.000150
C110	C	0.548194	0.273643	0.249850
C111	C	0.798194	0.523643	0.499850
C112	C	1.048194	0.773643	0.749850
N113	N	0.320820	0.075920	-0.000136
N114	N	0.570820	0.325920	0.249864
N115	N	0.820820	0.575920	0.499864
N116	N	1.070820	0.825920	0.749864
C117	C	0.284048	0.127484	-0.000121
C118	C	0.534048	0.377484	0.249879
C119	C	0.784048	0.627484	0.499879
C120	C	1.034048	0.877484	0.749879
C121	C	-0.064135	0.019302	-0.000184
C122	C	0.185865	0.269302	0.249816
C123	C	0.435865	0.519302	0.499816
C124	C	0.685865	0.769302	0.749816
C125	C	-0.123533	0.018589	-0.000173
C126	C	0.126467	0.268589	0.249827
C127	C	0.376467	0.518589	0.499827
C128	C	0.626467	0.768589	0.749827
C129	C	-0.137680	0.122434	-0.000142
C130	C	0.112320	0.372434	0.249858
C131	C	0.362320	0.622434	0.499858
C132	C	0.612320	0.872434	0.749858
C133	C	-0.078281	0.123146	-0.000143
C134	C	0.171719	0.373146	0.249857
C135	C	0.421719	0.623146	0.499857
C136	C	0.671719	0.873146	0.749857
C137	C	-0.041509	0.071578	-0.000170
C138	C	0.208491	0.321578	0.249830
C139	C	0.458491	0.571578	0.499830
C140	C	0.708491	0.821578	0.749830
C141	C	0.408784	0.128974	-0.000096
C142	C	0.658784	0.378974	0.249904
C143	C	0.908784	0.628974	0.499904
C144	C	1.158784	0.878974	0.749904
C145	C	0.468186	0.129680	-0.000079
C146	C	0.718186	0.379680	0.249921
C147	C	0.968186	0.629680	0.499921
C148	C	1.218186	0.879680	0.749921
C149	C	0.482329	0.025836	-0.000118
C150	C	0.732329	0.275836	0.249882
C151	C	0.982329	0.525836	0.499882
C152	C	1.232329	0.775836	0.749882
C153	C	0.422932	0.025129	-0.000127
C154	C	0.672932	0.275129	0.249873
C155	C	0.922932	0.525129	0.499873
C156	C	1.172932	0.775129	0.749873
C157	C	0.386160	0.076702	-0.000121
C158	C	0.636160	0.326702	0.249879
C159	C	0.886160	0.576702	0.499879
C160	C	1.136160	0.826702	0.749879
O161	O	0.334974	-0.020119	-0.000120
O162	O	0.584974	0.229881	0.249880
O163	O	0.834974	0.479881	0.499880
O164	O	1.084974	0.729881	0.749880
O165	O	0.308755	0.172007	-0.000124
O166	O	0.558755	0.422007	0.249876
O167	O	0.808755	0.672007	0.499876
O168	O	1.058755	0.922007	0.749876
C169	C	0.677071	-0.030013	-0.000165
C170	C	0.927071	0.219987	0.249835
C171	C	1.177071	0.469987	0.499835
C172	C	1.427071	0.719987	0.749835
C173	C	0.676305	-0.093230	-0.000176
C174	C	0.926305	0.156770	0.249824
C175	C	1.176305	0.406770	0.499824
C176	C	1.426305	0.656770	0.749824
C177	C	0.723539	-0.492333	-0.000113
C178	C	0.973539	-0.242333	0.249887
C179	C	1.223539	0.007667	0.499887
C180	C	1.473539	0.257667	0.749887
C181	C	0.722827	-0.551733	-0.000102
C182	C	0.972827	-0.301733	0.249898
C183	C	1.222827	-0.051733	0.499898
C184	C	1.472827	0.198267	0.749898
O185	O	0.766613	-0.588478	-0.000063
O186	O	1.016613	-0.338478	0.249937
O187	O	1.266613	-0.088478	0.499937
O188	O	1.516613	0.161522	0.749937
N189	N	0.670551	-0.574359	-0.000090
N190	N	0.920551	-0.324359	0.249910
N191	N	1.170551	-0.074359	0.499910
N192	N	1.420551	0.175641	0.749910
C193	C	0.618983	-0.537582	-0.000074
C194	C	0.868983	-0.287582	0.249926
C195	C	1.118983	-0.037582	0.499926
C196	C	1.368983	0.212418	0.749926
O197	O	0.574452	-0.562281	-0.000062
O198	O	0.824452	-0.312281	0.249938
O199	O	1.074452	-0.062281	0.499938
O200	O	1.324452	0.187719	0.749938
C201	C	0.619695	-0.478182	-0.000075
C202	C	0.869695	-0.228182	0.249925
C203	C	1.119695	0.021818	0.499925
C204	C	1.369695	0.271818	0.749925
C205	C	0.671974	-0.455560	-0.000101
C206	C	0.921974	-0.205560	0.249899
C207	C	1.171974	0.044440	0.499899
C208	C	1.421974	0.294440	0.749899
C209	C	0.775814	-0.469710	-0.000137
C210	C	1.025814	-0.219710	0.249863
C211	C	1.275814	0.030290	0.499863
C212	C	1.525814	0.280290	0.749863
C213	C	0.776525	-0.410313	-0.000150
C214	C	1.026525	-0.160313	0.249850
C215	C	1.276525	0.089687	0.499850
C216	C	1.526525	0.339687	0.749850
C217	C	0.724961	-0.373540	-0.000139
C218	C	0.974961	-0.123540	0.249861
C219	C	1.224961	0.126460	0.499861
C220	C	1.474961	0.376460	0.749861
C221	C	0.672685	-0.396164	-0.000114
C222	C	0.922685	-0.146164	0.249886
C223	C	1.172685	0.103836	0.499886
C224	C	1.422685	0.353836	0.749886
C225	C	0.568127	-0.441406	-0.000050
C226	C	0.818127	-0.191406	0.249950
C227	C	1.068127	0.058594	0.499950
C228	C	1.318127	0.308594	0.749950
C229	C	0.568844	-0.382004	-0.000050
C230	C	0.818844	-0.132004	0.249950
C231	C	1.068844	0.117996	0.499950
C232	C	1.318844	0.367996	0.749950
C233	C	0.621123	-0.359381	-0.000076
C234	C	0.871123	-0.109381	0.249924
C235	C	1.121123	0.140619	0.499924
C236	C	1.371123	0.390619	0.749924
C237	C	0.621832	-0.299995	-0.000116
C238	C	0.871832	-0.049995	0.249884
C239	C	1.121832	0.200005	0.499884
C240	C	1.371832	0.450005	0.749884
N241	N	0.674109	-0.277368	-0.000128
N242	N	0.924109	-0.027368	0.249872
N243	N	1.174109	0.222632	0.499872
N244	N	1.424109	0.472632	0.749872
C245	C	0.725673	-0.314141	-0.000140
C246	C	0.975673	-0.064141	0.249860
C247	C	1.225673	0.185859	0.499860
C248	C	1.475673	0.435859	0.749860
C249	C	0.617491	-0.662324	-0.000070
C250	C	0.867491	-0.412324	0.249930
C251	C	1.117491	-0.162324	0.499930
C252	C	1.367491	0.087676	0.749930
C253	C	0.616778	-0.721722	-0.000079
C254	C	0.866778	-0.471722	0.249921
C255	C	1.116778	-0.221722	0.499921
C256	C	1.366778	0.028278	0.749921
C257	C	0.720623	-0.735869	-0.000105
C258	C	0.970623	-0.485869	0.249895
C259	C	1.220623	-0.235869	0.499895
C260	C	1.470623	0.014131	0.749895
C261	C	0.721335	-0.676470	-0.000105
C262	C	0.971335	-0.426470	0.249895
C263	C	1.221335	-0.176470	0.499895
C264	C	1.471335	0.073530	0.749895
C265	C	0.669767	-0.639698	-0.000083
C266	C	0.919767	-0.389698	0.249917
C267	C	1.169767	-0.139698	0.499917
C268	C	1.419767	0.110302	0.749917
C269	C	0.727163	-0.189405	-0.000168
C270	C	0.977163	0.060595	0.249832
C271	C	1.227163	0.310595	0.499832
C272	C	1.477163	0.560595	0.749832
C273	C	0.727869	-0.130003	-0.000187
C274	C	0.977869	0.119997	0.249813
C275	C	1.227869	0.369997	0.499813
C276	C	1.477869	0.619997	0.749813
C277	C	0.624025	-0.115860	-0.000155
C278	C	0.874025	0.134140	0.249845
C279	C	1.124025	0.384140	0.499845
C280	C	1.374025	0.634140	0.749845
C281	C	0.623318	-0.175257	-0.000143
C282	C	0.873318	0.074743	0.249857
C283	C	1.123318	0.324743	0.499857
C284	C	1.373318	0.574743	0.749857
C285	C	0.674891	-0.212029	-0.000145
C286	C	0.924891	0.037971	0.249855
C287	C	1.174891	0.287971	0.499855
C288	C	1.424891	0.537971	0.749855
O289	O	0.578070	-0.263215	-0.000150
O290	O	0.828070	-0.013215	0.249850
O291	O	1.078070	0.236785	0.499850
O292	O	1.328070	0.486785	0.749850
O293	O	0.770196	-0.289433	-0.000134
O294	O	1.020196	-0.039433	0.249866
O295	O	1.270196	0.210567	0.499866
O296	O	1.520196	0.460567	0.749866
C297	C	0.776472	0.069388	-0.000159
C298	C	1.026472	0.319388	0.249841
C299	C	1.276472	0.569388	0.499841
C300	C	1.526472	0.819388	0.749841
C301	C	0.839689	0.070154	-0.000165
C302	C	1.089689	0.320154	0.249835
C303	C	1.339689	0.570154	0.499835
C304	C	1.589689	0.820154	0.749835
C305	C	0.667577	0.178283	-0.000103
C306	C	0.917577	0.428283	0.249897
C307	C	1.167577	0.678283	0.499897
C308	C	1.417577	0.928283	0.749897
C309	C	0.668343	0.241500	-0.000084
C310	C	0.918343	0.491500	0.249916
C311	C	1.168343	0.741500	0.499916
C312	C	1.418343	0.991500	0.749916
N313	N	0.672318	0.074134	-0.353765
N314	N	0.922318	0.324134	-0.103765
N315	N	1.172318	0.574134	0.146235
N316	N	1.422318	0.824134	0.396235
C317	C	0.709241	0.037053	-0.421562
C318	C	0.959241	0.287053	-0.171562
C319	C	1.209241	0.537053	0.078438
C320	C	1.459241	0.787053	0.328438
C321	C	0.709250	0.037051	-0.578724
C322	C	0.959250	0.287051	-0.328724
C323	C	1.209250	0.537051	-0.078724
C324	C	1.459250	0.787051	0.171276
N325	N	0.672335	0.074131	0.353493
N326	N	0.922335	0.324131	0.603493
N327	N	1.172335	0.574131	0.853493
N328	N	1.422335	0.824131	1.103493
H329	H	0.486602	0.172255	-0.000055
H330	H	0.736602	0.422255	0.249945
H331	H	0.986602	0.672255	0.499945
H332	H	1.236602	0.922255	0.749945
H333	H	-0.059867	0.165717	-0.000128
H334	H	0.190133	0.415717	0.249872
H335	H	0.440133	0.665717	0.499872
H336	H	0.690133	0.915717	0.749872
F337	F	0.631016	0.115632	-0.570313
F338	F	0.881016	0.365632	-0.320313
F339	F	1.131016	0.615632	-0.070313
F340	F	1.381016	0.865632	0.179687
H341	H	0.580748	-0.193677	-0.000160
H342	H	0.830748	0.056323	0.249840
H343	H	1.080748	0.306323	0.499840
H344	H	1.330748	0.556323	0.749840
H345	H	0.819097	-0.391900	-0.000166
H346	H	1.069097	-0.141900	0.249834
H347	H	1.319097	0.108100	0.499834
H348	H	1.569097	0.358100	0.749834
F349	F	0.775503	-0.775016	-0.000110
F350	F	1.025503	-0.525016	0.249890
F351	F	1.275503	-0.275016	0.499890
F352	F	1.525503	-0.025016	0.749890
F353	F	0.631005	0.115626	-0.429971
F354	F	0.881005	0.365626	-0.179971
F355	F	1.131005	0.615626	0.070029
F356	F	1.381005	0.865626	0.320029
H357	H	0.740844	0.005306	-0.363256
H358	H	0.990844	0.255306	-0.113256
H359	H	1.240844	0.505306	0.136744
H360	H	1.490844	0.755306	0.386744
H361	H	0.582043	-0.085909	-0.000150
H362	H	0.832043	0.164091	0.249850
H363	H	1.082043	0.414091	0.499850
H364	H	1.332043	0.664091	0.749850
H365	H	0.378851	0.170970	-0.000095
H366	H	0.628851	0.420970	0.249905
H367	H	0.878851	0.670970	0.499905
H368	H	1.128851	0.920970	0.749905
F369	F	0.089351	0.232512	-0.000098
F370	F	0.339351	0.482512	0.249902
F371	F	0.589351	0.732512	0.499902
F372	F	0.839351	0.982512	0.749902
F373	F	0.211944	0.233980	-0.000080
F374	F	0.461944	0.483980	0.249920
F375	F	0.711944	0.733980	0.499920
F376	F	0.961944	0.983980	0.749920
H377	H	0.770443	-0.111587	-0.000212
H378	H	1.020443	0.138413	0.249788
H379	H	1.270443	0.388413	0.499788
H380	H	1.520443	0.638413	0.749788
H381	H	-0.167632	0.164421	-0.000135
H382	H	0.082368	0.414421	0.249865
H383	H	0.332368	0.664421	0.499865
H384	H	0.582368	0.914421	0.749865
H385	H	-0.141947	-0.023982	-0.000174
H386	H	0.108053	0.226018	0.249826
H387	H	0.358053	0.476018	0.499826
H388	H	0.608053	0.726018	0.749826
H389	H	-0.034198	-0.022693	-0.000194
H390	H	0.215802	0.227307	0.249806
H391	H	0.465802	0.477307	0.499806
H392	H	0.715802	0.727307	0.749806
F393	F	0.830701	-0.508838	-0.000149
F394	F	1.080701	-0.258838	0.249851
F395	F	1.330701	-0.008838	0.499851
F396	F	1.580701	0.241162	0.749851
F397	F	0.132720	-0.085706	-0.000225
F398	F	0.382720	0.164294	0.249775
F399	F	0.632720	0.414294	0.499775
F400	F	0.882720	0.664294	0.749775
H401	H	0.246123	-0.071339	-0.000240
H402	H	0.496123	0.178661	0.249760
H403	H	0.746123	0.428661	0.499760
H404	H	0.996123	0.678661	0.749760
F405	F	0.398854	-0.030513	-0.000158
F406	F	0.648854	0.219487	0.249842
F407	F	0.898854	0.469487	0.499842
F408	F	1.148854	0.719487	0.749842
H409	H	0.740864	0.005306	-0.637026
H410	H	0.990864	0.255306	-0.387026
H411	H	1.240864	0.505306	-0.137026
H412	H	1.490864	0.755306	0.112974
F413	F	0.521475	-0.029040	-0.000136
F414	F	0.771475	0.220960	0.249864
F415	F	1.021475	0.470960	0.499864
F416	F	1.271475	0.720960	0.749864
H417	H	0.574207	-0.740136	-0.000082
H418	H	0.824207	-0.490136	0.249918
H419	H	1.074207	-0.240136	0.499918
H420	H	1.324207	0.009864	0.749918
F421	F	0.782053	-0.228531	-0.000170
F422	F	1.032053	0.021469	0.249830
F423	F	1.282053	0.271469	0.499830
F424	F	1.532053	0.521469	0.749830
F425	F	0.776978	-0.652399	-0.000133
F426	F	1.026978	-0.402399	0.249867
F427	F	1.276978	-0.152399	0.499867
F428	F	1.526978	0.097601	0.749867
F429	F	0.562602	-0.623192	-0.000059
F430	F	0.812602	-0.373192	0.249941
F431	F	1.062602	-0.123192	0.499941
F432	F	1.312602	0.126808	0.749941
H433	H	0.525555	-0.459814	-0.000020
H434	H	0.775555	-0.209814	0.249980
H435	H	1.025555	0.040186	0.499980
H436	H	1.275555	0.290186	0.749980
H437	H	0.526850	-0.352066	-0.000029
H438	H	0.776850	-0.102066	0.249971
H439	H	1.026850	0.147934	0.499971
H440	H	1.276850	0.397934	0.749971
