data_functionalizedCrystal
_audit_creation_method	'MofGen! by Chris Wilmer'
_symmetry_space_group_name_H-M	'P1'
_symmetry_Int_Tables_number	1
_symmetry_cell_setting	triclinic
loop_
_symmetry_equiv_pos_as_xyz
  x,y,z
_cell_length_a	19.188930
_cell_length_b	13.339070
_cell_length_c	11.804365
_cell_angle_alpha	74.887832
_cell_angle_beta	101.820921
_cell_angle_gamma	99.387037
loop_
_atom_site_label
_atom_site_type_symbol
_atom_site_fract_x
_atom_site_fract_y
_atom_site_fract_z
O1	O	-0.961036	-0.105636	-0.099421
O2	O	-0.761044	-0.122640	-0.099340
O3	O	-0.838087	0.033021	-0.099367
O4	O	-0.883993	-0.261298	-0.099393
O5	O	-0.817796	-0.007917	0.098696
O6	O	-0.740753	-0.163579	0.098723
O7	O	-0.940746	-0.146575	0.098643
Cu8	Cu	-0.838897	-0.158815	0.116768
Cu9	Cu	-0.862893	-0.110400	-0.117465
O10	O	-0.863703	-0.302236	0.098670
C11	C	-0.820187	0.050206	-0.000334
C12	C	-0.797074	0.162405	-0.000330
C13	C	-0.724778	-0.142561	-0.000298
C14	C	-0.646947	-0.140917	-0.000266
C15	C	-0.977011	-0.126653	-0.000402
C16	C	-1.054843	-0.128296	-0.000441
C17	C	-0.619912	-0.232245	-0.000293
C18	C	-0.546786	-0.230691	-0.000306
C19	C	-0.500699	-0.137798	-0.000316
C20	C	-0.527742	-0.046460	-0.000283
C21	C	-0.600865	-0.048019	-0.000258
N22	N	-0.385725	-0.052854	-0.067767
N23	N	-0.316261	-0.051378	-0.067794
C24	C	-0.280380	-0.133096	-0.000389
N25	N	-0.316591	-0.216357	0.067029
N26	N	-0.386062	-0.217834	0.067050
C27	C	-0.421408	-0.136098	-0.000342
C28	C	-0.174054	-0.222745	-0.000428
C29	C	-0.100925	-0.221189	-0.000433
C30	C	-0.081883	-0.036953	-0.000422
C31	C	-0.155009	-0.038514	-0.000404
C32	C	-0.201091	-0.131412	-0.000413
C33	C	-0.881602	-0.319421	-0.000366
C34	C	-0.904716	-0.431618	-0.000378
N35	N	-0.822024	-0.192866	0.281514
C36	C	-0.976795	0.528008	-0.000402
C37	C	-0.998512	0.422591	-0.000399
C38	C	-0.948155	0.357539	-0.000382
C39	C	-0.876076	0.397915	-0.000367
C40	C	-0.854355	0.503341	-0.000360
C41	C	-0.825715	0.332872	-0.000341
C42	C	-0.753636	0.373248	-0.000325
C43	C	-0.731919	0.478663	-0.000319
C44	C	-0.782276	0.543715	-0.000336
C45	C	-0.847436	0.227447	-0.000348
C46	C	-0.724996	0.202779	-0.000306
C47	C	-0.703278	0.308196	-0.000308
N48	N	-0.879769	-0.076341	-0.282212
C49	C	-0.920282	0.005449	0.655428
C50	C	-0.933045	0.031213	0.530762
C51	C	-0.905290	-0.024804	0.468444
C52	C	-0.864772	-0.106591	0.530804
C53	C	-0.852013	-0.132363	0.655483
C54	C	-0.837021	-0.162616	0.468498
C55	C	-0.796503	-0.244403	0.530859
C56	C	-0.783746	-0.270170	0.655525
C57	C	-0.811500	-0.214153	0.717843
C58	C	-0.849780	-0.136844	0.343820
C59	C	-0.781511	-0.274656	0.343875
C60	C	-0.768749	-0.300420	0.468541
H61	H	-0.657428	-0.307889	-0.000302
F62	F	-0.725627	-0.387462	0.534923
H63	H	-0.044368	0.038697	-0.000504
F64	F	-0.518006	-0.327899	-0.000331
F65	F	-1.030378	0.597241	-0.000401
H66	H	-0.882770	-0.070254	0.293057
F67	F	-0.918873	0.002619	0.335762
F68	F	-0.183784	0.058692	-0.000382
F69	F	-0.478692	0.052402	-0.000288
F70	F	-0.924145	0.184488	-0.000363
H71	H	-0.758913	-0.320272	0.293136
F72	F	-0.759177	0.655937	-0.000451
H73	H	-0.942881	0.051046	0.706175
F74	F	-0.655204	0.521628	-0.000288
H75	H	-0.644590	0.341085	-0.000295
H76	H	-0.683989	0.149813	-0.000286
F77	F	-0.971271	0.245346	-0.000384
H78	H	-0.211574	-0.298392	-0.000417
F79	F	-0.072153	-0.318400	-0.000455
F80	F	-0.976166	0.118251	0.464397
H81	H	-0.622876	0.026354	-0.000237
F82	F	-1.075223	0.379632	-0.000435
F83	F	-0.797914	-0.241569	0.850529
F84	F	-0.740632	-0.357224	0.721894
