data_functionalizedCrystal
_audit_creation_method	'MofGen! by Chris Wilmer'
_symmetry_space_group_name_H-M	'P1'
_symmetry_Int_Tables_number	1
_symmetry_cell_setting	triclinic
loop_
_symmetry_equiv_pos_as_xyz
  x,y,z
_cell_length_a	19.805407
_cell_length_b	19.121063
_cell_length_c	19.805399
_cell_angle_alpha	87.588895
_cell_angle_beta	90.019573
_cell_angle_gamma	92.469032
loop_
_atom_site_label
_atom_site_type_symbol
_atom_site_fract_x
_atom_site_fract_y
_atom_site_fract_z
Zn1	Zn	1.023234	-0.279631	0.394203
Zn2	Zn	1.018317	-0.397083	0.285838
Zn3	Zn	0.910048	-0.279650	0.281028
Zn4	Zn	0.905182	-0.397046	0.398983
O5	O	0.964195	-0.338352	0.340013
O6	O	1.117298	-0.295218	0.379840
O7	O	1.003934	-0.381529	0.190484
O8	O	0.929156	-0.181363	0.292028
O9	O	1.113686	-0.381510	0.300225
O10	O	1.012313	-0.181348	0.375177
O11	O	0.924388	-0.295251	0.186951
O12	O	0.814686	-0.295215	0.296663
O13	O	0.920863	-0.381447	0.493065
O14	O	0.811111	-0.381465	0.383324
O15	O	1.007595	-0.295182	0.489553
O16	O	0.999216	-0.495363	0.304860
O17	O	0.916096	-0.495335	0.387987
C18	C	0.788340	-0.338339	0.339991
C19	C	0.713107	-0.338350	0.339998
C20	C	0.956613	-0.520833	0.347479
C21	C	0.953431	-0.598899	0.350696
C22	C	0.675917	-0.383328	0.385055
C23	C	0.605228	-0.383329	0.385064
C24	C	0.571732	-0.338356	0.340013
C25	C	0.608927	-0.293373	0.294954
C26	C	0.679614	-0.293368	0.294948
C27	C	0.323853	-0.293388	0.294977
C28	C	0.253161	-0.293397	0.294985
C29	C	0.249467	-0.383349	0.385093
C30	C	0.320154	-0.383345	0.385087
C31	C	0.357344	-0.338360	0.340031
C32	C	0.433992	-0.338358	0.340022
C33	C	0.495084	-0.338360	0.340018
C34	C	0.995246	-0.635566	0.308963
C35	C	0.992258	-0.708917	0.311992
C36	C	0.947451	-0.745601	0.356752
C37	C	0.905634	-0.708929	0.398489
C38	C	0.908626	-0.635579	0.395463
C39	C	0.936252	-0.967071	0.368056
C40	C	0.933262	-1.040426	0.371078
C41	C	1.019887	-1.040409	0.284581
C42	C	1.022872	-0.967058	0.281556
C43	C	0.981058	-0.930393	0.323296
C44	C	0.944394	-0.820578	0.359848
C45	C	0.984119	-0.855417	0.320203
C46	C	1.140737	-0.338366	0.340036
C47	C	1.215969	-0.338372	0.340046
C48	C	0.964235	-0.338308	0.516554
C49	C	0.964252	-0.338289	0.591785
C50	C	0.971825	-0.155159	0.332532
C51	C	0.975077	-0.077093	0.329345
C52	C	0.964197	-0.338346	0.164157
C53	C	0.964319	-0.338167	0.088918
C54	C	1.009414	-0.293369	0.625302
C55	C	1.009422	-0.293349	0.695989
C56	C	0.964270	-0.338253	0.733159
C57	C	0.919103	-0.383175	0.699638
C58	C	0.919093	-0.383191	0.628952
C59	C	0.919144	-0.383109	0.984709
C60	C	0.919159	-0.383091	1.055400
C61	C	1.009474	-0.293267	1.051747
C62	C	1.009463	-0.293283	0.981060
C63	C	0.964294	-0.338202	0.947545
C64	C	0.964285	-0.338223	0.870897
C65	C	0.964282	-0.338236	0.809806
H66	H	0.703185	-0.419953	0.421739
F67	F	0.719195	-0.245495	0.246994
F68	F	0.871071	-0.430916	0.949048
H69	H	0.907910	-0.850454	0.396289
F70	F	0.217513	-0.245527	0.247033
F71	F	1.057475	-0.245579	0.585749
H72	H	0.581649	-0.256751	0.258275
H73	H	1.046199	-0.256772	0.723275
H74	H	0.882337	-0.419734	0.729907
H75	H	0.874577	-0.605726	0.429447
H76	H	0.902204	-0.937224	0.402041
H77	H	0.896783	-1.070292	0.407538
H78	H	1.026308	-0.738768	0.278008
F79	F	0.871023	-0.430999	0.593281
F80	F	1.057522	-0.245493	0.941505
F81	F	0.565651	-0.431201	0.433021
F82	F	0.363424	-0.245509	0.247025
H83	H	1.046250	-0.256689	1.079043
H84	H	1.059358	-0.937192	0.245110
F85	F	1.042933	-0.596531	0.261320
F86	F	1.064388	-1.079436	0.240165
F87	F	0.871100	-0.430886	1.094958
H88	H	0.347424	-0.419970	0.421771
H89	H	0.219179	-0.419976	0.421783
H90	H	0.869154	-0.738803	0.434936
F91	F	1.031808	-0.816374	0.272571
