data_functionalizedCrystal
_audit_creation_method	'MofGen! by Chris Wilmer'
_symmetry_space_group_name_H-M	'P1'
_symmetry_Int_Tables_number	1
_symmetry_cell_setting	triclinic
loop_
_symmetry_equiv_pos_as_xyz
  x,y,z
_cell_length_a	10.654550
_cell_length_b	10.540539
_cell_length_c	9.730223
_cell_angle_alpha	90.000775
_cell_angle_beta	89.996251
_cell_angle_gamma	84.505197
loop_
_atom_site_label
_atom_site_type_symbol
_atom_site_fract_x
_atom_site_fract_y
_atom_site_fract_z
O1	O	1.667897	0.178295	-0.114396
O2	O	1.302424	0.195282	-0.114373
O3	O	1.493499	0.002079	-0.114383
O4	O	1.476822	0.371498	-0.114386
O5	O	1.493496	0.002084	0.114197
O6	O	1.302422	0.195287	0.114207
O7	O	1.667895	0.178300	0.114184
Zn8	Zn	1.485158	0.186794	0.150487
Zn9	Zn	1.485161	0.186788	-0.150677
O10	O	1.476820	0.371503	0.114194
C11	C	1.255625	0.194038	-0.000080
C12	C	1.116180	0.190306	-0.000072
C13	C	1.492247	-0.045221	-0.000096
C14	C	1.488505	-0.186168	-0.000103
C15	C	1.036734	0.304061	-0.000093
C16	C	0.905712	0.300547	-0.000116
C17	C	0.933595	0.069513	-0.000104
C18	C	1.064614	0.073028	-0.000071
C19	C	1.020636	0.437446	-0.000106
C20	C	0.889614	0.433932	-0.000129
C21	C	1.345134	-0.369543	-0.000607
C22	C	1.348927	-0.222926	-0.000093
C23	C	1.555675	-0.247847	0.130423
C24	C	1.550912	-0.394389	0.130533
C25	C	1.553753	-0.394914	-0.129405
C26	C	1.555039	-0.247933	-0.131131
C27	C	1.714694	0.179545	-0.000112
C28	C	1.854139	0.183276	-0.000129
C29	C	1.478072	0.418803	-0.000096
C30	C	1.481813	0.559750	-0.000098
N31	N	1.485165	0.186798	0.356024
N32	N	1.485164	0.186774	-0.356213
C33	C	1.569795	0.101277	0.427945
C34	C	1.569791	0.101261	0.571828
C35	C	1.400525	0.272299	0.571855
C36	C	1.400523	0.272308	0.427975
C37	C	1.667523	0.002533	0.427931
C38	C	1.667520	0.002518	0.571814
H39	H	1.129295	-0.019602	-0.000034
N40	N	1.795360	0.031341	0.623544
H41	H	1.795409	0.031338	0.727344
H42	H	1.861802	-0.035812	0.588864
N43	N	1.309233	0.364521	0.649460
H44	H	1.322071	0.351537	0.751522
H45	H	1.324537	0.454719	0.624322
N46	N	1.691458	-0.218307	0.136808
H47	H	1.694930	-0.122963	0.140955
H48	H	1.732728	-0.258967	0.221495
H49	H	0.891593	-0.025971	-0.000125
H50	H	1.501268	-0.422569	0.228111
H51	H	1.656802	-0.223748	-0.139019
N52	N	1.272085	-0.407399	-0.124585
H53	H	1.326876	-0.470755	-0.181627
H54	H	1.194522	-0.447403	-0.093317
N55	N	0.834352	0.500473	-0.126861
H56	H	0.739827	0.497966	-0.126928
H57	H	0.854975	0.592020	-0.126849
H58	H	1.651295	-0.442394	0.136449
H59	H	1.508579	-0.426453	-0.228336
H60	H	1.056307	0.479916	-0.098793
H61	H	1.509014	-0.205228	0.227563
H62	H	1.296074	-0.180306	-0.093659
N63	N	1.639080	-0.126707	0.376185
H64	H	1.626378	-0.184386	0.456873
H65	H	1.559946	-0.117116	0.318487
H66	H	1.290221	-0.399729	0.092477
N67	N	1.309231	0.364547	0.350417
H68	H	1.357709	0.421220	0.290720
H69	H	1.253215	0.315421	0.290803
N70	N	1.788314	0.043484	0.368793
H71	H	1.846680	0.063263	0.446046
H72	H	1.830388	-0.027496	0.310332
H73	H	1.295701	-0.181149	0.093636
H74	H	1.505891	-0.207059	-0.227690
H75	H	1.049984	0.489615	0.095560
N76	N	1.627096	-0.119631	0.630921
H77	H	1.538832	-0.131592	0.598899
H78	H	1.686885	-0.193869	0.598850
N79	N	0.829120	0.487315	0.130586
H80	H	0.896258	0.515697	0.193761
H81	H	0.766644	0.562531	0.107744
H82	H	1.654570	-0.442176	-0.130289
