data_functionalizedCrystal
_audit_creation_method	'MofGen! by Chris Wilmer'
_symmetry_space_group_name_H-M	'P1'
_symmetry_Int_Tables_number	1
_symmetry_cell_setting	triclinic
loop_
_symmetry_equiv_pos_as_xyz
  x,y,z
_cell_length_a	25.639243
_cell_length_b	21.395361
_cell_length_c	21.395355
_cell_angle_alpha	90.021511
_cell_angle_beta	90.027109
_cell_angle_gamma	90.033432
loop_
_atom_site_label
_atom_site_type_symbol
_atom_site_fract_x
_atom_site_fract_y
_atom_site_fract_z
Zn1	Zn	0.799312	-0.249466	0.354291
Zn2	Zn	1.132645	0.083868	0.687624
Zn3	Zn	1.465978	0.417201	1.020958
Zn4	Zn	0.799230	-0.354225	0.249508
Zn5	Zn	1.132564	-0.020892	0.582841
Zn6	Zn	1.465897	0.312441	0.916175
Zn7	Zn	0.711871	-0.249471	0.249523
Zn8	Zn	1.045204	0.083863	0.582856
Zn9	Zn	1.378538	0.417196	0.916190
Zn10	Zn	0.711845	-0.354214	0.354244
Zn11	Zn	1.045178	-0.020881	0.687577
Zn12	Zn	1.378512	0.312452	1.020910
O13	O	0.755564	-0.301844	0.301892
O14	O	1.088898	0.031489	0.635225
O15	O	1.422231	0.364823	0.968558
O16	O	0.872466	-0.263365	0.340405
O17	O	1.205799	0.069969	0.673738
O18	O	1.539133	0.403302	1.007072
O19	O	0.787619	-0.340336	0.161832
O20	O	1.120952	-0.007003	0.495166
O21	O	1.454285	0.326330	0.828499
O22	O	0.723515	-0.161792	0.263447
O23	O	1.056848	0.171541	0.596780
O24	O	1.390182	0.504875	0.930114
O25	O	0.872406	-0.340331	0.263421
O26	O	1.205740	-0.006998	0.596755
O27	O	1.539073	0.326335	0.930088
O28	O	0.787757	-0.161788	0.340420
O29	O	1.121091	0.171545	0.673753
O30	O	1.454424	0.504878	1.007086
O31	O	0.723436	-0.263373	0.161843
O32	O	1.056769	0.069960	0.495177
O33	O	1.390103	0.403293	0.828510
O34	O	0.638702	-0.263363	0.263401
O35	O	0.972036	0.069971	0.596734
O36	O	1.305369	0.403304	0.930068
O37	O	0.723471	-0.340312	0.441928
O38	O	1.056804	-0.006979	0.775261
O39	O	1.390138	0.326354	1.108595
O40	O	0.638683	-0.340317	0.340339
O41	O	0.972017	-0.006984	0.673672
O42	O	1.305350	0.326349	1.007005
O43	O	0.787732	-0.263354	0.441963
O44	O	1.121066	0.069979	0.775296
O45	O	1.454399	0.403313	1.108629
O46	O	0.787594	-0.441902	0.263375
O47	O	1.120927	-0.108568	0.596709
O48	O	1.454260	0.224765	0.930042
O49	O	0.723392	-0.441894	0.340324
O50	O	1.056725	-0.108560	0.673657
O51	O	1.390059	0.224773	1.006991
C52	C	0.755495	-0.464632	0.301857
C53	C	1.088829	-0.131298	0.635190
C54	C	1.422162	0.202035	0.968523
C55	C	0.755514	-0.534273	0.301863
C56	C	1.088847	-0.200940	0.635196
C57	C	1.422180	0.132394	0.968529
C58	C	0.619722	-0.301840	0.301867
C59	C	0.953055	0.031494	0.635200
C60	C	1.286389	0.364827	0.968533
C61	C	0.561608	-0.301853	0.301871
C62	C	0.894941	0.031480	0.635204
C63	C	1.228275	0.364814	0.968538
C64	C	0.788973	-0.566969	0.261837
C65	C	1.122306	-0.233636	0.595170
C66	C	1.455640	0.099697	0.928503
C67	C	0.788997	-0.632405	0.261851
C68	C	1.122331	-0.299071	0.595184
C69	C	1.455664	0.034262	0.928517
C70	C	0.755553	-0.665141	0.301884
C71	C	1.088886	-0.331808	0.635217
C72	C	1.422220	0.001526	0.968551
C73	C	0.722091	-0.632437	0.341918
C74	C	1.055425	-0.299103	0.675251
C75	C	1.388758	0.034230	1.008585
C76	C	0.722072	-0.567003	0.341907
C77	C	1.055405	-0.233669	0.675241
C78	C	1.388738	0.099664	1.008574
C79	C	0.708476	-0.768859	0.306792
C80	C	1.041810	-0.435526	0.640125
C81	C	1.375143	-0.102192	0.973458
C82	C	0.708495	-0.834292	0.306798
C83	C	1.041828	-0.500959	0.640131
C84	C	1.375162	-0.167625	0.973465
C85	C	0.755614	-0.866962	0.301921
C86	C	1.088947	-0.533629	0.635254
C87	C	1.422281	-0.200295	0.968588
C88	C	0.802716	-0.834191	0.297024
C89	C	1.136049	-0.500857	0.630358
C90	C	1.469382	-0.167524	0.963691
C91	C	0.802696	-0.768757	0.297014
C92	C	1.136029	-0.435423	0.630347
C93	C	1.469363	-0.102090	0.963680
C94	C	0.755571	-0.736094	0.301901
C95	C	1.088904	-0.402760	0.635234
C96	C	1.422238	-0.069427	0.968567
C97	C	0.789102	-0.970611	0.261908
C98	C	1.122436	-0.637278	0.595241
C99	C	1.455769	-0.303944	0.928574
C100	C	0.789128	-1.036048	0.261926
C101	C	1.122461	-0.702714	0.595260
C102	C	1.455794	-0.369381	0.928593
C103	C	0.722217	-1.036078	0.341991
C104	C	1.055550	-0.702745	0.675324
C105	C	1.388884	-0.369411	1.008657
C106	C	0.722196	-0.970643	0.341975
C107	C	1.055530	-0.637309	0.675309
C108	C	1.388863	-0.303976	1.008642
C109	C	0.755638	-0.937913	0.301931
C110	C	1.088972	-0.604580	0.635264
C111	C	1.422305	-0.271246	0.968597
C112	C	0.201270	-0.261830	0.342044
C113	C	0.534604	0.071503	0.675377
C114	C	0.867937	0.404836	1.008710
C115	C	0.146666	-0.261830	0.342048
C116	C	0.479999	0.071503	0.675381
C117	C	0.813333	0.404837	1.008714
O118	O	0.118451	-0.227790	0.376173
O119	O	0.451784	0.105544	0.709506
O120	O	0.785118	0.438877	1.042840
N121	N	0.119325	-0.301842	0.301909
N122	N	0.452659	0.031491	0.635242
N123	N	0.785992	0.364825	0.968575
C124	C	0.146592	-0.341853	0.261759
C125	C	0.479925	-0.008520	0.595092
C126	C	0.813259	0.324814	0.928426
O127	O	0.118323	-0.375886	0.227618
O128	O	0.451656	-0.042553	0.560951
O129	O	0.784989	0.290781	0.894284
C130	C	0.201195	-0.341850	0.261752
C131	C	0.534529	-0.008517	0.595086
C132	C	0.867862	0.324817	0.928419
C133	C	0.228533	-0.301840	0.301898
C134	C	0.561866	0.031494	0.635232
C135	C	0.895200	0.364827	0.968565
C136	C	0.228608	-0.221823	0.382186
C137	C	0.561942	0.111511	0.715519
C138	C	0.895275	0.444844	1.048853
C139	C	0.283209	-0.221824	0.382183
C140	C	0.616542	0.111509	0.715516
C141	C	0.949875	0.444842	1.048849
C142	C	0.310471	-0.261833	0.342037
C143	C	0.643805	0.071500	0.675371
C144	C	0.977138	0.404833	1.008704
C145	C	0.283134	-0.301841	0.301895
C146	C	0.616467	0.031492	0.635228
C147	C	0.949800	0.364826	0.968562
C148	C	0.228461	-0.381857	0.221600
C149	C	0.561794	-0.048524	0.554933
C150	C	0.895127	0.284810	0.888266
C151	C	0.283068	-0.381850	0.221596
C152	C	0.616401	-0.048517	0.554930
C153	C	0.949734	0.284816	0.888263
C154	C	0.310406	-0.341840	0.261742
C155	C	0.643739	-0.008507	0.595076
C156	C	0.977072	0.324827	0.928409
C157	C	0.364997	-0.341852	0.261746
C158	C	0.698330	-0.008518	0.595080
C159	C	1.031663	0.324815	0.928413
N160	N	0.392337	-0.301839	0.301885
N161	N	0.725671	0.031494	0.635219
N162	N	1.059004	0.364827	0.968552
C163	C	0.365075	-0.261830	0.342031
C164	C	0.698408	0.071503	0.675364
C165	C	1.031741	0.404836	1.008697
C166	C	0.031921	-0.341856	0.261775
C167	C	0.365255	-0.008522	0.595108
C168	C	0.698588	0.324811	0.928442
C169	C	-0.022681	-0.341862	0.261784
C170	C	0.310652	-0.008529	0.595118
C171	C	0.643986	0.324804	0.928451
C172	C	-0.022603	-0.261838	0.342072
C173	C	0.310730	0.071495	0.675406
C174	C	0.644064	0.404828	1.008739
C175	C	0.032000	-0.261835	0.342066
C176	C	0.365333	0.071498	0.675399
C177	C	0.698667	0.404831	1.008732
C178	C	0.059262	-0.301843	0.301914
C179	C	0.392595	0.031490	0.635247
C180	C	0.725929	0.364823	0.968581
C181	C	0.479740	-0.261837	0.342021
C182	C	0.813073	0.071496	0.675355
C183	C	1.146406	0.404830	1.008688
C184	C	0.534345	-0.261844	0.342016
C185	C	0.867679	0.071489	0.675350
C186	C	1.201012	0.404823	1.008683
C187	C	0.534263	-0.341865	0.261726
C188	C	0.867596	-0.008532	0.595060
C189	C	1.200929	0.324801	0.928393
C190	C	0.479662	-0.341861	0.261733
C191	C	0.812995	-0.008528	0.595067
C192	C	1.146329	0.324806	0.928400
C193	C	0.452402	-0.301842	0.301883
C194	C	0.785735	0.031492	0.635216
C195	C	1.119069	0.364825	0.968550
O196	O	0.393246	-0.375873	0.227637
O197	O	0.726580	-0.042540	0.560970
O198	O	1.059913	0.290794	0.894303
O199	O	0.393351	-0.227797	0.376160
O200	O	0.726684	0.105536	0.709494
O201	O	1.060017	0.438869	1.042827
C202	C	0.891937	-0.301849	0.301917
C203	C	1.225271	0.031485	0.635250
C204	C	1.558604	0.364818	0.968584
C205	C	0.950051	-0.301851	0.301928
C206	C	1.283385	0.031483	0.635261
C207	C	1.616718	0.364816	0.968594
C208	C	0.755608	-0.301831	0.465315
C209	C	1.088941	0.031502	0.798648
C210	C	1.422275	0.364835	1.131982
C211	C	0.755626	-0.301826	0.534956
C212	C	1.088960	0.031507	0.868289
C213	C	1.422293	0.364841	1.201623
C214	C	0.755648	-0.138421	0.301940
C215	C	1.088981	0.194913	0.635274
C216	C	1.422315	0.528246	0.968607
C217	C	0.755684	-0.068779	0.301961
C218	C	1.089017	0.264554	0.635294
C219	C	1.422350	0.597887	0.968628
C220	C	0.755551	-0.301811	0.139104
C221	C	1.088885	0.031522	0.472437
C222	C	1.422218	0.364855	0.805771
C223	C	0.755634	-0.301640	0.069463
C224	C	1.088967	0.031693	0.402796
C225	C	1.422301	0.365026	0.736130
C226	C	0.789086	-0.261752	0.567688
C227	C	1.122419	0.071581	0.901022
C228	C	1.455752	0.404915	1.234355
C229	C	0.789085	-0.261725	0.633124
C230	C	1.122418	0.071608	0.966457
C231	C	1.455752	0.404942	1.299791
C232	C	0.755630	-0.301783	0.665825
C233	C	1.088964	0.031550	0.999158
C234	C	1.422297	0.364883	1.332491
C235	C	0.722165	-0.341860	0.633084
C236	C	1.055498	-0.008527	0.966418
C237	C	1.388831	0.324807	1.299751
C238	C	0.722163	-0.341881	0.567650
C239	C	1.055496	-0.008548	0.900984
C240	C	1.388829	0.324785	1.234317
C241	C	0.751478	-0.358199	0.769487
C242	C	1.084811	-0.024865	1.102820
C243	C	1.418145	0.308468	1.436154
C244	C	0.751484	-0.358178	0.834920
C245	C	1.084817	-0.024845	1.168253
C246	C	1.418150	0.308488	1.501587
C247	C	0.755634	-0.301717	0.867645
C248	C	1.088967	0.031616	1.200979
C249	C	1.422300	0.364950	1.534312
C250	C	0.759789	-0.245274	0.834930
C251	C	1.093122	0.088059	1.168263
C252	C	1.426455	0.421393	1.501597
C253	C	0.759787	-0.245295	0.769496
C254	C	1.093120	0.088038	1.102829
C255	C	1.426453	0.421371	1.436162
C256	C	0.755629	-0.301764	0.736777
C257	C	1.088962	0.031569	1.070110
C258	C	1.422295	0.364902	1.403444
C259	C	0.789094	-0.261610	0.971330
C260	C	1.122427	0.071723	1.304664
C261	C	1.455761	0.405056	1.637997
C262	C	0.789090	-0.261582	1.036767
C263	C	1.122423	0.071751	1.370100
C264	C	1.455756	0.405084	1.703434
C265	C	0.722172	-0.341723	1.036726
C266	C	1.055505	-0.008390	1.370059
C267	C	1.388839	0.324944	1.703393
C268	C	0.722174	-0.341745	0.971291
C269	C	1.055507	-0.008412	1.304624
C270	C	1.388840	0.324921	1.637957
C271	C	0.755637	-0.301690	0.938597
C272	C	1.088971	0.031643	1.271930
C273	C	1.422304	0.364977	1.605263
H274	H	0.816205	-0.540323	0.229231
H275	H	1.149538	-0.206990	0.562565
H276	H	1.482871	0.126344	0.895898
Cl277	Cl	0.765006	-0.174342	0.728370
Cl278	Cl	1.098339	0.158991	1.061703
Cl279	Cl	1.431673	0.492325	1.395036
H280	H	-0.044810	-0.229259	0.374759
H281	H	0.288523	0.104074	0.708093
H282	H	0.621856	0.437408	1.041426
Cl283	Cl	-0.057042	-0.392169	0.211319
Cl284	Cl	0.276291	-0.058836	0.544652
Cl285	Cl	0.609625	0.274497	0.877986
H286	H	0.694930	-0.374382	0.944640
H287	H	1.028264	-0.041048	1.277973
H288	H	1.361597	0.292285	1.611306
H289	H	0.816377	-1.062668	0.229333
H290	H	1.149711	-0.729335	0.562667
H291	H	1.483044	-0.396001	0.896000
H292	H	0.206417	-0.189239	0.414877
H293	H	0.539750	0.144094	0.748211
H294	H	0.873083	0.477428	1.081544
Cl295	Cl	0.649283	-0.875483	0.312952
Cl296	Cl	0.982616	-0.542150	0.646285
Cl297	Cl	1.315949	-0.208816	0.979619
Cl298	Cl	0.194107	-0.432147	0.171115
Cl299	Cl	0.527440	-0.098813	0.504448
Cl300	Cl	0.860773	0.234520	0.837781
Cl301	Cl	0.765008	-0.174289	0.876063
Cl302	Cl	1.098342	0.159044	1.209396
Cl303	Cl	1.431675	0.492378	1.542730
H304	H	0.841084	-0.860789	0.293053
H305	H	1.174418	-0.527456	0.626387
H306	H	1.507751	-0.194122	0.959720
Cl307	Cl	0.649235	-0.727795	0.312923
Cl308	Cl	0.982568	-0.394462	0.646257
Cl309	Cl	1.315902	-0.061128	0.979590
H310	H	0.841047	-0.742076	0.293029
H311	H	1.174380	-0.408743	0.626362
H312	H	1.507714	-0.075409	0.959695
H313	H	0.816335	-0.943961	0.229303
H314	H	1.149668	-0.610628	0.562636
H315	H	1.483001	-0.277295	0.895970
Cl316	Cl	0.066188	-0.392161	0.211297
Cl317	Cl	0.399521	-0.058827	0.544630
Cl318	Cl	0.732854	0.274506	0.877963
Cl319	Cl	0.317336	-0.432151	0.171118
Cl320	Cl	0.650669	-0.098818	0.504451
Cl321	Cl	0.984003	0.234515	0.837785
H322	H	0.694913	-0.374513	0.541000
H323	H	1.028247	-0.041180	0.874333
H324	H	1.361580	0.292153	1.207667
H325	H	0.816334	-0.229135	0.541073
H326	H	1.149667	0.104198	0.874406
H327	H	1.483001	0.437532	1.207740
H328	H	0.556470	-0.374441	0.229042
H329	H	0.889803	-0.041108	0.562376
H330	H	1.223136	0.292226	0.895709
H331	H	0.816246	-0.659032	0.229257
H332	H	1.149579	-0.325698	0.562590
H333	H	1.482912	0.007635	0.895923
Cl334	Cl	0.746265	-0.429135	0.876041
Cl335	Cl	1.079599	-0.095801	1.209375
Cl336	Cl	1.412932	0.237532	1.542708
H337	H	0.694825	-0.540380	0.374502
H338	H	1.028158	-0.207047	0.707836
H339	H	1.361491	0.126286	1.041169
Cl340	Cl	0.445293	-0.392178	0.211282
Cl341	Cl	0.778627	-0.058845	0.544615
Cl342	Cl	1.111960	0.274488	0.877948
Cl343	Cl	0.831165	-0.211209	1.077917
Cl344	Cl	1.164499	0.122125	1.411250
Cl345	Cl	1.497832	0.455458	1.744583
H346	H	0.457551	-0.229248	0.374713
H347	H	0.790885	0.104086	0.708046
H348	H	1.124218	0.437419	1.041380
H349	H	0.816331	-0.229089	0.659780
H350	H	1.149664	0.104245	0.993113
H351	H	1.482997	0.437578	1.326446
H352	H	0.054255	-0.229254	0.374755
H353	H	0.387588	0.104079	0.708088
H354	H	0.720922	0.437413	1.041421
H355	H	0.747959	-0.404165	0.742847
H356	H	1.081292	-0.070831	1.076181
H357	H	1.414626	0.262502	1.409514
Cl358	Cl	0.680176	-1.077226	0.392324
Cl359	Cl	1.013509	-0.743893	0.725657
Cl360	Cl	1.346842	-0.410560	1.058990
Cl361	Cl	0.568709	-0.211543	0.392491
Cl362	Cl	0.902043	0.121791	0.725824
Cl363	Cl	1.235376	0.455124	1.059157
H364	H	0.305462	-0.189243	0.414873
H365	H	0.638796	0.144091	0.748206
H366	H	0.972129	0.477424	1.081539
Cl367	Cl	0.680105	-0.392216	0.674193
Cl368	Cl	1.013439	-0.058883	1.007526
Cl369	Cl	1.346772	0.274450	1.340859
Cl370	Cl	0.680128	-0.929536	0.392294
Cl371	Cl	1.013462	-0.596203	0.725627
Cl372	Cl	1.346795	-0.262870	1.058961
H373	H	0.694862	-0.659095	0.374515
H374	H	1.028195	-0.325761	0.707848
H375	H	1.361528	0.007572	1.041182
Cl376	Cl	0.831159	-0.211253	0.930226
Cl377	Cl	1.164492	0.122080	1.263560
Cl378	Cl	1.497826	0.455414	1.596893
Cl379	Cl	0.680109	-0.392077	1.077829
Cl380	Cl	1.013443	-0.058743	1.411163
Cl381	Cl	1.346776	0.274590	1.744496
