data_functionalizedCrystal
_audit_creation_method	'MofGen! by Chris Wilmer'
_symmetry_space_group_name_H-M	'P1'
_symmetry_Int_Tables_number	1
_symmetry_cell_setting	triclinic
loop_
_symmetry_equiv_pos_as_xyz
  x,y,z
_cell_length_a	14.971482
_cell_length_b	12.811415
_cell_length_c	13.448316
_cell_angle_alpha	84.562549
_cell_angle_beta	89.993798
_cell_angle_gamma	83.829015
loop_
_atom_site_label
_atom_site_type_symbol
_atom_site_fract_x
_atom_site_fract_y
_atom_site_fract_z
O1	O	1.187335	0.136766	-0.095010
O2	O	0.926980	0.153150	-0.096492
O3	O	1.063707	-0.007827	-0.081969
O4	O	1.050608	0.297743	-0.109533
O5	O	1.063689	-0.007837	0.083416
O6	O	0.926963	0.153140	0.068893
O7	O	1.187317	0.136756	0.070375
Cu8	Cu	1.057139	0.144947	0.084734
Cu9	Cu	1.057159	0.144959	-0.110852
O10	O	1.050591	0.297733	0.055851
C11	C	0.893645	0.152413	-0.013734
C12	C	0.794341	0.150219	-0.013538
C13	C	0.747684	0.149181	0.076707
C14	C	0.654380	0.147103	0.076896
C15	C	0.607733	0.146071	-0.013163
C16	C	0.654397	0.147106	-0.103415
C17	C	0.747701	0.149177	-0.103602
C18	C	0.459923	0.142794	-0.103020
C19	C	0.366613	0.140725	-0.102833
C20	C	0.366602	0.140719	0.077478
C21	C	0.459906	0.142790	0.077291
C22	C	0.506563	0.143827	-0.012962
C23	C	1.062964	-0.046937	0.004249
C24	C	1.060765	-0.163459	0.014753
C25	C	1.056635	-0.382392	-0.145831
C26	C	1.054569	-0.491875	-0.135966
C27	C	1.054560	-0.491906	0.044348
C28	C	1.056626	-0.382424	0.034483
C29	C	1.057665	-0.327671	-0.060610
C30	C	1.059738	-0.218188	-0.070474
C31	C	1.059722	-0.218221	0.109838
C32	C	1.057656	-0.327703	0.119704
C33	C	1.220653	0.137493	-0.012385
C34	C	1.319956	0.139686	-0.012588
C35	C	1.051334	0.336843	-0.030369
C36	C	1.053533	0.453365	-0.040880
N37	N	1.057131	0.144938	0.222300
N38	N	1.057174	0.144959	-0.248416
C39	C	1.117692	0.073687	0.280768
C40	C	1.117698	0.073686	0.384871
C41	C	1.057145	0.144942	0.430504
C42	C	0.996578	0.216197	0.372028
C43	C	0.996568	0.216192	0.267927
C44	C	0.996602	0.216204	0.589007
C45	C	0.996612	0.216211	0.693115
C46	C	1.117732	0.073698	0.705952
C47	C	1.117722	0.073693	0.601851
C48	C	1.057155	0.144949	0.543382
H49	H	1.060586	-0.173610	-0.147903
C50	C	1.169612	-0.107914	0.754373
C51	C	1.184312	-0.004632	0.770211
H52	H	1.210723	-0.156264	0.794041
H53	H	1.109890	-0.119432	0.772496
H54	H	1.178271	-0.118095	0.685839
H55	H	1.175647	0.005551	0.838744
H56	H	1.244049	0.006890	0.752094
C57	C	1.237440	-0.067151	0.387101
C58	C	1.184283	-0.004620	0.449139
H59	H	1.278554	-0.115488	0.426778
H60	H	1.200074	-0.104993	0.349931
H61	H	1.269754	-0.023377	0.342530
H62	H	1.151963	-0.048393	0.493705
H63	H	1.221653	0.033225	0.486325
C64	C	1.130715	-0.537329	0.202125
C65	C	1.053419	-0.552086	0.148874
H66	H	1.130008	-0.574473	0.266660
H67	H	1.182464	-0.563215	0.167414
H68	H	1.132086	-0.464289	0.208429
H69	H	1.052051	-0.625126	0.142564
H70	H	1.001657	-0.526204	0.183594
H71	H	0.785687	0.150025	-0.177089
C72	C	0.347614	0.049916	0.239370
C73	C	0.315330	0.139571	0.176693
H74	H	0.315962	0.049215	0.300621
H75	H	0.338917	-0.011573	0.207879
H76	H	0.409859	0.051313	0.252129
H77	H	0.253086	0.138170	0.163927
H78	H	0.324020	0.201075	0.208190
C79	C	0.251965	0.228556	-0.215355
C80	C	0.315333	0.139584	-0.201823
H81	H	0.220310	0.227853	-0.276470
H82	H	0.210835	0.227641	-0.161580
H83	H	0.281780	0.290516	-0.217209
H84	H	0.285517	0.077624	-0.199961
H85	H	0.356469	0.140491	-0.255611
C86	C	0.876860	0.357044	0.669979
C87	C	0.930036	0.294516	0.743278
H88	H	0.835752	0.405378	0.700951
H89	H	0.914213	0.394890	0.625956
H90	H	0.844539	0.313268	0.633329
H91	H	0.962363	0.338292	0.779923
H92	H	0.892678	0.256668	0.787319
C93	C	0.977707	0.359005	0.459038
C94	C	0.930029	0.294529	0.524731
H95	H	0.936609	0.407355	0.419353
H96	H	1.015071	0.396832	0.496225
H97	H	1.013765	0.316551	0.416972
H98	H	0.893976	0.336982	0.566802
H99	H	0.892650	0.256699	0.487541
H100	H	0.785656	0.150030	0.150043
H101	H	1.167033	0.015676	0.564697
H102	H	0.947270	0.274212	0.409188
H103	H	1.056806	-0.372297	0.197125
C104	C	1.056444	-0.393354	-0.323073
C105	C	1.057781	-0.322201	-0.250352
H106	H	1.057146	-0.356193	-0.387599
H107	H	1.107733	-0.443992	-0.314759
H108	H	1.003537	-0.428120	-0.316186
H109	H	1.110691	-0.287441	-0.257234
H110	H	1.006487	-0.271545	-0.258669
C111	C	0.985246	-0.083421	0.202319
C112	C	1.060853	-0.158075	0.203527
H113	H	0.985947	-0.046297	0.260161
H114	H	0.986167	-0.035142	0.144288
H115	H	0.932346	-0.118199	0.201706
H116	H	1.113754	-0.123296	0.204132
H117	H	1.059940	-0.206361	0.261573
H118	H	0.616411	0.146259	-0.176742
C119	C	0.876857	0.357069	0.265687
C120	C	0.930002	0.294519	0.203653
H121	H	0.835764	0.405427	0.226006
H122	H	0.844529	0.313318	0.310247
H123	H	0.914241	0.394896	0.302866
H124	H	0.892619	0.256685	0.166479
H125	H	0.962332	0.338275	0.159075
H126	H	0.616398	0.146240	0.150384
H127	H	0.497882	0.143637	0.150624
H128	H	0.497909	0.143639	-0.176513
H129	H	1.053727	-0.536424	-0.205362
H130	H	1.167004	0.015666	0.243622
