data_functionalizedCrystal
_audit_creation_method	'MofGen! by Chris Wilmer'
_symmetry_space_group_name_H-M	'P1'
_symmetry_Int_Tables_number	1
_symmetry_cell_setting	triclinic
loop_
_symmetry_equiv_pos_as_xyz
  x,y,z
_cell_length_a	17.699083
_cell_length_b	9.065218
_cell_length_c	8.140239
_cell_angle_alpha	90.001686
_cell_angle_beta	89.998958
_cell_angle_gamma	95.850550
loop_
_atom_site_label
_atom_site_type_symbol
_atom_site_fract_x
_atom_site_fract_y
_atom_site_fract_z
O1	O	1.005529	-0.186555	-0.136542
O2	O	1.505529	0.313445	0.363458
O3	O	0.785340	-0.210827	-0.136559
O4	O	1.285340	0.289173	0.363441
O5	O	0.899986	0.016086	-0.136547
O6	O	1.399986	0.516086	0.363453
O7	O	0.890883	-0.413468	-0.136554
O8	O	1.390883	0.086532	0.363446
O9	O	0.899979	0.016089	0.136680
O10	O	1.399979	0.516089	0.636680
O11	O	0.785333	-0.210824	0.136668
O12	O	1.285333	0.289176	0.636668
O13	O	1.005522	-0.186553	0.136685
O14	O	1.505522	0.313447	0.636685
Zn15	Zn	0.895427	-0.198688	0.180057
Zn16	Zn	1.395427	0.301312	0.680057
Zn17	Zn	0.895435	-0.198691	-0.179931
Zn18	Zn	1.395435	0.301309	0.320069
O19	O	0.890877	-0.413466	0.136673
O20	O	1.390877	0.086534	0.636673
C21	C	0.899108	0.071048	0.000064
C22	C	1.399108	0.571048	0.500064
C23	C	0.896492	0.234814	0.000056
C24	C	1.396492	0.734814	0.500056
C25	C	1.033729	-0.187423	0.000070
C26	C	1.533729	0.312577	0.500070
C27	C	1.117768	-0.190033	0.000065
C28	C	1.617768	0.309967	0.500065
C29	C	0.757133	-0.209956	0.000052
C30	C	1.257133	0.290044	0.500052
C31	C	0.673094	-0.207347	0.000046
C32	C	1.173094	0.292653	0.500046
C33	C	1.165350	-0.056839	0.000062
C34	C	1.665350	0.443161	0.500062
C35	C	1.244313	-0.059300	0.000067
C36	C	1.744313	0.440700	0.500067
C37	C	1.275691	-0.194955	0.000064
C38	C	1.775691	0.305045	0.500064
C39	C	1.228103	-0.328158	0.000073
C40	C	1.728103	0.171842	0.500073
C41	C	1.149142	-0.325697	0.000079
C42	C	1.649142	0.174303	0.500079
C43	C	1.546543	-0.338090	0.000049
C44	C	2.046543	0.161910	0.500049
C45	C	1.625511	-0.340542	0.000038
C46	C	2.125511	0.159458	0.500038
C47	C	1.641714	-0.071693	0.000037
C48	C	2.141714	0.428307	0.500037
C49	C	1.562753	-0.069231	0.000043
C50	C	2.062753	0.430769	0.500043
C51	C	1.515172	-0.202434	0.000061
C52	C	2.015172	0.297566	0.500061
C53	C	1.429552	-0.199765	0.000058
C54	C	1.929552	0.300235	0.500058
C55	C	1.361310	-0.197626	0.000055
C56	C	1.861310	0.302374	0.500055
C57	C	0.891755	-0.468428	0.000058
C58	C	1.391755	0.031572	0.500058
C59	C	0.894370	-0.632193	0.000056
C60	C	1.394370	-0.132193	0.500056
N61	N	0.895427	-0.198685	0.425740
N62	N	1.395427	0.301315	0.925740
N63	N	0.895441	-0.198683	-0.425614
N64	N	1.395441	0.301317	0.074386
H65	H	1.139808	0.053627	0.000054
H66	H	1.639808	0.553627	0.500054
F67	F	1.294950	0.082463	0.000072
F68	F	1.794950	0.582463	0.500072
H69	H	1.253658	-0.438611	0.000080
H70	H	1.753658	0.061389	0.500080
F71	F	1.658904	-0.484932	0.000036
F72	F	2.158904	0.015068	0.500036
F73	F	1.692360	0.070075	0.000028
F74	F	2.192360	0.570075	0.500028
H75	H	1.537209	0.041233	0.000038
H76	H	2.037209	0.541233	0.500038
F77	F	1.495914	-0.479857	0.000050
F78	F	1.995914	0.020143	0.500050
F79	F	1.098501	-0.467459	0.000092
F80	F	1.598501	0.032541	0.500092
