data_functionalizedCrystal
_audit_creation_method	'MofGen! by Chris Wilmer'
_symmetry_space_group_name_H-M	'P1'
_symmetry_Int_Tables_number	1
_symmetry_cell_setting	triclinic
loop_
_symmetry_equiv_pos_as_xyz
  x,y,z
_cell_length_a	13.635800
_cell_length_b	14.766442
_cell_length_c	17.078453
_cell_angle_alpha	77.335438
_cell_angle_beta	80.694390
_cell_angle_gamma	45.443921
loop_
_atom_site_label
_atom_site_type_symbol
_atom_site_fract_x
_atom_site_fract_y
_atom_site_fract_z
V1	V	2.185887	-0.396126	0.109771
O2	O	2.232909	-0.388721	-0.005271
O3	O	2.106079	-0.393287	0.217653
O4	O	2.261736	-0.568950	0.108084
O5	O	2.076175	-0.211842	0.105057
V6	V	2.421943	-0.374100	0.096010
O7	O	2.329033	-0.444442	0.139956
O8	O	2.503896	-0.325784	0.065826
O9	O	2.390147	-0.376940	-0.011872
O10	O	2.433620	-0.381506	0.211052
O11	O	2.590353	-0.558385	0.100725
O12	O	2.234491	-0.201277	0.097697
C13	C	2.011815	-0.387004	0.243953
C14	C	1.987873	-0.385835	0.332148
C15	C	1.895368	-0.268903	0.362238
C16	C	1.872874	-0.267787	0.445106
C17	C	1.942879	-0.383603	0.497882
C18	C	2.035395	-0.500544	0.467786
C19	C	2.057895	-0.501659	0.384921
C20	C	2.210369	-0.611079	0.104186
C21	C	2.312657	-0.752362	0.103520
C22	C	2.498257	-0.765322	0.111449
C23	C	2.639106	-0.838177	0.115103
C24	C	2.735208	-0.970924	0.114477
C25	C	2.690453	-1.030818	0.110194
C26	C	2.549604	-0.957964	0.106540
C27	C	2.453509	-0.825215	0.107169
C28	C	2.364007	-0.945002	0.098606
C29	C	2.267902	-0.812257	0.099237
C30	C	2.319252	-1.004897	0.094323
C31	C	2.178399	-0.932044	0.090674
C32	C	2.082295	-0.799289	0.091301
C33	C	2.127052	-0.739402	0.095583
V34	V	2.685887	-0.396126	0.109771
O35	O	2.732909	-0.388721	-0.005271
O36	O	2.606079	-0.393287	0.217653
O37	O	2.761736	-0.568950	0.108084
O38	O	2.576175	-0.211842	0.105057
V39	V	2.921943	-0.374100	0.096010
O40	O	2.829033	-0.444442	0.139956
O41	O	3.003896	-0.325784	0.065826
O42	O	2.890147	-0.376940	-0.011872
O43	O	2.933620	-0.381506	0.211052
O44	O	3.090353	-0.558385	0.100725
O45	O	2.734491	-0.201277	0.097697
C46	C	2.316079	-0.383219	-0.038167
C47	C	2.329644	-0.384397	-0.126362
C48	C	2.617524	-0.159141	0.101599
C49	C	2.504856	-0.017857	0.102260
C50	C	2.420693	-0.378609	-0.171837
C51	C	2.433417	-0.379695	-0.254707
C52	C	2.355098	-0.386578	-0.292099
C53	C	2.264039	-0.392362	-0.246618
C54	C	2.251309	-0.391266	-0.163750
C55	C	2.384084	-0.390524	-0.539504
C56	C	2.396824	-0.391622	-0.622377
C57	C	2.566200	-0.378953	-0.630460
C58	C	2.553468	-0.377866	-0.547590
C59	C	2.462405	-0.383644	-0.502117
N60	N	2.368105	-0.387692	-0.376805
N61	N	2.449392	-0.382520	-0.417414
C62	C	2.511815	-0.387004	0.243953
C63	C	2.487873	-0.385835	0.332148
C64	C	2.117524	-0.159141	0.101599
C65	C	2.004856	-0.017857	0.102260
C66	C	2.710369	-0.611079	0.104186
C67	C	2.812657	-0.752362	0.103520
C68	C	2.816079	-0.383219	-0.038167
C69	C	2.829644	-0.384397	-0.126362
C70	C	2.920697	-0.378604	-0.171824
C71	C	2.933441	-0.379690	-0.254694
C72	C	2.855138	-0.386577	-0.292100
C73	C	2.764074	-0.392366	-0.246632
C74	C	2.751325	-0.391271	-0.163764
C75	C	1.997094	0.018282	-0.043051
C76	C	1.940281	0.102725	-0.115394
C77	C	1.834424	0.235474	-0.114770
C78	C	1.785381	0.283780	-0.041796
C79	C	1.842194	0.199337	0.030547
C80	C	1.948050	0.066587	0.029915
C81	C	1.849963	0.163199	0.175856
C82	C	1.955813	0.030450	0.175234
C83	C	1.800920	0.211506	0.248830
C84	C	1.857726	0.127062	0.321175
C85	C	1.963588	-0.005694	0.320548
C86	C	2.012626	-0.053993	0.247577
H87	H	2.675534	-0.789395	0.118587
O88	O	2.153120	-0.397526	-0.114695
H89	H	2.046922	-0.313769	-0.137132
O90	O	2.653135	-0.397547	-0.114729
H91	H	2.600850	-0.402537	-0.154666
O92	O	2.111318	-0.124894	-0.043724
H93	H	2.135901	-0.144297	-0.106619
H94	H	1.924545	-0.382676	0.565355
O95	O	2.130130	-0.996639	0.086058
H96	H	2.220619	-1.101185	0.086237
H97	H	2.640339	-0.374248	-0.667493
O98	O	1.671210	0.426958	-0.041118
H99	H	1.639941	0.477561	-0.103681
O100	O	1.930377	-0.720711	0.087363
H101	H	1.915412	-0.784667	0.084286
H102	H	1.980226	0.063379	-0.174808
O103	O	2.312338	-0.399032	-0.662713
H104	H	2.246865	-0.402850	-0.617173
O105	O	2.531646	-0.373472	-0.303738
H106	H	2.473488	-0.286648	-0.350152
O107	O	2.505161	-0.371172	-0.131515
H108	H	2.481021	-0.371389	-0.066251
O109	O	2.285892	-0.396781	-0.490459
H110	H	2.233591	-0.401771	-0.530383
H111	H	2.617246	-0.372263	-0.517151
O112	O	2.868909	-0.387764	-0.381481
H113	H	2.799160	-0.393519	-0.399861
H114	H	2.200265	-0.397957	-0.277070
H115	H	2.092389	-0.594837	0.510769
O116	O	1.773132	0.326563	-0.192793
H117	H	1.825007	0.270677	-0.243641
H118	H	2.984468	-0.372997	-0.141379
H119	H	2.133218	-0.596882	0.360429
H120	H	2.420014	-0.657236	0.111969
O121	O	2.023410	-0.596223	0.096248
H122	H	2.033752	-0.577518	0.152445
O123	O	2.887130	-1.049514	0.118414
H124	H	2.902111	-0.985572	0.121500
O125	O	3.031696	-0.373491	-0.303722
H126	H	3.084025	-0.368555	-0.263781
H127	H	1.714731	0.319599	0.249332
O128	O	2.679642	-0.399821	-0.286978
H129	H	2.703834	-0.399630	-0.352236
H130	H	2.768714	-1.138906	0.109675
H131	H	1.817792	0.166406	0.380584
O132	O	2.024848	-0.096766	0.398579
H133	H	2.069620	-0.075117	0.430579
O134	O	1.819857	-0.143980	0.305324
H135	H	1.751769	-0.062494	0.340182
O136	O	1.773069	-0.141653	0.477556
H137	H	1.728154	-0.061313	0.426931
O138	O	2.422908	-1.148076	0.093652
H139	H	2.412585	-1.166780	0.037447
H140	H	2.098813	-0.162082	0.247059
