data_functionalizedCrystal
_audit_creation_method	'MofGen! by Chris Wilmer'
_symmetry_space_group_name_H-M	'P1'
_symmetry_Int_Tables_number	1
_symmetry_cell_setting	triclinic
loop_
_symmetry_equiv_pos_as_xyz
  x,y,z
_cell_length_a	14.853568
_cell_length_b	9.065215
_cell_length_c	7.540329
_cell_angle_alpha	90.001076
_cell_angle_beta	90.001392
_cell_angle_gamma	95.675058
loop_
_atom_site_label
_atom_site_type_symbol
_atom_site_fract_x
_atom_site_fract_y
_atom_site_fract_z
O1	O	-0.132178	1.957779	0.147441
O2	O	-0.143024	1.528278	0.147448
O3	O	-0.006456	1.754501	0.147453
O4	O	-0.268746	1.731556	0.147436
O5	O	-0.006455	1.754493	-0.147512
O6	O	-0.143023	1.528271	-0.147517
O7	O	-0.132177	1.957771	-0.147524
Cu8	Cu	-0.137600	1.743020	-0.174453
Cu9	Cu	-0.137601	1.743029	0.174377
O10	O	-0.268745	1.731549	-0.147529
C11	C	0.027141	1.753457	-0.000023
C12	C	0.127247	1.750341	-0.000005
C13	C	-0.141982	1.473308	-0.000034
C14	C	-0.138867	1.309527	-0.000031
C15	C	0.540872	1.602788	-0.000025
C16	C	0.560166	1.871546	-0.000029
C17	C	0.466111	1.874476	-0.000021
C18	C	0.409432	1.741560	-0.000018
C19	C	0.446808	1.605714	-0.000023
C20	C	0.428727	2.010319	-0.000034
C21	C	0.334666	2.013255	-0.000028
C22	C	0.277986	1.880337	-0.000013
C23	C	0.315367	1.744486	-0.000015
C24	C	0.258688	1.611570	-0.000012
C25	C	0.296068	1.475717	-0.000003
C26	C	0.390127	1.472797	-0.000007
C27	C	0.183927	1.883257	-0.000008
C28	C	0.164624	1.614495	-0.000010
C29	C	0.697658	1.732591	-0.000042
C30	C	0.597551	1.735704	-0.000028
C31	C	-0.133219	2.012741	-0.000038
C32	C	-0.136334	2.176522	-0.000030
N33	N	-0.137598	1.743024	-0.419802
N34	N	-0.137595	1.743037	0.419726
H35	H	0.118481	1.506257	0.000000
H36	H	0.249908	1.367497	-0.000013
H37	H	0.571311	1.492180	-0.000010
O38	O	0.143609	2.029767	-0.000003
H39	H	0.166288	2.093642	-0.120223
H40	H	0.304240	2.123874	-0.000034
H41	H	0.420571	1.362192	-0.000001
H42	H	0.606319	1.979760	-0.000046
O43	O	0.489854	2.153674	-0.000063
H44	H	0.561538	2.128813	-0.000048
