data_functionalizedCrystal
_audit_creation_method	'MofGen! by Chris Wilmer'
_symmetry_space_group_name_H-M	'P1'
_symmetry_Int_Tables_number	1
_symmetry_cell_setting	triclinic
loop_
_symmetry_equiv_pos_as_xyz
  x,y,z
_cell_length_a	15.944545
_cell_length_b	15.944551
_cell_length_c	11.295483
_cell_angle_alpha	94.094426
_cell_angle_beta	85.897240
_cell_angle_gamma	83.497455
loop_
_atom_site_label
_atom_site_type_symbol
_atom_site_fract_x
_atom_site_fract_y
_atom_site_fract_z
O1	O	1.120181	0.102655	-0.098950
O2	O	1.620181	0.602655	0.401050
O3	O	0.875631	0.116015	-0.098970
O4	O	1.375631	0.616015	0.401030
O5	O	1.004584	-0.012939	-0.098948
O6	O	1.504584	0.487061	0.401052
O7	O	0.991229	0.231609	-0.098971
O8	O	1.491229	0.731609	0.401029
O9	O	0.993257	-0.001630	0.099100
O10	O	1.493257	0.498370	0.599100
O11	O	0.864305	0.127324	0.099079
O12	O	1.364305	0.627324	0.599079
O13	O	1.108855	0.113964	0.099099
O14	O	1.608855	0.613964	0.599099
Cu15	Cu	0.985546	0.121677	0.117173
Cu16	Cu	1.485546	0.621677	0.617173
Cu17	Cu	0.998940	0.108302	-0.117043
Cu18	Cu	1.498940	0.608302	0.382957
O19	O	0.979902	0.242918	0.099078
O20	O	1.479902	0.742918	0.599078
C21	C	0.838674	0.121116	0.000053
C22	C	1.338674	0.621116	0.500053
C23	C	0.745429	0.119455	0.000045
C24	C	1.245429	0.619455	0.500045
C25	C	0.474795	0.034563	0.000066
C26	C	0.974795	0.534563	0.500066
C27	C	0.519792	0.081068	0.097713
C28	C	1.019792	0.581068	0.597713
C29	C	0.409784	0.113536	0.000066
C30	C	0.909784	0.613536	0.500066
C31	C	0.530939	0.069939	-0.097547
C32	C	1.030939	0.569939	0.402453
C33	C	0.574698	0.116440	0.000054
C34	C	1.074698	0.616440	0.500054
C35	C	0.453548	0.160024	0.097795
C36	C	0.953548	0.660024	0.597795
C37	C	0.464697	0.148879	-0.097554
C38	C	0.964697	0.648879	0.402446
C39	C	0.509660	0.195443	0.000118
C40	C	1.009660	0.695443	0.500118
C41	C	0.314781	0.111861	0.000074
C42	C	0.814781	0.611861	0.500074
C43	C	0.669697	0.118122	0.000055
C44	C	1.169697	0.618122	0.500055
C45	C	0.998366	-0.038579	0.000076
C46	C	1.498366	0.461421	0.500076
C47	C	0.996704	-0.131825	0.000077
C48	C	1.496704	0.368175	0.500077
C49	C	0.912800	-0.346681	0.000054
C50	C	1.412800	0.153319	0.500054
C51	C	0.946178	-0.402123	0.097707
C52	C	1.446178	0.097877	0.597707
C53	C	0.993697	-0.302551	0.000067
C54	C	1.493697	0.197449	0.500067
C55	C	0.957364	-0.413256	-0.097554
C56	C	1.457364	0.086744	0.402446
C57	C	0.990787	-0.467465	0.000053
C58	C	1.490787	0.032535	0.500053
C59	C	1.027092	-0.356760	0.097801
C60	C	1.527092	0.143240	0.597801
C61	C	1.038272	-0.367892	-0.097547
C62	C	1.538272	0.132108	0.402453
C63	C	1.071707	-0.423315	0.000130
C64	C	1.571707	0.076685	0.500130
C65	C	0.995371	-0.207548	0.000077
C66	C	1.495371	0.292452	0.500077
C67	C	0.989119	-0.562466	0.000052
C68	C	1.489119	-0.062466	0.500052
C69	C	1.145812	0.108863	0.000074
C70	C	1.645812	0.608863	0.500074
C71	C	1.239058	0.110523	0.000074
C72	C	1.739058	0.610523	0.500074
C73	C	0.986120	0.268558	0.000051
C74	C	1.486120	0.768558	0.500051
C75	C	0.987783	0.361803	0.000042
C76	C	1.487783	0.861803	0.500042
N77	N	0.976131	0.131083	0.281907
N78	N	1.476131	0.631083	0.781907
N79	N	1.008362	0.098890	-0.281778
N80	N	1.508362	0.598890	0.218222
C81	C	1.076135	0.031132	0.531213
C82	C	1.576135	0.531132	1.031213
C83	C	1.069026	0.038247	0.655876
C84	C	1.569026	0.538247	1.155876
C85	C	0.954801	0.152421	0.655897
C86	C	1.454801	0.652421	1.155897
C87	C	0.961910	0.145307	0.531235
C88	C	1.461910	0.645307	1.031235
C89	C	1.022580	0.084661	0.468897
C90	C	1.522580	0.584661	0.968897
C91	C	1.029692	0.077552	0.344232
C92	C	1.529692	0.577552	0.844232
C93	C	0.915463	0.191721	0.344256
C94	C	1.415463	0.691721	0.844256
C95	C	0.908354	0.198835	0.468919
C96	C	1.408354	0.698835	0.968919
H97	H	0.525149	0.263511	0.000168
H98	H	1.025149	0.763511	0.500168
F99	F	0.574908	0.020168	-0.205443
F100	F	1.074908	0.520168	0.294557
H101	H	0.845647	-0.313366	0.000146
H102	H	1.345647	0.186634	0.500146
F103	F	0.433031	0.186273	-0.205469
F104	F	0.933031	0.686273	0.294531
F105	F	0.895286	-0.422244	0.205610
F106	F	1.395286	0.077756	0.705610
F107	F	1.065603	-0.324468	0.205828
F108	F	1.565603	0.175532	0.705828
F109	F	1.159547	-0.466656	0.000205
F110	F	1.659547	0.033344	0.500205
F111	F	0.454324	-0.054325	0.000195
F112	F	0.954324	0.445675	0.500195
F113	F	1.140711	-0.033403	0.464868
F114	F	1.640711	0.466597	0.964868
F115	F	1.089129	-0.347741	-0.205455
F116	F	1.589129	0.152259	0.294545
H117	H	0.544001	0.052429	0.180273
H118	H	1.044001	0.552429	0.680273
F119	F	0.890228	0.216953	0.722255
F120	F	1.390228	0.716953	1.222255
F121	F	0.409718	0.209754	0.205815
F122	F	0.909718	0.709754	0.705815
H123	H	0.927859	-0.438047	-0.180118
H124	H	1.427859	0.061953	0.319882
H125	H	1.079094	0.028173	0.293478
H126	H	1.579094	0.528173	0.793478
F127	F	1.126025	-0.018728	0.722193
F128	F	1.626025	0.481272	1.222193
F129	F	0.843786	0.263373	0.535273
F130	F	1.343786	0.763373	1.035273
H131	H	0.871857	0.235310	0.293504
H132	H	1.371857	0.735310	0.793504
