data_functionalizedCrystal
_audit_creation_method	'MofGen! by Chris Wilmer'
_symmetry_space_group_name_H-M	'P1'
_symmetry_Int_Tables_number	1
_symmetry_cell_setting	triclinic
loop_
_symmetry_equiv_pos_as_xyz
  x,y,z
_cell_length_a	21.395364
_cell_length_b	16.959453
_cell_length_c	21.395355
_cell_angle_alpha	90.017325
_cell_angle_beta	90.024552
_cell_angle_gamma	90.034939
loop_
_atom_site_label
_atom_site_type_symbol
_atom_site_fract_x
_atom_site_fract_y
_atom_site_fract_z
Zn1	Zn	0.957906	-0.314458	0.354267
Zn2	Zn	0.957828	-0.446619	0.249491
Zn3	Zn	0.853121	-0.314492	0.249503
Zn4	Zn	0.853110	-0.446633	0.354232
O5	O	0.905491	-0.380550	0.301873
O6	O	1.045573	-0.331969	0.340378
O7	O	0.943910	-0.429100	0.161815
O8	O	0.867058	-0.203877	0.263420
O9	O	1.045516	-0.429067	0.263400
O10	O	0.944043	-0.203851	0.340389
O11	O	0.866983	-0.332028	0.161824
O12	O	0.765441	-0.332041	0.263386
O13	O	0.867039	-0.429091	0.441914
O14	O	0.765433	-0.429124	0.340329
O15	O	0.944032	-0.331982	0.441940
O16	O	0.943900	-0.557231	0.263366
O17	O	0.866963	-0.557242	0.340318
C18	C	0.742703	-0.380589	0.301856
C19	C	0.673062	-0.380624	0.301863
C20	C	0.640401	-0.330148	0.342007
C21	C	0.574966	-0.330127	0.342010
C22	C	0.542194	-0.380596	0.301874
C23	C	0.574863	-0.431076	0.261722
C24	C	0.640297	-0.431090	0.261717
C25	C	0.438480	-0.451779	0.296838
C26	C	0.373047	-0.451767	0.296848
C27	C	0.340373	-0.380553	0.301888
C28	C	0.373140	-0.309349	0.306932
C29	C	0.438574	-0.309363	0.306926
C30	C	0.471242	-0.380586	0.301876
C31	C	0.236760	-0.330050	0.342037
C32	C	0.171323	-0.330027	0.342036
C33	C	0.171221	-0.430983	0.261751
C34	C	0.236657	-0.430999	0.261750
C35	C	0.269422	-0.380533	0.301896
C36	C	0.905439	-0.585917	0.301850
C37	C	0.905474	-0.673773	0.301861
C38	C	0.945629	-1.045177	0.342027
C39	C	0.865529	-1.045320	0.261813
C40	C	0.865505	-0.962775	0.261798
C41	C	0.905544	-0.921426	0.301899
C42	C	0.945605	-0.962623	0.342015
C43	C	0.825440	-0.921571	0.221688
C44	C	0.825415	-0.839020	0.221673
C45	C	0.865457	-0.797670	0.261771
C46	C	0.905520	-0.838873	0.301888
C47	C	0.945559	-0.797524	0.341989
C48	C	0.985626	-0.838725	0.382103
C49	C	0.985647	-0.921273	0.382113
C50	C	0.865435	-0.715122	0.261760
C51	C	0.945535	-0.714971	0.341977
C52	C	1.068914	-0.380512	0.301891
C53	C	1.138556	-0.380496	0.301899
C54	C	0.905543	-0.380534	0.465297
C55	C	0.905565	-0.380527	0.534938
C56	C	0.905561	-0.174382	0.301910
C57	C	0.905590	-0.086525	0.301926
C58	C	0.905475	-0.380509	0.139086
C59	C	0.905575	-0.380293	0.069445
C60	C	0.945654	-0.329961	0.567665
C61	C	0.945653	-0.329927	0.633101
C62	C	0.905570	-0.380474	0.665806
C63	C	0.865474	-0.431044	0.633071
C64	C	0.865471	-0.431071	0.567637
C65	C	0.900605	-0.451647	0.769473
C66	C	0.900612	-0.451621	0.834906
C67	C	0.905574	-0.380390	0.867627
C68	C	0.910543	-0.309183	0.834907
C69	C	0.910540	-0.309210	0.769473
C70	C	0.905568	-0.380450	0.736759
C71	C	0.945664	-0.329783	0.971307
C72	C	0.945659	-0.329747	1.036744
C73	C	0.865482	-0.430871	1.036713
C74	C	0.865484	-0.430899	0.971277
C75	C	0.905578	-0.380356	0.938578
H76	H	0.548176	-0.472168	0.229043
F77	F	0.822813	-0.484836	0.667879
H78	H	0.667075	-0.289054	0.374697
F79	F	0.988336	-0.275934	1.071575
F80	F	0.782821	-0.965581	0.179023
F81	F	0.136347	-0.484692	0.219032
H82	H	0.914585	-0.251180	0.861547
F83	F	0.915825	-0.233428	0.734653
F84	F	0.271633	-0.276336	0.384760
F85	F	0.675058	-0.484814	0.218986
F86	F	0.988323	-0.276165	0.532869
H87	H	0.346538	-0.251360	0.311036
F88	F	0.271418	-0.484720	0.219020
H89	H	0.978252	-1.078726	0.374685
F90	F	0.822795	-0.671276	0.219073
F91	F	0.338180	-0.527548	0.291490
H92	H	1.018267	-0.954827	0.414772
H93	H	0.978297	-0.288746	0.659753
F94	F	0.136563	-0.276297	0.384762
F95	F	0.822912	-1.089328	0.219145
H96	H	0.465078	-0.509775	0.292733
H97	H	0.978307	-0.288623	0.944683
F98	F	0.822801	-0.484893	0.532804
F99	F	0.988154	-0.670971	0.384656
F100	F	0.822818	-0.484661	1.071516
H101	H	0.832844	-0.472081	0.944630
F102	F	0.895329	-0.527406	0.869723
H103	H	0.792791	-0.805479	0.189010
H104	H	0.548368	-0.289019	0.374699
F105	F	0.473445	-0.233586	0.312291
F106	F	0.895337	-0.527467	0.734655
H107	H	1.018223	-0.805050	0.414756
