data_functionalizedCrystal
_audit_creation_method	'MofGen! by Chris Wilmer'
_symmetry_space_group_name_H-M	'P1'
_symmetry_Int_Tables_number	1
_symmetry_cell_setting	triclinic
loop_
_symmetry_equiv_pos_as_xyz
  x,y,z
_cell_length_a	8.497374
_cell_length_b	21.395362
_cell_length_c	21.395361
_cell_angle_alpha	90.046585
_cell_angle_beta	89.984309
_cell_angle_gamma	89.977046
loop_
_atom_site_label
_atom_site_type_symbol
_atom_site_fract_x
_atom_site_fract_y
_atom_site_fract_z
Zn1	Zn	0.892770	-0.957730	0.249282
Zn2	Zn	0.628940	-0.957670	0.354031
Zn3	Zn	0.628900	-0.852983	0.249300
Zn4	Zn	0.892573	-0.852914	0.354054
O5	O	0.760796	-0.905324	0.301667
O6	O	0.857872	-1.045400	0.263159
O7	O	0.408172	-0.943788	0.340136
O8	O	0.663969	-0.866931	0.161620
O9	O	0.664036	-1.045356	0.340118
O10	O	0.857833	-0.943888	0.161606
O11	O	0.408143	-0.866874	0.263191
O12	O	0.663778	-0.765296	0.263214
O13	O	1.113362	-0.866814	0.340158
O14	O	0.857497	-0.765245	0.340176
O15	O	1.113507	-0.943821	0.263182
O16	O	0.663845	-0.943721	0.441712
O17	O	0.857536	-0.866756	0.441729
C18	C	0.760613	-0.742537	0.301700
C19	C	0.760572	-0.672895	0.301729
C20	C	0.760708	-0.905241	0.464454
C21	C	0.760723	-0.905263	0.534096
C22	C	0.760981	-1.068747	0.301634
C23	C	0.761059	-1.138389	0.301620
C24	C	1.172276	-0.905320	0.301668
C25	C	1.350920	-0.905321	0.301674
C26	C	0.760919	-0.905424	0.138243
C27	C	0.760971	-0.905467	0.068602
C28	C	0.861291	-0.640172	0.341857
C29	C	0.861361	-0.574737	0.341841
C30	C	0.760684	-0.542027	0.301705
C31	C	0.659959	-0.574758	0.261570
C32	C	0.659902	-0.640192	0.261582
C33	C	0.618664	-0.438323	0.296652
C34	C	0.618717	-0.372890	0.296644
C35	C	0.760859	-0.340206	0.301664
C36	C	0.902951	-0.372964	0.306705
C37	C	0.902895	-0.438398	0.306717
C38	C	0.760735	-0.471075	0.301687
C39	C	0.861662	-0.236531	0.341777
C40	C	0.861735	-0.171094	0.341757
C41	C	0.660318	-0.171117	0.261489
C42	C	0.660260	-0.236552	0.261506
C43	C	0.760929	-0.269255	0.301653
C44	C	0.659972	-0.945374	0.566779
C45	C	0.660007	-0.945403	0.632214
C46	C	0.760777	-0.905310	0.664964
C47	C	0.861548	-0.865197	0.632273
C48	C	0.861521	-0.865173	0.566839
C49	C	0.773092	-0.848894	0.768695
C50	C	0.773108	-0.848917	0.834128
C51	C	0.760870	-0.905383	0.866785
C52	C	0.748583	-0.961830	0.834000
C53	C	0.748556	-0.961806	0.768566
C54	C	0.760819	-0.905332	0.735916
C55	C	0.660152	-0.945529	0.970420
C56	C	0.660198	-0.945559	1.035857
C57	C	0.861731	-0.865347	1.035914
C58	C	0.861693	-0.865323	0.970479
C59	C	0.760895	-0.905413	0.937736
H60	H	0.943384	-0.548088	0.374518
N61	N	0.970246	-0.271809	0.385071
H62	H	0.905970	-0.298905	0.414073
H63	H	1.034050	-0.241107	0.410445
N64	N	0.465345	-0.473572	0.291234
H65	H	0.375342	-0.442893	0.288045
H66	H	0.450498	-0.500678	0.329406
N67	N	0.551466	-0.988778	0.935101
H68	H	0.566730	-0.982675	0.888689
H69	H	0.438769	-0.979073	0.946571
N70	N	0.465468	-0.337564	0.291207
H71	H	0.487068	-0.291152	0.291965
H72	H	0.394755	-0.348947	0.327395
N73	N	0.551602	-0.271842	0.218227
H74	H	0.478349	-0.298944	0.243647
H75	H	0.615931	-0.299002	0.189243
N76	N	0.551351	-0.539483	0.218287
H77	H	0.566656	-0.493065	0.224373
H78	H	0.438636	-0.550885	0.227979
H79	H	1.018591	-0.465066	0.310820
N80	N	0.970367	-0.135796	0.385042
H81	H	1.034120	-0.166445	0.410478
H82	H	0.906020	-0.108600	0.413986
H83	H	1.018697	-0.346354	0.310792
H84	H	0.783064	-0.802908	0.742113
N85	N	0.786336	-0.788039	0.869486
H86	H	0.794100	-0.752264	0.838871
H87	H	0.883548	-0.788916	0.896621
N88	N	0.551740	-0.135847	0.218193
H89	H	0.567060	-0.089428	0.224273
H90	H	0.439014	-0.147240	0.227876
N91	N	0.735324	-1.022679	0.733199
H92	H	0.633302	-1.044043	0.744575
H93	H	0.826718	-1.050643	0.744549
N94	N	0.551278	-0.675491	0.218295
H95	H	0.487514	-0.644843	0.192862
H96	H	0.478122	-0.702594	0.243755
H97	H	0.738618	-1.007811	0.860588
H98	H	0.577900	-0.978019	0.540122
H99	H	0.577964	-0.978069	0.658830
N100	N	0.551534	-0.988827	1.071112
H101	H	0.487677	-1.014218	1.040438
H102	H	0.478467	-0.963356	1.098306
H103	H	0.943787	-0.832706	1.062578
H104	H	0.943727	-0.832658	0.943866
N105	N	0.970242	-0.821955	0.667591
H106	H	0.954968	-0.828054	0.714003
H107	H	0.945544	-0.777212	0.656208
N108	N	0.970190	-0.821908	0.531583
H109	H	1.034039	-0.796514	0.562256
H110	H	0.905865	-0.792925	0.504481
H111	H	0.943266	-0.666795	0.374547
