data_functionalizedCrystal
_audit_creation_method	'MofGen! by Chris Wilmer'
_symmetry_space_group_name_H-M	'P1'
_symmetry_Int_Tables_number	1
_symmetry_cell_setting	triclinic
loop_
_symmetry_equiv_pos_as_xyz
  x,y,z
_cell_length_a	6.817900
_cell_length_b	19.453172
_cell_length_c	19.453114
_cell_angle_alpha	96.317064
_cell_angle_beta	78.290712
_cell_angle_gamma	78.289512
loop_
_atom_site_label
_atom_site_type_symbol
_atom_site_fract_x
_atom_site_fract_y
_atom_site_fract_z
V1	V	3.998005	-0.097914	-0.219330
V2	V	4.498005	0.402086	0.280670
O3	O	3.995098	0.003953	-0.214817
O4	O	4.495098	0.503953	0.285183
O5	O	3.941032	-0.193423	-0.218154
O6	O	4.441032	0.306577	0.281846
O7	O	3.941025	-0.096738	-0.314839
O8	O	4.441025	0.403262	0.185161
O9	O	3.995104	-0.093402	-0.117463
O10	O	4.495104	0.406598	0.382537
V11	V	4.483855	-0.085691	-0.207106
V12	V	4.983855	0.414309	0.292894
O13	O	4.254158	-0.124727	-0.246143
O14	O	4.754158	0.375273	0.253857
O15	O	4.677900	-0.058877	-0.180293
O16	O	5.177900	0.441123	0.319707
O17	O	4.317622	0.009819	-0.208281
O18	O	4.817622	0.509819	0.291719
O19	O	4.604159	-0.187557	-0.211619
O20	O	5.104159	0.312443	0.288381
O21	O	4.604153	-0.090203	-0.308973
O22	O	5.104153	0.409797	0.191027
O23	O	4.317628	-0.086867	-0.111597
O24	O	4.817628	0.413133	0.388403
C25	C	3.784225	-0.216696	-0.214778
C26	C	4.284225	0.283304	0.285222
C27	C	3.818872	-0.294778	-0.214454
C28	C	4.318872	0.205222	0.285546
C29	C	4.247899	-0.855852	-0.216325
C30	C	4.747899	-0.355852	0.283675
C31	C	4.215361	-0.782485	-0.216625
C32	C	4.715361	-0.282485	0.283375
C33	C	4.017282	-0.742102	-0.212598
C34	C	4.517282	-0.242102	0.287402
C35	C	3.851722	-0.775088	-0.208253
C36	C	4.351722	-0.275088	0.291747
C37	C	3.884261	-0.848452	-0.207947
C38	C	4.384261	-0.348452	0.292053
N39	N	3.850595	-0.630535	-0.250130
N40	N	4.350595	-0.130535	0.249870
N41	N	3.819697	-0.560842	-0.250423
N42	N	4.319697	-0.060842	0.249577
C43	C	3.919231	-0.521058	-0.213521
C44	C	4.419231	-0.021058	0.286479
N45	N	4.050866	-0.553601	-0.176325
N46	N	4.550866	-0.053601	0.323675
N47	N	4.081774	-0.623301	-0.176035
N48	N	4.581774	-0.123301	0.323965
C49	C	3.981978	-0.662549	-0.212930
C50	C	4.481978	-0.162549	0.287070
C51	C	4.049499	-0.408526	-0.218186
C52	C	4.549499	0.091474	0.281814
C53	C	4.016951	-0.335157	-0.218482
C54	C	4.516951	0.164843	0.281518
C55	C	3.653311	-0.327762	-0.210117
C56	C	4.153311	0.172238	0.289883
C57	C	3.685861	-0.401129	-0.209815
C58	C	4.185861	0.098871	0.290185
C59	C	3.883960	-0.441507	-0.213853
C60	C	4.383960	0.058493	0.286147
C61	C	3.784216	-0.093364	-0.338108
C62	C	4.284216	0.406636	0.161892
C63	C	3.818856	-0.093034	-0.416189
C64	C	4.318856	0.406966	0.083811
C65	C	4.137771	0.033088	-0.211656
C66	C	4.637771	0.533088	0.288344
C67	C	4.082361	0.111169	-0.211984
C68	C	4.582361	0.611169	0.288016
C69	C	4.016595	-0.096405	-0.456457
C70	C	4.516595	0.403595	0.043543
C71	C	4.049143	-0.096096	-0.529823
C72	C	4.549143	0.403904	-0.029823
C73	C	3.883948	-0.092429	-0.562920
C74	C	4.383948	0.407571	-0.062920
C75	C	3.686179	-0.089054	-0.522641
C76	C	4.186179	0.410946	-0.022641
C77	C	3.653632	-0.089356	-0.449276
C78	C	4.153632	0.410644	0.050724
N79	N	3.820875	-0.129523	-0.681834
N80	N	4.320875	0.370477	-0.181834
N81	N	3.851806	-0.129238	-0.751529
N82	N	4.351806	0.370762	-0.251529
C83	C	3.981996	-0.091516	-0.783965
C84	C	4.481996	0.408484	-0.283965
N85	N	4.080122	-0.054100	-0.744076
N86	N	4.580122	0.445900	-0.244076
N87	N	4.049196	-0.054389	-0.674375
N88	N	4.549196	0.445611	-0.174375
C89	C	3.919218	-0.092100	-0.642472
C90	C	4.419218	0.407900	-0.142472
C91	C	4.215040	-0.094551	-0.903785
C92	C	4.715040	0.405449	-0.403785
C93	C	4.247579	-0.094237	-0.977151
C94	C	4.747579	0.405763	-0.477151
C95	C	3.884612	-0.087202	-0.969969
C96	C	4.384612	0.412798	-0.469969
C97	C	3.852075	-0.087509	-0.896603
C98	C	4.352075	0.412491	-0.396603
C99	C	4.017299	-0.091187	-0.863516
C100	C	4.517299	0.408813	-0.363516
C101	C	4.137780	-0.090243	-0.088324
C102	C	4.637780	0.409757	0.411676
C103	C	4.082379	-0.090569	-0.010242
C104	C	4.582379	0.409431	0.489758
H105	H	3.492031	-0.294882	-0.206836
H106	H	3.992031	0.205118	0.293164
H107	H	4.408603	-0.096977	-1.009936
H108	H	4.908603	0.403023	-0.509936
H109	H	3.691060	-0.084772	-0.863817
H110	H	4.191060	0.415228	-0.363817
H111	H	4.210174	-0.098844	-0.562617
H112	H	4.710174	0.401156	-0.062617
O113	O	4.461547	-0.899403	-0.220665
O114	O	4.961547	-0.399403	0.279335
H115	H	4.571184	-0.864138	-0.223725
H116	H	5.071184	-0.364138	0.276275
O117	O	4.393224	-0.098501	-0.868090
O118	O	4.893224	0.401499	-0.368090
H119	H	4.511542	-0.148245	-0.891557
H120	H	5.011542	0.351755	-0.391557
O121	O	4.194778	-0.100351	-0.420766
O122	O	4.694778	0.399649	0.079234
H123	H	4.337746	-0.102633	-0.461096
H124	H	4.837746	0.397367	0.038904
O125	O	4.393911	-0.746904	-0.221319
O126	O	4.893911	-0.246904	0.278681
H127	H	4.537129	-0.787308	-0.224082
H128	H	5.037129	-0.287308	0.275918
O129	O	3.706117	-0.083369	-1.005490
O130	O	4.206117	0.416631	-0.505490
H131	H	3.686640	-0.034976	-1.031125
H132	H	4.186640	0.465024	-0.531125
H133	H	4.151759	-0.308307	-0.222013
H134	H	4.651759	0.191693	0.277987
H135	H	3.749455	-0.875303	-0.204414
H136	H	4.249455	-0.375303	0.295586
O137	O	3.638080	-0.731539	-0.203919
O138	O	4.138080	-0.231539	0.296081
H139	H	3.643266	-0.674984	-0.204871
H140	H	4.143266	-0.174984	0.295129
H141	H	4.210802	-0.441404	-0.221470
H142	H	4.710802	0.058596	0.278530
H143	H	3.551676	-0.086067	-0.549593
H144	H	4.051676	0.413933	-0.049593
H145	H	3.551061	-0.427980	-0.206283
H146	H	4.051061	0.072020	0.293717
O147	O	3.440353	-0.085722	-0.405832
O148	O	3.940353	0.414278	0.094168
H149	H	3.384601	-0.132100	-0.425843
H150	H	3.884601	0.367900	0.074157
