data_functionalizedCrystal
_audit_creation_method	'MofGen! by Chris Wilmer'
_symmetry_space_group_name_H-M	'P1'
_symmetry_Int_Tables_number	1
_symmetry_cell_setting	triclinic
loop_
_symmetry_equiv_pos_as_xyz
  x,y,z
_cell_length_a	16.120530
_cell_length_b	16.120484
_cell_length_c	16.120339
_cell_angle_alpha	89.785998
_cell_angle_beta	89.818868
_cell_angle_gamma	90.167327
loop_
_atom_site_label
_atom_site_type_symbol
_atom_site_fract_x
_atom_site_fract_y
_atom_site_fract_z
Zn1	Zn	1.228138	-0.365914	-0.552155
Zn2	Zn	1.561471	-0.032581	-0.218822
Zn3	Zn	1.894805	0.300753	0.114511
Zn4	Zn	1.227280	-0.512076	-0.420096
Zn5	Zn	1.560613	-0.178742	-0.086763
Zn6	Zn	1.893947	0.154591	0.246571
Zn7	Zn	1.096044	-0.366735	-0.406101
Zn8	Zn	1.429377	-0.033402	-0.072768
Zn9	Zn	1.762710	0.299931	0.260566
Zn10	Zn	1.082026	-0.497908	-0.551396
Zn11	Zn	1.415360	-0.164575	-0.218063
Zn12	Zn	1.748693	0.168759	0.115270
O13	O	1.158372	-0.435658	-0.482437
O14	O	1.491705	-0.102325	-0.149104
O15	O	1.825039	0.231008	0.184230
O16	O	1.344095	-0.390888	-0.540812
O17	O	1.677429	-0.057555	-0.207478
O18	O	2.010762	0.275779	0.125855
O19	O	1.215378	-0.499069	-0.302165
O20	O	1.548712	-0.165735	0.031168
O21	O	1.882045	0.167598	0.364501
O22	O	1.119792	-0.250561	-0.419936
O23	O	1.453125	0.082772	-0.086603
O24	O	1.786459	0.416105	0.246731
O25	O	1.343465	-0.498272	-0.443788
O26	O	1.676798	-0.164939	-0.110455
O27	O	2.010131	0.168394	0.222878
O28	O	1.216841	-0.249958	-0.527241
O29	O	1.550174	0.083376	-0.193908
O30	O	1.883508	0.416709	0.139425
O31	O	1.118960	-0.392288	-0.291883
O32	O	1.452293	-0.058955	0.041450
O33	O	1.785626	0.274379	0.374783
O34	O	0.978113	-0.378550	-0.419200
O35	O	1.311447	-0.045217	-0.085867
O36	O	1.644780	0.288116	0.247467
O37	O	1.095901	-0.474126	-0.667571
O38	O	1.429235	-0.140793	-0.334237
O39	O	1.762568	0.192541	-0.000904
O40	O	0.967815	-0.474922	-0.525948
O41	O	1.301148	-0.141589	-0.192615
O42	O	1.634482	0.191744	0.140719
O43	O	1.203249	-0.377151	-0.668128
O44	O	1.536582	-0.043817	-0.334795
O45	O	1.869915	0.289516	-0.001462
O46	O	1.201786	-0.626261	-0.443052
O47	O	1.535120	-0.292928	-0.109719
O48	O	1.868453	0.040405	0.223614
O49	O	1.095069	-0.615853	-0.539518
O50	O	1.428403	-0.282519	-0.206185
O51	O	1.761736	0.050814	0.127148
C52	C	0.942868	-0.425289	-0.470974
C53	C	1.276201	-0.091955	-0.137640
C54	C	1.609535	0.241378	0.195693
C55	C	0.850673	-0.420871	-0.466090
C56	C	1.184006	-0.087538	-0.132757
C57	C	1.517339	0.245795	0.200577
C58	C	0.681870	-0.412787	-0.457180
C59	C	1.015204	-0.079454	-0.123847
C60	C	1.348537	0.253880	0.209486
C61	C	0.635708	-0.458587	-0.507757
C62	C	0.969041	-0.125254	-0.174424
C63	C	1.302375	0.208079	0.158909
C64	C	0.541781	-0.454089	-0.502800
C65	C	0.875114	-0.120756	-0.169467
C66	C	1.208447	0.212577	0.163867
C67	C	0.775806	-0.417284	-0.462137
C68	C	1.109140	-0.083951	-0.128803
C69	C	1.442473	0.249383	0.204530
C70	C	1.146835	-0.651152	-0.492741
C71	C	1.480169	-0.317818	-0.159408
C72	C	1.813502	0.015515	0.173926
C73	C	1.141974	-0.743343	-0.497181
C74	C	1.475308	-0.410009	-0.163847
C75	C	1.808641	-0.076676	0.169486
C76	C	1.133103	-0.912137	-0.505304
C77	C	1.466437	-0.578803	-0.171971
C78	C	1.799770	-0.245470	0.161363
C79	C	1.183789	-0.958346	-0.459592
C80	C	1.517122	-0.625012	-0.126258
C81	C	1.850455	-0.291679	0.207075
C82	C	1.178853	-1.052268	-0.464112
C83	C	1.512186	-0.718935	-0.130778
C84	C	1.845520	-0.385602	0.202555
C85	C	1.138038	-0.818205	-0.500785
C86	C	1.471371	-0.484872	-0.167452
C87	C	1.804705	-0.151539	0.165882
C88	C	1.374717	-0.446069	-0.493946
C89	C	1.708051	-0.112736	-0.160612
C90	C	2.041384	0.220598	0.172721
C91	C	1.466911	-0.450505	-0.498850
C92	C	1.800244	-0.117172	-0.165517
C93	C	2.133578	0.216161	0.167816
C94	C	1.148107	-0.423966	-0.698788
C95	C	1.481440	-0.090633	-0.365454
C96	C	1.814774	0.242700	-0.032121
C97	C	1.143733	-0.418984	-0.790984
C98	C	1.477066	-0.085651	-0.457650
C99	C	1.810400	0.247683	-0.124317
C100	C	1.169976	-0.219324	-0.472112
C101	C	1.503309	0.114010	-0.138779
C102	C	1.836642	0.447343	0.194554
C103	C	1.174920	-0.127135	-0.467713
C104	C	1.508254	0.206199	-0.134379
C105	C	1.841587	0.539532	0.198954
C106	C	1.168648	-0.447247	-0.266928
C107	C	1.501981	-0.113914	0.066406
C108	C	1.835315	0.219419	0.399739
C109	C	1.173195	-0.452004	-0.174730
C110	C	1.506529	-0.118670	0.158604
C111	C	1.839862	0.214663	0.491937
C112	C	1.135427	-0.410305	0.040209
C113	C	1.468760	-0.076972	0.373542
C114	C	1.802093	0.256362	0.706876
C115	C	1.181499	-0.460680	-0.005927
C116	C	1.514833	-0.127347	0.327406
C117	C	1.848166	0.205987	0.660739
C118	C	1.176878	-0.455851	-0.099858
C119	C	1.510211	-0.122518	0.233476
C120	C	1.843544	0.210816	0.566809
C121	C	1.140047	-0.415133	0.134148
C122	C	1.473381	-0.081799	0.467481
C123	C	1.806714	0.251534	0.800815
H124	H	0.666729	-0.501176	-0.554782
H125	H	1.000062	-0.167842	-0.221449
H126	H	1.333396	0.165491	0.111885
H127	H	1.086007	-0.943113	-0.547830
H128	H	1.419340	-0.609779	-0.214496
H129	H	1.752673	-0.276446	0.118837
C130	C	0.639964	-0.355258	-0.393654
C131	C	0.973298	-0.021925	-0.060320
C132	C	1.306631	0.311408	0.273013
N133	N	0.608391	-0.311931	-0.345804
N134	N	0.941724	0.021402	-0.012470
N135	N	1.275058	0.354735	0.320863
H136	H	1.092514	-0.363555	0.009166
H137	H	1.425848	-0.030222	0.342499
H138	H	1.759181	0.303112	0.675832
H139	H	1.230888	-0.927368	-0.417061
H140	H	1.564221	-0.594034	-0.083728
H141	H	1.897555	-0.260701	0.249605
H142	H	1.224414	-0.507435	0.025118
H143	H	1.557747	-0.174101	0.358451
H144	H	1.891081	0.159232	0.691785
