data_functionalizedCrystal
_audit_creation_method	'MofGen! by Chris Wilmer'
_symmetry_space_group_name_H-M	'P1'
_symmetry_Int_Tables_number	1
_symmetry_cell_setting	triclinic
loop_
_symmetry_equiv_pos_as_xyz
  x,y,z
_cell_length_a	8.634740
_cell_length_b	23.532407
_cell_length_c	7.088929
_cell_angle_alpha	83.810936
_cell_angle_beta	97.174675
_cell_angle_gamma	91.709492
loop_
_atom_site_label
_atom_site_type_symbol
_atom_site_fract_x
_atom_site_fract_y
_atom_site_fract_z
O1	O	2.027307	0.190506	-0.159051
O2	O	1.578593	0.174949	-0.159048
O3	O	1.816484	0.100566	-0.159015
O4	O	1.789416	0.264890	-0.159084
O5	O	1.848277	0.090599	0.158965
O6	O	1.610386	0.164982	0.158932
O7	O	2.059099	0.180539	0.158929
Cu8	Cu	1.837645	0.171851	0.187964
Cu9	Cu	1.800047	0.183638	-0.188084
O10	O	1.821208	0.254923	0.158895
C11	C	1.537093	0.166442	-0.000057
C12	C	1.366071	0.155934	-0.000055
C13	C	1.831692	0.074327	-0.000020
C14	C	1.829622	0.010991	-0.000005
C15	C	1.957393	-0.380830	-0.000111
C16	C	1.955466	-0.440339	-0.000125
O17	O	2.073914	-0.470334	-0.000196
N18	N	1.814042	-0.471021	-0.000123
C19	C	1.674534	-0.442190	-0.000126
O20	O	1.554064	-0.473752	-0.000127
C21	C	1.676460	-0.382682	-0.000125
C22	C	1.817895	-0.352003	-0.000108
C23	C	2.098816	-0.350151	-0.000096
C24	C	2.100742	-0.290646	-0.000078
C25	C	1.961244	-0.261819	-0.000075
C26	C	1.819821	-0.292498	-0.000090
C27	C	1.536951	-0.353851	-0.000141
C28	C	1.538890	-0.294338	-0.000142
C29	C	1.680325	-0.263660	-0.000125
C30	C	1.682249	-0.204166	-0.000068
N31	N	1.823673	-0.173484	-0.000071
C32	C	1.963171	-0.202311	-0.000074
C33	C	1.670498	-0.567163	-0.000131
C34	C	1.668572	-0.626671	-0.000118
C35	C	1.949505	-0.624815	-0.000121
C36	C	1.951431	-0.565306	-0.000120
C37	C	1.811922	-0.536480	-0.000133
C38	C	1.967205	-0.077345	-0.000034
C39	C	1.969119	-0.017835	-0.000008
C40	C	1.688186	-0.019696	-0.000015
C41	C	1.686272	-0.079201	-0.000031
C42	C	1.825793	-0.108024	-0.000047
O43	O	1.563863	-0.174133	-0.000005
O44	O	2.083618	-0.170741	-0.000098
C45	C	2.100598	0.189047	-0.000066
C46	C	2.271619	0.199555	-0.000081
C47	C	1.806000	0.281162	-0.000104
C48	C	1.808069	0.344498	-0.000131
N49	N	1.864101	0.163561	0.452456
N50	N	1.773604	0.191924	-0.452575
H51	H	1.321594	0.244940	-0.000083
H52	H	1.316086	0.110547	-0.000090
O53	O	2.106642	0.011881	-0.000084
C54	C	2.229352	-0.026329	-0.000050
H55	H	2.180772	-0.067129	-0.060261
H56	H	2.318919	-0.005591	-0.092366
H57	H	2.287590	-0.037165	0.152498
H58	H	2.066600	-0.540332	-0.000108
O59	O	1.661675	0.227030	0.450314
C60	C	1.581788	0.252050	0.581375
H61	H	1.659134	0.251702	0.724102
H62	H	1.551987	0.298016	0.523375
H63	H	1.469647	0.226664	0.602626
H64	H	1.957907	0.134171	0.534125
O65	O	2.102660	-0.105410	0.000214
C66	C	2.126445	-0.144937	0.164917
H67	H	2.009690	-0.156388	0.219809
H68	H	2.180859	-0.185225	0.127876
H69	H	2.208016	-0.125162	0.280246
O70	O	2.238010	-0.260779	-0.000341
C71	C	2.231085	-0.221145	-0.165053
H72	H	2.103930	-0.211302	-0.219942
H73	H	2.295618	-0.180073	-0.128025
H74	H	2.288105	-0.240010	-0.280379
O75	O	2.234413	-0.378076	-0.000347
C76	C	2.303855	-0.357808	-0.165047
H77	H	2.259798	-0.313145	-0.219963
H78	H	2.436121	-0.356075	-0.127992
H79	H	2.271802	-0.387813	-0.280362
H80	H	2.063090	-0.648296	-0.000131
O81	O	1.531040	-0.656379	-0.000198
C82	C	1.408346	-0.618169	-0.000139
H83	H	1.444893	-0.573589	-0.060327
H84	H	1.300313	-0.633107	-0.092462
H85	H	1.380616	-0.616915	0.152414
O86	O	1.399633	-0.383680	0.000160
C87	C	1.406547	-0.423341	0.164803
H88	H	1.498336	-0.408504	0.279937
H89	H	1.287806	-0.426563	0.220049
H90	H	1.439087	-0.467025	0.127561
O91	O	1.548742	-0.108916	-0.000126
C92	C	1.426038	-0.070711	-0.000063
H93	H	1.462582	-0.026127	-0.060227
H94	H	1.318015	-0.085647	-0.092405
H95	H	1.398295	-0.069463	0.152488
O96	O	1.552817	0.008404	-0.000099
C97	C	1.584867	0.067504	-0.000042
H98	H	1.699838	0.078310	-0.060225
H99	H	1.486677	0.092432	-0.092370
H100	H	1.594001	0.079559	0.152509
H101	H	1.556888	-0.543697	-0.000125
O102	O	1.403492	-0.266283	0.000105
C103	C	1.412633	-0.237100	0.164821
H104	H	1.540363	-0.229102	0.219738
H105	H	1.350827	-0.194484	0.127788
H106	H	1.354103	-0.264115	0.280128
