data_functionalizedCrystal
_audit_creation_method	'MofGen! by Chris Wilmer'
_symmetry_space_group_name_H-M	'P1'
_symmetry_Int_Tables_number	1
_symmetry_cell_setting	triclinic
loop_
_symmetry_equiv_pos_as_xyz
  x,y,z
_cell_length_a	8.965430
_cell_length_b	11.026607
_cell_length_c	11.026607
_cell_angle_alpha	108.586017
_cell_angle_beta	90.002489
_cell_angle_gamma	89.995808
loop_
_atom_site_label
_atom_site_type_symbol
_atom_site_fract_x
_atom_site_fract_y
_atom_site_fract_z
O1	O	0.124036	-1.726731	-0.533614
O2	O	0.124038	-1.360151	-0.472850
O3	O	0.124032	-1.513059	-0.319942
O4	O	0.124042	-1.573823	-0.686522
O5	O	-0.124047	-1.513046	-0.319952
O6	O	-0.124041	-1.360137	-0.472860
O7	O	-0.124043	-1.726717	-0.533623
Cu8	Cu	-0.146694	-1.543426	-0.503242
Cu9	Cu	0.146688	-1.543442	-0.503231
O10	O	-0.124037	-1.573809	-0.686532
C11	C	-0.000001	-1.312485	-0.461645
C12	C	-0.000000	-1.170471	-0.428228
C13	C	-0.000006	-1.501843	-0.272287
C14	C	-0.000000	-1.468426	-0.130273
N15	N	-0.353043	-1.543424	-0.503252
C16	C	-0.450346	-1.472675	-0.573931
C17	C	-0.549759	-1.593231	-0.623813
C18	C	-0.549756	-1.422919	-0.453390
C19	C	-0.450268	-1.664050	-0.553204
C20	C	-0.450256	-1.493652	-0.382715
C21	C	-0.549625	-1.614280	-0.432566
N22	N	0.353038	-1.543452	-0.503214
C23	C	-0.000001	-1.774384	-0.544828
C24	C	0.000008	-1.916398	-0.578245
C25	C	0.000003	-1.116821	-0.520498
C26	C	0.000004	-0.970043	-0.485962
C27	C	0.000004	-1.585026	-0.734187
C28	C	0.000008	-1.618443	-0.876200
C29	C	0.000001	-1.560695	-0.076624
C30	C	0.000007	-1.526160	0.070155
H31	H	-0.593465	-1.635347	-0.725736
C32	C	-0.000005	-1.701953	-0.161359
H33	H	-0.000019	-1.706633	-0.248895
H34	H	0.086502	-1.743195	-0.143735
H35	H	-0.086530	-1.743175	-0.143734
H36	H	0.000120	-1.723013	0.061072
H37	H	0.000017	-1.421590	0.132884
H38	H	-0.592942	-1.674205	-0.372793
C39	C	-0.000005	-1.085741	-0.286969
H40	H	-0.000017	-1.138434	-0.233558
H41	H	0.086503	-1.033267	-0.270092
H42	H	-0.086529	-1.033265	-0.270103
C43	C	0.000002	-1.327168	-0.045538
H44	H	-0.000004	-1.322488	0.041998
H45	H	0.086510	-1.285938	-0.063165
H46	H	-0.086522	-1.285934	-0.063162
C47	C	0.000009	-1.201557	-0.661756
H48	H	0.000019	-1.289092	-0.666436
H49	H	-0.086496	-1.183927	-0.702995
H50	H	0.086536	-1.183937	-0.702980
H51	H	0.000001	-0.979125	-0.682816
C52	C	-0.391436	-1.391965	-0.654779
H53	H	-0.333138	-1.323199	-0.602401
H54	H	-0.331678	-1.444043	-0.722606
H55	H	-0.473161	-1.358842	-0.689192
C56	C	-0.391492	-1.801799	-0.610327
H57	H	-0.285530	-1.800943	-0.610036
H58	H	-0.426275	-1.852179	-0.560498
H59	H	-0.426391	-1.837246	-0.695712
C60	C	-0.391146	-1.436725	-0.245064
H61	H	-0.332834	-1.498986	-0.223759
H62	H	-0.331361	-1.363907	-0.239014
H63	H	-0.472786	-1.412171	-0.187490
H64	H	0.000040	-0.907314	-0.381393
C65	C	-0.608777	-1.285232	-0.396427
H66	H	-0.574763	-1.235076	-0.446759
H67	H	-0.714722	-1.286280	-0.396090
H68	H	-0.573223	-1.249386	-0.311295
