data_functionalizedCrystal
_audit_creation_method	'MofGen! by Chris Wilmer'
_symmetry_space_group_name_H-M	'P1'
_symmetry_Int_Tables_number	1
_symmetry_cell_setting	triclinic
loop_
_symmetry_equiv_pos_as_xyz
  x,y,z
_cell_length_a	10.654541
_cell_length_b	17.038272
_cell_length_c	9.130307
_cell_angle_alpha	89.996293
_cell_angle_beta	89.999822
_cell_angle_gamma	87.797742
loop_
_atom_site_label
_atom_site_type_symbol
_atom_site_fract_x
_atom_site_fract_y
_atom_site_fract_z
O1	O	1.678040	0.109868	-0.121756
O2	O	2.178040	0.609868	0.378244
O3	O	1.313534	0.120338	-0.121769
O4	O	1.813534	0.620338	0.378231
O5	O	1.493621	0.001275	-0.121751
O6	O	1.993621	0.501275	0.378249
O7	O	1.497953	0.228930	-0.121774
O8	O	1.997953	0.728930	0.378226
O9	O	1.493614	0.001274	0.121848
O10	O	1.993614	0.501274	0.621848
O11	O	1.313527	0.120337	0.121830
O12	O	1.813527	0.620337	0.621830
O13	O	1.678034	0.109867	0.121843
O14	O	2.178034	0.609867	0.621843
Cu15	Cu	1.495780	0.115102	0.144079
Cu16	Cu	1.995780	0.615102	0.644079
Cu17	Cu	1.495788	0.115103	-0.144005
Cu18	Cu	1.995788	0.615103	0.355995
O19	O	1.497947	0.228929	0.121825
O20	O	1.997947	0.728929	0.621825
C21	C	1.266661	0.119569	0.000029
C22	C	1.766661	0.619569	0.500029
C23	C	1.127004	0.117270	0.000024
C24	C	1.627004	0.617270	0.500024
C25	C	1.112253	0.259642	-0.000008
C26	C	1.612253	0.759642	0.499992
C27	C	1.039268	0.329744	-0.000031
C28	C	1.539268	0.829744	0.499969
C29	C	0.908049	0.327580	-0.000032
C30	C	1.408049	0.827580	0.499968
C31	C	0.849813	0.255304	-0.000006
C32	C	1.349813	0.755304	0.499994
C33	C	0.922798	0.185202	0.000016
C34	C	1.422798	0.685202	0.500016
C35	C	1.054019	0.187374	0.000013
C36	C	1.554019	0.687374	0.500013
C37	C	0.937548	0.042832	0.000059
C38	C	1.437548	0.542832	0.500059
C39	C	1.068768	0.044995	0.000050
C40	C	1.568768	0.544995	0.500050
C41	C	0.879312	-0.029443	0.000084
C42	C	1.379312	0.470557	0.500084
C43	C	0.952297	-0.099548	0.000096
C44	C	1.452297	0.400452	0.500096
C45	C	1.083524	-0.097380	0.000096
C46	C	1.583524	0.402620	0.500096
C47	C	1.141753	-0.025108	0.000072
C48	C	1.641753	0.474892	0.500072
C49	C	1.489677	-0.027875	0.000048
C50	C	1.989677	0.472125	0.500048
C51	C	1.477920	-0.114734	0.000047
C52	C	1.977920	0.385266	0.500047
C53	C	1.585864	-0.164246	0.000053
C54	C	2.085864	0.335754	0.500053
C55	C	1.574809	-0.245858	0.000038
C56	C	2.074809	0.254142	0.500038
C57	C	1.455809	-0.277957	0.000029
C58	C	1.955809	0.222043	0.500029
C59	C	1.347857	-0.228439	0.000019
C60	C	1.847857	0.271561	0.500019
C61	C	1.358913	-0.146828	0.000023
C62	C	1.858913	0.353172	0.500023
C63	C	1.416751	-0.523933	0.000008
C64	C	1.916751	-0.023933	0.500008
C65	C	1.405704	-0.605550	0.000008
C66	C	1.905704	-0.105550	0.500008
C67	C	1.632657	-0.622963	0.000025
C68	C	2.132657	-0.122963	0.500025
C69	C	1.643703	-0.541350	0.000037
C70	C	2.143703	-0.041350	0.500037
C71	C	1.535750	-0.491839	0.000020
C72	C	2.035750	0.008161	0.500020
C73	C	1.444507	-0.361377	0.000019
C74	C	1.944507	0.138623	0.500019
C75	C	1.547054	-0.408420	0.000019
C76	C	2.047054	0.091580	0.500019
C77	C	1.724907	0.110635	0.000042
C78	C	2.224907	0.610635	0.500042
C79	C	1.864564	0.112934	0.000037
C80	C	2.364564	0.612934	0.500037
C81	C	1.501891	0.258080	0.000022
C82	C	2.001891	0.758080	0.500022
C83	C	1.513648	0.344939	0.000014
C84	C	2.013648	0.844939	0.500014
N85	N	1.495784	0.115100	0.346702
N86	N	1.995784	0.615100	0.846702
N87	N	1.495793	0.115098	-0.346628
N88	N	1.995793	0.615098	0.153372
C89	C	1.655324	0.009701	0.346708
C90	C	2.155324	0.509701	0.846708
C91	C	1.735102	-0.042996	0.423377
C92	C	2.235102	0.457004	0.923377
C93	C	1.735114	-0.042997	0.576711
C94	C	2.235114	0.457003	1.076711
C95	C	1.655337	0.009704	0.653378
C96	C	2.155337	0.509704	1.153378
C97	C	1.575559	0.062402	0.576708
C98	C	2.075559	0.562402	1.076708
C99	C	1.575558	0.062398	0.423371
C100	C	2.075558	0.562398	0.923371
C101	C	1.416015	0.167796	0.576702
C102	C	1.916015	0.667796	1.076702
C103	C	1.416007	0.167801	0.423369
C104	C	1.916007	0.667801	0.923369
C105	C	1.336238	0.220496	0.653370
C106	C	1.836238	0.720496	1.153370
C107	C	1.256464	0.273199	0.576700
C108	C	1.756464	0.773199	1.076700
C109	C	1.256456	0.273198	0.423357
C110	C	1.756456	0.773198	0.923357
C111	C	1.336228	0.220498	0.346699
C112	C	1.836228	0.720498	0.846699
H113	H	0.848624	0.384663	-0.000040
H114	H	1.348624	0.884663	0.499960
F115	F	1.171536	0.329283	0.341772
F116	F	1.671536	0.829283	0.841772
H117	H	1.662709	-0.286168	0.000046
H118	H	2.162709	0.213832	0.500046
F119	F	1.101256	0.406661	-0.000058
F120	F	1.601256	0.906661	0.499942
F121	F	1.336244	0.220492	0.816561
F122	F	1.836244	0.720492	1.316561
H123	H	1.800053	-0.085906	0.360942
H124	H	2.300053	0.414094	0.860942
H125	H	1.219098	0.261412	-0.000040
H126	H	1.719098	0.761412	0.499960
H127	H	1.328848	-0.483630	-0.000006
H128	H	1.828848	0.016370	0.499994
F129	F	0.710157	0.253004	0.000015
F130	F	1.210157	0.753004	0.500015
H131	H	1.800072	-0.085910	0.639135
H132	H	2.300072	0.414090	1.139135
H133	H	1.308795	-0.631681	0.000025
H134	H	1.808795	-0.131681	0.500025
F135	F	1.171561	0.329276	0.658300
F136	F	1.671561	0.829276	1.158300
F137	F	1.221207	-0.262603	-0.000007
F138	F	1.721207	0.237397	0.499993
F139	F	1.336232	0.220495	0.183508
F140	F	1.836232	0.720495	0.683508
F141	F	1.747539	-0.675662	0.000041
F142	F	2.247539	-0.175662	0.500041
F143	F	1.712521	-0.130092	0.000077
F144	F	2.212521	0.369908	0.500077
F145	F	1.244023	-0.094134	0.000013
F146	F	1.744023	0.405866	0.500013
H147	H	0.772466	-0.031201	0.000091
H148	H	1.272466	0.468799	0.500091
H149	H	1.142941	-0.154466	0.000119
H150	H	1.642941	0.345534	0.500119
H151	H	0.904870	-0.158388	0.000115
H152	H	1.404870	0.341612	0.500115
H153	H	1.643943	-0.382282	-0.000006
H154	H	2.143943	0.117718	0.499994
H155	H	1.248597	-0.023336	0.000054
H156	H	1.748597	0.476664	0.500054
H157	H	1.347616	-0.387521	0.000015
H158	H	1.847616	0.112479	0.500015
F159	F	1.770359	-0.507195	0.000010
F160	F	2.270359	-0.007195	0.500010
H161	H	1.655332	0.009703	0.221856
H162	H	2.155332	0.509703	0.721856
F163	F	1.655338	0.009693	0.816570
F164	F	2.155338	0.509693	1.316570
