data_functionalizedCrystal
_audit_creation_method	'MofGen! by Chris Wilmer'
_symmetry_space_group_name_H-M	'P1'
_symmetry_Int_Tables_number	1
_symmetry_cell_setting	triclinic
loop_
_symmetry_equiv_pos_as_xyz
  x,y,z
_cell_length_a	14.519731
_cell_length_b	15.625950
_cell_length_c	14.185569
_cell_angle_alpha	120.545593
_cell_angle_beta	103.175552
_cell_angle_gamma	96.021155
loop_
_atom_site_label
_atom_site_type_symbol
_atom_site_fract_x
_atom_site_fract_y
_atom_site_fract_z
O1	O	-0.023873	1.290708	0.385934
O2	O	-0.064419	1.002657	0.281190
O3	O	0.090786	1.154307	0.336327
O4	O	-0.179078	1.139058	0.330797
O5	O	0.136630	1.199106	0.519450
O6	O	-0.018575	1.047456	0.464313
O7	O	0.021971	1.335507	0.569056
Cu8	Cu	0.005884	1.195572	0.533405
Cu9	Cu	-0.048332	1.142592	0.316841
O10	O	-0.133233	1.183857	0.513919
C11	C	-0.044200	0.988192	0.359346
C12	C	-0.052245	0.878345	0.319402
C13	C	0.046160	0.639047	0.686996
C14	C	0.038569	0.535814	0.649411
C15	C	-0.011404	0.487028	0.449797
C16	C	-0.003823	0.590257	0.487365
C17	C	0.024961	0.666260	0.605966
C18	C	-0.025022	0.617471	0.406335
C19	C	-0.017435	0.720692	0.443901
C20	C	0.011350	0.796700	0.562497
C21	C	0.032547	0.769481	0.643532
C22	C	-0.053798	0.541467	0.287735
C23	C	-0.074997	0.568681	0.206705
C24	C	-0.067418	0.671903	0.244270
C25	C	-0.038633	0.747911	0.362866
C26	C	-0.088615	0.699121	0.163235
C27	C	-0.081029	0.802343	0.200801
C28	C	-0.031046	0.851132	0.400432
C29	C	-0.190449	1.162173	0.422620
C30	C	-0.292632	1.164316	0.423404
C31	C	-0.375619	1.166055	0.424033
C32	C	-0.479731	1.168227	0.424813
C33	C	-0.562715	1.169950	0.425432
C34	C	-0.666834	1.172122	0.426214
C35	C	0.148001	1.175991	0.427624
C36	C	0.250182	1.173846	0.426832
C37	C	0.001752	1.349972	0.490898
C38	C	0.009795	1.459817	0.530835
N39	N	0.044018	1.232842	0.685727
N40	N	-0.086458	1.105330	0.164523
C41	C	-0.198455	0.995830	0.967203
C42	C	-0.169575	1.024068	1.082492
C43	C	-0.032185	1.158382	1.131287
C44	C	-0.061052	1.130151	1.015999
C45	C	-0.144188	1.048875	0.933966
C46	C	-0.006784	1.183196	0.982761
C47	C	-0.035651	1.154971	0.867485
C48	C	-0.118786	1.073701	0.785446
C49	C	-0.173055	1.020650	0.818689
C50	C	0.076348	1.264477	1.064798
C51	C	0.130615	1.317522	1.031560
C52	C	0.101753	1.289292	0.916280
C53	C	0.018618	1.208022	0.834241
C54	C	0.156022	1.342343	0.883037
C55	C	0.127155	1.314118	0.767760
C56	C	-0.010249	1.179797	0.718965
H57	H	0.017527	0.880749	0.593081
C58	C	-0.106659	0.485068	0.076247
N59	N	-0.130510	0.422091	-0.022017
H60	H	0.069584	0.700932	0.783572
C61	C	-0.104357	0.832278	0.111663
N62	N	-0.121927	0.854825	0.044522
H63	H	-0.077941	1.113607	0.652166
C64	C	-0.120268	0.615508	0.032778
N65	N	-0.144109	0.552530	-0.065484
H66	H	-0.059979	0.457419	0.257152
C67	C	-0.150540	1.042651	0.658637
N68	N	-0.174455	1.019263	0.563123
H69	H	-0.240747	0.954460	0.751890
H70	H	-0.213775	0.980866	1.109544
H71	H	-0.266147	0.929640	0.900404
H72	H	0.171345	1.357314	0.740700
H73	H	0.035503	1.224560	1.198092
H74	H	0.099845	1.287457	1.158663
H75	H	0.198304	1.383700	1.098365
C76	C	0.061894	0.505887	0.738561
N77	N	0.079465	0.483347	0.805708
C78	C	0.247466	1.431748	0.973289
N79	N	0.316345	1.499088	1.041266
C80	C	0.064205	0.853090	0.774000
N81	N	0.088051	0.916064	0.872264
H82	H	-0.007622	0.913017	0.497008
H83	H	-0.034836	0.425134	0.353232
