data_functionalizedCrystal
_audit_creation_method	'MofGen! by Chris Wilmer'
_symmetry_space_group_name_H-M	'P1'
_symmetry_Int_Tables_number	1
_symmetry_cell_setting	triclinic
loop_
_symmetry_equiv_pos_as_xyz
  x,y,z
_cell_length_a	21.295417
_cell_length_b	21.295419
_cell_length_c	19.077271
_cell_angle_alpha	92.282974
_cell_angle_beta	87.667972
_cell_angle_gamma	90.045308
loop_
_atom_site_label
_atom_site_type_symbol
_atom_site_fract_x
_atom_site_fract_y
_atom_site_fract_z
Zn1	Zn	-0.236072	0.948014	-0.397939
Zn2	Zn	-0.345572	0.952158	-0.280233
Zn3	Zn	-0.240347	0.846978	-0.280255
Zn4	Zn	-0.341337	0.842708	-0.397891
O5	O	-0.290832	0.897465	-0.339079
O6	O	-0.250581	1.036653	-0.382335
O7	O	-0.335175	0.941728	-0.181744
O8	O	-0.151689	0.860433	-0.295895
O9	O	-0.331030	1.039698	-0.295857
O10	O	-0.148549	0.934664	-0.382357
O11	O	-0.257866	0.864452	-0.181760
O12	O	-0.253760	0.758323	-0.295848
O13	O	-0.323812	0.853155	-0.496388
O14	O	-0.327957	0.755186	-0.382275
O15	O	-0.246475	0.930523	-0.496424
O16	O	-0.433100	0.937587	-0.295811
O17	O	-0.429989	0.857174	-0.382254
C18	C	-0.290863	0.733914	-0.339059
C19	C	-0.290891	0.663945	-0.339068
C20	C	-0.454385	0.897383	-0.339040
C21	C	-0.524353	0.897406	-0.339047
C22	C	-0.249064	0.629513	-0.384166
C23	C	-0.249047	0.563770	-0.384169
C24	C	-0.290868	0.532462	-0.339080
C25	C	-0.332697	0.566903	-0.293973
C26	C	-0.332709	0.632644	-0.293967
N27	N	-0.346143	0.429385	-0.333580
N28	N	-0.346130	0.366933	-0.333590
C29	C	-0.290834	0.334387	-0.339096
N30	N	-0.235550	0.366651	-0.344605
N31	N	-0.235564	0.429109	-0.344599
C32	C	-0.290859	0.461177	-0.339082
C33	C	-0.248986	0.228669	-0.384200
C34	C	-0.248968	0.162925	-0.384198
C35	C	-0.332624	0.166059	-0.294006
C36	C	-0.332636	0.231801	-0.294004
C37	C	-0.290818	0.263102	-0.339105
C38	C	-0.558817	0.939310	-0.294082
C39	C	-0.624559	0.939339	-0.294098
C40	C	-0.655834	0.897452	-0.339071
C41	C	-0.621362	0.855544	-0.384045
C42	C	-0.555621	0.855521	-0.384033
N43	N	-0.758922	0.842192	-0.344430
N44	N	-0.821373	0.842216	-0.344438
C45	C	-0.853908	0.897521	-0.339112
N46	N	-0.821632	0.952803	-0.333764
N47	N	-0.759176	0.952778	-0.333753
C48	C	-0.727119	0.897473	-0.339090
C49	C	-0.959657	0.939461	-0.294162
C50	C	-1.025400	0.939491	-0.294183
C51	C	-1.022202	0.855691	-0.384125
C52	C	-0.956460	0.855666	-0.384108
C53	C	-0.925192	0.897551	-0.339123
C54	C	-0.126640	0.897563	-0.339134
C55	C	-0.056671	0.897604	-0.339157
C56	C	-0.290801	1.061654	-0.339099
C57	C	-0.290788	1.131622	-0.339108
C58	C	-0.284194	0.890901	-0.522658
C59	C	-0.281365	0.888103	-0.600888
C60	C	-0.261128	0.868042	-1.041243
C61	C	-0.263783	0.870673	-0.967737
C62	C	-0.305364	0.912218	-0.930975
C63	C	-0.344288	0.951139	-0.967722
C64	C	-0.341629	0.948511	-1.041227
C65	C	-0.317630	0.924396	-0.711140
C66	C	-0.320288	0.927020	-0.637630
C67	C	-0.239781	0.846554	-0.637650
C68	C	-0.237129	0.843927	-0.711156
C69	C	-0.276050	0.882850	-0.747897
N70	N	-0.308081	0.914907	-0.855840
N71	N	-0.273330	0.880164	-0.823030
C72	C	-0.297399	0.904039	-0.156215
C73	C	-0.300050	0.906958	-0.077985
H74	H	-0.215012	0.654994	-0.420891
H75	H	-0.227269	0.834209	-1.071169
C76	C	-0.220969	0.827859	-0.927324
C77	C	-0.149041	0.832674	-0.937461
C78	C	-0.106224	0.789859	-0.897050
C79	C	-0.135335	0.742228	-0.846502
C80	C	-0.207267	0.737410	-0.836362
C81	C	-0.250084	0.780226	-0.876773
H82	H	-0.127487	0.867936	-0.974882
H83	H	-0.052974	0.793425	-0.904557
H84	H	-0.103639	0.710533	-0.816587
H85	H	-0.228821	0.702149	-0.798941
H86	H	-0.303334	0.776660	-0.869267
C87	C	-0.196966	0.803745	-0.597234
C88	C	-0.199885	0.806633	-0.516382
C89	C	-0.157066	0.763822	-0.475967
C90	C	-0.111327	0.718125	-0.516403
C91	C	-0.108406	0.715235	-0.597260
C92	C	-0.151225	0.758045	-0.637675
H93	H	-0.233745	0.840463	-0.486445
H94	H	-0.159229	0.765962	-0.416111
H95	H	-0.079630	0.686434	-0.486485
H96	H	-0.074546	0.681405	-0.627197
H97	H	-0.149063	0.755906	-0.697530
H98	H	-0.934197	0.973568	-0.257534
C99	C	-0.203039	0.525884	-0.433784
C100	C	-0.157043	0.560314	-0.483393
C101	C	-0.111036	0.522430	-0.533009
C102	C	-0.111026	0.450117	-0.533017
C103	C	-0.157025	0.415684	-0.483406
C104	C	-0.203031	0.453567	-0.433790
H105	H	-0.157048	0.613848	-0.483389
H106	H	-0.076985	0.547920	-0.569734
H107	H	-0.076969	0.422073	-0.569746
H108	H	-0.157019	0.362150	-0.483410
H109	H	-0.237082	0.428077	-0.397065
C110	C	-0.378701	0.532467	-0.244376
C111	C	-0.378694	0.460154	-0.244384
C112	C	-0.424698	0.425719	-0.194783
C113	C	-0.470709	0.463598	-0.145173
C114	C	-0.470718	0.535915	-0.145163
C115	C	-0.424714	0.570350	-0.194765
H116	H	-0.344632	0.432110	-0.281110
H117	H	-0.424691	0.372185	-0.194791
H118	H	-0.504764	0.438107	-0.108456
H119	H	-0.504780	0.563958	-0.108438
H120	H	-0.424721	0.623884	-0.194757
H121	H	-0.214932	0.254156	-0.420919
H122	H	-0.527560	0.821396	-0.420649
C123	C	-0.366028	0.972726	-0.597190
C124	C	-0.408839	1.015542	-0.637601
C125	C	-0.454577	1.061243	-0.597161
C126	C	-0.457504	1.064128	-0.516309
C127	C	-0.414691	1.021311	-0.475893
C128	C	-0.368953	0.975609	-0.516334
H129	H	-0.406674	1.013407	-0.697457
H130	H	-0.486270	1.092939	-0.627080
H131	H	-0.491362	1.097959	-0.486373
H132	H	-0.416856	1.023445	-0.416038
H133	H	-0.337260	0.943913	-0.486415
H134	H	-0.366674	0.140569	-0.257293
C135	C	-0.360435	0.967231	-0.751533
C136	C	-0.432365	0.962434	-0.741402
C137	C	-0.475167	1.005282	-0.781792
C138	C	-0.446039	1.052927	-0.832313
C139	C	-0.374105	1.057725	-0.842447
C140	C	-0.331303	1.014877	-0.802057
H141	H	-0.453931	0.927163	-0.704001
H142	H	-0.528418	1.001730	-0.774290
H143	H	-0.477723	1.084646	-0.862212
H144	H	-0.352539	1.092996	-0.879847
H145	H	-0.278052	1.018430	-0.809558
C146	C	-0.378724	0.670523	-0.244359
C147	C	-0.376369	0.664340	-0.164358
C148	C	-0.422386	0.702220	-0.114752
C149	C	-0.470759	0.746284	-0.145146
C150	C	-0.473117	0.752470	-0.225151
C151	C	-0.427099	0.714589	-0.274758
H152	H	-0.340558	0.631719	-0.141855
H153	H	-0.420641	0.697641	-0.055527
H154	H	-0.504824	0.774325	-0.108425
H155	H	-0.508927	0.785090	-0.247655
H156	H	-0.428845	0.719169	-0.333983
C157	C	-0.384448	0.991314	-1.081649
C158	C	-0.456376	0.986487	-1.071523
C159	C	-0.499195	1.029292	-1.111946
C160	C	-0.470085	1.076924	-1.162494
C161	C	-0.398153	1.081753	-1.172623
C162	C	-0.355334	1.038948	-1.132200
H163	H	-0.477929	0.951225	-1.034102
H164	H	-0.552444	1.025717	-1.104448
H165	H	-0.501782	1.108610	-1.192418
H166	H	-0.376601	1.117014	-1.210044
H167	H	-0.302085	1.042523	-1.139698
H168	H	-0.214905	0.134892	-0.420921
H169	H	-0.366698	0.259837	-0.257283
H170	H	-0.533360	0.973417	-0.257454
H171	H	-0.652625	0.973466	-0.257483
H172	H	-0.646831	0.821441	-0.420663
H173	H	-1.053460	0.973619	-0.257568
H174	H	-0.203271	0.810094	-0.741082
C175	C	-0.918545	0.809566	-0.433567
C176	C	-0.952942	0.763492	-0.483040
C177	C	-0.915027	0.717392	-0.532504
C178	C	-0.842715	0.717366	-0.532495
C179	C	-0.808313	0.763442	-0.483020
C180	C	-0.846228	0.809542	-0.433556
H181	H	-1.006476	0.763509	-0.483048
H182	H	-0.940494	0.683283	-0.569129
H183	H	-0.814647	0.683240	-0.569112
H184	H	-0.754780	0.763424	-0.483012
H185	H	-0.820762	0.843650	-0.396931
H186	H	-1.047665	0.821588	-0.420746
H187	H	-0.378142	0.984969	-0.937785
