data_functionalizedCrystal
_audit_creation_method	'MofGen! by Chris Wilmer'
_symmetry_space_group_name_H-M	'P1'
_symmetry_Int_Tables_number	1
_symmetry_cell_setting	triclinic
loop_
_symmetry_equiv_pos_as_xyz
  x,y,z
_cell_length_a	19.805407
_cell_length_b	15.297327
_cell_length_c	19.805399
_cell_angle_alpha	80.350583
_cell_angle_beta	90.019573
_cell_angle_gamma	99.707092
loop_
_atom_site_label
_atom_site_type_symbol
_atom_site_fract_x
_atom_site_fract_y
_atom_site_fract_z
Zn1	Zn	0.988098	-0.359189	0.429336
Zn2	Zn	0.968423	-0.510058	0.335728
Zn3	Zn	0.874909	-0.359214	0.316164
Zn4	Zn	0.855293	-0.510010	0.448869
O5	O	0.921681	-0.434618	0.382524
O6	O	1.080203	-0.379212	0.416932
O7	O	0.955994	-0.490079	0.238420
O8	O	0.906367	-0.232963	0.314814
O9	O	1.065749	-0.490055	0.348159
O10	O	0.989526	-0.232945	0.397962
O11	O	0.887290	-0.379254	0.224047
O12	O	0.777592	-0.379208	0.333754
O13	O	0.872934	-0.489973	0.540990
O14	O	0.763180	-0.489997	0.431252
O15	O	0.970505	-0.379166	0.526640
O16	O	0.936973	-0.636300	0.367099
O17	O	0.853857	-0.636265	0.450222
C18	C	0.745827	-0.434601	0.382500
C19	C	0.670593	-0.434615	0.382509
C20	C	0.891170	-0.669017	0.412918
C21	C	0.878179	-0.769294	0.425943
C22	C	0.627751	-0.492390	0.433217
C23	C	0.557063	-0.492392	0.433227
C24	C	0.529217	-0.434622	0.382525
C25	C	0.572065	-0.376841	0.331814
C26	C	0.642752	-0.376835	0.331808
C27	C	0.286989	-0.376861	0.331839
C28	C	0.216295	-0.376873	0.331848
C29	C	0.201299	-0.492417	0.433258
C30	C	0.271987	-0.492412	0.433252
C31	C	0.314829	-0.434627	0.382543
C32	C	0.391477	-0.434625	0.382534
C33	C	0.452569	-0.434628	0.382531
C34	C	1.014807	-1.051906	0.289663
C35	C	1.027012	-0.957691	0.277422
C36	C	0.989805	-0.910587	0.314551
C37	C	0.940391	-0.957708	0.363923
C38	C	0.928180	-1.051932	0.376162
C39	C	0.903178	-0.910613	0.401050
C40	C	0.853764	-0.957734	0.450423
C41	C	0.841556	-1.051949	0.462659
C42	C	0.878763	-1.099053	0.425530
C43	C	0.915389	-0.816389	0.388812
C44	C	0.828762	-0.816415	0.475311
C45	C	0.816557	-0.910630	0.487552
C46	C	1.098221	-0.434636	0.382549
C47	C	1.173452	-0.434644	0.382559
C48	C	0.921726	-0.434561	0.559060
C49	C	0.921746	-0.434537	0.634289
C50	C	0.952329	-0.199304	0.352027
C51	C	0.965390	-0.099027	0.339031
C52	C	0.921683	-0.434610	0.206667
C53	C	0.921828	-0.434380	0.131406
C54	C	0.972552	-0.376837	0.662161
C55	C	0.972562	-0.376810	0.732846
C56	C	0.921768	-0.434490	0.775658
C57	C	0.870957	-0.492193	0.747781
C58	C	0.870944	-0.492214	0.677096
C59	C	0.871006	-0.492109	1.032843
C60	C	0.871024	-0.492085	1.103533
C61	C	0.972624	-0.376705	1.088593
C62	C	0.972612	-0.376726	1.017909
C63	C	0.921798	-0.434426	0.990037
C64	C	0.921787	-0.434452	0.913392
C65	C	0.921782	-0.434469	0.852303
H66	H	0.650417	-0.539436	0.474502
O67	O	0.866972	-1.190576	0.437531
C68	C	0.866789	-1.325703	0.520005
C69	C	0.880177	-1.222054	0.506505
H70	H	0.877446	-1.351185	0.575772
H71	H	0.901893	-1.351316	0.485036
H72	H	0.811063	-1.351344	0.509208
H73	H	0.935884	-1.196337	0.517309
H74	H	0.845030	-1.196503	0.541468
O75	O	1.050878	-1.097608	0.253486
C76	C	1.080075	-1.126417	0.142116
C77	C	1.039174	-1.074629	0.183015
H78	H	1.070638	-1.107844	0.085132
H79	H	1.062862	-1.201866	0.159273
H80	H	1.137051	-1.107834	0.151667
H81	H	0.982190	-1.093137	0.173484
H82	H	1.056444	-0.999193	0.165851
O83	O	0.793477	-1.097766	0.510525
C84	C	0.688319	-1.204281	0.533387
C85	C	0.742708	-1.152435	0.479107
H86	H	0.647266	-1.248508	0.508009
H87	H	0.663767	-1.154478	0.557819
H88	H	0.713689	-1.248288	0.574533
H89	H	0.717390	-1.108427	0.437920
H90	H	0.767256	-1.202287	0.454729
O91	O	0.821685	-0.548078	1.005660
C92	C	0.776654	-0.599297	0.903397
C93	C	0.832542	-0.535847	0.934093
H94	H	0.785420	-0.589445	0.845533
H95	H	0.724128	-0.583447	0.915182
H96	H	0.779065	-0.672029	0.926766
H97	H	0.830194	-0.463094	0.910742
H98	H	0.885043	-0.551775	0.922314
O99	O	0.768631	-0.956368	0.535600
C100	C	0.731962	-0.985106	0.654433
C101	C	0.786293	-0.933268	0.600092
H102	H	0.746215	-0.966435	0.706586
H103	H	0.729632	-1.060547	0.656860
H104	H	0.679784	-0.966666	0.640069
H105	H	0.838500	-0.951633	0.614418
H106	H	0.788563	-0.857840	0.597676
H107	H	1.067245	-0.919329	0.237222
O108	O	0.821548	-0.548253	0.789265
C109	C	0.720795	-0.662743	0.796623
C110	C	0.776700	-0.599282	0.749564
H111	H	0.684529	-0.704030	0.764545
H112	H	0.690753	-0.621355	0.824330
H113	H	0.745749	-0.709872	0.835847
H114	H	0.751802	-0.552140	0.710301
H115	H	0.806736	-0.640725	0.721907
H116	H	0.798463	-0.778063	0.505543
O117	O	1.021927	-0.320721	0.620670
C118	C	1.122727	-0.206308	0.613325
C119	C	1.066842	-0.269802	0.660387
H120	H	1.159064	-0.165136	0.645419
H121	H	1.097832	-0.159080	0.574123
H122	H	1.152688	-0.247754	0.585591
H123	H	1.036862	-0.228428	0.688168
H124	H	1.091779	-0.317032	0.699547
O125	O	0.821683	-0.548311	0.649946
C126	C	0.796706	-0.670167	0.585952
C127	C	0.852565	-0.606682	0.616652
H128	H	0.821651	-0.717388	0.559038
H129	H	0.766710	-0.628800	0.547444
H130	H	0.760392	-0.711353	0.628694
H131	H	0.888925	-0.565482	0.573956
H132	H	0.882509	-0.648100	0.655176
H133	H	0.522183	-0.539439	0.474518
O134	O	0.684412	-0.320619	0.282631
C135	C	0.780095	-0.198826	0.257874
C136	C	0.732956	-0.262425	0.313633
H137	H	0.819363	-0.151772	0.282919
H138	H	0.748089	-0.157473	0.221640
H139	H	0.807760	-0.240199	0.227779
H140	H	0.705281	-0.221122	0.343778
H141	H	0.764998	-0.303780	0.349820
O142	O	1.021831	-0.320656	0.759933
C143	C	1.046809	-0.198842	0.823969
C144	C	0.990944	-0.262377	0.793320
H145	H	1.021857	-0.151720	0.850981
H146	H	1.083103	-0.157560	0.781245
H147	H	1.076827	-0.240262	0.862413
H148	H	0.960876	-0.221027	0.754883
H149	H	0.954696	-0.303661	0.836080
H150	H	1.013975	-0.329761	0.983054
O151	O	1.022065	-0.320743	1.115650
C152	C	1.142909	-0.276920	1.131590
C153	C	1.086986	-0.340363	1.100929
H154	H	1.195411	-0.292748	1.119686
H155	H	1.134252	-0.286810	1.189471
H156	H	1.140461	-0.204184	1.108267
H157	H	1.089401	-0.413124	1.124198
H158	H	1.095662	-0.330396	1.043047
H159	H	0.999745	-0.833873	0.304581
H160	H	0.829658	-0.539057	1.138389
H161	H	0.294654	-0.539456	0.474536
H162	H	0.193626	-0.329824	0.290560
O163	O	0.159588	-0.548459	0.482490
C164	C	0.044039	-0.599720	0.527428
C165	C	0.091197	-0.536193	0.471646
H166	H	-0.011267	-0.589838	0.518672
H167	H	0.059962	-0.583973	0.579996
H168	H	0.048509	-0.672434	0.524884
H169	H	0.086749	-0.463458	0.474127
H170	H	0.075260	-0.552017	0.419102
H171	H	0.549387	-0.329800	0.290534
O172	O	0.328553	-0.320828	0.282496
C173	C	0.355821	-0.276781	0.161706
C174	C	0.308708	-0.340314	0.217521
H175	H	0.339785	-0.292500	0.109160
H176	H	0.411138	-0.286689	0.170346
H177	H	0.351391	-0.204067	0.164293
H178	H	0.313079	-0.413053	0.214967
H179	H	0.253412	-0.330327	0.208862
O180	O	0.963343	-0.770721	0.340776
C181	C	0.999968	-0.741918	0.221928
C182	C	0.945615	-0.793708	0.276264
H183	H	0.985648	-0.760469	0.169756
H184	H	1.052156	-0.760394	0.236208
H185	H	1.002317	-0.666490	0.219592
H186	H	0.943205	-0.869147	0.278629
H187	H	0.893455	-0.775156	0.261963
