data_functionalizedCrystal
_audit_creation_method	'MofGen! by Chris Wilmer'
_symmetry_space_group_name_H-M	'P1'
_symmetry_Int_Tables_number	1
_symmetry_cell_setting	triclinic
loop_
_symmetry_equiv_pos_as_xyz
  x,y,z
_cell_length_a	10.540558
_cell_length_b	17.699077
_cell_length_c	9.616153
_cell_angle_alpha	89.993699
_cell_angle_beta	89.995423
_cell_angle_gamma	96.093155
loop_
_atom_site_label
_atom_site_type_symbol
_atom_site_fract_x
_atom_site_fract_y
_atom_site_fract_z
O1	O	-0.160475	1.005131	-0.115606
O2	O	0.339525	1.505131	0.384394
O3	O	-0.181366	0.784889	-0.115610
O4	O	0.318634	1.284889	0.384390
O5	O	0.013876	0.900028	-0.115623
O6	O	0.513876	1.400028	0.384377
O7	O	-0.355718	0.889993	-0.115594
O8	O	0.144282	1.389993	0.384406
O9	O	0.013872	0.900012	0.115668
O10	O	0.513872	1.400012	0.615668
O11	O	-0.181371	0.784873	0.115681
O12	O	0.318629	1.284873	0.615681
O13	O	-0.160479	1.005115	0.115685
O14	O	0.339521	1.505115	0.615685
Zn15	Zn	-0.170926	0.894992	0.152405
Zn16	Zn	0.329074	1.394992	0.652405
Zn17	Zn	-0.170920	0.895013	-0.152331
Zn18	Zn	0.329080	1.395013	0.347669
O19	O	-0.355722	0.889977	0.115698
O20	O	0.144278	1.389977	0.615698
C21	C	-0.180621	0.756679	0.000034
C22	C	0.319379	1.256679	0.500034
C23	C	-0.178379	0.672646	0.000032
C24	C	0.321621	1.172646	0.500032
C25	C	-0.177325	0.633163	0.126110
C26	C	0.322675	1.133163	0.626110
C27	C	-0.175198	0.554207	0.126111
C28	C	0.324802	1.054207	0.626111
C29	C	-0.174135	0.514734	0.000033
C30	C	0.325865	1.014734	0.500033
C31	C	-0.175185	0.554223	-0.126055
C32	C	0.324815	1.054223	0.373945
C33	C	-0.177303	0.633178	-0.126055
C34	C	0.322697	1.133178	0.373945
C35	C	-0.166643	0.235804	-0.126059
C36	C	0.333357	0.735804	0.373941
C37	C	-0.164529	0.156842	-0.126049
C38	C	0.335471	0.656842	0.373951
C39	C	-0.164539	0.156832	0.126108
C40	C	0.335461	0.656832	0.626108
C41	C	-0.166656	0.235788	0.126108
C42	C	0.333344	0.735788	0.626108
C43	C	-0.167700	0.275270	0.000021
C44	C	0.332300	0.775270	0.500021
C45	C	-0.170004	0.360884	0.000021
C46	C	0.329996	0.860884	0.500021
C47	C	-0.171840	0.429121	0.000031
C48	C	0.328160	0.929121	0.500031
C49	C	0.061163	0.899264	0.000016
C50	C	0.561163	1.399264	0.500016
C51	C	0.202068	0.897004	-0.000004
C52	C	0.702068	1.397004	0.499996
C53	C	0.383910	0.810597	-0.000542
C54	C	0.883910	1.310597	0.499458
C55	C	0.237335	0.812889	-0.000008
C56	C	0.737335	1.312889	0.499992
C57	C	0.264465	0.937471	0.132070
C58	C	0.764465	1.437471	0.632070
C59	C	0.410956	0.934595	0.132168
C60	C	0.910956	1.434595	0.632168
C61	C	0.411510	0.936324	-0.130853
C62	C	0.911510	1.436324	0.369147
C63	C	0.264544	0.937104	-0.132587
C64	C	0.764544	1.437104	0.367413
C65	C	0.596989	0.890730	0.000033
C66	C	1.096989	1.390730	0.500033
C67	C	0.456077	0.892961	-0.000023
C68	C	0.956077	1.392961	0.499977
C69	C	-0.161224	1.033325	0.000037
C70	C	0.338776	1.533325	0.500037
C71	C	-0.163466	1.117358	0.000031
C72	C	0.336534	1.617358	0.500031
N73	N	-0.170929	0.894983	0.360380
N74	N	0.329071	1.394983	0.860380
N75	N	-0.170907	0.895027	-0.360305
N76	N	0.329093	1.395027	0.139695
C77	C	-0.275027	0.833203	0.580757
C78	C	0.224973	1.333203	1.080757
C79	C	-0.275411	0.833339	0.419589
C80	C	0.224589	1.333339	0.919589
C81	C	-0.199612	0.974114	0.418834
C82	C	0.300388	1.474114	0.918834
C83	C	-0.200347	0.973777	0.580052
C84	C	0.299653	1.473777	1.080052
C85	C	-0.037795	0.878420	0.580280
C86	C	0.462205	1.378420	1.080280
C87	C	-0.038693	0.876604	0.419054
C88	C	0.461307	1.376604	0.919054
H89	H	0.194151	0.781046	-0.094684
H90	H	0.694151	1.281046	0.405316
H91	H	0.442566	0.909106	-0.230964
H92	H	0.942566	1.409106	0.269036
Br93	Br	-0.438759	0.850772	0.648237
Br94	Br	0.061241	1.350772	1.148237
Br95	Br	-0.163120	0.103245	0.297230
Br96	Br	0.336880	0.603245	0.797230
Br97	Br	0.192608	0.890599	0.295902
Br98	Br	0.692608	1.390599	0.795902
Br99	Br	0.096469	0.946688	0.351906
Br100	Br	0.596469	1.446688	0.851906
H101	H	-0.174319	0.522065	0.228777
H102	H	0.325681	1.022065	0.728777
Br103	Br	-0.362136	0.997985	0.642723
Br104	Br	0.137864	1.497985	1.142723
Br105	Br	0.091345	0.953550	0.643797
Br106	Br	0.591345	1.453550	1.143797
Br107	Br	0.226040	1.039320	-0.145889
Br108	Br	0.726040	1.539320	0.354111
Br109	Br	-0.178782	0.686725	0.297226
Br110	Br	0.321218	1.186725	0.797226
H111	H	-0.125785	1.021243	0.380477
H112	H	0.374215	1.521243	0.880477
H113	H	-0.258357	0.774544	0.380071
H114	H	0.241643	1.274544	0.880071
H115	H	-0.167529	0.267922	0.228774
H116	H	0.332471	0.767922	0.728774
Br117	Br	-0.078597	1.052741	0.645037
Br118	Br	0.421403	1.552741	1.145037
Br119	Br	0.166744	0.759416	0.158060
Br120	Br	0.666744	1.259416	0.658060
Br121	Br	-0.440081	0.851097	0.355287
Br122	Br	0.059919	1.351097	0.855287
Br123	Br	-0.002396	0.779577	0.355385
Br124	Br	0.497604	1.279577	0.855385
Br125	Br	0.457046	0.884717	0.296718
Br126	Br	0.957046	1.384717	0.796718
H127	H	-0.174310	0.522078	-0.228711
H128	H	0.325690	1.022078	0.271289
Br129	Br	-0.359558	0.998866	0.351531
Br130	Br	0.140442	1.498866	0.851531
Br131	Br	-0.163088	0.103272	-0.297167
Br132	Br	0.336912	0.603272	0.202833
H133	H	-0.167489	0.267941	-0.228727
H134	H	0.332511	0.767941	0.271273
H135	H	-0.178164	0.665324	-0.228721
H136	H	0.321836	1.165324	0.271279
H137	H	0.459849	0.997077	-0.131744
H138	H	0.959849	1.497077	0.368256
Br139	Br	0.430559	0.755221	-0.158418
Br140	Br	0.930559	1.255221	0.341582
Br141	Br	0.433847	0.755267	0.155953
Br142	Br	0.933847	1.255267	0.655953
H143	H	0.460032	0.995086	0.138157
H144	H	0.960032	1.495086	0.638157
Br145	Br	0.229102	1.040429	0.140269
Br146	Br	0.729102	1.540429	0.640269
H147	H	0.223145	0.907494	-0.230292
H148	H	0.723145	1.407494	0.269708
Br149	Br	-0.247054	0.734892	0.645397
Br150	Br	0.252946	1.234892	1.145397
H151	H	-0.010150	0.821937	0.621014
H152	H	0.489850	1.321937	1.121014
