data_functionalizedCrystal
_audit_creation_method	'MofGen! by Chris Wilmer'
_symmetry_space_group_name_H-M	'P1'
_symmetry_Int_Tables_number	1
_symmetry_cell_setting	triclinic
loop_
_symmetry_equiv_pos_as_xyz
  x,y,z
_cell_length_a	19.288864
_cell_length_b	10.654545
_cell_length_c	18.366186
_cell_angle_alpha	89.996152
_cell_angle_beta	89.977106
_cell_angle_gamma	83.810837
loop_
_atom_site_label
_atom_site_type_symbol
_atom_site_fract_x
_atom_site_fract_y
_atom_site_fract_z
O1	O	0.922379	0.156657	-0.060780
O2	O	0.720257	0.177789	-0.060729
O3	O	0.825965	-0.015616	-0.060755
O4	O	0.816671	0.350062	-0.060754
O5	O	0.825946	-0.015625	0.060344
O6	O	0.720239	0.177780	0.060370
O7	O	0.922361	0.156647	0.060320
Zn8	Zn	0.821297	0.167212	0.079572
Zn9	Zn	0.821321	0.167224	-0.079982
O10	O	0.816653	0.350052	0.060345
C11	C	0.694367	0.177105	-0.000173
C12	C	0.617250	0.175063	-0.000154
C13	C	0.573297	0.288545	-0.000165
C14	C	0.500837	0.286627	-0.000173
C15	C	0.472334	0.171222	-0.000185
C16	C	0.516296	0.057725	-0.000170
C17	C	0.588754	0.059646	-0.000155
C18	C	0.363484	0.080503	-0.042636
C19	C	0.291027	0.078587	-0.042656
C20	C	0.248849	0.165292	-0.000229
C21	C	0.279136	0.253935	0.042208
C22	C	0.351594	0.255855	0.042224
C23	C	0.393766	0.169126	-0.000201
C24	C	0.126327	0.276702	-0.000248
C25	C	0.053866	0.274779	-0.000251
C26	C	0.069327	0.045875	-0.000255
C27	C	0.141786	0.047800	-0.000244
C28	C	0.170281	0.163217	-0.000244
C29	C	0.825273	-0.062404	-0.000207
C30	C	0.823231	-0.201803	-0.000211
C31	C	0.823259	-0.201802	-0.132237
C32	C	0.822316	-0.267290	-0.198249
C33	C	0.820398	-0.398268	-0.198250
C34	C	0.819420	-0.463760	-0.132230
C35	C	0.820362	-0.398271	-0.066218
C36	C	0.822283	-0.267291	-0.066225
C37	C	0.820329	-0.398272	0.065807
C38	C	0.822253	-0.267295	0.065809
C39	C	0.819351	-0.463763	0.131826
C40	C	0.820299	-0.398276	0.197840
C41	C	0.822218	-0.267290	0.197838
C42	C	0.823196	-0.201806	0.131821
C43	C	0.948251	0.157332	-0.000238
C44	C	1.025368	0.159373	-0.000262
C45	C	0.817345	0.396840	-0.000205
C46	C	0.819387	0.536240	-0.000206
N47	N	0.821285	0.167203	0.188463
N48	N	0.821337	0.167224	-0.188873
C49	C	0.868109	0.081605	0.226552
C50	C	0.868113	0.081599	0.302780
C51	C	0.821301	0.167213	0.340916
C52	C	0.774469	0.252817	0.302818
C53	C	0.774461	0.252812	0.226591
C54	C	0.812752	0.281634	0.461678
C55	C	0.812765	0.281641	0.537903
C56	C	0.821321	0.167229	0.576023
C57	C	0.829879	0.052804	0.537909
C58	C	0.829871	0.052799	0.461683
C59	C	0.821304	0.167228	0.423571
C60	C	0.868151	0.081618	0.696767
C61	C	0.868151	0.081610	0.772996
C62	C	0.774510	0.252840	0.773033
C63	C	0.774507	0.252836	0.696805
C64	C	0.821331	0.167226	0.658677
H65	H	0.493084	-0.036239	-0.000189
O66	O	0.819226	-0.461805	0.261983
C67	C	0.758567	-0.487264	0.374857
C68	C	0.759687	-0.415233	0.302233
H69	H	0.710443	-0.449621	0.407426
H70	H	0.756983	-0.592129	0.363560
H71	H	0.807482	-0.473311	0.407372
H72	H	0.710782	-0.429083	0.269682
H73	H	0.761308	-0.310396	0.313581
O74	O	0.184515	-0.062402	-0.000116
C75	C	0.275292	-0.193049	0.062609
C76	C	0.226930	-0.068207	0.062560
H77	H	0.309607	-0.197771	0.113269
H78	H	0.242512	-0.275916	0.062645
H79	H	0.309597	-0.197845	0.011912
H80	H	0.192616	-0.063288	0.113249
H81	H	0.259752	0.014601	0.062486
H82	H	0.906276	0.011905	0.665722
H83	H	0.376251	0.328027	0.076780
O84	O	0.728962	0.335828	0.659767
C85	C	0.634264	0.363006	0.573713
C86	C	0.685795	0.268877	0.615626
H87	H	0.599360	0.308914	0.538003
H88	H	0.600755	0.424186	0.614025
H89	H	0.664567	0.425618	0.538040
H90	H	0.655547	0.206183	0.651300
H91	H	0.719304	0.207785	0.575274
H92	H	0.819624	-0.451587	-0.252003
H93	H	0.736353	0.322524	0.333872
H94	H	0.736331	0.322517	0.195579
H95	H	0.805801	0.374812	0.568929
H96	H	0.244796	0.324537	0.076757
H97	H	0.149529	0.370681	-0.000237
H98	H	0.836846	-0.040361	0.568945
H99	H	0.824762	-0.095158	0.131813
H100	H	0.266373	0.006414	-0.077214
O101	O	0.804567	0.392819	0.424681
C102	C	0.849471	0.591430	0.401348
C103	C	0.858829	0.465561	0.443280
H104	H	0.893325	0.650288	0.416382
H105	H	0.850976	0.571842	0.340313
H106	H	0.797146	0.645380	0.416345
H107	H	0.911150	0.411547	0.428344
H108	H	0.857281	0.485236	0.504305
O109	O	0.600861	0.400767	-0.000125
C110	C	0.577876	0.627601	-0.000168
C111	C	0.546566	0.500600	-0.000199
H112	H	0.533994	0.708350	-0.000243
H113	H	0.611357	0.634307	0.050533
H114	H	0.611467	0.634161	-0.050827
H115	H	0.512943	0.493955	0.050426
H116	H	0.513125	0.493949	-0.050933
H117	H	0.822975	-0.213975	0.251594
H118	H	0.906234	0.011894	0.195510
H119	H	0.018080	0.367194	-0.000256
O120	O	0.913609	-0.001716	0.809917
C121	C	0.953252	-0.220258	0.833262
C122	C	0.901740	-0.126031	0.791391
H123	H	0.943664	-0.320788	0.818311
H124	H	1.008969	-0.204240	0.818230
H125	H	0.945225	-0.205494	0.894290
H126	H	0.909703	-0.140739	0.730354
H127	H	0.846041	-0.142073	0.806484
O128	O	0.041533	-0.066122	-0.000300
C129	C	-0.063241	-0.170530	-0.000282
C130	C	-0.031853	-0.043603	-0.000250
H131	H	-0.122577	-0.152368	-0.000226
H132	H	-0.045205	-0.226602	-0.050973
H133	H	-0.045169	-0.226596	0.050387
H134	H	-0.049910	0.012565	-0.050885
H135	H	-0.049886	0.012373	0.050474
O136	O	0.458059	0.396784	-0.000286
C137	C	0.367344	0.527470	-0.063077
C138	C	0.415736	0.402661	-0.063030
H139	H	0.333123	0.532274	-0.113807
H140	H	0.332955	0.532312	-0.012440
H141	H	0.400170	0.610270	-0.063037
H142	H	0.382964	0.319790	-0.063095
H143	H	0.450128	0.397929	-0.113661
H144	H	0.817785	-0.570411	0.131821
H145	H	0.624542	-0.032767	-0.000146
H146	H	0.817849	-0.570407	-0.132237
O147	O	0.404347	-0.003774	-0.083925
C148	C	0.408495	-0.177921	-0.168084
C149	C	0.362137	-0.082539	-0.121373
H150	H	0.374388	-0.241644	-0.198361
H151	H	0.438904	-0.124965	-0.209060
H152	H	0.446526	-0.237825	-0.131366
H153	H	0.324067	-0.022609	-0.158033
H154	H	0.331777	-0.135572	-0.080391
O155	O	0.823189	-0.203504	-0.262328
C156	C	0.765318	-0.041083	-0.338970
C157	C	0.764246	-0.113201	-0.266371
H158	H	0.717661	0.031925	-0.342269
H159	H	0.814713	0.008549	-0.342271
H160	H	0.764353	-0.110410	-0.386143
H161	H	0.765185	-0.043958	-0.219156
H162	H	0.714855	-0.162853	-0.263133
H163	H	0.824829	-0.095155	-0.132243
O164	O	0.913663	-0.001607	0.339677
C165	C	1.006509	-0.171495	0.331602
C166	C	0.954976	-0.077310	0.289729
H167	H	1.039914	-0.232743	0.291238
H168	H	1.041514	-0.117500	0.367250
H169	H	0.976209	-0.234031	0.367328
H170	H	0.985219	-0.014750	0.253964
H171	H	0.919971	-0.131383	0.254127
H172	H	0.836838	-0.040369	0.430654
O173	O	0.728939	0.335882	0.810035
C174	C	0.608528	0.410075	0.833379
C175	C	0.660063	0.315941	0.791438
H176	H	0.552831	0.394003	0.818347
H177	H	0.616512	0.395378	0.894413
H178	H	0.618095	0.510605	0.818389
H179	H	0.650528	0.215374	0.806367
H180	H	0.652067	0.330749	0.730415
