data_functionalizedCrystal
_audit_creation_method	'MofGen! by Chris Wilmer'
_symmetry_space_group_name_H-M	'P1'
_symmetry_Int_Tables_number	1
_symmetry_cell_setting	triclinic
loop_
_symmetry_equiv_pos_as_xyz
  x,y,z
_cell_length_a	10.654550
_cell_length_b	15.538191
_cell_length_c	9.730223
_cell_angle_alpha	89.998968
_cell_angle_beta	89.999957
_cell_angle_gamma	65.878512
loop_
_atom_site_label
_atom_site_type_symbol
_atom_site_fract_x
_atom_site_fract_y
_atom_site_fract_z
O1	O	1.606172	0.131915	-0.114176
O2	O	1.234818	0.144484	-0.114201
O3	O	1.492782	0.001542	-0.114190
O4	O	1.348208	0.274857	-0.114187
O5	O	1.492771	0.001538	0.114390
O6	O	1.234807	0.144480	0.114379
O7	O	1.606161	0.131912	0.114404
Zn8	Zn	1.420483	0.138195	0.150683
Zn9	Zn	1.420496	0.138200	-0.150480
O10	O	1.348197	0.274853	0.114393
C11	C	1.188446	0.143559	0.000086
C12	C	1.050293	0.140798	0.000077
C13	C	0.931464	0.224959	0.000082
C14	C	0.801659	0.222359	0.000105
C15	C	0.909528	0.051429	0.000114
C16	C	1.039330	0.054030	0.000100
C17	C	1.507903	-0.033456	0.000096
C18	C	1.552959	-0.137736	0.000085
C19	C	1.105338	-0.428451	0.000086
C20	C	1.147707	-0.526440	0.000092
C21	C	1.386021	-0.547326	0.000107
C22	C	1.343672	-0.449336	0.000094
C23	C	1.203329	-0.389906	0.000085
C24	C	1.441663	-0.410792	0.000093
C25	C	1.399317	-0.312811	0.000088
C26	C	1.258980	-0.253375	0.000083
C27	C	1.160983	-0.291926	0.000080
C28	C	1.582005	-0.470224	0.000112
C29	C	1.679996	-0.431679	0.000111
C30	C	1.637651	-0.333697	0.000096
C31	C	1.497314	-0.274261	0.000091
C32	C	1.735648	-0.295147	0.000100
C33	C	1.693302	-0.197166	0.000094
C34	C	1.454968	-0.176280	0.000086
C35	C	1.652533	0.132836	0.000114
C36	C	1.790685	0.135597	0.000114
C37	C	1.333076	0.309851	0.000104
C38	C	1.288020	0.414131	0.000106
N39	N	1.420482	0.138191	0.356220
N40	N	1.420510	0.138197	-0.356017
C41	C	1.534725	0.074923	0.428150
C42	C	1.534738	0.074924	0.572033
C43	C	1.306256	0.201467	0.572043
C44	C	1.306241	0.201462	0.428162
H45	H	0.940383	0.295611	0.000073
H46	H	1.046702	-0.243533	0.000062
F47	F	1.184680	0.268804	0.648618
H48	H	0.704908	0.290892	0.000112
F49	F	0.897846	-0.040910	0.000132
F50	F	1.184639	0.268799	0.351602
H51	H	1.136092	-0.014509	0.000099
H52	H	1.224505	-0.173593	0.000087
F53	F	1.305598	-0.113024	0.000063
H54	H	0.991057	-0.380059	0.000068
F55	F	1.535379	-0.610585	0.000126
F56	F	1.043399	-0.567457	0.000100
F57	F	1.656309	0.007583	0.351590
H58	H	1.627764	0.023405	0.630595
H59	H	1.616478	-0.550005	0.000104
H60	H	1.794264	-0.480080	0.000124
F61	F	1.885006	-0.358408	0.000132
H62	H	1.773096	-0.165783	0.000095
