data_functionalizedCrystal
_audit_creation_method	'MofGen! by Chris Wilmer'
_symmetry_space_group_name_H-M	'P1'
_symmetry_Int_Tables_number	1
_symmetry_cell_setting	triclinic
loop_
_symmetry_equiv_pos_as_xyz
  x,y,z
_cell_length_a	23.532355
_cell_length_b	23.532407
_cell_length_c	15.072220
_cell_angle_alpha	89.994175
_cell_angle_beta	89.993350
_cell_angle_gamma	82.838088
loop_
_atom_site_label
_atom_site_type_symbol
_atom_site_fract_x
_atom_site_fract_y
_atom_site_fract_z
O1	O	0.755286	0.068990	-0.073671
O2	O	1.255286	0.568990	0.426329
O3	O	0.589418	0.079024	-0.073700
O4	O	1.089418	0.579024	0.426300
O5	O	0.677354	-0.008925	-0.073668
O6	O	1.177354	0.491075	0.426332
O7	O	0.667350	0.156940	-0.073703
O8	O	1.167350	0.656940	0.426297
O9	O	0.677332	-0.008920	0.073897
O10	O	1.177332	0.491080	0.573897
O11	O	0.589397	0.079029	0.073865
O12	O	1.089397	0.579029	0.573865
O13	O	0.755264	0.068995	0.073894
O14	O	1.255264	0.568995	0.573894
Zn15	Zn	0.672327	0.074013	0.097309
Zn16	Zn	1.172327	0.574013	0.597309
Zn17	Zn	0.672355	0.074007	-0.097115
Zn18	Zn	1.172355	0.574007	0.402885
O19	O	0.667329	0.156945	0.073862
O20	O	1.167329	0.656945	0.573862
C21	C	0.568191	0.078776	0.000079
C22	C	1.068191	0.578776	0.500079
C23	C	0.504972	0.078022	0.000068
C24	C	1.004972	0.578022	0.500068
C25	C	0.112946	0.073287	0.080544
C26	C	0.612946	0.573287	0.580544
C27	C	0.053547	0.072569	0.080548
C28	C	0.553547	0.572569	0.580548
O29	O	0.022818	0.072181	0.148956
O30	O	0.522818	0.572181	0.648956
N31	N	0.023850	0.072211	0.000110
N32	N	0.523850	0.572211	0.500110
C33	C	0.053557	0.072564	-0.080336
C34	C	0.553557	0.572564	0.419664
O35	O	0.022843	0.072193	-0.148754
O36	O	0.522843	0.572193	0.351246
C37	C	0.112956	0.073277	-0.080339
C38	C	0.612956	0.573277	0.419661
C39	C	0.142649	0.073641	0.000104
C40	C	0.642649	0.573641	0.500104
C41	C	0.142639	0.073650	0.160980
C42	C	0.642639	0.573650	0.660980
C43	C	0.202035	0.074369	0.160976
C44	C	0.702035	0.574369	0.660976
C45	C	0.231737	0.074724	0.080536
C46	C	0.731737	0.574724	0.580536
C47	C	0.202044	0.074360	0.000100
C48	C	0.702044	0.574360	0.500100
C49	C	0.142662	0.073626	-0.160784
C50	C	0.642662	0.573626	0.339216
C51	C	0.202065	0.074339	-0.160780
C52	C	0.702065	0.574339	0.339220
C53	C	0.231758	0.074704	-0.080337
C54	C	0.731758	0.574704	0.419663
C55	C	0.291141	0.075433	-0.080344
C56	C	0.791141	0.575433	0.419656
N57	N	0.320838	0.075792	0.000094
N58	N	0.820838	0.575792	0.500094
C59	C	0.291136	0.075437	0.080534
C60	C	0.791136	0.575437	0.580534
C61	C	-0.071185	0.071065	-0.080324
C62	C	0.428815	0.571065	0.419676
C63	C	-0.130583	0.070356	-0.080323
C64	C	0.369417	0.570356	0.419677
C65	C	-0.130589	0.070360	0.080561
C66	C	0.369411	0.570360	0.580561
C67	C	-0.071190	0.071073	0.080559
C68	C	0.428810	0.571073	0.580559
C69	C	-0.041488	0.071423	0.000113
C70	C	0.458512	0.571423	0.500113
C71	C	0.415870	0.076946	0.080519
C72	C	0.915870	0.576946	0.580519
C73	C	0.475270	0.077667	0.080508
C74	C	0.975270	0.577667	0.580508
C75	C	0.475271	0.077660	-0.080375
C76	C	0.975271	0.577660	0.419625
C77	C	0.415875	0.076942	-0.080365
C78	C	0.915875	0.576942	0.419635
C79	C	0.386177	0.076583	0.000090
C80	C	0.886177	0.576583	0.500090
O81	O	0.321908	0.075819	-0.148717
O82	O	0.821908	0.575819	0.351283
O83	O	0.321858	0.075801	0.148940
O84	O	0.821858	0.575801	0.648940
C85	C	0.677088	-0.030139	0.000116
C86	C	1.177088	0.469861	0.500116
C87	C	0.676322	-0.093356	0.000123
C88	C	1.176322	0.406644	0.500123
C89	C	0.723557	-0.492468	0.000083
C90	C	1.223557	0.007532	0.500083
C91	C	0.722845	-0.551868	0.000076
C92	C	1.222845	-0.051868	0.500076
O93	O	0.766632	-0.588620	0.000051
O94	O	1.266632	-0.088620	0.500051
N95	N	0.670568	-0.574484	0.000067
N96	N	1.170568	-0.074484	0.500067
C97	C	0.618998	-0.537697	0.000057
C98	C	1.118998	-0.037697	0.500057
O99	O	0.574467	-0.562388	0.000048
O100	O	1.074467	-0.062388	0.500048
C101	C	0.619710	-0.478298	0.000057
C102	C	1.119710	0.021702	0.500057
C103	C	0.671991	-0.455685	0.000075
C104	C	1.171991	0.044315	0.500075
C105	C	0.775834	-0.469854	0.000100
C106	C	1.275834	0.030146	0.500100
C107	C	0.776545	-0.410458	0.000108
C108	C	1.276545	0.089542	0.500108
C109	C	0.724979	-0.373676	0.000100
C110	C	1.224979	0.126324	0.500100
C111	C	0.672703	-0.396289	0.000083
C112	C	1.172703	0.103711	0.500083
C113	C	0.568141	-0.441512	0.000040
C114	C	1.068141	0.058488	0.500040
C115	C	0.568858	-0.382110	0.000040
C116	C	1.068858	0.117890	0.500040
C117	C	0.621139	-0.359497	0.000057
C118	C	1.121139	0.140503	0.500057
C119	C	0.621848	-0.300110	0.000084
C120	C	1.121848	0.199890	0.500084
N121	N	0.674126	-0.277494	0.000092
N122	N	1.174126	0.222506	0.500092
C123	C	0.725691	-0.314277	0.000100
C124	C	1.225691	0.185723	0.500100
C125	C	0.617507	-0.662439	0.000054
C126	C	1.117507	-0.162439	0.500054
C127	C	0.616794	-0.721837	0.000060
C128	C	1.116794	-0.221837	0.500060
C129	C	0.720642	-0.736004	0.000078
C130	C	1.220642	-0.236004	0.500078
C131	C	0.721354	-0.676605	0.000078
C132	C	1.221354	-0.176605	0.500078
C133	C	0.669784	-0.639823	0.000063
C134	C	1.169784	-0.139823	0.500063
C135	C	0.727181	-0.189540	0.000119
C136	C	1.227181	0.310460	0.500119
C137	C	0.727888	-0.130138	0.000131
C138	C	1.227888	0.369862	0.500131
C139	C	0.624041	-0.115977	0.000109
C140	C	1.124041	0.384023	0.500109
C141	C	0.623334	-0.175373	0.000101
C142	C	1.123334	0.324627	0.500101
C143	C	0.674909	-0.212154	0.000103
C144	C	1.174909	0.287846	0.500103
O145	O	0.578084	-0.263323	0.000105
O146	O	1.078084	0.236677	0.500105
O147	O	0.770216	-0.289577	0.000098
O148	O	1.270216	0.210423	0.500098
C149	C	0.776491	0.069244	0.000113
C150	C	1.276491	0.569244	0.500113
C151	C	0.839710	0.069998	0.000118
C152	C	1.339710	0.569998	0.500118
C153	C	0.667594	0.178158	0.000076
C154	C	1.167594	0.678158	0.500076
C155	C	0.668360	0.241375	0.000063
C156	C	1.168360	0.741375	0.500063
N157	N	0.672312	0.074017	0.229998
N158	N	1.172312	0.574017	0.729998
N159	N	0.672375	0.073998	-0.229803
N160	N	1.172375	0.573998	0.270197
C161	C	0.672354	0.074004	0.589199
C162	C	1.172354	0.574004	1.089199
C163	C	0.625145	0.120908	0.551575
C164	C	1.125145	0.620908	1.051575
C165	C	0.625252	0.121078	0.448749
C166	C	1.125252	0.621078	0.948749
C167	C	0.672333	0.074011	0.410995
C168	C	1.172333	0.574011	0.910995
C169	C	0.731685	0.086643	0.448294
C170	C	1.231685	0.586643	0.948294
C171	C	0.731420	0.086976	0.551151
C172	C	1.231420	0.586976	1.051151
C173	C	0.660741	0.014327	0.551309
C174	C	1.160741	0.514327	1.051309
C175	C	0.659376	0.014734	0.448445
C176	C	1.159376	0.514734	0.948445
C177	C	0.672324	0.074013	0.310282
C178	C	1.172324	0.574013	0.810282
C179	C	0.672367	0.074003	0.689912
C180	C	1.172367	0.574003	1.189912
H181	H	-0.154755	0.070068	-0.145827
H182	H	0.345245	0.570068	0.354173
H183	H	0.618420	0.002094	0.577295
H184	H	1.118420	0.502094	1.077295
C185	C	0.635225	0.180911	0.415481
C186	C	1.135225	0.680911	0.915481
H187	H	0.639233	0.205208	0.464830
H188	H	1.139233	0.705208	0.964830
H189	H	0.603509	0.196569	0.380494
H190	H	1.103509	0.696569	0.880494
H191	H	0.669098	0.177871	0.380606
H192	H	1.169098	0.677871	0.880606
C193	C	-0.163291	0.070132	0.169045
C194	C	0.336709	0.570132	0.669045
H195	H	-0.202924	0.069700	0.157519
H196	H	0.297076	0.569700	0.657519
H197	H	-0.158041	0.103516	0.201927
H198	H	0.341959	0.603516	0.701927
H199	H	-0.149094	0.037079	0.202267
H200	H	0.350906	0.537079	0.702267
C201	C	0.559285	-0.746705	0.000048
C202	C	1.059285	-0.246705	0.500048
H203	H	0.528680	-0.716286	0.000037
H204	H	1.028680	-0.216286	0.500037
H205	H	0.556837	-0.769588	0.051501
H206	H	1.056837	-0.269588	0.551501
H207	H	0.556856	-0.769574	-0.051423
H208	H	1.056856	-0.269574	0.448577
H209	H	0.762629	-0.765963	0.000081
H210	H	1.262629	-0.265963	0.500081
C211	C	-0.038519	0.071462	-0.168820
C212	C	0.461481	0.571462	0.331180
H213	H	-0.064717	0.071152	-0.216719
H214	H	0.435283	0.571152	0.283281
H215	H	-0.010812	0.038526	-0.172170
H216	H	0.489188	0.538526	0.327830
H217	H	-0.019885	0.104962	-0.172172
H218	H	0.480115	0.604962	0.327828
C219	C	0.565827	-0.200249	0.000080
C220	C	1.065827	0.299751	0.500080
H221	H	0.535218	-0.169833	0.000070
H222	H	1.035218	0.330167	0.500070
H223	H	0.563377	-0.223136	0.051528
H224	H	1.063377	0.276864	0.551528
H225	H	0.563403	-0.223115	-0.051397
H226	H	1.063403	0.276885	0.448603
C227	C	0.110014	0.073213	-0.249272
C228	C	0.610014	0.573213	0.250728
H229	H	0.136221	0.073517	-0.297172
H230	H	0.636221	0.573517	0.202828
H231	H	0.082304	0.106145	-0.252647
H232	H	0.582304	0.606145	0.247353
H233	H	0.091385	0.039709	-0.252599
H234	H	0.591385	0.539709	0.247401
H235	H	0.525569	-0.459912	0.000020
H236	H	1.025569	0.040088	0.500020
H237	H	0.615717	0.005139	0.424068
H238	H	1.115717	0.505139	0.924068
H239	H	0.770463	-0.111731	0.000148
H240	H	1.270463	0.388269	0.500148
H241	H	0.391695	0.076659	0.146033
H242	H	0.891695	0.576659	0.646033
H243	H	0.691552	-0.021779	0.422750
H244	H	1.191552	0.478221	0.922750
H245	H	0.767640	0.053374	0.423837
H246	H	1.267640	0.553374	0.923837
H247	H	0.695173	-0.020573	0.575640
H248	H	1.195173	0.479427	1.075640
C249	C	0.778862	-0.651736	0.000089
C250	C	1.278862	-0.151736	0.500089
H251	H	0.809468	-0.682154	0.000089
H252	H	1.309468	-0.182154	0.500089
H253	H	0.781294	-0.628860	0.051546
H254	H	1.281294	-0.128860	0.551546
H255	H	0.781308	-0.628859	-0.051378
H256	H	1.281308	-0.128859	0.448622
C257	C	0.234733	0.074729	-0.249272
C258	C	0.734733	0.574729	0.250728
H259	H	0.208538	0.074415	-0.297174
H260	H	0.708538	0.574415	0.202826
H261	H	0.262441	0.041794	-0.252614
H262	H	0.762441	0.541794	0.247386
H263	H	0.253366	0.108230	-0.252627
H264	H	0.753366	0.608230	0.247373
H265	H	0.499443	0.077966	0.146017
H266	H	0.999443	0.577966	0.646017
H267	H	0.742224	0.129656	0.422518
H268	H	1.242224	0.629656	0.922518
H269	H	-0.047018	0.071370	0.146062
H270	H	0.452982	0.571370	0.646062
H271	H	0.391697	0.076655	-0.145868
H272	H	0.891697	0.576655	0.354132
H273	H	0.499465	0.077951	-0.145867
H274	H	0.999465	0.577951	0.354133
H275	H	0.769178	-0.219481	0.000117
H276	H	1.269178	0.280519	0.500117
H277	H	0.817827	-0.499797	0.000103
H278	H	1.317827	0.000203	0.500103
C279	C	0.234690	0.074767	0.249464
C280	C	0.734690	0.574767	0.749464
H281	H	0.208487	0.074448	0.297365
H282	H	0.708487	0.574448	0.797365
H283	H	0.253326	0.108261	0.252806
H284	H	0.753326	0.608261	0.752806
H285	H	0.262395	0.041826	0.252820
H286	H	0.762395	0.541826	0.752820
H287	H	0.819117	-0.392053	0.000119
H288	H	1.319117	0.107947	0.500119
H289	H	0.575510	-0.632494	0.000049
H290	H	1.075510	-0.132494	0.500049
H291	H	0.632422	0.164952	0.577406
H292	H	1.132422	0.664952	1.077406
C293	C	0.109975	0.073265	0.249472
C294	C	0.609975	0.573265	0.749472
H295	H	0.136174	0.073588	0.297368
H296	H	0.636174	0.573588	0.797368
H297	H	0.091334	0.039773	0.252841
H298	H	0.591334	0.539773	0.752841
H299	H	0.082273	0.106209	0.252810
H300	H	0.582273	0.606209	0.752810
C301	C	0.567323	-0.075509	0.000095
C302	C	1.067323	0.424491	0.500095
H303	H	0.575239	-0.036896	0.000091
H304	H	1.075239	0.463104	0.500091
H305	H	0.545858	-0.082331	0.051544
H306	H	1.045858	0.417669	0.551544
H307	H	0.545885	-0.082328	-0.051381
H308	H	1.045885	0.417672	0.448619
C309	C	0.512130	-0.341652	0.000026
C310	C	1.012130	0.158348	0.500026
H311	H	0.480896	-0.363631	0.000022
H312	H	0.980896	0.136369	0.500022
H313	H	0.510256	-0.318181	-0.051430
H314	H	1.010256	0.181819	0.448570
H315	H	0.510239	-0.318192	0.051495
H316	H	1.010239	0.181808	0.551495
H317	H	0.581124	0.113603	0.423532
H318	H	1.081124	0.613603	0.923532
H319	H	0.741704	0.130487	0.575126
H320	H	1.241704	0.630487	1.075126
C321	C	0.565334	0.110986	0.585005
C322	C	1.065334	0.610986	1.085005
H323	H	0.537455	0.139738	0.561542
H324	H	1.037455	0.639738	1.061542
H325	H	0.564553	0.112716	0.647967
H326	H	1.064553	0.612716	1.147967
H327	H	0.557089	0.074381	0.566113
H328	H	1.057089	0.574381	1.066113
C329	C	0.780275	0.042556	0.584778
C330	C	1.280275	0.542556	1.084778
H331	H	0.800199	0.024392	0.535573
H332	H	1.300199	0.524392	1.035573
H333	H	0.764774	0.014662	0.619811
H334	H	1.264774	0.514662	1.119811
H335	H	0.806000	0.061219	0.619681
H336	H	1.306000	0.561219	1.119681
