data_functionalizedCrystal
_audit_creation_method	'MofGen! by Chris Wilmer'
_symmetry_space_group_name_H-M	'P1'
_symmetry_Int_Tables_number	1
_symmetry_cell_setting	triclinic
loop_
_symmetry_equiv_pos_as_xyz
  x,y,z
_cell_length_a	11.792241
_cell_length_b	15.625950
_cell_length_c	14.750779
_cell_angle_alpha	120.090508
_cell_angle_beta	102.725680
_cell_angle_gamma	95.781309
loop_
_atom_site_label
_atom_site_type_symbol
_atom_site_fract_x
_atom_site_fract_y
_atom_site_fract_z
O1	O	-0.034963	1.286399	0.367815
O2	O	-0.083324	0.999740	0.268066
O3	O	0.106809	1.150024	0.320355
O4	O	-0.225097	1.136114	0.315526
O5	O	0.160553	1.192508	0.494787
O6	O	-0.029581	1.042223	0.442498
O7	O	0.018780	1.328882	0.542247
Zn8	Zn	0.003132	1.192298	0.520067
Zn9	Zn	-0.067677	1.136324	0.290246
O10	O	-0.171354	1.178598	0.489958
C11	C	-0.059584	0.984283	0.342511
C12	C	-0.068902	0.874932	0.304460
C13	C	0.046827	0.630956	0.654598
C14	C	0.038034	0.528191	0.618794
C15	C	-0.020550	0.481928	0.428653
C16	C	-0.011767	0.584691	0.464441
C17	C	0.021923	0.659198	0.577415
C18	C	-0.036672	0.612933	0.387258
C19	C	-0.027884	0.715688	0.423044
C20	C	0.005809	0.790201	0.536014
C21	C	0.030711	0.761953	0.613201
C22	C	-0.070354	0.538425	0.274285
C23	C	-0.095258	0.566666	0.197102
C24	C	-0.086479	0.669422	0.232888
C25	C	-0.052786	0.743935	0.345857
C26	C	-0.111381	0.697670	0.155700
C27	C	-0.102593	0.800425	0.191486
C28	C	-0.043998	0.846690	0.381643
C29	C	-0.240417	1.158230	0.403048
C30	C	-0.366134	1.160847	0.403962
C31	C	-0.596312	1.165651	0.405610
C32	C	-0.468224	1.162982	0.404694
C33	C	0.175872	1.170391	0.407263
C34	C	0.301587	1.167772	0.406341
C35	C	-0.004960	1.344339	0.467799
C36	C	0.004355	1.453687	0.505844
N37	N	0.051459	1.230506	0.676917
N38	N	-0.115993	1.098124	0.133399
C39	C	-0.250913	0.991414	0.945547
C40	C	-0.217055	1.018195	1.055364
C41	C	-0.048746	1.151300	1.101638
C42	C	-0.082586	1.124527	0.991822
C43	C	-0.183671	1.044584	0.913784
C44	C	-0.015344	1.177696	0.960059
C45	C	-0.049185	1.150929	0.850253
C46	C	-0.150268	1.070991	0.772210
C47	C	-0.217512	1.017816	0.803978
C48	C	0.085736	1.257644	1.038100
C49	C	0.152978	1.310813	1.006337
C50	C	0.119142	1.284041	0.896528
C51	C	0.018059	1.204104	0.818485
C52	C	0.186386	1.337216	0.864760
C53	C	0.152544	1.310449	0.754954
C54	C	-0.015783	1.177336	0.708679
H55	H	-0.098089	1.112232	0.645134
H56	H	0.113282	1.279438	1.127510
O57	O	0.225085	1.367754	0.720661
H58	H	0.166962	1.403684	0.687362
H59	H	0.012964	0.873870	0.565149
H60	H	-0.016581	0.907358	0.473637
O61	O	-0.186776	1.042115	0.653774
H62	H	-0.185286	0.961388	0.599208
H63	H	0.058128	0.822621	0.705195
O64	O	-0.359940	0.905188	0.861363
H65	H	-0.401020	0.872710	0.901894
H66	H	0.074244	0.691624	0.746592
H67	H	-0.047976	0.421251	0.336669
H68	H	-0.271822	0.974892	1.081216
O69	O	0.064886	0.497725	0.702045
H70	H	0.089779	0.566799	0.786611
H71	H	-0.299819	0.952712	0.740432
H72	H	0.033557	1.216393	1.165189
O73	O	0.262006	1.397032	1.090505
H74	H	0.274248	1.406711	1.172196
H75	H	-0.077514	0.454756	0.245152
O76	O	-0.131603	0.486305	0.075255
H77	H	-0.133539	0.410106	0.063334
H78	H	-0.122878	0.823418	0.128635
O79	O	-0.147715	0.617307	0.033853
H80	H	-0.149644	0.541110	0.021936
H81	H	0.268683	1.402313	0.928314
