data_functionalizedCrystal
_audit_creation_method	'MofGen! by Chris Wilmer'
_symmetry_space_group_name_H-M	'P1'
_symmetry_Int_Tables_number	1
_symmetry_cell_setting	triclinic
loop_
_symmetry_equiv_pos_as_xyz
  x,y,z
_cell_length_a	12.759401
_cell_length_b	16.120484
_cell_length_c	12.759393
_cell_angle_alpha	87.135992
_cell_angle_beta	90.020938
_cell_angle_gamma	92.926992
loop_
_atom_site_label
_atom_site_type_symbol
_atom_site_fract_x
_atom_site_fract_y
_atom_site_fract_z
Zn1	Zn	1.584985	-0.331832	0.615183
Zn2	Zn	1.575933	-0.471268	0.448395
Zn3	Zn	1.409280	-0.331877	0.439521
Zn4	Zn	1.400336	-0.471209	0.624029
O5	O	1.492634	-0.401546	0.531782
O6	O	1.730804	-0.350334	0.593070
O7	O	1.553781	-0.452820	0.300200
O8	O	1.440119	-0.215205	0.455406
O9	O	1.724154	-0.452777	0.470532
O10	O	1.569208	-0.215173	0.584465
O11	O	1.431342	-0.350410	0.293680
O12	O	1.261073	-0.350354	0.463984
O13	O	1.424875	-0.452678	0.769874
O14	O	1.254502	-0.452721	0.599541
O15	O	1.560535	-0.350278	0.763375
O16	O	1.545108	-0.587925	0.479110
O17	O	1.416098	-0.587883	0.608147
C18	C	1.219667	-0.401536	0.531760
C19	C	1.102889	-0.401552	0.531777
C20	C	1.044628	-0.454936	0.602261
C21	C	0.934904	-0.454939	0.602282
C22	C	0.941712	-0.348172	0.461326
C23	C	1.051434	-0.348166	0.461311
C24	C	0.783089	-0.484854	0.728051
C25	C	0.724823	-0.538250	0.798527
C26	C	0.755203	-0.619612	0.819663
C27	C	0.843846	-0.647593	0.770310
C28	C	0.902106	-0.594200	0.699827
C29	C	0.871728	-0.512828	0.678709
C30	C	1.203250	-0.318259	0.335542
C31	C	1.261512	-0.264871	0.265053
C32	C	1.231134	-0.183508	0.243905
C33	C	1.142488	-0.155530	0.293240
C34	C	1.084226	-0.208919	0.363729
C35	C	1.114611	-0.290280	0.384878
C36	C	1.478679	-0.618154	0.545574
C37	C	1.472805	-0.710820	0.551509
C38	C	1.462088	-0.880481	0.562368
C39	C	1.523367	-0.921772	0.501213
C40	C	1.517404	-1.016177	0.507255
C41	C	1.468050	-0.786067	0.556327
C42	C	1.766666	-0.401557	0.531804
C43	C	1.883442	-0.401562	0.531814
C44	C	1.492717	-0.401466	0.805810
C45	C	1.492753	-0.401432	0.922585
C46	C	1.506671	-0.184093	0.517959
C47	C	1.512653	-0.091427	0.512068
C48	C	1.492614	-0.401566	0.258816
C49	C	1.492797	-0.401365	0.142027
C50	C	1.563397	-0.348104	0.974064
C51	C	1.563417	-0.348068	1.083786
C52	C	1.422146	-0.454696	1.090540
C53	C	1.422122	-0.454727	0.980820
C54	C	1.607337	-0.249705	1.227491
C55	C	1.677997	-0.196384	1.278974
C56	C	1.781330	-0.183600	1.242567
C57	C	1.814023	-0.224149	1.154680
C58	C	1.743368	-0.277476	1.103203
C59	C	1.640022	-0.290244	1.139607
C60	C	1.378212	-0.553091	0.837113
C61	C	1.307561	-0.606423	0.785634
C62	C	1.204226	-0.619216	0.822039
C63	C	1.171536	-0.578681	0.909931
C64	C	1.242187	-0.525350	0.961410
C65	C	1.345521	-0.512556	0.924997
H66	H	0.652651	-0.515460	0.838710
O67	O	1.394269	-0.922848	0.630381
C68	C	1.418463	-0.901551	0.733781
H69	H	1.503881	-0.877478	0.737662
H70	H	1.365237	-0.851115	0.758030
C71	C	1.296496	-1.008505	0.803964
C72	C	1.401410	-0.978944	0.808733
H73	H	1.285973	-1.056243	0.850200
H74	H	1.280193	-1.022852	0.734302
H75	H	1.252153	-0.966468	0.824169
H76	H	1.445750	-1.020978	0.788516
H77	H	1.417721	-0.964607	0.878394
H78	H	1.838862	-0.140184	1.284492
O79	O	1.287729	-0.131757	0.175301
C80	C	1.288069	-0.166358	0.075983
H81	H	1.271999	-0.236536	0.085689
H82	H	1.224552	-0.138055	0.024762
C83	C	1.415688	-0.061393	0.011652
C84	C	1.395959	-0.147589	0.023574
H85	H	1.482238	-0.049813	-0.020679
H86	H	1.415457	-0.038080	0.078563
H87	H	1.362750	-0.037818	-0.031029
H88	H	1.448890	-0.171161	0.066266
H89	H	1.396202	-0.170906	-0.043331
H90	H	1.580308	-0.886221	0.444319
H91	H	1.898170	-0.213741	1.125050
H92	H	1.620907	-0.304706	0.926651
H93	H	1.769988	-0.310493	1.031650
O94	O	1.353644	-0.506440	1.147273
C95	C	1.368795	-0.494966	1.255154
H96	H	1.451642	-0.467663	1.268418
H97	H	1.309353	-0.450556	1.283459
C98	C	1.251977	-0.612837	1.300553
C99	C	1.353734	-0.579310	1.316845
H100	H	1.242682	-0.664863	1.338608
H101	H	1.241765	-0.620567	1.227872
H102	H	1.202453	-0.575821	1.324140
H103	H	1.403255	-0.616321	1.293245
H104	H	1.363954	-0.571588	1.389524
H105	H	1.651369	-0.163370	1.350532
O106	O	1.210249	-0.486008	1.046745
C107	C	1.103900	-0.508751	1.067862
H108	H	1.064393	-0.530701	0.993297
H109	H	1.098487	-0.561172	1.131295
C110	C	1.096932	-0.406170	1.197549
C111	C	1.048406	-0.433123	1.105964
H112	H	1.062701	-0.359521	1.221058
H113	H	1.168583	-0.390850	1.183326
H114	H	1.092418	-0.449861	1.250399
H115	H	1.052933	-0.389435	1.053113
H116	H	0.976755	-0.448434	1.120180
O117	O	1.071168	-0.591255	0.945288
C118	C	1.051082	-0.676343	0.973011
H119	H	1.107831	-0.714735	0.929260
H120	H	1.062143	-0.687510	1.061164
C121	C	0.867843	-0.655186	0.997050
C122	C	0.937537	-0.702341	0.943307
H123	H	0.797802	-0.671224	0.978732
H124	H	0.881375	-0.597860	0.978377
H125	H	0.877073	-0.664497	1.070507
H126	H	0.928316	-0.693023	0.869852
H127	H	0.924001	-0.759667	0.961967
H128	H	1.523194	-0.260103	1.257136
O129	O	1.135718	-0.671026	0.771886
C130	C	1.186733	-0.704089	0.686528
H131	H	1.256881	-0.661084	0.661342
H132	H	1.214895	-0.768173	0.711038
C133	C	1.023502	-0.764549	0.625132
C134	C	1.109654	-0.711725	0.594193
H135	H	0.975956	-0.769263	0.568177
H136	H	0.989132	-0.742277	0.682642
H137	H	1.046984	-0.817947	0.645558
H138	H	1.086173	-0.658326	0.573780
H139	H	1.144019	-0.733988	0.536677
H140	H	1.334190	-0.639435	0.714076
H141	H	1.462354	-0.542673	0.807458
H142	H	0.974276	-0.616982	0.659644
H143	H	1.086519	-0.498404	0.659642
H144	H	0.707755	-0.663087	0.877047
O145	O	0.753734	-0.405760	0.707632
C146	C	0.835623	-0.349152	0.735719
H147	H	0.887993	-0.380574	0.796505
H148	H	0.884074	-0.328452	0.663135
C149	C	0.724560	-0.234241	0.707676
C150	C	0.788877	-0.272832	0.782342
H151	H	0.695726	-0.187161	0.736432
H152	H	0.669391	-0.272378	0.688750
H153	H	0.764946	-0.216998	0.647196
H154	H	0.748488	-0.290083	0.842815
H155	H	0.844038	-0.234696	0.801280
H156	H	0.868566	-0.713849	0.787517
O157	O	0.998172	-0.181597	0.411606
C158	C	0.983831	-0.098341	0.377808
H159	H	1.061719	-0.068098	0.348295
H160	H	0.923802	-0.096661	0.311633
C161	C	0.848382	-0.087663	0.506398
C162	C	0.944046	-0.050516	0.470157
H163	H	0.823836	-0.058162	0.563361
H164	H	0.858040	-0.143754	0.529166
H165	H	0.798369	-0.086261	0.451243
H166	H	0.994061	-0.051928	0.525307
H167	H	0.934396	0.005577	0.447400
H168	H	1.117742	-0.089283	0.276005
H169	H	0.899804	-0.304708	0.403953
H170	H	1.333692	-0.287658	0.224881
H171	H	1.227999	-0.384509	0.352764
