data_functionalizedCrystal
_audit_creation_method	'MofGen! by Chris Wilmer'
_symmetry_space_group_name_H-M	'P1'
_symmetry_Int_Tables_number	1
_symmetry_cell_setting	triclinic
loop_
_symmetry_equiv_pos_as_xyz
  x,y,z
_cell_length_a	14.048226
_cell_length_b	10.654550
_cell_length_c	10.654550
_cell_angle_alpha	95.515071
_cell_angle_beta	90.003486
_cell_angle_gamma	89.996801
loop_
_atom_site_label
_atom_site_type_symbol
_atom_site_fract_x
_atom_site_fract_y
_atom_site_fract_z
O1	O	0.079083	-1.667844	0.176402
O2	O	0.079100	-1.302366	0.193208
O3	O	0.079092	-1.493508	0.002066
O4	O	0.079091	-1.476702	0.367544
O5	O	-0.079230	-1.493485	0.002054
O6	O	-0.079222	-1.302343	0.193196
O7	O	-0.079239	-1.667821	0.176390
Zn8	Zn	-0.104367	-1.485078	0.184791
Zn9	Zn	0.104228	-1.485109	0.184807
O10	O	-0.079230	-1.476679	0.367532
C11	C	-0.000059	-1.255556	0.191968
C12	C	-0.000052	-1.116113	0.188276
N13	N	-0.246728	-1.485066	0.184780
C14	C	-0.000067	-1.492263	-0.044738
C15	C	-0.000060	-1.488571	-0.184181
C16	C	-0.296549	-1.569731	0.100178
C17	C	-0.396207	-1.569740	0.100177
C18	C	-0.446041	-1.485089	0.184786
C19	C	-0.396213	-1.400415	0.269392
C20	C	-0.296557	-1.400401	0.269386
C21	C	-0.603927	-1.400451	0.269402
C22	C	-0.703590	-1.400466	0.269410
C23	C	-0.703577	-1.569790	0.100193
C24	C	-0.603921	-1.569776	0.100187
C25	C	-0.554099	-1.485103	0.184795
N26	N	0.246589	-1.485131	0.184808
C27	C	-0.000078	-1.714631	0.177630
C28	C	-0.000078	-1.854074	0.181322
C29	C	-0.000055	-1.036628	0.300818
C30	C	-0.000072	-0.905607	0.297341
C31	C	-0.000078	-0.933570	0.068772
C32	C	-0.000069	-1.064588	0.072250
C33	C	0.086234	-1.483367	-0.380716
C34	C	0.086240	-1.486848	-0.249695
C35	C	-0.086371	-1.486824	-0.249696
C36	C	-0.086376	-1.483351	-0.380715
C37	C	-0.000070	-1.477925	0.414336
C38	C	-0.000070	-1.481616	0.553779
H39	H	-0.255981	-1.638669	0.031285
H40	H	-0.000069	-1.129309	-0.019401
Br41	Br	-0.000080	-0.797737	0.450083
Br42	Br	-0.000097	-0.863635	-0.088685
Br43	Br	-0.536286	-1.684670	-0.014628
H44	H	-0.156659	-1.481930	-0.434051
Br45	Br	-0.536315	-1.285529	0.384224
Br46	Br	-0.228941	-1.285485	0.384200
Br47	Br	0.203362	-1.481015	-0.469613
H48	H	-0.436771	-1.638679	0.031287
Br49	Br	0.203372	-1.489233	-0.160801
H50	H	-0.156638	-1.488235	-0.196345
Br51	Br	-0.771195	-1.684706	-0.014625
Br52	Br	-0.771215	-1.285576	0.384241
H53	H	-0.436793	-1.331483	0.338278
Br54	Br	-0.000036	-1.106551	0.458281
