data_functionalizedCrystal
_audit_creation_method	'MofGen! by Chris Wilmer'
_symmetry_space_group_name_H-M	'P1'
_symmetry_Int_Tables_number	1
_symmetry_cell_setting	triclinic
loop_
_symmetry_equiv_pos_as_xyz
  x,y,z
_cell_length_a	16.625547
_cell_length_b	14.908783
_cell_length_c	14.908308
_cell_angle_alpha	90.211273
_cell_angle_beta	93.278524
_cell_angle_gamma	86.707299
loop_
_atom_site_label
_atom_site_type_symbol
_atom_site_fract_x
_atom_site_fract_y
_atom_site_fract_z
Zn1	Zn	0.282013	1.345417	0.587896
Zn2	Zn	0.615347	1.678750	0.921230
Zn3	Zn	0.948680	2.012084	1.254563
Zn4	Zn	0.408662	1.354044	0.437566
Zn5	Zn	0.741996	1.687377	0.770900
Zn6	Zn	1.075329	2.020710	1.104233
Zn7	Zn	0.281141	1.203730	0.428867
Zn8	Zn	0.614474	1.537063	0.762201
Zn9	Zn	0.947807	1.870397	1.095534
Zn10	Zn	0.424102	1.195075	0.579192
Zn11	Zn	0.757435	1.528408	0.912525
Zn12	Zn	1.090769	1.861741	1.245858
O13	O	0.348979	1.274566	0.508380
O14	O	0.682313	1.607900	0.841714
O15	O	1.015646	1.941233	1.175047
O16	O	0.292717	1.472387	0.575238
O17	O	0.626050	1.805720	0.908571
O18	O	0.959384	2.139054	1.241905
O19	O	0.384920	1.341337	0.310588
O20	O	0.718253	1.674670	0.643921
O21	O	1.051586	2.008003	0.977254
O22	O	0.168423	1.222537	0.449965
O23	O	0.501757	1.555870	0.783299
O24	O	0.835090	1.889204	1.116632
O25	O	0.385766	1.478725	0.464791
O26	O	0.719099	1.812058	0.798125
O27	O	1.052432	2.145391	1.131458
O28	O	0.169065	1.326634	0.566803
O29	O	0.502398	1.659967	0.900137
O30	O	0.835731	1.993301	1.233470
O31	O	0.291230	1.230902	0.304196
O32	O	0.624563	1.564235	0.637530
O33	O	0.957897	1.897569	0.970863
O34	O	0.306201	1.076756	0.441525
O35	O	0.639534	1.410090	0.774858
O36	O	0.972868	1.743423	1.108191
O37	O	0.412080	1.207785	0.706171
O38	O	0.745414	1.541119	1.039504
O39	O	1.078747	1.874452	1.372838
O40	O	0.411234	1.070397	0.551967
O41	O	0.744567	1.403731	0.885301
O42	O	1.077901	1.737064	1.218634
O43	O	0.307688	1.318241	0.712566
O44	O	0.641022	1.651575	1.045900
O45	O	0.974355	1.984908	1.379233
O46	O	0.523543	1.332944	0.456351
O47	O	0.856877	1.666277	0.789684
O48	O	1.190210	1.999611	1.123017
O49	O	0.534887	1.216150	0.560402
O50	O	0.868220	1.549484	0.893736
O51	O	1.201553	1.882817	1.227069
C52	C	0.360299	1.040952	0.494858
C53	C	0.693632	1.374285	0.828191
C54	C	1.026966	1.707618	1.161525
C55	C	0.365162	0.941009	0.489094
C56	C	0.698495	1.274342	0.822428
C57	C	1.031829	1.607676	1.155761
C58	C	0.277560	0.746594	0.593448
C59	C	0.610893	1.079928	0.926781
C60	C	0.944226	1.413261	1.260115
C61	C	0.282126	0.652689	0.588036
C62	C	0.615460	0.986023	0.921369
C63	C	0.948793	1.319356	1.254702
C64	C	0.378857	0.659292	0.472853
C65	C	0.712190	0.992625	0.806187
C66	C	1.045524	1.325959	1.139520
C67	C	0.374291	0.753197	0.478266
C68	C	0.707624	1.086530	0.811599
C69	C	1.040957	1.419864	1.144932
C70	C	0.323641	0.796845	0.538566
C71	C	0.656974	1.130178	0.871899
C72	C	0.990308	1.463512	1.205233
C73	C	0.319079	0.890752	0.543982
C74	C	0.652412	1.224085	0.877316
C75	C	0.985746	1.557418	1.210649
C76	C	0.415805	0.897353	0.428796
C77	C	0.749139	1.230686	0.762129
C78	C	1.082472	1.564019	1.095463
C79	C	0.420372	0.803448	0.423384
C80	C	0.753705	1.136781	0.756717
C81	C	1.087039	1.470114	1.090050
C82	C	0.138670	1.274589	0.508385
C83	C	0.472003	1.607922	0.841718
C84	C	0.805336	1.941255	1.175052
C85	C	0.049048	1.274598	0.508387
C86	C	0.382382	1.607932	0.841720
C87	C	0.715715	1.941265	1.175054
C88	C	-0.279127	1.274642	0.508437
C89	C	0.054206	1.607976	0.841770
C90	C	0.387539	1.941309	1.175103
C91	C	-0.187819	1.274633	0.508426
C92	C	0.145515	1.607966	0.841759
C93	C	0.478848	1.941299	1.175092
C94	C	-0.115042	1.274621	0.508411
C95	C	0.218291	1.607954	0.841745
C96	C	0.551624	1.941288	1.175078
C97	C	-0.023728	1.274610	0.508401
C98	C	0.309605	1.607943	0.841734
C99	C	0.642939	1.941277	1.175068
C100	C	0.558471	1.274567	0.508397
C101	C	0.891804	1.607901	0.841730
C102	C	1.225138	1.941234	1.175064
C103	C	0.648090	1.274648	0.508439
C104	C	0.981424	1.607981	0.841772
C105	C	1.314757	1.941315	1.175105
C106	C	0.361704	1.261086	0.742906
C107	C	0.695037	1.594419	1.076239
C108	C	1.028370	1.927752	1.409573
C109	C	0.367126	1.255341	0.842847
C110	C	0.700460	1.588674	1.176180
C111	C	1.033793	1.922008	1.509513
C112	C	0.337616	1.509093	0.521956
C113	C	0.670950	1.842426	0.855289
C114	C	1.004283	2.175760	1.188623
C115	C	0.332774	1.609035	0.527741
C116	C	0.666108	1.942368	0.861075
C117	C	0.999441	2.275701	1.194408
C118	C	0.336244	1.288046	0.274770
C119	C	0.669577	1.621380	0.608104
C120	C	1.002911	1.954713	0.941437
C121	C	0.330586	1.293965	0.174840
C122	C	0.663919	1.627298	0.508173
C123	C	0.997253	1.960632	0.841507
C124	C	0.268593	1.359561	1.037307
C125	C	0.601927	1.692894	1.370641
C126	C	0.935260	2.026228	1.703974
C127	C	0.273685	1.354166	1.131211
C128	C	0.607019	1.687500	1.464544
C129	C	0.940352	2.020833	1.797877
C130	C	0.382397	1.239153	1.124559
C131	C	0.715731	1.572486	1.457892
C132	C	1.049064	1.905819	1.791225
C133	C	0.377305	1.244547	1.030655
C134	C	0.710639	1.577881	1.363989
C135	C	1.043972	1.911214	1.697322
C136	C	0.320402	1.304755	0.987033
C137	C	0.653736	1.638088	1.320366
C138	C	0.987069	1.971421	1.653700
C139	C	0.315315	1.310153	0.893128
C140	C	0.648648	1.643487	1.226461
C141	C	0.981982	1.976820	1.559795
C142	C	0.424023	1.195136	0.886478
C143	C	0.757356	1.528469	1.219811
C144	C	1.090689	1.861802	1.553144
C145	C	0.429115	1.189741	0.980381
C146	C	0.762448	1.523074	1.313714
C147	C	1.095781	1.856407	1.647048
H148	H	0.420084	0.623738	0.423750
H149	H	0.753417	0.957071	0.757083
H150	H	1.086751	1.290405	1.090416
H151	H	0.461607	0.767897	0.374286
H152	H	0.794940	1.101230	0.707619
H153	H	1.128273	1.434563	1.040953
C154	C	0.263361	0.938763	0.610311
C155	C	0.596695	1.272096	0.943644
C156	C	0.930028	1.605430	1.276977
N157	N	0.221390	0.974922	0.660268
N158	N	0.554723	1.308256	0.993601
N159	N	0.888057	1.641589	1.326935
C160	C	0.252718	1.376379	0.845145
C161	C	0.586052	1.709712	1.178478
C162	C	0.919385	2.043046	1.511811
N163	N	0.205566	1.426259	0.809006
N164	N	0.538899	1.759592	1.142340
N165	N	0.872233	2.092926	1.475673
H166	H	0.453335	0.938276	0.384114
H167	H	0.786668	1.271610	0.717447
H168	H	1.120001	1.604943	1.050780
H169	H	0.475442	1.140720	1.015911
H170	H	0.808775	1.474054	1.349244
H171	H	1.142108	1.807387	1.682578
C172	C	0.206004	1.425793	0.989321
C173	C	0.539337	1.759126	1.322654
C174	C	0.872671	2.092459	1.655988
N175	N	0.158860	1.475679	0.953179
N176	N	0.492193	1.809013	1.286512
N177	N	0.825526	2.142346	1.619846
H178	H	0.236322	0.782133	0.642551
H179	H	0.569656	1.115466	0.975884
H180	H	0.902989	1.448800	1.309218
C181	C	0.216693	1.414460	1.186509
C182	C	0.550026	1.747794	1.519843
C183	C	0.883360	2.081127	1.853176
N184	N	0.173764	1.459877	1.228161
N185	N	0.507098	1.793210	1.561494
N186	N	0.840431	2.126544	1.894827
H187	H	0.244600	0.611779	0.632724
H188	H	0.577933	0.945112	0.966058
H189	H	0.911267	1.278445	1.299391
H190	H	0.428725	1.190134	1.160092
H191	H	0.762058	1.523468	1.493426
H192	H	1.095391	1.856801	1.826759
C193	C	0.481017	1.134845	0.831168
C194	C	0.814350	1.468178	1.164501
C195	C	1.147684	1.801512	1.497835
N196	N	0.523945	1.089437	0.789508
N197	N	0.857278	1.422770	1.122841
N198	N	1.190612	1.756104	1.456175
