data_functionalizedCrystal
_audit_creation_method	'MofGen! by Chris Wilmer'
_symmetry_space_group_name_H-M	'P1'
_symmetry_Int_Tables_number	1
_symmetry_cell_setting	triclinic
loop_
_symmetry_equiv_pos_as_xyz
  x,y,z
_cell_length_a	18.101398
_cell_length_b	10.686285
_cell_length_c	10.686551
_cell_angle_alpha	80.915481
_cell_angle_beta	94.402749
_cell_angle_gamma	94.373547
loop_
_atom_site_label
_atom_site_type_symbol
_atom_site_fract_x
_atom_site_fract_y
_atom_site_fract_z
Zn1	Zn	1.183135	0.450316	0.679229
Zn2	Zn	1.183076	0.678896	0.450726
Zn3	Zn	1.050462	0.466653	0.466966
Zn4	Zn	1.068115	0.662498	0.662908
O5	O	1.121197	0.564591	0.564957
O6	O	1.286763	0.480663	0.648951
O7	O	1.158071	0.664441	0.275249
O8	O	1.060699	0.286862	0.508749
O9	O	1.286719	0.648600	0.481072
O10	O	1.158174	0.274860	0.664698
O11	O	1.060641	0.508507	0.287180
O12	O	0.949168	0.492607	0.492924
O13	O	1.090785	0.620653	0.842705
O14	O	0.962138	0.636494	0.636882
O15	O	1.175290	0.464763	0.854696
O16	O	1.175188	0.854344	0.465246
O17	O	1.090727	0.842297	0.621136
C18	C	0.928782	0.564544	0.564895
C19	C	0.846468	0.564553	0.564896
C20	C	1.134888	0.894374	0.539686
C21	C	1.140815	1.035454	0.528917
C22	C	1.135014	0.539056	0.896046
C23	C	1.140901	0.528175	1.037136
C24	C	0.547385	0.564624	0.564997
C25	C	0.570525	0.473567	0.474938
C26	C	0.656137	0.473863	0.474501
C27	C	0.695763	0.564587	0.564947
C28	C	0.668716	0.701104	0.518169
C29	C	0.583020	0.700608	0.517532
C30	C	0.583170	0.520309	0.701974
C31	C	0.668666	0.517388	0.701468
C32	C	0.779621	0.564575	0.564920
C33	C	0.463527	0.564645	0.565020
C34	C	1.314364	0.564638	0.565021
C35	C	1.396680	0.564658	0.565048
C36	C	1.107474	0.233517	0.590356
C37	C	1.101626	0.092433	0.601179
C38	C	1.107473	0.589934	0.235164
C39	C	1.101714	0.600458	0.094102
H40	H	0.673984	0.372953	0.504996
H41	H	0.687313	0.737895	0.418751
Br42	Br	1.204341	0.411158	1.135753
H43	H	0.546738	0.372373	0.505204
Br44	Br	0.559457	0.630639	0.814027
Br45	Br	0.529273	0.523241	0.307116
H46	H	0.673386	0.503984	0.373210
Br47	Br	0.544857	0.761230	0.350125
Br48	Br	1.038290	0.717491	0.995488
Br49	Br	0.712676	0.817959	0.623337
H50	H	1.063542	1.033287	0.671286
H51	H	0.558974	0.421953	0.742534
Br52	Br	0.558484	0.818440	0.621156
Br53	Br	0.697640	0.349871	0.759968
H54	H	1.178896	1.094609	0.458797
H55	H	0.696042	0.578053	0.772992
