data_functionalizedCrystal
_audit_creation_method	'MofGen! by Chris Wilmer'
_symmetry_space_group_name_H-M	'P1'
_symmetry_Int_Tables_number	1
_symmetry_cell_setting	triclinic
loop_
_symmetry_equiv_pos_as_xyz
  x,y,z
_cell_length_a	19.188930
_cell_length_b	10.489741
_cell_length_c	8.965430
_cell_angle_alpha	90.001157
_cell_angle_beta	89.995304
_cell_angle_gamma	96.158022
loop_
_atom_site_label
_atom_site_type_symbol
_atom_site_fract_x
_atom_site_fract_y
_atom_site_fract_z
O1	O	0.098497	-1.691851	-0.123966
O2	O	0.107743	-1.320449	-0.123991
O3	O	0.001536	-1.516868	-0.123949
O4	O	0.204704	-1.495432	-0.124008
O5	O	0.001543	-1.516851	0.124130
O6	O	0.107750	-1.320432	0.124088
O7	O	0.098504	-1.691834	0.124113
Cu8	Cu	0.103128	-1.506132	0.146752
Cu9	Cu	0.103120	-1.506151	-0.146630
O10	O	0.204711	-1.495415	0.124070
C11	C	0.107048	-1.272924	0.000046
C12	C	0.104959	-1.131341	0.000037
C13	C	-0.024476	-1.516165	0.000095
C14	C	-0.101994	-1.514081	0.000108
C15	C	0.099199	-1.739359	0.000073
C16	C	0.101288	-1.880941	0.000071
C17	C	-0.146146	-1.629334	0.000123
C18	C	-0.218983	-1.627376	0.000099
C19	C	-0.247665	-1.510159	0.000090
C20	C	-0.203503	-1.394892	0.000066
C21	C	-0.130668	-1.396853	0.000075
N22	N	-0.356268	-1.420556	0.084510
N23	N	-0.425459	-1.418701	0.084504
C24	C	-0.467113	-1.504244	0.000059
N25	N	-0.436964	-1.591732	-0.084362
N26	N	-0.367767	-1.593591	-0.084350
C27	C	-0.326642	-1.508020	0.000079
C28	C	-0.590244	-1.617382	0.000046
C29	C	-0.663081	-1.615419	0.000012
C30	C	-0.647600	-1.382932	-0.000005
C31	C	-0.574764	-1.384898	0.000013
C32	C	-0.546090	-1.502126	0.000046
C33	C	0.230723	-1.496118	0.000023
C34	C	0.308242	-1.498202	0.000001
N35	N	0.103133	-1.506127	0.353101
C36	C	0.037383	-1.064712	0.000071
C37	C	0.069302	-0.971880	-0.122251
C38	C	0.069325	-0.971897	0.122336
C39	C	0.136906	-1.040374	-0.122386
C40	C	0.136919	-1.040401	0.122310
C41	C	0.168887	-0.947595	-0.000041
N42	N	0.103109	-1.506166	-0.352979
C43	C	0.152234	-1.415262	0.450387
C44	C	0.166361	-1.530443	0.549804
C45	C	0.089012	-1.390995	0.549812
C46	C	0.117292	-1.621366	0.450329
C47	C	0.039916	-1.481842	0.450328
C48	C	0.054016	-1.597106	0.549700
H49	H	-0.122805	-1.724790	0.000144
H50	H	-0.094719	-1.302998	0.000064
O51	O	0.230124	-1.555160	0.601776
C52	C	0.245381	-1.675691	0.548951
H53	H	0.213754	-1.701287	0.443486
H54	H	0.303707	-1.671640	0.522699
H55	H	0.231020	-1.751608	0.637951
H56	H	0.012481	-1.674048	0.593031
O57	O	0.035309	-0.935735	0.245869
C58	C	0.070348	-0.972389	0.374619
H59	H	0.127236	-0.983651	0.345889
H60	H	0.068599	-0.895676	0.464212
H61	H	0.043542	-1.067475	0.417869
O62	O	-0.023772	-1.457112	0.397965
C63	C	-0.015788	-1.345488	0.309300
H64	H	0.040282	-1.329328	0.265752
H65	H	-0.053717	-1.357329	0.211185
H66	H	-0.027473	-1.259549	0.379262
O67	O	-0.261782	-1.739455	0.000184
C68	C	-0.220855	-1.843341	0.000170
H69	H	-0.166668	-1.810662	0.047133
H70	H	-0.247318	-1.924058	0.072209
H71	H	-0.215485	-1.879310	-0.118838
O72	O	-0.231444	-1.281108	-0.000139
C73	C	-0.273092	-1.273017	-0.128642
H74	H	-0.290721	-1.373650	-0.171467
H75	H	-0.321037	-1.222440	-0.099754
H76	H	-0.241199	-1.216417	-0.218616
H77	H	0.165474	-1.070570	-0.225917
O78	O	0.131674	-1.737448	0.398179
C79	C	0.131550	-1.736004	0.240925
H80	H	0.141961	-1.632884	0.199800
H81	H	0.174238	-1.794016	0.197524
H82	H	0.078352	-1.779942	0.198292
O83	O	0.074853	-1.274717	0.601762
C84	C	0.126775	-1.179200	0.551189
H85	H	0.152535	-1.214261	0.446493
H86	H	0.101697	-1.088173	0.524398
H87	H	0.168078	-1.157928	0.641777
H88	H	-0.566896	-1.712836	0.000065
O89	O	-0.705873	-1.727500	0.000092
C90	C	-0.664942	-1.831380	0.000087
H91	H	-0.610757	-1.798694	0.047060
H92	H	-0.691405	-1.912099	0.072122
H93	H	-0.659566	-1.867349	-0.118920
O94	O	-0.675568	-1.269178	0.000045
C95	C	-0.749323	-1.292158	-0.000007
H96	H	-0.765927	-1.391782	0.046972
H97	H	-0.772068	-1.217167	0.071998
H98	H	-0.769615	-1.286106	-0.119030
H99	H	-0.538814	-1.291047	0.000010
H100	H	0.193796	-1.338490	0.406782
H101	H	-0.018169	-1.115644	-0.000065
H102	H	0.224498	-0.896927	-0.000124
O103	O	0.035143	-0.935870	-0.245649
C104	C	0.012631	-1.045160	-0.331560
H105	H	0.008226	-1.133816	-0.257203
H106	H	-0.040716	-1.033578	-0.382695
H107	H	0.052178	-1.056462	-0.424250
O108	O	0.171016	-1.076896	0.245551
C109	C	0.173046	-1.210841	0.243088
H110	H	0.166975	-1.246973	0.123381
H111	H	0.225335	-1.234839	0.289778
H112	H	0.128471	-1.259023	0.314112
