data_functionalizedCrystal
_audit_creation_method	'MofGen! by Chris Wilmer'
_symmetry_space_group_name_H-M	'P1'
_symmetry_Int_Tables_number	1
_symmetry_cell_setting	triclinic
loop_
_symmetry_equiv_pos_as_xyz
  x,y,z
_cell_length_a	12.970454
_cell_length_b	12.970454
_cell_length_c	12.970454
_cell_angle_alpha	89.998716
_cell_angle_beta	60.000396
_cell_angle_gamma	59.999262
loop_
_atom_site_label
_atom_site_type_symbol
_atom_site_fract_x
_atom_site_fract_y
_atom_site_fract_z
Zr1	Zr	1.128505	0.993226	-0.135305
O2	O	1.343594	0.828603	-0.299924
O3	O	0.913416	1.043691	-0.084842
O4	O	1.128504	1.043694	-0.299930
O5	O	1.128507	0.828600	0.084830
O6	O	1.128503	1.213361	-0.299932
O7	O	1.128506	0.828601	-0.084836
O8	O	0.743750	1.213357	0.084821
O9	O	1.513260	0.828604	-0.299923
O10	O	1.001885	1.191836	-0.063320
O11	O	1.001886	1.065214	0.063302
O12	O	1.255124	1.065217	-0.189936
O13	O	1.255126	0.938595	-0.063314
Zr14	Zr	1.128505	1.263824	0.135289
Zr15	Zr	1.128504	1.263826	-0.135309
Zr16	Zr	1.128507	0.993224	0.135294
Zr17	Zr	1.399103	0.993227	-0.135303
Zr18	Zr	0.857908	1.263823	0.135287
O19	O	1.343594	1.213359	0.084826
O20	O	1.343592	1.213362	-0.299930
O21	O	1.343596	0.828601	0.084832
O22	O	0.913416	1.428447	0.299909
O23	O	0.913414	1.428450	-0.084848
O24	O	0.913418	1.043689	0.299915
O25	O	1.128503	1.428450	-0.084846
O26	O	1.128506	1.213357	0.299914
O27	O	1.128507	1.043689	0.299917
O28	O	1.128504	1.428449	0.084821
O29	O	1.513259	1.043695	-0.299926
O30	O	0.743752	1.213355	0.299911
O31	O	0.743750	1.428446	0.299907
O32	O	0.743749	1.428448	0.084818
O33	O	1.513261	0.828603	-0.084833
O34	O	1.513260	1.043693	-0.084836
O35	O	1.001886	1.191834	0.189920
O36	O	1.001885	1.318456	0.063298
O37	O	1.255124	1.191837	-0.063318
O38	O	1.255126	1.065215	0.063304
C39	C	0.790029	1.128524	-0.000011
C40	C	0.675153	1.128524	-0.000012
C41	C	1.128507	0.790046	-0.000003
C42	C	1.128508	0.675169	-0.000001
C43	C	1.466982	1.128526	-0.000005
C44	C	1.581857	1.128527	-0.000004
C45	C	1.128504	1.128528	-0.338485
C46	C	1.128503	1.128528	-0.453361
C47	C	1.128504	1.467004	-0.000013
C48	C	1.128503	1.581881	-0.000015
C49	C	1.128507	1.128523	0.338470
C50	C	1.128508	1.128522	0.453346
C51	C	0.790027	1.467003	-0.000016
C52	C	0.675151	1.581880	-0.000019
C53	C	0.790031	1.128522	0.338467
C54	C	0.675156	1.128520	0.453342
C55	C	0.790029	1.467001	0.338462
C56	C	0.675153	1.581876	0.453335
C57	C	1.466982	0.790049	-0.338477
C58	C	1.581857	0.675174	-0.453351
C59	C	1.466984	0.790047	0.000000
C60	C	1.581860	0.675171	0.000003
C61	C	1.466980	1.128529	-0.338482
C62	C	1.581855	1.128530	-0.453358
