data_functionalizedCrystal
_audit_creation_method	'MofGen! by Chris Wilmer'
_symmetry_space_group_name_H-M	'P1'
_symmetry_Int_Tables_number	1
_symmetry_cell_setting	triclinic
loop_
_symmetry_equiv_pos_as_xyz
  x,y,z
_cell_length_a	10.686220
_cell_length_b	14.908308
_cell_length_c	10.686285
_cell_angle_alpha	90.847679
_cell_angle_beta	89.654569
_cell_angle_gamma	97.378149
loop_
_atom_site_label
_atom_site_type_symbol
_atom_site_fract_x
_atom_site_fract_y
_atom_site_fract_z
Zn1	Zn	1.927743	-0.383417	0.385197
Zn2	Zn	1.955832	-0.220317	0.580902
Zn3	Zn	1.728363	-0.243276	0.389251
Zn4	Zn	1.734201	-0.381627	0.610864
O5	O	1.836535	-0.307159	0.491554
O6	O	2.107664	-0.352922	0.396922
O7	O	1.934970	-0.097204	0.544637
O8	O	1.740612	-0.272224	0.214064
O9	O	2.128301	-0.233093	0.540706
O10	O	1.887096	-0.375185	0.211086
O11	O	1.767849	-0.114072	0.403831
O12	O	1.552943	-0.270488	0.432884
O13	O	1.750563	-0.508023	0.591772
O14	O	1.557232	-0.372134	0.595702
O15	O	1.892758	-0.509338	0.425975
O16	O	1.940631	-0.231358	0.759526
O17	O	1.777800	-0.349871	0.781539
C18	C	1.509402	-0.323608	0.517985
C19	C	1.369454	-0.330665	0.529325
C20	C	1.819178	-0.542306	0.511763
C21	C	1.811782	-0.642512	0.520375
C22	C	1.945945	-0.832182	0.363886
C23	C	1.938999	-0.926334	0.371973
C24	C	1.790939	-0.924971	0.544630
C25	C	1.797885	-0.830819	0.536543
C26	C	1.875392	-0.784428	0.446169
C27	C	1.882344	-0.690273	0.438089
C28	C	1.734277	-0.688912	0.610739
C29	C	1.727331	-0.783064	0.618826
C30	C	2.164945	-0.290646	0.465020
C31	C	2.304894	-0.283610	0.453713
C32	C	1.862930	-0.287947	0.815816
C33	C	1.874334	-0.279752	0.954530
C34	C	1.853889	-0.072929	0.471327
C35	C	1.861500	0.027268	0.462343
C36	C	1.810070	-0.326465	0.166024
C37	C	1.798792	-0.334692	0.027303
H38	H	1.945456	-0.652502	0.364503
N39	N	1.971552	-0.209121	1.012562
H40	H	1.966187	-0.213072	1.106753
H41	H	2.058570	-0.220013	0.983705
N42	N	1.373488	-0.223107	0.356453
H43	H	1.310526	-0.192710	0.307604
H44	H	1.435264	-0.175601	0.399195
H45	H	1.317657	-0.376348	0.602746
N46	N	2.029554	-0.782131	0.266439
H47	H	2.001556	-0.804773	0.180244
H48	H	2.023209	-0.715253	0.273929
N49	N	2.015083	-0.977845	0.283216
H50	H	2.065231	-0.934166	0.224738
H51	H	2.074605	-1.010970	0.332654
N52	N	1.707293	-0.975020	0.642051
H53	H	1.713583	-1.041913	0.634668
H54	H	1.735310	-0.952318	0.728211
N55	N	1.643711	-0.833105	0.716273
H56	H	1.650006	-0.899998	0.708905
H57	H	1.671756	-0.810388	0.802419
N58	N	1.658183	-0.637406	0.699503
H59	H	1.674344	-0.570720	0.680673
H60	H	1.565463	-0.659533	0.688767
H61	H	1.725392	-0.387999	0.983488
