data_functionalizedCrystal
_audit_creation_method	'MofGen! by Chris Wilmer'
_symmetry_space_group_name_H-M	'P1'
_symmetry_Int_Tables_number	1
_symmetry_cell_setting	triclinic
loop_
_symmetry_equiv_pos_as_xyz
  x,y,z
_cell_length_a	8.497374
_cell_length_b	12.759401
_cell_length_c	12.759400
_cell_angle_alpha	89.985155
_cell_angle_beta	89.991978
_cell_angle_gamma	90.000368
loop_
_atom_site_label
_atom_site_type_symbol
_atom_site_fract_x
_atom_site_fract_y
_atom_site_fract_z
Zn1	Zn	0.891904	1.606068	0.418444
Zn2	Zn	0.628108	1.606017	0.594091
Zn3	Zn	0.628137	1.430425	0.418427
Zn4	Zn	0.891846	1.430358	0.594082
O5	O	0.759999	1.518217	0.506261
O6	O	0.856923	1.753082	0.441755
O7	O	0.407350	1.582732	0.570785
O8	O	0.663163	1.453773	0.271408
O9	O	0.663113	1.753045	0.570802
O10	O	0.856951	1.582817	0.271421
O11	O	0.407371	1.453725	0.441725
O12	O	0.663107	1.283395	0.441717
O13	O	1.112616	1.453659	0.570787
O14	O	0.856853	1.283346	0.570770
O15	O	1.112658	1.582752	0.441746
O16	O	0.663058	1.582667	0.741110
O17	O	0.856824	1.453611	0.741104
C18	C	0.759978	1.245250	0.506241
C19	C	0.760006	1.128473	0.506258
C20	C	0.860722	1.073613	0.573564
C21	C	0.860739	0.963889	0.573577
C22	C	0.659310	0.963895	0.438977
C23	C	0.659302	1.073617	0.438959
C24	C	0.977011	1.073609	0.651278
C25	C	0.977028	0.963885	0.651291
C26	C	0.759966	1.518155	0.779228
C27	C	0.760005	1.518224	0.896005
C28	C	1.171479	1.518209	0.506262
C29	C	1.350123	1.518212	0.506274
C30	C	0.760021	1.792250	0.506281
C31	C	0.760031	1.909027	0.506290
C32	C	0.760066	1.518308	0.232228
C33	C	0.760095	1.518347	0.115451
C34	C	0.659222	1.585498	0.950835
C35	C	0.659270	1.585563	1.060559
C36	C	0.860889	1.451070	1.060613
C37	C	0.860847	1.451012	0.950891
C38	C	0.542814	1.663143	0.950805
C39	C	0.542862	1.663208	1.060529
H40	H	0.933039	1.107632	0.728518
C41	C	0.569864	1.241813	0.379157
C42	C	0.548605	1.133922	0.364967
H43	H	0.501527	1.279040	0.333470
H44	H	0.546575	1.259782	0.449709
H45	H	0.675907	1.259789	0.363897
H46	H	0.442564	1.115944	0.380235
H47	H	0.571883	1.115946	0.294399
H48	H	0.577322	0.919217	0.384183
C49	C	1.125933	0.808345	0.614116
C50	C	1.133819	0.917943	0.612131
H51	H	1.222723	0.779983	0.589932
H52	H	1.106925	0.785354	0.683784
H53	H	1.042815	0.785368	0.569959
H54	H	1.216930	0.940920	0.656293
H55	H	1.152845	0.940942	0.542451
C56	C	0.277820	1.616035	1.015492
C57	C	0.377911	1.633888	1.100808
H58	H	0.175996	1.597927	1.040361
H59	H	0.271226	1.677755	0.974090
H60	H	0.318349	1.560301	0.974174
H61	H	0.337388	1.689628	1.142122
H62	H	0.384500	1.572161	1.142227
C63	C	0.599165	1.762348	1.215985
C64	C	0.602089	1.767543	1.106382
H65	H	0.635744	1.826755	1.244292
H66	H	0.494520	1.749887	1.239008
H67	H	0.665271	1.706886	1.238987
H68	H	0.535973	1.823000	1.083381
H69	H	0.706751	1.780016	1.083350
C70	C	1.201610	1.174771	0.704192
C71	C	1.142025	1.113820	0.622034
H72	H	1.303484	1.199587	0.686140
H73	H	1.133703	1.232663	0.716210
H74	H	1.208077	1.133388	0.765943
H75	H	1.135547	1.155204	0.560285
H76	H	1.209949	1.055919	0.610003
H77	H	0.944096	0.934096	0.732632
H78	H	0.942927	1.396242	0.906249
H79	H	0.942993	1.396349	1.105314
H80	H	0.575625	1.744480	0.920956
H81	H	0.426703	1.634043	0.916826
