data_functionalizedCrystal
_audit_creation_method	'MofGen! by Chris Wilmer'
_symmetry_space_group_name_H-M	'P1'
_symmetry_Int_Tables_number	1
_symmetry_cell_setting	triclinic
loop_
_symmetry_equiv_pos_as_xyz
  x,y,z
_cell_length_a	16.625545
_cell_length_b	18.050591
_cell_length_c	16.625539
_cell_angle_alpha	89.987293
_cell_angle_beta	89.973757
_cell_angle_gamma	90.024399
loop_
_atom_site_label
_atom_site_type_symbol
_atom_site_fract_x
_atom_site_fract_y
_atom_site_fract_z
Zn1	Zn	-0.321040	1.135322	-0.455817
Zn2	Zn	0.178960	1.635322	0.044183
Zn3	Zn	-0.455879	1.135234	-0.320985
Zn4	Zn	0.044121	1.635234	0.179015
Zn5	Zn	-0.321061	1.011137	-0.321008
Zn6	Zn	0.178939	1.511137	0.178992
Zn7	Zn	-0.455832	1.011095	-0.455785
Zn8	Zn	0.044168	1.511095	0.044215
O9	O	-0.388453	1.073197	-0.388398
O10	O	0.111547	1.573197	0.111602
O11	O	-0.338938	1.239235	-0.437935
O12	O	0.161062	1.739235	0.062065
O13	O	-0.438023	1.118753	-0.208155
O14	O	0.061977	1.618753	0.291845
O15	O	-0.208226	1.027664	-0.338914
O16	O	0.291774	1.527664	0.161086
O17	O	-0.438003	1.239170	-0.338874
O18	O	0.061997	1.739170	0.161126
O19	O	-0.208210	1.118903	-0.437957
O20	O	0.291790	1.618903	0.062043
O21	O	-0.338973	1.027579	-0.208172
O22	O	0.161027	1.527579	0.291828
O23	O	-0.338928	0.907207	-0.338882
O24	O	0.161072	1.407207	0.161118
O25	O	-0.437923	1.027594	-0.568621
O26	O	0.062077	1.527594	-0.068621
O27	O	-0.437943	0.907176	-0.437902
O28	O	0.062057	1.407176	0.062098
O29	O	-0.338892	1.118863	-0.568645
O30	O	0.161108	1.618863	-0.068645
O31	O	-0.568705	1.118712	-0.338843
O32	O	-0.068705	1.618712	0.161157
O33	O	-0.568670	1.027508	-0.437880
O34	O	-0.068670	1.527508	0.062120
C35	C	-0.388433	0.880245	-0.388392
C36	C	0.111567	1.380245	0.111608
C37	C	-0.388444	0.797699	-0.388408
C38	C	0.111556	1.297699	0.111592
C39	C	-0.442400	0.548878	-0.442182
C40	C	0.057600	1.048878	0.057818
C41	C	-0.462026	0.598247	-0.368586
C42	C	0.037974	1.098247	0.131414
C43	C	-0.388469	0.500579	-0.388407
C44	C	0.111531	1.000579	0.111593
C45	C	-0.368869	0.598292	-0.461999
C46	C	0.131131	1.098292	0.038001
C47	C	-0.388459	0.646564	-0.388411
C48	C	0.111541	1.146564	0.111589
C49	C	-0.408134	0.548860	-0.314772
C50	C	0.091866	1.048860	0.185228
C51	C	-0.314942	0.548901	-0.408234
C52	C	0.185058	1.048901	0.091766
C53	C	-0.334540	0.598247	-0.334588
C54	C	0.165460	1.098247	0.165412
C55	C	-0.388478	0.416480	-0.388405
C56	C	0.111522	0.916480	0.111595
C57	C	-0.388451	0.730660	-0.388405
C58	C	0.111549	1.230660	0.111595
C59	C	-0.597944	1.073116	-0.388373
C60	C	-0.097944	1.573116	0.111627
C61	C	-0.687565	1.073150	-0.388389
C62	C	-0.187565	1.573150	0.111611
C63	C	-0.760347	1.073178	-0.388405
C64	C	-0.260347	1.573178	0.111595
C65	C	-0.851656	1.073222	-0.388423
C66	C	-0.351656	1.573222	0.111577
C67	C	-0.924432	1.073260	-0.388433
C68	C	-0.424432	1.573260	0.111567
C69	C	-1.015746	1.073303	-0.388450
C70	C	-0.515746	1.573303	0.111550
C71	C	-0.178144	1.073298	-0.388442
C72	C	0.321856	1.573298	0.111558
C73	C	-0.088523	1.073341	-0.388460
C74	C	0.411477	1.573341	0.111540
C75	C	-0.388400	1.073233	-0.598707
C76	C	0.111600	1.573233	-0.098707
C77	C	-0.388377	1.073249	-0.688329
C78	C	0.111623	1.573249	-0.188329
C79	C	-0.388473	1.266902	-0.388406
C80	C	0.111527	1.766902	0.111594
C81	C	-0.388482	1.349448	-0.388409
C82	C	0.111518	1.849448	0.111591
C83	C	-0.388359	1.073261	-0.761111
C84	C	0.111641	1.573261	-0.261111
C85	C	-0.388329	1.073278	-0.852420
C86	C	0.111671	1.573278	-0.352420
C87	C	-0.388301	1.073296	-0.925196
C88	C	0.111699	1.573296	-0.425196
C89	C	-0.388272	1.073314	-1.016510
C90	C	0.111728	1.573314	-0.516510
C91	C	-0.388448	1.073203	-0.178908
C92	C	0.111552	1.573203	0.321092
C93	C	-0.388243	1.073332	-0.089287
C94	C	0.111757	1.573332	0.410713
H95	H	-0.352295	0.620005	-0.524233
H96	H	0.147705	1.120005	-0.024233
C97	C	-0.430180	0.520077	-0.231707
C98	C	0.069820	1.020077	0.268293
C99	C	-0.373940	0.545658	-0.175532
C100	C	0.126060	1.045658	0.324468
C101	C	-0.394220	0.519149	-0.099011
C102	C	0.105780	1.019149	0.400989
H103	H	-0.482217	0.537366	-0.217428
H104	H	0.017783	1.037366	0.282572
H105	H	-0.430036	0.467446	-0.232182
H106	H	0.069964	0.967446	0.267818
H107	H	-0.374093	0.598278	-0.175055
H108	H	0.125907	1.098278	0.324945
H109	H	-0.321899	0.528371	-0.189785
H110	H	0.178101	1.028371	0.310215
H111	H	-0.394076	0.466518	-0.099485
H112	H	0.105924	0.966518	0.400515
H113	H	-0.446258	0.536440	-0.084739
H114	H	0.053742	1.036440	0.415261
H115	H	-0.356061	0.536496	-0.060888
H116	H	0.143939	1.036496	0.439112
C117	C	-0.503388	0.520008	-0.502634
C118	C	-0.003388	1.020008	-0.002634
C119	C	-0.580256	0.544997	-0.481496
C120	C	-0.080256	1.044997	0.018504
C121	C	-0.636460	0.518408	-0.537155
C122	C	-0.136460	1.018408	-0.037155
H123	H	-0.490088	0.537642	-0.554809
H124	H	0.009912	1.037642	-0.054809
H125	H	-0.502679	0.467379	-0.502543
H126	H	-0.002679	0.967379	-0.002543
H127	H	-0.580963	0.597615	-0.481596
H128	H	-0.080963	1.097615	0.018404
H129	H	-0.593581	0.527365	-0.429330
H130	H	-0.093581	1.027365	0.070670
H131	H	-0.635751	0.465779	-0.537063
H132	H	-0.135751	0.965779	-0.037063
H133	H	-0.623152	0.536044	-0.589326
H134	H	-0.123152	1.036044	-0.089326
H135	H	-0.688622	0.535353	-0.522816
H136	H	-0.188622	1.035353	-0.022816
H137	H	-0.288928	0.619786	-0.289061
H138	H	0.211072	1.119786	0.210939
C139	C	-0.544868	0.627198	-0.346062
C140	C	-0.044868	1.127198	0.153938
C141	C	-0.539167	0.669810	-0.275935
C142	C	-0.039167	1.169810	0.224065
C143	C	-0.615467	0.696481	-0.255162
C144	C	-0.115467	1.196481	0.244838
H145	H	-0.565196	0.656943	-0.388576
H146	H	-0.065196	1.156943	0.111424
H147	H	-0.580163	0.586634	-0.337012
H148	H	-0.080163	1.086634	0.162988
H149	H	-0.503884	0.710368	-0.284989
H150	H	-0.003884	1.210368	0.215011
H151	H	-0.518853	0.640080	-0.233406
H152	H	-0.018853	1.140080	0.266594
H153	H	-0.650762	0.655917	-0.246112
H154	H	-0.150762	1.155917	0.253888
H155	H	-0.635788	0.726223	-0.297681
H156	H	-0.135788	1.226223	0.202319
H157	H	-0.611610	0.725390	-0.207576
H158	H	-0.111610	1.225390	0.292424
C159	C	-0.232091	0.520008	-0.430792
C160	C	0.267909	1.020008	0.069208
C161	C	-0.211885	0.544995	-0.507933
C162	C	0.288115	1.044995	-0.007933
C163	C	-0.135573	0.518384	-0.528753
C164	C	0.364427	1.018384	-0.028753
H165	H	-0.193560	0.537629	-0.393206
H166	H	0.306440	1.037629	0.106794
H167	H	-0.232569	0.467379	-0.430187
H168	H	0.267431	0.967379	0.069813
H169	H	-0.211400	0.597613	-0.508532
H170	H	0.288600	1.097613	-0.008532
H171	H	-0.250395	0.527376	-0.545536
H172	H	0.249605	1.027376	-0.045536
H173	H	-0.136051	0.465755	-0.528149
H174	H	0.363949	0.965755	-0.028149
H175	H	-0.097049	0.536006	-0.491163
H176	H	0.402951	1.036006	0.008837
H177	H	-0.121856	0.535328	-0.581098
H178	H	0.378144	1.035328	-0.081098
