data_functionalizedCrystal
_audit_creation_method	'MofGen! by Chris Wilmer'
_symmetry_space_group_name_H-M	'P1'
_symmetry_Int_Tables_number	1
_symmetry_cell_setting	triclinic
loop_
_symmetry_equiv_pos_as_xyz
  x,y,z
_cell_length_a	29.917948
_cell_length_b	29.917021
_cell_length_c	29.913391
_cell_angle_alpha	60.005297
_cell_angle_beta	60.010472
_cell_angle_gamma	59.993667
loop_
_atom_site_label
_atom_site_type_symbol
_atom_site_fract_x
_atom_site_fract_y
_atom_site_fract_z
O1	O	0.061938	-0.653075	0.546110
O2	O	0.023328	-0.508466	0.440017
O3	O	0.114898	-0.599963	0.439941
O4	O	-0.029633	-0.561578	0.546186
O5	O	0.145278	-0.569587	0.470242
O6	O	0.053708	-0.478090	0.470318
O7	O	0.092318	-0.622699	0.576411
Zn8	Zn	0.077836	-0.545572	0.528175
Zn9	Zn	0.037809	-0.585593	0.488253
O10	O	0.000747	-0.531202	0.576487
N11	N	0.105154	-0.518262	0.555424
N12	N	0.010496	-0.612908	0.461004
C13	C	0.164136	-0.309209	0.614352
C14	C	0.164251	-0.459335	0.764424
C15	C	0.164150	-0.459313	0.614341
C16	C	0.314282	-0.459305	0.614278
C17	C	0.180666	-0.358742	0.630849
C18	C	0.180732	-0.442815	0.714891
C19	C	0.264747	-0.442797	0.630809
C20	C	0.180676	-0.442802	0.630843
C21	C	0.143097	-0.246161	0.593354
C22	C	0.143120	-0.480326	0.593337
C23	C	0.201706	-0.421790	0.651848
C24	C	0.405963	-0.443499	0.565998
C25	C	0.463273	-0.462598	0.546874
C26	C	0.463297	-0.555329	0.582235
C27	C	0.405988	-0.536228	0.601360
C28	C	0.156905	-0.217495	0.537012
C29	C	0.137776	-0.160180	0.517926
C30	C	0.091035	-0.160201	0.611524
C31	C	0.110164	-0.217516	0.630611
C32	C	0.086772	-0.466488	0.607209
C33	C	0.067659	-0.485590	0.588108
C34	C	0.161236	-0.532368	0.541277
C35	C	0.180352	-0.513266	0.560371
C36	C	0.086942	-0.466529	0.856152
C37	C	0.067877	-0.485647	0.913465
C38	C	0.161489	-0.532436	0.913415
C39	C	0.180552	-0.513318	0.856101
C40	C	0.143277	-0.480363	0.827471
C41	C	0.377323	-0.480313	0.593239
C42	C	-0.111377	-0.650681	0.422736
C43	C	-0.027364	-0.650787	0.422929
C44	C	-0.048335	-0.671770	0.401835
C45	C	-0.064214	-0.763416	0.450041
C46	C	-0.045160	-0.820731	0.469172
C47	C	0.047573	-0.820841	0.433980
C48	C	0.028517	-0.763527	0.414847
C49	C	-0.140115	-0.664483	0.479060
C50	C	-0.197425	-0.645309	0.498058
C51	C	-0.197256	-0.598535	0.404405
C52	C	-0.139946	-0.617709	0.385407
C53	C	-0.041168	-0.594444	0.409067
C54	C	-0.022104	-0.575374	0.428250
C55	C	0.024568	-0.668986	0.475143
C56	C	0.005504	-0.688059	0.455967
C57	C	-0.041000	-0.594453	0.310105
C58	C	-0.021803	-0.575386	0.252792
C59	C	0.024951	-0.669004	0.252854
C60	C	0.005755	-0.688070	0.310168
C61	C	-0.027222	-0.650793	0.338792
C62	C	-0.027377	-0.734817	0.422881
N63	N	0.491125	-0.518235	0.555255
O64	O	0.678406	-0.527360	0.420422
O65	O	0.678588	-0.633782	0.564887
O66	O	0.678516	-0.633539	0.473265
O67	O	0.678478	-0.527602	0.512044
O68	O	0.587469	-0.603251	0.503685
O69	O	0.587541	-0.603493	0.595307
O70	O	0.587359	-0.497071	0.450842
Zn71	Zn	0.572994	-0.545473	0.527905
Zn72	Zn	0.692953	-0.585380	0.487825
O73	O	0.587431	-0.497313	0.542465
N74	N	0.774821	-0.612618	0.460470
N75	N	0.105125	-0.132348	0.555445
O76	O	-0.029633	0.055031	0.546198
O77	O	0.114837	0.055047	0.439777
O78	O	0.023189	0.055024	0.440050
O79	O	0.062016	0.055054	0.545925
O80	O	0.053572	-0.036031	0.470398
O81	O	0.145220	-0.036008	0.470125
O82	O	0.000750	-0.036024	0.576546
Zn83	Zn	0.077809	-0.050473	0.528154
Zn84	Zn	0.037778	0.069496	0.488169
O85	O	0.092399	-0.036001	0.576273
N86	N	0.010456	0.151371	0.460879
N87	N	0.105414	-0.518315	0.941279
O88	O	0.096182	-0.653057	1.128644
O89	O	-0.010215	-0.508539	1.128670
O90	O	-0.009968	-0.600172	1.128636
O91	O	0.095935	-0.561424	1.128678
O92	O	0.020367	-0.569808	1.037586
O93	O	0.020121	-0.478175	1.037620
O94	O	0.126517	-0.622693	1.037594
Zn95	Zn	0.078135	-0.545613	1.023151
Zn96	Zn	0.038167	-0.585619	1.143113
O97	O	0.126270	-0.531061	1.037628
N98	N	0.010887	-0.612923	1.224985
C99	C	0.034899	-0.475056	0.440551
C100	C	0.148298	-0.588365	0.440456
C101	C	0.080746	-0.656109	0.575876
C102	C	-0.032653	-0.542801	0.575971
C103	C	0.633086	-0.633292	0.598298
C104	C	0.632998	-0.632993	0.484834
C105	C	0.632857	-0.497559	0.417433
C106	C	0.632949	-0.497860	0.530895
C107	C	0.148191	0.009634	0.440259
C108	C	0.034733	0.009493	0.440634
C109	C	-0.032641	0.009502	0.576027
C110	C	0.080854	0.009529	0.575690
C111	C	-0.009699	-0.475150	1.083148
C112	C	-0.009388	-0.588620	1.083088
C113	C	0.126001	-0.656082	1.083116
C114	C	0.125697	-0.542605	1.083155
H115	H	0.056584	-0.439691	0.832846
H116	H	-0.067855	-0.564093	0.333408
N117	N	0.170247	-0.711063	1.083119
H118	H	0.156213	-0.735536	1.083112
H119	H	0.180814	-0.728445	1.116882
N120	N	0.091866	0.009549	0.619743
H121	H	0.123627	-0.024198	0.628807
H122	H	0.058222	0.009570	0.653607
H123	H	0.158967	-0.534314	1.083161
N124	N	0.632780	-0.453297	0.362479
H125	H	0.632769	-0.467334	0.338006
H126	H	0.666514	-0.442694	0.345075
H127	H	0.191560	-0.559196	0.514439
H128	H	-0.116547	-0.606465	0.339541
N129	N	0.023755	0.009401	0.396599
H130	H	-0.014771	0.009366	0.410819
H131	H	0.050652	-0.024382	0.386058
H132	H	0.632941	-0.464583	0.539193
H133	H	0.022003	-0.474373	0.936811
H134	H	0.189596	0.009891	0.406765
N135	N	0.023982	-0.420032	0.396412
H136	H	-0.014544	-0.395636	0.410559
H137	H	0.028356	-0.425100	0.363333
N138	N	0.203281	-0.599198	0.396257
H139	H	0.227720	-0.637720	0.410351
H140	H	0.220698	-0.572274	0.385652
H141	H	-0.074131	0.009496	0.609437
H142	H	-0.043102	-0.433644	1.083156
N143	N	0.633013	-0.677076	0.473847
H144	H	0.633061	-0.710972	0.507468
H145	H	0.666748	-0.686079	0.442062
H146	H	-0.074166	-0.534620	0.609333
H147	H	0.088995	-0.697649	0.609197
N148	N	-0.053444	-0.599577	1.083024
H149	H	-0.039238	-0.638111	1.083002
H150	H	-0.064023	-0.572688	1.049258
H151	H	0.191844	-0.559260	0.936723
N152	N	0.241317	-0.528242	0.825167
H153	H	0.262036	-0.552016	0.852002
H154	H	0.251262	-0.493769	0.801389
H155	H	0.056452	-0.439666	0.634048
H156	H	0.021776	-0.474310	0.599390
N157	N	0.192427	-0.248385	0.496824
H158	H	0.171751	-0.238411	0.473056
H159	H	0.202446	-0.289034	0.517502
H160	H	0.226235	-0.524529	0.549071
N161	N	0.633152	-0.677554	0.653254
H162	H	0.599413	-0.664248	0.682902
H163	H	0.666937	-0.686691	0.660304
N164	N	0.375097	-0.575935	0.630744
H165	H	0.385098	-0.603851	0.664602
H166	H	0.385070	-0.595169	0.605646
N167	N	0.494216	-0.615637	0.590991
H168	H	0.467376	-0.636062	0.611152
H169	H	0.518012	-0.629898	0.613286
H170	H	0.382624	-0.397967	0.559385
N171	N	0.494164	-0.422889	0.517494
H172	H	0.484166	-0.394975	0.483633
H173	H	0.534810	-0.443515	0.506647
N174	N	0.152662	-0.129256	0.457155
H175	H	0.176429	-0.156100	0.436450
H176	H	0.173306	-0.105470	0.447184
H177	H	0.064226	-0.136878	0.641864
H178	H	-0.033030	-0.529506	0.229442
N179	N	0.095275	-0.248435	0.691379
H180	H	0.054166	-0.238469	0.708529
H181	H	0.109326	-0.238449	0.708460
N182	N	0.060507	-0.709210	0.221984
H183	H	0.066319	-0.747795	0.248856
H184	H	0.097036	-0.703377	0.198270
H185	H	-0.067926	-0.564092	0.382165
N186	N	0.020621	-0.748841	0.341109
H187	H	0.044422	-0.769560	0.314277
H188	H	-0.013868	-0.758759	0.364827
H189	H	-0.033345	-0.529494	0.416965
H190	H	0.016742	-0.733938	0.467255
N191	N	0.060008	-0.709187	0.510783
H192	H	0.065853	-0.747773	0.516655
H193	H	0.041330	-0.703269	0.547282
H194	H	0.093086	-0.844219	0.427442
N195	N	0.068251	-0.732678	0.385550
H196	H	0.106550	-0.759565	0.383369
H197	H	0.058000	-0.708893	0.406326
H198	H	-0.075156	-0.844016	0.491279
H199	H	-0.109727	-0.740044	0.456586
H200	H	-0.116855	-0.691337	0.509456
H201	H	-0.220518	-0.571693	0.374008
N202	N	-0.228425	-0.660189	0.558811
H203	H	-0.201631	-0.683986	0.579575
H204	H	-0.252213	-0.680803	0.568717
