data_functionalizedCrystal
_audit_creation_method	'MofGen! by Chris Wilmer'
_symmetry_space_group_name_H-M	'P1'
_symmetry_Int_Tables_number	1
_symmetry_cell_setting	triclinic
loop_
_symmetry_equiv_pos_as_xyz
  x,y,z
_cell_length_a	18.215407
_cell_length_b	13.032721
_cell_length_c	18.215407
_cell_angle_alpha	82.830864
_cell_angle_beta	90.010236
_cell_angle_gamma	97.205008
loop_
_atom_site_label
_atom_site_type_symbol
_atom_site_fract_x
_atom_site_fract_y
_atom_site_fract_z
Zn1	Zn	1.087789	-0.416218	0.453336
Zn2	Zn	1.337789	-0.166218	0.703336
Zn3	Zn	1.587789	0.083782	0.953336
Zn4	Zn	1.837789	0.333782	1.203336
Zn5	Zn	1.072097	-0.590939	0.345894
Zn6	Zn	1.322097	-0.340939	0.595894
Zn7	Zn	1.572097	-0.090939	0.845894
Zn8	Zn	1.822097	0.159061	1.095894
Zn9	Zn	0.964743	-0.416204	0.330282
Zn10	Zn	1.214743	-0.166204	0.580282
Zn11	Zn	1.464743	0.083796	0.830282
Zn12	Zn	1.714743	0.333796	1.080282
Zn13	Zn	0.949067	-0.590929	0.468918
Zn14	Zn	1.199067	-0.340929	0.718918
Zn15	Zn	1.449067	-0.090929	0.968918
Zn16	Zn	1.699067	0.159071	1.218918
O17	O	1.018424	-0.503573	0.399608
O18	O	1.268424	-0.253573	0.649608
O19	O	1.518424	-0.003573	0.899608
O20	O	1.768424	0.246427	1.149608
O21	O	1.188691	-0.439405	0.439096
O22	O	1.438691	-0.189405	0.689096
O23	O	1.688691	0.060595	0.939096
O24	O	1.938691	0.310595	1.189096
O25	O	1.057849	-0.567759	0.240839
O26	O	1.307849	-0.317759	0.490839
O27	O	1.557849	-0.067759	0.740839
O28	O	1.807849	0.182241	0.990839
O29	O	0.994194	-0.269961	0.333551
O30	O	1.244194	-0.019961	0.583551
O31	O	1.494194	0.230039	0.833551
O32	O	1.744194	0.480039	1.083551
O33	O	1.177162	-0.567772	0.360159
O34	O	1.427162	-0.317772	0.610159
O35	O	1.677162	-0.067772	0.860159
O36	O	1.927162	0.182228	1.110159
O37	O	1.084595	-0.269971	0.423958
O38	O	1.334595	-0.019971	0.673958
O39	O	1.584595	0.230029	0.923958
O40	O	1.834595	0.480029	1.173958
O41	O	0.978977	-0.439382	0.229369
O42	O	1.228977	-0.189382	0.479369
O43	O	1.478977	0.060618	0.729369
O44	O	1.728977	0.310618	0.979369
O45	O	0.859681	-0.439372	0.348660
O46	O	1.109681	-0.189372	0.598660
O47	O	1.359681	0.060628	0.848660
O48	O	1.609681	0.310628	1.098660
O49	O	0.967475	-0.567755	0.569835
O50	O	1.217475	-0.317755	0.819835
O51	O	1.467475	-0.067755	1.069835
O52	O	1.717475	0.182245	1.319835
O53	O	0.848163	-0.567741	0.450515
O54	O	1.098163	-0.317741	0.700515
O55	O	1.348163	-0.067741	0.950515
O56	O	1.598163	0.182259	1.200515
O57	O	1.069394	-0.439395	0.558387
O58	O	1.319394	-0.189395	0.808387
O59	O	1.569394	0.060605	1.058387
O60	O	1.819394	0.310605	1.308387
O61	O	1.042648	-0.737183	0.375268
O62	O	1.292648	-0.487183	0.625268
O63	O	1.542648	-0.237183	0.875268
O64	O	1.792648	0.012817	1.125268
O65	O	0.952259	-0.737175	0.465654
O66	O	1.202259	-0.487175	0.715654
O67	O	1.452259	-0.237175	0.965654
O68	O	1.702259	0.012825	1.215654
C69	C	0.827219	-0.503555	0.399585
C70	C	1.077219	-0.253555	0.649585
C71	C	1.327219	-0.003555	0.899585
C72	C	1.577219	0.246445	1.149585
C73	C	0.745419	-0.503572	0.399595
C74	C	0.995419	-0.253572	0.649595
C75	C	1.245419	-0.003572	0.899595
C76	C	1.495419	0.246428	1.149595
C77	C	0.551238	-0.570519	0.452581
C78	C	0.801238	-0.320519	0.702581
C79	C	1.051238	-0.070519	0.952581
C80	C	1.301238	0.179481	1.202581
C81	C	0.474379	-0.570523	0.452591
C82	C	0.724379	-0.320523	0.702591
C83	C	0.974379	-0.070523	0.952591
C84	C	1.224379	0.179477	1.202591
C85	C	0.486361	-0.436645	0.346652
C86	C	0.736361	-0.186645	0.596652
C87	C	0.986361	0.063355	0.846652
C88	C	1.236361	0.313355	1.096652
C89	C	0.563219	-0.436637	0.346646
C90	C	0.813219	-0.186637	0.596646
C91	C	1.063219	0.063363	0.846646
C92	C	1.313219	0.313363	1.096646
C93	C	0.595655	-0.503580	0.399610
C94	C	0.845655	-0.253580	0.649610
C95	C	1.095655	-0.003580	0.899610
C96	C	1.345655	0.246420	1.149610
C97	C	0.441938	-0.503591	0.399625
C98	C	0.691938	-0.253591	0.649625
C99	C	0.941938	-0.003591	0.899625
C100	C	1.191938	0.246409	1.149625
C101	C	0.358604	-0.503594	0.399635
C102	C	0.608604	-0.253594	0.649635
C103	C	0.858604	-0.003594	0.899635
C104	C	1.108604	0.246406	1.149635
C105	C	0.678994	-0.503576	0.399601
C106	C	0.928994	-0.253576	0.649601
C107	C	1.178994	-0.003576	0.899601
C108	C	1.428994	0.246424	1.149601
C109	C	0.994070	-0.775098	0.423862
C110	C	1.244070	-0.525098	0.673862
C111	C	1.494070	-0.275098	0.923862
C112	C	1.744070	-0.025098	1.173862
C113	C	0.983718	-0.891258	0.434263
C114	C	1.233718	-0.641258	0.684263
C115	C	1.483718	-0.391258	0.934263
C116	C	1.733718	-0.141258	1.184263
C117	C	1.023866	-0.943015	0.394212
C118	C	1.273866	-0.693015	0.644212
C119	C	1.523866	-0.443015	0.894212
C120	C	1.773866	-0.193015	1.144212
C121	C	1.013168	-1.063072	0.404961
C122	C	1.263168	-0.813072	0.654961
C123	C	1.513168	-0.563072	0.904961
C124	C	1.763168	-0.313072	1.154961
C125	C	1.210375	-0.503591	0.399631
C126	C	1.460375	-0.253591	0.649631
C127	C	1.710375	-0.003591	0.899631
C128	C	1.960375	0.246409	1.149631
C129	C	1.292173	-0.503599	0.399641
C130	C	1.542173	-0.253599	0.649641
C131	C	1.792173	-0.003599	0.899641
C132	C	2.042173	0.246401	1.149641
C133	C	1.018436	-0.503575	0.591561
C134	C	1.268436	-0.253575	0.841561
C135	C	1.518436	-0.003575	1.091561
C136	C	1.768436	0.246425	1.341561
C137	C	1.018442	-0.503577	0.673360
C138	C	1.268442	-0.253577	0.923360
C139	C	1.518442	-0.003577	1.173360
C140	C	1.768442	0.246423	1.423360
C141	C	1.042893	-0.230987	0.375274
C142	C	1.292893	0.019013	0.625274
C143	C	1.542893	0.269013	0.875274
C144	C	1.792893	0.519013	1.125274
C145	C	1.053321	-0.114827	0.364905
C146	C	1.303321	0.135173	0.614905
C147	C	1.553321	0.385173	0.864905
C148	C	1.803321	0.635173	1.114905
C149	C	1.071495	-0.436751	0.855595
C150	C	1.321495	-0.186751	1.105595
C151	C	1.571495	0.063249	1.355595
C152	C	1.821495	0.313249	1.605595
C153	C	1.071491	-0.436750	0.932453
C154	C	1.321491	-0.186750	1.182453
C155	C	1.571491	0.063250	1.432453
C156	C	1.821491	0.313250	1.682453
C157	C	0.965363	-0.570418	0.944364
C158	C	1.215363	-0.320418	1.194364
C159	C	1.465363	-0.070418	1.444364
C160	C	1.715363	0.179582	1.694364
C161	C	0.965364	-0.570412	0.867506
C162	C	1.215364	-0.320412	1.117506
C163	C	1.465364	-0.070412	1.367506
C164	C	1.715364	0.179588	1.617506
C165	C	1.018435	-0.503580	0.823123
C166	C	1.268435	-0.253580	1.073123
C167	C	1.518435	-0.003580	1.323123
C168	C	1.768435	0.246420	1.573123
C169	C	1.018429	-0.503585	0.976840
C170	C	1.268429	-0.253585	1.226840
C171	C	1.518429	-0.003585	1.476840
C172	C	1.768429	0.246415	1.726840
C173	C	1.018424	-0.503585	1.060174
C174	C	1.268424	-0.253585	1.310174
C175	C	1.518424	-0.003585	1.560174
C176	C	1.768424	0.246415	1.810174
C177	C	1.018439	-0.503579	0.739784
C178	C	1.268439	-0.253579	0.989784
C179	C	1.518439	-0.003579	1.239784
C180	C	1.768439	0.246421	1.489784
C181	C	1.018410	-0.503592	1.208403
C182	C	1.268410	-0.253592	1.458403
C183	C	1.518410	-0.003592	1.708403
C184	C	1.768410	0.246408	1.958403
C185	C	1.018422	-0.503589	1.126604
C186	C	1.268422	-0.253589	1.376604
C187	C	1.518422	-0.003589	1.626604
C188	C	1.768422	0.246411	1.876604
H189	H	0.577645	-0.625026	0.495710
H190	H	0.827645	-0.375026	0.745710
H191	H	1.077645	-0.125026	0.995710
H192	H	1.327645	0.124974	1.245710
Cl193	Cl	0.418543	-0.654677	0.519187
Cl194	Cl	0.668543	-0.404677	0.769187
Cl195	Cl	0.918543	-0.154677	1.019187
Cl196	Cl	1.168543	0.095323	1.269187
Cl197	Cl	0.619062	-0.352471	0.280053
Cl198	Cl	0.869062	-0.102471	0.530053
Cl199	Cl	1.119062	0.147529	0.780053
Cl200	Cl	1.369062	0.397529	1.030053
H201	H	0.459942	-0.382144	0.303529
H202	H	0.709942	-0.132144	0.553529
H203	H	0.959942	0.117856	0.803529
H204	H	1.209942	0.367856	1.053529
H205	H	1.095618	-1.070261	0.322659
H206	H	1.345618	-0.820261	0.572659
H207	H	1.595618	-0.570261	0.822659
H208	H	1.845618	-0.320261	1.072659
Cl209	Cl	0.947872	-1.131874	0.470195
Cl210	Cl	1.197872	-0.881874	0.720195
Cl211	Cl	1.447872	-0.631874	0.970195
Cl212	Cl	1.697872	-0.381874	1.220195
H213	H	0.941430	-0.935829	0.476512
H214	H	1.191430	-0.685829	0.726512
H215	H	1.441430	-0.435829	0.976512
H216	H	1.691430	-0.185829	1.226512
H217	H	1.066160	-0.898447	0.351969
H218	H	1.316160	-0.648447	0.601969
H219	H	1.566160	-0.398447	0.851969
H220	H	1.816160	-0.148447	1.101969
Cl221	Cl	1.138209	-0.352729	0.799802
Cl222	Cl	1.388209	-0.102729	1.049802
Cl223	Cl	1.638209	0.147271	1.299802
Cl224	Cl	1.888209	0.397271	1.549802
Cl225	Cl	1.138205	-0.352741	0.973272
Cl226	Cl	1.388205	-0.102741	1.223272
Cl227	Cl	1.638205	0.147259	1.473272
Cl228	Cl	1.888205	0.397259	1.723272
H229	H	0.922157	-0.624832	0.980509
H230	H	1.172157	-0.374832	1.230509
H231	H	1.422157	-0.124832	1.480509
H232	H	1.672157	0.125168	1.730509
Cl233	Cl	0.898650	-0.654428	0.826681
Cl234	Cl	1.148650	-0.404428	1.076681
Cl235	Cl	1.398650	-0.154428	1.326681
Cl236	Cl	1.648650	0.095572	1.576681
