data_functionalizedCrystal
_audit_creation_method	'MofGen! by Chris Wilmer'
_symmetry_space_group_name_H-M	'P1'
_symmetry_Int_Tables_number	1
_symmetry_cell_setting	triclinic
loop_
_symmetry_equiv_pos_as_xyz
  x,y,z
_cell_length_a	14.519709
_cell_length_b	9.065218
_cell_length_c	7.540329
_cell_angle_alpha	90.003038
_cell_angle_beta	89.995460
_cell_angle_gamma	95.651985
loop_
_atom_site_label
_atom_site_type_symbol
_atom_site_fract_x
_atom_site_fract_y
_atom_site_fract_z
O1	O	0.135225	-1.957864	-0.147492
O2	O	0.635225	-1.457864	0.352508
O3	O	0.146317	-1.528372	-0.147494
O4	O	0.646317	-1.028372	0.352506
O5	O	0.006616	-1.754505	-0.147477
O6	O	0.506616	-1.254505	0.352523
O7	O	0.274926	-1.731731	-0.147509
O8	O	0.774926	-1.231731	0.352491
O9	O	0.006614	-1.754492	0.147488
O10	O	0.506614	-1.254492	0.647488
O11	O	0.146315	-1.528358	0.147471
O12	O	0.646315	-1.028358	0.647471
O13	O	0.135223	-1.957851	0.147473
O14	O	0.635223	-1.457851	0.647473
Cu15	Cu	0.140769	-1.743103	0.174405
Cu16	Cu	0.640769	-1.243103	0.674405
Cu17	Cu	0.140771	-1.743119	-0.174426
Cu18	Cu	0.640771	-1.243119	0.325574
O19	O	0.274924	-1.731717	0.147456
O20	O	0.774924	-1.231717	0.647456
C21	C	-0.027752	-1.753437	0.000006
C22	C	0.472248	-1.253437	0.500006
C23	C	-0.130157	-1.750257	0.000007
C24	C	0.369843	-1.250257	0.500007
C25	C	0.145250	-1.473398	-0.000012
C26	C	0.645250	-0.973398	0.499988
C27	C	0.142063	-1.309615	-0.000013
C28	C	0.642063	-0.809615	0.499987
C29	C	0.136290	-2.012824	-0.000013
C30	C	0.636290	-1.512824	0.499987
C31	C	0.139478	-2.176607	-0.000024
C32	C	0.639478	-1.676607	0.499976
C33	C	-0.505138	-1.738547	-0.000039
C34	C	-0.005138	-1.238547	0.499961
C35	C	-0.400807	-1.741799	-0.000026
C36	C	0.099193	-1.241799	0.499974
C37	C	-0.317651	-1.744402	-0.000015
C38	C	0.182349	-1.244402	0.499985
C39	C	-0.213313	-1.747654	-0.000005
C40	C	0.286687	-1.247654	0.499995
C41	C	0.309293	-1.732785	-0.000031
C42	C	0.809293	-1.232785	0.499969
C43	C	0.411697	-1.735966	-0.000043
C44	C	0.911697	-1.235966	0.499957
N45	N	0.140767	-1.743103	0.419753
N46	N	0.640767	-1.243103	0.919753
N47	N	0.140766	-1.743131	-0.419774
N48	N	0.640766	-1.243131	0.080226
