data_functionalizedCrystal
_audit_creation_method	'MofGen! by Chris Wilmer'
_symmetry_space_group_name_H-M	'P1'
_symmetry_Int_Tables_number	1
_symmetry_cell_setting	triclinic
loop_
_symmetry_equiv_pos_as_xyz
  x,y,z
_cell_length_a	19.188929
_cell_length_b	19.188905
_cell_length_c	17.666332
_cell_angle_alpha	89.983521
_cell_angle_beta	90.028268
_cell_angle_gamma	96.860334
loop_
_atom_site_label
_atom_site_type_symbol
_atom_site_fract_x
_atom_site_fract_y
_atom_site_fract_z
O1	O	-0.087086	0.926161	-0.063109
O2	O	0.246248	1.259494	0.270224
O3	O	0.579581	1.592827	0.603558
O4	O	-0.098838	0.722847	-0.063088
O5	O	0.234495	1.056180	0.270245
O6	O	0.567829	1.389514	0.603579
O7	O	0.008694	0.830371	-0.063052
O8	O	0.342028	1.163704	0.270281
O9	O	0.675361	1.497038	0.603614
O10	O	-0.194618	0.818637	-0.063145
O11	O	0.138715	1.151970	0.270189
O12	O	0.472049	1.485303	0.603522
O13	O	0.008700	0.830352	0.062844
O14	O	0.342033	1.163686	0.396178
O15	O	0.675367	1.497019	0.729511
O16	O	-0.098832	0.722828	0.062809
O17	O	0.234501	1.056162	0.396142
O18	O	0.567834	1.389495	0.729475
O19	O	-0.087080	0.926142	0.062788
O20	O	0.246253	1.259475	0.396121
O21	O	0.579587	1.592809	0.729454
Cu22	Cu	-0.092956	0.824483	0.074294
Cu23	Cu	0.240378	1.157817	0.407627
Cu24	Cu	0.573711	1.491150	0.740960
Cu25	Cu	-0.092962	0.824506	-0.074594
Cu26	Cu	0.240371	1.157839	0.258739
Cu27	Cu	0.573704	1.491172	0.592073
O28	O	-0.194612	0.818618	0.062752
O29	O	0.138721	1.151951	0.396085
O30	O	0.472054	1.485285	0.729419
C31	C	-0.098458	0.696826	-0.000136
C32	C	0.234876	1.030160	0.333197
C33	C	0.568209	1.363493	0.666531
C34	C	-0.097324	0.619321	-0.000126
C35	C	0.236009	0.952654	0.333208
C36	C	0.569343	1.285987	0.666541
C37	C	-0.096782	0.582939	-0.068754
C38	C	0.236551	0.916273	0.264580
C39	C	0.569884	1.249606	0.597913
C40	C	-0.095709	0.510116	-0.068763
C41	C	0.237624	0.843449	0.264571
C42	C	0.570957	1.176782	0.597904
C43	C	-0.095164	0.473678	-0.000140
C44	C	0.238170	0.807012	0.333194
C45	C	0.571503	1.140345	0.666527
C46	C	-0.095709	0.510068	0.068498
C47	C	0.237624	0.843401	0.401831
C48	C	0.570957	1.176735	0.735164
C49	C	-0.096789	0.582889	0.068504
C50	C	0.236544	0.916223	0.401838
C51	C	0.569877	1.249556	0.735171
N52	N	-0.053733	0.364650	0.050949
N53	N	0.279600	0.697984	0.384282
N54	N	0.612934	1.031317	0.717615
N55	N	-0.052705	0.295473	0.050937
N56	N	0.280628	0.628807	0.384271
N57	N	0.613961	0.962140	0.717604
C58	C	-0.091911	0.254272	-0.000156
C59	C	0.241422	0.587605	0.333177
C60	C	0.574755	0.920938	0.666510
N61	N	-0.132174	0.284861	-0.051250
N62	N	0.201159	0.618195	0.282083
N63	N	0.534492	0.951528	0.615417
N64	N	-0.133199	0.354045	-0.051241
N65	N	0.200134	0.687378	0.282093
N66	N	0.533468	1.020712	0.615426
C67	C	-0.093993	0.394716	-0.000140
C68	C	0.239340	0.728049	0.333194
C69	C	0.572674	1.061382	0.666527
C70	C	-0.090207	0.138926	-0.068799
C71	C	0.243126	0.472260	0.264534
C72	C	0.576459	0.805593	0.597868
C73	C	-0.089138	0.066101	-0.068805
C74	C	0.244195	0.399434	0.264528
C75	C	0.577528	0.732767	0.597862
C76	C	-0.089131	0.066055	0.068457
C77	C	0.244202	0.399389	0.401791
C78	C	0.577535	0.732722	0.735124
C79	C	-0.090207	0.138879	0.068461
C80	C	0.243126	0.472212	0.401795
C81	C	0.576460	0.805545	0.735128
C82	C	-0.090742	0.175310	-0.000169
C83	C	0.242592	0.508643	0.333164
C84	C	0.575925	0.841977	0.666498
C85	C	-0.220626	0.819007	-0.000208
C86	C	0.112707	1.152341	0.333125
C87	C	0.446040	1.485674	0.666458
C88	C	-0.298131	0.820148	-0.000245
C89	C	0.035203	1.153481	0.333089
C90	C	0.368536	1.486815	0.666422
C91	C	-0.343060	0.757056	-0.000223
C92	C	-0.009727	1.090390	0.333111
C93	C	0.323606	1.423723	0.666444
C94	C	-0.415884	0.758128	-0.000206
C95	C	-0.082551	1.091461	0.333128
C96	C	0.250783	1.424795	0.666461
C97	C	-0.443775	0.822295	-0.000195
C98	C	-0.110441	1.155628	0.333138
C99	C	0.222892	1.488962	0.666471
C100	C	-0.398835	0.885395	-0.000221
C101	C	-0.065502	1.218728	0.333112
C102	C	0.267831	1.552061	0.666445
C103	C	-0.326013	0.884321	-0.000246
C104	C	0.007320	1.217655	0.333087
C105	C	0.340653	1.550988	0.666421
N106	N	-0.551737	0.871336	0.042693
N107	N	-0.218403	1.204669	0.376026
N108	N	0.114930	1.538003	0.709359
N109	N	-0.620915	0.872351	0.042718
N110	N	-0.287582	1.205685	0.376051
N111	N	0.045751	1.539018	0.709384
C112	C	-0.663183	0.825533	-0.000123
C113	C	-0.329850	1.158866	0.333210
C114	C	0.003484	1.492200	0.666544
N115	N	-0.633660	0.777650	-0.042980
N116	N	-0.300327	1.110984	0.290353
N117	N	0.033006	1.444317	0.623687
N118	N	-0.564476	0.776633	-0.043002
N119	N	-0.231142	1.109966	0.290332
N120	N	0.102191	1.443299	0.623665
C121	C	-0.522737	0.823466	-0.000169
C122	C	-0.189404	1.156799	0.333164
C123	C	0.143930	1.490133	0.666497
C124	C	-0.787077	0.763599	-0.000084
C125	C	-0.453744	1.096932	0.333250
C126	C	-0.120410	1.430266	0.666583
C127	C	-0.859902	0.764673	-0.000071
C128	C	-0.526568	1.098007	0.333262
C129	C	-0.193235	1.431340	0.666595
C130	C	-0.842851	0.891942	-0.000080
C131	C	-0.509518	1.225275	0.333254
C132	C	-0.176185	1.558609	0.666587
C133	C	-0.770028	0.890866	-0.000099
C134	C	-0.436695	1.224199	0.333234
C135	C	-0.103362	1.557533	0.666567
C136	C	-0.742146	0.826693	-0.000098
C137	C	-0.408812	1.160026	0.333235
C138	C	-0.075479	1.493359	0.666569
C139	C	0.034708	0.829982	-0.000093
C140	C	0.368041	1.163315	0.333240
C141	C	0.701375	1.496648	0.666573
C142	C	0.112213	0.828841	-0.000062
C143	C	0.445546	1.162174	0.333271
C144	C	0.778879	1.495508	0.666604
C145	C	-0.087460	0.952163	-0.000166
C146	C	0.245873	1.285496	0.333168
C147	C	0.579206	1.618829	0.666501
C148	C	-0.088594	1.029668	-0.000181
C149	C	0.244739	1.363001	0.333152
C150	C	0.578073	1.696335	0.666485
N151	N	-0.092951	0.824473	0.179013
N152	N	0.240383	1.157806	0.512346
N153	N	0.573716	1.491139	0.845680
N154	N	-0.092962	0.824522	-0.179313
N155	N	0.240371	1.157855	0.154020
N156	N	0.573705	1.491188	0.487353
C157	C	-0.045358	0.872100	0.218639
C158	C	0.287975	1.205433	0.551972
C159	C	0.621308	1.538766	0.885305
C160	C	-0.045355	0.872104	0.297886
C161	C	0.287978	1.205437	0.631220
C162	C	0.621312	1.538771	0.964553
C163	C	-0.092956	0.824488	0.337505
C164	C	0.240378	1.157821	0.670839
C165	C	0.573711	1.491154	1.004172
C166	C	-0.140552	0.776852	0.297870
C167	C	0.192782	1.110185	0.631203
C168	C	0.526115	1.443518	0.964537
C169	C	-0.140549	0.776844	0.218624
C170	C	0.192784	1.110178	0.551957
C171	C	0.526118	1.443511	0.885291
N172	N	-0.154764	0.815411	0.461896
N173	N	0.178569	1.148745	0.795230
N174	N	0.511903	1.482078	1.128563
N175	N	-0.154764	0.815422	0.537177
N176	N	0.178569	1.148756	0.870510
N177	N	0.511902	1.482089	1.203844
C178	C	-0.092966	0.824506	0.576269
C179	C	0.240368	1.157839	0.909603
C180	C	0.573701	1.491173	1.242936
N181	N	-0.031164	0.833592	0.537237
N182	N	0.302169	1.166925	0.870570
N183	N	0.635502	1.500258	1.203904
N184	N	-0.031165	0.833584	0.461950
N185	N	0.302169	1.166917	0.795283
N186	N	0.635502	1.500251	1.128616
C187	C	-0.092964	0.824490	0.423434
C188	C	0.240370	1.157823	0.756768
C189	C	0.573703	1.491157	1.090101
C190	C	-0.045366	0.872140	0.701824
C191	C	0.287968	1.205473	1.035157
C192	C	0.621301	1.538807	1.368491
C193	C	-0.045361	0.872139	0.781073
C194	C	0.287972	1.205473	1.114406
C195	C	0.621305	1.538806	1.447740
C196	C	-0.140564	0.776890	0.781056
C197	C	0.192769	1.110224	1.114389
C198	C	0.526103	1.443557	1.447722
C199	C	-0.140562	0.776888	0.701808
C200	C	0.192771	1.110221	1.035141
C201	C	0.526104	1.443554	1.368475
C202	C	-0.092964	0.824516	0.662197
C203	C	0.240369	1.157850	0.995530
C204	C	0.573703	1.491183	1.328864
H205	H	-0.095267	0.480396	0.124371
H206	H	0.238067	0.813729	0.457704
H207	H	0.571400	1.147062	0.791038
Cl208	Cl	-0.095028	0.464369	-0.155045
Cl209	Cl	0.238305	0.797703	0.178289
Cl210	Cl	0.571639	1.131036	0.511622
H211	H	-0.896483	0.713294	-0.000059
H212	H	-0.563150	1.046628	0.333274
H213	H	-0.229817	1.379961	0.666608
Cl214	Cl	-0.752021	0.682926	-0.000086
Cl215	Cl	-0.418688	1.016259	0.333247
Cl216	Cl	-0.085354	1.349593	0.666580
Cl217	Cl	-0.097469	0.628629	0.154787
Cl218	Cl	0.235864	0.961962	0.488120
Cl219	Cl	0.569197	1.295295	0.821454
H220	H	-0.090650	0.168589	-0.124682
H221	H	0.242683	0.501923	0.208652
H222	H	0.576017	0.835256	0.541985
H223	H	-0.733445	0.942242	-0.000112
H224	H	-0.400112	1.275575	0.333221
H225	H	-0.066779	1.608909	0.666554
H226	H	-0.006599	0.910880	0.186390
H227	H	0.326734	1.244213	0.519723
H228	H	0.660067	1.577547	0.853056
Cl229	Cl	-0.088453	0.020254	0.154727
Cl230	Cl	0.244881	0.353588	0.488061
Cl231	Cl	0.578214	0.686921	0.821394
Cl232	Cl	-0.200390	0.716988	0.347675
Cl233	Cl	0.132943	1.050321	0.681008
Cl234	Cl	0.466277	1.383655	1.014342
H235	H	-0.088702	0.036479	-0.124692
H236	H	0.244631	0.369813	0.208641
H237	H	0.577965	0.703146	0.541974
H238	H	-0.179305	0.738060	0.186360
H239	H	0.154028	1.071393	0.519694
H240	H	0.487362	1.404726	0.853027
H241	H	-0.179319	0.738108	0.669543
H242	H	0.154014	1.071441	1.002876
H243	H	0.487347	1.404775	1.336209
Cl244	Cl	-0.090884	0.184619	0.154742
Cl245	Cl	0.242450	0.517952	0.488075
Cl246	Cl	0.575783	0.851285	0.821409
Cl247	Cl	-0.877907	0.972610	-0.000074
Cl248	Cl	-0.544574	1.305943	0.333259
Cl249	Cl	-0.211241	1.639277	0.666592
H250	H	-0.179319	0.738118	0.813313
H251	H	0.154014	1.071451	1.146646
H252	H	0.487348	1.404784	1.479979
H253	H	-0.320363	0.704801	-0.000228
H254	H	0.012970	1.038135	0.333105
H255	H	0.346303	1.371468	0.666438
Cl256	Cl	0.014480	0.931984	0.347710
Cl257	Cl	0.347813	1.265317	0.681043
Cl258	Cl	0.681147	1.598651	1.014376
Cl259	Cl	-0.472377	0.678807	-0.000175
Cl260	Cl	-0.139044	1.012140	0.333159
Cl261	Cl	0.194289	1.345474	0.666492
H262	H	-0.421549	0.937640	-0.000227
H263	H	-0.088215	1.270973	0.333106
H264	H	0.245118	1.604307	0.666440
Cl265	Cl	0.014478	0.932014	0.830891
Cl266	Cl	0.347811	1.265347	1.164225
Cl267	Cl	0.681144	1.598681	1.497558
Cl268	Cl	-0.097458	0.628735	-0.155032
Cl269	Cl	0.235875	0.962068	0.178302
Cl270	Cl	0.569209	1.295401	0.511635
Cl271	Cl	-0.269527	0.963643	-0.000272
Cl272	Cl	0.063806	1.296977	0.333062
Cl273	Cl	0.397140	1.630310	0.666395
H274	H	-0.006606	0.910920	0.669572
H275	H	0.326727	1.244253	1.002905
H276	H	0.660061	1.577587	1.336238
