data_functionalizedCrystal
_audit_creation_method	'MofGen! by Chris Wilmer'
_symmetry_space_group_name_H-M	'P1'
_symmetry_Int_Tables_number	1
_symmetry_cell_setting	triclinic
loop_
_symmetry_equiv_pos_as_xyz
  x,y,z
_cell_length_a	29.839134
_cell_length_b	29.839131
_cell_length_c	29.839125
_cell_angle_alpha	89.982291
_cell_angle_beta	89.978020
_cell_angle_gamma	90.036281
loop_
_atom_site_label
_atom_site_type_symbol
_atom_site_fract_x
_atom_site_fract_y
_atom_site_fract_z
Zn1	Zn	0.686720	-0.178978	-0.254125
Zn2	Zn	0.686652	-0.254090	-0.178995
Zn3	Zn	0.611602	-0.178968	-0.178995
Zn4	Zn	0.611550	-0.254075	-0.254083
O5	O	0.649131	-0.216528	-0.216549
O6	O	0.749578	-0.188952	-0.244176
O7	O	0.676690	-0.244127	-0.116128
O8	O	0.621617	-0.116102	-0.188978
O9	O	0.749528	-0.244137	-0.188979
O10	O	0.676805	-0.116109	-0.244176
O11	O	0.621551	-0.188935	-0.116127
O12	O	0.548728	-0.188921	-0.188938
O13	O	0.621528	-0.244111	-0.316956
O14	O	0.548690	-0.244101	-0.244105
O15	O	0.676755	-0.188937	-0.316987
O16	O	0.676639	-0.316955	-0.188938
O17	O	0.621462	-0.316944	-0.244105
C18	C	0.532408	-0.216509	-0.216517
C19	C	0.482474	-0.216511	-0.216514
C20	C	0.172820	-0.245303	-0.245240
C21	C	-0.014853	-0.245315	-0.245260
O22	O	-0.039127	-0.269774	-0.269665
N23	N	-0.038311	-0.216544	-0.216583
C24	C	-0.014848	-0.187766	-0.187902
O25	O	-0.039107	-0.163291	-0.163514
C26	C	0.172824	-0.187751	-0.187884
C27	C	0.196280	-0.216527	-0.216560
C28	C	0.196276	-0.274076	-0.273913
C29	C	0.243191	-0.274075	-0.273906
C30	C	0.266651	-0.245299	-0.245226
C31	C	0.243195	-0.216526	-0.216553
C32	C	0.196286	-0.158971	-0.159205
C33	C	0.243207	-0.158969	-0.159204
C34	C	0.266663	-0.187745	-0.187880
C35	C	0.313570	-0.187749	-0.187865
N36	N	0.337029	-0.216520	-0.216542
C37	C	0.313569	-0.245295	-0.245222
C38	C	-0.113379	-0.187776	-0.187912
C39	C	-0.160297	-0.187780	-0.187916
C40	C	-0.160298	-0.245329	-0.245275
C41	C	-0.113380	-0.245327	-0.245269
C42	C	-0.089921	-0.216547	-0.216589
C43	C	0.412095	-0.245290	-0.245205
C44	C	0.459014	-0.245287	-0.245194
C45	C	0.459012	-0.187736	-0.187837
C46	C	0.412096	-0.187740	-0.187846
C47	C	0.388639	-0.216519	-0.216534
O48	O	0.337873	-0.163299	-0.163477
O49	O	0.337836	-0.269759	-0.269613
C50	C	0.125905	-0.245304	-0.245247
C51	C	0.102449	-0.216531	-0.216574
C52	C	0.125909	-0.187755	-0.187893
C53	C	0.055531	-0.216535	-0.216577
C54	C	0.032071	-0.245310	-0.245258
C55	C	0.055529	-0.274082	-0.273934
C56	C	0.102445	-0.274080	-0.273927
C57	C	0.102451	-0.158984	-0.159217
C58	C	0.055535	-0.158989	-0.159226
C59	C	0.032075	-0.187764	-0.187906
C60	C	0.649050	-0.333250	-0.216527
C61	C	0.649056	-0.383185	-0.216533
C62	C	0.677914	-0.692821	-0.187866
C63	C	0.677969	-0.880494	-0.187883
O64	O	0.702441	-0.904753	-0.163493
N65	N	0.649224	-0.903970	-0.216583
C66	C	0.620465	-0.880524	-0.245283
O67	O	0.596020	-0.904798	-0.269698
C68	C	0.620412	-0.692852	-0.245268
C69	C	0.649156	-0.669379	-0.216563
C70	C	0.706656	-0.669348	-0.159164
C71	C	0.706640	-0.622433	-0.159158
C72	C	0.677882	-0.598990	-0.187854
C73	C	0.649140	-0.622463	-0.216557
C74	C	0.591656	-0.669407	-0.273969
C75	C	0.591646	-0.622486	-0.273964
C76	C	0.620390	-0.599013	-0.245259
C77	C	0.620367	-0.552106	-0.245248
N78	N	0.649112	-0.528630	-0.216548
C79	C	0.677869	-0.552072	-0.187851
C80	C	0.620494	-0.979055	-0.245289
C81	C	0.620507	-1.025973	-0.245292
C82	C	0.678012	-1.025939	-0.187893
C83	C	0.677996	-0.979021	-0.187887
C84	C	0.649239	-0.955579	-0.216589
C85	C	0.677834	-0.453547	-0.187841
C86	C	0.677814	-0.406627	-0.187836
C87	C	0.620311	-0.406664	-0.245237
C88	C	0.620329	-0.453580	-0.245240
C89	C	0.649094	-0.477020	-0.216540
O90	O	0.595912	-0.527818	-0.269629
O91	O	0.702318	-0.527791	-0.163447
C92	C	0.677930	-0.739737	-0.187872
C93	C	0.649188	-0.763210	-0.216574
C94	C	0.620430	-0.739767	-0.245271
C95	C	0.649200	-0.810128	-0.216578
C96	C	0.677958	-0.833570	-0.187881
C97	C	0.706703	-0.810094	-0.159181
C98	C	0.706687	-0.763179	-0.159175
C99	C	0.591685	-0.763243	-0.273971
C100	C	0.591703	-0.810158	-0.273974
C101	C	0.620461	-0.833601	-0.245277
C102	C	0.766309	-0.216547	-0.216582
C103	C	0.816244	-0.216555	-0.216596
C104	C	0.649143	-0.216524	-0.333728
C105	C	0.649148	-0.216522	-0.383662
C106	C	0.649225	-0.099349	-0.216582
C107	C	0.649265	-0.049415	-0.216595
C108	C	0.677935	-0.187718	-0.693325
C109	C	0.677957	-0.187680	-0.880998
O110	O	0.702399	-0.163232	-0.905279
N111	N	0.649208	-0.216402	-0.904448
C112	C	0.620449	-0.245133	-0.880976
O113	O	0.595993	-0.269559	-0.905228
C114	C	0.620424	-0.245169	-0.693304
C115	C	0.649179	-0.216448	-0.669857
C116	C	0.706687	-0.158999	-0.669877
C117	C	0.706683	-0.159011	-0.622962
C118	C	0.677927	-0.187741	-0.599494
C119	C	0.649175	-0.216460	-0.622941
C120	C	0.591663	-0.273898	-0.669833
C121	C	0.591659	-0.273903	-0.622912
C122	C	0.620414	-0.245183	-0.599465
C123	C	0.620415	-0.245202	-0.552558
N124	N	0.649164	-0.216480	-0.529108
C125	C	0.677920	-0.187749	-0.552576
C126	C	0.620464	-0.245113	-0.979507
C127	C	0.620471	-0.245105	-1.026425
C128	C	0.677979	-0.187650	-1.026443
C129	C	0.677974	-0.187661	-0.979524
C130	C	0.649214	-0.216391	-0.956057
C131	C	0.677910	-0.187776	-0.454050
C132	C	0.677904	-0.187792	-0.407130
C133	C	0.620395	-0.245244	-0.407116
C134	C	0.620401	-0.245230	-0.454032
C135	C	0.649161	-0.216493	-0.477497
O136	O	0.595982	-0.269633	-0.528248
O137	O	0.702366	-0.163320	-0.528316
C138	C	0.677939	-0.187706	-0.740240
C139	C	0.649187	-0.216425	-0.763688
C140	C	0.620431	-0.245155	-0.740219
C141	C	0.649194	-0.216417	-0.810605
C142	C	0.677950	-0.187686	-0.834074
C143	C	0.706699	-0.158964	-0.810624
C144	C	0.706695	-0.158976	-0.763708
C145	C	0.591682	-0.273877	-0.763669
C146	C	0.591689	-0.273864	-0.810585
C147	C	0.620445	-0.245133	-0.834053
C148	C	0.649145	-0.216499	-0.099827
C149	C	0.649227	-0.216374	-0.049893
H150	H	-0.179407	-0.268759	-0.268628
O151	O	0.592533	-0.956237	-0.273106
C152	C	0.563519	-0.929143	-0.247494
H153	H	0.579388	-0.922108	-0.213467
H154	H	0.557471	-0.896151	-0.265787
H155	H	0.530237	-0.947261	-0.242519
O156	O	0.265994	-0.302070	-0.301702
C157	C	0.293116	-0.331043	-0.276078
H158	H	0.278963	-0.333771	-0.240690
H159	H	0.293633	-0.365639	-0.292269
H160	H	0.328682	-0.317150	-0.274555
H161	H	0.392998	-0.164309	-0.164496
H162	H	0.596895	-0.387570	-0.268600
H163	H	0.478121	-0.164309	-0.164485
H164	H	0.701393	-0.164257	-1.045559
O165	O	0.592495	-0.273193	-0.476763
C166	C	0.602283	-0.317975	-0.465312
H167	H	0.619551	-0.318921	-0.431252
H168	H	0.569843	-0.338113	-0.463696
H169	H	0.625368	-0.333102	-0.491726
H170	H	0.701327	-0.164374	-0.473150
H171	H	0.568248	-0.688511	-0.297342
H172	H	0.568268	-0.744160	-0.297340
O173	O	0.734544	-0.599685	-0.131215
C174	C	0.724757	-0.611171	-0.086429
H175	H	0.707491	-0.645249	-0.085484
H176	H	0.757197	-0.612763	-0.066325
H177	H	0.701671	-0.584789	-0.071264
H178	H	0.121538	-0.297512	-0.297278
O179	O	0.032715	-0.301969	-0.301843
C180	C	0.005598	-0.276430	-0.330897
H181	H	0.019765	-0.241053	-0.333734
H182	H	0.005067	-0.292728	-0.365442
H183	H	-0.029964	-0.274859	-0.317009
O184	O	0.032822	-0.130991	-0.131354
C185	C	0.063595	-0.105602	-0.106033
H186	H	0.097050	-0.104080	-0.124434
H187	H	0.050063	-0.070197	-0.101311
H188	H	0.068557	-0.121999	-0.071881
O189	O	0.563826	-0.832937	-0.301925
C190	C	0.573607	-0.821428	-0.346706
H191	H	0.609492	-0.808496	-0.349006
H192	H	0.569733	-0.852274	-0.368906
H193	H	0.549507	-0.794210	-0.358418
O194	O	-0.183009	-0.159788	-0.160043
C195	C	-0.152236	-0.134399	-0.134723
H196	H	-0.118783	-0.132872	-0.153127
H197	H	-0.165771	-0.098995	-0.129996
H198	H	-0.147271	-0.150798	-0.100573
O199	O	0.734667	-0.692051	-0.131307
C200	C	0.779424	-0.680527	-0.141195
H201	H	0.780308	-0.646462	-0.158480
H202	H	0.799596	-0.678886	-0.108798
H203	H	0.794559	-0.706912	-0.164300
H204	H	0.730093	-0.744071	-0.135801
O205	O	0.125284	-0.131094	-0.131331
C206	C	0.152382	-0.156627	-0.102255
H207	H	0.159405	-0.190695	-0.118038
H208	H	0.185380	-0.138315	-0.096255
H209	H	0.134275	-0.161518	-0.068959
O210	O	0.563669	-0.599785	-0.301861
C211	C	0.538315	-0.630568	-0.327203
H212	H	0.536781	-0.664021	-0.308802
H213	H	0.502911	-0.617045	-0.331962
H214	H	0.554749	-0.635530	-0.361339
H215	H	0.568274	-0.297256	-0.829671
O216	O	0.173561	-0.302075	-0.301789
C217	C	0.204334	-0.327457	-0.327100
H218	H	0.237767	-0.328974	-0.308689
H219	H	0.190768	-0.362865	-0.331827
H220	H	0.209349	-0.311059	-0.361250
H221	H	0.568233	-0.297294	-0.603808
O222	O	0.705840	-0.159736	-0.956701
C223	C	0.680281	-0.130710	-0.929572
H224	H	0.646223	-0.146551	-0.922528
H225	H	0.698582	-0.124691	-0.896587
H226	H	0.675371	-0.097416	-0.947663
O227	O	0.734611	-0.130992	-0.833376
C228	C	0.724818	-0.086217	-0.821923
H229	H	0.707550	-0.085288	-0.787851
H230	H	0.757255	-0.066075	-0.820335
H231	H	0.701731	-0.071079	-0.848322
O232	O	0.592500	-0.273022	-1.049129
C233	C	0.567127	-0.298387	-1.018349
H234	H	0.565585	-0.279989	-0.984907
H235	H	0.531728	-0.303171	-1.031892
H236	H	0.583551	-0.332510	-1.013358
O237	O	0.705780	-0.383895	-0.159937
C238	C	0.731158	-0.414651	-0.134604
H239	H	0.732710	-0.448085	-0.153013
H240	H	0.766553	-0.401065	-0.129848
H241	H	0.714732	-0.419672	-0.100467
O242	O	0.705715	-0.476365	-0.159945
C243	C	0.680174	-0.503537	-0.130895
H244	H	0.646117	-0.510594	-0.146698
H245	H	0.698492	-0.536513	-0.124903
H246	H	0.675259	-0.485476	-0.097593
H247	H	0.730097	-0.135623	-0.603875
O248	O	0.705962	-0.956290	-0.159991
C249	C	0.731335	-0.987048	-0.134656
H250	H	0.732883	-1.020483	-0.153063
H251	H	0.766732	-0.973466	-0.129899
H252	H	0.714907	-0.992066	-0.100519
O253	O	0.592527	-0.273173	-0.384261
C254	C	0.618084	-0.302202	-0.357134
H255	H	0.652144	-0.286364	-0.350127
H256	H	0.599784	-0.308219	-0.324130
H257	H	0.622990	-0.335496	-0.375208
H258	H	0.701427	-1.045034	-0.164527
O259	O	0.592567	-1.048702	-0.273215
C260	C	0.567177	-1.017944	-0.298533
H261	H	0.585571	-0.984484	-0.300102
H262	H	0.562364	-1.031487	-0.333926
H263	H	0.533068	-1.012991	-0.282044
H264	H	0.596925	-0.472692	-0.268615
O265	O	0.734666	-0.131075	-0.692601
C266	C	0.760029	-0.105725	-0.661835
H267	H	0.761557	-0.124136	-0.628390
H268	H	0.795434	-0.100938	-0.675393
H269	H	0.743607	-0.071602	-0.656845
O270	O	-0.090545	-0.159882	-0.160026
C271	C	-0.063444	-0.185412	-0.130950
H272	H	-0.056419	-0.219479	-0.146734
H273	H	-0.030447	-0.167097	-0.124954
H274	H	-0.081548	-0.190304	-0.097654
O275	O	0.563712	-0.301736	-0.692655
C276	C	0.534711	-0.276151	-0.719783
H277	H	0.550582	-0.242107	-0.726823
H278	H	0.528679	-0.294446	-0.752770
H279	H	0.501420	-0.271213	-0.701692
H280	H	0.730117	-0.829189	-0.135814
H281	H	0.701321	-0.164403	-0.388042
H282	H	0.597044	-0.268511	-0.960404
H283	H	0.568265	-0.297274	-0.744566
O284	O	0.481729	-0.273255	-0.273094
C285	C	0.450958	-0.298659	-0.298402
H286	H	0.417526	-0.280259	-0.299994
H287	H	0.464528	-0.303504	-0.333788
H288	H	0.445939	-0.332754	-0.281889
O289	O	-0.090617	-0.273230	-0.273191
C290	C	-0.102069	-0.263486	-0.317983
H291	H	-0.114944	-0.227601	-0.320316
H292	H	-0.071208	-0.267388	-0.340172
H293	H	-0.129313	-0.287591	-0.329681
O294	O	0.173578	-0.130972	-0.131338
C295	C	0.204355	-0.105583	-0.106022
H296	H	0.237808	-0.104062	-0.124426
H297	H	0.190824	-0.070177	-0.101300
H298	H	0.209319	-0.121978	-0.071870
H299	H	0.730110	-0.135588	-0.744622
H300	H	0.393001	-0.268723	-0.268566
H301	H	0.262305	-0.135529	-0.135852
