data_functionalizedCrystal
_audit_creation_method	'MofGen! by Chris Wilmer'
_symmetry_space_group_name_H-M	'P1'
_symmetry_Int_Tables_number	1
_symmetry_cell_setting	triclinic
loop_
_symmetry_equiv_pos_as_xyz
  x,y,z
_cell_length_a	16.959455
_cell_length_b	12.645330
_cell_length_c	16.959447
_cell_angle_alpha	89.975203
_cell_angle_beta	89.982031
_cell_angle_gamma	90.014639
loop_
_atom_site_label
_atom_site_type_symbol
_atom_site_fract_x
_atom_site_fract_y
_atom_site_fract_z
Zn1	Zn	1.208425	-0.422118	-0.446932
Zn2	Zn	1.708425	0.077882	0.053068
Zn3	Zn	1.208345	-0.599406	-0.314763
Zn4	Zn	1.708345	-0.099406	0.185237
Zn5	Zn	1.076245	-0.422147	-0.314770
Zn6	Zn	1.576245	0.077853	0.185230
Zn7	Zn	1.076224	-0.599331	-0.446902
Zn8	Zn	1.576224	-0.099331	0.053098
O9	O	1.142310	-0.510750	-0.380842
O10	O	1.642310	-0.010750	0.119158
O11	O	1.319026	-0.445655	-0.429410
O12	O	1.819026	0.054345	0.070590
O13	O	1.190797	-0.575936	-0.204153
O14	O	1.690797	-0.075936	0.295847
O15	O	1.093822	-0.273796	-0.332316
O16	O	1.593822	0.226204	0.167684
O17	O	1.318966	-0.575907	-0.332306
O18	O	1.818966	-0.075907	0.167694
O19	O	1.190934	-0.273775	-0.429416
O20	O	1.690934	0.226225	0.070584
O21	O	1.093744	-0.445705	-0.204158
O22	O	1.593744	0.054295	0.295842
O23	O	0.965632	-0.445632	-0.332287
O24	O	1.465632	0.054368	0.167713
O25	O	1.093785	-0.575779	-0.557517
O26	O	1.593785	-0.075779	-0.057517
O27	O	0.965616	-0.575808	-0.429364
O28	O	1.465616	-0.075808	0.070636
O29	O	1.190913	-0.445582	-0.557539
O30	O	1.690913	0.054418	-0.057539
O31	O	1.190776	-0.747743	-0.332277
O32	O	1.690776	-0.247743	0.167723
O33	O	1.093707	-0.747688	-0.429358
O34	O	1.593707	-0.247688	0.070642
C35	C	0.936944	-0.510716	-0.380824
C36	C	1.436944	-0.010716	0.119176
C37	C	0.849087	-0.510726	-0.380835
C38	C	1.349087	-0.010726	0.119165
C39	C	0.477595	-0.442912	-0.330399
C40	C	0.977595	0.057088	0.169601
C41	C	0.477628	-0.578676	-0.431329
C42	C	0.977628	-0.078676	0.068671
C43	C	0.560174	-0.578661	-0.431325
C44	C	1.060174	-0.078661	0.068675
C45	C	0.601434	-0.510771	-0.380855
C46	C	1.101434	-0.010771	0.119145
C47	C	0.560149	-0.442897	-0.330391
C48	C	1.060149	0.057103	0.169609
C49	C	0.601465	-0.646541	-0.481782
C50	C	1.101465	-0.146541	0.018218
C51	C	0.684016	-0.646529	-0.481779
C52	C	1.184016	-0.146529	0.018221
C53	C	0.725278	-0.578634	-0.431313
C54	C	1.225278	-0.078634	0.068687
C55	C	0.683988	-0.510756	-0.380847
C56	C	1.183988	-0.010756	0.119153
C57	C	0.725248	-0.442867	-0.330378
C58	C	1.225248	0.057133	0.169622
C59	C	0.683959	-0.374983	-0.279916
C60	C	1.183959	0.125017	0.220084
C61	C	0.601411	-0.375002	-0.279925
C62	C	1.101411	0.124998	0.220075
C63	C	0.807826	-0.578615	-0.431304
C64	C	1.307826	-0.078615	0.068696
C65	C	0.807802	-0.442852	-0.330370
C66	C	1.307802	0.057148	0.169630
C67	C	1.142252	-0.786180	-0.380831
C68	C	1.642252	-0.286180	0.119169
C69	C	1.142300	-0.904010	-0.380852
C70	C	1.642300	-0.404010	0.119148
C71	C	1.081486	-1.071584	-0.442115
C72	C	1.581486	-0.571584	0.057885
C73	C	1.081175	-0.949024	-0.441918
C74	C	1.581175	-0.449024	0.058082
C75	C	1.119753	-0.948603	-0.297551
C76	C	1.619753	-0.448603	0.202449
C77	C	1.119382	-1.071201	-0.297922
C78	C	1.619382	-0.571201	0.202078
C79	C	1.226033	-1.071106	-0.402216
C80	C	1.726033	-0.571106	0.097784
C81	C	1.225519	-0.948499	-0.404038
C82	C	1.725519	-0.448499	0.095962
C83	C	1.348478	-0.510786	-0.380860
C84	C	1.848478	-0.010786	0.119140
C85	C	1.436335	-0.510802	-0.380868
C86	C	1.936335	-0.010802	0.119132
C87	C	1.142356	-0.510669	-0.587010
C88	C	1.642356	-0.010669	-0.087010
C89	C	1.142375	-0.510634	-0.674867
C90	C	1.642375	-0.010634	-0.174867
C91	C	1.142389	-0.234245	-0.380870
C92	C	1.642389	0.265755	0.119130
C93	C	1.142423	-0.116415	-0.380882
C94	C	1.642423	0.383585	0.119118
C95	C	1.192917	-0.578422	-0.716140
C96	C	1.692917	-0.078422	-0.216140
C97	C	1.091848	-0.442820	-0.716147
C98	C	1.591848	0.057180	-0.216147
C99	C	1.091861	-0.442789	-0.798693
C100	C	1.591861	0.057211	-0.298693
C101	C	1.142403	-0.510576	-0.839966
C102	C	1.642403	-0.010576	-0.339966
C103	C	1.192930	-0.578395	-0.798693
C104	C	1.692930	-0.078395	-0.298693
C105	C	1.041329	-0.374979	-0.839972
C106	C	1.541329	0.125021	-0.339972
C107	C	1.041340	-0.374946	-0.922523
C108	C	1.541340	0.125054	-0.422523
C109	C	1.091886	-0.442729	-0.963798
C110	C	1.591886	0.057271	-0.463798
C111	C	1.142416	-0.510549	-0.922520
C112	C	1.642416	-0.010549	-0.422520
C113	C	1.192957	-0.578337	-0.963793
C114	C	1.692957	-0.078337	-0.463793
C115	C	1.243492	-0.646153	-0.922517
C116	C	1.743492	-0.146153	-0.422517
C117	C	1.243476	-0.646178	-0.839968
C118	C	1.743476	-0.146178	-0.339968
C119	C	1.091902	-0.442704	-1.046346
C120	C	1.591902	0.057296	-0.546346
C121	C	1.192971	-0.578310	-1.046347
C122	C	1.692971	-0.078310	-0.546347
C123	C	1.142310	-0.510755	-0.175475
C124	C	1.642310	-0.010755	0.324525
C125	C	1.142443	-0.510491	-0.087619
C126	C	1.642443	-0.010491	0.412381
H127	H	0.567865	-0.701820	-0.522866
H128	H	1.067865	-0.201820	-0.022866
H129	H	0.443974	-0.387640	-0.289316
H130	H	0.943974	0.112360	0.210684
H131	H	1.284640	-0.701349	-0.956132
H132	H	1.784640	-0.201349	-0.456132
Br133	Br	0.972777	-0.282941	-0.783956
Br134	Br	1.472777	0.217059	-0.283956
H135	H	0.717564	-0.319713	-0.238821
H136	H	1.217564	0.180287	0.261179
H137	H	1.000192	-0.319725	-0.956123
H138	H	1.500192	0.180275	-0.456123
H139	H	1.234063	-0.633633	-0.682529
H140	H	1.734063	-0.133633	-0.182529
H141	H	0.567786	-0.319736	-0.238841
H142	H	1.067786	0.180264	0.261159
H143	H	0.841440	-0.633888	-0.472387
H144	H	1.341440	-0.133888	0.027613
H145	H	0.444028	-0.633954	-0.472414
H146	H	0.944028	-0.133954	0.027586
H147	H	1.050756	-0.387491	-1.079949
H148	H	1.550756	0.112509	-0.579949
Br149	Br	1.023277	-0.350804	-0.660133
Br150	Br	1.523277	0.149196	-0.160133
Br151	Br	1.017514	-1.119021	-0.267799
Br152	Br	1.517514	-0.619021	0.232201
Br153	Br	0.863792	-0.350703	-0.261879
Br154	Br	1.363792	0.149297	0.238121
H155	H	0.717626	-0.701803	-0.522869
H156	H	1.217626	-0.201803	-0.022869
Br157	Br	1.104684	-0.898761	-0.544869
Br158	Br	1.604684	-0.398761	-0.044869
Br159	Br	1.312055	-0.738201	-0.783946
Br160	Br	1.812055	-0.238201	-0.283946
H161	H	1.095462	-1.100997	-0.504085
H162	H	1.595462	-0.600997	-0.004085
Br163	Br	0.978822	-1.123106	-0.418880
Br164	Br	1.478822	-0.623106	0.081120
H165	H	1.019190	-0.919785	-0.427784
H166	H	1.519190	-0.419785	0.072216
H167	H	1.161840	-1.100861	-0.250744
H168	H	1.661840	-0.600861	0.249256
Br169	Br	1.018944	-0.897583	-0.266880
Br170	Br	1.518944	-0.397583	0.233120
H171	H	1.273311	-0.917852	-0.362687
H172	H	1.773311	-0.417852	0.137313
H173	H	1.162730	-0.919447	-0.250681
H174	H	1.662730	-0.419447	0.249319
H175	H	1.246601	-1.101951	-0.461927
H176	H	1.746601	-0.601951	0.038073
H177	H	1.242523	-0.919349	-0.465343
H178	H	1.742523	-0.419349	0.034657
Br179	Br	1.301706	-1.119447	-0.327897
Br180	Br	1.801706	-0.619447	0.172103
H181	H	1.234131	-0.633507	-1.079945
H182	H	1.734131	-0.133507	-0.579945
