data_functionalizedCrystal
_audit_creation_method	'MofGen! by Chris Wilmer'
_symmetry_space_group_name_H-M	'P1'
_symmetry_Int_Tables_number	1
_symmetry_cell_setting	triclinic
loop_
_symmetry_equiv_pos_as_xyz
  x,y,z
_cell_length_a	10.723024
_cell_length_b	9.565339
_cell_length_c	10.723024
_cell_angle_alpha	89.998597
_cell_angle_beta	84.467869
_cell_angle_gamma	90.003287
loop_
_atom_site_label
_atom_site_type_symbol
_atom_site_fract_x
_atom_site_fract_y
_atom_site_fract_z
O1	O	1.657188	0.116247	0.175018
O2	O	2.157188	0.616247	0.675018
O3	O	1.294035	0.116251	0.191772
O4	O	1.794035	0.616251	0.691772
O5	O	1.483988	0.116244	0.001819
O6	O	1.983988	0.616244	0.501819
O7	O	1.467235	0.116255	0.364971
O8	O	1.967235	0.616255	0.864971
O9	O	1.483973	-0.116276	0.001831
O10	O	1.983973	0.383724	0.501831
O11	O	1.294020	-0.116269	0.191783
O12	O	1.794020	0.383731	0.691783
O13	O	1.657173	-0.116273	0.175030
O14	O	2.157173	0.383727	0.675030
Zn15	Zn	1.475594	-0.153188	0.183409
Zn16	Zn	1.975594	0.346812	0.683409
Zn17	Zn	1.475614	0.153167	0.183393
Zn18	Zn	1.975614	0.653167	0.683393
O19	O	1.467220	-0.116266	0.364983
O20	O	1.967220	0.383734	0.864983
C21	C	1.247528	-0.000008	0.190558
C22	C	1.747528	0.499992	0.690558
C23	C	1.108974	-0.000006	0.186911
C24	C	1.608974	0.499994	0.686911
N25	N	1.475590	-0.362268	0.183419
N26	N	1.975590	0.137732	0.683419
C27	C	1.033991	-0.000002	0.293198
C28	C	1.533991	0.499998	0.793198
C29	C	0.890788	-0.000001	0.289431
C30	C	1.390788	0.499999	0.789431
C31	C	1.387716	-0.453467	0.271236
C32	C	1.887716	0.046533	0.771236
C33	C	1.500691	-0.546647	0.296416
C34	C	2.000691	-0.046647	0.796416
C35	C	1.362663	-0.546644	0.158249
C36	C	1.862663	-0.046644	0.658249
C37	C	1.588622	-0.453396	0.208655
C38	C	2.088622	0.046604	0.708655
C39	C	1.450520	-0.453384	0.070439
C40	C	1.950520	0.046616	0.570439
C41	C	1.563576	-0.546521	0.095571
C42	C	2.063576	-0.046521	0.595571
C43	C	1.703680	-0.000010	0.176243
C44	C	2.203680	0.499990	0.676243
C45	C	1.842234	-0.000003	0.179891
C46	C	2.342234	0.499997	0.679891
C47	C	1.482762	-0.000014	-0.044675
C48	C	1.982762	0.499986	0.455325
C49	C	1.479114	-0.000009	-0.183229
C50	C	1.979114	0.499991	0.316771
N51	N	1.475628	0.362246	0.183373
N52	N	1.975628	0.862246	0.683373
C53	C	1.585401	-0.000009	-0.258212
C54	C	2.085401	0.499991	0.241788
C55	C	1.581634	-0.000004	-0.401415
C56	C	2.081634	0.499996	0.098585
C57	C	1.468447	-0.000004	0.411477
C58	C	1.968447	0.499996	0.911477
C59	C	1.472094	0.000000	0.550031
C60	C	1.972094	0.500000	1.050031
H61	H	1.075814	-0.000008	0.386984
H62	H	1.575814	0.499992	0.886984
F63	F	1.528443	-0.600193	0.421272
F64	F	2.028443	-0.100193	0.921272
H65	H	1.381099	-0.000010	-0.385544
H66	H	1.881099	0.499990	0.114456
F67	F	0.926441	0.000003	0.060950
F68	F	1.426441	0.500003	0.560950
F69	F	0.806574	0.000014	0.408367
F70	F	1.306574	0.500014	0.908367
H71	H	1.267147	-0.587607	0.136980
H72	H	1.767147	-0.087607	0.636980
F73	F	1.660833	-0.599599	-0.001527
F74	F	2.160833	-0.099599	0.498473
F75	F	1.054316	-0.000019	0.064321
F76	F	1.554316	0.499981	0.564321
H77	H	1.429254	-0.412387	-0.025056
H78	H	1.929254	0.087613	0.474944
F79	F	1.290675	-0.400056	0.368391
F80	F	1.790675	0.099944	0.868391
H81	H	1.684160	-0.412608	0.230039
H82	H	2.184160	0.087392	0.730039
H83	H	1.679187	-0.000018	-0.216390
H84	H	2.179187	0.499982	0.283610
F85	F	1.700570	-0.000013	-0.485629
F86	F	2.200570	0.499987	0.014371
F87	F	1.356524	0.000005	-0.237887
F88	F	1.856524	0.500005	0.262113
