data_functionalizedCrystal
_audit_creation_method	'MofGen! by Chris Wilmer'
_symmetry_space_group_name_H-M	'P1'
_symmetry_Int_Tables_number	1
_symmetry_cell_setting	triclinic
loop_
_symmetry_equiv_pos_as_xyz
  x,y,z
_cell_length_a	27.731993
_cell_length_b	27.732048
_cell_length_c	13.330367
_cell_angle_alpha	89.990394
_cell_angle_beta	90.003990
_cell_angle_gamma	82.631525
loop_
_atom_site_label
_atom_site_type_symbol
_atom_site_fract_x
_atom_site_fract_y
_atom_site_fract_z
O1	O	0.640947	0.057391	-0.083164
O2	O	0.500149	0.066164	-0.083227
O3	O	0.574921	-0.008620	-0.083175
O4	O	0.566175	0.132175	-0.083217
O5	O	0.574910	-0.008622	0.083673
O6	O	0.500139	0.066163	0.083620
O7	O	0.640936	0.057390	0.083683
Cu8	Cu	0.570536	0.061776	0.098886
Cu9	Cu	0.570549	0.061778	-0.098430
O10	O	0.566164	0.132174	0.083630
C11	C	0.482137	0.065983	0.000189
C12	C	0.428480	0.065441	0.000166
C13	C	0.574732	-0.026628	0.000252
C14	C	0.574179	-0.080282	0.000260
C15	C	0.045326	0.061511	-0.090733
C16	C	0.246983	0.063578	-0.090761
O17	O	0.273061	0.063827	-0.168111
N18	N	0.272198	0.063836	0.000186
C19	C	0.246995	0.063574	0.091145
O20	O	0.273069	0.063836	0.168500
C21	C	0.045339	0.061503	0.091172
C22	C	0.020127	0.061251	0.000220
C23	C	0.020114	0.061258	-0.181678
C24	C	-0.030298	0.060744	-0.181670
C25	C	-0.055497	0.060483	-0.090717
C26	C	-0.030285	0.060736	0.000228
C27	C	0.020138	0.061238	0.182131
C28	C	-0.030279	0.060719	0.182129
C29	C	-0.055491	0.060466	0.091177
C30	C	-0.105896	0.059962	0.091188
N31	N	-0.131110	0.059704	0.000242
C32	C	-0.105911	0.059965	-0.090711
C33	C	0.352867	0.064662	0.091125
C34	C	0.403281	0.065180	0.091118
C35	C	0.403266	0.065184	-0.090788
C36	C	0.352851	0.064669	-0.090781
C37	C	0.327653	0.064404	0.000179
C38	C	-0.211779	0.058885	-0.090687
C39	C	-0.262196	0.058373	-0.090671
C40	C	-0.262176	0.058367	0.091234
C41	C	-0.211764	0.058882	0.091219
C42	C	-0.186567	0.059139	0.000250
O43	O	-0.132004	0.059707	0.168498
O44	O	-0.131992	0.059692	-0.168054
C45	C	0.095738	0.062025	-0.090741
C46	C	0.120950	0.062279	0.000204
C47	C	0.095751	0.062018	0.091157
C48	C	0.171364	0.062797	0.000198
C49	C	0.196563	0.063058	-0.090755
C50	C	0.171349	0.062800	-0.181701
C51	C	0.120937	0.062286	-0.181693
C52	C	0.120965	0.062276	0.182103
C53	C	0.171377	0.062790	0.182088
C54	C	0.196576	0.063051	0.091135
C55	C	0.614884	-0.419105	0.000226
C56	C	0.612833	-0.620765	0.000211
O57	O	0.650055	-0.652028	0.000184
N58	N	0.568497	-0.639880	0.000193
C59	C	0.524670	-0.608576	0.000171
O60	O	0.486912	-0.629462	0.000144
C61	C	0.526721	-0.406918	0.000179
C62	C	0.571061	-0.387806	0.000208
C63	C	0.659220	-0.399993	0.000254
C64	C	0.659732	-0.349581	0.000263
C65	C	0.615909	-0.318282	0.000245
C66	C	0.571573	-0.337394	0.000217
C67	C	0.482895	-0.375616	0.000150
C68	C	0.483412	-0.325199	0.000149
C69	C	0.527751	-0.306087	0.000178
C70	C	0.528262	-0.255683	0.000207
N71	N	0.572598	-0.236568	0.000226
C72	C	0.616422	-0.267867	0.000245
C73	C	0.523596	-0.714450	0.000169
C74	C	0.523083	-0.764865	0.000169
C75	C	0.611246	-0.777049	0.000207
C76	C	0.611759	-0.726634	0.000215
C77	C	0.567932	-0.695335	0.000188
C78	C	0.617494	-0.161998	0.000265
C79	C	0.618003	-0.111582	0.000278
C80	C	0.529839	-0.099401	0.000234
C81	C	0.529331	-0.149814	0.000226
C82	C	0.573162	-0.181112	0.000238
O83	O	0.491060	-0.224392	0.000223
O84	O	0.654174	-0.246972	0.000249
C85	C	0.614372	-0.469517	0.000217
C86	C	0.570036	-0.488630	0.000189
C87	C	0.526213	-0.457331	0.000171
C88	C	0.569523	-0.539044	0.000189
C89	C	0.613346	-0.570343	0.000208
C90	C	0.657683	-0.551228	0.000227
C91	C	0.658195	-0.500817	0.000236
C92	C	0.481876	-0.476446	0.000152
C93	C	0.481368	-0.526858	0.000144
C94	C	0.525191	-0.558157	0.000162
C95	C	0.658949	0.057570	0.000265
C96	C	0.712605	0.058113	0.000281
C97	C	0.566353	0.150181	0.000202
C98	C	0.566906	0.203836	0.000187
N99	N	0.570531	0.061774	0.237667
N100	N	0.570558	0.061776	-0.237212
C101	C	0.537439	0.094879	0.710267
C102	C	0.603672	0.028672	0.710282
C103	C	0.603667	0.028671	0.605263
C104	C	0.570547	0.061775	0.552742
C105	C	0.537433	0.094880	0.605239
C106	C	0.636783	-0.004430	0.552758
C107	C	0.636780	-0.004433	0.447733
C108	C	0.603657	0.028669	0.395210
C109	C	0.570542	0.061775	0.447714
C110	C	0.537422	0.094879	0.395193
C111	C	0.504304	0.127983	0.447694
C112	C	0.504311	0.127982	0.552716
C113	C	0.603650	0.028671	0.290189
C114	C	0.537417	0.094879	0.290164
H115	H	-0.282722	0.058169	-0.164739
F116	F	0.198204	0.063063	0.278899
F117	F	-0.057124	0.060471	-0.278475
F118	F	0.482140	-0.170155	0.000214
F119	F	0.469068	0.163212	0.608595
H120	H	0.477340	0.154939	0.404919
F121	F	0.502192	0.130108	0.766141
H122	H	0.040626	0.061469	-0.255746
F123	F	0.326055	0.064385	0.187942
F124	F	0.326022	0.064399	-0.187583
H125	H	0.100454	0.062061	0.256169
H126	H	0.423791	0.065398	-0.164845
F127	F	0.705387	-0.480483	0.000261
F128	F	0.430107	0.065459	0.187922
H129	H	-0.191270	0.059096	-0.164763
H130	H	0.040658	0.061442	0.256194
F131	F	0.483202	-0.066082	0.000215
F132	F	-0.057093	0.060434	0.278943
F133	F	0.672033	-0.039657	0.608655
F134	F	-0.184931	0.059157	0.188020
F135	F	0.704323	-0.584548	0.000252
F136	F	0.657886	-0.810369	0.000225
H137	H	0.663746	-0.031388	0.404993
H138	H	0.446789	-0.391168	0.000120
F139	F	0.658950	-0.706298	0.000245
F140	F	0.665196	-0.091245	0.000309
H141	H	-0.282702	0.058157	0.165286
H142	H	0.100413	0.062080	-0.255756
H143	H	0.191874	0.063015	-0.255758
F144	F	0.638922	-0.006555	0.766178
H145	H	0.653186	-0.187476	0.000271
F146	F	0.706924	-0.329247	0.000273
H147	H	0.446189	-0.450966	0.000134
F148	F	0.638898	-0.006556	0.234319
H149	H	0.447722	-0.299717	0.000126
F150	F	0.475891	-0.785199	0.000156
F151	F	0.705867	-0.433297	0.000273
F152	F	0.434172	-0.547192	0.000119
H153	H	0.487905	-0.688970	0.000147
H154	H	0.510445	0.121835	0.247408
