data_functionalizedCrystal
_audit_creation_method	'MofGen! by Chris Wilmer'
_symmetry_space_group_name_H-M	'P1'
_symmetry_Int_Tables_number	1
_symmetry_cell_setting	triclinic
loop_
_symmetry_equiv_pos_as_xyz
  x,y,z
_cell_length_a	13.033808
_cell_length_b	21.295417
_cell_length_c	13.032268
_cell_angle_alpha	97.140648
_cell_angle_beta	103.297372
_cell_angle_gamma	97.225669
loop_
_atom_site_label
_atom_site_type_symbol
_atom_site_fract_x
_atom_site_fract_y
_atom_site_fract_z
Zn1	Zn	1.547375	-0.162224	-0.394581
Zn2	Zn	1.569796	-0.252200	-0.216982
Zn3	Zn	1.392329	-0.162269	-0.239520
Zn4	Zn	1.369704	-0.282790	-0.417041
O5	O	1.469801	-0.214871	-0.317031
O6	O	1.698976	-0.161339	-0.352190
O7	O	1.565107	-0.227487	-0.071353
O8	O	1.412981	-0.074170	-0.260122
O9	O	1.715449	-0.227444	-0.221709
O10	O	1.526893	-0.074137	-0.374045
O11	O	1.434722	-0.161415	-0.087912
O12	O	1.240701	-0.191077	-0.281901
O13	O	1.374421	-0.279579	-0.562681
O14	O	1.224079	-0.279623	-0.412325
O15	O	1.504955	-0.191001	-0.546179
O16	O	1.543169	-0.344351	-0.243488
O17	O	1.396162	-0.366825	-0.390470
C18	C	1.193852	-0.238675	-0.351996
C19	C	1.075797	-0.248875	-0.366980
C20	C	1.469669	-0.378429	-0.316990
C21	C	1.469706	-0.448395	-0.316996
C22	C	0.909332	-0.220102	-0.324717
C23	C	1.031348	-0.209559	-0.309227
C24	C	1.546303	-0.469539	-0.240524
C25	C	1.546350	-0.535280	-0.240541
C26	C	1.469782	-0.579874	-0.317022
C27	C	1.393177	-0.558723	-0.393508
C28	C	1.393139	-0.492984	-0.393494
N29	N	1.375841	-0.691856	-0.336891
N30	N	1.375881	-0.754305	-0.336897
C31	C	1.469893	-0.777943	-0.317068
N32	N	1.563868	-0.736772	-0.297211
N33	N	1.563827	-0.674317	-0.297200
C34	C	1.469815	-0.651158	-0.317045
C35	C	1.546548	-0.870370	-0.240611
C36	C	1.546595	-0.936112	-0.240635
C37	C	1.393413	-0.959554	-0.393597
C38	C	1.393374	-0.893813	-0.393577
C39	C	1.469941	-0.849225	-0.317078
C40	C	1.746827	-0.190975	-0.281930
C41	C	1.864879	-0.180791	-0.266972
C42	C	1.434663	-0.238697	-0.594042
C43	C	1.419690	-0.248851	-0.712088
C44	C	1.469959	-0.050673	-0.317092
C45	C	1.470027	0.019298	-0.317118
C46	C	1.477599	-0.209550	-0.756552
C47	C	1.462125	-0.220044	-0.878558
C48	C	1.504863	-0.191086	-0.041090
C49	C	1.520043	-0.180738	0.076981
H50	H	0.857057	-0.261564	-0.385617
H51	H	1.083620	-0.168098	-0.248314
Cl52	Cl	0.945580	-0.116780	-0.172930
Cl53	Cl	1.614299	-0.116798	-0.842350
Cl54	Cl	1.297070	-0.867231	-0.489714
Cl55	Cl	1.325447	-0.312791	-0.792762
Cl56	Cl	1.642572	-0.413489	-0.144368
H57	H	1.330836	-0.595036	-0.455780
H58	H	1.023527	-0.290340	-0.427887
H59	H	1.608729	-0.552499	-0.178269
H60	H	1.330763	-0.475769	-0.455768
H61	H	1.608896	-0.834064	-0.178323
Cl62	Cl	1.642906	-0.962693	-0.144497
Cl63	Cl	1.297161	-1.015610	-0.489752
Cl64	Cl	1.571810	-0.145593	-0.675882
H65	H	1.401079	-0.261458	-0.930813
