data_functionalizedCrystal
_audit_creation_method	'MofGen! by Chris Wilmer'
_symmetry_space_group_name_H-M	'P1'
_symmetry_Int_Tables_number	1
_symmetry_cell_setting	triclinic
loop_
_symmetry_equiv_pos_as_xyz
  x,y,z
_cell_length_a	27.732048
_cell_length_b	27.732064
_cell_length_c	12.376457
_cell_angle_alpha	101.185913
_cell_angle_beta	78.807411
_cell_angle_gamma	82.646039
loop_
_atom_site_label
_atom_site_type_symbol
_atom_site_fract_x
_atom_site_fract_y
_atom_site_fract_z
O1	O	0.650254	0.048197	-0.093849
O2	O	1.150254	0.548197	0.406151
O3	O	0.509464	0.056940	-0.093882
O4	O	1.009464	0.556940	0.406118
O5	O	0.584228	-0.017828	-0.093869
O6	O	1.084228	0.482172	0.406131
O7	O	0.575490	0.122965	-0.093862
O8	O	1.075490	0.622965	0.406138
O9	O	0.565544	0.000839	0.094140
O10	O	1.065544	0.500839	0.594140
O11	O	0.490780	0.075606	0.094127
O12	O	0.990780	0.575606	0.594127
O13	O	0.631570	0.066864	0.094159
O14	O	1.131570	0.566864	0.594159
Zn15	Zn	0.558209	0.074199	0.123994
Zn16	Zn	1.058209	0.574199	0.623994
Zn17	Zn	0.582826	0.049605	-0.123716
Zn18	Zn	1.082826	0.549605	0.376284
O19	O	0.556806	0.141632	0.094146
O20	O	1.056806	0.641632	0.594146
C21	C	0.574702	-0.026502	0.000132
C22	C	1.074702	0.473498	0.500132
C23	C	0.574147	-0.080157	0.000121
C24	C	1.074147	0.419843	0.500121
C25	C	0.482116	0.066089	0.000118
C26	C	0.982116	0.566089	0.500118
C27	C	0.428462	0.065535	0.000105
C28	C	0.928462	0.565535	0.500105
C29	C	0.526181	-0.457232	0.000105
C30	C	1.026181	0.042768	0.500105
C31	C	0.528228	-0.255571	0.000104
C32	C	1.028228	0.244429	0.500104
O33	O	0.491012	-0.224324	0.000051
O34	O	0.991012	0.275676	0.500051
N35	N	0.572561	-0.236443	0.000115
N36	N	1.072561	0.263557	0.500115
C37	C	0.616386	-0.267734	0.000118
C38	C	1.116386	0.232266	0.500118
O39	O	0.654143	-0.246838	0.000115
O40	O	1.154143	0.253162	0.500115
C41	C	0.614340	-0.469394	0.000110
C42	C	1.114340	0.030606	0.500110
C43	C	0.570003	-0.488518	0.000112
C44	C	1.070003	0.011482	0.500112
C45	C	0.481848	-0.476357	0.000105
C46	C	0.981848	0.023643	0.500105
C47	C	0.481336	-0.526768	0.000112
C48	C	0.981336	-0.026768	0.500112
C49	C	0.525158	-0.558055	0.000118
C50	C	1.025158	-0.058055	0.500118
C51	C	0.569491	-0.538930	0.000118
C52	C	1.069491	-0.038930	0.500118
C53	C	0.658166	-0.500684	0.000105
C54	C	1.158166	-0.000684	0.500105
C55	C	0.657651	-0.551102	0.000101
C56	C	1.157651	-0.051102	0.500101
C57	C	0.613314	-0.570227	0.000102
C58	C	1.113314	-0.070227	0.500102
C59	C	0.612801	-0.620627	0.000131
C60	C	1.112801	-0.120627	0.500131
N61	N	0.568468	-0.639756	0.000121
N62	N	1.068468	-0.139756	0.500121
C63	C	0.524646	-0.608469	0.000114
C64	C	1.024646	-0.108469	0.500114
C65	C	0.617457	-0.161859	0.000124
C66	C	1.117457	0.338141	0.500124
C67	C	0.617969	-0.111444	0.000127
C68	C	1.117969	0.388556	0.500127
C69	C	0.529810	-0.099285	0.000112
C70	C	1.029810	0.400715	0.500112
C71	C	0.529298	-0.149700	0.000116
C72	C	1.029298	0.350300	0.500116
C73	C	0.573124	-0.180987	0.000113
C74	C	1.073124	0.319013	0.500113
C75	C	0.523575	-0.714338	0.000129
C76	C	1.023575	-0.214338	0.500129
C77	C	0.523067	-0.764754	0.000140
C78	C	1.023067	-0.264754	0.500140
C79	C	0.611226	-0.776908	0.000149
C80	C	1.111226	-0.276908	0.500149
C81	C	0.611734	-0.726496	0.000144
C82	C	1.111734	-0.226496	0.500144
C83	C	0.567905	-0.695212	0.000130
C84	C	1.067905	-0.195212	0.500130
O85	O	0.649998	-0.651904	0.000172
O86	O	1.149998	-0.151904	0.500172
O87	O	0.486898	-0.629377	0.000092
O88	O	0.986898	-0.129377	0.500092
C89	C	0.526693	-0.406820	0.000099
C90	C	1.026693	0.093180	0.500099
C91	C	0.571026	-0.387695	0.000099
C92	C	1.071026	0.112305	0.500099
C93	C	0.614848	-0.418982	0.000105
C94	C	1.114848	0.081018	0.500105
C95	C	0.571538	-0.337280	0.000103
C96	C	1.071538	0.162720	0.500103
C97	C	0.527716	-0.305994	0.000096
C98	C	1.027716	0.194006	0.500096
C99	C	0.483383	-0.325122	0.000086
C100	C	0.983383	0.174878	0.500086
C101	C	0.482871	-0.375534	0.000093
C102	C	0.982871	0.124466	0.500093
C103	C	0.659182	-0.399853	0.000116
C104	C	1.159182	0.100147	0.500116
C105	C	0.659690	-0.349441	0.000110
C106	C	1.159690	0.150559	0.500110
C107	C	0.615868	-0.318154	0.000104
C108	C	1.115868	0.181846	0.500104
C109	C	0.089644	0.106243	0.000156
C110	C	0.589644	0.606243	0.500156
C111	C	-0.112016	0.104193	0.000166
C112	C	0.387984	0.604193	0.500166
O113	O	-0.143275	0.141419	0.000217
O114	O	0.356725	0.641419	0.500217
N115	N	-0.131142	0.059858	0.000162
N116	N	0.368858	0.559858	0.500162
C117	C	-0.099850	0.016033	0.000163
C118	C	0.400150	0.516033	0.500163
O119	O	-0.120746	-0.021723	0.000171
O120	O	0.379254	0.478277	0.500171
C121	C	0.101809	0.018084	0.000161
C122	C	0.601809	0.518084	0.500161
C123	C	0.120933	0.062421	0.000153
C124	C	0.620933	0.562421	0.500153
C125	C	0.108769	0.150577	0.000150
C126	C	0.608769	0.650577	0.500150
C127	C	0.159182	0.151088	0.000141
C128	C	0.659182	0.651088	0.500141
C129	C	0.190470	0.107266	0.000139
C130	C	0.690470	0.607266	0.500139
C131	C	0.171346	0.062933	0.000145
C132	C	0.671346	0.562933	0.500145
C133	C	0.133099	-0.025740	0.000169
C134	C	0.633099	0.474260	0.500169
C135	C	0.183516	-0.025222	0.000172
C136	C	0.683516	0.474778	0.500172
C137	C	0.202640	0.019114	0.000165
C138	C	0.702640	0.519114	0.500165
C139	C	0.253047	0.019622	0.000133
C140	C	0.753047	0.519622	0.500133
N141	N	0.272173	0.063957	0.000137
N142	N	0.772173	0.563957	0.500137
C143	C	0.240884	0.107779	0.000140
C144	C	0.740884	0.607779	0.500140
C145	C	-0.205724	0.014959	0.000161
C146	C	0.294276	0.514959	0.500161
C147	C	-0.256139	0.014446	0.000160
C148	C	0.243861	0.514446	0.500160
C149	C	-0.268301	0.102607	0.000165
C150	C	0.231699	0.602607	0.500165
C151	C	-0.217885	0.103118	0.000159
C152	C	0.282115	0.603118	0.500159
C153	C	-0.186598	0.059294	0.000165
C154	C	0.313402	0.559294	0.500165
C155	C	0.346756	0.108850	0.000121
C156	C	0.846756	0.608850	0.500121
C157	C	0.397174	0.109357	0.000108
C158	C	0.897174	0.609357	0.500108
C159	C	0.409332	0.021197	0.000108
C160	C	0.909332	0.521197	0.500108
C161	C	0.358918	0.020689	0.000115
C162	C	0.858918	0.520689	0.500115
C163	C	0.327631	0.064520	0.000126
C164	C	0.827631	0.564520	0.500126
O165	O	0.284332	-0.017582	0.000095
O166	O	0.784332	0.482418	0.500095
O167	O	0.261788	0.145532	0.000157
O168	O	0.761788	0.645532	0.500157
C169	C	0.039232	0.105732	0.000165
C170	C	0.539232	0.605732	0.500165
C171	C	0.020107	0.061398	0.000171
C172	C	0.520107	0.561398	0.500171
C173	C	0.051395	0.017576	0.000168
C174	C	0.551395	0.517576	0.500168
C175	C	-0.030307	0.060885	0.000169
C176	C	0.469693	0.560885	0.500169
C177	C	-0.061596	0.104707	0.000172
C178	C	0.438404	0.604707	0.500172
C179	C	-0.042470	0.149043	0.000176
C180	C	0.457530	0.649043	0.500176
C181	C	0.007943	0.149554	0.000167
C182	C	0.507943	0.649554	0.500167
C183	C	0.032269	-0.026759	0.000164
C184	C	0.532269	0.473241	0.500164
C185	C	-0.018144	-0.027267	0.000171
C186	C	0.481856	0.472733	0.500171
C187	C	-0.049432	0.016555	0.000174
C188	C	0.450568	0.516555	0.500174
C189	C	0.658919	0.057715	0.000157
C190	C	1.158919	0.557715	0.500157
C191	C	0.712573	0.058268	0.000162
C192	C	1.212573	0.558268	0.500162
C193	C	0.566333	0.150305	0.000143
C194	C	1.066333	0.650305	0.500143
C195	C	0.566888	0.203960	0.000146
C196	C	1.066888	0.703960	0.500146
N197	N	0.541411	0.090983	0.293049
N198	N	1.041411	0.590983	0.793049
N199	N	0.599627	0.032817	-0.292772
N200	N	1.099627	0.532817	0.207228
C201	C	0.638618	-0.006155	0.648051
C202	C	1.138618	0.493845	1.148051
C203	C	0.650371	-0.017903	0.529713
C204	C	1.150371	0.482097	1.029713
C205	C	0.623132	0.009318	0.470541
C206	C	1.123132	0.509318	0.970541
C207	C	0.584138	0.048288	0.529719
C208	C	1.084138	0.548288	1.029719
C209	C	0.572386	0.060039	0.648068
C210	C	1.072386	0.560039	1.148068
C211	C	0.556900	0.075512	0.470558
C212	C	1.056900	0.575512	0.970558
C213	C	0.517906	0.114482	0.529736
C214	C	1.017906	0.614482	1.029736
C215	C	0.506155	0.126231	0.648074
C216	C	1.006155	0.626231	1.148074
C217	C	0.533394	0.099011	0.707246
C218	C	1.033394	0.599011	1.207246
C219	C	0.568652	0.063761	0.352209
C220	C	1.068652	0.563761	0.852209
C221	C	0.502420	0.129955	0.352226
C222	C	1.002420	0.629955	0.852226
C223	C	0.490667	0.141702	0.470564
C224	C	0.990667	0.641702	0.970564
H225	H	0.486960	-0.780321	0.000146
H226	H	0.986960	-0.280321	0.500146
Br227	Br	0.451803	-0.038273	0.000107
Br228	Br	0.951803	0.461727	0.500107
Br229	Br	0.719867	-0.323493	0.000110
Br230	Br	1.219867	0.176507	0.500110
Br231	Br	0.225974	-0.084701	0.000187
Br232	Br	0.725974	0.415299	0.500187
H233	H	0.632704	-0.000249	0.374185
H234	H	1.132704	0.499751	0.874185
H235	H	0.174748	0.187192	0.000135
H236	H	0.674748	0.687192	0.500135
Br237	Br	0.671901	-0.700536	0.000191
Br238	Br	1.171901	-0.200536	0.500191
Br239	Br	0.703291	-0.070786	0.449402
Br240	Br	1.203291	0.429214	0.949402
H241	H	0.480240	0.152121	0.304050
H242	H	0.980240	0.652121	0.804050
H243	H	0.660795	-0.028312	0.696236
H244	H	1.160795	0.471688	1.196236
H245	H	0.694868	-0.425322	0.000120
H246	H	1.194868	0.074678	0.500120
H247	H	0.412742	0.145463	0.000101
H248	H	0.912742	0.645463	0.500101
H249	H	0.523824	0.108574	0.803606
H250	H	1.023824	0.608574	1.303606
Br251	Br	0.074725	-0.086238	0.000164
Br252	Br	0.574725	0.413762	0.500164
H253	H	-0.033708	-0.063375	0.000168
H254	H	0.466292	0.436625	0.500168
H255	H	0.694270	-0.485123	0.000104
H256	H	1.194270	0.014877	0.500104
H257	H	-0.271703	-0.021660	0.000148
H258	H	0.228297	0.478340	0.500148
Br259	Br	0.453242	0.179125	0.728390
Br260	Br	0.953242	0.679125	1.228390
Br261	Br	0.437746	0.194588	0.550888
Br262	Br	0.937746	0.694588	1.050888
H263	H	0.646904	-0.802390	0.000160
H264	H	1.146904	-0.302390	0.500160
H265	H	0.487885	-0.688871	0.000117
H266	H	0.987885	-0.188871	0.500117
Br267	Br	0.421162	-0.552715	0.000102
Br268	Br	0.921162	-0.052715	0.500102
H269	H	0.446767	-0.391099	0.000095
H270	H	0.946767	0.108901	0.500095
Br271	Br	-0.191937	0.163292	0.000149
Br272	Br	0.308063	0.663292	0.500149
H273	H	0.447701	-0.299639	0.000088
H274	H	0.947701	0.200361	0.500088
H275	H	0.446161	-0.450888	0.000096
H276	H	0.946161	0.049112	0.500096
H277	H	0.493194	-0.165267	0.000122
H278	H	0.993194	0.334733	0.500122
H279	H	0.023509	0.185658	0.000163
H280	H	0.523509	0.685658	0.500163
H281	H	0.654071	-0.095876	0.000144
H282	H	1.154071	0.404124	0.500144
Br283	Br	0.676941	-0.204313	0.000125
Br284	Br	1.176941	0.295687	0.500125
H285	H	0.600402	0.032031	0.304037
H286	H	1.100402	0.532031	0.804037
Br287	Br	0.717133	-0.593561	0.000089
Br288	Br	1.217133	-0.093561	0.500089
Br289	Br	0.304301	0.168335	0.000137
Br290	Br	0.804301	0.668335	0.500137
Br291	Br	0.066315	0.210058	0.000153
Br292	Br	0.566315	0.710058	0.500153
Br293	Br	-0.163270	-0.044523	0.000171
Br294	Br	0.336730	0.455477	0.500171
Br295	Br	-0.310774	0.162079	0.000170
Br296	Br	0.189226	0.662079	0.500170
Br297	Br	0.332963	-0.039482	0.000129
Br298	Br	0.832963	0.460518	0.500129
H299	H	0.494128	-0.073802	0.000112
H300	H	0.994128	0.426198	0.500112
Br301	Br	-0.084941	0.208514	0.000171
Br302	Br	0.415059	0.708514	0.500171
H303	H	0.117537	-0.061843	0.000176
H304	H	0.617537	0.438157	0.500176
