data_functionalizedCrystal
_audit_creation_method	'MofGen! by Chris Wilmer'
_symmetry_space_group_name_H-M	'P1'
_symmetry_Int_Tables_number	1
_symmetry_cell_setting	triclinic
loop_
_symmetry_equiv_pos_as_xyz
  x,y,z
_cell_length_a	19.121063
_cell_length_b	12.759401
_cell_length_c	12.759401
_cell_angle_alpha	89.992843
_cell_angle_beta	87.574000
_cell_angle_gamma	87.535469
loop_
_atom_site_label
_atom_site_type_symbol
_atom_site_fract_x
_atom_site_fract_y
_atom_site_fract_z
Zn1	Zn	-0.279822	-1.588167	0.611831
Zn2	Zn	0.220178	-1.088167	1.111831
Zn3	Zn	-0.397244	-1.580567	0.443623
Zn4	Zn	0.102756	-1.080567	0.943623
Zn5	Zn	-0.279801	-1.412510	0.436165
Zn6	Zn	0.220199	-0.912510	0.936165
Zn7	Zn	-0.397229	-1.404924	0.619259
Zn8	Zn	0.102771	-0.904924	1.119259
O9	O	-0.338524	-1.496542	0.527720
O10	O	0.161476	-0.996542	1.027720
O11	O	-0.295413	-1.734179	0.589531
O12	O	0.204587	-1.234179	1.089531
O13	O	-0.381662	-1.558267	0.295613
O14	O	0.118338	-1.058267	0.795613
O15	O	-0.181518	-1.442166	0.453237
O16	O	0.318482	-0.942166	0.953237
O17	O	-0.381682	-1.728595	0.465950
O18	O	0.118318	-1.228595	0.965950
O19	O	-0.181533	-1.571221	0.582299
O20	O	0.318467	-1.071221	1.082299
O21	O	-0.295377	-1.434797	0.290133
O22	O	0.204623	-0.934797	0.790133
O23	O	-0.295363	-1.264483	0.460439
O24	O	0.204637	-0.764483	0.960439
O25	O	-0.381657	-1.429238	0.765295
O26	O	0.118343	-0.929238	1.265295
O27	O	-0.381636	-1.258910	0.594958
O28	O	0.118364	-0.758910	1.094958
O29	O	-0.295398	-1.563865	0.759838
O30	O	0.204602	-1.063865	1.259838
O31	O	-0.495527	-1.550912	0.473152
O32	O	0.004473	-1.050912	0.973152
O33	O	-0.495516	-1.421868	0.602190
O34	O	0.004484	-0.921868	1.102190
C35	C	-0.338496	-1.223576	0.527696
C36	C	0.161504	-0.723576	1.027696
C37	C	-0.338501	-1.106799	0.527712
C38	C	0.161499	-0.606799	1.027712
C39	C	-0.521006	-1.484771	0.539309
C40	C	-0.021006	-0.984771	1.039309
C41	C	-0.599073	-1.479831	0.544303
C42	C	-0.099073	-0.979831	1.044303
C43	C	-0.293672	-0.945102	0.592174
C44	C	0.206328	-0.445102	1.092174
C45	C	-0.293662	-1.054827	0.592169
C46	C	0.206338	-0.554827	1.092169
C47	C	-0.383358	-1.049041	0.463264
C48	C	0.116642	-0.549041	0.963264
C49	C	-0.383370	-0.939318	0.463275
C50	C	0.116630	-0.439318	0.963275
C51	C	-0.635731	-1.544749	0.479521
C52	C	-0.135731	-1.044749	0.979521
C53	C	-0.709083	-1.540109	0.484223
C54	C	-0.209083	-1.040109	0.984223
C55	C	-0.745775	-1.470546	0.553703
C56	C	-0.245775	-0.970546	1.053703
C57	C	-0.709112	-1.405626	0.618492
C58	C	-0.209112	-0.905626	1.118492
C59	C	-0.635761	-1.410271	0.613794
C60	C	-0.135761	-0.910271	1.113794
C61	C	-0.967248	-1.453161	0.571250
C62	C	-0.467248	-0.953161	1.071250
C63	C	-1.040604	-1.448518	0.575941
C64	C	-0.540604	-0.948518	1.075941
C65	C	-1.040570	-1.583003	0.441673
C66	C	-0.540570	-1.083003	0.941673
C67	C	-0.967218	-1.587638	0.436977
C68	C	-0.467218	-1.087638	0.936977
C69	C	-0.930561	-1.522722	0.501770
C70	C	-0.430561	-1.022722	1.001770
C71	C	-0.820753	-1.465800	0.558509
C72	C	-0.320753	-0.965800	1.058509
C73	C	-0.855584	-1.527474	0.496969
C74	C	-0.355584	-1.027474	0.996969
C75	C	-0.155329	-1.508388	0.516108
C76	C	0.344671	-1.008388	1.016108
C77	C	-0.077262	-1.513435	0.511159
C78	C	0.422738	-1.013435	1.011159
C79	C	-0.338528	-1.496553	0.801753
C80	C	0.161472	-0.996553	1.301753
C81	C	-0.338530	-1.496558	0.918530
C82	C	0.161470	-0.996558	1.418530
C83	C	-0.338541	-0.770574	0.527737
C84	C	0.161459	-0.270574	1.027737
C85	C	-0.338523	-0.887352	0.527728
C86	C	0.161477	-0.387352	1.027728
C87	C	-0.293623	-1.566650	0.970553
C88	C	0.206377	-1.066650	1.470553
C89	C	-0.293622	-1.566641	1.080277
C90	C	0.206378	-1.066641	1.580277
C91	C	-0.383441	-1.426445	1.085946
C92	C	0.116559	-0.926445	1.585946
C93	C	-0.383439	-1.426450	0.976224
C94	C	0.116561	-0.926450	1.476224
C95	C	-0.338534	-1.496529	1.254753
C96	C	0.161466	-0.996529	1.754753
C97	C	-0.338532	-1.496544	1.137976
C98	C	0.161468	-0.996544	1.637976
H99	H	-0.257154	-0.902795	0.644655
H100	H	0.242846	-0.402795	1.144655
H101	H	-0.738993	-1.348990	0.675068
H102	H	-0.238993	-0.848990	1.175068
Cl103	Cl	-0.439898	-1.338320	1.158483
Cl104	Cl	0.060102	-0.838320	1.658483
H105	H	-0.419869	-1.091365	0.410786
H106	H	0.080131	-0.591365	0.910786
H107	H	-0.419897	-0.892295	0.410795
H108	H	0.080103	-0.392295	0.910795
Cl109	Cl	-0.589611	-1.632198	0.392163
Cl110	Cl	-0.089611	-1.132198	0.892163
Cl111	Cl	-0.589676	-1.328660	0.695241
Cl112	Cl	-0.089676	-0.828660	1.195241
H113	H	-1.070476	-1.391884	0.632538
H114	H	-0.570476	-0.891884	1.132538
Cl115	Cl	-0.237277	-1.127423	0.673193
Cl116	Cl	0.262723	-0.627423	1.173193
Cl117	Cl	-0.755165	-1.621728	0.402782
Cl118	Cl	-0.255165	-1.121728	0.902782
Cl119	Cl	-0.237170	-1.654769	1.145672
Cl120	Cl	0.262830	-1.154769	1.645672
H121	H	-0.937344	-1.644282	0.380401
H122	H	-0.437344	-1.144282	0.880401
Cl123	Cl	-0.921174	-1.371549	0.652703
Cl124	Cl	-0.421174	-0.871549	1.152703
H125	H	-0.825707	-1.584117	0.440402
H126	H	-0.325707	-1.084117	0.940402
Cl127	Cl	-1.086657	-1.664614	0.360232
Cl128	Cl	-0.586657	-1.164614	0.860232
H129	H	-0.850636	-1.409159	0.615077
H130	H	-0.350636	-0.909159	1.115077
H131	H	-0.420007	-1.369365	0.933866
H132	H	0.079993	-0.869365	1.433866
H133	H	-0.257054	-1.623734	0.923581
H134	H	0.242946	-1.123734	1.423581
