data_functionalizedCrystal
_audit_creation_method	'MofGen! by Chris Wilmer'
_symmetry_space_group_name_H-M	'P1'
_symmetry_Int_Tables_number	1
_symmetry_cell_setting	triclinic
loop_
_symmetry_equiv_pos_as_xyz
  x,y,z
_cell_length_a	17.038272
_cell_length_b	27.732048
_cell_length_c	16.098538
_cell_angle_alpha	92.695138
_cell_angle_beta	87.069734
_cell_angle_gamma	86.877106
loop_
_atom_site_label
_atom_site_type_symbol
_atom_site_fract_x
_atom_site_fract_y
_atom_site_fract_z
O1	O	1.039664	0.102899	-0.069167
O2	O	0.812054	0.101233	-0.069192
O3	O	0.932928	0.031993	-0.069163
O4	O	0.918791	0.172139	-0.069196
O5	O	0.925867	0.036021	0.069348
O6	O	0.804994	0.105261	0.069320
O7	O	1.032604	0.106927	0.069344
Zn8	Zn	0.917678	0.106733	0.091323
Zn9	Zn	0.926980	0.101427	-0.091171
O10	O	0.911730	0.176167	0.069315
C11	C	0.779414	0.101731	0.000061
C12	C	0.692674	0.097211	0.000053
C13	C	0.642076	0.138713	0.000043
C14	C	0.560575	0.134463	0.000056
C15	C	0.529672	0.088710	0.000072
C16	C	0.580276	0.047205	0.000083
C17	C	0.661776	0.051455	0.000077
C18	C	0.284088	0.073694	0.000098
C19	C	0.202582	0.069446	0.000102
C20	C	0.182886	0.156706	0.000076
C21	C	0.264389	0.160952	0.000064
C22	C	0.314985	0.119446	0.000080
C23	C	0.446365	0.084365	0.000082
C24	C	0.398290	0.123792	0.000076
C25	C	0.929100	0.015987	0.000095
C26	C	0.928206	-0.037709	0.000102
C27	C	0.994011	-0.373515	0.000066
C28	C	0.990696	-0.575327	0.000054
O29	O	1.050870	-0.603831	0.000024
N30	N	0.919023	-0.597729	0.000047
C31	C	0.848173	-0.569676	0.000038
O32	O	0.787135	-0.593361	0.000023
C33	C	0.851490	-0.367865	0.000044
C34	C	0.923167	-0.345465	0.000059
C35	C	1.065683	-0.351115	0.000080
C36	C	1.066511	-0.300665	0.000088
C37	C	0.995667	-0.272615	0.000081
C38	C	0.923995	-0.295015	0.000067
C39	C	0.780641	-0.339813	0.000029
C40	C	0.781477	-0.289357	0.000028
C41	C	0.853155	-0.266957	0.000043
C42	C	0.853979	-0.216515	0.000067
N43	N	0.925652	-0.194113	0.000074
C44	C	0.996496	-0.222163	0.000081
C45	C	0.846437	-0.675629	0.000036
C46	C	0.845608	-0.726081	0.000036
C47	C	0.988131	-0.731729	0.000051
C48	C	0.988959	-0.681276	0.000057
C49	C	0.918111	-0.653227	0.000043
C50	C	0.998229	-0.116214	0.000098
C51	C	0.999051	-0.065759	0.000109
C52	C	0.856528	-0.060116	0.000090
C53	C	0.855706	-0.110566	0.000083
C54	C	0.926563	-0.138614	0.000084
O55	O	0.793838	-0.187981	0.000088
O56	O	1.057527	-0.198469	0.000077
C57	C	0.993184	-0.423965	0.000059
C58	C	0.921512	-0.446365	0.000044
C59	C	0.850668	-0.418315	0.000037
C60	C	0.920682	-0.496818	0.000044
C61	C	0.991526	-0.524868	0.000051
C62	C	1.063200	-0.502465	0.000058
C63	C	1.064028	-0.452015	0.000065
C64	C	0.778994	-0.440718	0.000030
C65	C	0.778172	-0.491168	0.000024
C66	C	0.849016	-0.519218	0.000031
C67	C	1.065245	0.106428	0.000089
C68	C	1.151985	0.110949	0.000092
C69	C	0.915558	0.192173	0.000055
C70	C	0.916452	0.245869	0.000043
N71	N	0.911335	0.110355	0.215871
N72	N	0.933330	0.097802	-0.215719
C73	C	0.962657	0.080979	0.259468
C74	C	0.958226	0.083517	0.346656
C75	C	0.902478	0.115434	0.390245
C76	C	0.851150	0.144812	0.346642
C77	C	0.855577	0.142270	0.259456
C78	C	0.886429	0.124638	0.653492
C79	C	0.882008	0.127178	0.740684
C80	C	0.989084	0.065882	0.740692
C81	C	0.993509	0.063346	0.653504
C82	C	0.942179	0.092721	0.609908
C83	C	0.897950	0.118031	0.479365
C84	C	0.946704	0.090122	0.520790
H85	H	0.421194	0.047113	0.000118
H86	H	1.057421	-0.047523	0.000123
H87	H	0.289543	0.198208	0.000042
Cl88	Cl	0.347685	0.021515	0.000117
Cl89	Cl	1.077192	-0.767001	0.000056
Cl90	Cl	0.791052	0.179201	0.204648
Cl91	Cl	0.765595	-0.138726	0.000079
Cl92	Cl	1.156626	-0.272513	0.000083
Cl93	Cl	0.437140	0.181309	0.000059
H94	H	1.030873	0.041965	0.776196
Cl95	Cl	1.154757	-0.386369	0.000090
H96	H	0.555109	0.009952	0.000108
Cl97	Cl	0.821905	0.161568	0.598691
Cl98	Cl	1.079071	-0.653121	0.000075
H99	H	0.798849	-0.037268	0.000087
Cl100	Cl	1.016783	0.049997	0.465992
H101	H	0.836608	0.153170	0.776170
H102	H	1.055928	-0.139045	0.000095
Cl103	Cl	0.725385	-0.000722	0.000092
H104	H	0.852559	0.144019	0.514863
Cl105	Cl	0.757361	-0.640374	0.000020
Cl106	Cl	0.680916	0.196234	0.000018
H107	H	0.722274	-0.358042	0.000011
Cl108	Cl	0.781061	0.184934	0.401438
H109	H	0.141682	0.190497	0.000064
H110	H	0.723782	-0.266522	0.000016
H111	H	0.519381	0.168259	0.000048
H112	H	0.787240	-0.744314	0.000038
Cl113	Cl	1.154142	-0.423863	0.000077
H114	H	0.177426	0.032187	0.000113
Cl115	Cl	1.152260	-0.537737	0.000070
H116	H	0.721303	-0.417884	0.000023
Cl117	Cl	0.688053	-0.519321	0.000009
Cl118	Cl	1.032748	0.040854	0.204680
Cl119	Cl	1.022746	0.046586	0.401466
H120	H	1.038904	0.037356	0.618016
