data_functionalizedCrystal
_audit_creation_method	'MofGen! by Chris Wilmer'
_symmetry_space_group_name_H-M	'P1'
_symmetry_Int_Tables_number	1
_symmetry_cell_setting	triclinic
loop_
_symmetry_equiv_pos_as_xyz
  x,y,z
_cell_length_a	17.640112
_cell_length_b	17.640968
_cell_length_c	17.640280
_cell_angle_alpha	114.317439
_cell_angle_beta	87.815931
_cell_angle_gamma	92.139080
loop_
_atom_site_label
_atom_site_type_symbol
_atom_site_fract_x
_atom_site_fract_y
_atom_site_fract_z
Zn1	Zn	1.251359	-0.189698	0.023073
Zn2	Zn	1.251298	-0.024069	0.188752
Zn3	Zn	1.106797	-0.076159	0.075311
Zn4	Zn	1.148399	-0.179117	0.178182
O5	O	1.189463	-0.117261	0.116329
O6	O	1.354914	-0.150355	0.027613
O7	O	1.214694	0.081425	0.199989
O8	O	1.108588	-0.117448	-0.044008
O9	O	1.354870	-0.028669	0.149337
O10	O	1.214797	-0.200865	-0.082386
O11	O	1.108529	0.043155	0.116644
O12	O	1.008752	-0.107188	0.106394
O13	O	1.179493	-0.292925	0.131321
O14	O	1.039317	-0.182831	0.181973
O15	O	1.255137	-0.300699	0.017364
O16	O	1.255033	-0.018409	0.299739
O17	O	1.179434	-0.132322	0.291973
C18	C	0.997182	-0.149514	0.148705
C19	C	0.914929	-0.163327	0.162571
C20	C	1.221962	-0.326772	0.067336
C21	C	1.235811	-0.416053	0.046458
C22	C	0.564743	-0.012337	0.010979
C23	C	0.487458	-0.025323	0.024022
C24	C	0.519334	-0.103880	0.102905
C25	C	0.596623	-0.090904	0.089865
C26	C	0.619321	-0.045131	0.043903
C27	C	0.651201	-0.123697	0.122789
C28	C	0.728483	-0.110718	0.109754
C29	C	0.751188	-0.064946	0.063796
C30	C	0.696603	-0.032152	0.030868
C31	C	0.628502	-0.169465	0.168756
C32	C	0.683080	-0.202259	0.201680
C33	C	0.760364	-0.189285	0.188640
C34	C	0.783068	-0.143512	0.142682
C35	C	0.814949	-0.222079	0.221568
C36	C	0.892231	-0.209100	0.208534
C37	C	0.860351	-0.130533	0.129647
C38	C	1.084469	-0.689444	0.274453
C39	C	1.097496	-0.773337	0.254822
C40	C	1.176258	-0.781421	0.136168
C41	C	1.163234	-0.697528	0.155787
C42	C	1.117340	-0.651546	0.224930
C43	C	1.196105	-0.659630	0.106264
C44	C	1.183085	-0.575743	0.125884
C45	C	1.137195	-0.529754	0.195026
C46	C	1.104320	-0.567659	0.244550
C47	C	1.242004	-0.705612	0.037124
C48	C	1.274874	-0.667713	-0.012398
C49	C	1.261851	-0.583827	0.007218
C50	C	1.215960	-0.537838	0.076360
C51	C	1.294725	-0.545922	-0.042306
C52	C	1.281706	-0.462035	-0.022686
C53	C	1.202940	-0.453951	0.095980
C54	C	1.382495	-0.084882	0.083827
C55	C	1.464754	-0.071084	0.069977
C56	C	1.221764	-0.068579	0.324990
C57	C	1.235655	-0.047768	0.414238
C58	C	1.157124	0.091429	0.165067
C59	C	1.143383	0.180681	0.185695
C60	C	1.157059	-0.166147	-0.093153
C61	C	1.143250	-0.186980	-0.182422
C62	C	1.084287	-0.275600	0.687787
C63	C	1.097337	-0.256019	0.771655
C64	C	1.176134	-0.137496	0.779643
C65	C	1.163094	-0.157069	0.695773
C66	C	1.117169	-0.226122	0.649852
C67	C	1.195976	-0.107591	0.657837
C68	C	1.182933	-0.127160	0.573976
C69	C	1.137009	-0.196208	0.528050
C70	C	1.104127	-0.245691	0.565990
C71	C	1.241896	-0.038535	0.703761
C72	C	1.274778	0.010944	0.665825
C73	C	1.261740	-0.008629	0.581961
C74	C	1.215815	-0.077677	0.536035
C75	C	1.294622	0.040854	0.544020
C76	C	1.281579	0.021285	0.460159
C77	C	1.202773	-0.097246	0.452173
H78	H	0.878832	-0.093275	0.092205
O79	O	1.061858	-0.309386	0.812572
H80	H	1.078632	-0.284172	0.878605
O81	O	1.122918	-0.217298	0.437606
H82	H	1.085447	-0.273616	0.412055
O83	O	1.324333	0.085401	0.715346
H84	H	1.327890	0.090689	0.780030
H85	H	1.332007	0.097081	0.581424
O86	O	0.545152	-0.183442	0.182865
H87	H	0.531673	-0.251235	0.156020
H88	H	1.252605	-0.773917	0.021154
O89	O	1.054594	-0.320169	0.516450
H90	H	1.033915	-0.351290	0.556916
H91	H	1.252515	-0.022606	0.772045
H92	H	1.308354	0.061576	0.429272
H93	H	0.814117	-0.054377	0.053186
O94	O	1.034965	-0.639839	0.349026
H95	H	1.014293	-0.680283	0.380171
H96	H	1.308471	-0.431178	-0.063013
H97	H	1.046897	-0.331835	0.650394
H98	H	0.664588	-0.239524	0.239106
H99	H	0.715084	0.005106	-0.006574
O100	O	1.225689	-0.063038	0.829163
H101	H	1.229247	-0.057750	0.893847
H102	H	1.312244	-0.705162	-0.068693
O103	O	0.589235	0.037032	-0.038595
H104	H	0.538301	0.057660	-0.059299
O105	O	0.428587	0.010043	-0.011497
H106	H	0.457357	0.044045	-0.045652
H107	H	0.796456	-0.259340	0.258998
O108	O	0.494852	-0.153254	0.152472
H109	H	0.431943	-0.156776	0.156000
H110	H	1.070726	-0.804190	0.295154
O111	O	1.344207	-0.595525	-0.116893
H112	H	1.347729	-0.660227	-0.122223
O113	O	0.951105	-0.244474	0.244035
H114	H	0.922339	-0.278491	0.278176
H115	H	1.165548	-0.416517	0.152268
H116	H	1.165383	-0.153481	0.414780
H117	H	1.126598	-0.461447	0.211002
H118	H	1.066927	-0.530225	0.300838
H119	H	1.213628	-0.818870	0.079873
