data_functionalizedCrystal
_audit_creation_method	'MofGen! by Chris Wilmer'
_symmetry_space_group_name_H-M	'P1'
_symmetry_Int_Tables_number	1
_symmetry_cell_setting	triclinic
loop_
_symmetry_equiv_pos_as_xyz
  x,y,z
_cell_length_a	13.033293
_cell_length_b	13.897447
_cell_length_c	13.033109
_cell_angle_alpha	97.154634
_cell_angle_beta	74.800007
_cell_angle_gamma	97.189355
loop_
_atom_site_label
_atom_site_type_symbol
_atom_site_fract_x
_atom_site_fract_y
_atom_site_fract_z
Zn1	Zn	1.700275	-0.279490	-0.807182
Zn2	Zn	2.033608	0.053843	-0.473849
Zn3	Zn	2.366941	0.387177	-0.140515
Zn4	Zn	1.677599	-0.422643	-0.629556
Zn5	Zn	2.010933	-0.089310	-0.296223
Zn6	Zn	2.344266	0.244023	0.037111
Zn7	Zn	1.500079	-0.279508	-0.606985
Zn8	Zn	1.833412	0.053826	-0.273651
Zn9	Zn	2.166745	0.387159	0.059682
Zn10	Zn	1.522598	-0.458897	-0.784530
Zn11	Zn	1.855931	-0.125564	-0.451197
Zn12	Zn	2.189264	0.207769	-0.117863
O13	O	1.600138	-0.360135	-0.707063
O14	O	1.933471	-0.026801	-0.373730
O15	O	2.266804	0.306532	-0.040397
O16	O	1.845918	-0.283300	-0.802546
O17	O	2.179251	0.050034	-0.469213
O18	O	2.512585	0.383367	-0.135879
O19	O	1.635137	-0.388491	-0.477921
O20	O	1.968470	-0.055158	-0.144588
O21	O	2.301804	0.278176	0.188745
O22	O	1.526700	-0.144520	-0.633575
O23	O	1.860034	0.188813	-0.300241
O24	O	2.193367	0.522147	0.033092
O25	O	1.829259	-0.388474	-0.672045
O26	O	2.162592	-0.055140	-0.338711
O27	O	2.495926	0.278193	-0.005378
O28	O	1.673783	-0.144507	-0.780659
O29	O	2.007117	0.188826	-0.447326
O30	O	2.340450	0.522160	-0.113992
O31	O	1.504713	-0.283330	-0.461338
O32	O	1.838047	0.050003	-0.128005
O33	O	2.171380	0.383337	0.205329
O34	O	1.354414	-0.318484	-0.611610
O35	O	1.687748	0.014849	-0.278277
O36	O	2.021081	0.348183	0.055057
O37	O	1.565081	-0.450263	-0.936176
O38	O	1.898414	-0.116930	-0.602842
O39	O	2.231747	0.216403	-0.269509
O40	O	1.370959	-0.450281	-0.742052
O41	O	1.704292	-0.116947	-0.408719
O42	O	2.037626	0.216386	-0.075385
O43	O	1.695619	-0.318454	-0.952818
O44	O	2.028953	0.014880	-0.619484
O45	O	2.362286	0.348213	-0.286151
O46	O	1.656973	-0.562438	-0.650080
O47	O	1.990306	-0.229104	-0.316747
O48	O	2.323639	0.104229	0.016587
O49	O	1.543094	-0.589073	-0.763939
O50	O	1.876427	-0.255740	-0.430606
O51	O	2.209760	0.077593	-0.097272
C52	C	1.324143	-0.388319	-0.671924
C53	C	1.657476	-0.054986	-0.338591
C54	C	1.990810	0.278348	-0.005258
C55	C	1.206075	-0.400402	-0.656917
C56	C	1.539408	-0.067069	-0.323584
C57	C	1.872741	0.266264	0.009750
C58	C	1.161691	-0.353852	-0.714896
C59	C	1.495024	-0.020519	-0.381562
C60	C	1.828358	0.312814	-0.048229
C61	C	1.039661	-0.366340	-0.699386
C62	C	1.372995	-0.033007	-0.366053
C63	C	1.706328	0.300327	-0.032719
C64	C	1.600048	-0.610755	-0.707028
C65	C	1.933381	-0.277422	-0.373694
C66	C	2.266715	0.055911	-0.040361
C67	C	1.600111	-0.717965	-0.707060
C68	C	1.933445	-0.384632	-0.373727
C69	C	2.266778	-0.051299	-0.040394
C70	C	1.600166	-0.805032	-0.707091
C71	C	1.933499	-0.471699	-0.373758
C72	C	2.266833	-0.138366	-0.040424
C73	C	1.600244	-0.914260	-0.707128
C74	C	1.933577	-0.580927	-0.373794
C75	C	2.266911	-0.247593	-0.040461
C76	C	1.877210	-0.331841	-0.742340
C77	C	2.210543	0.001493	-0.409007
C78	C	2.543877	0.334826	-0.075673
C79	C	1.995282	-0.319784	-0.757373
C80	C	2.328615	0.013550	-0.424039
C81	C	2.661948	0.346883	-0.090706
C82	C	1.635391	-0.388401	-0.984115
C83	C	1.968725	-0.055067	-0.650782
C84	C	2.302058	0.278266	-0.317448
C85	C	1.650414	-0.400446	-1.102178
C86	C	1.983748	-0.067112	-0.768845
C87	C	2.317081	0.266221	-0.435511
C88	C	1.600259	-0.108535	-0.707126
C89	C	1.933593	0.224799	-0.373793
C90	C	2.266926	0.558132	-0.040459
C91	C	1.600311	-0.001318	-0.707153
C92	C	1.933645	0.332016	-0.373819
C93	C	2.266978	0.665349	-0.040486
C94	C	1.592581	-0.353784	-1.146609
C95	C	1.925914	-0.020451	-0.813276
C96	C	2.259248	0.312882	-0.479943
C97	C	1.608106	-0.366233	-1.268633
C98	C	1.941440	-0.032899	-0.935300
C99	C	2.274773	0.300434	-0.601967
C100	C	1.565082	-0.331903	-0.431097
C101	C	1.898416	0.001431	-0.097764
C102	C	2.231749	0.334764	0.235570
C103	C	1.550265	-0.319565	-0.313061
C104	C	1.883598	0.013769	0.020273
C105	C	2.216932	0.347102	0.353606
H106	H	1.047620	-0.270677	-0.818492
H107	H	1.380953	0.062657	-0.485158
H108	H	1.714287	0.395990	-0.151825
N109	N	1.511770	-0.288652	-1.077351
N110	N	1.845104	0.044681	-0.744018
N111	N	2.178437	0.378015	-0.410684
H112	H	1.438296	-0.313332	-1.086933
H113	H	1.771629	0.020001	-0.753599
H114	H	2.104963	0.353334	-0.420266
H115	H	1.512226	-0.289012	-1.000029
H116	H	1.845559	0.044321	-0.666695
H117	H	2.178893	0.377655	-0.333362
H118	H	1.153730	-0.449498	-0.595795
H119	H	1.487064	-0.116164	-0.262462
H120	H	1.820397	0.217169	0.070871
H121	H	0.987321	-0.415439	-0.638260
H122	H	1.320654	-0.082106	-0.304927
H123	H	1.653987	0.251228	0.028407
N124	N	1.688916	-0.431372	-1.337891
N125	N	2.022249	-0.098039	-1.004558
N126	N	2.355582	0.235294	-0.671224
H127	H	1.688549	-0.431035	-1.415243
H128	H	2.021883	-0.097702	-1.081910
H129	H	2.355216	0.235631	-0.748576
H130	H	1.762349	-0.406657	-1.328225
H131	H	2.095682	-0.073323	-0.994891
H132	H	2.429016	0.260010	-0.661558
H133	H	1.489251	-0.270399	-1.260766
H134	H	1.822584	0.062935	-0.927433
H135	H	2.155918	0.396268	-0.594100
N136	N	1.731219	-0.465578	-1.171448
N137	N	2.064552	-0.132244	-0.838115
N138	N	2.397886	0.201089	-0.504782
H139	H	1.786280	-0.426014	-1.223753
H140	H	2.119613	-0.092681	-0.890420
H141	H	2.452947	0.240653	-0.557087
H142	H	1.767603	-0.494998	-1.124961
H143	H	2.100936	-0.161664	-0.791628
H144	H	2.434270	0.171669	-0.458294
H145	H	1.214034	-0.304751	-0.776011
H146	H	1.547368	0.028583	-0.442678
H147	H	1.880701	0.361916	-0.109345
