data_functionalizedCrystal
_audit_creation_method	'MofGen! by Chris Wilmer'
_symmetry_space_group_name_H-M	'P1'
_symmetry_Int_Tables_number	1
_symmetry_cell_setting	triclinic
loop_
_symmetry_equiv_pos_as_xyz
  x,y,z
_cell_length_a	18.215407
_cell_length_b	19.805405
_cell_length_c	18.215399
_cell_angle_alpha	90.028342
_cell_angle_beta	90.016885
_cell_angle_gamma	90.024169
loop_
_atom_site_label
_atom_site_type_symbol
_atom_site_fract_x
_atom_site_fract_y
_atom_site_fract_z
Zn1	Zn	1.125059	-0.269514	0.416068
Zn2	Zn	1.458392	0.063820	0.749401
Zn3	Zn	1.791726	0.397153	1.082734
Zn4	Zn	1.124964	-0.382705	0.293001
Zn5	Zn	1.458298	-0.049372	0.626335
Zn6	Zn	1.791631	0.283961	0.959668
Zn7	Zn	1.001993	-0.269531	0.293020
Zn8	Zn	1.335326	0.063803	0.626354
Zn9	Zn	1.668659	0.397136	0.959687
Zn10	Zn	1.001953	-0.382661	0.416032
Zn11	Zn	1.335287	-0.049328	0.749365
Zn12	Zn	1.668620	0.284006	1.082698
O13	O	1.063492	-0.326103	0.354530
O14	O	1.396826	0.007231	0.687864
O15	O	1.730159	0.340564	1.021197
O16	O	1.228031	-0.284540	0.399750
O17	O	1.561364	0.048793	0.733083
O18	O	1.894697	0.382127	1.066416
O19	O	1.108629	-0.367718	0.190020
O20	O	1.441962	-0.034385	0.523353
O21	O	1.775295	0.298949	0.856686
O22	O	1.018374	-0.174812	0.309366
O23	O	1.351707	0.158522	0.642699
O24	O	1.685040	0.491855	0.976032
O25	O	1.227961	-0.367702	0.309334
O26	O	1.561295	-0.034368	0.642667
O27	O	1.894628	0.298965	0.976000
O28	O	1.108790	-0.174799	0.399768
O29	O	1.442123	0.158534	0.733101
O30	O	1.775457	0.491867	1.066435
O31	O	1.018282	-0.284569	0.190033
O32	O	1.351615	0.048764	0.523367
O33	O	1.684949	0.382098	0.856700
O34	O	0.899003	-0.284526	0.309331
O35	O	1.232336	0.048807	0.642664
O36	O	1.565670	0.382141	0.975997
O37	O	1.018307	-0.367626	0.519021
O38	O	1.351640	-0.034293	0.852354
O39	O	1.684974	0.299041	1.185687
O40	O	0.898974	-0.367642	0.399707
O41	O	1.232308	-0.034309	0.733040
O42	O	1.565641	0.299024	1.066373
O43	O	1.108752	-0.284497	0.519047
O44	O	1.442085	0.048836	0.852380
O45	O	1.775419	0.382170	1.185714
O46	O	1.108591	-0.477416	0.309299
O47	O	1.441924	-0.144083	0.642632
O48	O	1.775258	0.189251	0.975965
O49	O	1.018215	-0.477383	0.399688
O50	O	1.351549	-0.144050	0.733022
O51	O	1.684882	0.189283	1.066355
C52	C	0.872286	-0.326082	0.354517
C53	C	1.205619	0.007252	0.687851
C54	C	1.538953	0.340585	1.021184
C55	C	0.790487	-0.326089	0.354529
C56	C	1.123821	0.007244	0.687863
C57	C	1.457154	0.340578	1.021196
C58	C	0.602328	-0.282876	0.401683
C59	C	0.935662	0.050457	0.735017
C60	C	1.268995	0.383791	1.068350
C61	C	0.525470	-0.282882	0.401686
C62	C	0.858803	0.050451	0.735019
C63	C	1.192136	0.383785	1.068352
C64	C	0.525408	-0.369348	0.307390
C65	C	0.858742	-0.036015	0.640723
C66	C	1.192075	0.297319	0.974057
C67	C	0.602266	-0.369338	0.307384
C68	C	0.935599	-0.036005	0.640718
C69	C	1.268932	0.297328	0.974051
C70	C	0.640724	-0.326103	0.354535
C71	C	0.974057	0.007230	0.687869
C72	C	1.307390	0.340563	1.021202
C73	C	0.487008	-0.326119	0.354543
C74	C	0.820341	0.007214	0.687877
C75	C	1.153674	0.340548	1.021210
C76	C	0.403674	-0.326125	0.354546
C77	C	0.737007	0.007208	0.687879
C78	C	1.070341	0.340541	1.021212
C79	C	0.724063	-0.326096	0.354532
C80	C	1.057396	0.007238	0.687865
C81	C	1.390729	0.340571	1.021199
C82	C	1.063409	-0.501959	0.354504
C83	C	1.396742	-0.168625	0.687837
C84	C	1.730075	0.164708	1.021170
C85	C	1.063440	-0.577191	0.354517
C86	C	1.396773	-0.243857	0.687850
C87	C	1.730107	0.089476	1.021183
C88	C	1.110492	-0.612470	0.401626
C89	C	1.443825	-0.279137	0.734959
C90	C	1.777159	0.054197	1.068293
C91	C	1.110518	-0.683158	0.401640
C92	C	1.443852	-0.349825	0.734973
C93	C	1.777185	-0.016492	1.068307
C94	C	1.063496	-0.718566	0.354540
C95	C	1.396830	-0.385233	0.687873
C96	C	1.730163	-0.051899	1.021207
C97	C	1.016439	-0.683282	0.307428
C98	C	1.349772	-0.349948	0.640762
C99	C	1.683106	-0.016615	0.974095
C100	C	1.016409	-0.612595	0.307419
C101	C	1.349743	-0.279261	0.640752
C102	C	1.683076	0.054072	0.974086
C103	C	1.016557	-0.968355	0.307466
C104	C	1.349891	-0.635022	0.640799
C105	C	1.683224	-0.301688	0.974133
C106	C	1.016592	-1.039047	0.307478
C107	C	1.349926	-0.705714	0.640811
C108	C	1.683259	-0.372380	0.974144
C109	C	1.110666	-1.038919	0.401687
C110	C	1.444000	-0.705585	0.735020
C111	C	1.777333	-0.372252	1.068354
C112	C	1.110637	-0.968232	0.401678
C113	C	1.443970	-0.634898	0.735011
C114	C	1.777303	-0.301565	1.068344
C115	C	1.063577	-0.932953	0.354569
C116	C	1.396911	-0.599620	0.687902
C117	C	1.730244	-0.266287	1.021236
C118	C	1.063548	-0.856305	0.354556
C119	C	1.396881	-0.522972	0.687889
C120	C	1.730215	-0.189638	1.021223
C121	C	1.063529	-0.795213	0.354549
C122	C	1.396862	-0.461880	0.687882
C123	C	1.730195	-0.128547	1.021216
C124	C	1.255445	-0.326124	0.354544
C125	C	1.588779	0.007209	0.687877
C126	C	1.922112	0.340543	1.021210
C127	C	1.337244	-0.326133	0.354549
C128	C	1.670577	0.007200	0.687883
C129	C	2.003911	0.340534	1.021216
C130	C	1.063536	-0.326055	0.546483
C131	C	1.396869	0.007279	0.879817
C132	C	1.730202	0.340612	1.213150
C133	C	1.063554	-0.326034	0.628282
C134	C	1.396887	0.007299	0.961615
C135	C	1.730221	0.340632	1.294949
C136	C	1.063597	-0.149560	0.354573
C137	C	1.396930	0.183774	0.687906
C138	C	1.730263	0.517107	1.021240
C139	C	1.063641	-0.074328	0.354591
C140	C	1.396974	0.259006	0.687925
C141	C	1.730308	0.592339	1.021258
C142	C	1.063492	-0.326101	0.163324
C143	C	1.396825	0.007232	0.496657
C144	C	1.730158	0.340565	0.829991
C145	C	1.063616	-0.325931	0.081525
C146	C	1.396949	0.007402	0.414859
C147	C	1.730283	0.340735	0.748192
C148	C	1.110676	-0.282691	0.893355
C149	C	1.444009	0.050643	1.226688
C150	C	1.777343	0.383976	1.560021
C151	C	1.110667	-0.282709	0.816496
C152	C	1.444001	0.050624	1.149829
C153	C	1.777334	0.383958	1.483163
C154	C	1.016492	-0.369280	0.816458
C155	C	1.349825	-0.035946	1.149791
C156	C	1.683159	0.297387	1.483125
C157	C	1.016505	-0.369264	0.893316
C158	C	1.349838	-0.035931	1.226649
C159	C	1.683171	0.297402	1.559982
C160	C	1.063596	-0.325966	0.931762
C161	C	1.396929	0.007367	1.265095
C162	C	1.730262	0.340701	1.598429
C163	C	1.063574	-0.326000	0.778046
C164	C	1.396907	0.007334	1.111379
C165	C	1.730241	0.340667	1.444712
C166	C	1.063564	-0.326020	0.694712
C167	C	1.396898	0.007314	1.028045
C168	C	1.730231	0.340647	1.361379
C169	C	1.063607	-0.325946	1.015101
C170	C	1.396940	0.007387	1.348434
C171	C	1.730273	0.340720	1.681768
H172	H	1.148786	-0.583646	0.439977
H173	H	1.482119	-0.250312	0.773310
H174	H	1.815453	0.083021	1.106644
H175	H	0.633639	-0.247669	0.440074
H176	H	0.966972	0.085664	0.773408
H177	H	1.300305	0.418997	1.106741
H178	H	0.494212	-0.247681	0.440077
H179	H	0.827545	0.085653	0.773411
H180	H	1.160878	0.418986	1.106744
O181	O	0.487935	-0.411327	0.261664
O182	O	0.821268	-0.077993	0.594997
O183	O	1.154602	0.255340	0.928330
C184	C	0.369505	-0.449637	0.219852
C185	C	0.702839	-0.116304	0.553186
C186	C	1.036172	0.217030	0.886519
C187	C	0.411850	-0.402071	0.271686
C188	C	0.745183	-0.068737	0.605019
C189	C	1.078516	0.264596	0.938352
H190	H	0.307983	-0.442160	0.227926
H191	H	0.641316	-0.108827	0.561259
H192	H	0.974650	0.224507	0.894593
H193	H	0.384551	-0.504242	0.232673
H194	H	0.717884	-0.170908	0.566006
H195	H	1.051218	0.162425	0.899340
H196	H	0.384642	-0.437689	0.160540
H197	H	0.717975	-0.104356	0.493873
H198	H	1.051308	0.228978	0.827207
H199	H	0.396736	-0.413958	0.331015
H200	H	0.730069	-0.080624	0.664349
H201	H	1.063403	0.252709	0.997682
H202	H	0.396800	-0.347480	0.258802
H203	H	0.730133	-0.014147	0.592135
H204	H	1.063467	0.319187	0.925468
H205	H	0.633528	-0.404540	0.268987
H206	H	0.966861	-0.071206	0.602320
H207	H	1.300195	0.262127	0.935653
O208	O	0.970954	-0.934014	0.261667
O209	O	1.304288	-0.600681	0.595001
O210	O	1.637621	-0.267348	0.928334
C211	C	0.961082	-0.854301	0.162259
C212	C	1.294416	-0.520968	0.495593
C213	C	1.627749	-0.187634	0.828926
C214	C	1.012811	-0.893143	0.214094
C215	C	1.346144	-0.559809	0.547428
C216	C	1.679477	-0.226476	0.880761
H217	H	0.994903	-0.821258	0.123773
H218	H	1.328237	-0.487924	0.457107
H219	H	1.661570	-0.154591	0.790440
H220	H	0.922578	-0.821172	0.195967
H221	H	1.255911	-0.487839	0.529301
H222	H	1.589244	-0.154505	0.862634
H223	H	0.927465	-0.891762	0.128628
H224	H	1.260799	-0.558428	0.461962
H225	H	1.594132	-0.225095	0.795295
H226	H	1.046475	-0.855731	0.247737
H227	H	1.379809	-0.522397	0.581070
H228	H	1.713142	-0.189064	0.914403
H229	H	1.051267	-0.926282	0.180344
H230	H	1.384600	-0.592949	0.513678
H231	H	1.717934	-0.259615	0.847011
H232	H	1.148982	-1.067651	0.440047
H233	H	1.482316	-0.734317	0.773381
H234	H	1.815649	-0.400984	1.106714
H235	H	1.148839	-0.711880	0.439995
H236	H	1.482172	-0.378546	0.773329
H237	H	1.815505	-0.045213	1.106662
H238	H	1.149020	-0.247434	0.924656
H239	H	1.482353	0.085899	1.257989
H240	H	1.815687	0.419233	1.591322
O241	O	1.156337	-0.933942	0.447500
O242	O	1.489670	-0.600609	0.780834
O243	O	1.823004	-0.267275	1.114167
C244	C	1.249679	-0.941277	0.540921
C245	C	1.583013	-0.607944	0.874254
C246	C	1.916346	-0.274610	1.207588
C247	C	1.197951	-0.980192	0.489073
C248	C	1.531285	-0.646859	0.822407
C249	C	1.864618	-0.313526	1.155740
H250	H	1.283349	-0.978653	0.574536
H251	H	1.616682	-0.645320	0.907869
H252	H	1.950015	-0.311987	1.241202
H253	H	1.215888	-0.908206	0.579416
H254	H	1.549222	-0.574872	0.912749
H255	H	1.882555	-0.241539	1.246082
H256	H	1.288134	-0.908154	0.507152
H257	H	1.621468	-0.574821	0.840485
H258	H	1.954801	-0.241488	1.173819
H259	H	1.159486	-1.013352	0.522783
H260	H	1.492819	-0.680018	0.856117
H261	H	1.826153	-0.346685	1.189450
H262	H	1.231788	-1.013221	0.450577
H263	H	1.565121	-0.679888	0.783910
H264	H	1.898455	-0.346554	1.117244
O265	O	0.970656	-0.717645	0.261754
O266	O	1.303989	-0.384312	0.595087
O267	O	1.637323	-0.050979	0.928421
C268	C	0.845506	-0.739359	0.225893
C269	C	1.178839	-0.406026	0.559226
C270	C	1.512172	-0.072693	0.892559
C271	C	0.897269	-0.700415	0.277679
C272	C	1.230603	-0.367081	0.611012
C273	C	1.563936	-0.033748	0.944345
H274	H	0.786163	-0.725432	0.238739
H275	H	1.119496	-0.392099	0.572072
H276	H	1.452829	-0.058766	0.905406
H277	H	0.853547	-0.795950	0.233992
H278	H	1.186880	-0.462616	0.567325
H279	H	1.520213	-0.129283	0.900659
H280	H	0.858496	-0.725492	0.166566
H281	H	1.191829	-0.392158	0.499899
H282	H	1.525162	-0.058825	0.833232
H283	H	0.884311	-0.714226	0.337025
H284	H	1.217645	-0.380893	0.670359
H285	H	1.550978	-0.047559	1.003692
H286	H	0.889219	-0.643834	0.269516
H287	H	1.222552	-0.310501	0.602849
H288	H	1.555886	0.022833	0.936182
H289	H	0.978298	-1.067874	0.269122
H290	H	1.311631	-0.734541	0.602455
H291	H	1.644964	-0.401207	0.935789
H292	H	0.978094	-0.583871	0.269059
H293	H	1.311427	-0.250537	0.602392
H294	H	1.644761	0.082796	0.935725
H295	H	1.149005	-0.247470	0.785228
H296	H	1.482339	0.085863	1.118562
H297	H	1.815672	0.419196	1.451895
O298	O	0.970875	-0.411380	0.930659
O299	O	1.304208	-0.078047	1.263993
O300	O	1.637542	0.255286	1.597326
C301	C	0.960955	-0.502723	1.017433
C302	C	1.294289	-0.169390	1.350767
C303	C	1.627622	0.163944	1.684100
C304	C	1.012707	-0.455078	0.975176
C305	C	1.346040	-0.121745	1.308510
C306	C	1.679373	0.211589	1.641843
H307	H	0.994754	-0.538055	1.053447
H308	H	1.328088	-0.204722	1.386781
H309	H	1.661421	0.128611	1.720114
H310	H	0.927308	-0.533718	0.976784
H311	H	1.260641	-0.200385	1.310118
H312	H	1.593974	0.132949	1.643451
H313	H	0.922480	-0.471630	1.053392
H314	H	1.255814	-0.138297	1.386725
H315	H	1.589147	0.195036	1.720059
H316	H	1.051226	-0.486119	0.939217
H317	H	1.384559	-0.152785	1.272550
H318	H	1.717893	0.180548	1.605884
H319	H	1.046302	-0.424081	1.015865
H320	H	1.379636	-0.090748	1.349198
H321	H	1.712969	0.242586	1.682532
O322	O	0.970769	-0.411269	0.778996
O323	O	1.304102	-0.077936	1.112329
O324	O	1.637436	0.255397	1.445663
C325	C	0.929038	-0.449686	0.660577
C326	C	1.262371	-0.116353	0.993910
C327	C	1.595705	0.216981	1.327243
C328	C	0.980847	-0.402089	0.702908
C329	C	1.314181	-0.068755	1.036242
C330	C	1.647514	0.264578	1.369575
H331	H	0.937179	-0.442290	0.599052
H332	H	1.270513	-0.108957	0.932386
H333	H	1.603846	0.224376	1.265719
H334	H	0.869690	-0.437792	0.675631
H335	H	1.203023	-0.104459	1.008965
H336	H	1.536356	0.228874	1.342298
H337	H	0.941927	-0.504254	0.675716
H338	H	1.275260	-0.170921	1.009050
H339	H	1.608594	0.162413	1.342383
H340	H	0.968025	-0.347505	0.687792
H341	H	1.301358	-0.014171	1.021125
H342	H	1.634691	0.319162	1.354458
H343	H	1.040180	-0.414041	0.687850
H344	H	1.373514	-0.080707	1.021183
H345	H	1.706847	0.252626	1.354517
