data_functionalizedCrystal
_audit_creation_method	'MofGen! by Chris Wilmer'
_symmetry_space_group_name_H-M	'P1'
_symmetry_Int_Tables_number	1
_symmetry_cell_setting	triclinic
loop_
_symmetry_equiv_pos_as_xyz
  x,y,z
_cell_length_a	17.038272
_cell_length_b	27.732048
_cell_length_c	16.098538
_cell_angle_alpha	92.695138
_cell_angle_beta	87.069734
_cell_angle_gamma	86.877106
loop_
_atom_site_label
_atom_site_type_symbol
_atom_site_fract_x
_atom_site_fract_y
_atom_site_fract_z
O1	O	1.039664	0.102899	-0.069167
O2	O	0.812054	0.101233	-0.069192
O3	O	0.932928	0.031993	-0.069163
O4	O	0.918791	0.172139	-0.069196
O5	O	0.925867	0.036021	0.069348
O6	O	0.804994	0.105261	0.069320
O7	O	1.032604	0.106927	0.069344
Zn8	Zn	0.917678	0.106733	0.091323
Zn9	Zn	0.926980	0.101427	-0.091171
O10	O	0.911730	0.176167	0.069315
C11	C	0.779414	0.101731	0.000061
C12	C	0.692674	0.097211	0.000053
C13	C	0.642076	0.138713	0.000043
C14	C	0.560575	0.134463	0.000056
C15	C	0.529672	0.088710	0.000072
C16	C	0.580276	0.047205	0.000083
C17	C	0.661776	0.051455	0.000077
C18	C	0.284088	0.073694	0.000098
C19	C	0.202582	0.069446	0.000102
C20	C	0.182886	0.156706	0.000076
C21	C	0.264389	0.160952	0.000064
C22	C	0.314985	0.119446	0.000080
C23	C	0.446365	0.084365	0.000082
C24	C	0.398290	0.123792	0.000076
C25	C	0.929100	0.015987	0.000095
C26	C	0.928206	-0.037709	0.000102
C27	C	0.994011	-0.373515	0.000066
C28	C	0.990696	-0.575327	0.000054
O29	O	1.050870	-0.603831	0.000024
N30	N	0.919023	-0.597729	0.000047
C31	C	0.848173	-0.569676	0.000038
O32	O	0.787135	-0.593361	0.000023
C33	C	0.851490	-0.367865	0.000044
C34	C	0.923167	-0.345465	0.000059
C35	C	1.065683	-0.351115	0.000080
C36	C	1.066511	-0.300665	0.000088
C37	C	0.995667	-0.272615	0.000081
C38	C	0.923995	-0.295015	0.000067
C39	C	0.780641	-0.339813	0.000029
C40	C	0.781477	-0.289357	0.000028
C41	C	0.853155	-0.266957	0.000043
C42	C	0.853979	-0.216515	0.000067
N43	N	0.925652	-0.194113	0.000074
C44	C	0.996496	-0.222163	0.000081
C45	C	0.846437	-0.675629	0.000036
C46	C	0.845608	-0.726081	0.000036
C47	C	0.988131	-0.731729	0.000051
C48	C	0.988959	-0.681276	0.000057
C49	C	0.918111	-0.653227	0.000043
C50	C	0.998229	-0.116214	0.000098
C51	C	0.999051	-0.065759	0.000109
C52	C	0.856528	-0.060116	0.000090
C53	C	0.855706	-0.110566	0.000083
C54	C	0.926563	-0.138614	0.000084
O55	O	0.793838	-0.187981	0.000088
O56	O	1.057527	-0.198469	0.000077
C57	C	0.993184	-0.423965	0.000059
C58	C	0.921512	-0.446365	0.000044
C59	C	0.850668	-0.418315	0.000037
C60	C	0.920682	-0.496818	0.000044
C61	C	0.991526	-0.524868	0.000051
C62	C	1.063200	-0.502465	0.000058
C63	C	1.064028	-0.452015	0.000065
C64	C	0.778994	-0.440718	0.000030
C65	C	0.778172	-0.491168	0.000024
C66	C	0.849016	-0.519218	0.000031
C67	C	1.065245	0.106428	0.000089
C68	C	1.151985	0.110949	0.000092
C69	C	0.915558	0.192173	0.000055
C70	C	0.916452	0.245869	0.000043
N71	N	0.911335	0.110355	0.215871
N72	N	0.933330	0.097802	-0.215719
C73	C	0.962657	0.080979	0.259468
C74	C	0.958226	0.083517	0.346656
C75	C	0.902478	0.115434	0.390245
C76	C	0.851150	0.144812	0.346642
C77	C	0.855577	0.142270	0.259456
C78	C	0.886429	0.124638	0.653492
C79	C	0.882008	0.127178	0.740684
C80	C	0.989084	0.065882	0.740692
C81	C	0.993509	0.063346	0.653504
C82	C	0.942179	0.092721	0.609908
C83	C	0.897950	0.118031	0.479365
C84	C	0.946704	0.090122	0.520790
H85	H	0.423454	0.161044	0.000068
C86	C	0.546841	-0.002505	-0.000031
C87	C	0.576249	-0.029869	-0.071276
C88	C	0.545476	-0.075666	-0.071408
H89	H	0.491062	0.000837	-0.000074
H90	H	0.561812	-0.018356	0.048250
H91	H	0.561273	-0.014021	-0.119544
H92	H	0.632025	-0.033225	-0.071248
H93	H	0.560447	-0.091518	-0.023127
H94	H	0.489698	-0.072319	-0.071449
H95	H	0.565430	-0.094240	-0.119742
H96	H	0.702973	0.017659	0.000084
C97	C	0.505772	0.179580	0.000002
C98	C	0.550280	0.220557	-0.000040
C99	C	0.499823	0.262129	-0.000098
H100	H	0.471098	0.181211	0.048295
H101	H	0.476033	0.178356	-0.048315
H102	H	0.580004	0.221781	0.048273
H103	H	0.584951	0.218943	-0.048329
H104	H	0.470084	0.260905	-0.048416
H105	H	0.465152	0.263755	0.048195
H106	H	0.530014	0.289937	-0.000134
H107	H	0.667230	0.175970	0.000030
H108	H	0.992092	0.064133	0.485297
H109	H	0.805754	0.170798	0.382137
H110	H	0.844636	0.148557	0.618003
H111	H	0.421194	0.047113	0.000118
H112	H	1.000016	0.059596	0.382153
C113	C	1.076959	-0.041531	0.000079
C114	C	1.138823	-0.076900	0.000058
C115	C	1.210601	-0.054602	0.000017
H116	H	1.077899	-0.020572	0.048370
H117	H	1.082751	-0.023379	-0.048240
H118	H	1.133033	-0.095044	0.048372
H119	H	1.137909	-0.097862	-0.048230
H120	H	1.216393	-0.036450	-0.048302
H121	H	1.211532	-0.033643	0.048309
H122	H	1.252584	-0.078596	-0.000005
H123	H	1.055928	-0.139045	0.000095
C124	C	0.128084	0.201823	0.000023
C125	C	0.172592	0.242800	-0.000011
C126	C	0.122136	0.284372	-0.000068
H127	H	0.093408	0.203452	0.048314
H128	H	0.098348	0.200601	-0.048296
H129	H	0.202314	0.244022	0.048303
H130	H	0.207265	0.241187	-0.048298
H131	H	0.092400	0.283150	-0.048388
H132	H	0.087463	0.285996	0.048223
H133	H	0.152328	0.312179	-0.000099
H134	H	1.124878	-0.282432	0.000097
H135	H	1.123376	-0.373948	0.000083
C136	C	0.767707	-0.750309	-0.000013
C137	C	0.705849	-0.714940	-0.000043
C138	C	0.634074	-0.737238	-0.000105
H139	H	0.761842	-0.768470	0.048274
H140	H	0.766840	-0.771261	-0.048336
H141	H	0.706715	-0.693996	0.048275
H142	H	0.711688	-0.696776	-0.048326
H143	H	0.633207	-0.758190	-0.048428
H144	H	0.628217	-0.755399	0.048183
H145	H	0.592095	-0.713244	-0.000133
H146	H	0.721303	-0.417884	0.000023
H147	H	0.852559	0.144019	0.514863
H148	H	1.030873	0.041965	0.776196
C149	C	0.700407	-0.515552	-0.000124
C150	C	0.699412	-0.546421	-0.071383
C151	C	0.627795	-0.568894	-0.071551
H152	H	0.658274	-0.491670	-0.000173
H153	H	0.694643	-0.533747	0.048147
H154	H	0.705168	-0.528226	-0.119642
H155	H	0.741530	-0.570311	-0.071350
H156	H	0.622031	-0.587089	-0.023280
H157	H	0.585667	-0.545009	-0.071597
H158	H	0.627113	-0.589845	-0.119895
C159	C	0.702739	-0.364035	-0.000035
C160	C	0.640887	-0.328662	-0.000068
C161	C	0.569108	-0.350957	-0.000140
H162	H	0.696867	-0.382197	0.048250
H163	H	0.701874	-0.384985	-0.048360
H164	H	0.641751	-0.307720	0.048252
H165	H	0.646733	-0.310498	-0.048350
H166	H	0.568243	-0.371907	-0.048465
H167	H	0.563244	-0.369118	0.048146
H168	H	0.527133	-0.326960	-0.000170
C169	C	0.297976	0.210614	-0.000148
C170	C	0.347782	0.213524	-0.071437
C171	C	0.378723	0.259269	-0.071683
H172	H	0.326968	0.215555	0.048085
H173	H	0.256183	0.234730	-0.000205
H174	H	0.389569	0.189415	-0.071373
H175	H	0.318808	0.208592	-0.119682
H176	H	0.336929	0.283386	-0.071739
H177	H	0.407711	0.264206	-0.023447
H178	H	0.412513	0.261252	-0.120055
H179	H	1.038904	0.037356	0.618016
C180	C	0.799944	0.174249	0.212162
C181	C	0.810976	0.222868	0.233328
C182	C	0.759745	0.252340	0.189771
H183	H	0.747097	0.167318	0.226425
H184	H	0.810567	0.168196	0.153986
H185	H	0.800348	0.228918	0.291491
H186	H	0.863812	0.229814	0.219063
H187	H	0.770368	0.246287	0.131595
H188	H	0.706901	0.245405	0.204037
H189	H	0.767228	0.285331	0.204120
C190	C	0.338887	0.028573	0.000069
C191	C	0.294378	-0.012404	0.000059
C192	C	0.344837	-0.053980	0.000022
H193	H	0.368652	0.029753	0.048357
H194	H	0.373538	0.026983	-0.048253
H195	H	0.259742	-0.010814	0.048376
H196	H	0.264616	-0.013600	-0.048226
H197	H	0.379487	-0.055570	-0.048299
H198	H	0.374598	-0.052795	0.048312
H199	H	0.314645	-0.081788	0.000008
C200	C	0.769563	-0.645115	0.000157
C201	C	0.762248	-0.613910	0.071407
C202	C	0.691446	-0.585791	0.071544
H203	H	0.726695	-0.665627	0.000197
H204	H	0.769372	-0.626688	-0.048120
H205	H	0.762431	-0.632336	0.119672
H206	H	0.805098	-0.593388	0.071382
H207	H	0.691256	-0.567364	0.023267
H208	H	0.648585	-0.606307	0.071582
H209	H	0.686477	-0.564613	0.119882
H210	H	0.177426	0.032187	0.000113
C211	C	0.704585	-0.258885	-0.000156
C212	C	0.704522	-0.231828	-0.071425
C213	C	0.633700	-0.203757	-0.071626
H214	H	0.699406	-0.237646	0.048091
H215	H	0.661763	-0.279439	-0.000210
H216	H	0.747332	-0.211276	-0.071363
H217	H	0.709688	-0.253055	-0.119683
H218	H	0.590877	-0.224312	-0.071680
H219	H	0.628527	-0.182521	-0.023376
H220	H	0.633644	-0.185400	-0.119984
H221	H	1.047326	-0.663041	0.000069
C222	C	0.777899	-0.134908	0.000245
C223	C	0.769612	-0.161638	0.071507
C224	C	0.697941	-0.184059	0.071682
H225	H	0.776994	-0.155903	-0.048007
H226	H	0.735802	-0.110987	0.000290
H227	H	0.811697	-0.185557	0.071455
H228	H	0.770503	-0.140654	0.119770
H229	H	0.655844	-0.160137	0.071727
H230	H	0.697042	-0.205051	0.023427
H231	H	0.692305	-0.202194	0.120036
H232	H	1.045815	-0.754576	0.000057
H233	H	1.122395	-0.433782	0.000078
C234	C	0.779581	-0.029676	0.000247
C235	C	0.732750	-0.038164	0.071507
C236	C	0.661865	-0.010127	0.071678
H237	H	0.752537	-0.038157	-0.048006
H238	H	0.790309	0.003586	0.000294
H239	H	0.722020	-0.071419	0.071453
H240	H	0.759770	-0.029681	0.119772
H241	H	0.672594	0.023135	0.071724
H242	H	0.634829	-0.018610	0.023421
H243	H	0.630085	-0.015879	0.120030
C244	C	1.140036	-0.533011	0.000020
C245	C	1.123960	-0.581988	-0.000011
C246	C	1.194718	-0.610143	-0.000063
H247	H	1.167054	-0.524569	0.048311
H248	H	1.171919	-0.527333	-0.048300
H249	H	1.092089	-0.587663	0.048304
H250	H	1.096953	-0.590444	-0.048298
H251	H	1.226601	-0.604466	-0.048382
H252	H	1.221730	-0.601698	0.048229
H253	H	1.183820	-0.643378	-0.000091
C254	C	1.023213	0.046276	0.212298
C255	C	1.067195	0.021084	0.269144
C256	C	1.122980	-0.010894	0.225724
H257	H	1.057335	0.063959	0.178271
H258	H	0.997093	0.023982	0.178317
H259	H	1.093314	0.043375	0.303110
H260	H	1.033096	0.003392	0.303173
H261	H	1.096860	-0.033188	0.191744
H262	H	1.157095	0.006793	0.191698
H263	H	1.152823	-0.027994	0.264287
C264	C	0.821387	0.161840	0.787861
C265	C	0.777364	0.187011	0.731022
C266	C	0.721508	0.218938	0.774451
H267	H	0.847426	0.184154	0.821864
H268	H	0.787309	0.144106	0.821865
H269	H	0.811437	0.204744	0.697032
H270	H	0.751307	0.164710	0.697017
H271	H	0.687430	0.201204	0.808455
H272	H	0.747554	0.241248	0.808453
H273	H	0.691626	0.236017	0.735892
