data_functionalizedCrystal
_audit_creation_method	'MofGen! by Chris Wilmer'
_symmetry_space_group_name_H-M	'P1'
_symmetry_Int_Tables_number	1
_symmetry_cell_setting	triclinic
loop_
_symmetry_equiv_pos_as_xyz
  x,y,z
_cell_length_a	11.026607
_cell_length_b	9.065218
_cell_length_c	7.540329
_cell_angle_alpha	90.001757
_cell_angle_beta	90.002465
_cell_angle_gamma	96.800951
loop_
_atom_site_label
_atom_site_type_symbol
_atom_site_fract_x
_atom_site_fract_y
_atom_site_fract_z
O1	O	-1.616971	-0.619586	-0.147471
O2	O	-1.283637	-0.286252	0.185863
O3	O	-0.950304	0.047081	0.519196
O4	O	-1.262889	-0.549033	-0.147474
O5	O	-0.929556	-0.215700	0.185859
O6	O	-0.596222	0.117634	0.519192
O7	O	-1.447249	-0.371492	-0.147469
O8	O	-1.113915	-0.038159	0.185864
O9	O	-0.780582	0.295175	0.519198
O10	O	-1.432611	-0.797127	-0.147476
O11	O	-1.099278	-0.463793	0.185857
O12	O	-0.765944	-0.130460	0.519190
O13	O	-1.447238	-0.371486	0.147496
O14	O	-1.113904	-0.038153	0.480830
O15	O	-0.780571	0.295180	0.814163
O16	O	-1.262878	-0.549027	0.147491
O17	O	-0.929545	-0.215694	0.480824
O18	O	-0.596211	0.117639	0.814157
O19	O	-1.616960	-0.619580	0.147494
O20	O	-1.283626	-0.286247	0.480828
O21	O	-0.950293	0.047087	0.814161
Cu22	Cu	-1.439918	-0.584303	0.174425
Cu23	Cu	-1.106584	-0.250970	0.507759
Cu24	Cu	-0.773251	0.082364	0.841092
Cu25	Cu	-1.439931	-0.584310	-0.174405
Cu26	Cu	-1.106598	-0.250977	0.158928
Cu27	Cu	-0.773264	0.082357	0.492261
O28	O	-1.432600	-0.797121	0.147489
O29	O	-1.099267	-0.463788	0.480822
O30	O	-0.765933	-0.130454	0.814156
C31	C	-1.217530	-0.536015	0.000008
C32	C	-0.884196	-0.202681	0.333341
C33	C	-0.550863	0.130652	0.666674
C34	C	-1.082389	-0.497214	0.000006
C35	C	-0.749056	-0.163881	0.333339
C36	C	-0.415723	0.169452	0.666673
C37	C	-1.445836	-0.316152	0.000011
C38	C	-1.112503	0.017182	0.333344
C39	C	-0.779170	0.350515	0.666677
C40	C	-1.441630	-0.151260	0.000002
C41	C	-1.108297	0.182073	0.333336
C42	C	-0.774963	0.515407	0.666669
C43	C	-1.662319	-0.632598	0.000008
C44	C	-1.328986	-0.299265	0.333342
C45	C	-0.995652	0.034068	0.666675
C46	C	-1.797460	-0.671399	-0.000002
C47	C	-1.464126	-0.338065	0.333332
C48	C	-1.130793	-0.004732	0.666665
C49	C	-1.009761	-0.604348	0.000003
C50	C	-0.676428	-0.271015	0.333336
C51	C	-0.343094	0.062318	0.666670
C52	C	-0.870086	-0.564249	0.000001
C53	C	-0.536753	-0.230916	0.333335
C54	C	-0.203419	0.102418	0.666668
C55	C	-1.434012	-0.852461	0.000005
C56	C	-1.100679	-0.519128	0.333339
C57	C	-0.767346	-0.185795	0.666672
C58	C	-1.438219	-1.017353	0.000002
C59	C	-1.104885	-0.684020	0.333335
C60	C	-0.771552	-0.350686	0.666669
N61	N	-1.439917	-0.584300	0.419774
N62	N	-1.106584	-0.250966	0.753107
N63	N	-0.773251	0.082367	1.086440
N64	N	-1.439941	-0.584304	-0.419754
N65	N	-1.106608	-0.250971	-0.086420
N66	N	-0.773274	0.082363	0.246913
H67	H	-1.050987	-0.725756	0.000011
H68	H	-0.717654	-0.392423	0.333344
H69	H	-0.384320	-0.059089	0.666678
C70	C	-0.814902	-0.402440	-0.000089
C71	C	-0.481568	-0.069106	0.333244
C72	C	-0.148235	0.264227	0.666577
C73	C	-0.687336	-0.394835	-0.000135
C74	C	-0.354003	-0.061502	0.333198
C75	C	-0.020670	0.271832	0.666531
C76	C	-0.636458	-0.245805	-0.000245
C77	C	-0.303125	0.087528	0.333089
C78	C	0.030208	0.420861	0.666422
H79	H	-0.840868	-0.354410	0.102742
H80	H	-0.507535	-0.021077	0.436075
H81	H	-0.174201	0.312257	0.769408
H82	H	-0.840942	-0.354538	-0.102993
H83	H	-0.507609	-0.021204	0.230340
H84	H	-0.174275	0.312129	0.563673
H85	H	-0.661307	-0.442716	0.102758
H86	H	-0.327973	-0.109383	0.436091
H87	H	0.005360	0.223951	0.769425
H88	H	-0.661336	-0.442833	-0.102959
H89	H	-0.328003	-0.109500	0.230374
H90	H	0.005331	0.223834	0.563708
H91	H	-0.662499	-0.197904	-0.103148
H92	H	-0.329166	0.135430	0.230185
H93	H	0.004168	0.468763	0.563518
H94	H	-0.662434	-0.197788	0.102588
H95	H	-0.329100	0.135545	0.435922
H96	H	0.004233	0.468878	0.769255
H97	H	-0.549901	-0.240626	-0.000292
H98	H	-0.216568	0.092708	0.333041
H99	H	0.116766	0.426041	0.666374
H100	H	-0.838678	-0.792815	0.000008
H101	H	-0.505345	-0.459481	0.333341
H102	H	-0.172011	-0.126148	0.666675
H103	H	-1.041163	-0.375807	-0.000037
H104	H	-0.707830	-0.042474	0.333296
H105	H	-0.374497	0.290860	0.666629
