data_functionalizedCrystal
_audit_creation_method	'MofGen! by Chris Wilmer'
_symmetry_space_group_name_H-M	'P1'
_symmetry_Int_Tables_number	1
_symmetry_cell_setting	triclinic
loop_
_symmetry_equiv_pos_as_xyz
  x,y,z
_cell_length_a	15.021413
_cell_length_b	10.654550
_cell_length_c	15.944551
_cell_angle_alpha	83.991834
_cell_angle_beta	89.996935
_cell_angle_gamma	90.004146
loop_
_atom_site_label
_atom_site_type_symbol
_atom_site_fract_x
_atom_site_fract_y
_atom_site_fract_z
O1	O	-0.073968	-1.666322	-0.117966
O2	O	-0.073984	-1.300698	-0.129206
O3	O	-0.073968	-1.493494	-0.001368
O4	O	-0.073985	-1.473525	-0.245803
O5	O	0.074097	-1.493463	-0.001387
O6	O	0.074080	-1.300667	-0.129224
O7	O	0.074096	-1.666291	-0.117984
Zn8	Zn	0.097597	-1.483474	-0.123607
Zn9	Zn	-0.097484	-1.483515	-0.123583
O10	O	0.074080	-1.473495	-0.245821
C11	C	0.000046	-1.253895	-0.128389
C12	C	0.000040	-1.114484	-0.125920
N13	N	0.230734	-1.483456	-0.123623
N14	N	-0.230622	-1.483543	-0.123560
C15	C	0.470410	-1.394293	-0.182706
C16	C	0.529748	-1.507771	-0.199670
C17	C	0.412341	-1.483488	-0.123602
C18	C	0.529744	-1.370041	-0.106657
C19	C	0.587765	-1.483509	-0.123584
C20	C	0.470373	-1.597023	-0.140604
C21	C	0.470364	-1.459218	-0.047557
C22	C	0.529676	-1.572778	-0.064489
C23	C	0.311284	-1.483474	-0.123614
C24	C	0.688820	-1.483536	-0.123570
C25	C	0.000065	-1.492650	0.029921
C26	C	0.000065	-1.490165	0.123182
C27	C	0.000064	-1.713094	-0.118800
C28	C	0.000065	-1.852505	-0.121269
C29	C	0.000037	-1.034024	-0.201189
C30	C	0.000053	-0.903034	-0.198863
C31	C	0.000070	-0.932975	-0.045995
C32	C	0.000061	-1.063963	-0.048321
C33	C	0.051931	-0.706036	-0.287518
C34	C	0.051913	-0.625571	-0.362791
C35	C	0.000019	-0.654866	-0.431021
C36	C	-0.051878	-0.764623	-0.423981
C37	C	-0.051868	-0.845081	-0.348708
C38	C	0.000046	-0.815788	-0.280481
C39	C	-0.051825	-1.260962	0.040328
C40	C	-0.051822	-1.341423	0.115603
C41	C	0.000067	-1.312132	0.183840
C42	C	0.051951	-1.202372	0.176809
C43	C	0.051947	-1.121911	0.101535
C44	C	0.000061	-1.151211	0.033297
C45	C	0.000046	-1.474339	-0.277110
C46	C	0.000039	-1.476824	-0.370371
C47	C	0.000047	-1.364720	0.338764
C48	C	0.073054	-1.422957	0.399435
C49	C	0.000058	-1.485668	0.293933
C50	C	-0.072925	-1.423016	0.399437
C51	C	0.000047	-1.481317	0.458871
C52	C	0.073126	-1.543939	0.353376
C53	C	-0.072920	-1.543981	0.353371
C54	C	0.000105	-1.602306	0.414024
C55	C	0.000065	-1.488172	0.198917
C56	C	0.000047	-1.478822	0.553887
H57	H	0.444388	-1.318940	-0.232730
C58	C	0.435092	-1.431409	0.039283
N59	N	0.408521	-1.410449	0.104690
H60	H	0.000115	-1.264327	0.306038
H61	H	0.000027	-1.075154	-0.264375
C62	C	0.564626	-1.674802	0.003042
N63	N	0.590956	-1.751651	0.053900
H64	H	0.555832	-1.528318	-0.263972
H65	H	-0.134652	-1.371857	0.419817
H66	H	0.555826	-1.274092	-0.092333
H67	H	-0.094097	-1.430772	0.121334
H68	H	0.094199	-1.032540	0.095814
C69	C	0.435292	-1.726674	-0.160063
N70	N	0.408867	-1.824322	-0.174724
H71	H	0.134772	-1.371788	0.419832
C72	C	-0.108945	-0.965813	-0.340964
N73	N	-0.151932	-1.056755	-0.335137
H74	H	-0.094138	-0.788460	-0.479542
H75	H	0.000006	-0.589343	-0.492309
C76	C	0.108934	-0.504778	-0.370502
N77	N	0.151851	-0.413770	-0.376301
C78	C	0.156604	-1.612969	0.325963
N79	N	0.219480	-1.664956	0.305312
C80	C	0.000085	-0.877389	0.039360
N81	N	0.000092	-0.835523	0.103651
H82	H	0.094203	-0.682184	-0.231969
C83	C	0.000169	-1.738046	0.458043
N84	N	0.000223	-1.840283	0.491201
C85	C	-0.156302	-1.613048	0.325783
N86	N	-0.219113	-1.665060	0.305001
C87	C	-0.108910	-1.293191	-0.034735
N88	N	-0.151911	-1.317466	-0.091269
C89	C	0.109033	-1.170149	0.251873
N90	N	0.152026	-1.145883	0.308414
H91	H	0.000055	-1.377648	0.245136
