data_functionalizedCrystal
_audit_creation_method	'MofGen! by Chris Wilmer'
_symmetry_space_group_name_H-M	'P1'
_symmetry_Int_Tables_number	1
_symmetry_cell_setting	triclinic
loop_
_symmetry_equiv_pos_as_xyz
  x,y,z
_cell_length_a	17.699083
_cell_length_b	19.188930
_cell_length_c	16.776229
_cell_angle_alpha	89.988225
_cell_angle_beta	89.998886
_cell_angle_gamma	83.213899
loop_
_atom_site_label
_atom_site_type_symbol
_atom_site_fract_x
_atom_site_fract_y
_atom_site_fract_z
O1	O	1.003962	0.088294	-0.066185
O2	O	0.783569	0.099782	-0.066213
O3	O	0.900126	-0.007611	-0.066183
O4	O	0.887405	0.195686	-0.066215
O5	O	0.900110	-0.007617	0.066394
O6	O	0.783553	0.099775	0.066364
O7	O	1.003947	0.088288	0.066391
Zn8	Zn	0.893748	0.094030	0.087427
Zn9	Zn	0.893768	0.094039	-0.087249
O10	O	0.887390	0.195680	0.066361
C11	C	0.755365	0.099367	0.000072
C12	C	0.671348	0.098132	0.000062
C13	C	0.899706	-0.033625	0.000108
C14	C	0.898469	-0.111131	0.000114
C15	C	0.622644	0.161169	0.000053
C16	C	0.543702	0.160004	0.000063
C17	C	0.513466	0.095802	0.000078
C18	C	0.562176	0.032761	0.000090
C19	C	0.641117	0.033926	0.000085
C20	C	0.243819	0.028060	0.000111
C21	C	0.164873	0.026900	0.000113
C22	C	0.146405	0.154139	0.000088
C23	C	0.225345	0.155304	0.000084
C24	C	0.274049	0.092263	0.000100
C25	C	0.359646	0.093526	0.000090
C26	C	0.427870	0.094538	0.000082
C27	C	0.966861	-0.155978	0.000127
C28	C	0.965699	-0.228804	0.000114
C29	C	0.896142	-0.256778	0.000105
C30	C	0.827741	-0.211921	0.000088
C31	C	0.828905	-0.139098	0.000093
N32	N	0.842969	-0.364845	0.045216
N33	N	0.841868	-0.434025	0.045213
C34	C	0.892632	-0.476191	0.000088
N35	N	0.944550	-0.446565	-0.045024
N36	N	0.945653	-0.377379	-0.045018
C37	C	0.894873	-0.335742	0.000099
C38	C	0.959769	-0.600004	0.000085
C39	C	0.958604	-0.672830	0.000067
C40	C	0.820644	-0.655946	0.000049
C41	C	0.821811	-0.583121	0.000059
C42	C	0.891375	-0.555155	0.000081
C43	C	1.032151	0.088703	0.000104
C44	C	1.116167	0.089938	0.000109
C45	C	0.887810	0.221695	0.000069
C46	C	0.889046	0.299201	0.000057
N47	N	0.893739	0.094024	0.206638
N48	N	0.893782	0.094040	-0.206460
C49	C	0.945366	0.046490	0.248368
C50	C	0.945370	0.046490	0.331821
C51	C	0.893751	0.094027	0.373541
C52	C	0.842118	0.141563	0.331805
C53	C	0.842111	0.141559	0.248354
C54	C	0.842146	0.141576	0.668352
C55	C	0.842158	0.141578	0.751808
C56	C	0.945405	0.046507	0.751818
C57	C	0.945398	0.046503	0.668368
C58	C	0.893763	0.094037	0.626639
C59	C	0.893758	0.094036	0.536150
C60	C	0.893759	0.094031	0.464028
H61	H	0.647256	0.213450	0.000040
N62	N	0.133988	-0.038685	0.000153
N63	N	0.092000	-0.053523	0.056047
H64	H	0.070187	-0.099840	0.056076
H65	H	0.987447	0.007800	0.785803
H66	H	0.680771	-0.017406	0.000093
H67	H	0.106741	0.205470	0.000079
N68	N	0.789389	0.190111	0.374430
N69	N	0.789401	0.190109	0.448939
H70	H	0.752161	0.224398	0.479044
N71	N	0.789407	0.190143	0.625750
N72	N	0.790229	0.254678	0.635060
H73	H	0.752980	0.288982	0.604972
N74	N	0.998084	-0.002070	0.374468
N75	N	1.044983	0.020007	0.421049
H76	H	1.082202	-0.014296	0.451177
N77	N	0.293551	-0.036339	0.000124
N78	N	0.266541	-0.093656	0.000133
H79	H	0.301666	-0.139141	0.000140
H80	H	0.504050	0.211335	0.000054
H81	H	0.800120	0.180289	0.785776
N82	N	0.751949	-0.537306	0.000073
N83	N	0.737204	-0.494802	0.055962
H84	H	0.687861	-0.462444	0.055972
N85	N	1.030830	-0.571443	0.000109
N86	N	1.091891	-0.611498	0.000115
H87	H	1.142079	-0.591329	0.000134
H88	H	1.014299	-0.709345	0.000073
H89	H	0.987404	0.007783	0.214405
H90	H	1.021394	-0.265325	0.000121
H91	H	0.764009	-0.678722	0.000038
N92	N	0.998141	-0.002050	0.625765
N93	N	1.044237	-0.044486	0.663035
H94	H	1.081490	-0.078777	0.632948
N95	N	0.789377	0.190126	0.205737
N96	N	0.790197	0.254661	0.215039
H97	H	0.752951	0.288962	0.184942
N98	N	0.256217	0.220891	0.000061
N99	N	0.212722	0.277171	0.000052
H100	H	0.234524	0.323494	0.000038
N101	N	0.531281	-0.032815	0.000113
N102	N	0.460798	-0.033848	0.000117
H103	H	0.438978	-0.080162	0.000132
H104	H	0.771107	-0.234702	0.000079
N105	N	1.037924	-0.127424	0.000147
N106	N	1.098984	-0.167481	0.000155
H107	H	1.149173	-0.147314	0.000168
H108	H	0.773210	-0.102582	0.000083
