data_functionalizedCrystal
_audit_creation_method	'MofGen! by Chris Wilmer'
_symmetry_space_group_name_H-M	'P1'
_symmetry_Int_Tables_number	1
_symmetry_cell_setting	triclinic
loop_
_symmetry_equiv_pos_as_xyz
  x,y,z
_cell_length_a	17.699097
_cell_length_b	10.654551
_cell_length_c	16.776229
_cell_angle_alpha	89.996205
_cell_angle_beta	89.989262
_cell_angle_gamma	83.886896
loop_
_atom_site_label
_atom_site_type_symbol
_atom_site_fract_x
_atom_site_fract_y
_atom_site_fract_z
O1	O	1.005083	0.158888	-0.066350
O2	O	1.505083	0.658888	0.433650
O3	O	0.784837	0.179532	-0.066336
O4	O	1.284837	0.679532	0.433664
O5	O	0.900023	-0.013617	-0.066343
O6	O	1.400023	0.486383	0.433657
O7	O	0.889896	0.352037	-0.066342
O8	O	1.389896	0.852037	0.433658
O9	O	0.900008	-0.013629	0.066233
O10	O	1.400008	0.486371	0.566233
O11	O	0.784821	0.179520	0.066241
O12	O	1.284821	0.679520	0.566241
O13	O	1.005067	0.158876	0.066227
O14	O	1.505067	0.658876	0.566227
Zn15	Zn	0.894942	0.169196	0.087283
Zn16	Zn	1.394942	0.669196	0.587283
Zn17	Zn	0.894962	0.169212	-0.087392
Zn18	Zn	1.394962	0.669212	0.412608
O19	O	0.889881	0.352026	0.066234
O20	O	1.389881	0.852026	0.566234
C21	C	0.756628	0.178783	-0.000046
C22	C	1.256628	0.678783	0.499954
C23	C	0.672596	0.176556	-0.000041
C24	C	1.172596	0.676556	0.499959
C25	C	0.899272	-0.060408	-0.000057
C26	C	1.399272	0.439592	0.499943
C27	C	0.897047	-0.199813	-0.000062
C28	C	1.397047	0.300187	0.499938
C29	C	0.156799	0.162908	-0.072341
C30	C	0.656799	0.662908	0.427659
C31	C	0.235757	0.164992	-0.072337
C32	C	0.735757	0.664992	0.427663
C33	C	0.275221	0.166030	-0.000066
C34	C	0.775221	0.666030	0.499934
C35	C	0.235724	0.164971	0.072205
C36	C	0.735724	0.664971	0.572205
C37	C	0.156769	0.162877	0.072201
C38	C	0.656769	0.662877	0.572201
C39	C	0.554142	0.173412	0.072226
C40	C	1.054142	0.673412	0.572226
C41	C	0.633103	0.175509	0.072226
C42	C	1.133103	0.675509	0.572226
C43	C	0.633130	0.175527	-0.072311
C44	C	1.133130	0.675527	0.427689
C45	C	0.554174	0.173433	-0.072316
C46	C	1.054174	0.673433	0.427684
C47	C	0.514685	0.172367	-0.000045
C48	C	1.014685	0.672367	0.499955
C49	C	0.429071	0.170105	-0.000050
C50	C	0.929071	0.670105	0.499950
C51	C	0.360833	0.168302	-0.000060
C52	C	0.860833	0.668302	0.499940
C53	C	0.896011	-0.265300	-0.072328
C54	C	1.396011	0.234700	0.427672
C55	C	0.893914	-0.396284	-0.072324
C56	C	1.393914	0.103716	0.427676
C57	C	0.893891	-0.396282	0.072218
C58	C	1.393891	0.103718	0.572218
C59	C	0.895983	-0.265300	0.072213
C60	C	1.395983	0.234700	0.572213
C61	C	0.897075	-0.199813	-0.144604
C62	C	1.397075	0.300187	0.355396
C63	C	0.896041	-0.265301	-0.216875
C64	C	1.396041	0.234699	0.283125
C65	C	0.893943	-0.396285	-0.216872
C66	C	1.393943	0.103715	0.283128
C67	C	0.892881	-0.461781	-0.144596
C68	C	1.392881	0.038219	0.355404
C69	C	1.033276	0.159625	-0.000065
C70	C	1.533276	0.659625	0.499935
C71	C	1.117308	0.161852	-0.000075
C72	C	1.617308	0.661852	0.499925
C73	C	0.890632	0.398816	-0.000054
C74	C	1.390632	0.898816	0.499946
C75	C	0.892858	0.538221	-0.000054
C76	C	1.392858	1.038221	0.499946
N77	N	0.894933	0.169185	0.206494
N78	N	1.394933	0.669185	0.706494
N79	N	0.894977	0.169213	-0.206603
N80	N	1.394977	0.669213	0.293397
C81	C	0.945954	0.083693	0.248208
C82	C	1.445954	0.583693	0.748208
C83	C	0.945958	0.083692	0.331660
C84	C	1.445958	0.583692	0.831660
C85	C	0.894945	0.169190	0.373397
C86	C	1.394945	0.669190	0.873397
C87	C	0.843919	0.254685	0.331678
C88	C	1.343919	0.754685	0.831678
C89	C	0.843912	0.254679	0.248227
C90	C	1.343912	0.754679	0.748227
C91	C	0.843947	0.254710	0.668225
C92	C	1.343947	0.754710	1.168225
C93	C	0.843959	0.254712	0.751681
C94	C	1.343959	0.754712	1.251681
C95	C	0.945993	0.083723	0.751658
C96	C	1.445993	0.583723	1.251658
C97	C	0.945986	0.083717	0.668207
C98	C	1.445986	0.583717	1.168207
C99	C	0.894957	0.169207	0.626495
C100	C	1.394957	0.669207	1.126495
C101	C	0.894952	0.169206	0.536007
C102	C	1.394952	0.669206	1.036007
C103	C	0.894953	0.169198	0.463884
C104	C	1.394953	0.669198	0.963884
H105	H	0.267907	0.165844	-0.131183
H106	H	0.767907	0.665844	0.368817
O107	O	1.000997	-0.008516	0.376642
O108	O	1.500997	0.491484	0.876642
H109	H	0.968833	-0.069508	0.414669
H110	H	1.468833	0.430492	0.914669
O111	O	0.511623	0.172301	-0.150273
O112	O	1.011623	0.672301	0.349727
H113	H	0.469358	0.256908	-0.153747
H114	H	0.969358	0.756908	0.346253
H115	H	0.893093	-0.449600	-0.275719
H116	H	1.393093	0.050400	0.224281
H117	H	0.987528	0.014101	0.634228
H118	H	1.487528	0.514101	1.134228
O119	O	0.890628	-0.603060	-0.144587
O120	O	1.390628	-0.103060	0.355413
H121	H	0.890093	-0.637600	-0.206981
H122	H	1.390093	-0.137600	0.293019
H123	H	0.987498	0.014077	0.214231
H124	H	1.487498	0.514077	0.714231
H125	H	0.987541	0.014108	0.785629
H126	H	1.487541	0.514108	1.285629
H127	H	0.522001	0.172525	0.131074
H128	H	1.022001	0.672525	0.631074
O129	O	0.675729	0.176644	-0.150262
O130	O	1.175729	0.676644	0.349738
H131	H	0.705416	0.263145	-0.153716
H132	H	1.205416	0.763145	0.346284
O133	O	0.278283	0.166098	0.150158
O134	O	0.778283	0.666098	0.650158
H135	H	0.339819	0.167748	0.138022
H136	H	0.839819	0.667748	0.638022
O137	O	0.788901	0.346914	0.376688
O138	O	1.288901	0.846914	0.876688
H139	H	0.751848	0.294137	0.414733
H140	H	1.251848	0.794137	0.914733
H141	H	0.124616	0.162031	0.131047
H142	H	0.624616	0.662031	0.631047
H143	H	0.665232	0.176354	0.131081
H144	H	1.165232	0.676354	0.631081
H145	H	0.802415	0.324337	0.785662
H146	H	1.302415	0.824337	1.285662
O147	O	0.899514	-0.058578	-0.144605
O148	O	1.399514	0.441422	0.355395
H149	H	0.900141	-0.024054	-0.207001
H150	H	1.400141	0.475946	0.292999
O151	O	0.897183	-0.194670	-0.294828
O152	O	1.397183	0.305330	0.205172
H153	H	0.898821	-0.092589	-0.282692
H154	H	1.398821	0.407411	0.217308
O155	O	0.892765	-0.466920	0.150169
O156	O	1.392765	0.033080	0.650169
H157	H	0.891148	-0.569005	0.138031
H158	H	1.391148	-0.069005	0.638031
O159	O	0.788916	0.346921	0.623240
O160	O	1.288916	0.846921	1.123240
H161	H	0.799080	0.444799	0.639244
H162	H	1.299080	0.944799	1.139244
O163	O	0.897107	-0.194653	0.150154
O164	O	1.397107	0.305347	0.650154
H165	H	0.896029	-0.262196	0.200413
H166	H	1.396029	0.237804	0.700413
O167	O	0.788887	0.346893	0.203229
O168	O	1.288887	0.846893	0.703229
H169	H	0.753420	0.406355	0.246270
H170	H	1.253420	0.906355	0.746270
H171	H	0.124673	0.162072	-0.131192
H172	H	0.624673	0.662072	0.368808
