data_functionalizedCrystal
_audit_creation_method	'MofGen! by Chris Wilmer'
_symmetry_space_group_name_H-M	'P1'
_symmetry_Int_Tables_number	1
_symmetry_cell_setting	triclinic
loop_
_symmetry_equiv_pos_as_xyz
  x,y,z
_cell_length_a	14.519731
_cell_length_b	14.519709
_cell_length_c	7.088929
_cell_angle_alpha	96.236165
_cell_angle_beta	83.784327
_cell_angle_gamma	83.684499
loop_
_atom_site_label
_atom_site_type_symbol
_atom_site_fract_x
_atom_site_fract_y
_atom_site_fract_z
O1	O	1.214403	0.130449	0.158997
O2	O	1.464403	0.380449	0.408997
O3	O	1.714403	0.630449	0.658997
O4	O	1.964403	0.880449	0.908997
O5	O	0.945929	0.144666	0.159000
O6	O	1.195929	0.394666	0.409000
O7	O	1.445929	0.644666	0.659000
O8	O	1.695929	0.894666	0.909000
O9	O	1.087285	0.003318	0.158981
O10	O	1.337285	0.253318	0.408981
O11	O	1.587285	0.503318	0.658981
O12	O	1.837285	0.753318	0.908981
O13	O	1.073047	0.271796	0.159016
O14	O	1.323047	0.521796	0.409016
O15	O	1.573047	0.771796	0.659016
O16	O	1.823047	1.021796	0.909016
O17	O	1.106176	-0.015614	-0.158996
O18	O	1.356176	0.234386	0.091004
O19	O	1.606176	0.484386	0.341004
O20	O	1.856176	0.734386	0.591004
O21	O	0.964820	0.125733	-0.158977
O22	O	1.214820	0.375733	0.091023
O23	O	1.464820	0.625733	0.341023
O24	O	1.714820	0.875733	0.591023
O25	O	1.233294	0.111517	-0.158981
O26	O	1.483294	0.361517	0.091019
O27	O	1.733294	0.611517	0.341019
O28	O	1.983294	0.861517	0.591019
Cu29	Cu	1.100782	0.116896	-0.188013
Cu30	Cu	1.350782	0.366896	0.061987
Cu31	Cu	1.600782	0.616896	0.311987
Cu32	Cu	1.850782	0.866896	0.561987
Cu33	Cu	1.078441	0.139286	0.188033
Cu34	Cu	1.328441	0.389286	0.438033
Cu35	Cu	1.578441	0.639286	0.688033
Cu36	Cu	1.828441	0.889286	0.938033
O37	O	1.091938	0.252864	-0.158962
O38	O	1.341938	0.502864	0.091038
O39	O	1.591938	0.752864	0.341038
O40	O	1.841938	1.002864	0.591038
C41	C	0.921015	0.134533	0.000012
C42	C	1.171015	0.384533	0.250012
C43	C	1.421015	0.634533	0.500012
C44	C	1.671015	0.884533	0.750012
C45	C	0.818635	0.132537	0.000013
C46	C	1.068635	0.382537	0.250013
C47	C	1.318635	0.632537	0.500013
C48	C	1.568635	0.882537	0.750013
C49	C	0.735490	0.130916	0.000020
C50	C	0.985490	0.380916	0.250020
C51	C	1.235490	0.630916	0.500020
C52	C	1.485490	0.880916	0.750020
C53	C	0.631181	0.128889	0.000021
C54	C	0.881181	0.378889	0.250021
C55	C	1.131181	0.628889	0.500021
C56	C	1.381181	0.878889	0.750021
C57	C	0.548042	0.127281	0.000020
C58	C	0.798042	0.377281	0.250020
C59	C	1.048042	0.627281	0.500020
C60	C	1.298042	0.877281	0.750020
C61	C	0.443727	0.125255	0.000024
C62	C	0.693727	0.375255	0.250024
C63	C	0.943727	0.625255	0.500024
C64	C	1.193727	0.875255	0.750024
C65	C	1.096067	-0.040508	-0.000008
C66	C	1.346067	0.209492	0.249992
C67	C	1.596067	0.459492	0.499992
C68	C	1.846067	0.709492	0.749992
C69	C	1.094079	-0.142889	-0.000009
C70	C	1.344079	0.107111	0.249991
C71	C	1.594079	0.357111	0.499991
C72	C	1.844079	0.607111	0.749991
C73	C	1.086757	-0.517782	0.000041
C74	C	1.336757	-0.267782	0.250041
C75	C	1.586757	-0.017782	0.500041
C76	C	1.836757	0.232218	0.750041
C77	C	1.088790	-0.413475	0.000027
C78	C	1.338790	-0.163475	0.250027
C79	C	1.588790	0.086525	0.500027
C80	C	1.838790	0.336525	0.750027
C81	C	1.090418	-0.330339	0.000014
C82	C	1.340418	-0.080339	0.250014
C83	C	1.590418	0.169661	0.500014
C84	C	1.840418	0.419661	0.750014
C85	C	1.092452	-0.226025	0.000003
C86	C	1.342452	0.023975	0.250003
C87	C	1.592452	0.273975	0.500003
C88	C	1.842452	0.523975	0.750003
C89	C	1.258208	0.121649	0.000012
C90	C	1.508208	0.371649	0.250012
C91	C	1.758208	0.621649	0.500012
C92	C	2.008208	0.871649	0.750012
C93	C	1.360588	0.123646	0.000024
C94	C	1.610588	0.373646	0.250024
C95	C	1.860588	0.623646	0.500024
C96	C	2.110588	0.873646	0.750024
C97	C	1.083156	0.296690	0.000032
C98	C	1.333156	0.546690	0.250032
C99	C	1.583156	0.796690	0.500032
C100	C	1.833156	1.046690	0.750032
C101	C	1.085143	0.399072	0.000045
C102	C	1.335143	0.649072	0.250045
C103	C	1.585143	0.899072	0.500045
C104	C	1.835143	1.149072	0.750045
N105	N	1.116502	0.101148	-0.452503
N106	N	1.366502	0.351148	-0.202503
N107	N	1.616502	0.601148	0.047497
N108	N	1.866502	0.851148	0.297497
N109	N	1.062729	0.155027	0.452523
N110	N	1.312729	0.405027	0.702523
N111	N	1.562729	0.655027	0.952523
N112	N	1.812729	0.905027	1.202523
H113	H	1.006999	0.210861	-0.465824
H114	H	1.256999	0.460861	-0.215824
H115	H	1.506999	0.710861	0.034176
H116	H	1.756999	0.960861	0.284176
C117	C	1.191800	0.025717	-0.562822
C118	C	1.441800	0.275717	-0.312822
C119	C	1.691800	0.525717	-0.062822
C120	C	1.941800	0.775717	0.187178
N121	N	1.248512	-0.031098	-0.645916
N122	N	1.498512	0.218902	-0.395916
N123	N	1.748512	0.468902	-0.145916
N124	N	1.998512	0.718902	0.104084
