data_functionalizedCrystal
_audit_creation_method	'MofGen! by Chris Wilmer'
_symmetry_space_group_name_H-M	'P1'
_symmetry_Int_Tables_number	1
_symmetry_cell_setting	triclinic
loop_
_symmetry_equiv_pos_as_xyz
  x,y,z
_cell_length_a	17.699077
_cell_length_b	27.732064
_cell_length_c	16.776229
_cell_angle_alpha	89.997427
_cell_angle_beta	89.993415
_cell_angle_gamma	82.965000
loop_
_atom_site_label
_atom_site_type_symbol
_atom_site_fract_x
_atom_site_fract_y
_atom_site_fract_z
O1	O	1.003548	0.061113	-0.066270
O2	O	0.783100	0.069068	-0.066273
O3	O	0.900164	-0.005281	-0.066275
O4	O	0.886484	0.135462	-0.066269
O5	O	0.900149	-0.005286	0.066302
O6	O	0.783084	0.069064	0.066303
O7	O	1.003533	0.061108	0.066306
Zn8	Zn	0.893306	0.065085	0.087354
Zn9	Zn	0.893326	0.065091	-0.087321
O10	O	0.886469	0.135458	0.066308
C11	C	0.754898	0.068782	0.000014
C12	C	0.670887	0.067928	0.000013
C13	C	0.631414	0.067523	0.072281
C14	C	0.552479	0.066713	0.072282
C15	C	0.513016	0.066311	0.000014
C16	C	0.552495	0.066715	-0.072260
C17	C	0.631429	0.067521	-0.072260
C18	C	0.234160	0.063462	-0.072262
C19	C	0.155219	0.062657	-0.072256
C20	C	0.155209	0.062654	0.072280
C21	C	0.234144	0.063460	0.072280
C22	C	0.273616	0.063861	0.000007
C23	C	0.359207	0.064738	0.000007
C24	C	0.427426	0.065438	0.000013
C25	C	0.899867	-0.023291	0.000011
C26	C	0.898997	-0.076949	0.000003
C27	C	0.823892	-0.454291	-0.000001
C28	C	0.827096	-0.252619	-0.000002
O29	O	0.768816	-0.221575	-0.000034
N30	N	0.896513	-0.233243	-0.000001
C31	C	0.965133	-0.264288	-0.000005
O32	O	1.024250	-0.243180	-0.000012
C33	C	0.961929	-0.465959	-0.000010
C34	C	0.892507	-0.485332	-0.000002
C35	C	0.754476	-0.473664	0.000006
C36	C	0.753676	-0.524079	0.000010
C37	C	0.822291	-0.555121	0.000008
C38	C	0.891707	-0.535747	0.000002
C39	C	1.030549	-0.497003	-0.000020
C40	C	1.029741	-0.547423	-0.000023
C41	C	0.960320	-0.566797	-0.000015
C42	C	0.959522	-0.617203	0.000005
N43	N	0.890105	-0.636579	0.000004
C44	C	0.821490	-0.605538	0.000006
C45	C	0.966811	-0.158407	-0.000001
C46	C	0.967612	-0.107990	0.000002
C47	C	0.829574	-0.096324	0.000003
C48	C	0.828774	-0.146743	0.000007
C49	C	0.897394	-0.177784	-0.000002
C50	C	0.819814	-0.711413	0.000016
C51	C	0.819020	-0.761833	0.000024
C52	C	0.957058	-0.773495	0.000018
C53	C	0.957853	-0.723079	0.000014
C54	C	0.889225	-0.692039	0.000011
O55	O	1.017770	-0.648275	0.000029
O56	O	0.762381	-0.626655	-0.000004
C57	C	0.824692	-0.403876	-0.000005
C58	C	0.894108	-0.384502	-0.000012
C59	C	0.962723	-0.415543	-0.000013
C60	C	0.894909	-0.334084	-0.000009
C61	C	0.826293	-0.303043	-0.000007
C62	C	0.756876	-0.322419	-0.000008
C63	C	0.756076	-0.372834	-0.000004
C64	C	1.032140	-0.396167	-0.000013
C65	C	1.032935	-0.345752	-0.000016
C66	C	0.964319	-0.314710	-0.000014
C67	C	1.031735	0.061395	0.000017
C68	C	1.115746	0.062249	0.000013
C69	C	0.886765	0.153468	0.000020
C70	C	0.887636	0.207125	0.000022
N71	N	0.893298	0.065081	0.206565
N72	N	0.893341	0.065092	-0.206532
C73	C	0.945150	0.032172	0.248282
C74	C	0.945154	0.032172	0.331734
C75	C	0.893309	0.065083	0.373468
C76	C	0.841452	0.097993	0.331746
C77	C	0.841445	0.097991	0.248295
C78	C	0.841479	0.098002	0.668293
C79	C	0.841492	0.098003	0.751750
C80	C	0.945188	0.032184	0.751732
C81	C	0.945181	0.032181	0.668281
C82	C	0.893322	0.065090	0.626566
C83	C	0.893317	0.065089	0.536078
C84	C	0.893317	0.065086	0.463955
H85	H	0.520346	0.066375	0.131130
C86	C	0.674816	0.067965	0.151783
N87	N	0.707504	0.068295	0.211667
H88	H	0.799236	0.124788	0.365731
H89	H	0.266270	0.063790	0.131129
H90	H	1.088017	-0.421437	-0.000015
C91	C	0.111785	0.062207	0.151783
N92	N	0.079078	0.061872	0.211663
H93	H	1.089470	-0.329983	-0.000016
H94	H	1.014381	-0.707305	0.000020
H95	H	0.123091	0.062330	-0.131109
H96	H	0.266288	0.063787	-0.131111
C97	C	0.674848	0.067968	-0.151761
N98	N	0.707550	0.068302	-0.211644
H99	H	0.987400	0.005384	0.634304
H100	H	0.699546	-0.388603	0.000003
C101	C	0.784530	0.134265	0.622418
N102	N	0.741668	0.161602	0.587861
H103	H	1.012923	-0.798777	0.000021
H104	H	1.024142	-0.092221	0.000008
C105	C	0.784410	0.134196	0.202408
N106	N	0.741450	0.161468	0.167846
C107	C	1.106919	-0.475704	-0.000031
N108	N	1.164446	-0.459663	-0.000043
H109	H	0.520359	0.066384	-0.131102
H110	H	0.762487	-0.777604	0.000034
H111	H	0.763931	-0.686146	0.000013
C112	C	1.002177	-0.004042	0.377618
N113	N	1.045122	-0.031324	0.412178
C114	C	0.677306	-0.545383	0.000008
N115	N	0.619780	-0.561425	0.000003
H116	H	0.698597	-0.448395	0.000004
C117	C	1.002229	-0.004020	0.797626
N118	N	1.045191	-0.031288	0.832192
C119	C	0.752406	-0.168048	0.000007
N120	N	0.694882	-0.184093	0.000005
C121	C	1.002183	-0.004033	0.202382
N122	N	1.045140	-0.031306	0.167812
H123	H	0.773705	-0.071042	0.000008
C124	C	1.042304	-0.192547	0.000004
N125	N	1.099167	-0.218259	0.000014
C126	C	1.105232	-0.581566	-0.000028
N127	N	1.162091	-0.607281	-0.000028
H128	H	0.799271	0.124804	0.785728
C129	C	0.681399	-0.288264	-0.000009
N130	N	0.624553	-0.262536	-0.000016
