data_functionalizedCrystal
_audit_creation_method	'MofGen! by Chris Wilmer'
_symmetry_space_group_name_H-M	'P1'
_symmetry_Int_Tables_number	1
_symmetry_cell_setting	triclinic
loop_
_symmetry_equiv_pos_as_xyz
  x,y,z
_cell_length_a	19.121215
_cell_length_b	21.295417
_cell_length_c	19.120904
_cell_angle_alpha	92.408338
_cell_angle_beta	89.873207
_cell_angle_gamma	92.463915
loop_
_atom_site_label
_atom_site_type_symbol
_atom_site_fract_x
_atom_site_fract_y
_atom_site_fract_z
Zn1	Zn	1.054846	-0.227295	-0.442216
Zn2	Zn	1.388179	0.106039	-0.108883
Zn3	Zn	1.721513	0.439372	0.224451
Zn4	Zn	1.059756	-0.327893	-0.324970
Zn5	Zn	1.393089	0.005440	0.008363
Zn6	Zn	1.726422	0.338773	0.341697
Zn7	Zn	0.942613	-0.226920	-0.319981
Zn8	Zn	1.275946	0.106414	0.013352
Zn9	Zn	1.609279	0.439747	0.346686
Zn10	Zn	0.937563	-0.336810	-0.437151
Zn11	Zn	1.270897	-0.003477	-0.103818
Zn12	Zn	1.604230	0.329857	0.229516
O13	O	0.998694	-0.279729	-0.381080
O14	O	1.332028	0.053604	-0.047746
O15	O	1.665361	0.386937	0.285587
O16	O	1.153605	-0.237065	-0.430871
O17	O	1.486939	0.096269	-0.097537
O18	O	1.820272	0.429602	0.235796
O19	O	1.048384	-0.310610	-0.226204
O20	O	1.381717	0.022723	0.107129
O21	O	1.715051	0.356056	0.440462
O22	O	0.957559	-0.138879	-0.336227
O23	O	1.290892	0.194454	-0.002894
O24	O	1.624226	0.527788	0.330439
O25	O	1.157212	-0.310974	-0.344731
O26	O	1.490546	0.022359	-0.011397
O27	O	1.823879	0.355693	0.321936
O28	O	1.040017	-0.139154	-0.426033
O29	O	1.373350	0.194179	-0.092700
O30	O	1.706683	0.527512	0.240634
O31	O	0.962320	-0.236425	-0.222539
O32	O	1.295653	0.096908	0.110794
O33	O	1.628986	0.430241	0.444128
O34	O	0.843835	-0.245071	-0.331316
O35	O	1.177168	0.088262	0.002017
O36	O	1.510502	0.421595	0.335350
O37	O	0.948953	-0.326171	-0.535927
O38	O	1.282287	0.007162	-0.202593
O39	O	1.615620	0.340496	0.130740
O40	O	0.840125	-0.325807	-0.417401
O41	O	1.173459	0.007526	-0.084067
O42	O	1.506792	0.340859	0.249266
O43	O	1.035121	-0.245711	-0.539648
O44	O	1.368454	0.087623	-0.206315
O45	O	1.701787	0.420956	0.127019
O46	O	1.043488	-0.417167	-0.339819
O47	O	1.376821	-0.083833	-0.006486
O48	O	1.710155	0.249500	0.326847
O49	O	0.953714	-0.423717	-0.422238
O50	O	1.287047	-0.090384	-0.088905
O51	O	1.620381	0.242949	0.244428
C52	C	0.816542	-0.286367	-0.373268
C53	C	1.149875	0.046967	-0.039935
C54	C	1.483208	0.380300	0.293399
C55	C	0.738615	-0.289222	-0.369943
C56	C	1.071949	0.044111	-0.036609
C57	C	1.405282	0.377445	0.296724
C58	C	0.998604	-0.443283	-0.381037
C59	C	1.331938	-0.109949	-0.047703
C60	C	1.665271	0.223384	0.285630
C61	C	0.998629	-0.513250	-0.381045
C62	C	1.331962	-0.179917	-0.047711
C63	C	1.665295	0.153416	0.285622
C64	C	0.297972	-0.307299	-0.348906
C65	C	0.631305	0.026034	-0.015573
C66	C	0.964639	0.359368	0.317761
C67	C	0.371192	-0.304612	-0.352025
C68	C	0.704526	0.028721	-0.018692
C69	C	1.037859	0.362054	0.314642
C70	C	0.405923	-0.264857	-0.398506
C71	C	0.739257	0.068476	-0.065173
C72	C	1.072590	0.401810	0.268161
C73	C	0.367431	-0.227781	-0.441866
C74	C	0.700764	0.105552	-0.108533
C75	C	1.034097	0.438885	0.224801
C76	C	0.294212	-0.230465	-0.438743
C77	C	0.627545	0.102868	-0.105410
C78	C	0.960878	0.436202	0.227924
C79	C	0.626903	-0.254830	-0.410180
C80	C	0.960237	0.078504	-0.076846
C81	C	1.293570	0.411837	0.256487
C82	C	0.700128	-0.252150	-0.413301
C83	C	1.033461	0.081183	-0.079967
C84	C	1.366794	0.414516	0.253366
C85	C	0.703884	-0.328981	-0.323459
C86	C	1.037218	0.004352	0.009875
C87	C	1.370551	0.337686	0.343208
C88	C	0.630664	-0.331664	-0.320343
C89	C	0.963997	0.001670	0.012991
C90	C	1.297330	0.335003	0.346324
C91	C	0.592177	-0.294586	-0.363700
C92	C	0.925511	0.038748	-0.030367
C93	C	1.258844	0.372081	0.302967
C94	C	0.480766	-0.262112	-0.401697
C95	C	0.814100	0.071222	-0.068364
C96	C	1.147433	0.404555	0.264970
C97	C	0.517336	-0.297328	-0.360505
C98	C	0.850669	0.036005	-0.027172
C99	C	1.184003	0.369339	0.306162
C100	C	1.045412	-0.542685	-0.338177
C101	C	1.378745	-0.209352	-0.004843
C102	C	1.712079	0.123981	0.328490
C103	C	1.045444	-0.608427	-0.338194
C104	C	1.378777	-0.275094	-0.004861
C105	C	1.712111	0.058239	0.328473
C106	C	0.998681	-0.644732	-0.381071
C107	C	1.332014	-0.311398	-0.047738
C108	C	1.665348	0.021935	0.285596
C109	C	0.951894	-0.615289	-0.423948
C110	C	1.285227	-0.281956	-0.090614
C111	C	1.618561	0.051377	0.242719
C112	C	0.951868	-0.549548	-0.423934
C113	C	1.285201	-0.216215	-0.090601
C114	C	1.618535	0.117118	0.242732
N115	N	0.937122	-0.750450	-0.383785
N116	N	1.270456	-0.417116	-0.050452
N117	N	1.603789	-0.083783	0.282881
N118	N	0.937149	-0.812900	-0.383794
N119	N	1.270482	-0.479567	-0.050461
N120	N	1.603816	-0.146234	0.282873
C121	C	0.998758	-0.842805	-0.381115
C122	C	1.332091	-0.509472	-0.047781
C123	C	1.665424	-0.176139	0.285552
N124	N	1.060340	-0.807900	-0.378413
N125	N	1.393674	-0.474566	-0.045080
N126	N	1.727007	-0.141233	0.288254
N127	N	1.060313	-0.745443	-0.378401
N128	N	1.393646	-0.412110	-0.045067
N129	N	1.726979	-0.078776	0.288266
C130	C	0.998704	-0.716017	-0.381091
C131	C	1.332038	-0.382684	-0.047757
C132	C	1.665371	-0.049350	0.285576
C133	C	1.045580	-0.943525	-0.338263
C134	C	1.378913	-0.610192	-0.004930
C135	C	1.712246	-0.276858	0.328403
C136	C	1.045613	-1.009268	-0.338285
C137	C	1.378946	-0.675935	-0.004952
C138	C	1.712280	-0.342602	0.328381
C139	C	0.952057	-1.016129	-0.424035
C140	C	1.285390	-0.682796	-0.090702
C141	C	1.618723	-0.349462	0.242632
C142	C	0.952030	-0.950387	-0.424017
C143	C	1.285363	-0.617054	-0.090683
C144	C	1.618696	-0.283720	0.242650
C145	C	0.998790	-0.914089	-0.381127
C146	C	1.332124	-0.580755	-0.047794
C147	C	1.665457	-0.247422	0.285540
C148	C	1.181558	-0.273066	-0.388922
C149	C	1.514892	0.060267	-0.055589
C150	C	1.848225	0.393600	0.277745
C151	C	1.259484	-0.270227	-0.392264
C152	C	1.592817	0.063106	-0.058931
C153	C	1.926151	0.396439	0.274403
C154	C	0.990926	-0.286977	-0.563936
C155	C	1.324260	0.046356	-0.230602
C156	C	1.657593	0.379689	0.102731
C157	C	0.987616	-0.290066	-0.641858
C158	C	1.320949	0.043268	-0.308525
C159	C	1.654282	0.376601	0.024808
C160	C	0.998803	-0.115537	-0.381139
C161	C	1.332137	0.217796	-0.047805
C162	C	1.665470	0.551130	0.285528
C163	C	0.998850	-0.045568	-0.381164
C164	C	1.332183	0.287765	-0.047830
C165	C	1.665517	0.621098	0.285503
C166	C	1.030921	-0.249627	-0.680405
C167	C	1.364254	0.083706	-0.347071
C168	C	1.697588	0.417039	-0.013738
C169	C	1.027802	-0.252527	-0.753621
C170	C	1.361135	0.080806	-0.420287
C171	C	1.694469	0.414139	-0.086954
C172	C	0.981381	-0.295869	-0.788289
C173	C	1.314714	0.037464	-0.454956
C174	C	1.648048	0.370797	-0.121622
C175	C	0.938071	-0.336309	-0.749737
C176	C	1.271404	-0.002976	-0.416404
C177	C	1.604738	0.330357	-0.083071
C178	C	0.941187	-0.333406	-0.676522
C179	C	1.274520	-0.000073	-0.343189
C180	C	1.607854	0.333261	-0.009856
C181	C	0.969725	-0.306729	-1.009254
C182	C	1.303058	0.026605	-0.675920
C183	C	1.636392	0.359938	-0.342587
C184	C	0.966614	-0.309630	-1.082474
C185	C	1.299947	0.023703	-0.749140
C186	C	1.633281	0.357036	-0.415807
C187	C	1.056344	-0.225847	-1.086352
C188	C	1.389678	0.107486	-0.753019
C189	C	1.723011	0.440820	-0.419685
C190	C	1.059459	-0.222950	-1.013136
C191	C	1.392792	0.110383	-0.679803
C192	C	1.726126	0.443717	-0.346469
C193	C	1.016147	-0.263388	-0.974590
C194	C	1.349480	0.069945	-0.641257
C195	C	1.682813	0.403279	-0.307924
C196	C	0.978193	-0.298836	-0.863128
C197	C	1.311527	0.034497	-0.529794
C198	C	1.644860	0.367831	-0.196461
C199	C	1.019331	-0.260418	-0.899753
C200	C	1.352665	0.072915	-0.566420
C201	C	1.685998	0.406249	-0.233086
C202	C	1.006473	-0.272463	-0.198936
C203	C	1.339806	0.060871	0.134397
C204	C	1.673139	0.394204	0.467730
C205	C	1.009919	-0.269192	-0.121020
C206	C	1.343252	0.064141	0.212313
C207	C	1.676586	0.397475	0.545646
H208	H	0.269699	-0.339675	-0.311059
H209	H	0.603032	-0.006342	0.022274
H210	H	0.936366	0.326992	0.355607
N211	N	0.402916	-0.187170	-0.489336
N212	N	0.736250	0.146163	-0.156003
N213	N	1.069583	0.479497	0.177330
N214	N	0.468290	-0.184779	-0.492120
N215	N	0.801623	0.148554	-0.158786
N216	N	1.134957	0.481888	0.174547
H217	H	0.493352	-0.156097	-0.525647
H218	H	0.826685	0.177236	-0.192314
H219	H	1.160019	0.510570	0.141019
N220	N	0.904115	-0.652361	-0.467742
N221	N	1.237448	-0.319027	-0.134409
N222	N	1.570781	0.014306	0.198925
N223	N	0.862342	-0.626068	-0.506012
N224	N	1.195675	-0.292735	-0.172679
N225	N	1.529009	0.040599	0.160655
H226	H	0.828596	-0.652249	-0.536945
H227	H	1.161930	-0.318915	-0.203612
H228	H	1.495263	0.014418	0.129722
H229	H	0.913771	-0.525582	-0.458843
H230	H	1.247104	-0.192249	-0.125510
H231	H	1.580438	0.141084	0.207823
H232	H	1.068724	-0.214335	-0.652183
H233	H	1.402057	0.118998	-0.318850
H234	H	1.735391	0.452331	0.014483
N235	N	1.066738	-0.216137	-0.864343
N236	N	1.400071	0.117196	-0.531010
N237	N	1.733404	0.450529	-0.197676
N238	N	1.043833	-0.175303	-0.822445
N239	N	1.377167	0.158030	-0.489112
N240	N	1.710500	0.491364	-0.155779
H241	H	1.077315	-0.144030	-0.797431
H242	H	1.410648	0.189303	-0.464098
H243	H	1.743982	0.522637	-0.130765
H244	H	0.489055	-0.329695	-0.322658
H245	H	0.822388	0.003639	0.010675
H246	H	1.155721	0.336972	0.344008
N247	N	0.410508	-0.342490	-0.307748
N248	N	0.743841	-0.009157	0.025586
N249	N	1.077174	0.324177	0.358919
N250	N	0.450310	-0.382114	-0.334074
N251	N	0.783643	-0.048781	-0.000740
N252	N	1.116977	0.284553	0.332593
H253	H	0.478078	-0.408866	-0.302801
H254	H	0.811411	-0.075533	0.030532
H255	H	1.144745	0.257800	0.363866
N256	N	0.919189	-0.353895	-1.117898
N257	N	1.252523	-0.020562	-0.784565
N258	N	1.585856	0.312771	-0.451232
N259	N	0.916418	-0.356480	-1.183269
N260	N	1.249751	-0.023146	-0.849935
N261	N	1.583085	0.310187	-0.516602
H262	H	0.882927	-0.387740	-1.208289
H263	H	1.216260	-0.054407	-0.874956
H264	H	1.549594	0.278926	-0.541622
N265	N	1.072048	-0.211232	-0.792997
N266	N	1.405382	0.122102	-0.459664
N267	N	1.738715	0.455435	-0.126331
N268	N	1.114967	-0.233376	-0.835763
N269	N	1.448301	0.099957	-0.502430
N270	N	1.781634	0.433290	-0.169097
H271	H	1.146218	-0.204210	-0.863574
H272	H	1.479552	0.129123	-0.530241
H273	H	1.812885	0.462457	-0.196907
H274	H	0.940400	-0.334128	-0.891363
H275	H	1.273734	-0.000794	-0.558030
H276	H	1.607067	0.332539	-0.224696
N277	N	1.093347	-0.906452	-0.294451
N278	N	1.426680	-0.573119	0.038882
N279	N	1.760013	-0.239785	0.372216
N280	N	1.135120	-0.932745	-0.256182
N281	N	1.468453	-0.599412	0.077151
N282	N	1.801787	-0.266078	0.410485
H283	H	1.168856	-0.906564	-0.225238
H284	H	1.502189	-0.573231	0.108095
H285	H	1.835523	-0.239898	0.441428
N286	N	0.925480	-0.348038	-0.969897
N287	N	1.258813	-0.014705	-0.636564
N288	N	1.592146	0.318628	-0.303231
N289	N	0.884039	-0.386734	-1.000862
N290	N	1.217372	-0.053401	-0.667529
N291	N	1.550705	0.279933	-0.334196
H292	H	0.852788	-0.415912	-0.973065
H293	H	1.186121	-0.082579	-0.639732
H294	H	1.519455	0.250755	-0.306398
H295	H	0.509053	-0.229744	-0.439544
H296	H	0.842386	0.103589	-0.106210
H297	H	1.175719	0.436922	0.227123
N298	N	0.595200	-0.372281	-0.272864
N299	N	0.928533	-0.038948	0.060469
N300	N	1.261866	0.294385	0.393803
N301	N	0.629573	-0.405381	-0.234156
N302	N	0.962906	-0.072047	0.099177
N303	N	1.296239	0.261286	0.432510
H304	H	0.604527	-0.434071	-0.200626
H305	H	0.937860	-0.100737	0.132707
H306	H	1.271193	0.232596	0.466040
N307	N	0.890651	-0.380574	-0.785158
N308	N	1.223984	-0.047241	-0.451825
N309	N	1.557318	0.286093	-0.118492
N310	N	0.887874	-0.383162	-0.850528
N311	N	1.221208	-0.049828	-0.517195
N312	N	1.554541	0.283505	-0.183862
H313	H	0.854384	-0.414425	-0.875545
H314	H	1.187717	-0.081092	-0.542211
H315	H	1.521050	0.252242	-0.208878
N316	N	1.100576	-0.184528	-1.125715
N317	N	1.433910	0.148805	-0.792381
N318	N	1.767243	0.482139	-0.459048
N319	N	1.142015	-0.145829	-1.094752
N320	N	1.475349	0.187504	-0.761418
N321	N	1.808682	0.520838	-0.428085
H322	H	1.173254	-0.116642	-1.122550
H323	H	1.506588	0.216691	-0.789217
H324	H	1.839921	0.550024	-0.455884
H325	H	1.083489	-0.513133	-0.303255
H326	H	1.416822	-0.179800	0.030078
H327	H	1.750155	0.153534	0.363411
N328	N	1.093395	-1.039335	-0.294483
N329	N	1.426729	-0.706002	0.038850
N330	N	1.760062	-0.372669	0.372184
N331	N	1.070674	-1.075186	-0.248743
N332	N	1.404008	-0.741852	0.084591
N333	N	1.737341	-0.408519	0.417924
H334	H	1.104421	-1.096421	-0.217805
H335	H	1.437754	-0.763088	0.115528
H336	H	1.771087	-0.429754	0.448862
H337	H	0.905916	-0.366329	-0.645138
H338	H	1.239250	-0.032996	-0.311805
H339	H	1.572583	0.300337	0.021528
N340	N	1.106888	-0.178679	-0.977737
N341	N	1.440221	0.154655	-0.644403
N342	N	1.773554	0.487988	-0.311070
N343	N	1.145553	-0.142578	-1.012162
N344	N	1.478887	0.190755	-0.678829
N345	N	1.812220	0.524089	-0.345496
H346	H	1.179054	-0.111313	-0.987162
H347	H	1.512388	0.222020	-0.653829
H348	H	1.845721	0.555354	-0.320496
N349	N	1.093234	-0.638494	-0.294394
N350	N	1.426568	-0.305160	0.038939
N351	N	1.759901	0.028173	0.372272
N352	N	1.134977	-0.606077	-0.256103
N353	N	1.468311	-0.272744	0.077231
N354	N	1.801644	0.060589	0.410564
H355	H	1.168727	-0.627309	-0.225166
H356	H	1.502060	-0.293976	0.108168
H357	H	1.835394	0.039357	0.441501
N358	N	0.904297	-1.053214	-0.467834
N359	N	1.237630	-0.719881	-0.134501
N360	N	1.570964	-0.386548	0.198833
N361	N	0.904327	-1.111910	-0.467843
N362	N	1.237661	-0.778577	-0.134510
N363	N	1.570994	-0.445244	0.198824
H364	H	0.870597	-1.138106	-0.498779
H365	H	1.203931	-0.804772	-0.165445
H366	H	1.537264	-0.471439	0.167888
H367	H	0.728403	-0.219773	-0.451150
H368	H	1.061737	0.113561	-0.117817
H369	H	1.395070	0.446894	0.215516
N370	N	0.743208	-0.366850	-0.279179
N371	N	1.076541	-0.033516	0.054155
N372	N	1.409875	0.299817	0.387488
N373	N	0.808581	-0.364451	-0.281972
N374	N	1.141915	-0.031118	0.051362
N375	N	1.475248	0.302215	0.384695
H376	H	0.836355	-0.391196	-0.250696
H377	H	1.169688	-0.057863	0.082637
H378	H	1.503022	0.275470	0.415970
N379	N	0.904230	-0.920314	-0.467792
N380	N	1.237563	-0.586980	-0.134458
N381	N	1.570897	-0.253647	0.198875
N382	N	0.860610	-0.884326	-0.441168
N383	N	1.193943	-0.550993	-0.107834
N384	N	1.527277	-0.217659	0.225499
H385	H	0.826851	-0.863086	-0.472087
H386	H	1.160184	-0.529752	-0.138754
H387	H	1.493518	-0.196419	0.194580
H388	H	0.595576	-0.224641	-0.445488
H389	H	0.928910	0.108692	-0.112154
H390	H	1.262243	0.442026	0.221179
H391	H	0.262876	-0.200275	-0.474047
H392	H	0.596209	0.133058	-0.140714
H393	H	0.929542	0.466392	0.192619
