data_functionalizedCrystal
_audit_creation_method	'MofGen! by Chris Wilmer'
_symmetry_space_group_name_H-M	'P1'
_symmetry_Int_Tables_number	1
_symmetry_cell_setting	triclinic
loop_
_symmetry_equiv_pos_as_xyz
  x,y,z
_cell_length_a	23.532407
_cell_length_b	9.065218
_cell_length_c	8.140239
_cell_angle_alpha	90.002802
_cell_angle_beta	89.991844
_cell_angle_gamma	96.067719
loop_
_atom_site_label
_atom_site_type_symbol
_atom_site_fract_x
_atom_site_fract_y
_atom_site_fract_z
O1	O	0.083497	-1.956283	-0.136637
O2	O	0.090346	-1.526661	-0.136641
O3	O	0.004085	-1.754427	-0.136609
O4	O	0.169758	-1.728517	-0.136670
O5	O	0.004084	-1.754415	0.136618
O6	O	0.090345	-1.526649	0.136586
O7	O	0.083496	-1.956271	0.136590
Zn8	Zn	0.086921	-1.741458	0.179968
Zn9	Zn	0.086922	-1.741474	-0.180020
O10	O	0.169757	-1.728504	0.136558
C11	C	0.089687	-1.471701	-0.000028
C12	C	0.087719	-1.307955	-0.000028
C13	C	-0.017136	-1.753761	0.000009
C14	C	-0.080368	-1.751778	0.000021
C15	C	0.084155	-2.011231	-0.000027
C16	C	0.086123	-2.174977	-0.000038
C17	C	-0.478573	-1.874123	-0.000068
C18	C	-0.537986	-1.872280	-0.000080
O19	O	-0.573898	-1.985695	-0.000140
N20	N	-0.561607	-1.736873	-0.000080
C21	C	-0.525810	-1.603300	-0.000085
O22	O	-0.551356	-1.487956	-0.000087
C23	C	-0.466397	-1.605144	-0.000084
C24	C	-0.442780	-1.740560	-0.000067
C25	C	-0.454955	-2.009527	-0.000053
C26	C	-0.395546	-2.011370	-0.000037
C27	C	-0.359753	-1.877807	-0.000037
C28	C	-0.383371	-1.742402	-0.000052
C29	C	-0.430601	-1.471573	-0.000100
C30	C	-0.371185	-1.473429	-0.000100
C31	C	-0.347568	-1.608845	-0.000084
C32	C	-0.288169	-1.610682	-0.000035
N33	N	-0.264548	-1.746089	-0.000035
C34	C	-0.300341	-1.879651	-0.000036
C35	C	-0.650581	-1.599437	-0.000089
C36	C	-0.709992	-1.597591	-0.000078
C37	C	-0.722165	-1.866571	-0.000077
C38	C	-0.662752	-1.868416	-0.000076
C39	C	-0.626960	-1.734844	-0.000089
C40	C	-0.175576	-1.883510	-0.000002
C41	C	-0.116160	-1.885340	0.000021
C42	C	-0.103993	-1.616360	0.000011
C43	C	-0.163403	-1.614529	-0.000003
C44	C	-0.199194	-1.748116	-0.000015
O45	O	-0.252222	-1.497326	0.000018
O46	O	-0.274786	-1.994976	-0.000055
C47	C	0.190979	-1.729170	-0.000064
C48	C	0.254210	-1.731154	-0.000087
N49	N	0.086919	-1.741457	0.425651
N50	N	0.086919	-1.741486	-0.425703
H51	H	-0.096935	-1.995617	0.000038
H52	H	-0.376323	-2.121639	-0.000030
H53	H	-0.729215	-1.487322	-0.000063
O54	O	-0.489660	-2.139379	-0.000267
C55	C	-0.478843	-2.221640	-0.141785
H56	H	-0.433976	-2.184716	-0.188974
H57	H	-0.482369	-2.344730	-0.109944
H58	H	-0.511438	-2.201994	-0.240872
O59	O	-0.069194	-1.486665	-0.000284
C60	C	-0.034446	-1.479737	-0.141770
H61	H	-0.055805	-1.555506	-0.240665
H62	H	-0.028378	-1.360819	-0.189287
H63	H	0.008941	-1.517281	-0.109769
H64	H	-0.643528	-1.978683	-0.000064
O65	O	-0.210255	-2.013409	0.000066
C66	C	-0.176659	-2.133301	0.000042
H67	H	-0.132528	-2.095163	0.051774
H68	H	-0.198082	-2.226829	0.079372
H69	H	-0.172201	-2.174859	-0.131034
H70	H	-0.751318	-1.975325	-0.000084
H71	H	-0.182633	-1.504263	0.000029
H72	H	-0.621442	-1.490659	-0.000085
H73	H	-0.342046	-1.364656	-0.000113
O74	O	-0.453439	-1.339898	-0.000197
C75	C	-0.409097	-1.222428	-0.000165
H76	H	-0.368531	-1.263201	-0.051877
H77	H	-0.421992	-1.127839	-0.079509
H78	H	-0.400913	-1.181255	0.130911
