data_functionalizedCrystal
_audit_creation_method	'MofGen! by Chris Wilmer'
_symmetry_space_group_name_H-M	'P1'
_symmetry_Int_Tables_number	1
_symmetry_cell_setting	triclinic
loop_
_symmetry_equiv_pos_as_xyz
  x,y,z
_cell_length_a	27.732048
_cell_length_b	9.065218
_cell_length_c	8.140239
_cell_angle_alpha	89.998314
_cell_angle_beta	90.002785
_cell_angle_gamma	83.829270
loop_
_atom_site_label
_atom_site_type_symbol
_atom_site_fract_x
_atom_site_fract_y
_atom_site_fract_z
O1	O	0.642124	0.175520	-0.136396
O2	O	0.501513	0.202209	-0.136445
O3	O	0.574725	-0.025963	-0.136416
O4	O	0.568912	0.403692	-0.136425
O5	O	0.574721	-0.025965	0.136811
O6	O	0.501509	0.202206	0.136782
O7	O	0.642120	0.175518	0.136831
Zn8	Zn	0.571814	0.188862	0.180188
Zn9	Zn	0.571819	0.188865	-0.179801
O10	O	0.568908	0.403689	0.136802
C11	C	0.574164	-0.080915	0.000195
C12	C	0.572494	-0.244652	0.000186
C13	C	0.483500	0.201647	0.000163
C14	C	0.429834	0.199960	0.000144
C15	C	0.091866	0.324175	0.000213
C16	C	-0.109836	0.317916	0.000227
O17	O	-0.140316	0.431501	0.000296
N18	N	-0.129883	0.182619	0.000227
C19	C	-0.099501	0.048878	0.000234
O20	O	-0.121181	-0.066343	0.000251
C21	C	0.102200	0.055139	0.000231
C22	C	0.122244	0.190444	0.000215
C23	C	0.111911	0.459469	0.000198
C24	C	0.162334	0.461032	0.000185
C25	C	0.192712	0.327301	0.000187
C26	C	0.172667	0.192007	0.000202
C27	C	0.132581	-0.078600	0.000250
C28	C	0.183009	-0.077023	0.000253
C29	C	0.203053	0.058282	0.000237
C30	C	0.253467	0.059840	0.000191
N31	N	0.273514	0.195136	0.000191
C32	C	0.243137	0.328867	0.000189
C33	C	-0.205398	0.045601	0.000232
C34	C	-0.255823	0.044036	0.000230
C35	C	-0.266154	0.313073	0.000227
C36	C	-0.215728	0.314637	0.000217
C37	C	-0.185351	0.180897	0.000233
C38	C	0.349028	0.332140	0.000161
C39	C	0.399456	0.333691	0.000142
C40	C	0.409782	0.064654	0.000154
C41	C	0.359359	0.063102	0.000165
C42	C	0.328983	0.196857	0.000174
O43	O	0.283976	-0.053684	0.000141
O44	O	0.264826	0.444071	0.000209
C45	C	0.041444	0.322611	0.000225
C46	C	0.021399	0.187317	0.000240
C47	C	0.051777	0.053587	0.000242
C48	C	-0.029026	0.185752	0.000238
C49	C	-0.059404	0.319482	0.000236
C50	C	-0.039357	0.454779	0.000236
C51	C	0.011066	0.456342	0.000223
C52	C	0.031730	-0.081710	0.000242
C53	C	-0.018694	-0.083262	0.000252
C54	C	-0.049071	0.050469	0.000250
C55	C	0.660133	0.176079	0.000220
C56	C	0.713799	0.177766	0.000228
C57	C	0.569469	0.458642	0.000188
C58	C	0.571139	0.622378	0.000186
N59	N	0.571813	0.188858	0.425870
N60	N	0.571823	0.188856	-0.425484
H61	H	0.415773	0.443877	0.000128
C62	C	0.442829	-0.080420	-0.000093
C63	C	0.472087	-0.087363	-0.140639
C64	C	0.502541	-0.220973	-0.140899
H65	H	0.423733	-0.161357	-0.000166
H66	H	0.462743	-0.085393	0.095139
H67	H	0.452174	-0.082405	-0.235847
H68	H	0.491192	-0.006457	-0.140597
H69	H	0.522456	-0.225946	-0.045666
H70	H	0.483442	-0.301900	-0.140967
H71	H	0.522399	-0.225695	-0.236249
H72	H	-0.035008	-0.193452	0.000253
C73	C	0.184163	0.607821	0.000411
C74	C	0.212826	0.616581	0.140946
C75	C	0.232947	0.751776	0.141191
H76	H	0.158899	0.687369	0.000490
H77	H	0.203643	0.614025	-0.094829
H78	H	0.193348	0.610392	0.236162
H79	H	0.238099	0.537065	0.140897
H80	H	0.252427	0.757980	0.045950
H81	H	0.207679	0.831313	0.141265
H82	H	0.252401	0.757732	0.236533
H83	H	-0.180668	-0.063313	0.000245
H84	H	-0.064099	0.563667	0.000228
H85	H	0.056459	-0.190612	0.000247
H86	H	0.116270	-0.188780	0.000264
H87	H	0.324301	0.441056	0.000174
C88	C	0.337687	-0.083950	0.000243
C89	C	0.375086	-0.200730	0.000270
C90	C	0.355144	-0.336216	0.000378
H91	H	0.318232	-0.090362	-0.095002
H92	H	0.318250	-0.090239	0.095571
H93	H	0.394515	-0.194444	-0.095048
H94	H	0.394544	-0.194367	0.095509
H95	H	0.335707	-0.342504	0.095705
H96	H	0.335689	-0.342613	-0.094869
H97	H	0.380516	-0.415467	0.000411
H98	H	0.087182	0.568374	0.000202
H99	H	0.207740	-0.185933	0.000267
H100	H	-0.199412	0.424814	0.000213
C101	C	-0.299117	0.458317	-0.000103
C102	C	-0.289986	0.539860	-0.140684
C103	C	-0.320348	0.673649	-0.141042
H104	H	-0.293004	0.514011	0.095072
H105	H	-0.332025	0.438058	-0.000190
H106	H	-0.257085	0.560123	-0.140582
H107	H	-0.296102	0.484212	-0.235882
H108	H	-0.353256	0.653390	-0.141128
H109	H	-0.314232	0.729329	-0.045860
H110	H	-0.314160	0.728986	-0.236430
C111	C	-0.277648	-0.102760	0.000481
C112	C	-0.306303	-0.111513	0.141028
C113	C	-0.326420	-0.246715	0.141312
H114	H	-0.252382	-0.182301	0.000569
H115	H	-0.297133	-0.108981	-0.094751
H116	H	-0.286820	-0.105306	0.236235
H117	H	-0.331578	-0.032003	0.140970
H118	H	-0.345904	-0.252936	0.046080
H119	H	-0.301150	-0.326245	0.141396
H120	H	-0.345868	-0.252665	0.236663
H121	H	0.027381	0.566521	0.000212
