data_functionalizedCrystal
_audit_creation_method	'MofGen! by Chris Wilmer'
_symmetry_space_group_name_H-M	'P1'
_symmetry_Int_Tables_number	1
_symmetry_cell_setting	triclinic
loop_
_symmetry_equiv_pos_as_xyz
  x,y,z
_cell_length_a	17.699104
_cell_length_b	14.519709
_cell_length_c	16.776229
_cell_angle_alpha	89.992406
_cell_angle_beta	89.991971
_cell_angle_gamma	83.485831
loop_
_atom_site_label
_atom_site_type_symbol
_atom_site_fract_x
_atom_site_fract_y
_atom_site_fract_z
O1	O	1.004403	0.116716	-0.066306
O2	O	0.784070	0.131869	-0.066304
O3	O	0.900078	-0.009970	-0.066298
O4	O	0.888394	0.258555	-0.066312
O5	O	0.900063	-0.009979	0.066278
O6	O	0.784054	0.131860	0.066272
O7	O	1.004387	0.116707	0.066270
Zn8	Zn	0.894218	0.124282	0.087321
Zn9	Zn	0.894239	0.124294	-0.087355
O10	O	0.888379	0.258546	0.066264
C11	C	0.755864	0.131318	-0.000016
C12	C	0.671842	0.129679	-0.000015
C13	C	0.899526	-0.044332	-0.000010
C14	C	0.897894	-0.146707	-0.000009
C15	C	0.147183	0.203695	-0.000027
C16	C	0.226131	0.205229	-0.000030
C17	C	0.274510	0.121964	-0.000025
C18	C	0.243938	0.037159	-0.000026
C19	C	0.164991	0.035626	-0.000029
C20	C	0.562321	0.043340	-0.000014
C21	C	0.641273	0.044880	-0.000008
C22	C	0.623461	0.212943	-0.000014
C23	C	0.544515	0.211410	-0.000017
C24	C	0.513949	0.126606	-0.000022
C25	C	0.428344	0.124944	-0.000021
C26	C	0.360113	0.123625	-0.000020
C27	C	0.891887	-0.521578	-0.000030
C28	C	0.893555	-0.417277	-0.000024
C29	C	0.894891	-0.334146	-0.000019
C30	C	0.896559	-0.229838	-0.000014
C31	C	1.032593	0.117258	-0.000020
C32	C	1.116615	0.118896	-0.000026
C33	C	0.888931	0.292908	-0.000026
C34	C	0.890563	0.395283	-0.000032
N35	N	0.894210	0.124274	0.206532
N36	N	0.894253	0.124295	-0.206566
C37	C	0.945594	0.061493	0.248252
C38	C	0.945598	0.061492	0.331704
C39	C	0.894221	0.124277	0.373435
C40	C	0.842832	0.187061	0.331709
C41	C	0.842825	0.187057	0.248258
C42	C	0.842859	0.187079	0.668256
C43	C	0.842872	0.187081	0.751713
C44	C	0.945633	0.061515	0.751702
C45	C	0.945626	0.061510	0.668251
C46	C	0.894234	0.124290	0.626533
C47	C	0.894229	0.124289	0.536044
C48	C	0.894229	0.124284	0.463922
H49	H	0.251015	0.274280	-0.000038
C50	C	0.786337	0.256140	0.622369
C51	C	0.729847	0.325233	0.668267
C52	C	0.673324	0.394298	0.622373
C53	C	0.673291	0.394270	0.530581
C54	C	0.729784	0.325175	0.484677
C55	C	0.786307	0.256110	0.530571
H56	H	0.729869	0.325256	0.736222
H57	H	0.631505	0.445447	0.656355
H58	H	0.631450	0.445397	0.496608
H59	H	0.729761	0.325152	0.416722
H60	H	0.828126	0.204961	0.496590
C61	C	0.786302	0.256119	0.202364
C62	C	0.729815	0.325214	0.248263
C63	C	0.673287	0.394275	0.202370
C64	C	0.673248	0.394241	0.110578
C65	C	0.729738	0.325143	0.064673
C66	C	0.786265	0.256082	0.110566
H67	H	0.729842	0.325241	0.316218
H68	H	0.631470	0.445425	0.236353
H69	H	0.631403	0.445364	0.076605
H70	H	0.729711	0.325115	-0.003281
H71	H	0.828082	0.204931	0.076584
H72	H	0.107797	0.271499	-0.000025
H73	H	0.987477	0.010393	0.785678
H74	H	0.801032	0.238209	0.785689
C75	C	1.002123	-0.007562	0.377600
C76	C	1.058660	-0.076603	0.331705
C77	C	1.115186	-0.145660	0.377603
C78	C	1.115176	-0.145677	0.469395
C79	C	1.058637	-0.076634	0.515295
C80	C	1.002111	-0.007577	0.469398
H81	H	1.058669	-0.076592	0.263750
H82	H	1.157039	-0.196770	0.343624
H83	H	1.157020	-0.196798	0.503371
H84	H	1.058627	-0.076645	0.583250
H85	H	0.960257	0.043533	0.503376
H86	H	0.987464	0.010388	0.634277
H87	H	0.800996	0.238179	0.365691
H88	H	0.505127	0.279213	-0.000017
C89	C	0.694492	-0.046717	-0.000010
C90	C	0.690974	-0.116271	0.068828
C91	C	0.744193	-0.207863	0.068827
C92	C	0.800931	-0.229901	-0.000012
C93	C	0.804452	-0.160345	-0.068855
C94	C	0.751232	-0.068753	-0.068854
H95	H	0.648971	-0.099959	0.119792
H96	H	0.741587	-0.259353	0.119790
H97	H	0.840327	-0.297702	-0.000013
H98	H	0.846454	-0.176657	-0.119819
H99	H	0.753839	-0.017264	-0.119817
C100	C	0.528705	-0.049942	-0.000020
C101	C	0.581923	-0.141528	-0.000014
C102	C	0.548304	-0.234815	-0.000023
C103	C	0.461467	-0.236515	-0.000037
C104	C	0.408244	-0.144925	-0.000042
C105	C	0.441863	-0.051638	-0.000034
H106	H	0.646210	-0.140273	-0.000004
H107	H	0.587703	-0.302616	-0.000019
H108	H	0.436580	-0.305572	-0.000043
H109	H	0.343957	-0.146181	-0.000053
H110	H	0.402464	0.016163	-0.000038
C111	C	0.131362	-0.057653	-0.000025
C112	C	0.149547	-0.126775	0.068823
C113	C	0.115920	-0.220056	0.068824
C114	C	0.064107	-0.244217	-0.000023
C115	C	0.045920	-0.175093	-0.068875
C116	C	0.079548	-0.081812	-0.068876
H117	H	0.187904	-0.108892	0.119792
H118	H	0.129383	-0.271226	0.119794
H119	H	0.039214	-0.313269	-0.000022
H120	H	0.007564	-0.192977	-0.119844
H121	H	0.066084	-0.030642	-0.119846
H122	H	0.648357	0.281995	-0.000013
H123	H	0.987434	0.010370	0.214280
H124	H	0.283334	-0.030637	-0.000027
