data_functionalizedCrystal
_audit_creation_method	'MofGen! by Chris Wilmer'
_symmetry_space_group_name_H-M	'P1'
_symmetry_Int_Tables_number	1
_symmetry_cell_setting	triclinic
loop_
_symmetry_equiv_pos_as_xyz
  x,y,z
_cell_length_a	10.723024
_cell_length_b	23.532409
_cell_length_c	9.198806
_cell_angle_alpha	89.999886
_cell_angle_beta	89.996352
_cell_angle_gamma	83.658715
loop_
_atom_site_label
_atom_site_type_symbol
_atom_site_fract_x
_atom_site_fract_y
_atom_site_fract_z
O1	O	1.654701	0.079871	-0.120872
O2	O	1.291310	0.087516	-0.120876
O3	O	1.483962	0.000833	-0.120876
O4	O	1.462049	0.166554	-0.120872
O5	O	1.483947	0.000833	0.120909
O6	O	1.291295	0.087516	0.120909
O7	O	1.654686	0.079870	0.120913
Cu8	Cu	1.472989	0.083693	0.142988
Cu9	Cu	1.473007	0.083693	-0.142951
O10	O	1.462034	0.166554	0.120913
C11	C	1.244821	0.086959	0.000016
C12	C	1.106318	0.085295	0.000014
C13	C	1.029825	0.133798	0.000014
C14	C	0.886675	0.132079	0.000012
C15	C	1.483396	-0.020387	0.000013
C16	C	1.481717	-0.083615	0.000003
C17	C	1.474585	-0.356906	-0.131801
C18	C	1.476145	-0.297496	-0.131801
O19	O	1.477002	-0.266765	-0.243885
N20	N	1.476908	-0.267789	-0.000002
C21	C	1.476125	-0.297496	0.131806
O22	O	1.476919	-0.266773	0.243912
C23	C	1.474575	-0.356906	0.131805
C24	C	1.473799	-0.386609	-0.000003
C25	C	1.473811	-0.386609	-0.263598
C26	C	1.472249	-0.446016	-0.263597
C27	C	1.471463	-0.475718	-0.131799
C28	C	1.472237	-0.446015	-0.000002
C29	C	1.473801	-0.386612	0.263611
C30	C	1.472252	-0.446026	0.263599
C31	C	1.471475	-0.475729	0.131791
C32	C	1.469889	-0.535124	0.131797
N33	N	1.469126	-0.564831	-0.000003
C34	C	1.469913	-0.535128	-0.131801
C35	C	1.479383	-0.172732	0.131799
C36	C	1.480924	-0.113322	0.131801
C37	C	1.480946	-0.113327	-0.131806
C38	C	1.479396	-0.172736	-0.131808
C39	C	1.478619	-0.202439	-0.000001
C40	C	1.466632	-0.659885	-0.131789
C41	C	1.465066	-0.719296	-0.131776
C42	C	1.465051	-0.719287	0.131831
C43	C	1.466611	-0.659881	0.131819
C44	C	1.467406	-0.630182	-0.000002
O45	O	1.469037	-0.565892	0.243823
O46	O	1.469135	-0.565859	-0.243887
C47	C	1.701176	0.080427	0.000018
C48	C	1.839678	0.082092	0.000010
C49	C	1.462600	0.187773	0.000021
C50	C	1.464279	0.251001	0.000022
N51	N	1.472986	0.083693	0.344102
N52	N	1.473021	0.083689	-0.344065
C53	C	1.553880	0.047136	0.416299
C54	C	1.553899	0.047134	0.583711
H55	H	1.065829	0.042497	-0.000024
Cl56	Cl	0.785207	0.196190	0.000001
Cl57	Cl	1.092326	0.199879	0.000020
H58	H	0.905396	0.040567	0.000001
H59	H	1.464429	-0.743478	-0.239115
Cl60	Cl	1.467629	-0.622558	-0.297510
Cl61	Cl	1.366069	0.132010	0.440013
Cl62	Cl	1.660838	-0.001186	0.679562
Cl63	Cl	1.478424	-0.210071	-0.297515
H64	H	1.471626	-0.470195	-0.370929
Cl65	Cl	1.474799	-0.349280	-0.429310
Cl66	Cl	1.464052	-0.756638	0.297511
H67	H	1.403765	0.114990	0.593858
Cl68	Cl	1.481870	-0.075987	0.297510
Cl69	Cl	1.481910	-0.075973	-0.297497
Cl70	Cl	1.478391	-0.210065	0.297516
Cl71	Cl	1.660509	-0.001313	0.320389
Cl72	Cl	1.474762	-0.349285	0.429324
H73	H	1.471620	-0.470207	0.370935
Cl74	Cl	1.467585	-0.622539	0.297522
