data_functionalizedCrystal
_audit_creation_method	'MofGen! by Chris Wilmer'
_symmetry_space_group_name_H-M	'P1'
_symmetry_Int_Tables_number	1
_symmetry_cell_setting	triclinic
loop_
_symmetry_equiv_pos_as_xyz
  x,y,z
_cell_length_a	25.639242
_cell_length_b	25.639240
_cell_length_c	17.077396
_cell_angle_alpha	90.038257
_cell_angle_beta	90.020548
_cell_angle_gamma	90.025061
loop_
_atom_site_label
_atom_site_type_symbol
_atom_site_fract_x
_atom_site_fract_y
_atom_site_fract_z
Zn1	Zn	0.799279	-0.208258	0.443811
Zn2	Zn	0.799202	-0.295696	0.312523
Zn3	Zn	0.711845	-0.208264	0.312557
Zn4	Zn	0.711809	-0.295653	0.443744
O5	O	0.755534	-0.251968	0.378159
O6	O	0.872434	-0.219872	0.426409
O7	O	0.787597	-0.284118	0.202680
O8	O	0.723491	-0.135098	0.330010
O9	O	0.872377	-0.284112	0.329952
O10	O	0.787728	-0.135094	0.426442
O11	O	0.723416	-0.219883	0.202705
O12	O	0.638675	-0.219841	0.329945
O13	O	0.723429	-0.284039	0.553600
O14	O	0.638649	-0.284045	0.426328
O15	O	0.787693	-0.219831	0.553649
O16	O	0.787561	-0.368855	0.329887
O17	O	0.723354	-0.368824	0.426295
C18	C	0.619691	-0.251939	0.378133
C19	C	0.561577	-0.251940	0.378141
C20	C	0.310421	-0.218577	0.428475
C21	C	0.365025	-0.218572	0.428471
O22	O	0.393294	-0.190183	0.471262
N23	N	0.392303	-0.251962	0.378168
C24	C	0.364974	-0.285362	0.327871
O25	O	0.393190	-0.313763	0.285084
C26	C	0.310370	-0.285370	0.327880
C27	C	0.283096	-0.251974	0.378181
C28	C	0.283146	-0.185185	0.478773
C29	C	0.228546	-0.185190	0.478776
C30	C	0.201220	-0.218587	0.428482
C31	C	0.228495	-0.251979	0.378184
C32	C	0.283042	-0.318772	0.277588
C33	C	0.228435	-0.318777	0.277602
C34	C	0.201160	-0.285382	0.327903
C35	C	0.146569	-0.285380	0.327893
N36	N	0.119291	-0.251991	0.378197
C37	C	0.146617	-0.218594	0.428491
C38	C	0.479644	-0.285345	0.327857
C39	C	0.534247	-0.285335	0.327843
C40	C	0.534295	-0.218546	0.428445
C41	C	0.479691	-0.218553	0.428454
C42	C	0.452367	-0.251955	0.378160
C43	C	0.031952	-0.218606	0.428493
C44	C	-0.022654	-0.218612	0.428490
C45	C	-0.022697	-0.285403	0.327892
C46	C	0.031904	-0.285395	0.327892
C47	C	0.059227	-0.251995	0.378199
O48	O	0.118266	-0.313756	0.285127
O49	O	0.118394	-0.190203	0.471278
C50	C	0.755460	-0.387810	0.378097
C51	C	0.755476	-0.445924	0.378097
C52	C	0.788998	-0.806247	0.428461
C53	C	0.789014	-0.860851	0.428477
O54	O	0.817428	-0.889053	0.471236
N55	N	0.755606	-0.888207	0.378235
C56	C	0.722177	-0.860956	0.327978
O57	O	0.693763	-0.889238	0.285245
C58	C	0.722160	-0.806352	0.327967
C59	C	0.755573	-0.778999	0.378207
C60	C	0.822409	-0.778893	0.478698
C61	C	0.822394	-0.724293	0.478681
C62	C	0.788969	-0.697045	0.428427
C63	C	0.755558	-0.724399	0.378190
C64	C	0.688728	-0.779102	0.277715
C65	C	0.688713	-0.724495	0.277708
C66	C	0.722127	-0.697142	0.327949
C67	C	0.722118	-0.642551	0.327919
N68	N	0.755526	-0.615195	0.378161
C69	C	0.788951	-0.642442	0.428416
C70	C	0.722216	-0.975626	0.328007
C71	C	0.722236	-1.030229	0.328014
C72	C	0.789072	-1.030120	0.428514
C73	C	0.789054	-0.975517	0.428503
C74	C	0.755624	-0.948270	0.378250
C75	C	0.788918	-0.527777	0.428375
C76	C	0.788901	-0.473172	0.428351
C77	C	0.722064	-0.473285	0.327854
C78	C	0.722082	-0.527886	0.327875
C79	C	0.755510	-0.555130	0.378142
O80	O	0.693717	-0.614314	0.285184
O81	O	0.817356	-0.614153	0.471149
C82	C	0.891907	-0.251996	0.378185
C83	C	0.950021	-0.252009	0.378196
C84	C	0.755565	-0.251929	0.582903
C85	C	0.755579	-0.251913	0.670153
C86	C	0.755622	-0.115595	0.378238
C87	C	0.755660	-0.057481	0.378271
C88	C	0.755532	-0.251968	0.174211
C89	C	0.755620	-0.251838	0.086962
C90	C	0.789042	-0.218477	0.711170
C91	C	0.789048	-0.218459	0.793151
C92	C	0.755594	-0.251881	0.834112
C93	C	0.722127	-0.285319	0.793090
C94	C	0.722118	-0.285333	0.711111
C95	C	0.722148	-0.285287	0.963960
C96	C	0.722157	-0.285274	1.045944
C97	C	0.789078	-0.218414	1.046000
C98	C	0.789069	-0.218428	0.964021
C99	C	0.755603	-0.251866	0.923003
H100	H	0.556449	-0.312523	0.286875
H101	H	-0.044859	-0.191415	0.469451
H102	H	0.816288	-1.052315	0.469435
C103	C	0.825693	-0.557739	0.483661
H104	H	0.845590	-0.533621	0.513568
H105	H	0.805693	-0.579036	0.517847
H106	H	0.848494	-0.579037	0.453664
H107	H	0.816286	-0.191262	0.677825
C108	C	0.825860	-0.181682	0.838266
H109	H	0.845788	-0.161785	0.802130
H110	H	0.805881	-0.158889	0.870254
H111	H	0.848632	-0.201687	0.870240
H112	H	0.694995	-0.953445	0.287078
C113	C	0.825896	-0.181638	1.091115
H114	H	0.821109	-0.186413	1.145805
H115	H	0.861016	-0.189309	1.077681
H116	H	0.818272	-0.146505	1.077702
H117	H	0.694851	-0.451092	0.286935
C118	C	0.685322	-0.322125	0.665992
H119	H	0.665405	-0.342035	0.702127
H120	H	0.662547	-0.302137	0.634008
H121	H	0.705318	-0.344914	0.634014
H122	H	0.816314	-0.191216	0.930672
H123	H	0.694888	-0.312508	0.930566
C124	C	0.198550	-0.148460	0.534116
H125	H	0.222651	-0.128576	0.564070
H126	H	0.177246	-0.125652	0.504167
H127	H	0.177256	-0.168495	0.568268
C128	C	0.651969	-0.809179	0.222455
H129	H	0.632058	-0.785123	0.192537
H130	H	0.671980	-0.830486	0.188278
H131	H	0.629180	-0.830476	0.252464
H132	H	0.457400	-0.312544	0.286896
C133	C	0.313196	-0.148442	0.534097
H134	H	0.289124	-0.128557	0.564045
H135	H	0.334504	-0.168461	0.568245
H136	H	0.334491	-0.125629	0.504127
H137	H	0.661488	-0.702314	0.236787
H138	H	0.694914	-0.312487	1.079293
C139	C	0.198379	-0.355520	0.222279
H140	H	0.161952	-0.350746	0.229486
H141	H	0.207316	-0.347825	0.169559
H142	H	0.207320	-0.390659	0.233675
H143	H	0.694885	-0.312529	0.826447
C144	C	0.313033	-0.355511	0.222260
H145	H	0.288931	-0.375403	0.192320
H146	H	0.334331	-0.335486	0.188106
H147	H	0.334332	-0.378318	0.252224
C148	C	0.061907	-0.322132	0.272567
H149	H	0.037811	-0.342025	0.242619
H150	H	0.083212	-0.302109	0.238420
H151	H	0.083201	-0.344938	0.302542
H152	H	0.054191	-0.191408	0.469458
H153	H	0.457488	-0.191359	0.469412
C154	C	0.859143	-0.694209	0.533952
H155	H	0.854353	-0.657785	0.526751
H156	H	0.851470	-0.703138	0.586682
H157	H	0.894281	-0.703140	0.522513
H158	H	-0.044955	-0.312592	0.286941
C159	C	0.564357	-0.181811	0.483774
H160	H	0.540296	-0.161921	0.513732
H161	H	0.585662	-0.201841	0.517910
H162	H	0.585656	-0.159001	0.453804
C163	C	0.825653	-0.443086	0.483625
H164	H	0.845556	-0.467137	0.513563
H165	H	0.848442	-0.421785	0.453630
H166	H	0.805628	-0.421783	0.517795
H167	H	0.694878	-0.550158	0.286959
C168	C	0.859183	-0.808857	0.533978
H169	H	0.879078	-0.784739	0.563887
H170	H	0.839184	-0.830157	0.568164
H171	H	0.881986	-0.830153	0.503981
H172	H	0.816262	-0.953249	0.469413
H173	H	0.695033	-1.052495	0.287094
