data_functionalizedCrystal
_audit_creation_method	'MofGen! by Chris Wilmer'
_symmetry_space_group_name_H-M	'P1'
_symmetry_Int_Tables_number	1
_symmetry_cell_setting	triclinic
loop_
_symmetry_equiv_pos_as_xyz
  x,y,z
_cell_length_a	16.176319
_cell_length_b	10.654550
_cell_length_c	10.654558
_cell_angle_alpha	95.513436
_cell_angle_beta	90.005834
_cell_angle_gamma	89.989082
loop_
_atom_site_label
_atom_site_type_symbol
_atom_site_fract_x
_atom_site_fract_y
_atom_site_fract_z
O1	O	0.068813	-1.667851	0.176401
O2	O	0.068799	-1.302373	0.193207
O3	O	0.068803	-1.493510	0.002066
O4	O	0.068809	-1.476715	0.367543
O5	O	-0.068690	-1.493483	0.002053
O6	O	-0.068694	-1.302347	0.193195
O7	O	-0.068680	-1.667825	0.176389
Cu8	Cu	-0.081241	-1.485083	0.184791
Cu9	Cu	0.081360	-1.485115	0.184805
O10	O	-0.068684	-1.476688	0.367530
C11	C	0.000051	-1.255562	0.191967
C12	C	0.000046	-1.116119	0.188275
N13	N	-0.195607	-1.485070	0.184779
C14	C	0.000057	-1.492261	-0.044738
C15	C	0.000059	-1.488565	-0.184181
C16	C	-0.238869	-1.569732	0.100177
C17	C	-0.325416	-1.569738	0.100176
C18	C	-0.368699	-1.485088	0.184784
C19	C	-0.325430	-1.400418	0.269390
C20	C	-0.238885	-1.400406	0.269385
C21	C	-0.674459	-1.400461	0.269414
C22	C	-0.761010	-1.400481	0.269416
C23	C	-0.760990	-1.569793	0.100206
C24	C	-0.674445	-1.569781	0.100200
C25	C	-0.631183	-1.485107	0.184801
C26	C	-0.537339	-1.485099	0.184800
C27	C	-0.462542	-1.485101	0.184792
N28	N	0.195725	-1.485138	0.184807
C29	C	0.000070	-1.714636	0.177629
C30	C	0.000080	-1.854079	0.181321
C31	C	0.000060	-1.036636	0.300816
C32	C	0.000074	-0.905615	0.297340
C33	C	0.000064	-0.933572	0.068771
C34	C	0.000044	-1.064590	0.072249
C35	C	0.000070	-1.020494	0.432779
C36	C	0.000084	-0.889474	0.429302
C37	C	-0.074887	-1.486812	-0.249701
C38	C	-0.074884	-1.483350	-0.380724
C39	C	0.075019	-1.483390	-0.380694
C40	C	0.075015	-1.486861	-0.249675
C41	C	-0.161432	-1.486783	-0.249719
C42	C	-0.161429	-1.483321	-0.380742
C43	C	0.000064	-1.477937	0.414334
C44	C	0.000067	-1.481633	0.553777
H45	H	-0.203634	-1.638669	0.031285
H46	H	-0.639242	-1.331518	0.338302
H47	H	-0.360640	-1.638675	0.031285
H48	H	-0.194662	-1.575449	-0.224897
H49	H	0.136043	-1.488306	-0.196335
H50	H	-0.639206	-1.638715	0.031308
Br51	Br	-0.819705	-1.684709	-0.014615
H52	H	0.000075	-0.891601	-0.025694
Br53	Br	-0.819752	-1.285593	0.384250
H54	H	-0.360676	-1.331488	0.338276
H55	H	-0.059275	-0.843792	0.469177
H56	H	-0.188287	-1.397332	-0.198019
H57	H	0.057630	-0.847754	0.479029
Br58	Br	-0.095832	-1.069378	0.518798
H59	H	0.136045	-1.482003	-0.434035
H60	H	-0.188286	-1.572760	-0.432449
H61	H	-0.203661	-1.331465	0.338275
Br62	Br	0.000001	-1.172458	-0.080491
Br63	Br	0.099009	-1.079958	0.502815
Br64	Br	-0.216812	-1.335516	-0.422157
