data_functionalizedCrystal
_audit_creation_method	'MofGen! by Chris Wilmer'
_symmetry_space_group_name_H-M	'P1'
_symmetry_Int_Tables_number	1
_symmetry_cell_setting	triclinic
loop_
_symmetry_equiv_pos_as_xyz
  x,y,z
_cell_length_a	11.169416
_cell_length_b	13.033293
_cell_length_c	11.169409
_cell_angle_alpha	82.788591
_cell_angle_beta	89.969126
_cell_angle_gamma	97.180672
loop_
_atom_site_label
_atom_site_type_symbol
_atom_site_fract_x
_atom_site_fract_y
_atom_site_fract_z
Zn1	Zn	-0.244860	1.597832	-0.912094
Zn2	Zn	-0.445614	1.597736	-0.711402
Zn3	Zn	-0.270400	1.423056	-0.685883
Zn4	Zn	-0.470968	1.423063	-0.886516
O5	O	-0.357960	1.510422	-0.798974
O6	O	-0.250191	1.744065	-0.906855
O7	O	-0.422449	1.574521	-0.540060
O8	O	-0.099056	1.446278	-0.715915
O9	O	-0.397684	1.743994	-0.759408
O10	O	-0.080292	1.574685	-0.882111
O11	O	-0.293720	1.446185	-0.521312
O12	O	-0.318305	1.276811	-0.691113
O13	O	-0.440897	1.446289	-1.057865
O14	O	-0.465662	1.276816	-0.838518
O15	O	-0.274776	1.574692	-1.076657
O16	O	-0.616933	1.574527	-0.734607
O17	O	-0.635560	1.446196	-0.863263
C18	C	-0.397507	1.238894	-0.759272
C19	C	-0.414454	1.122733	-0.742316
C20	C	-0.349146	1.070980	-0.807823
C21	C	-0.366660	0.950921	-0.790300
C22	C	-0.669791	1.510380	-0.798958
C23	C	-0.803180	1.510458	-0.799006
C24	C	-0.044908	1.510492	-0.799019
C25	C	0.088497	1.510522	-0.799039
C26	C	-0.357815	1.510502	-1.112028
C27	C	-0.357754	1.510536	-1.245433
C28	C	-0.318260	1.783010	-0.838831
C29	C	-0.301342	1.899171	-0.855816
C30	C	-0.358009	1.510402	-0.487146
C31	C	-0.357704	1.510570	-0.353771
H32	H	-0.483330	1.078158	-0.673257
O33	O	-0.210096	0.958193	-0.947303
H34	H	-0.210663	1.043229	-0.946720
O35	O	-0.257896	1.130013	-0.899292
H36	H	-0.281595	1.109162	-0.990432
H37	H	-0.435541	0.906351	-0.721236
