data_functionalizedCrystal
_audit_creation_method	'MofGen! by Chris Wilmer'
_symmetry_space_group_name_H-M	'P1'
_symmetry_Int_Tables_number	1
_symmetry_cell_setting	triclinic
loop_
_symmetry_equiv_pos_as_xyz
  x,y,z
_cell_length_a	6.817900
_cell_length_b	17.982959
_cell_length_c	9.514088
_cell_angle_alpha	91.864726
_cell_angle_beta	118.843545
_cell_angle_gamma	102.451857
loop_
_atom_site_label
_atom_site_type_symbol
_atom_site_fract_x
_atom_site_fract_y
_atom_site_fract_z
V1	V	-4.212572	-0.106765	-0.501422
O2	O	-4.201534	0.003741	-0.491187
O3	O	-4.158024	-0.210360	-0.498657
O4	O	-4.247398	-0.105733	-0.719807
O5	O	-4.111541	-0.101611	-0.268506
V6	V	-4.686213	-0.093475	-0.473483
O7	O	-4.495509	-0.135917	-0.562709
O8	O	-4.853474	-0.064323	-0.412196
O9	O	-4.517555	0.010120	-0.476249
O10	O	-4.814648	-0.203981	-0.483718
O11	O	-4.904641	-0.098629	-0.706399
O12	O	-4.428181	-0.094508	-0.255098
C13	C	-3.998836	-0.235596	-0.490918
C14	C	-4.036078	-0.320290	-0.490112
C15	C	-4.238553	-0.363982	-0.497769
C16	C	-4.273540	-0.443562	-0.497022
C17	C	-4.106042	-0.479448	-0.488606
C18	C	-3.903553	-0.435750	-0.480953
C19	C	-3.868576	-0.356173	-0.481712
C20	C	-4.044607	-0.756678	-0.477894
C21	C	-4.079597	-0.836261	-0.477130
C22	C	-4.449571	-0.844067	-0.493204
C23	C	-4.414595	-0.764489	-0.493963
C24	C	-4.212116	-0.720800	-0.486318
C25	C	-4.174183	-0.634510	-0.487132
C26	C	-4.143964	-0.565735	-0.487780
C27	C	-4.112839	-0.102132	-0.773015
C28	C	-4.222556	-0.101973	-0.951550
C29	C	-4.340083	0.035351	-0.483983
C30	C	-4.282083	0.120045	-0.484799
C31	C	-4.226078	-0.098111	-0.201882
C32	C	-4.095600	-0.098266	-0.023345
H33	H	-4.550988	-0.735275	-0.500808
H34	H	-3.767181	-0.464976	-0.474110
O35	O	-4.477729	-0.106008	-1.051038
H36	H	-4.526756	-0.105235	-1.180356
O37	O	-3.840438	-0.094221	-0.923836
H38	H	-3.805557	-0.144575	-0.969476
H39	H	-4.374945	-0.334769	-0.504607
H40	H	-4.614445	-0.879649	-0.499431
H41	H	-3.943195	-0.865477	-0.470287
H42	H	-3.703706	-0.320600	-0.475483
O43	O	-4.491908	-0.490688	-0.505257
H44	H	-4.602485	-0.452363	-0.511208
H45	H	-3.879735	-0.721114	-0.471659
