data_functionalizedCrystal
_audit_creation_method	'MofGen! by Chris Wilmer'
_symmetry_space_group_name_H-M	'P1'
_symmetry_Int_Tables_number	1
_symmetry_cell_setting	triclinic
loop_
_symmetry_equiv_pos_as_xyz
  x,y,z
_cell_length_a	12.759400
_cell_length_b	12.759401
_cell_length_c	12.759393
_cell_angle_alpha	89.977503
_cell_angle_beta	90.029805
_cell_angle_gamma	89.984534
loop_
_atom_site_label
_atom_site_type_symbol
_atom_site_fract_x
_atom_site_fract_y
_atom_site_fract_z
Zn1	Zn	-0.418192	-1.606267	0.594069
Zn2	Zn	-0.084859	-1.272933	0.927402
Zn3	Zn	0.248474	-0.939600	1.260736
Zn4	Zn	-0.593908	-1.606158	0.418391
Zn5	Zn	-0.260575	-1.272825	0.751724
Zn6	Zn	0.072759	-0.939491	1.085058
Zn7	Zn	-0.418246	-1.430566	0.418399
Zn8	Zn	-0.084913	-1.097232	0.751733
Zn9	Zn	0.248421	-0.763899	1.085066
Zn10	Zn	-0.593832	-1.430558	0.594024
Zn11	Zn	-0.260499	-1.097224	0.927357
Zn12	Zn	0.072834	-0.763891	1.260690
O13	O	-0.506045	-1.518387	0.506221
O14	O	-0.172711	-1.185054	0.839554
O15	O	0.160622	-0.851720	1.172887
O16	O	-0.441511	-1.753273	0.570780
O17	O	-0.108177	-1.419940	0.904114
O18	O	0.225156	-1.086607	1.237447
O19	O	-0.570660	-1.582823	0.271371
O20	O	-0.237327	-1.249490	0.604704
O21	O	0.096007	-0.916156	0.938038
O22	O	-0.271218	-1.453921	0.441725
O23	O	0.062115	-1.120588	0.775058
O24	O	0.395449	-0.787255	1.108391
O25	O	-0.570608	-1.753193	0.441711
O26	O	-0.237275	-1.419860	0.775044
O27	O	0.096059	-1.086527	1.108377
O28	O	-0.271178	-1.583008	0.570788
O29	O	0.062155	-1.249675	0.904122
O30	O	0.395488	-0.916342	1.237455
O31	O	-0.441602	-1.453816	0.271377
O32	O	-0.108269	-1.120483	0.604710
O33	O	0.225065	-0.787149	0.938044
O34	O	-0.441529	-1.283543	0.441681
O35	O	-0.108196	-0.950210	0.775014
O36	O	0.225138	-0.616877	1.108347
O37	O	-0.570479	-1.453908	0.741051
O38	O	-0.237146	-1.120575	1.074384
O39	O	0.096187	-0.787241	1.407717
O40	O	-0.570531	-1.283538	0.570711
O41	O	-0.237198	-0.950204	0.904044
O42	O	0.096135	-0.616871	1.237378
O43	O	-0.441437	-1.583001	0.741084
O44	O	-0.108104	-1.249667	1.074417
O45	O	0.225229	-0.916334	1.407751
O46	O	-0.740919	-1.582815	0.441667
O47	O	-0.407586	-1.249482	0.775000
O48	O	-0.074252	-0.916149	1.108333
O49	O	-0.740863	-1.453803	0.570703
O50	O	-0.407530	-1.120469	0.904036
O51	O	-0.074197	-0.787136	1.237370
C52	C	-0.506029	-1.245420	0.506192
C53	C	-0.172695	-0.912086	0.839526
C54	C	0.160638	-0.578753	1.172859
C55	C	-0.506047	-1.128643	0.506205
C56	C	-0.172714	-0.795310	0.839539
C57	C	0.160620	-0.461976	1.172872
C58	C	-0.573320	-1.073805	0.573284
C59	C	-0.239987	-0.740472	0.906617
C60	C	0.093347	-0.407139	1.239951
C61	C	-0.573323	-0.964081	0.573302
C62	C	-0.239989	-0.630748	0.906635
C63	C	0.093344	-0.297415	1.239969
C64	C	-0.438776	-0.964042	0.439153
C65	C	-0.105443	-0.630709	0.772486
C66	C	0.227890	-0.297375	1.105820
C67	C	-0.438769	-1.073764	0.439141
C68	C	-0.105436	-0.740431	0.772475
C69	C	0.227898	-0.407097	1.105808
C70	C	-0.779012	-1.518325	0.506202
C71	C	-0.445679	-1.184991	0.839535
C72	C	-0.112345	-0.851658	1.172869
C73	C	-0.895789	-1.518394	0.506229
C74	C	-0.562455	-1.185061	0.839563
C75	C	-0.229122	-0.851728	1.172896
C76	C	-0.950540	-1.585581	0.573490
C77	C	-0.617207	-1.252247	0.906823
C78	C	-0.283874	-0.918914	1.240156
C79	C	-1.060264	-1.585640	0.573518
C80	C	-0.726931	-1.252306	0.906852
C81	C	-0.393598	-0.918973	1.240185
C82	C	-1.060476	-1.451323	0.439017
C83	C	-0.727142	-1.117990	0.772350
C84	C	-0.393809	-0.784656	1.105683
C85	C	-0.950754	-1.451260	0.438994
C86	C	-0.617420	-1.117926	0.772327
C87	C	-0.284087	-0.784593	1.105661
C88	C	-0.232011	-1.518478	0.506262
C89	C	0.101322	-1.185145	0.839596
C90	C	0.434655	-0.851811	1.172929
C91	C	-0.115235	-1.518517	0.506280
C92	C	0.218099	-1.185183	0.839614
C93	C	0.551432	-0.851850	1.172947
C94	C	-0.505944	-1.518466	0.780254
C95	C	-0.172611	-1.185132	1.113587
C96	C	0.160723	-0.851799	1.446921
C97	C	-0.505901	-1.518499	0.897031
C98	C	-0.172568	-1.185166	1.230364
C99	C	0.160766	-0.851832	1.563698
C100	C	-0.506059	-0.792420	0.506243
C101	C	-0.172725	-0.459087	0.839576
C102	C	0.160608	-0.125754	1.172910
C103	C	-0.506057	-0.909197	0.506235
C104	C	-0.172723	-0.575864	0.839568
C105	C	0.160610	-0.242530	1.172902
C106	C	-0.506069	-1.518369	0.233253
C107	C	-0.172736	-1.185036	0.566587
C108	C	0.160597	-0.851702	0.899920
C109	C	-0.505816	-1.518539	0.116477
C110	C	-0.172483	-1.185206	0.449811
C111	C	0.160850	-0.851872	0.783144
C112	C	-0.438698	-1.585723	0.951912
C113	C	-0.105365	-1.252389	1.285245
C114	C	0.227969	-0.919056	1.618579
C115	C	-0.438653	-1.585740	1.061636
C116	C	-0.105319	-1.252407	1.394969
C117	C	0.228014	-0.919074	1.728303
C118	C	-0.573022	-1.451308	1.061589
C119	C	-0.239689	-1.117975	1.394922
C120	C	0.093644	-0.784641	1.728255
C121	C	-0.573061	-1.451286	0.951866
C122	C	-0.239728	-1.117952	1.285200
C123	C	0.093605	-0.784619	1.618533
H124	H	-0.628102	-0.919438	0.627926
H125	H	-0.294768	-0.586104	0.961259
H126	H	0.038565	-0.252771	1.294593
H127	H	-0.384009	-1.640449	0.907268
H128	H	-0.050675	-1.307116	1.240601
H129	H	0.282658	-0.973783	1.573935
F130	F	-0.367180	-0.905627	0.367781
F131	F	-0.033846	-0.572294	0.701115
F132	F	0.299487	-0.238960	1.034448
H133	H	-0.383981	-1.118414	0.384517
H134	H	-0.050647	-0.785081	0.717851
H135	H	0.282686	-0.451747	1.051184
H136	H	-0.628099	-1.118485	0.627895
H137	H	-0.294766	-0.785151	0.961228
H138	H	0.038567	-0.451818	1.294561
F139	F	-0.892046	-1.657029	0.645050
F140	F	-0.558713	-1.323695	0.978383
F141	F	-0.225380	-0.990362	1.311716
H142	H	-1.104838	-1.640347	0.628291
H143	H	-0.771505	-1.307014	0.961624
H144	H	-0.438171	-0.973680	1.294958
H145	H	-1.105241	-1.396666	0.384274
H146	H	-0.771908	-1.063333	0.717608
H147	H	-0.438575	-0.729999	1.050941
H148	H	-0.906172	-1.396543	0.384222
H149	H	-0.572839	-1.063210	0.717556
H150	H	-0.239505	-0.729877	1.050889
F151	F	-0.367133	-1.657296	1.120040
F152	F	-0.033800	-1.323963	1.453373
F153	F	0.299534	-0.990629	1.786706
F154	F	-0.644499	-1.379783	1.119957
F155	F	-0.311166	-1.046450	1.453291
F156	F	0.022168	-0.713116	1.786624
H157	H	-0.627785	-1.396537	0.907181
H158	H	-0.294452	-1.063203	1.240514
H159	H	0.038881	-0.729870	1.573848
