data_functionalizedCrystal
_audit_creation_method	'MofGen! by Chris Wilmer'
_symmetry_space_group_name_H-M	'P1'
_symmetry_Int_Tables_number	1
_symmetry_cell_setting	triclinic
loop_
_symmetry_equiv_pos_as_xyz
  x,y,z
_cell_length_a	10.654562
_cell_length_b	11.792254
_cell_length_c	9.130313
_cell_angle_alpha	89.998555
_cell_angle_beta	89.996930
_cell_angle_gamma	84.344351
loop_
_atom_site_label
_atom_site_type_symbol
_atom_site_fract_x
_atom_site_fract_y
_atom_site_fract_z
O1	O	1.667382	0.159482	-0.121896
O2	O	1.301863	0.174656	-0.121878
O3	O	1.493484	0.001920	-0.121877
O4	O	1.475761	0.332218	-0.121897
O5	O	1.493482	0.001925	0.121721
O6	O	1.301861	0.174660	0.121720
O7	O	1.667379	0.159487	0.121702
Cu8	Cu	1.484620	0.167074	0.143954
Cu9	Cu	1.484623	0.167069	-0.144130
O10	O	1.475758	0.332223	0.121701
C11	C	1.255067	0.173541	-0.000077
C12	C	1.115634	0.170199	-0.000069
C13	C	1.050106	0.168642	0.132705
C14	C	0.919093	0.165511	0.132681
C15	C	0.919146	0.165497	-0.132904
C16	C	1.050158	0.168621	-0.132878
C17	C	1.050074	0.168655	0.286039
C18	C	0.919061	0.165524	0.286014
C19	C	1.492367	-0.040371	-0.000078
C20	C	1.489025	-0.166391	-0.000080
C21	C	1.486310	-0.268734	-0.000085
C22	C	1.482914	-0.397129	-0.000098
C23	C	1.714175	0.160602	-0.000103
C24	C	1.853608	0.163944	-0.000119
C25	C	1.476876	0.374514	-0.000101
C26	C	1.480218	0.500534	-0.000109
N27	N	1.484627	0.167077	0.346577
N28	N	1.484625	0.167057	-0.346753
C29	C	1.569499	0.090616	0.423229
C30	C	1.569495	0.090603	0.576566
C31	C	1.399745	0.243521	0.576584
C32	C	1.399743	0.243528	0.423250
C33	C	1.667507	0.002333	0.423219
C34	C	1.667503	0.002320	0.576556
H35	H	0.889702	0.082747	0.333599
H36	H	1.330623	0.305779	0.360841
O37	O	1.317347	0.317940	0.650905
C38	C	1.245132	0.514675	0.697905
C39	C	1.338502	0.430520	0.613627
H40	H	1.262220	0.605715	0.667821
H41	H	1.144424	0.499125	0.667725
H42	H	1.259686	0.501478	0.820658
H43	H	1.324063	0.443668	0.490855
H44	H	1.439175	0.446092	0.643929
O45	O	1.782672	0.025381	0.626040
C46	C	2.005980	-0.032316	0.630770
C47	C	1.875641	-0.058548	0.574599
H48	H	2.081177	-0.100170	0.589228
H49	H	2.027310	0.054890	0.589139
H50	H	2.005926	-0.032287	0.755631
H51	H	1.875599	-0.058639	0.449743
H52	H	1.854363	-0.145737	0.616341
O53	O	1.105488	0.074961	0.356068
C54	C	1.137708	-0.130122	0.362728
C55	C	1.074905	-0.024114	0.283267
H56	H	1.112984	-0.210251	0.303919
H57	H	1.244407	-0.127674	0.362716
H58	H	1.102154	-0.130916	0.480457
H59	H	1.110358	-0.023252	0.165506
H60	H	0.968213	-0.026603	0.283398
O61	O	1.642139	-0.101787	0.373808
C62	C	1.596086	-0.291556	0.437832
C63	C	1.624774	-0.173690	0.493989
H64	H	1.582065	-0.349729	0.534969
H65	H	1.506666	-0.282014	0.368527
H66	H	1.678388	-0.330207	0.368407
H67	H	1.542551	-0.134973	0.563475
H68	H	1.714237	-0.183305	0.563214
O69	O	0.863513	0.259162	0.356051
C70	C	0.830965	0.464229	0.362862
C71	C	0.893984	0.358328	0.283364
H72	H	0.855599	0.544431	0.304146
H73	H	0.724285	0.461641	0.362751
H74	H	0.866429	0.465009	0.480624
H75	H	0.858621	0.357479	0.165571
H76	H	1.000657	0.360957	0.283595
H77	H	1.079418	0.251435	0.333610
O78	O	1.113727	0.170320	-0.261894
C79	C	1.140265	0.269361	-0.488949
C80	C	1.068198	0.267594	-0.342870
H81	H	1.103464	0.347986	-0.554472
H82	H	1.245157	0.271934	-0.466214
H83	H	1.125469	0.189410	-0.554352
H84	H	1.082891	0.347529	-0.277394
H85	H	0.963332	0.264962	-0.365708
H86	H	1.758613	0.029981	0.375655
H87	H	0.865819	0.164213	-0.241032
H88	H	1.637220	-0.080123	0.624110
