data_functionalizedCrystal
_audit_creation_method	'MofGen! by Chris Wilmer'
_symmetry_space_group_name_H-M	'P1'
_symmetry_Int_Tables_number	1
_symmetry_cell_setting	triclinic
loop_
_symmetry_equiv_pos_as_xyz
  x,y,z
_cell_length_a	14.519709
_cell_length_b	14.519731
_cell_length_c	10.868271
_cell_angle_alpha	89.993226
_cell_angle_beta	89.998733
_cell_angle_gamma	96.315500
loop_
_atom_site_label
_atom_site_type_symbol
_atom_site_fract_x
_atom_site_fract_y
_atom_site_fract_z
O1	O	1.223877	-0.120886	0.102177
O2	O	0.955401	-0.135122	0.102217
O3	O	1.096747	0.006233	0.102171
O4	O	1.082531	-0.262241	0.102223
O5	O	1.096734	0.006229	-0.102474
O6	O	0.955388	-0.135127	-0.102428
O7	O	1.223864	-0.120890	-0.102468
Zn8	Zn	1.089624	-0.128009	-0.134940
Zn9	Zn	1.089641	-0.128003	0.134689
O10	O	1.082518	-0.262245	-0.102422
C11	C	0.921035	-0.134461	-0.000101
C12	C	0.818654	-0.132473	-0.000087
C13	C	0.443757	-0.125153	-0.000145
C14	C	0.548065	-0.127186	-0.000128
C15	C	0.631202	-0.128813	-0.000115
C16	C	0.735517	-0.130846	-0.000101
C17	C	1.096075	0.040591	-0.000155
C18	C	1.094079	0.142971	-0.000166
C19	C	1.258230	-0.121551	-0.000147
C20	C	1.360612	-0.123539	-0.000153
N21	N	1.089619	-0.128013	-0.318954
C22	C	1.092457	0.226115	-0.000171
C23	C	1.090430	0.330424	-0.000172
C24	C	1.088822	0.413563	-0.000173
C25	C	1.086795	0.517878	-0.000176
C26	C	1.083191	0.703397	-0.000119
C27	C	1.085187	0.601017	-0.000176
C28	C	1.089627	-0.128013	-0.430291
C29	C	1.089639	-0.128004	-0.569969
N30	N	1.089653	-0.127992	0.318703
