data_functionalizedCrystal
_audit_creation_method	'MofGen! by Chris Wilmer'
_symmetry_space_group_name_H-M	'P1'
_symmetry_Int_Tables_number	1
_symmetry_cell_setting	triclinic
loop_
_symmetry_equiv_pos_as_xyz
  x,y,z
_cell_length_a	14.395555
_cell_length_b	14.395555
_cell_length_c	14.395555
_cell_angle_alpha	60.002011
_cell_angle_beta	90.003714
_cell_angle_gamma	60.001260
loop_
_atom_site_label
_atom_site_type_symbol
_atom_site_fract_x
_atom_site_fract_y
_atom_site_fract_z
Zr1	Zr	0.894944	1.016744	-0.121869
O2	O	0.746620	1.210537	-0.270202
O3	O	0.940410	0.822949	-0.076395
O4	O	0.940415	1.016732	-0.270189
O5	O	0.746614	1.016763	0.076457
O6	O	1.093290	1.016725	-0.270181
O7	O	0.746614	1.016753	-0.076409
O8	O	1.093280	0.670082	0.076481
O9	O	0.746624	1.363406	-0.270205
O10	O	1.073894	0.902655	-0.056998
O11	O	0.959806	0.902667	0.057078
O12	O	0.959812	1.130822	-0.171089
O13	O	0.845724	1.130835	-0.057013
Zr14	Zr	1.138762	1.016748	0.121947
Zr15	Zr	1.138761	1.016733	-0.121856
Zr16	Zr	0.894945	1.016759	0.121934
Zr17	Zr	0.894952	1.260553	-0.121873
Zr18	Zr	1.138754	0.772939	0.121950
O19	O	1.093296	1.210543	0.076473
O20	O	1.093295	1.210521	-0.270184
O21	O	0.746620	1.210559	0.076454
O22	O	1.287086	0.822955	0.270280
O23	O	1.287086	0.822933	-0.076377
O24	O	0.940411	0.822971	0.270261
O25	O	1.287092	1.016729	-0.076380
O26	O	1.093291	1.016760	0.270267
O27	O	0.940417	1.016767	0.270259
O28	O	1.287092	1.016739	0.076486
O29	O	0.940426	1.363397	-0.270194
O30	O	1.093280	0.670095	0.270272
O31	O	1.287082	0.670086	0.270282
O32	O	1.287081	0.670073	0.076491
O33	O	0.746625	1.363419	-0.076414
O34	O	0.940426	1.363410	-0.076403
O35	O	1.073894	0.902670	0.171166
O36	O	1.187982	0.902657	0.057091
O37	O	1.073900	1.130825	-0.057001
O38	O	0.959812	1.130837	0.057075
C39	C	1.016844	0.711778	0.000043
C40	C	1.016841	0.608274	0.000045
C41	C	0.954639	0.547689	0.062248
C42	C	0.909556	0.561940	-0.045029
C43	C	1.061896	0.409627	0.107289
C44	C	0.971696	0.623952	-0.107295
C45	C	1.124095	0.471576	0.045100
C46	C	1.079039	0.485874	-0.062240
C47	C	0.711876	1.016760	0.000023
C48	C	0.608369	1.016764	0.000017
C49	C	0.485578	1.141171	-0.062181
C50	C	0.454741	1.078975	-0.107254
C51	C	0.454783	1.078956	0.045082
C52	C	0.578895	0.954568	-0.045119
C53	C	0.578935	0.954566	0.107277
C54	C	0.548171	0.892279	0.062230
C55	C	1.321830	1.016732	0.000055
C56	C	1.425337	1.016728	0.000060
C57	C	1.016852	1.016726	-0.304922
C58	C	1.016852	1.016720	-0.408423
C59	C	1.016862	1.321714	0.000034
C60	C	1.016865	1.425218	0.000033
C61	C	1.079059	0.892336	-0.468726
C62	C	1.124154	0.954492	-0.437851
C63	C	0.971809	0.954531	-0.437906
C64	C	1.062012	1.078930	-0.561989
C65	C	0.909607	1.078951	-0.562041
C66	C	0.954675	1.141198	-0.531240
C67	C	1.016854	1.016766	0.304999
C68	C	1.016854	1.016772	0.408500
C69	C	1.321821	0.711764	0.000060
C70	C	1.425325	0.608256	0.000067
C71	C	1.016844	0.711797	0.305004
C72	C	1.016842	0.608301	0.408506
C73	C	1.321822	0.711784	0.305020
C74	C	1.425325	0.608282	0.408528
C75	C	0.711884	1.321708	-0.304943
C76	C	0.608381	1.425210	-0.408451
C77	C	0.711885	1.321728	0.000018
C78	C	0.608381	1.425236	0.000011
C79	C	1.016862	1.321695	-0.304927
C80	C	1.016864	1.425191	-0.408429
C81	C	1.548118	0.547698	0.062243
C82	C	1.578975	0.409592	0.107298
C83	C	1.578885	0.561987	-0.045040
C84	C	1.454818	0.471449	0.045185
C85	C	1.454732	0.623918	-0.107213
C86	C	1.485516	0.485821	-0.062184
C87	C	0.954632	0.547719	0.406890
C88	C	1.061908	0.409618	0.499914
C89	C	0.909597	0.561958	0.499911
C90	C	1.124181	0.471501	0.500168
C91	C	0.971793	0.623914	0.500150
C92	C	1.079133	0.485824	0.593193
C93	C	1.423710	0.547681	0.531317
C94	C	1.516697	0.409583	0.562117
C95	C	1.516770	0.561855	0.562154
C96	C	1.516950	0.471486	0.437965
C97	C	1.517008	0.623831	0.438005
C98	C	1.610013	0.485743	0.468731
H99	H	0.818862	0.599127	-0.083147
O100	O	0.926415	0.733115	0.499181
C101	C	0.991006	0.700901	0.597286
H102	H	1.038444	0.591263	0.666459
H103	H	0.931948	0.758966	0.628946
H104	H	1.054856	0.726426	0.575783
H105	H	1.214853	0.901897	-0.384338
H106	H	1.516101	0.434146	0.384572
O107	O	0.390820	1.141892	0.090348
C108	C	0.281740	1.249498	0.009199
H109	H	0.286134	1.281003	-0.079825
H110	H	0.250590	1.334783	0.016580
H111	H	0.220292	1.219724	0.025221
O112	O	1.642740	0.300393	0.215550
C113	C	1.589706	0.322423	0.291622
H114	H	1.531234	0.432515	0.250680
H115	H	1.657346	0.272604	0.373142
H116	H	1.537655	0.279963	0.312558
O117	O	1.107251	0.300486	0.215561
C118	C	1.041377	0.332298	0.280831
H119	H	0.992817	0.442098	0.240163
H120	H	1.099590	0.274932	0.370784
H121	H	0.978458	0.305586	0.284325
O122	O	1.390878	0.733133	-0.215433
C123	C	1.358502	0.700929	-0.281334
H124	H	1.420724	0.591299	-0.240891
H125	H	1.359466	0.759028	-0.371066
H126	H	1.269139	0.726421	-0.285335
H127	H	1.401479	0.434036	0.083393
O128	O	1.705101	0.453234	0.438283
C129	C	1.770442	0.318485	0.483084
H130	H	1.748585	0.264932	0.559574
H131	H	1.864728	0.275790	0.510749
H132	H	1.750851	0.305770	0.415160
H133	H	1.516064	0.715458	0.384526
O134	O	1.141966	0.766778	-0.438232
C135	C	1.186829	0.678753	-0.318604
H136	H	1.190740	0.730194	-0.280527
H137	H	1.276113	0.590108	-0.292187
H138	H	1.129914	0.644777	-0.286364
H139	H	0.818900	0.599135	0.500822
H140	H	1.517763	0.598887	0.615782
O141	O	1.142084	0.453698	0.688064
C142	C	1.186714	0.528722	0.656108
H143	H	1.190469	0.562813	0.566557
H144	H	1.276037	0.466086	0.718172
H145	H	1.129730	0.617930	0.657755
O146	O	1.328439	0.580227	0.561460
C147	C	1.231335	0.679001	0.462698
H148	H	1.254730	0.734056	0.388674
H149	H	1.162510	0.750590	0.478065
H150	H	1.198242	0.632229	0.441494
H151	H	1.100210	1.131482	-0.615335
H152	H	0.902082	1.246468	-0.556860
H153	H	0.901965	0.574920	0.114772
O154	O	1.454863	0.453462	-0.124798
C155	C	1.390595	0.404761	-0.076927
H156	H	1.411089	0.366127	0.016710
H157	H	1.412667	0.321686	-0.084801
H158	H	1.296062	0.487087	-0.123978
O159	O	1.232477	0.426916	0.499348
C160	C	1.298055	0.394460	0.597008
H161	H	1.239550	0.450719	0.630242
H162	H	1.360514	0.422009	0.574281
H163	H	1.347130	0.284410	0.665469
H164	H	1.100023	0.317996	0.500844
H165	H	1.131640	0.458925	-0.114922
O166	O	0.926276	0.733193	-0.215517
C167	C	1.007677	0.760553	-0.242540
H168	H	1.072989	0.714096	-0.160820
H169	H	0.963519	0.871404	-0.297786
H170	H	1.052342	0.718285	-0.290864
O171	O	1.517832	0.300281	0.626096
C172	C	1.519253	0.272361	0.735164
H173	H	1.554995	0.318568	0.753785
H174	H	1.574984	0.161444	0.801564
H175	H	1.428932	0.314491	0.738341
O176	O	1.232266	0.427108	0.090793
C177	C	1.279463	0.315428	0.203918
H178	H	1.208130	0.316276	0.238740
H179	H	1.335633	0.316839	0.258311
H180	H	1.332790	0.222864	0.206179
H181	H	0.401224	1.131550	-0.197945
O182	O	0.801496	1.141465	-0.625913
C183	C	0.792966	1.054122	-0.637500
H184	H	0.880838	0.972818	-0.623977
H185	H	0.733687	1.109798	-0.726437
H186	H	0.757475	1.009124	-0.571458
O187	O	0.642711	0.891761	-0.090538
C188	C	0.751476	0.783337	-0.009143
H189	H	0.770339	0.799746	0.056165
H190	H	0.818165	0.772246	-0.053305
H191	H	0.753875	0.690346	0.035529
H192	H	0.460137	1.246369	-0.114860
O193	O	0.926233	0.891957	-0.374079
C194	C	0.829097	0.979918	-0.364223
H195	H	0.834486	1.062252	-0.378669
H196	H	0.824708	0.925210	-0.275495
H197	H	0.749552	1.023417	-0.430534
O198	O	1.642672	0.606475	-0.090387
C199	C	1.676759	0.637647	-0.024488
H200	H	1.615521	0.658220	0.024073
H201	H	1.675932	0.728433	-0.082681
H202	H	1.766387	0.551498	0.038430
H203	H	0.632448	0.902036	0.197948
O204	O	0.578967	0.766599	0.124984
C205	C	0.698620	0.678866	0.168073
H206	H	0.736496	0.730529	0.112618
H207	H	0.725278	0.590115	0.167516
H208	H	0.730841	0.645011	0.258925
O209	O	1.578316	0.580000	0.125184
C210	C	1.533310	0.555504	0.214983
H211	H	1.456905	0.556499	0.191930
H212	H	1.505463	0.634864	0.229913
H213	H	1.601167	0.455346	0.295717
O214	O	0.891941	0.579853	0.311857
C215	C	0.848805	0.503356	0.343526
H216	H	0.904206	0.409934	0.433035
H217	H	0.849399	0.476299	0.281305
H218	H	0.757933	0.561976	0.341847
