data_functionalizedCrystal
_audit_creation_method	'MofGen! by Chris Wilmer'
_symmetry_space_group_name_H-M	'P1'
_symmetry_Int_Tables_number	1
_symmetry_cell_setting	triclinic
loop_
_symmetry_equiv_pos_as_xyz
  x,y,z
_cell_length_a	14.971486
_cell_length_b	14.971486
_cell_length_c	14.048226
_cell_angle_alpha	90.006640
_cell_angle_beta	90.001501
_cell_angle_gamma	83.614129
loop_
_atom_site_label
_atom_site_type_symbol
_atom_site_fract_x
_atom_site_fract_y
_atom_site_fract_z
O1	O	-1.186947	-0.116565	-0.079052
O2	O	-0.686947	0.383435	0.420948
O3	O	-0.926547	-0.130523	-0.079078
O4	O	-0.426547	0.369477	0.420922
O5	O	-1.063726	0.006656	-0.079057
O6	O	-0.563726	0.506656	0.420943
O7	O	-1.049768	-0.253744	-0.079072
O8	O	-0.549768	0.246256	0.420928
O9	O	-1.063710	0.006664	0.079264
O10	O	-0.563710	0.506664	0.579264
O11	O	-0.926530	-0.130515	0.079244
O12	O	-0.426530	0.369485	0.579244
O13	O	-1.186930	-0.116556	0.079270
O14	O	-0.686930	0.383444	0.579270
Zn15	Zn	-1.056728	-0.123535	0.104394
Zn16	Zn	-0.556728	0.376465	0.604394
Zn17	Zn	-1.056750	-0.123545	-0.104202
Zn18	Zn	-0.556750	0.376455	0.395798
O19	O	-1.049751	-0.253736	0.079249
O20	O	-0.549751	0.246264	0.579249
C21	C	-0.893214	-0.129895	0.000080
C22	C	-0.393214	0.370105	0.500080
C23	C	-0.793917	-0.128024	0.000070
C24	C	-0.293917	0.371976	0.500070
C25	C	-1.063094	0.039985	0.000103
C26	C	-0.563094	0.539985	0.500103
C27	C	-1.061223	0.139282	0.000102
C28	C	-0.561223	0.639282	0.500102
C29	C	-1.220263	-0.117185	0.000110
C30	C	-0.720263	0.382815	0.500110
C31	C	-1.319561	-0.119056	0.000114
C32	C	-0.819561	0.380944	0.500114
C33	C	-0.736692	-0.208614	0.000067
C34	C	-0.236692	0.291386	0.500067
C35	C	-0.643392	-0.206850	0.000081
C36	C	-0.143392	0.293150	0.500081
C37	C	-0.607320	-0.124497	0.000092
C38	C	-0.107320	0.375503	0.500092
C39	C	-0.664552	-0.043902	0.000098
C40	C	-0.164552	0.456098	0.500098
C41	C	-0.757850	-0.045666	0.000090
C42	C	-0.257850	0.454334	0.500090
C43	C	-0.470090	-0.040231	0.000111
C44	C	0.029910	0.459769	0.500111
C45	C	-0.376786	-0.038466	0.000117
C46	C	0.123214	0.461534	0.500117
C47	C	-0.355632	-0.201415	0.000102
C48	C	0.144368	0.298585	0.500102
C49	C	-0.448930	-0.203179	0.000094
C50	C	0.051070	0.296821	0.500094
C51	C	-0.506156	-0.122584	0.000099
C52	C	-0.006156	0.377416	0.500099
C53	C	-1.050384	-0.287065	0.000087
C54	C	-0.550384	0.212935	0.500087
C55	C	-1.052254	-0.386362	0.000082
C56	C	-0.552254	0.113638	0.500082
N57	N	-1.056719	-0.123527	0.246754
N58	N	-0.556719	0.376473	0.746754
C59	C	-1.141812	0.196507	0.000111
C60	C	-0.641812	0.696507	0.500111
C61	C	-1.140049	0.289807	0.000101
C62	C	-0.640049	0.789807	0.500101
C63	C	-1.057696	0.325879	0.000089
C64	C	-0.557696	0.825879	0.500089
C65	C	-0.977101	0.268646	0.000078
C66	C	-0.477101	0.768646	0.500078
C67	C	-0.978865	0.175349	0.000081
C68	C	-0.478865	0.675349	0.500081
C69	C	-0.973430	0.463109	0.000074
C70	C	-0.473430	0.963109	0.500074
C71	C	-0.971665	0.556413	0.000073
C72	C	-0.471665	1.056413	0.500073
C73	C	-1.134614	0.577567	0.000094
C74	C	-0.634614	1.077567	0.500094
C75	C	-1.136378	0.484269	0.000097
C76	C	-0.636378	0.984269	0.500097
C77	C	-1.055782	0.427043	0.000088
C78	C	-0.555782	0.927043	0.500088
N79	N	-1.056765	-0.123546	-0.246562
N80	N	-0.556765	0.376454	0.253438
C81	C	-1.117482	-0.062809	0.296581
C82	C	-0.617482	0.437191	0.796581
C83	C	-1.117488	-0.062808	0.396239
C84	C	-0.617488	0.437192	0.896239
C85	C	-1.056735	-0.123531	0.446068
C86	C	-0.556735	0.376469	0.946068
C87	C	-0.995966	-0.184252	0.396234
C88	C	-0.495966	0.315748	0.896234
C89	C	-0.995957	-0.184247	0.296578
C90	C	-0.495957	0.315753	0.796578
C91	C	-0.995992	-0.184258	0.603948
C92	C	-0.495992	0.315742	1.103948
C93	C	-0.996003	-0.184264	0.703611
C94	C	-0.496003	0.315736	1.203611
C95	C	-1.117523	-0.062819	0.703609
C96	C	-0.617523	0.437181	1.203609
C97	C	-1.117514	-0.062815	0.603953
C98	C	-0.617514	0.437185	1.103953
C99	C	-1.056746	-0.123537	0.554126
C100	C	-0.556746	0.376463	1.054126
H101	H	-0.766054	-0.275675	0.000057
H102	H	-0.266054	0.224325	0.500057
O103	O	-0.587931	-0.285218	0.000034
O104	O	-0.087931	0.214782	0.500034
C105	C	-0.639776	-0.358282	0.000042
C106	C	-0.139776	0.141718	0.500042
H107	H	-0.709380	-0.335654	-0.029939
H108	H	-0.209380	0.164346	0.470061
H109	H	-0.605417	-0.414756	-0.045925
H110	H	-0.105417	0.085244	0.454075
H111	H	-0.646454	-0.383520	0.075992
H112	H	-0.146454	0.116480	0.575992
H113	H	-0.478296	-0.270239	0.000077
H114	H	0.021704	0.229761	0.500077
O115	O	-0.936861	-0.243268	0.444487
O116	O	-0.436861	0.256732	0.944487
C117	C	-0.883240	-0.296871	0.379134
C118	C	-0.383240	0.203129	0.879134
H119	H	-0.882190	-0.260193	0.308103
H120	H	-0.382190	0.239807	0.808103
H121	H	-0.811828	-0.310394	0.407935
H122	H	-0.311828	0.189606	0.907935
H123	H	-0.912343	-0.363369	0.368520
H124	H	-0.412343	0.136631	0.868520
H125	H	-0.904606	0.585780	0.000079
H126	H	-0.404606	1.085780	0.500079
H127	H	-0.347419	0.028593	0.000127
H128	H	0.152581	0.528593	0.500127
H129	H	-1.167002	-0.013377	0.744184
H130	H	-0.667002	0.486623	1.244184
O131	O	-1.176562	-0.003745	0.555695
O132	O	-0.676562	0.496255	1.055695
C133	C	-1.230214	0.049835	0.621041
C134	C	-0.730214	0.549835	1.121041
H135	H	-1.193554	0.050908	0.692087
H136	H	-0.693554	0.550908	1.192087
H137	H	-1.243783	0.121245	0.592253
H138	H	-0.743783	0.621245	1.092253
H139	H	-1.296687	0.020680	0.631622
H140	H	-0.796687	0.520680	1.131622
H141	H	-1.203437	0.454903	0.000114
H142	H	-0.703437	0.954903	0.500114
H143	H	-0.907800	0.416517	0.000064
H144	H	-0.407800	0.916517	0.500064
H145	H	-0.910047	0.298024	0.000062
H146	H	-0.410047	0.798024	0.500062
H147	H	-0.309033	-0.267039	0.000103
H148	H	0.190967	0.232961	0.500103
H149	H	-0.913240	0.128756	0.000074
H150	H	-0.413240	0.628756	0.500074
O151	O	-0.525553	0.038142	0.000068
O152	O	-0.025553	0.538142	0.500068
C153	C	-0.473711	0.111209	0.000097
C154	C	0.026289	0.611209	0.500097
H155	H	-0.404100	0.088578	-0.029867
H156	H	0.095900	0.588578	0.470133
H157	H	-0.508063	0.167674	-0.045874
H158	H	-0.008063	0.667674	0.454126
H159	H	-0.467050	0.136458	0.076052
H160	H	0.032950	0.636458	0.576052
H161	H	-1.166957	-0.013365	0.256017
H162	H	-0.666957	0.486635	0.756017
O163	O	-0.936846	-0.243108	0.248130
O164	O	-0.436846	0.256892	0.748130
C165	C	-0.881628	-0.195109	0.190486
C166	C	-0.381628	0.304891	0.690486
H167	H	-0.880051	-0.124567	0.220532
H168	H	-0.380051	0.375433	0.720532
H169	H	-0.810574	-0.231485	0.189358
H170	H	-0.310574	0.268515	0.689358
H171	H	-0.909608	-0.190464	0.114955
H172	H	-0.409608	0.309536	0.614955
O173	O	-1.176609	-0.003803	0.444493
O174	O	-0.676609	0.496197	0.944493
C175	C	-1.230221	0.049799	0.379144
C176	C	-0.730221	0.549799	0.879144
H177	H	-1.231249	0.013128	0.308097
H178	H	-0.731249	0.513128	0.808097
H179	H	-1.301641	0.063307	0.407925
H180	H	-0.801641	0.563307	0.907925
H181	H	-1.201128	0.116304	0.368565
H182	H	-0.701128	0.616304	0.868565
H183	H	-0.635175	0.023152	0.000120
H184	H	-0.135175	0.523152	0.500120
O185	O	-0.936890	-0.243269	0.751869
O186	O	-0.436890	0.256731	1.251869
C187	C	-0.883257	-0.296869	0.686523
C188	C	-0.383257	0.203131	1.186523
H189	H	-0.882214	-0.260197	0.615487
H190	H	-0.382214	0.239803	1.115487
H191	H	-0.811845	-0.310372	0.715326
H192	H	-0.311845	0.189628	1.215326
H193	H	-0.912343	-0.363376	0.675916
H194	H	-0.412343	0.136624	1.175916
H195	H	-0.946506	-0.233702	0.563382
H196	H	-0.446506	0.266298	1.063382
O197	O	-0.813314	0.032702	0.000046
O198	O	-0.313314	0.532702	0.500046
C199	C	-0.761472	0.105768	0.000079
C200	C	-0.261472	0.605768	0.500079
H201	H	-0.691863	0.083140	-0.029891
H202	H	-0.191863	0.583140	0.470109
H203	H	-0.795827	0.162238	-0.045885
H204	H	-0.295827	0.662238	0.454115
H205	H	-0.754806	0.131011	0.076036
H206	H	-0.254806	0.631011	0.576036
H207	H	-1.208874	0.167145	0.000126
H208	H	-0.708874	0.667145	0.500126
O209	O	-1.218417	0.345267	0.000158
O210	O	-0.718417	0.845267	0.500158
C211	C	-1.291481	0.293423	0.000154
C212	C	-0.791481	0.793423	0.500154
H213	H	-1.268846	0.223819	0.030125
H214	H	-0.768846	0.723819	0.530125
H215	H	-1.347944	0.327783	0.046130
H216	H	-0.847944	0.827783	0.546130
H217	H	-1.316736	0.286743	-0.075795
H218	H	-0.816736	0.786743	0.424205
O219	O	-1.212824	0.633279	0.000051
O220	O	-0.712824	1.133279	0.500051
C221	C	-1.193612	0.723362	0.000061
C222	C	-0.693612	1.223362	0.500061
H223	H	-1.123355	0.727007	-0.029920
H224	H	-0.623355	1.227007	0.470080
H225	H	-1.244979	0.765565	-0.045904
H226	H	-0.744979	1.265565	0.454096
H227	H	-1.196967	0.750355	0.076013
H228	H	-0.696967	1.250355	0.576013
