data_functionalizedCrystal
_audit_creation_method	'MofGen! by Chris Wilmer'
_symmetry_space_group_name_H-M	'P1'
_symmetry_Int_Tables_number	1
_symmetry_cell_setting	triclinic
loop_
_symmetry_equiv_pos_as_xyz
  x,y,z
_cell_length_a	11.792241
_cell_length_b	8.559649
_cell_length_c	7.681481
_cell_angle_alpha	94.930900
_cell_angle_beta	84.232897
_cell_angle_gamma	76.986040
loop_
_atom_site_label
_atom_site_type_symbol
_atom_site_fract_x
_atom_site_fract_y
_atom_site_fract_z
O1	O	-1.474850	-0.233845	-0.146253
O2	O	-1.141517	0.099488	0.187081
O3	O	-0.808184	0.432821	0.520414
O4	O	-1.142441	-0.256403	-0.146293
O5	O	-0.809108	0.076930	0.187040
O6	O	-0.475775	0.410264	0.520374
O7	O	-1.337931	-0.012775	-0.146267
O8	O	-1.004598	0.320558	0.187066
O9	O	-0.671265	0.653891	0.520399
O10	O	-1.279360	-0.477473	-0.146278
O11	O	-0.946027	-0.144140	0.187055
O12	O	-0.612693	0.189194	0.520389
O13	O	-1.361999	0.017279	0.146594
O14	O	-1.028666	0.350613	0.479927
O15	O	-0.695332	0.683946	0.813260
O16	O	-1.166509	-0.226348	0.146568
O17	O	-0.833176	0.106985	0.479901
O18	O	-0.499842	0.440318	0.813235
O19	O	-1.498918	-0.203790	0.146608
O20	O	-1.165584	0.129543	0.479942
O21	O	-0.832251	0.462876	0.813275
Zn22	Zn	-1.336535	-0.210298	0.193086
Zn23	Zn	-1.003201	0.123036	0.526419
Zn24	Zn	-0.669868	0.456369	0.859753
Zn25	Zn	-1.304825	-0.249896	-0.192771
Zn26	Zn	-0.971491	0.083437	0.140563
Zn27	Zn	-0.638158	0.416771	0.473896
O28	O	-1.303428	-0.447418	0.146583
O29	O	-0.970094	-0.114085	0.479916
O30	O	-0.636761	0.219248	0.813249
C31	C	-1.112313	-0.239960	0.000132
C32	C	-0.778980	0.093374	0.333466
C33	C	-0.445647	0.426707	0.666799
C34	C	-0.986687	-0.235721	0.000117
C35	C	-0.653353	0.097613	0.333450
C36	C	-0.320020	0.430946	0.666783
C37	C	-1.354404	0.061743	0.000160
C38	C	-1.021070	0.395076	0.333494
C39	C	-0.687737	0.728410	0.666827
C40	C	-1.367615	0.239008	0.000152
C41	C	-1.034282	0.572341	0.333486
C42	C	-0.700948	0.905675	0.666819
C43	C	-1.529045	-0.220234	0.000179
C44	C	-1.195712	0.113099	0.333513
C45	C	-0.862379	0.446432	0.666846
C46	C	-1.654671	-0.224474	0.000183
C47	C	-1.321338	0.108859	0.333517
C48	C	-0.988005	0.442192	0.666850
C49	C	-0.756692	-0.227918	0.000168
C50	C	-0.423359	0.105415	0.333501
C51	C	-0.090026	0.438748	0.666834
C52	C	-0.884679	-0.232253	0.000140
C53	C	-0.551345	0.101080	0.333473
C54	C	-0.218012	0.434413	0.666806
C55	C	-1.286955	-0.521937	0.000151
C56	C	-0.953622	-0.188604	0.333485
C57	C	-0.620288	0.144730	0.666818
C58	C	-1.273743	-0.699203	0.000148
C59	C	-0.940409	-0.365870	0.333481
C60	C	-0.607076	-0.032536	0.666815
N61	N	-1.358184	-0.183272	0.456423
N62	N	-1.024851	0.150062	0.789757
N63	N	-0.691517	0.483395	1.123090
N64	N	-1.283185	-0.276909	-0.456108
N65	N	-0.949852	0.056424	-0.122774
N66	N	-0.616518	0.389757	0.210559
H67	H	-1.183267	0.218083	0.000143
H68	H	-0.849933	0.551417	0.333476
H69	H	-0.516600	0.884750	0.666809
H70	H	-1.458099	0.321733	0.000177
H71	H	-1.124765	0.655066	0.333511
H72	H	-0.791432	0.988399	0.666844
H73	H	-1.206627	-0.372485	0.468685
H74	H	-0.873294	-0.039152	0.802019
H75	H	-0.539960	0.294182	1.135352
H76	H	-1.434755	-0.087701	0.531639
H77	H	-1.101421	0.245632	0.864972
H78	H	-0.768088	0.578965	1.198306
