data_functionalizedCrystal
_audit_creation_method	'MofGen! by Chris Wilmer'
_symmetry_space_group_name_H-M	'P1'
_symmetry_Int_Tables_number	1
_symmetry_cell_setting	triclinic
loop_
_symmetry_equiv_pos_as_xyz
  x,y,z
_cell_length_a	13.032831
_cell_length_b	13.032721
_cell_length_c	13.033109
_cell_angle_alpha	105.143326
_cell_angle_beta	76.665514
_cell_angle_gamma	90.902885
loop_
_atom_site_label
_atom_site_type_symbol
_atom_site_fract_x
_atom_site_fract_y
_atom_site_fract_z
Zn1	Zn	1.617278	-0.734630	-0.889163
Zn2	Zn	2.117278	-0.234630	-0.389163
Zn3	Zn	1.577772	-0.883958	-0.728367
Zn4	Zn	2.077772	-0.383958	-0.228367
Zn5	Zn	1.422834	-0.683803	-0.683331
Zn6	Zn	1.922834	-0.183803	-0.183331
Zn7	Zn	1.422798	-0.883866	-0.883401
Zn8	Zn	1.922798	-0.383866	-0.383401
O9	O	1.510171	-0.796564	-0.796066
O10	O	2.010171	-0.296564	-0.296066
O11	O	1.758271	-0.775749	-0.889093
O12	O	2.258271	-0.275749	-0.389093
O13	O	1.540701	-0.836174	-0.571370
O14	O	2.040701	-0.336174	-0.071370
O15	O	1.465176	-0.544325	-0.694198
O16	O	1.965176	-0.044325	-0.194198
O17	O	1.729246	-0.885459	-0.770957
O18	O	2.229246	-0.385459	-0.270957
O19	O	1.608033	-0.581667	-0.845422
O20	O	2.108033	-0.081667	-0.345422
O21	O	1.426868	-0.689121	-0.538281
O22	O	1.926868	-0.189121	-0.038281
O23	O	1.276596	-0.689032	-0.688611
O24	O	1.776596	-0.189032	-0.188611
O25	O	1.465114	-0.885302	-1.035189
O26	O	1.965114	-0.385302	-0.535189
O27	O	1.276569	-0.836017	-0.835602
O28	O	1.776569	-0.336017	-0.335602
O29	O	1.607998	-0.775660	-1.039422
O30	O	2.107998	-0.275660	-0.539422
O31	O	1.540666	-1.030166	-0.765370
O32	O	2.040666	-0.530166	-0.265370
O33	O	1.426807	-1.030099	-0.879272
O34	O	1.926807	-0.530099	-0.379272
C35	C	1.238666	-0.757000	-0.756595
C36	C	1.738666	-0.257000	-0.256595
C37	C	1.122515	-0.740103	-0.739737
C38	C	1.622515	-0.240103	-0.239737
C39	C	1.070723	-0.805383	-0.804863
C40	C	1.570723	-0.305383	-0.304863
C41	C	0.950675	-0.787921	-0.787442
C42	C	1.450675	-0.287921	-0.287442
C43	C	1.479477	-1.068053	-0.826610
C44	C	1.979477	-0.568053	-0.326610
C45	C	1.466445	-1.184217	-0.839728
C46	C	1.966445	-0.684217	-0.339728
C47	C	1.517033	-1.236020	-0.789276
C48	C	2.017033	-0.736020	-0.289276
C49	C	1.503565	-1.356081	-0.802832
C50	C	2.003565	-0.856081	-0.302832
C51	C	1.782736	-0.836284	-0.835691
C52	C	2.282736	-0.336284	-0.335691
C53	C	1.898886	-0.853210	-0.852577
C54	C	2.398886	-0.353210	-0.352577
C55	C	1.540959	-0.836140	-1.077559
C56	C	2.040959	-0.336140	-0.577559
C57	C	1.554079	-0.853005	-1.197515
C58	C	2.054079	-0.353005	-0.697515
C59	C	1.541015	-0.524022	-0.765429
C60	C	2.041015	-0.024022	-0.265429
C61	C	1.554159	-0.407881	-0.752374
C62	C	2.054159	0.092119	-0.252374
C63	C	1.503607	-0.787765	-1.234624
C64	C	2.003607	-0.287765	-0.734624
C65	C	1.517166	-0.805195	-1.358604
C66	C	2.017166	-0.305195	-0.858604
C67	C	1.479570	-0.757075	-0.515667
C68	C	1.979570	-0.257075	-0.015667
C69	C	1.466686	-0.739946	-0.395708
C70	C	1.966686	-0.239946	0.104292
H71	H	0.943417	-0.922027	-0.921242
H72	H	1.443417	-0.422027	-0.421242
C73	C	1.589109	-0.898085	-1.439668
C74	C	2.089109	-0.398085	-0.939668
H75	H	1.588791	-0.897609	-1.512362
H76	H	2.088791	-0.397609	-1.012362
H77	H	1.563876	-0.963493	-1.426923
H78	H	2.063876	-0.463493	-0.926923
H79	H	1.659057	-0.890443	-1.429741
H80	H	2.159057	-0.390443	-0.929741
C81	C	1.431671	-0.694877	-1.153557
C82	C	1.931671	-0.194877	-0.653557
H83	H	1.432001	-0.695343	-1.080863
H84	H	1.932001	-0.195343	-0.580863
H85	H	1.361728	-0.702503	-1.163483
H86	H	1.861728	-0.202503	-0.663483
H87	H	1.456921	-0.629468	-1.166304
H88	H	1.956921	-0.129468	-0.666304
H89	H	1.413430	-0.671185	-1.335696
H90	H	1.913430	-0.171185	-0.835696
C91	C	1.626019	-0.945891	-1.278582
C92	C	2.126019	-0.445891	-0.778582
H93	H	1.625701	-0.945415	-1.351276
H94	H	2.125701	-0.445415	-0.851276
H95	H	1.600786	-1.011299	-1.265837
H96	H	2.100786	-0.511299	-0.765837
H97	H	1.695967	-0.938249	-1.268655
H98	H	2.195967	-0.438249	-0.768655
C99	C	0.890528	-0.694945	-0.694693
C100	C	1.390528	-0.194945	-0.194693
H101	H	0.817732	-0.695408	-0.695149
H102	H	1.317732	-0.195408	-0.195149
H103	H	0.918037	-0.629575	-0.705280
H104	H	1.418037	-0.129575	-0.205280
H105	H	0.898695	-0.702508	-0.626426
H106	H	1.398695	-0.202508	-0.126426
C107	C	1.062364	-0.647132	-0.646994
C108	C	1.562364	-0.147132	-0.146994
H109	H	0.989568	-0.647595	-0.647449
H110	H	1.489568	-0.147595	-0.147449
H111	H	1.089872	-0.581762	-0.657581
H112	H	1.589872	-0.081762	-0.157581
H113	H	1.070530	-0.654695	-0.578726
H114	H	1.570530	-0.154695	-0.078726
C115	C	1.130871	-0.898351	-0.897614
C116	C	1.630871	-0.398351	-0.397614
H117	H	1.082811	-0.937038	-0.936219
H118	H	1.582811	-0.437038	-0.436219
H119	H	1.163785	-0.944151	-0.867506
H120	H	1.663785	-0.444151	-0.367506
H121	H	1.183114	-0.871212	-0.946354
H122	H	1.683114	-0.371212	-0.446354
C123	C	1.589011	-1.175869	-0.717368
C124	C	2.089011	-0.675869	-0.217368
H125	H	1.588615	-1.103064	-0.717685
H126	H	2.088615	-0.603064	-0.217685
H127	H	1.658966	-1.206095	-0.745417
H128	H	2.158966	-0.706095	-0.245417
H129	H	1.563844	-1.181327	-0.644626
H130	H	2.063844	-0.681327	-0.144626
H131	H	1.450286	-1.400612	-0.856070
H132	H	1.950286	-0.900612	-0.356070
H133	H	1.607447	-1.363354	-0.699145
H134	H	2.107447	-0.863354	-0.199145
H135	H	1.413170	-1.228752	-0.892962
H136	H	1.913170	-0.728752	-0.392962
