data_functionalizedCrystal
_audit_creation_method	'MofGen! by Chris Wilmer'
_symmetry_space_group_name_H-M	'P1'
_symmetry_Int_Tables_number	1
_symmetry_cell_setting	triclinic
loop_
_symmetry_equiv_pos_as_xyz
  x,y,z
_cell_length_a	10.489741
_cell_length_b	10.654550
_cell_length_c	9.730223
_cell_angle_alpha	90.001139
_cell_angle_beta	89.999837
_cell_angle_gamma	84.512038
loop_
_atom_site_label
_atom_site_type_symbol
_atom_site_fract_x
_atom_site_fract_y
_atom_site_fract_z
O1	O	-1.693966	-0.177184	0.114201
O2	O	-1.322762	-0.193816	0.114222
O3	O	-1.516899	-0.002765	0.114206
O4	O	-1.499829	-0.368235	0.114217
O5	O	-1.516886	-0.002775	-0.114374
O6	O	-1.322750	-0.193827	-0.114358
O7	O	-1.693953	-0.177194	-0.114379
Zn8	Zn	-1.508349	-0.185512	-0.150660
Zn9	Zn	-1.508366	-0.185498	0.150504
O10	O	-1.499817	-0.368246	-0.114363
C11	C	-1.275225	-0.192565	-0.000065
C12	C	-1.133597	-0.188807	-0.000057
C13	C	-1.515639	0.044029	-0.000082
C14	C	-1.511889	0.183474	-0.000077
C15	C	-1.741491	-0.178445	-0.000089
C16	C	-1.883118	-0.182204	-0.000088
C17	C	-1.065516	-0.067246	-0.000074
C18	C	-0.973367	-0.124665	0.112627
C19	C	-0.973389	-0.124705	-0.112735
C20	C	-1.043314	-0.246276	0.112737
C21	C	-1.043345	-0.246298	-0.112726
C22	C	-0.951224	-0.303805	0.000002
C23	C	-1.501076	-0.415039	-0.000071
C24	C	-1.504826	-0.554484	-0.000067
N25	N	-1.508348	-0.185521	-0.356197
C26	C	-1.626194	0.262906	-0.000088
C27	C	-1.622663	0.393928	-0.000078
C28	C	-1.390513	0.366074	-0.000053
C29	C	-1.394045	0.235054	-0.000053
C30	C	-1.744038	0.211326	-0.000112
C31	C	-1.858352	0.290759	-0.000124
C32	C	-1.854821	0.421782	-0.000115
C33	C	-1.736976	0.473371	-0.000093
C34	C	-1.586381	-0.262432	-0.428138
C35	C	-1.586400	-0.262409	-0.572021
C36	C	-1.430342	-0.108560	-0.572009
C37	C	-1.430330	-0.108578	-0.428128
C38	C	-1.664398	-0.339376	-0.356207
C39	C	-1.742436	-0.416294	-0.428148
C40	C	-1.742455	-0.416271	-0.572031
C41	C	-1.664436	-0.339329	-0.643973
N42	N	-1.508378	-0.185479	0.356040
H43	H	-1.115254	0.032684	0.000064
H44	H	-1.074122	-0.297666	0.208124
F45	F	-0.932870	-0.057434	0.237166
F46	F	-0.886556	-0.434557	0.000083
H47	H	-1.074361	-0.297695	-0.208010
H48	H	-0.942431	-0.073252	-0.208015
H49	H	-1.746926	0.104642	-0.000125
H50	H	-1.954297	0.248746	-0.000108
F51	F	-1.976481	0.506317	-0.000113
H52	H	-1.734110	0.580059	-0.000070
H53	H	-1.294569	0.408088	-0.000037
F54	F	-1.272389	0.150511	-0.000041
F55	F	-1.664381	-0.339411	-0.203074
F56	F	-1.825476	-0.498166	-0.351582
F57	F	-1.825519	-0.498123	-0.648593
H58	H	-1.664470	-0.339304	-0.761132
H59	H	-1.366820	-0.045919	-0.630595
H60	H	-1.366787	-0.045952	-0.369552
