data_functionalizedCrystal
_audit_creation_method	'MofGen! by Chris Wilmer'
_symmetry_space_group_name_H-M	'P1'
_symmetry_Int_Tables_number	1
_symmetry_cell_setting	triclinic
loop_
_symmetry_equiv_pos_as_xyz
  x,y,z
_cell_length_a	16.120484
_cell_length_b	16.625548
_cell_length_c	16.625548
_cell_angle_alpha	90.004750
_cell_angle_beta	87.113328
_cell_angle_gamma	92.926626
loop_
_atom_site_label
_atom_site_type_symbol
_atom_site_fract_x
_atom_site_fract_y
_atom_site_fract_z
Zn1	Zn	-0.332043	1.216250	0.472174
Zn2	Zn	0.001290	1.549583	0.805508
Zn3	Zn	0.334623	1.882916	1.138841
Zn4	Zn	-0.471424	1.209346	0.344169
Zn5	Zn	-0.138091	1.542679	0.677503
Zn6	Zn	0.195242	1.876013	1.010836
Zn7	Zn	-0.332029	1.081449	0.337354
Zn8	Zn	0.001304	1.414783	0.670688
Zn9	Zn	0.334637	1.748116	1.004021
Zn10	Zn	-0.471422	1.074538	0.478959
Zn11	Zn	-0.138089	1.407871	0.812292
Zn12	Zn	0.195244	1.741204	1.145626
O13	O	-0.401730	1.145396	0.408164
O14	O	-0.068396	1.478729	0.741498
O15	O	0.264937	1.812062	1.074831
O16	O	-0.350539	1.328166	0.455207
O17	O	-0.017206	1.661499	0.788540
O18	O	0.316127	1.994833	1.121874
O19	O	-0.452928	1.192383	0.230433
O20	O	-0.119595	1.525717	0.563766
O21	O	0.213739	1.859050	0.897099
O22	O	-0.215363	1.105113	0.349547
O23	O	0.117970	1.438446	0.682880
O24	O	0.451303	1.771779	1.016214
O25	O	-0.452942	1.323094	0.361162
O26	O	-0.119608	1.656427	0.694496
O27	O	0.213725	1.989760	1.027829
O28	O	-0.215374	1.204150	0.448599
O29	O	0.117960	1.537483	0.781932
O30	O	0.451293	1.870817	1.115265
O31	O	-0.350515	1.098418	0.225426
O32	O	-0.017182	1.431752	0.558759
O33	O	0.316152	1.765085	0.892092
O34	O	-0.350513	0.967701	0.356126
O35	O	-0.017180	1.301034	0.689459
O36	O	0.316153	1.634367	1.022792
O37	O	-0.452939	1.093333	0.590892
O38	O	-0.119605	1.426666	0.924225
O39	O	0.213728	1.760000	1.257558
O40	O	-0.452925	0.962623	0.460162
O41	O	-0.119591	1.295956	0.793496
O42	O	0.213742	1.629289	1.126829
O43	O	-0.350537	1.197448	0.585907
O44	O	-0.017204	1.530781	0.919240
O45	O	0.316129	1.864115	1.252574
O46	O	-0.588092	1.185681	0.367741
O47	O	-0.254758	1.519015	0.701074
O48	O	0.078575	1.852348	1.034408
O49	O	-0.588090	1.086639	0.466770
O50	O	-0.254757	1.419972	0.800104
O51	O	0.078576	1.753305	1.133437
C52	C	-0.618342	1.134683	0.418749
C53	C	-0.285008	1.468016	0.752082
C54	C	0.048325	1.801349	1.085416
C55	C	-0.711009	1.130173	0.423304
C56	C	-0.377676	1.463507	0.756638
C57	C	-0.044343	1.796840	1.089971
C58	C	-0.401718	0.935905	0.408141
C59	C	-0.068385	1.269239	0.741475
C60	C	0.264949	1.602572	1.074808
C61	C	-0.401733	0.846284	0.408151
C62	C	-0.068399	1.179617	0.741485
C63	C	0.264934	1.512950	1.074818
C64	C	-0.401739	1.145390	0.618474
C65	C	-0.068406	1.478723	0.951807
C66	C	0.264927	1.812056	1.285140
C67	C	-0.401743	1.145387	0.708095
C68	C	-0.068410	1.478720	1.041428
C69	C	0.264923	1.812054	1.374762
C70	C	-0.880674	1.121945	0.431637
C71	C	-0.547341	1.455279	0.764971
C72	C	-0.214007	1.788612	1.098304
C73	C	-0.921945	1.168990	0.384704
C74	C	-0.588612	1.502324	0.718038
C75	C	-0.255278	1.835657	1.051371
C76	C	-1.016352	1.164412	0.389341
C77	C	-0.683019	1.497746	0.722674
C78	C	-0.349686	1.831079	1.056008
C79	C	-0.786258	1.126522	0.427002
C80	C	-0.452925	1.459856	0.760335
C81	C	-0.119591	1.793189	1.093669
C82	C	-0.184272	1.156172	0.397556
C83	C	0.149061	1.489506	0.730889
C84	C	0.482395	1.822839	1.064223
C85	C	-0.091604	1.160765	0.393035
C86	C	0.241729	1.494098	0.726368
C87	C	0.575062	1.827431	1.059702
C88	C	-0.401738	0.518108	0.408186
C89	C	-0.068405	0.851441	0.741519
C90	C	0.264928	1.184774	1.074853
C91	C	-0.401734	0.609416	0.408174
C92	C	-0.068401	0.942750	0.741507
C93	C	0.264932	1.276083	1.074840
C94	C	-0.401736	0.682193	0.408168
C95	C	-0.068403	1.015526	0.741501
C96	C	0.264931	1.348859	1.074835
C97	C	-0.401731	0.773507	0.408157
C98	C	-0.068398	1.106841	0.741490
C99	C	0.264935	1.440174	1.074824
C100	C	-0.401742	1.355704	0.408188
C101	C	-0.068409	1.689037	0.741521
C102	C	0.264924	2.022371	1.074855
C103	C	-0.401748	1.445325	0.408198
C104	C	-0.068414	1.778658	0.741531
C105	C	0.264919	2.111991	1.074865
C106	C	-0.401747	1.145384	0.780878
C107	C	-0.068414	1.478718	1.114211
C108	C	0.264919	1.812051	1.447544
C109	C	-0.401744	1.145384	0.872186
C110	C	-0.068411	1.478717	1.205519
C111	C	0.264922	1.812050	1.538853
C112	C	-0.401737	1.145387	0.944962
C113	C	-0.068404	1.478721	1.278295
C114	C	0.264929	1.812054	1.611629
C115	C	-0.401735	1.145388	1.036276
C116	C	-0.068402	1.478721	1.369610
C117	C	0.264931	1.812054	1.702943
C118	C	-0.401737	1.145393	1.198674
C119	C	-0.068404	1.478727	1.532007
C120	C	0.264929	1.812060	1.865340
C121	C	-0.401728	1.145392	1.109052
C122	C	-0.068395	1.478725	1.442386
C123	C	0.264938	1.812058	1.775719
H124	H	-0.886376	1.212705	0.341041
H125	H	-0.553043	1.546038	0.674375
H126	H	-0.219709	1.879371	1.007708
O127	O	-0.923228	1.069811	0.483650
O128	O	-0.589894	1.403144	0.816983
O129	O	-0.256561	1.736478	1.150317
C130	C	-1.057498	1.017716	0.535797
C131	C	-0.724165	1.351049	0.869130
C132	C	-0.390831	1.684382	1.202463
C133	C	-1.009397	1.076782	0.476849
C134	C	-0.676064	1.410115	0.810182
C135	C	-0.342730	1.743448	1.143515
H136	H	-1.127174	1.023344	0.530330
H137	H	-0.793841	1.356677	0.863663
H138	H	-0.460508	1.690010	1.196997
H139	H	-1.040569	0.953499	0.520754
H140	H	-0.707235	1.286833	0.854088
H141	H	-0.373902	1.620166	1.187421
H142	H	-1.040352	1.032618	0.599995
H143	H	-0.707019	1.365951	0.933328
H144	H	-0.373686	1.699284	1.266661
H145	H	-1.026517	1.061954	0.412630
H146	H	-0.693184	1.395287	0.745964
H147	H	-0.359850	1.728620	1.079297
H148	H	-1.026331	1.140981	0.491960
H149	H	-0.692997	1.474314	0.825294
H150	H	-0.359664	1.807647	1.158627
