data_functionalizedCrystal
_audit_creation_method	'MofGen! by Chris Wilmer'
_symmetry_space_group_name_H-M	'P1'
_symmetry_Int_Tables_number	1
_symmetry_cell_setting	triclinic
loop_
_symmetry_equiv_pos_as_xyz
  x,y,z
_cell_length_a	8.559649
_cell_length_b	7.088929
_cell_length_c	8.559649
_cell_angle_alpha	95.344185
_cell_angle_beta	69.778664
_cell_angle_gamma	84.674985
loop_
_atom_site_label
_atom_site_type_symbol
_atom_site_fract_x
_atom_site_fract_y
_atom_site_fract_z
O1	O	2.108185	0.158958	-0.036318
O2	O	1.632699	0.158965	0.047464
O3	O	1.912333	0.158959	-0.232170
O4	O	1.828551	0.158964	0.243315
O5	O	1.949712	-0.159017	-0.269616
O6	O	1.670079	-0.159011	0.010018
O7	O	2.145564	-0.159018	-0.073764
Cu8	Cu	1.911235	-0.188048	-0.035292
Cu9	Cu	1.867029	0.187995	0.008992
O10	O	1.865931	-0.159012	0.205870
C11	C	1.591080	-0.000022	0.035090
C12	C	1.411380	-0.000019	0.053990
N13	N	1.942338	-0.452537	-0.066441
C14	C	2.187183	-0.000027	-0.061390
C15	C	2.366881	-0.000017	-0.080288
C16	C	1.937372	-0.000026	-0.311201
C17	C	1.956269	-0.000015	-0.490899
N18	N	1.835940	0.452484	0.040127
C19	C	1.840892	-0.000023	0.284902
C20	C	1.821992	-0.000021	0.464601
H21	H	1.311991	-0.000007	0.183419
H22	H	1.725671	-0.465867	0.150562
N23	N	1.498514	-0.000045	-0.251728
H24	H	1.443294	-0.000047	-0.338650
H25	H	1.556335	0.117828	-0.251673
N26	N	1.650552	0.000007	-0.403766
H27	H	1.563631	0.000003	-0.458987
H28	H	1.650586	-0.117863	-0.345967
N29	N	2.088431	-0.560682	-0.212724
H30	H	2.086243	-0.702632	-0.210515
H31	H	2.079580	-0.525802	-0.321383
N32	N	2.127722	-0.000048	-0.622537
H33	H	2.117383	-0.000064	-0.736560
H34	H	2.176385	0.117830	-0.595607
