data_functionalizedCrystal
_audit_creation_method	'MofGen! by Chris Wilmer'
_symmetry_space_group_name_H-M	'P1'
_symmetry_Int_Tables_number	1
_symmetry_cell_setting	triclinic
loop_
_symmetry_equiv_pos_as_xyz
  x,y,z
_cell_length_a	19.077236
_cell_length_b	16.959453
_cell_length_c	19.076919
_cell_angle_alpha	87.728832
_cell_angle_beta	90.112677
_cell_angle_gamma	92.312753
loop_
_atom_site_label
_atom_site_type_symbol
_atom_site_fract_x
_atom_site_fract_y
_atom_site_fract_z
Zn1	Zn	1.058311	-0.286927	0.440540
Zn2	Zn	1.558311	0.213073	0.940540
Zn3	Zn	1.062960	-0.413599	0.323032
Zn4	Zn	1.562960	0.086401	0.823032
Zn5	Zn	0.945527	-0.286513	0.318320
Zn6	Zn	1.445527	0.213487	0.818320
Zn7	Zn	0.940780	-0.424144	0.435771
Zn8	Zn	1.440780	0.075856	0.935771
O9	O	1.001895	-0.352796	0.379416
O10	O	1.501895	0.147204	0.879416
O11	O	1.157261	-0.299491	0.428921
O12	O	1.657261	0.200509	0.928921
O13	O	1.051314	-0.392154	0.224077
O14	O	1.551314	0.107846	0.724077
O15	O	0.960529	-0.175956	0.334557
O16	O	1.460529	0.324044	0.834557
O17	O	1.160677	-0.392556	0.342588
O18	O	1.660677	0.107444	0.842588
O19	O	1.043391	-0.176261	0.424351
O20	O	1.543391	0.323739	0.924351
O21	O	0.965037	-0.298785	0.220614
O22	O	1.465037	0.201215	0.720614
O23	O	0.846564	-0.309010	0.329932
O24	O	1.346564	0.190990	0.829932
O25	O	0.952439	-0.410529	0.534734
O26	O	1.452439	0.089471	1.034734
O27	O	0.843076	-0.410127	0.416222
O28	O	1.343076	0.089873	0.916222
O29	O	1.038789	-0.309716	0.538238
O30	O	1.538789	0.190284	1.038238
O31	O	1.046712	-0.525610	0.337964
O32	O	1.546712	-0.025610	0.837964
O33	O	0.956947	-0.533357	0.420792
O34	O	1.456947	-0.033357	0.920792
C35	C	0.819323	-0.360668	0.372049
C36	C	1.319323	0.139332	0.872049
C37	C	0.741218	-0.364056	0.368914
C38	C	1.241218	0.135944	0.868914
C39	C	0.702743	-0.317277	0.412458
C40	C	1.202743	0.182723	0.912458
C41	C	0.629355	-0.320456	0.409506
C42	C	1.129355	0.179544	0.909506
C43	C	0.594443	-0.370418	0.363013
C44	C	1.094443	0.129582	0.863013
C45	C	0.632923	-0.417199	0.319464
C46	C	1.132923	0.082801	0.819464
C47	C	0.706310	-0.414016	0.322413
C48	C	1.206310	0.085984	0.822413
C49	C	0.375150	-0.385123	0.349364
C50	C	0.875150	0.114877	0.849364
C51	C	0.301758	-0.388305	0.346420
C52	C	0.801758	0.111695	0.846420
C53	C	0.298196	-0.291560	0.436461
C54	C	0.798196	0.208440	0.936461
C55	C	0.371584	-0.288384	0.439409
C56	C	0.871584	0.211616	0.939409
C57	C	0.410058	-0.335162	0.395857
C58	C	0.910058	0.164838	0.895857
N59	N	0.519428	-0.373671	0.359996
N60	N	1.019428	0.126329	0.859996
N61	N	0.485071	-0.331905	0.398871
N62	N	0.985071	0.168095	0.898871
C63	C	1.001837	-0.558164	0.379388
C64	C	1.501837	-0.058164	0.879388
C65	C	1.001876	-0.646019	0.379402
C66	C	1.501876	-0.146019	0.879402
C67	C	1.045095	-1.017596	0.426259
C68	C	1.545095	-0.517596	0.926259
C69	C	0.958886	-1.017389	0.332685
C70	C	1.458886	-0.517389	0.832685
C71	C	0.958861	-0.934844	0.332668
C72	C	1.458861	-0.434844	0.832668
C73	C	1.001952	-0.893670	0.379448
C74	C	1.501952	-0.393670	0.879448
C75	C	1.045070	-0.935043	0.426245
C76	C	1.545070	-0.435043	0.926245
C77	C	0.915739	-0.893466	0.285876
C78	C	1.415739	-0.393466	0.785876
C79	C	0.915712	-0.810915	0.285858
C80	C	1.415712	-0.310915	0.785858
C81	C	0.958807	-0.769740	0.332635
C82	C	1.458807	-0.269740	0.832635
C83	C	1.001927	-0.811117	0.379433
C84	C	1.501927	-0.311117	0.879433
C85	C	1.045019	-0.769944	0.426213
C86	C	1.545019	-0.269944	0.926213
C87	C	1.088142	-0.811320	0.473009
C88	C	1.588142	-0.311320	0.973009
C89	C	1.088165	-0.893868	0.473022
C90	C	1.588165	-0.393868	0.973022
C91	C	0.958784	-0.687192	0.332622
C92	C	1.458784	-0.187192	0.832622
C93	C	1.044993	-0.687391	0.426199
C94	C	1.544993	-0.187391	0.926199
C95	C	1.185179	-0.344893	0.386812
C96	C	1.685179	0.155107	0.886812
C97	C	1.263284	-0.341526	0.389964
C98	C	1.763284	0.158474	0.889964
C99	C	0.994566	-0.361345	0.562695
C100	C	1.494566	0.138655	1.062695
C101	C	0.991443	-0.364988	0.640798
C102	C	1.491443	0.135012	1.140798
C103	C	1.001971	-0.146626	0.379460
C104	C	1.501971	0.353374	0.879460
C105	C	1.002004	-0.058769	0.379479
C106	C	1.502004	0.441231	0.879479
C107	C	1.009236	-0.344221	0.196851
C108	C	1.509236	0.155779	0.696851
C109	C	1.012495	-0.340350	0.118754
C110	C	1.512495	0.159650	0.618754
C111	C	1.034931	-0.314214	0.679316
C112	C	1.534931	0.185786	1.179316
C113	C	1.031987	-0.317635	0.752701
C114	C	1.531987	0.182365	1.252701
C115	C	0.985559	-0.371833	0.787567
C116	C	1.485559	0.128167	1.287567
C117	C	0.942067	-0.422609	0.749044
C118	C	1.442067	0.077391	1.249044
C119	C	0.945007	-0.419184	0.675660
C120	C	1.445007	0.080816	1.175660
C121	C	0.971942	-0.387701	1.006847
C122	C	1.471942	0.112299	1.506847
C123	C	0.969007	-0.391123	1.080236
C124	C	1.469007	0.108877	1.580236
C125	C	1.058927	-0.286147	1.083889
C126	C	1.558927	0.213853	1.583889
C127	C	1.061866	-0.282731	1.010503
C128	C	1.561866	0.217269	1.510503
C129	C	1.018371	-0.333504	0.971986
C130	C	1.518371	0.166496	1.471986
N131	N	0.982551	-0.375333	0.862579
N132	N	1.482551	0.124667	1.362579
N133	N	1.021376	-0.330000	0.896975
N134	N	1.521376	0.170000	1.396975
H135	H	0.273335	-0.428994	0.308559
H136	H	0.773335	0.071006	0.808559
H137	H	0.923670	-0.653508	0.294525
H138	H	1.423670	-0.153508	0.794525
C139	C	0.417462	-0.436579	0.301461
C140	C	0.917462	0.063421	0.801461
H141	H	0.386157	-0.466795	0.273356
H142	H	0.886157	0.033205	0.773356
H143	H	0.447311	-0.403622	0.272041
H144	H	0.947311	0.096378	0.772041
H145	H	0.445017	-0.471080	0.329437
H146	H	0.945017	0.028920	0.829437
C147	C	1.106765	-0.230296	1.126255
C148	C	1.606765	0.269704	1.626255
H149	H	1.134839	-0.197531	1.094980
H150	H	1.634839	0.302469	1.594980
H151	H	1.078752	-0.198351	1.153805
H152	H	1.578752	0.301649	1.653805
H153	H	1.136228	-0.260553	1.156112
H154	H	1.636228	0.239447	1.656112
C155	C	1.079828	-0.261787	0.795069
C156	C	1.579828	0.238213	1.295069
H157	H	1.107906	-0.229026	0.763794
H158	H	1.607906	0.270974	1.263794
H159	H	1.051817	-0.229838	0.822617
H160	H	1.551817	0.270162	1.322617
H161	H	1.109287	-0.292047	0.824926
H162	H	1.609287	0.207953	1.324926
H163	H	1.123224	-0.777787	0.511100
H164	H	1.623224	-0.277787	1.011100
H165	H	0.880599	-0.777232	0.247754
H166	H	1.380599	-0.277232	0.747754
H167	H	0.400005	-0.247702	0.477271
H168	H	0.900005	0.252298	0.977271
C169	C	0.890995	-0.482228	0.787391
C170	C	1.390995	0.017772	1.287391
H171	H	0.865512	-0.511972	0.753938
H172	H	1.365512	-0.011972	1.253938
H173	H	0.916716	-0.516846	0.817096
H174	H	1.416716	-0.016846	1.317096
H175	H	0.859240	-0.454643	0.814787
H176	H	1.359240	0.045357	1.314787
H177	H	1.123274	-0.927563	0.511120
H178	H	1.623274	-0.427563	1.011120
H179	H	0.604491	-0.457876	0.281605
H180	H	1.104491	0.042124	0.781605
C181	C	0.748631	-0.465479	0.274520
C182	C	1.248631	0.034521	0.774520
H183	H	0.717329	-0.495698	0.246413
H184	H	1.217329	0.004302	0.746413
H185	H	0.778484	-0.432525	0.245101
H186	H	1.278484	0.067475	0.745101
H187	H	0.776183	-0.499978	0.302502
H188	H	1.276183	0.000022	0.802502
C189	C	0.924106	-0.443553	0.964484
C190	C	1.424106	0.056447	1.464484
H191	H	0.932498	-0.433749	0.915785
H192	H	1.432498	0.066251	1.415785
H193	H	0.933889	-0.496779	0.976915
H194	H	1.433889	0.003221	1.476915
H195	H	0.876413	-0.434577	0.974607
H196	H	1.376413	0.065423	1.474607
H197	H	1.080086	-0.653873	0.464290
H198	H	1.580086	-0.153873	0.964290
H199	H	0.931197	-0.435260	1.108622
H200	H	1.431197	0.064740	1.608622
H201	H	1.080207	-1.051287	0.464357
H202	H	1.580207	-0.551287	0.964357
H203	H	0.909587	-0.460522	0.644298
H204	H	1.409587	0.039478	1.144298
H205	H	0.598032	-0.282365	0.444966
H206	H	1.098032	0.217635	0.944966
C207	C	0.741144	-0.262321	0.463601
C208	C	1.241144	0.237679	0.963601
H209	H	0.790361	-0.267128	0.459127
H210	H	1.290361	0.232872	0.959127
H211	H	0.729533	-0.209240	0.452920
H212	H	1.229533	0.290760	0.952920
H213	H	0.727234	-0.276701	0.510314
H214	H	1.227234	0.223299	1.010314
C215	C	0.255874	-0.240102	0.484357
C216	C	0.755874	0.259898	0.984357
H217	H	0.207168	-0.249146	0.475940
H218	H	0.707168	0.250854	0.975940
H219	H	0.266020	-0.253428	0.532035
H220	H	0.766020	0.246572	1.032035
H221	H	0.268319	-0.185976	0.474633
H222	H	0.768319	0.314024	0.974633
C223	C	0.911492	-1.062677	0.281230
C224	C	1.411492	-0.562677	0.781230
H225	H	0.917685	-1.117765	0.287938
H226	H	1.417685	-0.617765	0.787938
H227	H	0.863855	-1.051699	0.289561
H228	H	1.363855	-0.551699	0.789561
H229	H	0.923707	-1.046515	0.234438
H230	H	1.423707	-0.546515	0.734438
H231	H	0.880654	-0.926995	0.247793
H232	H	1.380654	-0.426995	0.747793
H233	H	1.072740	-0.270082	0.650934
H234	H	1.572740	0.229918	1.150934
C235	C	1.112937	-0.223112	0.972155
C236	C	1.612937	0.276888	1.472155
H237	H	1.138413	-0.193359	1.005606
H238	H	1.638413	0.306641	1.505606
H239	H	1.144688	-0.250696	0.944760
H240	H	1.644688	0.249304	1.444760
H241	H	1.087215	-0.188491	0.942449
H242	H	1.587215	0.311509	1.442449
