data_functionalizedCrystal
_audit_creation_method	'MofGen! by Chris Wilmer'
_symmetry_space_group_name_H-M	'P1'
_symmetry_Int_Tables_number	1
_symmetry_cell_setting	triclinic
loop_
_symmetry_equiv_pos_as_xyz
  x,y,z
_cell_length_a	18.050591
_cell_length_b	18.050589
_cell_length_c	10.686551
_cell_angle_alpha	85.590054
_cell_angle_beta	85.596624
_cell_angle_gamma	90.016540
loop_
_atom_site_label
_atom_site_type_symbol
_atom_site_fract_x
_atom_site_fract_y
_atom_site_fract_z
Zn1	Zn	1.167629	-0.263461	-0.713689
Zn2	Zn	1.500962	0.069872	-0.380356
Zn3	Zn	1.834296	0.403205	-0.047023
Zn4	Zn	1.158007	-0.397202	-0.502667
Zn5	Zn	1.491340	-0.063869	-0.169333
Zn6	Zn	1.824673	0.269465	0.164000
Zn7	Zn	1.033899	-0.273022	-0.502673
Zn8	Zn	1.367232	0.060312	-0.169339
Zn9	Zn	1.700566	0.393645	0.163994
Zn10	Zn	1.043408	-0.387610	-0.713592
Zn11	Zn	1.376742	-0.054276	-0.380259
Zn12	Zn	1.710075	0.279057	-0.046926
O13	O	1.100736	-0.330324	-0.608155
O14	O	1.434069	0.003010	-0.274822
O15	O	1.767402	0.336343	0.058511
O16	O	1.270279	-0.281216	-0.685735
O17	O	1.603612	0.052118	-0.352401
O18	O	1.936945	0.385451	-0.019068
O19	O	1.133537	-0.388745	-0.326083
O20	O	1.466870	-0.055412	0.007250
O21	O	1.800204	0.277922	0.340583
O22	O	1.051686	-0.167827	-0.530708
O23	O	1.385019	0.165507	-0.197374
O24	O	1.718352	0.498840	0.135959
O25	O	1.263209	-0.379475	-0.530697
O26	O	1.596543	-0.046141	-0.197364
O27	O	1.929876	0.287192	0.135969
O28	O	1.149936	-0.160803	-0.685741
O29	O	1.483270	0.172530	-0.352407
O30	O	1.816603	0.505864	-0.019074
O31	O	1.042356	-0.297510	-0.326088
O32	O	1.375689	0.035823	0.007246
O33	O	1.709022	0.369157	0.340579
O34	O	0.931234	-0.288208	-0.530614
O35	O	1.264567	0.045125	-0.197280
O36	O	1.597901	0.378458	0.136053
O37	O	1.067893	-0.363126	-0.890190
O38	O	1.401226	-0.029792	-0.556856
O39	O	1.734560	0.303541	-0.223523
O40	O	0.938221	-0.372396	-0.685576
O41	O	1.271554	-0.039062	-0.352242
O42	O	1.604887	0.294271	-0.018909
O43	O	1.159157	-0.271914	-0.890261
O44	O	1.492491	0.061419	-0.556927
O45	O	1.825824	0.394752	-0.223594
O46	O	1.142758	-0.499856	-0.530603
O47	O	1.476091	-0.166523	-0.197270
O48	O	1.809425	0.166810	0.136063
O49	O	1.058563	-0.492809	-0.685570
O50	O	1.391896	-0.159475	-0.352236
O51	O	1.725230	0.173858	-0.018903
C52	C	1.100670	-0.523278	-0.608103
C53	C	1.434003	-0.189945	-0.274769
C54	C	1.767336	0.143388	0.058564
C55	C	1.100711	-0.605823	-0.608123
C56	C	1.434045	-0.272490	-0.274789
C57	C	1.767378	0.060844	0.058544
C58	C	0.907780	-0.330299	-0.608086
C59	C	1.241114	0.003034	-0.274752
C60	C	1.574447	0.336368	0.058581
C61	C	0.825235	-0.330305	-0.608086
C62	C	1.158568	0.003028	-0.274752
C63	C	1.491901	0.336361	0.058581
C64	C	1.146632	-0.858448	-0.523992
C65	C	1.479965	-0.525114	-0.190658
C66	C	1.813299	-0.191781	0.142675
C67	C	1.077471	-0.810515	-0.492986
C68	C	1.410805	-0.477181	-0.159653
C69	C	1.744138	-0.143848	0.173681
C70	C	1.100809	-0.902939	-0.608220
C71	C	1.434142	-0.569606	-0.274886
C72	C	1.767476	-0.236272	0.058447
C73	C	1.169914	-0.803795	-0.639118
C74	C	1.503248	-0.470462	-0.305784
C75	C	1.836581	-0.137129	0.027549
C76	C	1.100764	-0.756956	-0.608169
C77	C	1.434098	-0.423623	-0.274836
C78	C	1.767431	-0.090290	0.058498
C79	C	1.031610	-0.856096	-0.577155
C80	C	1.364944	-0.522763	-0.243821
C81	C	1.698277	-0.189429	0.089512
C82	C	1.124101	-0.849378	-0.723340
C83	C	1.457435	-0.516045	-0.390007
C84	C	1.790768	-0.182712	-0.056674
C85	C	1.054896	-0.801466	-0.692378
C86	C	1.388229	-0.468132	-0.359045
C87	C	1.721563	-0.134799	-0.025712
C88	C	1.100835	-0.987036	-0.608246
C89	C	1.434169	-0.653703	-0.274912
C90	C	1.767502	-0.320369	0.058421
C91	C	1.100730	-0.672861	-0.608143
C92	C	1.434063	-0.339528	-0.274810
C93	C	1.767397	-0.006194	0.058524
C94	C	0.621972	-0.284458	-0.524012
C95	C	0.955305	0.048876	-0.190678
C96	C	1.288639	0.382209	0.142655
C97	C	0.571156	-0.353600	-0.492955
C98	C	0.904489	-0.020267	-0.159622
C99	C	1.237823	0.313066	0.173711
C100	C	0.674107	-0.330325	-0.608143
C101	C	1.007440	0.003008	-0.274809
C102	C	1.340774	0.336342	0.058524
C103	C	0.577841	-0.261206	-0.639196
C104	C	0.911174	0.072127	-0.305862
C105	C	1.244508	0.405460	0.027471
C106	C	0.528124	-0.330339	-0.608195
C107	C	0.861458	0.002995	-0.274862
C108	C	1.194791	0.336328	0.058471
C109	C	0.624375	-0.399506	-0.577026
C110	C	0.957709	-0.066173	-0.243693
C111	C	1.291042	0.267161	0.089640
C112	C	0.631067	-0.307064	-0.723320
C113	C	0.964401	0.026269	-0.389987
C114	C	1.297734	0.359603	-0.056654
C115	C	0.580276	-0.376251	-0.692308
C116	C	0.913609	-0.042918	-0.358974
C117	C	1.246942	0.290416	-0.025641
C118	C	0.758204	-0.330317	-0.608109
C119	C	1.091537	0.003017	-0.274776
C120	C	1.424870	0.336350	0.058558
C121	C	0.444029	-0.330355	-0.608229
C122	C	0.777363	0.002979	-0.274896
C123	C	1.110696	0.336312	0.058438
C124	C	1.294445	-0.330349	-0.608226
C125	C	1.627778	0.002985	-0.274893
C126	C	1.961111	0.336318	0.058441
C127	C	1.376992	-0.330359	-0.608256
C128	C	1.710325	0.002974	-0.274923
C129	C	2.043658	0.336307	0.058410
C130	C	1.115659	-0.315383	-0.937292
C131	C	1.448993	0.017950	-0.603958
C132	C	1.782326	0.351283	-0.270625
C133	C	1.122019	-0.309017	-1.077550
C134	C	1.455352	0.024317	-0.744217
C135	C	1.788686	0.357650	-0.410883
C136	C	1.100824	-0.136614	-0.608236
C137	C	1.434157	0.196719	-0.274902
C138	C	1.767490	0.530052	0.058431
C139	C	1.100861	-0.054067	-0.608270
C140	C	1.434194	0.279266	-0.274937
C141	C	1.767528	0.612600	0.058397
C142	C	1.085913	-0.345152	-0.280299
C143	C	1.419246	-0.011819	0.053034
C144	C	1.752580	0.321515	0.386367
C145	C	1.079697	-0.351310	-0.140042
C146	C	1.413031	-0.017976	0.193291
C147	C	1.746364	0.315357	0.526625
H148	H	1.185347	-0.883346	-0.452730
H149	H	1.518680	-0.550013	-0.119396
H150	H	1.852014	-0.216680	0.213937
Br151	Br	1.190533	-0.240550	-1.167219
Br152	Br	1.523866	0.092784	-0.833886
Br153	Br	1.857199	0.426117	-0.500553
H154	H	1.057747	-0.793269	-0.395609
H155	H	1.391080	-0.459936	-0.062276
H156	H	1.724414	-0.126603	0.271058
Br157	Br	0.934135	-0.894154	-0.533372
Br158	Br	1.267468	-0.560821	-0.200038
Br159	Br	1.600802	-0.227488	0.133295
Br160	Br	0.990201	-0.760197	-0.811069
Br161	Br	1.323535	-0.426864	-0.477736
Br162	Br	1.656868	-0.093531	-0.144402
Br163	Br	1.011199	-0.419786	-1.050377
Br164	Br	1.344533	-0.086453	-0.717044
Br165	Br	1.677866	0.246880	-0.383710
H166	H	0.640401	-0.245718	-0.452788
H167	H	0.973734	0.087615	-0.119454
H168	H	1.307068	0.420949	0.213879
H169	H	1.143844	-0.866640	-0.820690
H170	H	1.477178	-0.533307	-0.487356
H171	H	1.810511	-0.199974	-0.154023
H172	H	0.545013	-0.373285	-0.395574
H173	H	0.878347	-0.039952	-0.062241
H174	H	1.211680	0.293382	0.271092
Br175	Br	1.267349	-0.765581	-0.682708
Br176	Br	1.600683	-0.432247	-0.349375
Br177	Br	1.934016	-0.098914	-0.016042
H178	H	0.644769	-0.457987	-0.550676
H179	H	0.978102	-0.124653	-0.217342
H180	H	1.311436	0.208680	0.115991
Br181	Br	0.549780	-0.440987	-0.810933
Br182	Br	0.883113	-0.107653	-0.477599
Br183	Br	1.216446	0.225680	-0.144266
Br184	Br	0.674666	-0.274225	-0.885587
Br185	Br	1.007999	0.059108	-0.552253
Br186	Br	1.341333	0.392441	-0.218920
Br187	Br	0.543682	-0.163775	-0.682931
Br188	Br	0.877015	0.169559	-0.349598
Br189	Br	1.210349	0.502892	-0.016264
