data_functionalizedCrystal
_audit_creation_method	'MofGen! by Chris Wilmer'
_symmetry_space_group_name_H-M	'P1'
_symmetry_Int_Tables_number	1
_symmetry_cell_setting	triclinic
loop_
_symmetry_equiv_pos_as_xyz
  x,y,z
_cell_length_a	16.959455
_cell_length_b	16.959453
_cell_length_c	17.077396
_cell_angle_alpha	90.026431
_cell_angle_beta	90.019378
_cell_angle_gamma	90.020745
loop_
_atom_site_label
_atom_site_type_symbol
_atom_site_fract_x
_atom_site_fract_y
_atom_site_fract_z
Zn1	Zn	-1.208384	0.314792	-0.443851
Zn2	Zn	-1.208283	0.446980	-0.312590
Zn3	Zn	-1.076203	0.314807	-0.312599
Zn4	Zn	-1.076163	0.446920	-0.443814
O5	O	-1.142258	0.380875	-0.378214
O6	O	-1.318981	0.332345	-0.426451
O7	O	-1.190737	0.429478	-0.202744
O8	O	-1.093795	0.204194	-0.330030
O9	O	-1.318907	0.429463	-0.330014
O10	O	-1.190908	0.204183	-0.426460
O11	O	-1.093698	0.332371	-0.202751
O12	O	-0.965586	0.332314	-0.329994
O13	O	-1.093728	0.429362	-0.553666
O14	O	-0.965558	0.429377	-0.426396
O15	O	-1.190870	0.332288	-0.553693
O16	O	-1.190698	0.557583	-0.329977
O17	O	-1.093631	0.557539	-0.426387
C18	C	-0.936892	0.380841	-0.378192
C19	C	-0.849035	0.380845	-0.378202
C20	C	-1.142171	0.586241	-0.378194
C21	C	-1.142206	0.674098	-0.378212
C22	C	-0.477550	0.330267	-0.328111
C23	C	-0.477569	0.431497	-0.428340
C24	C	-0.560115	0.431488	-0.428337
C25	C	-0.601382	0.380870	-0.378219
C26	C	-0.560104	0.330259	-0.328104
C27	C	-0.601400	0.482104	-0.478444
C28	C	-0.683950	0.482098	-0.478442
C29	C	-0.725219	0.431475	-0.428328
C30	C	-0.683936	0.380862	-0.378212
C31	C	-0.725203	0.330243	-0.328094
C32	C	-0.683921	0.279625	-0.277982
C33	C	-0.601373	0.279636	-0.277990
C34	C	-0.807768	0.431464	-0.428320
C35	C	-0.807757	0.330235	-0.328088
C36	C	-0.348426	0.380900	-0.378231
C37	C	-0.436283	0.380886	-0.378229
C38	C	-1.142306	0.380816	-0.582958
C39	C	-1.142326	0.380792	-0.670208
C40	C	-1.091641	0.715378	-0.428375
C41	C	-1.192808	0.715371	-0.328071
C42	C	-1.192845	0.797917	-0.328089
C43	C	-1.142281	0.839197	-0.378251
C44	C	-1.091679	0.797931	-0.428396
C45	C	-1.243452	0.839189	-0.277951
C46	C	-1.243492	0.921739	-0.277968
C47	C	-1.192923	0.963021	-0.328127
C48	C	-1.142319	0.921750	-0.378273
C49	C	-1.091754	0.963031	-0.428435
C50	C	-1.041145	0.921762	-0.478578
C51	C	-1.041110	0.839213	-0.478555
C52	C	-1.192958	1.045570	-0.328150
C53	C	-1.091792	1.045584	-0.428456
C54	C	-1.142362	1.174706	-0.378262
C55	C	-1.142394	1.086850	-0.378312
C56	C	-1.192910	0.330241	-0.711214
C57	C	-1.192919	0.330215	-0.793194
C58	C	-1.142349	0.380744	-0.834167
C59	C	-1.091760	0.431297	-0.793156
C60	C	-1.091747	0.431318	-0.711177
C61	C	-1.091791	0.431249	-0.964026
C62	C	-1.091805	0.431229	-1.046011
C63	C	-1.192964	0.330145	-1.046043
C64	C	-1.192951	0.330167	-0.964064
C65	C	-1.142363	0.380721	-0.923058
C66	C	-1.142256	0.380876	-0.174266
C67	C	-1.142389	0.380678	-0.087016
H68	H	-0.841351	0.289010	-0.287280
Br69	Br	-0.545391	0.550826	-0.546428
Br70	Br	-0.545343	0.210946	-0.209988
H71	H	-1.233980	0.681758	-0.287234
H72	H	-0.443964	0.472713	-0.469139
Br73	Br	-0.863791	0.500160	-0.496316
H74	H	-0.717532	0.238415	-0.237173
H75	H	-0.999979	0.955383	-0.519423
Br76	Br	-1.312174	0.977741	-0.209919
Br77	Br	-0.421529	0.261569	-0.260111
H78	H	-1.234112	0.289053	-0.826577
Br79	Br	-1.022959	0.659374	-0.496420
H80	H	-1.050615	1.079189	-0.469305
Br81	Br	-1.261591	0.261598	-0.908458
Br82	Br	-1.023165	0.499796	-1.101617
H83	H	-0.717555	0.523314	-0.519247
Br84	Br	-0.972440	0.783201	-0.546607
Br85	Br	-1.261623	0.261539	-1.101693
H86	H	-1.284624	0.805576	-0.237114
H87	H	-1.234168	1.079167	-0.287329
Br88	Br	-1.261552	0.261668	-0.655615
Br89	Br	-1.023132	0.499856	-0.908376
H90	H	-1.050581	0.472435	-0.826523
H91	H	-1.050548	0.472474	-0.677791
