data_functionalizedCrystal
_audit_creation_method	'MofGen! by Chris Wilmer'
_symmetry_space_group_name_H-M	'P1'
_symmetry_Int_Tables_number	1
_symmetry_cell_setting	triclinic
loop_
_symmetry_equiv_pos_as_xyz
  x,y,z
_cell_length_a	17.699104
_cell_length_b	13.262508
_cell_length_c	16.176319
_cell_angle_alpha	105.911538
_cell_angle_beta	89.991696
_cell_angle_gamma	83.885886
loop_
_atom_site_label
_atom_site_type_symbol
_atom_site_fract_x
_atom_site_fract_y
_atom_site_fract_z
O1	O	1.004660	0.132831	-0.038895
O2	O	0.784361	0.150076	-0.035015
O3	O	0.900056	-0.011347	-0.071308
O4	O	0.888965	0.294253	-0.002601
O5	O	0.900040	-0.011357	0.066182
O6	O	0.784345	0.150065	0.102476
O7	O	1.004644	0.132820	0.098596
Cu8	Cu	0.894493	0.141442	0.113090
Cu9	Cu	0.894512	0.141454	-0.049509
O10	O	0.888949	0.294243	0.134890
C11	C	0.756153	0.149449	0.033591
C12	C	0.672128	0.147584	0.033173
C13	C	0.147632	0.231818	0.052102
C14	C	0.226584	0.233564	0.052492
C15	C	0.274779	0.138803	0.031188
C16	C	0.244020	0.042289	0.009483
C17	C	0.165069	0.040545	0.009087
C18	C	0.562417	0.049324	0.011078
C19	C	0.641372	0.051077	0.011478
C20	C	0.623931	0.242344	0.054483
C21	C	0.544981	0.240599	0.054087
C22	C	0.514228	0.144086	0.032378
C23	C	0.428620	0.142194	0.031954
C24	C	0.360386	0.140694	0.031618
C25	C	0.899428	-0.050453	-0.011356
C26	C	0.897571	-0.166962	-0.037555
C27	C	0.892296	-0.495417	0.188387
C28	C	0.894035	-0.385950	0.213004
C29	C	0.894919	-0.331198	0.150366
C30	C	0.894064	-0.385923	0.063107
C31	C	0.892318	-0.495400	0.038488
C32	C	0.894942	-0.331181	0.000467
C33	C	0.894086	-0.385906	-0.086792
C34	C	0.892341	-0.495372	-0.111407
C35	C	0.891457	-0.550124	-0.048769
C36	C	0.896687	-0.221704	0.025086
C37	C	0.896709	-0.221687	-0.124812
C38	C	0.894970	-0.331154	-0.149429
C39	C	1.032852	0.133447	0.029989
C40	C	1.116877	0.135312	0.030402
C41	C	0.889577	0.333349	0.074936
C42	C	0.891435	0.449858	0.101130
N43	N	0.894485	0.141433	0.227453
N44	N	0.894526	0.141455	-0.163874
C45	C	0.945731	0.069984	0.254653
C46	C	0.945735	0.069983	0.341200
C47	C	0.894496	0.141436	0.400547
C48	C	0.843245	0.212889	0.373342
C49	C	0.843238	0.212884	0.286795
C50	C	0.843271	0.212908	0.722374
C51	C	0.843283	0.212910	0.808926
C52	C	0.945768	0.070007	0.776779
C53	C	0.945761	0.070003	0.690233
C54	C	0.894507	0.141451	0.663034
C55	C	0.894503	0.141450	0.569190
C56	C	0.894504	0.141443	0.494391
H57	H	0.648979	0.320930	0.072156
H58	H	0.987458	0.011803	0.206338
O59	O	0.688083	-0.041077	-0.009285
C60	C	0.644011	-0.126637	-0.028513
H61	H	0.585180	-0.099845	-0.048521
H62	H	0.638286	-0.156245	0.030789
C63	C	0.755332	-0.249201	-0.078023
C64	C	0.683077	-0.216296	-0.102604
H65	H	0.779430	-0.304509	-0.123723
H66	H	0.785024	-0.191558	-0.065066
H67	H	0.750551	-0.273867	-0.028603
H68	H	0.687859	-0.191618	-0.152016
H69	H	0.653385	-0.273937	-0.115571
O70	O	0.290756	-0.049833	-0.011121
C71	C	0.276767	-0.108437	0.046919
H72	H	0.216962	-0.082511	0.076486
H73	H	0.319985	-0.094206	0.099984
C74	C	0.357347	-0.258541	-0.037621
C75	C	0.283890	-0.226704	-0.001311
H76	H	0.361744	-0.331494	-0.067369
H77	H	0.366774	-0.219057	-0.076722
H78	H	0.393354	-0.246673	0.006608
H79	H	0.247886	-0.238559	-0.045540
H80	H	0.274457	-0.266192	0.037782
H81	H	0.801522	0.271064	0.421666
H82	H	0.897377	-0.177156	0.096133
O83	O	0.256485	0.327291	0.073406
C84	C	0.301643	0.334013	0.003709
H85	H	0.282808	0.279197	-0.058372
H86	H	0.363823	0.309666	0.014328
C87	C	0.315553	0.515615	0.073341
C88	C	0.292415	0.448296	-0.002909
H89	H	0.309865	0.586111	0.069260
H90	H	0.285132	0.511087	0.120299
H91	H	0.367368	0.495314	0.082182
H92	H	0.240599	0.468590	-0.011742
H93	H	0.322828	0.452831	-0.049869
H94	H	0.891570	-0.540006	0.239377
O95	O	0.891607	-0.548675	-0.196144
C96	C	0.956079	-0.624023	-0.217569
H97	H	0.977632	-0.644435	-0.157080
H98	H	1.002603	-0.590269	-0.246965
C99	C	0.908073	-0.699283	-0.357264
C100	C	0.934541	-0.724360	-0.282972
H101	H	0.894789	-0.761174	-0.397610
H102	H	0.864638	-0.648517	-0.342831
H103	H	0.946847	-0.671153	-0.381750
H104	H	0.895764	-0.752477	-0.258481
H105	H	0.977969	-0.775133	-0.297402
O106	O	0.135066	-0.053110	-0.012006
C107	C	0.055049	-0.034332	-0.007769
H108	H	0.036779	0.047624	-0.015372
H109	H	0.033046	-0.039368	0.057059
C110	C	0.044485	-0.218385	-0.071105
C111	C	0.022045	-0.117729	-0.080451
H112	H	0.024126	-0.269830	-0.115935
H113	H	0.098394	-0.231038	-0.073957
H114	H	0.026147	-0.222566	-0.017078
H115	H	0.040391	-0.113545	-0.134471
H116	H	-0.031862	-0.105077	-0.077609
H117	H	0.537388	-0.029262	-0.006597
H118	H	0.987486	0.011822	0.641915
H119	H	0.505743	0.317764	0.071440
H120	H	0.896334	-0.242065	0.170415
O121	O	0.894913	-0.332964	0.297795
C122	C	0.893747	-0.404758	0.347802
H123	H	0.916429	-0.487194	0.307287
H124	H	0.832916	-0.405237	0.370752
C125	C	0.916151	-0.269926	0.475917
C126	C	0.944015	-0.371174	0.426158
H127	H	0.947155	-0.249208	0.524253
H128	H	0.916933	-0.221555	0.442227
H129	H	0.865458	-0.270338	0.495033
H130	H	0.994702	-0.370757	0.407034
H131	H	0.943242	-0.419544	0.459847
O132	O	0.893993	-0.384350	-0.234170
C133	C	0.827522	-0.435646	-0.250164
H134	H	0.782286	-0.394227	-0.198321
H135	H	0.840998	-0.521332	-0.249280
C136	C	0.853373	-0.482752	-0.402532
C137	C	0.797812	-0.431874	-0.338863
H138	H	0.835047	-0.480430	-0.457247
H139	H	0.898157	-0.448197	-0.391758
H140	H	0.864598	-0.554152	-0.401784
H141	H	0.786594	-0.360473	-0.339604
H142	H	0.753024	-0.466417	-0.349639
O143	O	0.793429	0.282357	0.866457
C144	C	0.748200	0.345433	0.823897
H145	H	0.747208	0.302403	0.752533
H146	H	0.773005	0.423369	0.832202
C147	C	0.667848	0.420034	0.950241
C148	C	0.666623	0.367180	0.862591
H149	H	0.617528	0.433453	0.974111
H150	H	0.698321	0.377542	0.978916
H151	H	0.688522	0.484974	0.957150
H152	H	0.645959	0.302236	0.855685
H153	H	0.636145	0.409662	0.833916
O154	O	0.897433	-0.168398	-0.185599
C155	C	0.832944	-0.093078	-0.173130
H156	H	0.811405	-0.072656	-0.103454
H157	H	0.786420	-0.126866	-0.217670
C158	C	0.880897	-0.017829	-0.279044
C159	C	0.854446	0.007260	-0.193464
H160	H	0.894158	0.044062	-0.291590
H161	H	0.924343	-0.068576	-0.287447
H162	H	0.842123	-0.045988	-0.316150
H163	H	0.893223	0.035405	-0.156359
H164	H	0.811006	0.058014	-0.185055
H165	H	0.801508	0.271063	0.264651
H166	H	0.987499	0.011827	0.798932
O167	O	0.995596	0.000550	0.367487
C168	C	1.040813	-0.062525	0.296547
H169	H	1.041785	-0.019498	0.244522
H170	H	1.016012	-0.140465	0.269837
C171	C	1.121202	-0.137108	0.389310
C172	C	1.122400	-0.084257	0.325415
H173	H	1.171528	-0.150518	0.407117
H174	H	1.090737	-0.094616	0.437104
H175	H	1.100531	-0.202052	0.367042
H176	H	1.143062	-0.019309	0.347686
H177	H	1.152871	-0.126738	0.277625
O178	O	0.793422	0.282176	0.695889
C179	C	0.746562	0.226054	0.633207
H180	H	0.745020	0.143286	0.640687
H181	H	0.770228	0.220508	0.566365
C182	C	0.667383	0.385705	0.635742
C183	C	0.665483	0.284050	0.644933
H184	H	0.617370	0.421481	0.642971
H185	H	0.698955	0.423517	0.677969
H186	H	0.687108	0.381069	0.580040
H187	H	0.645767	0.288688	0.700638
H188	H	0.633906	0.246240	0.602715
O189	O	0.100926	0.323968	0.072783
C190	C	0.145006	0.409520	0.092038
H191	H	0.203844	0.382726	0.059988
H192	H	0.150711	0.439109	0.164653
C193	C	0.033701	0.532106	0.097641
C194	C	0.105966	0.499199	0.058270
H195	H	0.009619	0.587427	0.076816
H196	H	0.004003	0.474469	0.084672
H197	H	0.038466	0.556756	0.158151
H198	H	0.101200	0.474537	-0.002237
H199	H	0.135662	0.556834	0.071229
H200	H	0.890045	-0.639262	-0.068808
