data_functionalizedCrystal
_audit_creation_method	'MofGen! by Chris Wilmer'
_symmetry_space_group_name_H-M	'P1'
_symmetry_Int_Tables_number	1
_symmetry_cell_setting	triclinic
loop_
_symmetry_equiv_pos_as_xyz
  x,y,z
_cell_length_a	12.759401
_cell_length_b	16.120484
_cell_length_c	12.759393
_cell_angle_alpha	92.864008
_cell_angle_beta	89.979062
_cell_angle_gamma	92.926992
loop_
_atom_site_label
_atom_site_type_symbol
_atom_site_fract_x
_atom_site_fract_y
_atom_site_fract_z
Zn1	Zn	1.584985	-0.331832	-0.615183
Zn2	Zn	1.575933	-0.471268	-0.448395
Zn3	Zn	1.409280	-0.331877	-0.439521
Zn4	Zn	1.400336	-0.471209	-0.624029
O5	O	1.492634	-0.401546	-0.531782
O6	O	1.730804	-0.350334	-0.593070
O7	O	1.553781	-0.452820	-0.300200
O8	O	1.440119	-0.215205	-0.455406
O9	O	1.724154	-0.452777	-0.470532
O10	O	1.569208	-0.215173	-0.584465
O11	O	1.431342	-0.350410	-0.293680
O12	O	1.261073	-0.350354	-0.463984
O13	O	1.424875	-0.452678	-0.769874
O14	O	1.254502	-0.452721	-0.599541
O15	O	1.560535	-0.350278	-0.763375
O16	O	1.545108	-0.587925	-0.479110
O17	O	1.416098	-0.587883	-0.608147
C18	C	1.219667	-0.401536	-0.531760
C19	C	1.102889	-0.401552	-0.531777
C20	C	1.044628	-0.454936	-0.602261
C21	C	0.934904	-0.454939	-0.602282
C22	C	0.941712	-0.348172	-0.461326
C23	C	1.051434	-0.348166	-0.461311
C24	C	1.478679	-0.618154	-0.545574
C25	C	1.472805	-0.710820	-0.551509
C26	C	1.462088	-0.880481	-0.562368
C27	C	1.523367	-0.921772	-0.501213
C28	C	1.517404	-1.016177	-0.507255
C29	C	1.468050	-0.786067	-0.556327
C30	C	1.766666	-0.401557	-0.531804
C31	C	1.883442	-0.401562	-0.531814
C32	C	1.492717	-0.401466	-0.805810
C33	C	1.492753	-0.401432	-0.922585
C34	C	1.506671	-0.184093	-0.517959
C35	C	1.512653	-0.091427	-0.512068
C36	C	1.563397	-0.348104	-0.974064
C37	C	1.563417	-0.348068	-1.083786
C38	C	1.422146	-0.454696	-1.090540
C39	C	1.422122	-0.454727	-0.980820
C40	C	1.492614	-0.401566	-0.258816
C41	C	1.492797	-0.401365	-0.142027
H42	H	1.098873	-0.304689	-0.403914
H43	H	0.899804	-0.304708	-0.403953
O44	O	1.394269	-0.922848	-0.630381
C45	C	1.418463	-0.901551	-0.733781
H46	H	1.503881	-0.877478	-0.737662
H47	H	1.405838	-0.958841	-0.789264
H48	H	1.365237	-0.851115	-0.758030
H49	H	1.364587	-0.498152	-0.938905
O50	O	1.631894	-0.296210	-0.917534
C51	C	1.614315	-0.213112	-0.939085
H52	H	1.530661	-0.208894	-0.968962
H53	H	1.626009	-0.171942	-0.864315
H54	H	1.672060	-0.191305	-1.001400
O55	O	1.631896	-0.296175	-1.133830
C56	C	1.575572	-0.242315	-1.193877
H57	H	1.493150	-0.237174	-1.160470
H58	H	1.617713	-0.178157	-1.191042
H59	H	1.570307	-0.268061	-1.278673
O60	O	1.591202	-0.879238	-0.433355
C61	C	1.582138	-0.793082	-0.442359
H62	H	1.501772	-0.781332	-0.475970
H63	H	1.591343	-0.759964	-0.361589
H64	H	1.645969	-0.768282	-0.496797
O65	O	1.353689	-0.506556	-1.147166
C66	C	1.410041	-0.560375	-1.214082
H67	H	1.492447	-0.565539	-1.181356
H68	H	1.367899	-0.624532	-1.219399
H69	H	1.415346	-0.534575	-1.295599
O70	O	1.094572	-0.506698	-0.670862
C71	C	1.068957	-0.488588	-0.774459
H72	H	1.043087	-0.421992	-0.775661
H73	H	1.140674	-0.495813	-0.826801
H74	H	1.002401	-0.533314	-0.804687
O75	O	0.878270	-0.506679	-0.670853
C76	C	0.817872	-0.459285	-0.735789
H77	H	0.855171	-0.393628	-0.738233
H78	H	0.814725	-0.489518	-0.818503
H79	H	0.734885	-0.456386	-0.703142
