data_functionalizedCrystal
_audit_creation_method	'MofGen! by Chris Wilmer'
_symmetry_space_group_name_H-M	'P1'
_symmetry_Int_Tables_number	1
_symmetry_cell_setting	triclinic
loop_
_symmetry_equiv_pos_as_xyz
  x,y,z
_cell_length_a	19.188905
_cell_length_b	27.732048
_cell_length_c	18.266242
_cell_angle_alpha	89.988683
_cell_angle_beta	89.983837
_cell_angle_gamma	82.888605
loop_
_atom_site_label
_atom_site_type_symbol
_atom_site_fract_x
_atom_site_fract_y
_atom_site_fract_z
O1	O	0.925776	0.060290	-0.061009
O2	O	1.259109	0.393624	0.272324
O3	O	1.592443	0.726957	0.605657
O4	O	0.722410	0.068427	-0.060985
O5	O	1.055744	0.401760	0.272348
O6	O	1.389077	0.735093	0.605681
O7	O	0.830409	-0.006019	-0.060984
O8	O	1.163742	0.327314	0.272349
O9	O	1.497076	0.660647	0.605682
O10	O	0.817777	0.134736	-0.061011
O11	O	1.151110	0.468070	0.272323
O12	O	1.484444	0.801403	0.605656
O13	O	0.830391	-0.006023	0.060778
O14	O	1.163724	0.327310	0.394111
O15	O	1.497058	0.660644	0.727444
O16	O	0.722392	0.068423	0.060777
O17	O	1.055725	0.401756	0.394110
O18	O	1.389059	0.735090	0.727443
O19	O	0.925758	0.060287	0.060753
O20	O	1.259091	0.393620	0.394086
O21	O	1.592424	0.726953	0.727419
Zn22	Zn	0.824072	0.064354	0.080097
Zn23	Zn	1.157405	0.397687	0.413430
Zn24	Zn	1.490739	0.731021	0.746764
Zn25	Zn	0.824096	0.064359	-0.080330
Zn26	Zn	1.157429	0.397692	0.253004
Zn27	Zn	1.490763	0.731026	0.586337
O28	O	0.817759	0.134733	0.060751
O29	O	1.151092	0.468066	0.394085
O30	O	1.484425	0.801399	0.727418
C31	C	0.696391	0.068163	-0.000101
C32	C	1.029725	0.401497	0.333232
C33	C	1.363058	0.734830	0.666566
C34	C	0.618891	0.067379	-0.000091
C35	C	0.952224	0.400712	0.333242
C36	C	1.285558	0.734045	0.666575
C37	C	0.582512	0.067004	-0.066466
C38	C	0.915845	0.400337	0.266868
C39	C	1.249178	0.733670	0.600201
C40	C	0.509693	0.066261	-0.066475
C41	C	0.843026	0.399594	0.266859
C42	C	1.176359	0.732927	0.600192
C43	C	0.473258	0.065883	-0.000106
C44	C	0.806591	0.399216	0.333228
C45	C	1.139925	0.732550	0.666561
C46	C	0.509646	0.066261	0.066278
C47	C	0.842979	0.399594	0.399611
C48	C	1.176312	0.732927	0.732944
C49	C	0.582462	0.067009	0.066285
C50	C	0.915796	0.400342	0.399618
C51	C	1.249129	0.733675	0.732951
N52	N	0.364413	0.037200	0.049292
N53	N	0.697747	0.370533	0.382625
N54	N	1.031080	0.703867	0.715959
N55	N	0.295241	0.036489	0.049281
N56	N	0.628574	0.369822	0.382614
N57	N	0.961908	0.703155	0.715947
C58	C	0.253866	0.063631	-0.000123
C59	C	0.587199	0.396965	0.333211
C60	C	0.920532	0.730298	0.666544
N61	N	0.284277	0.091506	-0.049526
N62	N	0.617611	0.424839	0.283807
N63	N	0.950944	0.758173	0.617141
N64	N	0.353457	0.092215	-0.049517
N65	N	0.686790	0.425549	0.283817
N66	N	1.020123	0.758882	0.617150
C67	C	0.394301	0.065073	-0.000106
C68	C	0.727634	0.398406	0.333228
C69	C	1.060967	0.731739	0.666561
C70	C	0.138528	0.062451	-0.066511
C71	C	0.471861	0.395785	0.266822
C72	C	0.805194	0.729118	0.600155
C73	C	0.065707	0.061712	-0.066518
C74	C	0.399040	0.395045	0.266816
C75	C	0.732373	0.728378	0.600149
C76	C	0.065662	0.061707	0.066237
C77	C	0.398995	0.395040	0.399570
C78	C	0.732329	0.728373	0.732903
C79	C	0.138481	0.062452	0.066241
C80	C	0.471814	0.395785	0.399574
C81	C	0.805147	0.729118	0.732907
C82	C	0.174909	0.062822	-0.000135
C83	C	0.508243	0.396155	0.333198
C84	C	0.841576	0.729488	0.666531
C85	C	0.830135	-0.024029	-0.000101
C86	C	1.163468	0.309304	0.333232
C87	C	1.496802	0.642638	0.666566
C88	C	0.829336	-0.077686	-0.000095
C89	C	1.162670	0.255647	0.333238
C90	C	1.496003	0.588981	0.666572
C91	C	0.888130	-0.416325	-0.000140
C92	C	1.221463	-0.082992	0.333194
C93	C	1.554797	0.250342	0.666527
C94	C	0.885167	-0.617994	-0.000149
C95	C	1.218501	-0.284660	0.333184
C96	C	1.551834	0.048673	0.666517
O97	O	0.938930	-0.649088	-0.000188
O98	O	1.272263	-0.315755	0.333146
O99	O	1.605597	0.017578	0.666479
N100	N	0.821129	-0.637309	-0.000141
N101	N	1.154462	-0.303976	0.333192
N102	N	1.487795	0.029358	0.666525
C103	C	0.757826	-0.606204	-0.000135
C104	C	1.091159	-0.272871	0.333198
C105	C	1.424492	0.060463	0.666531
O106	O	0.703289	-0.627261	-0.000136
O107	O	1.036622	-0.293927	0.333197
O108	O	1.369955	0.039406	0.666531
C109	C	0.760789	-0.404537	-0.000131
C110	C	1.094122	-0.071203	0.333203
C111	C	1.427456	0.262130	0.666536
C112	C	0.824832	-0.385224	-0.000131
C113	C	1.158165	-0.051891	0.333202
C114	C	1.491499	0.281443	0.666535
C115	C	0.952168	-0.397012	-0.000141
C116	C	1.285501	-0.063679	0.333192
C117	C	1.618835	0.269655	0.666525
C118	C	0.952908	-0.346598	-0.000135
C119	C	1.286241	-0.013265	0.333199
C120	C	1.619574	0.320069	0.666532
C121	C	0.889610	-0.315497	-0.000127
C122	C	1.222943	0.017837	0.333207
C123	C	1.556277	0.351170	0.666540
C124	C	0.825572	-0.334810	-0.000125
C125	C	1.158905	-0.001477	0.333208
C126	C	1.492239	0.331857	0.666542
C127	C	0.697487	-0.373432	-0.000130
C128	C	1.030820	-0.040099	0.333203
C129	C	1.364154	0.293234	0.666537
C130	C	0.698234	-0.323013	-0.000131
C131	C	1.031567	0.010320	0.333203
C132	C	1.364900	0.343654	0.666536
C133	C	0.762277	-0.303700	-0.000132
C134	C	1.095610	0.029633	0.333202
C135	C	1.428943	0.362966	0.666535
C136	C	0.763014	-0.253295	-0.000110
C137	C	1.096347	0.080039	0.333223
C138	C	1.429681	0.413372	0.666556
N139	N	0.827053	-0.233979	-0.000119
N140	N	1.160386	0.099354	0.333215
N141	N	1.493720	0.432688	0.666548
C142	C	0.890351	-0.265080	-0.000127
C143	C	1.223684	0.068253	0.333207
C144	C	1.557018	0.401586	0.666540
C145	C	0.756275	-0.712083	-0.000136
C146	C	1.089608	-0.378750	0.333197
C147	C	1.422941	-0.045416	0.666530
C148	C	0.755534	-0.762499	-0.000136
C149	C	1.088867	-0.429166	0.333197
C150	C	1.422200	-0.095833	0.666531
C151	C	0.882876	-0.774286	-0.000152
C152	C	1.216209	-0.440952	0.333182
C153	C	1.549542	-0.107619	0.666515
C154	C	0.883616	-0.723868	-0.000147
C155	C	1.216949	-0.390535	0.333187
C156	C	1.550282	-0.057201	0.666520
C157	C	0.820313	-0.692767	-0.000145
C158	C	1.153647	-0.359434	0.333189
C159	C	1.486980	-0.026101	0.666522
C160	C	0.891900	-0.159206	-0.000113
C161	C	1.225233	0.174127	0.333221
C162	C	1.558567	0.507460	0.666554
C163	C	0.892634	-0.108787	-0.000103
C164	C	1.225968	0.224546	0.333230
C165	C	1.559301	0.557879	0.666564
C166	C	0.765293	-0.097006	-0.000091
C167	C	1.098626	0.236328	0.333242
C168	C	1.431959	0.569661	0.666575
C169	C	0.764558	-0.147420	-0.000097
C170	C	1.097891	0.185913	0.333236
C171	C	1.431225	0.519246	0.666570
C172	C	0.827867	-0.178520	-0.000110
C173	C	1.161201	0.154813	0.333223
C174	C	1.494534	0.488147	0.666556
O175	O	0.709280	-0.222172	-0.000080
O176	O	1.042614	0.111162	0.333253
O177	O	1.375947	0.444495	0.666586
O178	O	0.944880	-0.244014	-0.000142
O179	O	1.278213	0.089319	0.333191
O180	O	1.611547	0.422652	0.666524
C181	C	0.887390	-0.466739	-0.000146
C182	C	1.220723	-0.133406	0.333187
C183	C	1.554057	0.199927	0.666521
C184	C	0.823352	-0.486052	-0.000144
C185	C	1.156686	-0.152719	0.333189
C186	C	1.490019	0.180614	0.666522
C187	C	0.760054	-0.454951	-0.000136
C188	C	1.093388	-0.121618	0.333197
C189	C	1.426721	0.211715	0.666530
C190	C	0.822611	-0.536469	-0.000144
C191	C	1.155945	-0.203136	0.333189
C192	C	1.489278	0.130198	0.666522
C193	C	0.885909	-0.567570	-0.000152
C194	C	1.219242	-0.234237	0.333181
C195	C	1.552576	0.099097	0.666514
C196	C	0.949948	-0.548255	-0.000161
C197	C	1.283281	-0.214921	0.333173
C198	C	1.616615	0.118412	0.666506
C199	C	0.950688	-0.497840	-0.000154
C200	C	1.284021	-0.164507	0.333179
C201	C	1.617355	0.168826	0.666513
C202	C	0.696015	-0.474267	-0.000128
C203	C	1.029349	-0.140933	0.333205
C204	C	1.362682	0.192400	0.666539
C205	C	0.695281	-0.524681	-0.000134
C206	C	1.028614	-0.191348	0.333200
C207	C	1.361947	0.141985	0.666533
C208	C	0.758579	-0.555783	-0.000142
C209	C	1.091912	-0.222449	0.333192
C210	C	1.425245	0.110884	0.666525
C211	C	0.951776	0.060550	-0.000133
C212	C	1.285110	0.393883	0.333200
C213	C	1.618443	0.727217	0.666533
C214	C	1.029277	0.061335	-0.000148
C215	C	1.362610	0.394668	0.333186
C216	C	1.695944	0.728001	0.666519
C217	C	0.818033	0.152742	-0.000133
C218	C	1.151366	0.486076	0.333200
C219	C	1.484700	0.819409	0.666533
C220	C	0.818831	0.206399	-0.000144
C221	C	1.152165	0.539733	0.333189
C222	C	1.485498	0.873066	0.666522
N223	N	0.824061	0.064350	0.189584
N224	N	1.157394	0.397684	0.522917
N225	N	1.490727	0.731017	0.856251
N226	N	0.824113	0.064359	-0.189817
N227	N	1.157446	0.397692	0.143517
N228	N	1.490779	0.731026	0.476850
C229	C	0.871898	0.031402	0.227893
C230	C	1.205231	0.364735	0.561227
C231	C	1.538565	0.698069	0.894560
C232	C	0.871903	0.031400	0.304538
C233	C	1.205236	0.364733	0.637872
C234	C	1.538569	0.698066	0.971205
C235	C	0.824076	0.064354	0.342871
C236	C	1.157410	0.397688	0.676204
C237	C	1.490743	0.731021	1.009537
C238	C	0.776230	0.097305	0.304552
C239	C	1.109563	0.430639	0.637885
C240	C	1.442897	0.763972	0.971219
C241	C	0.776222	0.097303	0.227909
C242	C	1.109556	0.430637	0.561242
C243	C	1.442889	0.763970	0.894575
N244	N	0.814728	0.107145	0.463196
N245	N	1.148061	0.440478	0.796529
N246	N	1.481394	0.773812	1.129862
N247	N	0.814739	0.107145	0.536004
N248	N	1.148073	0.440478	0.869337
N249	N	1.481406	0.773812	1.202671
C250	C	0.824096	0.064361	0.573793
C251	C	1.157429	0.397695	0.907126
C252	C	1.490762	0.731028	1.240460
N253	N	0.833454	0.021576	0.536024
N254	N	1.166787	0.354909	0.869357
N255	N	1.500121	0.688242	1.202691
N256	N	0.833446	0.021576	0.463209
N257	N	1.166779	0.354909	0.796542
N258	N	1.500113	0.688242	1.129876
C259	C	0.824079	0.064360	0.425978
C260	C	1.157412	0.397693	0.759311
C261	C	1.490746	0.731026	1.092644
C262	C	0.871941	0.031407	0.695210
C263	C	1.205274	0.364741	1.028543
C264	C	1.538607	0.698074	1.361876
C265	C	0.871940	0.031405	0.771856
C266	C	1.205274	0.364738	1.105189
C267	C	1.538607	0.698071	1.438523
C268	C	0.776271	0.097315	0.771868
C269	C	1.109604	0.430648	1.105202
C270	C	1.442938	0.763981	1.438535
C271	C	0.776268	0.097313	0.695224
C272	C	1.109601	0.430647	1.028557
C273	C	1.442935	0.763980	1.361890
C274	C	0.824107	0.064360	0.656899
C275	C	1.157440	0.397694	0.990232
C276	C	1.490773	0.731027	1.323566
H277	H	0.612167	0.067305	-0.120514
H278	H	0.945501	0.400638	0.212819
H279	H	1.278834	0.733972	0.546152
Br280	Br	0.460309	0.065753	-0.156560
Br281	Br	0.793642	0.399086	0.176773
Br282	Br	1.126976	0.732420	0.510106
H283	H	0.644469	-0.448949	-0.000123
H284	H	0.977803	-0.115615	0.333210
H285	H	1.311136	0.217718	0.666544
H286	H	0.646684	-0.297693	-0.000130
H287	H	0.980017	0.035641	0.333203
H288	H	1.313350	0.368974	0.666536
H289	H	0.703383	-0.778219	-0.000123
H290	H	1.036717	-0.444886	0.333211
H291	H	1.370050	-0.111552	0.666544
Br292	Br	0.977820	-0.201405	-0.000131
Br293	Br	1.311154	0.131928	0.333202
Br294	Br	1.644487	0.465261	0.666536
H295	H	0.910849	0.004568	0.196691
H296	H	1.244183	0.337902	0.530025
H297	H	1.577516	0.671235	0.863358
Br298	Br	0.936829	-0.013321	0.356539
Br299	Br	1.270163	0.320012	0.689872
Br300	Br	1.603496	0.653346	1.023206
H301	H	0.910892	0.004574	0.664004
H302	H	1.244225	0.337907	0.997338
H303	H	1.577558	0.671240	1.330671
H304	H	0.712409	-0.163145	-0.000076
H305	H	1.045742	0.170188	0.333257
H306	H	1.379076	0.503522	0.666591
Br307	Br	1.037608	-0.471639	-0.000160
Br308	Br	1.370941	-0.138305	0.333174
Br309	Br	1.704275	0.195028	0.666507
Br310	Br	1.039828	-0.320396	-0.000157
Br311	Br	1.373161	0.012937	0.333177
Br312	Br	1.706495	0.346270	0.666510
Br313	Br	0.460200	0.065754	0.156351
Br314	Br	0.793533	0.399087	0.489684
Br315	Br	1.126866	0.732420	0.823017
H316	H	0.737288	0.124137	0.335766
H317	H	1.070621	0.457470	0.669100
H318	H	1.403955	0.790803	1.002433
Br319	Br	0.711295	0.142022	0.175913
Br320	Br	1.044628	0.475356	0.509246
Br321	Br	1.377961	0.808689	0.842579
H322	H	0.035997	0.061402	0.120276
H323	H	0.369330	0.394736	0.453609
H324	H	0.702664	0.728069	0.786942
Br325	Br	0.936861	-0.013319	0.823852
Br326	Br	1.270195	0.320014	1.157185
Br327	Br	1.603528	0.653348	1.490518
Br328	Br	0.187970	0.062957	-0.156590
Br329	Br	0.521304	0.396290	0.176743
Br330	Br	0.854637	0.729624	0.510076
H331	H	1.001487	-0.573586	-0.000164
H332	H	1.334821	-0.240253	0.333169
H333	H	1.668154	0.093081	0.666503
Br334	Br	0.631838	0.067518	0.156371
Br335	Br	0.965171	0.400852	0.489705
Br336	Br	1.298505	0.734185	0.823038
Br337	Br	0.670355	-0.669881	-0.000135
Br338	Br	1.003689	-0.336548	0.333198
Br339	Br	1.337022	-0.003215	0.666532
Br340	Br	0.970534	-0.697664	-0.000146
Br341	Br	1.303867	-0.364330	0.333187
Br342	Br	1.637201	-0.030997	0.666521
Br343	Br	0.187857	0.062959	0.156325
Br344	Br	0.521190	0.396292	0.489659
Br345	Br	0.854523	0.729626	0.822992
H346	H	0.737317	0.124145	0.664030
H347	H	1.070650	0.457478	0.997363
H348	H	1.403984	0.790812	1.330697
H349	H	0.036087	0.061409	-0.120570
H350	H	0.369420	0.394743	0.212764
H351	H	0.702754	0.728076	0.546097
Br352	Br	0.979556	-0.082581	-0.000103
Br353	Br	1.312889	0.250753	0.333230
Br354	Br	1.646222	0.584086	0.666563
Br355	Br	0.679393	-0.054788	-0.000080
Br356	Br	1.012726	0.278546	0.333253
Br357	Br	1.346059	0.611879	0.666586
H358	H	0.737327	0.124145	0.803078
H359	H	1.070661	0.457478	1.136412
H360	H	1.403994	0.790812	1.469745
H361	H	1.003716	-0.422330	-0.000150
H362	H	1.337049	-0.088997	0.333183
H363	H	1.670382	0.244336	0.666516
H364	H	0.643125	-0.540400	-0.000127
H365	H	0.976459	-0.207067	0.333207
H366	H	1.309792	0.126266	0.666540
H367	H	0.934415	-0.799617	-0.000158
H368	H	1.267748	-0.466284	0.333176
H369	H	1.601082	-0.132950	0.666509
Br370	Br	0.610566	-0.399629	-0.000132
Br371	Br	0.943899	-0.066296	0.333202
Br372	Br	1.277233	0.267038	0.666535
