data_functionalizedCrystal
_audit_creation_method	'MofGen! by Chris Wilmer'
_symmetry_space_group_name_H-M	'P1'
_symmetry_Int_Tables_number	1
_symmetry_cell_setting	triclinic
loop_
_symmetry_equiv_pos_as_xyz
  x,y,z
_cell_length_a	23.096457
_cell_length_b	14.628931
_cell_length_c	23.096457
_cell_angle_alpha	119.999085
_cell_angle_beta	119.999678
_cell_angle_gamma	89.998385
loop_
_atom_site_label
_atom_site_type_symbol
_atom_site_fract_x
_atom_site_fract_y
_atom_site_fract_z
Zr1	Zr	0.557779	-0.119965	-0.633744
O2	O	0.465334	-0.265915	-0.754529
O3	O	0.586117	-0.075227	-0.512957
O4	O	0.586120	-0.265928	-0.633745
O5	O	0.465331	0.075217	-0.633742
O6	O	0.681400	-0.265933	-0.633746
O7	O	0.465331	-0.075215	-0.633742
O8	O	0.681395	0.075195	-0.417680
O9	O	0.465336	-0.265911	-0.849808
O10	O	0.669312	-0.056147	-0.562640
O11	O	0.598205	0.056123	-0.562639
O12	O	0.598208	-0.168402	-0.704850
O13	O	0.527102	-0.056132	-0.704849
Zr14	Zr	0.709741	0.119948	-0.633746
Zr15	Zr	0.709741	-0.119974	-0.633746
Zr16	Zr	0.557780	0.119957	-0.633743
Zr17	Zr	0.557783	-0.119958	-0.785702
Zr18	Zr	0.709737	0.119941	-0.481787
O19	O	0.681403	0.075210	-0.754532
O20	O	0.681403	-0.265928	-0.754533
O21	O	0.465334	0.075223	-0.754529
O22	O	0.802187	0.265898	-0.512960
O23	O	0.802186	-0.075240	-0.512961
O24	O	0.586117	0.265911	-0.512957
O25	O	0.802189	-0.075234	-0.633748
O26	O	0.681401	0.265911	-0.633745
O27	O	0.586120	0.265916	-0.633744
O28	O	0.802189	0.075198	-0.633748
O29	O	0.586125	-0.265918	-0.849810
O30	O	0.681395	0.265901	-0.417680
O31	O	0.802184	0.265894	-0.417682
O32	O	0.802184	0.075188	-0.417682
O33	O	0.465336	-0.075205	-0.849808
O34	O	0.586125	-0.075212	-0.849810
O35	O	0.669312	0.168385	-0.562640
O36	O	0.740419	0.056115	-0.562641
O37	O	0.669315	-0.056140	-0.704851
O38	O	0.598208	0.056130	-0.704850
C39	C	0.443680	0.000003	-0.633742
C40	C	0.379168	0.000006	-0.633741
C41	C	0.633756	-0.000017	-0.443668
C42	C	0.633754	-0.000020	-0.379157
C43	C	0.633760	0.300097	-0.633744
C44	C	0.633760	0.401950	-0.633744
C45	C	0.385978	0.058592	-0.559511
C46	C	0.325362	0.058597	-0.559510
C47	C	0.257938	-0.000006	-0.633742
C48	C	0.251131	-0.058594	-0.707982
C49	C	0.311746	-0.058588	-0.707981
N50	N	0.135143	-0.095381	-0.688998
N51	N	0.077564	-0.095385	-0.688994
C52	C	0.075305	-0.000026	-0.633750
N53	N	0.132807	0.095336	-0.578497
N54	N	0.190393	0.095337	-0.578499
C55	C	0.192206	-0.000018	-0.633752
C56	C	0.016391	0.058570	-0.559514
C57	C	-0.044227	0.058578	-0.559515
C58	C	-0.118459	-0.058623	-0.707990
C59	C	-0.057841	-0.058620	-0.707986
C60	C	0.009581	-0.000026	-0.633746
C61	C	0.823840	-0.000019	-0.633748
C62	C	0.888352	-0.000023	-0.633749
C63	C	0.633760	-0.300114	-0.633745
C64	C	0.633760	-0.401967	-0.633746
C65	C	0.598488	0.391673	-0.704290
C66	C	0.598488	0.496943	-0.704291
C67	C	0.581283	-0.082893	0.028872
C68	C	0.581276	-0.082891	-0.031747
C69	C	0.633766	-0.000022	-0.009570
C70	C	0.686256	0.082869	0.073235
C71	C	0.686257	0.082871	0.133851
N72	N	0.696013	0.025068	-0.065672
N73	N	0.696010	0.025059	-0.123258
C74	C	0.633767	-0.000022	-0.192198
N75	N	0.571523	-0.025115	-0.201386
N76	N	0.571527	-0.025112	-0.143796
C77	C	0.633771	-0.000014	-0.075291
C78	C	0.581271	-0.082900	-0.340722
C79	C	0.581264	-0.082891	-0.401339
C80	C	0.686249	0.082865	-0.296355
C81	C	0.686250	0.082859	-0.235740
C82	C	0.633761	-0.000029	-0.257929
C83	C	0.633765	-0.000005	0.176177
C84	C	0.633768	-0.000017	0.111662
C85	C	0.823836	-0.000028	-0.443671
C86	C	0.888346	-0.000034	-0.379162
C87	C	0.633756	0.300089	-0.443667
C88	C	0.633755	0.401939	-0.379157
C89	C	0.823836	0.300078	-0.443671
C90	C	0.888346	0.401924	-0.379161
C91	C	0.443684	-0.300095	-0.823819
C92	C	0.379174	-0.401941	-0.888329
C93	C	0.443684	0.000011	-0.823819
C94	C	0.379174	0.000018	-0.888328
C95	C	0.633764	-0.300106	-0.823822
C96	C	0.633766	-0.401956	-0.888333
C97	C	0.881524	-0.058647	-0.348867
C98	C	0.942132	-0.058676	-0.288262
C99	C	1.009562	-0.000084	-0.257949
C100	C	1.016383	0.058530	-0.288250
C101	C	0.955775	0.058551	-0.348858
C102	C	0.670871	0.508379	-0.348862
C103	C	0.670867	0.604087	-0.288256
C104	C	0.633750	0.593353	-0.257942
C105	C	0.596629	0.486903	-0.288242
C106	C	0.596630	0.391197	-0.348851
C107	C	0.955764	0.391149	-0.348867
C108	C	1.016384	0.486835	-0.288262
C109	C	1.009585	0.593296	-0.257948
C110	C	0.942160	0.604070	-0.288247
C111	C	0.881541	0.508384	-0.348856
C112	C	0.311756	-0.391166	-0.918630
C113	C	0.251136	-0.486852	-0.979254
C114	C	0.257936	-0.593313	-1.009571
C115	C	0.325361	-0.604086	-0.979268
C116	C	0.385979	-0.508401	-0.918649
C117	C	0.385997	0.058620	-0.918629
C118	C	0.325389	0.058622	-0.979251
C119	C	0.257959	0.000028	-1.009566
C120	C	0.251138	-0.058582	-0.979263
C121	C	0.311745	-0.058590	-0.918646
C122	C	0.670890	-0.391186	-0.918629
C123	C	0.670905	-0.486876	-0.979235
C124	C	0.633792	-0.593335	-1.009549
C125	C	0.596667	-0.604102	-0.979247
C126	C	0.596656	-0.508413	-0.918638
H127	H	0.440872	0.106297	-0.499058
Br128	Br	0.302473	-0.138124	-0.877527
H129	H	0.826649	0.517173	-0.373513
H130	H	0.663954	0.488683	-0.573349
H131	H	0.306206	-0.304488	-0.893948
H132	H	0.961340	0.106287	-0.373516
Br133	Br	0.546255	0.246746	-0.389954
H134	H	0.566450	-0.690793	-1.003939
Br135	Br	0.159640	-0.472205	-1.020365
Br136	Br	0.334577	-0.748578	-1.020420
H137	H	0.728985	0.150344	-0.278297
H138	H	1.058950	0.671200	-0.208597
Br139	Br	0.546260	0.472354	-0.247091
Br140	Br	0.477473	-0.523045	-0.877530
Br141	Br	0.334598	0.138107	-0.458762
Br142	Br	0.159627	-0.138116	-0.808728
H143	H	0.728997	0.150361	0.201266
H144	H	0.208570	-0.671217	-1.058931
H145	H	0.306196	-0.106293	-0.768430
Br146	Br	0.477501	0.138147	-0.877503
Br147	Br	0.107895	0.138093	-0.458761
Br148	Br	1.107880	0.472188	-0.247153
H149	H	-0.038676	0.106294	-0.499066
Br150	Br	0.932944	0.748561	-0.247098
Br151	Br	0.334662	0.138173	-1.020362
Br152	Br	0.721289	-0.472237	-1.020349
H153	H	0.701098	0.690754	-0.263593
H154	H	0.196228	-0.106288	-1.003955
H155	H	-0.173356	-0.106339	-0.768432
H156	H	0.208614	0.000044	-1.058924
H157	H	0.701112	-0.304511	-0.893956
Br158	Br	0.721253	0.522977	-0.389986
Br159	Br	0.510044	-0.195376	-0.001243
H160	H	1.071292	0.106232	-0.263560
H161	H	0.568293	0.488319	-0.764688
H162	H	0.961314	0.304472	-0.373541
Br163	Br	0.546262	-0.523049	-0.877536
H164	H	0.633806	-0.671242	-1.058901
H165	H	0.936564	-0.106406	-0.263599
H166	H	0.538527	-0.150367	-0.099167
H167	H	-0.063389	-0.106335	-0.768432
H168	H	0.663961	0.606665	-0.573346
Br169	Br	0.548144	0.247119	-0.804960
H170	H	0.538530	-0.150391	-0.358789
Br171	Br	0.757488	0.195343	0.103335
Br172	Br	0.633757	0.723253	-0.175686
Br173	Br	0.510021	-0.195365	-0.513705
H174	H	0.728992	0.150342	-0.168327
Br175	Br	0.790019	-0.138177	-0.389995
H176	H	1.058906	-0.000110	-0.208597
