data_functionalizedCrystal
_audit_creation_method	'MofGen! by Chris Wilmer'
_symmetry_space_group_name_H-M	'P1'
_symmetry_Int_Tables_number	1
_symmetry_cell_setting	triclinic
loop_
_symmetry_equiv_pos_as_xyz
  x,y,z
_cell_length_a	27.732048
_cell_length_b	19.288859
_cell_length_c	17.766277
_cell_angle_alpha	89.989768
_cell_angle_beta	89.988664
_cell_angle_gamma	82.888190
loop_
_atom_site_label
_atom_site_type_symbol
_atom_site_fract_x
_atom_site_fract_y
_atom_site_fract_z
O1	O	0.060286	0.920980	-0.062617
O2	O	0.560286	1.420980	0.437383
O3	O	0.068423	0.718668	-0.062616
O4	O	0.568423	1.218668	0.437384
O5	O	-0.006023	0.826107	-0.062602
O6	O	0.493977	1.326107	0.437398
O7	O	0.134732	0.813540	-0.062631
O8	O	0.634732	1.313540	0.437369
O9	O	-0.006027	0.826088	0.062586
O10	O	0.493973	1.326088	0.562586
O11	O	0.068419	0.718649	0.062572
O12	O	0.568419	1.218649	0.562572
O13	O	0.060282	0.920961	0.062571
O14	O	0.560282	1.420961	0.562571
Cu15	Cu	0.064350	0.819803	0.074002
Cu16	Cu	0.564350	1.319803	0.574002
Cu17	Cu	0.064355	0.819825	-0.074047
Cu18	Cu	0.564355	1.319825	0.425953
O19	O	0.134728	0.813522	0.062557
O20	O	0.634728	1.313522	0.562557
C21	C	0.068160	0.692783	-0.000022
C22	C	0.568160	1.192783	0.499978
C23	C	0.067375	0.615685	-0.000021
C24	C	0.567375	1.115685	0.499979
C25	C	0.105750	0.051404	-0.000030
C26	C	0.605750	0.551404	0.499970
C27	C	0.106492	0.123846	-0.000034
C28	C	0.606492	0.623846	0.499966
C29	C	0.062810	0.168826	-0.000024
C30	C	0.562810	0.668826	0.499976
C31	C	0.018383	0.141358	-0.000029
C32	C	0.518383	0.641358	0.499971
C33	C	0.017643	0.068917	-0.000032
C34	C	0.517643	0.568917	0.499968
C35	C	0.030231	0.290293	0.043845
C36	C	0.530231	0.790293	0.543845
C37	C	0.030973	0.362732	0.043853
C38	C	0.530973	0.862732	0.543853
C39	C	0.065091	0.392257	-0.000016
C40	C	0.565091	0.892257	0.499984
C41	C	0.098475	0.349333	-0.043884
C42	C	0.598475	0.849333	0.456116
C43	C	0.097735	0.276893	-0.043888
C44	C	0.597735	0.776893	0.456112
C45	C	0.063607	0.247376	-0.000020
C46	C	0.563607	0.747376	0.499980
C47	C	0.110318	0.498267	-0.000021
C48	C	0.610318	0.998267	0.499979
C49	C	0.111058	0.570710	-0.000030
C50	C	0.611058	1.070710	0.499970
C51	C	0.022948	0.588220	-0.000017
C52	C	0.522948	1.088220	0.499983
C53	C	0.022210	0.515778	-0.000016
C54	C	0.522210	1.015778	0.499984
C55	C	0.065896	0.470805	-0.000014
C56	C	0.565896	0.970805	0.499986
C57	C	-0.024033	0.825834	-0.000006
C58	C	0.475967	1.325834	0.499994
C59	C	-0.077690	0.825040	0.000000
C60	C	0.422310	1.325040	0.500000
C61	C	-0.416330	0.883529	-0.000039
C62	C	0.083670	1.383529	0.499961
C63	C	-0.617998	0.880581	-0.000049
C64	C	-0.117998	1.380581	0.499951
O65	O	-0.649093	0.934065	-0.000082
O66	O	-0.149093	1.434065	0.499918
N67	N	-0.637313	0.816874	-0.000048
N68	N	-0.137313	1.316874	0.499952
C69	C	-0.606208	0.753899	-0.000050
C70	C	-0.106208	1.253899	0.499950
O71	O	-0.627264	0.699645	-0.000057
O72	O	-0.127264	1.199645	0.499943
C73	C	-0.404540	0.756847	-0.000045
C74	C	0.095460	1.256847	0.499955
C75	C	-0.385228	0.820559	-0.000038
C76	C	0.114772	1.320559	0.499962
C77	C	-0.397017	0.947235	-0.000033
C78	C	0.102983	1.447235	0.499967
C79	C	-0.346603	0.947971	-0.000026
C80	C	0.153397	1.447971	0.499974
C81	C	-0.315501	0.885001	-0.000025
C82	C	0.184499	1.385001	0.499975
C83	C	-0.334814	0.821295	-0.000031
C84	C	0.165186	1.321295	0.499969
C85	C	-0.373436	0.693873	-0.000051
C86	C	0.126564	1.193873	0.499949
C87	C	-0.323016	0.694616	-0.000052
C88	C	0.176984	1.194616	0.499948
C89	C	-0.303704	0.758327	-0.000045
C90	C	0.196296	1.258327	0.499955
C91	C	-0.253298	0.759061	-0.000024
C92	C	0.246702	1.259061	0.499976
N93	N	-0.233983	0.822768	-0.000025
N94	N	0.266017	1.322768	0.499975
C95	C	-0.265085	0.885738	-0.000025
C96	C	0.234915	1.385738	0.499975
C97	C	-0.712087	0.752356	-0.000051
C98	C	-0.212087	1.252356	0.499949
C99	C	-0.762503	0.751619	-0.000051
C100	C	-0.262503	1.251619	0.499949
C101	C	-0.774290	0.878301	-0.000052
C102	C	-0.274290	1.378301	0.499948
C103	C	-0.723872	0.879038	-0.000046
C104	C	-0.223872	1.379038	0.499954
C105	C	-0.692771	0.816063	-0.000052
C106	C	-0.192771	1.316063	0.499948
C107	C	-0.159211	0.887279	-0.000011
C108	C	0.340789	1.387279	0.499989
C109	C	-0.108792	0.888010	-0.000001
C110	C	0.391208	1.388010	0.499999
C111	C	-0.097009	0.761328	-0.000004
C112	C	0.402991	1.261328	0.499996
C113	C	-0.147424	0.760597	-0.000010
C114	C	0.352576	1.260597	0.499990
C115	C	-0.178524	0.823578	-0.000016
C116	C	0.321476	1.323578	0.499984
O117	O	-0.222175	0.705606	0.000001
O118	O	0.277825	1.205606	0.500001
O119	O	-0.244019	0.939984	-0.000035
O120	O	0.255981	1.439984	0.499965
C121	C	-0.466744	0.882792	-0.000045
C122	C	0.033256	1.382792	0.499955
C123	C	-0.486057	0.819086	-0.000051
C124	C	0.013943	1.319086	0.499949
C125	C	-0.454955	0.756116	-0.000051
C126	C	0.045045	1.256116	0.499949
C127	C	-0.536473	0.818349	-0.000051
C128	C	-0.036473	1.318349	0.499949
C129	C	-0.567575	0.881319	-0.000052
C130	C	-0.067575	1.381319	0.499948
C131	C	-0.548259	0.945026	-0.000053
C132	C	-0.048259	1.445026	0.499947
C133	C	-0.497845	0.945762	-0.000046
C134	C	0.002155	1.445762	0.499954
C135	C	-0.474270	0.692409	-0.000050
C136	C	0.025730	1.192409	0.499950
C137	C	-0.524685	0.691678	-0.000055
C138	C	-0.024685	1.191678	0.499945
C139	C	-0.555786	0.754648	-0.000056
C140	C	-0.055786	1.254648	0.499944
C141	C	0.152738	0.813795	-0.000041
C142	C	0.652738	1.313795	0.499959
C143	C	0.206395	0.814589	-0.000052
C144	C	0.706395	1.314589	0.499948
C145	C	0.060545	0.946845	-0.000025
C146	C	0.560545	1.446845	0.499975
C147	C	0.061330	1.023944	-0.000031
C148	C	0.561330	1.523944	0.499969
N149	N	0.064347	0.819793	0.178133
N150	N	0.564347	1.319793	0.678133
N151	N	0.064354	0.819841	-0.178178
N152	N	0.564354	1.319841	0.321822
C153	C	0.031398	0.867382	0.217526
C154	C	0.531398	1.367382	0.717526
C155	C	0.031396	0.867386	0.296328
C156	C	0.531396	1.367386	0.796328
C157	C	0.064351	0.819807	0.335733
C158	C	0.564351	1.319807	0.835733
C159	C	0.097302	0.772209	0.296331
C160	C	0.597302	1.272209	0.796331
C161	C	0.097300	0.772202	0.217530
C162	C	0.597300	1.272202	0.717530
C163	C	0.108393	0.810234	0.460562
C164	C	0.608393	1.310234	0.960562
C165	C	0.108396	0.810246	0.539361
C166	C	0.608396	1.310246	1.039361
C167	C	0.064356	0.819826	0.578780
C168	C	0.564356	1.319826	1.078780
C169	C	0.020312	0.829408	0.539390
C170	C	0.520312	1.329408	1.039390
C171	C	0.020311	0.829401	0.460589
C172	C	0.520311	1.329401	0.960589
C173	C	0.064356	0.819810	0.421179
C174	C	0.564356	1.319810	0.921179
C175	C	0.031402	0.867422	0.703619
C176	C	0.531402	1.367422	1.203619
C177	C	0.031400	0.867421	0.782422
C178	C	0.531400	1.367421	1.282422
C179	C	0.097310	0.772248	0.782423
C180	C	0.597310	1.272248	1.282423
C181	C	0.097309	0.772245	0.703622
C182	C	0.597309	1.272245	1.203622
C183	C	0.064355	0.819836	0.664224
C184	C	0.564355	1.319836	1.164224
H185	H	-0.018531	0.046560	-0.000033
H186	H	0.481469	0.546560	0.499967
H187	H	-0.163149	0.708718	0.000006
H188	H	0.336851	1.208718	0.500006
N189	N	0.158974	0.600323	-0.000040
N190	N	0.658974	1.100323	0.499960
H191	H	0.178101	0.583883	0.046367
H192	H	0.678101	1.083883	0.546367
H193	H	0.152778	0.653034	-0.000072
H194	H	0.652778	1.153034	0.499928
H195	H	0.002445	0.266260	0.079570
H196	H	0.502445	0.766260	0.579570
H197	H	0.141323	0.014791	-0.000032
H198	H	0.641323	0.514791	0.499968
N199	N	-0.004155	0.918725	0.661121
N200	N	0.495845	1.418725	1.161121
H201	H	0.000841	0.911498	0.605223
H202	H	0.500841	1.411498	1.105223
H203	H	0.001327	0.967946	0.674870
H204	H	0.501327	1.467946	1.174870
H205	H	0.124141	0.733506	0.814507
H206	H	0.624141	1.233506	1.314507
N207	N	0.132846	0.720916	0.661127
N208	N	0.632846	1.220916	1.161127
H209	H	0.153723	0.690774	0.698046
H210	H	0.653723	1.190774	1.198046
H211	H	0.154169	0.747270	0.628414
H212	H	0.654169	1.247270	1.128414
N213	N	-0.027190	0.839733	0.418105
N214	N	0.472810	1.339733	0.918105
H215	H	-0.028322	0.882739	0.385401
H216	H	0.471678	1.382739	0.885401
H217	H	-0.055062	0.845773	0.455078
H218	H	0.444938	1.345773	0.955078
H219	H	-0.015549	0.837209	0.571482
H220	H	0.484451	1.337209	1.071482
H221	H	0.124134	0.733469	0.328419
H222	H	0.624134	1.233469	0.828419
N223	N	-0.024167	0.636723	-0.000014
N224	N	0.475833	1.136723	0.499986
H225	H	-0.016959	0.686782	-0.000015
H226	H	0.483041	1.186782	0.499985
H227	H	-0.043538	0.627877	0.046396
H228	H	0.456462	1.127877	0.546396
H229	H	-0.778222	0.699739	-0.000043
H230	H	-0.278222	1.199739	0.499957
N231	N	-0.477019	1.014480	-0.000038
N232	N	0.022981	1.514480	0.499962
H233	H	-0.504378	1.054253	-0.000040
H234	H	-0.004378	1.554253	0.499960
H235	H	-0.456352	1.017557	-0.046445
H236	H	0.043648	1.517557	0.453555
H237	H	-0.093071	0.939893	0.000007
H238	H	0.406929	1.439893	0.500007
H239	H	0.004566	0.906172	0.814496
H240	H	0.504566	1.406172	1.314496
N241	N	0.132837	0.720869	0.175036
N242	N	0.632837	1.220869	0.675036
H243	H	0.153713	0.690725	0.211954
H244	H	0.653713	1.190725	0.711954
H245	H	0.154160	0.747224	0.142326
H246	H	0.654160	1.247224	0.642326
H247	H	0.144259	0.802448	0.571427
H248	H	0.644259	1.302448	1.071427
N249	N	-0.028733	0.189862	-0.000016
N250	N	0.471267	0.689862	0.499984
H251	H	-0.030387	0.220320	-0.046419
H252	H	0.469613	0.720320	0.453581
H253	H	-0.030365	0.220251	0.046426
H254	H	0.469635	0.720251	0.546426
H255	H	-0.013962	0.493420	-0.000012
H256	H	0.486038	0.993420	0.499988
N257	N	0.155896	0.799902	0.418050
N258	N	0.655896	1.299902	0.918050
H259	H	0.183797	0.793841	0.454958
H260	H	0.683797	1.293841	0.954958
H261	H	0.158640	0.842066	0.385344
H262	H	0.658640	1.342066	0.885344
H263	H	0.142665	0.146209	-0.000026
H264	H	0.642665	0.646209	0.499974
H265	H	0.124916	0.241947	-0.079608
H266	H	0.624916	0.741947	0.420392
N267	N	-0.703044	0.947754	-0.000039
N268	N	-0.203044	1.447754	0.499961
H269	H	-0.730402	0.987529	-0.000037
H270	H	-0.230402	1.487529	0.499963
H271	H	-0.682379	0.950831	-0.046448
H272	H	-0.182379	1.450831	0.453552
N273	N	0.135279	0.381159	-0.091209
N274	N	0.635279	0.881159	0.408791
H275	H	0.156345	0.407085	-0.057620
H276	H	0.656345	0.907085	0.442380
H277	H	0.117802	0.414713	-0.128712
H278	H	0.617802	0.914713	0.371288
N279	N	-0.004140	0.918716	0.338834
N280	N	0.495860	1.418716	0.838834
H281	H	-0.038436	0.911094	0.325141
H282	H	0.461564	1.411094	0.825141
H283	H	0.001384	0.967926	0.325089
H284	H	0.501384	1.467926	0.825089
N285	N	0.157433	0.449754	-0.000036
N286	N	0.657433	0.949754	0.499964
H287	H	0.159090	0.419300	0.046371
H288	H	0.659090	0.919300	0.546371
H289	H	0.185660	0.478194	-0.000072
H290	H	0.685660	0.978194	0.499928
N291	N	-0.678544	0.684431	-0.000045
N292	N	-0.178544	1.184431	0.499955
H293	H	-0.657357	0.681911	-0.046452
H294	H	-0.157357	1.181911	0.453548
H295	H	-0.698468	0.644005	-0.000013
H296	H	-0.198468	1.144005	0.499987
H297	H	-0.071678	0.710059	-0.000000
H298	H	0.428322	1.210059	0.500000
N299	N	-0.325773	1.016685	-0.000038
N300	N	0.174227	1.516685	0.499962
H301	H	-0.305123	1.019818	0.046368
H302	H	0.194877	1.519818	0.546368
H303	H	-0.353156	1.056422	-0.000072
H304	H	0.146844	1.556422	0.499928
H305	H	0.003792	0.397674	0.079577
H306	H	0.503792	0.897674	0.579577
N307	N	-0.192750	0.955207	-0.000017
N308	N	0.307250	1.455207	0.499983
H309	H	-0.172859	0.995671	-0.000011
H310	H	0.327141	1.495671	0.499989
H311	H	-0.213931	0.957655	0.046391
H312	H	0.286069	1.457655	0.546391
H313	H	-0.422335	0.998515	-0.000036
H314	H	0.077665	1.498515	0.499964
H315	H	-0.799622	0.929574	-0.000052
H316	H	-0.299622	1.429574	0.499948
H317	H	-0.389151	0.641993	-0.000061
H318	H	0.110849	1.141993	0.499939
H319	H	-0.448952	0.641130	-0.000051
H320	H	0.051048	1.141130	0.499949
H321	H	-0.297696	0.643333	-0.000058
H322	H	0.202304	1.143333	0.499942
H323	H	-0.573591	0.996299	-0.000050
H324	H	-0.073591	1.496299	0.499950
N325	N	-0.545511	0.622957	-0.000050
N326	N	-0.045511	1.122957	0.499950
H327	H	-0.518154	0.583181	-0.000049
H328	H	-0.018154	1.083181	0.499951
H329	H	-0.566165	0.619895	-0.046462
H330	H	-0.066165	1.119895	0.453538
N331	N	-0.004144	0.918708	0.175033
N332	N	0.495856	1.418708	0.675033
H333	H	-0.025018	0.948856	0.211951
H334	H	0.474982	1.448856	0.711951
H335	H	-0.025469	0.892346	0.142356
H336	H	0.474531	1.392346	0.642356
