data_functionalizedCrystal
_audit_creation_method	'MofGen! by Chris Wilmer'
_symmetry_space_group_name_H-M	'P1'
_symmetry_Int_Tables_number	1
_symmetry_cell_setting	triclinic
loop_
_symmetry_equiv_pos_as_xyz
  x,y,z
_cell_length_a	6.817900
_cell_length_b	9.582889
_cell_length_c	16.418042
_cell_angle_alpha	93.121935
_cell_angle_beta	103.389568
_cell_angle_gamma	111.207298
loop_
_atom_site_label
_atom_site_type_symbol
_atom_site_fract_x
_atom_site_fract_y
_atom_site_fract_z
V1	V	-4.065737	-0.208271	-0.260999
V2	V	-3.565737	0.291729	0.239001
O3	O	-4.011405	0.008757	-0.256189
O4	O	-3.511405	0.508757	0.243811
O5	O	-4.056518	-0.411763	-0.259063
O6	O	-3.556518	0.088237	0.240937
O7	O	-4.016299	-0.205617	-0.374900
O8	O	-3.516299	0.294383	0.125100
O9	O	-4.051903	-0.198817	-0.139550
O10	O	-3.551903	0.301183	0.360450
V11	V	-4.544422	-0.182247	-0.246492
V12	V	-4.044422	0.317753	0.253508
O13	O	-4.337607	-0.265357	-0.292824
O14	O	-3.837607	0.234643	0.207176
O15	O	-4.722749	-0.125162	-0.214667
O16	O	-4.222749	0.374838	0.285333
O17	O	-4.330434	0.021245	-0.248428
O18	O	-3.830434	0.521245	0.251572
O19	O	-4.716150	-0.399275	-0.251302
O20	O	-4.216150	0.100725	0.248698
O21	O	-4.675653	-0.191702	-0.367941
O22	O	-4.175653	0.308298	0.132059
O23	O	-4.370653	-0.184902	-0.132591
O24	O	-3.870653	0.315098	0.367409
C25	C	-3.911085	-0.461353	-0.254906
C26	C	-3.411085	0.038647	0.245094
C27	C	-3.984827	-0.627714	-0.254082
C28	C	-3.484827	-0.127714	0.245918
C29	C	-3.859780	-0.198391	-0.402666
C30	C	-3.359780	0.301609	0.097334
C31	C	-3.900902	-0.197567	-0.495779
C32	C	-3.400902	0.302433	0.004221
C33	C	-4.178996	-0.203134	-0.714261
C34	C	-3.678996	0.296866	-0.214261
C35	C	-4.217613	-0.202347	-0.801749
C36	C	-3.717613	0.297653	-0.301749
C37	C	-3.850517	-0.187377	-0.793218
C38	C	-3.350517	0.312623	-0.293218
C39	C	-3.811898	-0.188153	-0.705730
C40	C	-3.311898	0.311847	-0.205730
C41	C	-3.976148	-0.196040	-0.666255
C42	C	-3.476148	0.303960	-0.166255
C43	C	-4.053384	-0.194476	-0.841231
C44	C	-3.553384	0.305524	-0.341231
C45	C	-4.095253	-0.193623	-0.936089
C46	C	-3.595253	0.306377	-0.436089
C47	C	-3.934276	-0.196890	-0.571390
C48	C	-3.434276	0.303110	-0.071390
C49	C	-4.139211	0.070826	-0.252583
C50	C	-3.639211	0.570826	0.247417
C51	C	-4.044707	0.237186	-0.253412
C52	C	-3.544707	0.737186	0.246588
C53	C	-4.190516	-0.192133	-0.104820
C54	C	-3.690516	0.307867	0.395180
C55	C	-4.128631	-0.192949	-0.011706
C56	C	-3.628631	0.307051	0.488294
H57	H	-4.312741	-0.209553	-0.682123
H58	H	-3.812741	0.290447	-0.182123
H59	H	-4.382788	-0.208122	-0.840832
H60	H	-3.882788	0.291878	-0.340832
H61	H	-3.716798	-0.180960	-0.825369
H62	H	-3.216798	0.319040	-0.325369
H63	H	-3.646702	-0.182364	-0.666641
H64	H	-3.146702	0.317636	-0.166641
