data_functionalizedCrystal
_audit_creation_method	'MofGen! by Chris Wilmer'
_symmetry_space_group_name_H-M	'P1'
_symmetry_Int_Tables_number	1
_symmetry_cell_setting	triclinic
loop_
_symmetry_equiv_pos_as_xyz
  x,y,z
_cell_length_a	14.971482
_cell_length_b	10.654550
_cell_length_c	13.448316
_cell_angle_alpha	89.994587
_cell_angle_beta	89.993798
_cell_angle_gamma	84.048756
loop_
_atom_site_label
_atom_site_type_symbol
_atom_site_fract_x
_atom_site_fract_y
_atom_site_fract_z
O1	O	1.187840	0.163637	-0.082676
O2	O	0.927546	0.183240	-0.082681
O3	O	1.063678	-0.009365	-0.082675
O4	O	1.051708	0.356242	-0.082682
O5	O	1.063660	-0.009377	0.082709
O6	O	0.927529	0.183228	0.082703
O7	O	1.187823	0.163625	0.082707
Cu8	Cu	1.057674	0.173426	0.097806
Cu9	Cu	1.057694	0.173440	-0.097780
O10	O	1.051691	0.356230	0.082701
C11	C	0.894208	0.182359	0.000010
C12	C	0.794896	0.179734	0.000009
C13	C	0.748235	0.178491	0.090160
C14	C	0.654923	0.176005	0.090162
C15	C	0.608273	0.174770	0.000010
C16	C	0.654941	0.176009	-0.090149
C17	C	0.748252	0.178487	-0.090149
C18	C	0.460451	0.170849	-0.090142
C19	C	0.367133	0.168374	-0.090143
C20	C	0.367122	0.168367	0.090168
C21	C	0.460433	0.170845	0.090168
C22	C	0.507094	0.172086	0.000009
C23	C	1.062790	-0.056159	0.000016
C24	C	1.060161	-0.195574	0.000012
C25	C	1.140313	-0.275921	0.000017
C26	C	1.137837	-0.406916	0.000010
C27	C	0.975050	-0.377203	-0.000002
C28	C	0.977526	-0.246211	-0.000002
C29	C	1.222947	-0.225285	0.000031
C30	C	1.303106	-0.305633	0.000037
C31	C	1.300630	-0.436627	0.000030
C32	C	1.217995	-0.487273	0.000017
C33	C	1.221161	0.164507	0.000014
C34	C	1.320472	0.167132	0.000009
C35	C	1.052578	0.403025	0.000008
C36	C	1.055208	0.542440	0.000005
N37	N	1.057666	0.173415	0.235370
N38	N	1.057709	0.173440	-0.235344
C39	C	1.117964	0.088165	0.287413
C40	C	1.117970	0.088163	0.391517
C41	C	1.057681	0.173420	0.443575
C42	C	0.997376	0.258674	0.391525
C43	C	0.997367	0.258669	0.287423
C44	C	0.997401	0.258683	0.608505
C45	C	0.997411	0.258691	0.712613
C46	C	1.118004	0.088178	0.712598
C47	C	1.117995	0.088172	0.608497
C48	C	1.057691	0.173428	0.556454
H49	H	0.616938	0.174972	0.163572
H50	H	1.365899	-0.502044	0.000024
H51	H	1.167091	0.018756	0.566111
H52	H	1.167105	0.018759	0.754978
H53	H	0.329126	0.167357	0.163579
H54	H	1.370384	-0.264388	0.000022
H55	H	0.948265	0.328087	0.245051
H56	H	1.215985	-0.593939	0.000001
H57	H	0.948283	0.328088	0.433916
H58	H	0.616951	0.174995	-0.163552
H59	H	0.786210	0.179507	0.163573
H60	H	0.498413	0.171858	0.163578
H61	H	0.912259	-0.180790	-0.000004
H62	H	1.224972	-0.118624	0.000040
H63	H	0.329153	0.167370	-0.163552
H64	H	0.498439	0.171860	-0.163560
H65	H	0.786242	0.179501	-0.163560
H66	H	0.907772	-0.418450	-0.000011
H67	H	1.167062	0.018744	0.245034
H68	H	0.948317	0.328114	0.754994
H69	H	1.167068	0.018745	0.433890
H70	H	0.948292	0.328104	0.566135
