data_functionalizedCrystal
_audit_creation_method	'MofGen! by Chris Wilmer'
_symmetry_space_group_name_H-M	'P1'
_symmetry_Int_Tables_number	1
_symmetry_cell_setting	triclinic
loop_
_symmetry_equiv_pos_as_xyz
  x,y,z
_cell_length_a	18.215407
_cell_length_b	18.215404
_cell_length_c	18.215399
_cell_angle_alpha	90.026844
_cell_angle_beta	90.017777
_cell_angle_gamma	90.018838
loop_
_atom_site_label
_atom_site_type_symbol
_atom_site_fract_x
_atom_site_fract_y
_atom_site_fract_z
Zn1	Zn	-1.125080	0.293078	-0.416081
Zn2	Zn	-1.124992	0.416149	-0.293017
Zn3	Zn	-1.002013	0.293092	-0.293033
Zn4	Zn	-1.001982	0.416098	-0.416047
O5	O	-1.063517	0.354604	-0.354544
O6	O	-1.228053	0.309419	-0.399764
O7	O	-1.108655	0.399852	-0.190035
O8	O	-1.018388	0.190105	-0.309377
O9	O	-1.227988	0.399839	-0.309350
O10	O	-1.108805	0.190095	-0.399780
O11	O	-1.018302	0.309443	-0.190047
O12	O	-0.899025	0.309393	-0.309343
O13	O	-1.018336	0.399752	-0.519035
O14	O	-0.899002	0.399765	-0.399721
O15	O	-1.108775	0.309369	-0.519061
O16	O	-1.108625	0.519127	-0.309316
O17	O	-1.018250	0.519089	-0.399705
C18	C	-0.872311	0.354575	-0.354530
C19	C	-0.790512	0.354581	-0.354542
C20	C	-0.602351	0.307590	-0.401693
C21	C	-0.525492	0.307594	-0.401695
C22	C	-0.525436	0.401607	-0.307401
C23	C	-0.602293	0.401599	-0.307396
C24	C	-0.640748	0.354591	-0.354546
C25	C	-0.487032	0.354603	-0.354553
C26	C	-0.403699	0.354608	-0.354555
C27	C	-0.724087	0.354586	-0.354544
C28	C	-1.063445	0.545810	-0.354521
C29	C	-1.063481	0.627609	-0.354536
C30	C	-0.255470	0.354625	-0.354557
C31	C	-0.337269	0.354614	-0.354558
C32	C	-1.110680	0.892662	-0.307582
C33	C	-1.110649	0.815803	-0.307562
C34	C	-1.016455	0.815805	-0.401602
C35	C	-1.016483	0.892662	-0.401618
C36	C	-1.063600	0.931089	-0.354609
C37	C	-1.063541	0.777373	-0.354573
C38	C	-1.063507	0.694039	-0.354551
C39	C	-1.063633	1.014428	-0.354629
C40	C	-1.063562	0.354553	-0.546497
C41	C	-1.063581	0.354532	-0.628296
C42	C	-1.063612	1.162651	-0.354595
C43	C	-1.063659	1.080852	-0.354645
C44	C	-1.110690	0.307426	-0.816505
C45	C	-1.110699	0.307404	-0.893364
C46	C	-1.016524	0.401524	-0.893326
C47	C	-1.016512	0.401541	-0.816468
C48	C	-1.063599	0.354493	-0.778060
C49	C	-1.063620	0.354454	-0.931776
C50	C	-1.063629	0.354432	-1.015110
C51	C	-1.063589	0.354515	-0.694721
C52	C	-1.063515	0.354601	-0.163338
C53	C	-1.063638	0.354416	-0.081540
H54	H	-0.494232	0.269320	-0.440086
H55	H	-1.149029	0.269114	-0.785235
H56	H	-0.494116	0.439879	-0.269014
H57	H	-0.633557	0.439874	-0.269000
H58	H	-1.149045	0.923947	-0.269304
H59	H	-1.148985	0.784518	-0.269267
O60	O	-0.970826	0.929961	-0.447410
C61	C	-0.934999	0.953390	-0.572560
C62	C	-0.986762	0.911117	-0.520791
H63	H	-0.947854	0.938158	-0.631899
H64	H	-0.943114	1.014931	-0.564558
H65	H	-0.875665	0.938338	-0.559538
H66	H	-1.046116	0.926108	-0.533781
H67	H	-0.978584	0.849586	-0.528803
H68	H	-0.978160	0.439868	-0.785166
H69	H	-1.149043	0.269076	-0.924662
H70	H	-0.978095	0.784510	-0.439876
H71	H	-0.633659	0.269311	-0.440084
O72	O	-0.970859	0.447204	-0.930751
C73	C	-0.929109	0.488860	-1.049137
C74	C	-0.980874	0.437101	-1.006847
H75	H	-0.937177	0.480699	-1.110668
H76	H	-0.942004	0.548223	-1.034067
H77	H	-0.869780	0.475941	-1.033976
H78	H	-1.040221	0.449954	-1.021986
H79	H	-0.967916	0.377754	-1.021921
