data_functionalizedCrystal
_audit_creation_method	'MofGen! by Chris Wilmer'
_symmetry_space_group_name_H-M	'P1'
_symmetry_Int_Tables_number	1
_symmetry_cell_setting	triclinic
loop_
_symmetry_equiv_pos_as_xyz
  x,y,z
_cell_length_a	27.731994
_cell_length_b	27.731996
_cell_length_c	22.010155
_cell_angle_alpha	89.998256
_cell_angle_beta	89.997700
_cell_angle_gamma	82.620961
loop_
_atom_site_label
_atom_site_type_symbol
_atom_site_fract_x
_atom_site_fract_y
_atom_site_fract_z
O1	O	0.640937	0.057387	-0.050446
O2	O	0.974271	0.390720	0.282887
O3	O	1.307604	0.724054	0.616220
O4	O	0.500138	0.066160	-0.050468
O5	O	0.833472	0.399493	0.282866
O6	O	1.166805	0.732827	0.616199
O7	O	0.574924	-0.008626	-0.050443
O8	O	0.908257	0.324707	0.282890
O9	O	1.241590	0.658041	0.616224
O10	O	0.566152	0.132173	-0.050471
O11	O	0.899485	0.465506	0.282863
O12	O	1.232818	0.798840	0.616196
O13	O	0.574910	-0.008615	0.050607
O14	O	0.908244	0.324719	0.383941
O15	O	1.241577	0.658052	0.717274
O16	O	0.500125	0.066171	0.050583
O17	O	0.833458	0.399505	0.383916
O18	O	1.166791	0.732838	0.717249
O19	O	0.640924	0.057398	0.050604
O20	O	0.974257	0.390732	0.383937
O21	O	1.307590	0.724065	0.717271
Cu22	Cu	0.570523	0.061786	0.059820
Cu23	Cu	0.903856	0.395119	0.393153
Cu24	Cu	1.237190	0.728452	0.726487
Cu25	Cu	0.570539	0.061773	-0.059684
Cu26	Cu	0.903872	0.395106	0.273650
Cu27	Cu	1.237206	0.728439	0.606983
O28	O	0.566138	0.132184	0.050580
O29	O	0.899471	0.465518	0.383913
O30	O	1.232805	0.798851	0.717246
C31	C	0.482124	0.065986	0.000055
C32	C	0.815458	0.399319	0.333388
C33	C	1.148791	0.732652	0.666722
C34	C	0.428468	0.065443	0.000048
C35	C	0.761801	0.398777	0.333381
C36	C	1.095135	0.732110	0.666714
C37	C	0.095743	0.062034	0.055154
C38	C	0.429076	0.395367	0.388487
C39	C	0.762409	0.728700	0.721821
C40	C	-0.105915	0.059972	0.055161
C41	C	0.227418	0.393305	0.388495
C42	C	0.560752	0.726639	0.721828
O43	O	-0.131994	0.059690	0.102007
O44	O	0.201340	0.393023	0.435340
O45	O	0.534673	0.726356	0.768674
N46	N	-0.131122	0.059710	0.000079
N47	N	0.202211	0.393043	0.333412
N48	N	0.535544	0.726376	0.666746
C49	C	-0.105912	0.059960	-0.055009
C50	C	0.227422	0.393293	0.278324
C51	C	0.560755	0.726627	0.611657
O52	O	-0.131979	0.059685	-0.101860
O53	O	0.201355	0.393018	0.231473
O54	O	0.534688	0.726351	0.564807
C55	C	0.095746	0.062018	-0.055016
C56	C	0.429079	0.395351	0.278318
C57	C	0.762412	0.728685	0.611651
C58	C	0.120950	0.062285	0.000070
C59	C	0.454283	0.395618	0.333404
C60	C	0.787616	0.728952	0.666737
C61	C	0.120947	0.062300	0.110236
C62	C	0.454280	0.395633	0.443569
C63	C	0.787614	0.728967	0.776902
C64	C	0.171358	0.062818	0.110233
C65	C	0.504691	0.396151	0.443567
C66	C	0.838025	0.729485	0.776900
C67	C	0.196565	0.063070	0.055149
C68	C	0.529898	0.396403	0.388483
C69	C	0.863232	0.729736	0.721816
C70	C	0.171361	0.062803	0.000068
C71	C	0.504694	0.396136	0.333401
C72	C	0.838027	0.729470	0.666735
C73	C	0.120956	0.062265	-0.110103
C74	C	0.454289	0.395598	0.223230
C75	C	0.787622	0.728931	0.556563
C76	C	0.171373	0.062778	-0.110100
C77	C	0.504707	0.396111	0.223233
C78	C	0.838040	0.729445	0.556567
C79	C	0.196577	0.063045	-0.055014
C80	C	0.529911	0.396378	0.278319
C81	C	0.863244	0.729712	0.611653
C82	C	0.246979	0.063573	-0.055018
C83	C	0.580312	0.396906	0.278315
C84	C	0.913645	0.730239	0.611648
N85	N	0.272186	0.063835	0.000064
N86	N	0.605519	0.397168	0.333397
N87	N	0.938853	0.730502	0.666731
C88	C	0.246979	0.063583	0.055148
C89	C	0.580312	0.396917	0.388481
C90	C	0.913646	0.730250	0.721815
C91	C	-0.211785	0.058880	-0.055002
C92	C	0.121548	0.392214	0.278332
C93	C	0.454882	0.725547	0.611665
C94	C	-0.262199	0.058367	-0.055000
C95	C	0.071134	0.391700	0.278333
C96	C	0.404468	0.725033	0.611666
C97	C	-0.262199	0.058378	0.055171
C98	C	0.071135	0.391711	0.388504
C99	C	0.404468	0.725044	0.721837
C100	C	-0.211784	0.058895	0.055168
C101	C	0.121549	0.392228	0.388502
C102	C	0.454883	0.725562	0.721835
C103	C	-0.186578	0.059142	0.000081
C104	C	0.146756	0.392476	0.333414
C105	C	0.480089	0.725809	0.666747
C106	C	0.352846	0.064672	0.055139
C107	C	0.686179	0.398005	0.388472
C108	C	1.019513	0.731338	0.721805
C109	C	0.403261	0.065192	0.055131
C110	C	0.736594	0.398525	0.388465
C111	C	1.069928	0.731858	0.721798
C112	C	0.403257	0.065178	-0.055039
C113	C	0.736590	0.398511	0.278294
C114	C	1.069923	0.731845	0.611628
C115	C	0.352845	0.064660	-0.055032
C116	C	0.686179	0.397994	0.278301
C117	C	1.019512	0.731327	0.611635
C118	C	0.327642	0.064406	0.000062
C119	C	0.660975	0.397739	0.333395
C120	C	0.994308	0.731072	0.666728
O121	O	0.273089	0.063850	-0.101839
O122	O	0.606423	0.397183	0.231494
O123	O	0.939756	0.730516	0.564827
O124	O	0.273056	0.063848	0.101992
O125	O	0.606390	0.397181	0.435325
O126	O	0.939723	0.730515	0.768658
C127	C	0.045332	0.061516	0.055157
C128	C	0.378665	0.394849	0.388490
C129	C	0.711998	0.728182	0.721823
C130	C	0.020127	0.061249	0.000075
C131	C	0.353461	0.394582	0.333408
C132	C	0.686794	0.727916	0.666742
C133	C	0.045334	0.061501	-0.055009
C134	C	0.378668	0.394834	0.278324
C135	C	0.712001	0.728167	0.611658
C136	C	-0.030287	0.060735	0.000076
C137	C	0.303047	0.394069	0.333410
C138	C	0.636380	0.727402	0.666743
C139	C	-0.055494	0.060484	0.055160
C140	C	0.277840	0.393817	0.388494
C141	C	0.611173	0.727150	0.721827
C142	C	-0.030286	0.060746	0.110243
C143	C	0.303047	0.394079	0.443576
C144	C	0.636380	0.727413	0.776910
C145	C	0.020125	0.061264	0.110240
C146	C	0.353458	0.394597	0.443574
C147	C	0.686792	0.727931	0.776907
C148	C	0.020127	0.061238	-0.110091
C149	C	0.353460	0.394572	0.223242
C150	C	0.686794	0.727905	0.556575
C151	C	-0.030284	0.060721	-0.110085
C152	C	0.303049	0.394054	0.223249
C153	C	0.636382	0.727388	0.556582
C154	C	-0.055491	0.060469	-0.055001
C155	C	0.277842	0.393803	0.278333
C156	C	0.611176	0.727136	0.611666
C157	C	0.574737	-0.026628	0.000084
C158	C	0.908070	0.306706	0.333417
C159	C	1.241403	0.640039	0.666751
C160	C	0.574194	-0.080284	0.000090
C161	C	0.907527	0.253050	0.333424
C162	C	1.240861	0.586383	0.666757
C163	C	0.570787	-0.413005	-0.055023
C164	C	0.904120	-0.079672	0.278311
C165	C	1.237453	0.253661	0.611644
C166	C	0.568726	-0.614663	-0.055034
C167	C	0.902059	-0.281330	0.278300
C168	C	1.235392	0.052003	0.611633
O169	O	0.568445	-0.640739	-0.101880
O170	O	0.901778	-0.307406	0.231454
O171	O	1.235111	0.025928	0.564787
N172	N	0.568462	-0.639874	0.000048
N173	N	0.901795	-0.306541	0.333382
N174	N	1.235129	0.026792	0.666715
C175	C	0.568711	-0.614667	0.055137
C176	C	0.902044	-0.281334	0.388470
C177	C	1.235378	0.051999	0.721804
O178	O	0.568435	-0.640737	0.101987
O179	O	0.901768	-0.307404	0.435321
O180	O	1.235101	0.025929	0.768654
C181	C	0.570768	-0.413010	0.055147
C182	C	0.904102	-0.079677	0.388481
C183	C	1.237435	0.253657	0.721814
C184	C	0.571037	-0.387802	0.000062
C185	C	0.904370	-0.054469	0.333395
C186	C	1.237703	0.278864	0.666729
C187	C	0.571054	-0.387798	-0.110104
C188	C	0.904388	-0.054464	0.223230
C189	C	1.237721	0.278869	0.556563
C190	C	0.571572	-0.337387	-0.110100
C191	C	0.904906	-0.004053	0.223233
C192	C	1.238239	0.329280	0.556566
C193	C	0.571822	-0.312183	-0.055016
C194	C	0.905156	0.021150	0.278317
C195	C	1.238489	0.354483	0.611651
C196	C	0.571555	-0.337391	0.000065
C197	C	0.904888	-0.004058	0.333399
C198	C	1.238221	0.329276	0.666732
C199	C	0.571014	-0.387803	0.110235
C200	C	0.904347	-0.054470	0.443569
C201	C	1.237680	0.278863	0.776902
C202	C	0.571527	-0.337386	0.110233
C203	C	0.904860	-0.004052	0.443567
C204	C	1.238194	0.329281	0.776900
C205	C	0.571795	-0.312178	0.055148
C206	C	0.905129	0.021155	0.388481
C207	C	1.238462	0.354489	0.721814
C208	C	0.572323	-0.261777	0.055153
C209	C	0.905656	0.071557	0.388486
C210	C	1.238989	0.404890	0.721820
N211	N	0.572586	-0.236566	0.000071
N212	N	0.905919	0.096768	0.333404
N213	N	1.239253	0.430101	0.666738
C214	C	0.572336	-0.261769	-0.055013
C215	C	0.905669	0.071564	0.278320
C216	C	1.239003	0.404898	0.611653
C217	C	0.567632	-0.720540	0.055128
C218	C	0.900965	-0.387207	0.388461
C219	C	1.234298	-0.053874	0.721794
C220	C	0.567118	-0.770955	0.055125
C221	C	0.900451	-0.437621	0.388459
C222	C	1.233785	-0.104288	0.721792
C223	C	0.567132	-0.770947	-0.055046
C224	C	0.900465	-0.437614	0.278288
C225	C	1.233799	-0.104280	0.611621
C226	C	0.567649	-0.720532	-0.055042
C227	C	0.900982	-0.387199	0.278291
C228	C	1.234316	-0.053866	0.611624
C229	C	0.567895	-0.695329	0.000046
C230	C	0.901228	-0.361996	0.333379
C231	C	1.234562	-0.028663	0.666712
C232	C	0.573424	-0.155902	-0.055002
C233	C	0.906757	0.177431	0.278331
C234	C	1.240091	0.510764	0.611664
C235	C	0.573944	-0.105487	-0.054994
C236	C	0.907277	0.227846	0.278339
C237	C	1.240611	0.561180	0.611672
C238	C	0.573928	-0.105499	0.055176
C239	C	0.907261	0.227835	0.388510
C240	C	1.240594	0.561168	0.721843
C241	C	0.573410	-0.155910	0.055168
C242	C	0.906744	0.177424	0.388502
C243	C	1.240077	0.510757	0.721835
C244	C	0.573157	-0.181110	0.000074
C245	C	0.906490	0.152223	0.333408
C246	C	1.239823	0.485556	0.666741
O247	O	0.572599	-0.235669	0.101974
O248	O	0.905932	0.097664	0.435308
O249	O	1.239265	0.430998	0.768641
O250	O	0.572602	-0.235689	-0.101857
O251	O	0.905935	0.097644	0.231476
O252	O	1.239268	0.430978	0.564810
C253	C	0.570269	-0.463417	-0.055026
C254	C	0.903602	-0.130083	0.278308
C255	C	1.236935	0.203250	0.611641
C256	C	0.570001	-0.488624	0.000055
C257	C	0.903334	-0.155291	0.333389
C258	C	1.236668	0.178042	0.666722
C259	C	0.570251	-0.463421	0.055140
C260	C	0.903584	-0.130088	0.388473
C261	C	1.236918	0.203246	0.721806
C262	C	0.569487	-0.539039	0.000053
C263	C	0.902821	-0.205705	0.333386
C264	C	1.236154	0.127628	0.666720
C265	C	0.569237	-0.564242	-0.055032
C266	C	0.902571	-0.230909	0.278302
C267	C	1.235904	0.102425	0.611635
C268	C	0.569501	-0.539031	-0.110114
C269	C	0.902834	-0.205698	0.223220
C270	C	1.236167	0.127636	0.556553
C271	C	0.570019	-0.488620	-0.110110
C272	C	0.903352	-0.155287	0.223223
C273	C	1.236685	0.178047	0.556556
C274	C	0.569988	-0.488632	0.110222
C275	C	0.903321	-0.155299	0.443555
C276	C	1.236654	0.178035	0.776888
C277	C	0.569470	-0.539043	0.110214
C278	C	0.902804	-0.205710	0.443547
C279	C	1.236137	0.127623	0.776881
C280	C	0.569220	-0.564247	0.055129
C281	C	0.902554	-0.230913	0.388463
C282	C	1.235887	0.102420	0.721796
C283	C	0.658938	0.057573	0.000080
C284	C	0.992271	0.390906	0.333413
C285	C	1.325604	0.724239	0.666747
C286	C	0.712594	0.058115	0.000084
C287	C	1.045927	0.391448	0.333417
C288	C	1.379261	0.724782	0.666750
C289	C	0.566325	0.150186	0.000051
C290	C	0.899658	0.483519	0.333384
C291	C	1.232992	0.816853	0.666718
C292	C	0.566868	0.203842	0.000041
C293	C	0.900201	0.537175	0.333374
C294	C	1.233535	0.870509	0.666708
N295	N	0.570515	0.061795	0.143873
N296	N	0.903849	0.395128	0.477206
N297	N	1.237182	0.728461	0.810539
N298	N	0.570551	0.061760	-0.143736
N299	N	0.903884	0.395093	0.189597
N300	N	1.237217	0.728426	0.522931
C301	C	0.603656	0.028662	0.563663
C302	C	0.936989	0.361995	0.896996
C303	C	1.270323	0.695329	1.230329
C304	C	0.603658	0.028659	0.627270
C305	C	0.936991	0.361992	0.960604
C306	C	1.270325	0.695325	1.293937
O307	O	0.631816	0.000494	0.660171
O308	O	0.965149	0.333828	0.993504
O309	O	1.298483	0.667161	1.326838
N310	N	0.570539	0.061762	0.659080
N311	N	0.903872	0.395096	0.992413
N312	N	1.237205	0.728429	1.325746
C313	C	0.537412	0.094868	0.627278
C314	C	0.870745	0.428202	0.960611
C315	C	1.204078	0.761535	1.293945
O316	O	0.509241	0.123025	0.660175
O317	O	0.842574	0.456358	0.993508
O318	O	1.175908	0.789692	1.326842
C319	C	0.537408	0.094869	0.563672
C320	C	0.870741	0.428202	0.897005
C321	C	1.204074	0.761536	1.230338
C322	C	0.570532	0.061766	0.531866
C323	C	0.903866	0.395100	0.865199
C324	C	1.237199	0.728433	1.198532
C325	C	0.636778	-0.004438	0.531857
C326	C	0.970111	0.328895	0.865190
C327	C	1.303444	0.662228	1.198523
C328	C	0.636776	-0.004434	0.468254
C329	C	0.970109	0.328899	0.801587
C330	C	1.303443	0.662232	1.134920
C331	C	0.603652	0.028670	0.436456
C332	C	0.936986	0.362003	0.769790
C333	C	1.270319	0.695337	1.103123
C334	C	0.570531	0.061770	0.468262
C335	C	0.903864	0.395104	0.801596
C336	C	1.237197	0.728437	1.134929
C337	C	0.504279	0.127972	0.531871
C338	C	0.837612	0.461306	0.865205
C339	C	1.170945	0.794639	1.198538
C340	C	0.504277	0.127970	0.468260
C341	C	0.837610	0.461303	0.801594
C342	C	1.170944	0.794637	1.134927
C343	C	0.537402	0.094867	0.436454
C344	C	0.870735	0.428201	0.769788
C345	C	1.204069	0.761534	1.103121
C346	C	0.537405	0.094879	0.372862
C347	C	0.870739	0.428212	0.706195
C348	C	1.204072	0.761546	1.039529
N349	N	0.570525	0.061775	0.341053
N350	N	0.903858	0.395108	0.674386
N351	N	1.237191	0.728442	1.007719
C352	C	0.603648	0.028671	0.372850
C353	C	0.936981	0.362004	0.706183
C354	C	1.270315	0.695337	1.039517
C355	C	0.537422	0.094864	0.760856
C356	C	0.870756	0.428197	1.094189
C357	C	1.204089	0.761531	1.427523
C358	C	0.537429	0.094866	0.824461
C359	C	0.870762	0.428199	1.157795
C360	C	1.204095	0.761533	1.491128
C361	C	0.603674	0.028655	0.824449
C362	C	0.937008	0.361989	1.157782
C363	C	1.270341	0.695322	1.491116
C364	C	0.603670	0.028656	0.760843
C365	C	0.937004	0.361989	1.094176
C366	C	1.270337	0.695323	1.427509
C367	C	0.570542	0.061760	0.729047
C368	C	0.903875	0.395094	1.062380
C369	C	1.237208	0.728427	1.395713
C370	C	0.603642	0.028682	0.239279
C371	C	0.936975	0.362015	0.572612
C372	C	1.270309	0.695349	0.905945
C373	C	0.603639	0.028690	0.175670
C374	C	0.936972	0.362024	0.509003
C375	C	1.270305	0.695357	0.842336
C376	C	0.537391	0.094899	0.175687
C377	C	0.870725	0.428232	0.509021
C378	C	1.204058	0.761566	0.842354
C379	C	0.537396	0.094893	0.239291
C380	C	0.870730	0.428226	0.572624
C381	C	1.204063	0.761559	0.905957
C382	C	0.570523	0.061780	0.271085
C383	C	0.903857	0.395113	0.604418
C384	C	1.237190	0.728447	0.937751
O385	O	0.509260	0.123028	0.339921
O386	O	0.842594	0.456361	0.673254
O387	O	1.175927	0.789694	1.006588
O388	O	0.631810	0.000514	0.339945
O389	O	0.965143	0.333848	0.673279
O390	O	1.298477	0.667181	1.006612
H391	H	0.100443	0.062047	-0.154960
H392	H	0.433777	0.395380	0.178373
H393	H	0.767110	0.728713	0.511706
H394	H	0.630643	0.001701	0.734950
H395	H	0.963976	0.335034	1.068283
H396	H	1.297310	0.668368	1.401617
Br397	Br	-0.177584	0.059257	0.129930
Br398	Br	0.155750	0.392590	0.463264
Br399	Br	0.489083	0.725924	0.796597
H400	H	0.423789	0.065385	-0.099887
H401	H	0.757122	0.398718	0.233446
H402	H	1.090456	0.732051	0.566780
H403	H	0.574163	-0.084965	-0.099853
H404	H	0.907497	0.248368	0.233480
H405	H	1.240830	0.581701	0.566813
H406	H	0.332322	0.064451	-0.099888
H407	H	0.665655	0.397784	0.233446
H408	H	0.998989	0.731118	0.566779
Br409	Br	0.459321	0.172899	0.575023
Br410	Br	0.792655	0.506233	0.908357
Br411	Br	1.125988	0.839566	1.241690
Br412	Br	-0.296418	0.058036	0.129927
Br413	Br	0.036916	0.391369	0.463260
Br414	Br	0.370249	0.724703	0.796594
Br415	Br	0.205556	0.063178	0.184997
Br416	Br	0.538889	0.396512	0.518330
Br417	Br	0.872223	0.729845	0.851664
Br418	Br	0.648628	-0.016272	0.867616
Br419	Br	0.981961	0.317061	1.200949
Br420	Br	1.315295	0.650395	1.534283
Br421	Br	0.437463	0.065557	0.129896
Br422	Br	0.770797	0.398891	0.463229
Br423	Br	1.104130	0.732224	0.796563
Br424	Br	0.492480	0.139800	0.867619
Br425	Br	0.825813	0.473134	1.200953
Br426	Br	1.159146	0.806467	1.534286
Br427	Br	0.569165	-0.573246	-0.184870
Br428	Br	0.902498	-0.239913	0.148463
Br429	Br	1.235832	0.093421	0.481796
H430	H	0.191894	0.062980	-0.154960
H431	H	0.525227	0.396313	0.178373
H432	H	0.858561	0.729646	0.511706
H433	H	0.571720	-0.316867	0.155094
H434	H	0.905053	0.016466	0.488427
H435	H	1.238387	0.349800	0.821760
H436	H	0.566929	-0.791476	-0.099897
H437	H	0.900262	-0.458143	0.233436
H438	H	1.233595	-0.124810	0.566769
H439	H	0.040642	0.061481	0.155097
H440	H	0.373975	0.394815	0.488431
H441	H	0.707308	0.728148	0.821764
Br442	Br	-0.064506	0.060408	0.184999
Br443	Br	0.268827	0.393741	0.518332
Br444	Br	0.602161	0.727075	0.851666
Br445	Br	0.574268	-0.071285	0.129930
Br446	Br	0.907602	0.262049	0.463263
Br447	Br	1.240935	0.595382	0.796597
H448	H	0.510428	0.121852	0.265188
H449	H	0.843761	0.455186	0.598521
H450	H	1.177094	0.788519	0.931854
Br451	Br	0.573057	-0.190123	0.129928
Br452	Br	0.906391	0.143210	0.463261
Br453	Br	1.239724	0.476544	0.796594
H454	H	0.630615	0.001734	0.149775
H455	H	0.963948	0.335067	0.483109
H456	H	1.297281	0.668401	0.816442
Br457	Br	0.054328	0.061578	-0.184856
Br458	Br	0.387662	0.394912	0.148477
Br459	Br	0.720995	0.728245	0.481811
H460	H	0.663751	-0.031398	0.557740
H461	H	0.997084	0.301935	0.891074
H462	H	1.330417	0.635268	1.224407
H463	H	0.570237	-0.468100	-0.154967
H464	H	0.903570	-0.134767	0.178367
H465	H	1.236903	0.198566	0.511700
Br466	Br	0.573080	-0.190095	-0.129774
Br467	Br	0.906413	0.143238	0.203560
Br468	Br	1.239746	0.476572	0.536893
H469	H	-0.191266	0.059081	-0.099863
H470	H	0.142067	0.392415	0.233470
H471	H	0.475400	0.725748	0.566803
H472	H	0.571789	-0.316867	-0.154957
H473	H	0.905122	0.016467	0.178377
H474	H	1.238456	0.349800	0.511710
Br475	Br	-0.064484	0.060363	-0.184852
Br476	Br	0.268849	0.393696	0.148482
Br477	Br	0.602183	0.727029	0.481815
H478	H	-0.282717	0.058157	-0.099857
H479	H	0.050616	0.391490	0.233476
H480	H	0.383950	0.724824	0.566810
Br481	Br	0.567961	-0.686343	0.129898
Br482	Br	0.901295	-0.353010	0.463231
Br483	Br	1.234628	-0.019676	0.796565
H484	H	0.570849	-0.408313	-0.154962
H485	H	0.904182	-0.074979	0.178371
H486	H	1.237516	0.258354	0.511704
Br487	Br	0.568013	-0.686327	-0.129804
Br488	Br	0.901346	-0.352994	0.203530
Br489	Br	1.234679	-0.019661	0.536863
H490	H	0.510424	0.121854	0.149788
H491	H	0.843757	0.455187	0.483122
H492	H	1.177090	0.788520	0.816455
Br493	Br	0.569110	-0.573248	0.184980
Br494	Br	0.902444	-0.239915	0.518314
Br495	Br	1.235777	0.093419	0.851647
H496	H	0.566907	-0.791476	0.099982
H497	H	0.900240	-0.458142	0.433315
H498	H	1.233574	-0.124809	0.766648
Br499	Br	0.570322	-0.454435	0.184987
Br500	Br	0.903655	-0.121101	0.518320
Br501	Br	1.236988	0.212232	0.851654
Br502	Br	0.492461	0.139798	0.717710
Br503	Br	0.825794	0.473132	1.051043
Br504	Br	1.159128	0.806465	1.384377
Br505	Br	0.648601	-0.016257	0.282417
Br506	Br	0.981934	0.317076	0.615751
Br507	Br	1.315268	0.650410	0.949084
H508	H	0.570796	-0.408319	0.155092
H509	H	0.904129	-0.074986	0.488426
H510	H	1.237463	0.258348	0.821759
H511	H	0.477298	0.154927	0.442375
H512	H	0.810632	0.488260	0.775708
H513	H	1.143965	0.821594	1.109042
H514	H	0.663747	-0.031391	0.442361
H515	H	0.997081	0.301943	0.775694
H516	H	1.330414	0.635276	1.109027
H517	H	0.100429	0.062094	0.155094
H518	H	0.433762	0.395428	0.488428
H519	H	0.767096	0.728761	0.821761
Br520	Br	0.318649	0.064324	0.129909
Br521	Br	0.651982	0.397658	0.463243
Br522	Br	0.985315	0.730991	0.796576
