data_functionalizedCrystal
_audit_creation_method	'MofGen! by Chris Wilmer'
_symmetry_space_group_name_H-M	'P1'
_symmetry_Int_Tables_number	1
_symmetry_cell_setting	triclinic
loop_
_symmetry_equiv_pos_as_xyz
  x,y,z
_cell_length_a	10.723022
_cell_length_b	19.188924
_cell_length_c	9.198806
_cell_angle_alpha	89.994752
_cell_angle_beta	89.996352
_cell_angle_gamma	83.804595
loop_
_atom_site_label
_atom_site_type_symbol
_atom_site_fract_x
_atom_site_fract_y
_atom_site_fract_z
O1	O	1.655152	0.097917	-0.120890
O2	O	1.291804	0.107291	-0.120896
O3	O	1.483968	0.001016	-0.120876
O4	O	1.462988	0.204192	-0.120911
O5	O	1.483953	0.001016	0.120909
O6	O	1.291789	0.107291	0.120889
O7	O	1.655137	0.097917	0.120895
Cu8	Cu	1.473462	0.102604	0.142969
Cu9	Cu	1.473480	0.102604	-0.142970
O10	O	1.462973	0.204192	0.120874
C11	C	1.245311	0.106609	-0.000004
C12	C	1.106799	0.104569	-0.000006
C13	C	1.483283	-0.024999	0.000018
C14	C	1.481247	-0.102517	0.000022
C15	C	1.059513	0.043284	0.000004
C16	C	0.916354	0.041174	0.000002
C17	C	1.480306	-0.138922	-0.131776
C18	C	1.478376	-0.211757	-0.131787
C19	C	1.477413	-0.248187	0.000007
C20	C	1.478347	-0.211773	0.131822
C21	C	1.480265	-0.138938	0.131829
N22	N	1.545403	-0.367408	0.098099
N23	N	1.543585	-0.436599	0.098083
C24	C	1.471633	-0.467633	-0.000007
N25	N	1.401584	-0.426865	-0.098103
N26	N	1.403409	-0.357669	-0.098091
C27	C	1.475333	-0.327164	0.000014
C28	C	1.468597	-0.583014	-0.131825
C29	C	1.466659	-0.655851	-0.131831
C30	C	1.466643	-0.655865	0.131781
C31	C	1.468568	-0.583030	0.131783
C32	C	1.469551	-0.546609	-0.000024
C33	C	1.701630	0.098599	-0.000001
C34	C	1.840142	0.100639	-0.000009
C35	C	1.463659	0.230207	-0.000023
C36	C	1.465694	0.307725	-0.000036
N37	N	1.473458	0.102603	0.344083
N38	N	1.473493	0.102599	-0.344084
C39	C	1.554146	0.057785	0.416288
C40	C	1.554166	0.057782	0.583700
H41	H	1.125015	-0.007622	0.000006
O42	O	1.636423	0.011925	0.342224
C43	C	1.616264	-0.057269	0.379311
H44	H	1.516386	-0.058004	0.421292
H45	H	1.630540	-0.092183	0.279121
H46	H	1.685563	-0.077574	0.467504
H47	H	1.404388	0.140970	0.406204
O48	O	1.636752	0.012071	0.657699
C49	C	1.760327	0.023823	0.620554
H50	H	1.760941	0.079690	0.578612
H51	H	1.822901	0.016057	0.720704
H52	H	1.797066	-0.014773	0.532313
H53	H	0.875634	-0.011298	-0.000026
O54	O	0.888757	0.163228	-0.000283
C55	C	0.963180	0.168075	-0.125490
H56	H	0.932519	0.131467	-0.213001
H57	H	0.951316	0.224287	-0.167541
H58	H	1.065881	0.152392	-0.097174
O59	O	1.481015	-0.103635	0.259955
C60	C	1.372480	-0.114027	0.340114
H61	H	1.335066	-0.164442	0.302636
H62	H	1.396702	-0.118186	0.460691
H63	H	1.297909	-0.067856	0.321838
H64	H	1.469390	-0.553359	-0.239151
O65	O	1.028794	0.165350	0.000175
C66	C	1.051206	0.204483	0.125410
H67	H	1.150049	0.187881	0.167166
H68	H	1.041600	0.262671	0.097235
H69	H	0.980095	0.194544	0.213093
H70	H	1.477601	-0.241404	-0.239115
H71	H	1.481102	-0.109273	-0.239104
H72	H	1.465886	-0.685490	-0.239161
O73	O	1.477242	-0.247221	0.259755
C74	C	1.368075	-0.281946	0.267647
H75	H	1.331781	-0.290388	0.153208
H76	H	1.391021	-0.334829	0.323429
H77	H	1.293150	-0.248703	0.332683
O78	O	1.465514	-0.691301	0.259723
C79	C	1.356332	-0.726013	0.267603
H80	H	1.320053	-0.734460	0.153160
H81	H	1.379251	-0.778892	0.323407
H82	H	1.281406	-0.692757	0.332614
H83	H	1.469345	-0.553389	0.239107
H84	H	1.404413	0.140975	0.593832
