data_functionalizedCrystal
_audit_creation_method	'MofGen! by Chris Wilmer'
_symmetry_space_group_name_H-M	'P1'
_symmetry_Int_Tables_number	1
_symmetry_cell_setting	triclinic
loop_
_symmetry_equiv_pos_as_xyz
  x,y,z
_cell_length_a	21.295418
_cell_length_b	29.839132
_cell_length_c	21.295411
_cell_angle_alpha	89.977422
_cell_angle_beta	90.043738
_cell_angle_gamma	89.938925
loop_
_atom_site_label
_atom_site_type_symbol
_atom_site_fract_x
_atom_site_fract_y
_atom_site_fract_z
Zn1	Zn	0.962291	0.178715	0.356229
Zn2	Zn	0.962167	0.253830	0.250953
Zn3	Zn	0.857014	0.178736	0.250939
Zn4	Zn	0.856957	0.253839	0.356150
O5	O	0.909607	0.216280	0.303568
O6	O	1.050364	0.188667	0.342304
O7	O	0.948190	0.243874	0.162862
O8	O	0.871056	0.115866	0.264934
O9	O	1.050273	0.243854	0.264957
O10	O	0.948402	0.115851	0.342290
O11	O	0.870935	0.188703	0.162852
O12	O	0.768917	0.188711	0.264856
O13	O	0.870958	0.243869	0.444250
O14	O	0.768875	0.243889	0.342154
O15	O	0.948346	0.188675	0.444308
O16	O	0.948134	0.316699	0.264880
O17	O	0.870837	0.316705	0.342167
C18	C	0.746056	0.216304	0.303495
C19	C	0.676087	0.216325	0.303479
C20	C	0.643215	0.245094	0.343668
C21	C	0.577473	0.245083	0.343696
C22	C	0.544605	0.216307	0.303525
C23	C	0.577485	0.187532	0.263333
C24	C	0.643226	0.187541	0.263310
N25	N	0.441330	0.212791	0.248467
N26	N	0.378879	0.212785	0.248490
C27	C	0.346530	0.216279	0.303591
N28	N	0.378993	0.219787	0.358669
N29	N	0.441450	0.219795	0.358645
C30	C	0.473320	0.216294	0.303545
C31	C	0.242373	0.245038	0.343814
C32	C	0.176629	0.245023	0.343843
C33	C	0.176643	0.187475	0.263475
C34	C	0.242385	0.187487	0.263451
C35	C	0.275246	0.216271	0.303620
C36	C	0.909483	0.333003	0.303530
C37	C	0.909487	0.382937	0.303535
C38	C	0.949884	0.692565	0.263357
C39	C	0.949944	0.880238	0.263372
O40	O	0.984224	0.904489	0.229200
N41	N	0.909673	0.903722	0.303578
C42	C	0.869387	0.880286	0.343787
O43	O	0.835140	0.904567	0.377990
C44	C	0.869331	0.692614	0.343775
C45	C	0.909600	0.669131	0.303562
C46	C	0.990151	0.669082	0.223147
C47	C	0.990133	0.622167	0.223142
C48	C	0.949849	0.598734	0.263346
C49	C	0.909582	0.622216	0.303556
C50	C	0.829048	0.669178	0.383987
C51	C	0.829039	0.622257	0.383981
C52	C	0.869308	0.598775	0.343768
C53	C	0.869280	0.551867	0.343755
N54	N	0.909551	0.528383	0.303548
C55	C	0.949835	0.551816	0.263344
C56	C	0.869419	0.978816	0.343789
C57	C	0.869432	1.025734	0.343791
C58	C	0.949990	1.025683	0.263377
C59	C	0.949973	0.978764	0.263372
C60	C	0.909690	0.955332	0.303583
C61	C	0.949795	0.453290	0.263335
C62	C	0.949771	0.406370	0.263331
C63	C	0.869216	0.406426	0.343748
C64	C	0.869236	0.453341	0.343749
C65	C	0.909531	0.476772	0.303541
O66	O	0.835023	0.527587	0.377914
O67	O	0.984087	0.527526	0.229156
C68	C	0.949902	0.739480	0.263363
C69	C	0.909636	0.762962	0.303573
C70	C	0.869351	0.739529	0.343777
C71	C	0.909649	0.809880	0.303575
C72	C	0.949933	0.833313	0.263371
C73	C	0.990204	0.809829	0.223164
C74	C	0.990187	0.762913	0.223159
C75	C	0.829080	0.763014	0.383984
C76	C	0.829101	0.809929	0.383985
C77	C	0.869385	0.833362	0.343781
C78	C	1.073798	0.216257	0.303641
C79	C	1.143766	0.216247	0.303672
C80	C	0.909660	0.216271	0.467758
C81	C	0.909682	0.216267	0.537726
C82	C	0.909726	1.099102	0.303606
C83	C	0.909716	1.049167	0.303587
C84	C	0.909591	0.216257	0.140016
C85	C	0.909691	0.216135	0.070049
C86	C	0.949976	0.187526	0.570625
C87	C	0.949976	0.187507	0.636367
C88	C	0.909687	0.216236	0.669209
C89	C	0.869384	0.244978	0.636303
C90	C	0.869382	0.244994	0.570561
N91	N	0.904816	0.255537	0.772422
N92	N	0.904822	0.255521	0.834873
C93	C	0.909691	0.216190	0.867284
N94	N	0.914566	0.176875	0.834884
N95	N	0.914563	0.176891	0.772426
C96	C	0.909685	0.216222	0.740494
C97	C	0.949987	0.187426	0.971468
C98	C	0.949981	0.187406	1.037211
C99	C	0.869393	0.244882	1.037146
C100	C	0.869395	0.244898	0.971403
C101	C	0.909695	0.216171	0.938568
H102	H	0.982563	0.387253	0.230582
O103	O	0.993248	0.478559	0.219964
H104	H	1.021237	0.454342	0.192001
O105	O	0.993443	0.156511	0.671863
H106	H	1.021468	0.136540	0.637986
H107	H	0.836587	0.268304	0.944617
O108	O	0.785661	0.835251	0.427363
H109	H	0.753647	0.856664	0.399156
H110	H	0.836613	0.959741	0.376534
O111	O	0.678689	0.156513	0.219961
H112	H	0.708571	0.176594	0.187876
O113	O	0.825928	0.275963	0.671724
H114	H	0.797903	0.295949	0.637800
O115	O	0.542045	0.156494	0.220001
H116	H	0.554606	0.164148	0.170574
O117	O	0.141127	0.276054	0.387158
H118	H	0.111107	0.298850	0.358887
H119	H	0.149882	0.164043	0.230769
O120	O	0.993437	0.156539	0.535211
H121	H	1.025440	0.176650	0.505285
O122	O	0.825910	0.275994	0.535084
H123	H	0.854046	0.298857	0.505146
H124	H	0.669967	0.268531	0.376378
O125	O	0.785582	0.596988	0.427351
H126	H	0.813729	0.575578	0.459418
H127	H	1.022926	0.603050	0.190398
H128	H	0.550703	0.268510	0.376425
O129	O	0.993450	0.156441	0.936050
H130	H	0.986688	0.161286	0.884808
O131	O	1.033600	0.694353	0.179777
H132	H	1.061589	0.670135	0.151817
O133	O	0.993412	0.953437	0.220006
H134	H	1.021427	0.977619	0.192056
O135	O	0.785615	0.737742	0.427335
H136	H	0.757611	0.761959	0.455283
H137	H	0.982793	0.163999	1.063996
O138	O	0.825936	0.275869	1.072557
H139	H	0.832708	0.271032	1.123799
H140	H	0.269150	0.164062	0.230722
H141	H	0.836635	1.044850	0.376531
O142	O	0.277823	0.276074	0.387144
H143	H	0.243917	0.296073	0.415104
H144	H	0.796253	0.688289	0.416730
O145	O	0.993453	1.050960	0.220023
H146	H	0.986700	1.087529	0.226791
O147	O	0.825803	0.478673	0.387119
H148	H	0.797790	0.454494	0.415076
H149	H	0.836414	0.387339	0.376480
H150	H	1.022978	0.743797	0.190413
H151	H	1.023004	0.828916	0.190427
