data_functionalizedCrystal
_audit_creation_method	'MofGen! by Chris Wilmer'
_symmetry_space_group_name_H-M	'P1'
_symmetry_Int_Tables_number	1
_symmetry_cell_setting	triclinic
loop_
_symmetry_equiv_pos_as_xyz
  x,y,z
_cell_length_a	13.897449
_cell_length_b	29.839131
_cell_length_c	13.897441
_cell_angle_alpha	89.964857
_cell_angle_beta	89.979267
_cell_angle_gamma	90.042700
loop_
_atom_site_label
_atom_site_type_symbol
_atom_site_fract_x
_atom_site_fract_y
_atom_site_fract_z
Zn1	Zn	1.474544	-0.178824	-0.545351
Zn2	Zn	1.474371	-0.253959	-0.384039
Zn3	Zn	1.313233	-0.178845	-0.384069
Zn4	Zn	1.313148	-0.253929	-0.545292
O5	O	1.393824	-0.216389	-0.464688
O6	O	1.609502	-0.188794	-0.523965
O7	O	1.452959	-0.244016	-0.249061
O8	O	1.334739	-0.115975	-0.405500
O9	O	1.609375	-0.243995	-0.405450
O10	O	1.453253	-0.115959	-0.523993
O11	O	1.334571	-0.188830	-0.249083
O12	O	1.178240	-0.188802	-0.405443
O13	O	1.334594	-0.243945	-0.680281
O14	O	1.178177	-0.243966	-0.523893
O15	O	1.453171	-0.188765	-0.680325
O16	O	1.452876	-0.316822	-0.405393
O17	O	1.334426	-0.316800	-0.523864
C18	C	1.143209	-0.216383	-0.464666
C19	C	1.035995	-0.216391	-0.464679
C20	C	1.393649	-0.333112	-0.464640
C21	C	1.393663	-0.383046	-0.464652
C22	C	0.839700	-0.216393	-0.464704
C23	C	0.948933	-0.216391	-0.464688
C24	C	1.455613	-0.692688	-0.403090
C25	C	1.455732	-0.880361	-0.403127
O26	O	1.508265	-0.904625	-0.350748
N27	N	1.394024	-0.903831	-0.464760
C28	C	1.332286	-0.880380	-0.526393
O29	O	1.279809	-0.904649	-0.578824
C30	C	1.332172	-0.692708	-0.526360
C31	C	1.393878	-0.669240	-0.464716
C32	C	1.517314	-0.669221	-0.341451
C33	C	1.517280	-0.622305	-0.341439
C34	C	1.455545	-0.598857	-0.403065
C35	C	1.393844	-0.622325	-0.464703
C36	C	1.270440	-0.669258	-0.587997
C37	C	1.270419	-0.622336	-0.587985
C38	C	1.332124	-0.598869	-0.526341
C39	C	1.332074	-0.551962	-0.526317
N40	N	1.393782	-0.528492	-0.464684
C41	C	1.455518	-0.551939	-0.403057
C42	C	1.332349	-0.978911	-0.526405
C43	C	1.332375	-1.025828	-0.526412
C44	C	1.455823	-1.025806	-0.403147
C45	C	1.455790	-0.978888	-0.403136
C46	C	1.394057	-0.955441	-0.464772
C47	C	1.455441	-0.453414	-0.403035
C48	C	1.455398	-0.406494	-0.403026
C49	C	1.331955	-0.406520	-0.526294
C50	C	1.331993	-0.453436	-0.526301
C51	C	1.393744	-0.476881	-0.464668
O52	O	1.279576	-0.527669	-0.578676
O53	O	1.508002	-0.527662	-0.350650
C54	C	1.455647	-0.739604	-0.403102
C55	C	1.393946	-0.763071	-0.464741
C56	C	1.332211	-0.739623	-0.526367
C57	C	1.393973	-0.809989	-0.464748
C58	C	1.455708	-0.833437	-0.403122
C59	C	1.517416	-0.809967	-0.341489
C60	C	1.517382	-0.763051	-0.341476
C61	C	1.270503	-0.763093	-0.588000
C62	C	1.270541	-0.810009	-0.588007
C63	C	1.332276	-0.833457	-0.526381
C64	C	1.645417	-0.216395	-0.464710
C65	C	1.752631	-0.216398	-0.464720
C66	C	1.393892	-0.216349	-0.716281
C67	C	1.393921	-0.216332	-0.823495
C68	C	1.394025	-0.099211	-0.464757
C69	C	1.394111	-0.049276	-0.464786
C70	C	1.393948	-0.216302	-1.019790
C71	C	1.393930	-0.216320	-0.910558
C72	C	1.393811	-0.216396	-0.214073
C73	C	1.393969	-0.216287	-0.106860
H74	H	1.505726	-0.472497	-0.352851
H75	H	1.567528	-0.603201	-0.291246
O76	O	1.271856	-0.383760	-0.586061
C77	C	1.175731	-0.395282	-0.564934
H78	H	1.170890	-0.408207	-0.487874
H79	H	1.150513	-0.422510	-0.616637
C80	C	1.117282	-0.337754	-0.670756
C81	C	1.111334	-0.353624	-0.576107
H82	H	1.077557	-0.312059	-0.677652
H83	H	1.182043	-0.329992	-0.684993
H84	H	1.096268	-0.360448	-0.713831
H85	H	1.132359	-0.330933	-0.533035
H86	H	1.046575	-0.361381	-0.561863
H87	H	1.567591	-0.688307	-0.291268
O88	O	1.577418	-0.740328	-0.281568
C89	C	1.631890	-0.771092	-0.227169
H90	H	1.635219	-0.804520	-0.266696
H91	H	1.596609	-0.776125	-0.153880
C92	C	1.730463	-0.711686	-0.164804
C93	C	1.734559	-0.752742	-0.213357
H94	H	1.793792	-0.700367	-0.156279
H95	H	1.693762	-0.690959	-0.201451
H96	H	1.701058	-0.715886	-0.103735
H97	H	1.763951	-0.748541	-0.274428
H98	H	1.771267	-0.773468	-0.176720
H99	H	1.281751	-0.472544	-0.576499
O100	O	1.515686	-0.956142	-0.343126
C101	C	1.494644	-0.967641	-0.246972
H102	H	1.457578	-1.001723	-0.244948
H103	H	1.445060	-0.941267	-0.214432
C104	C	1.634237	-0.927928	-0.191111
C105	C	1.588718	-0.969790	-0.188626
H106	H	1.692265	-0.929252	-0.155119
H107	H	1.648412	-0.920180	-0.255892
H108	H	1.592907	-0.905954	-0.163997
H109	H	1.630044	-0.991762	-0.215751
H110	H	1.574552	-0.977542	-0.123849
H111	H	1.220232	-0.744006	-0.638185
O112	O	1.272531	-1.048602	-0.586425
C113	C	1.293541	-1.037083	-0.682575
H114	H	1.370592	-1.024150	-0.687507
H115	H	1.241802	-1.009863	-0.707732
C116	C	1.187666	-1.094628	-0.740899
C117	C	1.282304	-1.078746	-0.746959
H118	H	1.180731	-1.120326	-0.780616
H119	H	1.173507	-1.102387	-0.676122
H120	H	1.144561	-1.071940	-0.761863
H121	H	1.325407	-1.101432	-0.725984
H122	H	1.296470	-1.070992	-0.811735
O123	O	1.515821	-1.048657	-0.343432
C124	C	1.502617	-1.095099	-0.356678
H125	H	1.470902	-1.101484	-0.431059
H126	H	1.451371	-1.108480	-0.299371
C127	C	1.639216	-1.111288	-0.256725
C128	C	1.600270	-1.119130	-0.348085
H129	H	1.699451	-1.126112	-0.251420
H130	H	1.648110	-1.079999	-0.247797
H131	H	1.596501	-1.122439	-0.208980
H132	H	1.642979	-1.107974	-0.395827
H133	H	1.591386	-1.150418	-0.357020
H134	H	1.282075	-0.959823	-0.576598
H135	H	1.220189	-0.688357	-0.638190
H136	H	1.220149	-0.603248	-0.638179
O137	O	1.210564	-0.832733	-0.647983
C138	C	1.156057	-0.801970	-0.702352
H139	H	1.195544	-0.768505	-0.705705
H140	H	1.082811	-0.797030	-0.666968
C141	C	1.093623	-0.861349	-0.800895
C142	C	1.142125	-0.820247	-0.805019
H143	H	1.085025	-0.872623	-0.864223
H144	H	1.130342	-0.882074	-0.764263
H145	H	1.032590	-0.857226	-0.771403
H146	H	1.203162	-0.824371	-0.834499
H147	H	1.105416	-0.799523	-0.841658
H148	H	1.567680	-0.829066	-0.291308
H149	H	1.505646	-0.387388	-0.352824
