data_functionalizedCrystal
_audit_creation_method	'MofGen! by Chris Wilmer'
_symmetry_space_group_name_H-M	'P1'
_symmetry_Int_Tables_number	1
_symmetry_cell_setting	triclinic
loop_
_symmetry_equiv_pos_as_xyz
  x,y,z
_cell_length_a	14.908571
_cell_length_b	16.994746
_cell_length_c	14.908308
_cell_angle_alpha	86.704843
_cell_angle_beta	89.824947
_cell_angle_gamma	86.707907
loop_
_atom_site_label
_atom_site_type_symbol
_atom_site_fract_x
_atom_site_fract_y
_atom_site_fract_z
Zn1	Zn	1.345367	-0.411654	0.587812
Zn2	Zn	1.353969	-0.536423	0.437522
Zn3	Zn	1.203680	-0.396503	0.428801
Zn4	Zn	1.194997	-0.535486	0.579173
O5	O	1.274503	-0.470016	0.508327
O6	O	1.472335	-0.434938	0.575140
O7	O	1.341267	-0.511914	0.310537
O8	O	1.222509	-0.288131	0.449860
O9	O	1.478655	-0.526605	0.464723
O10	O	1.326606	-0.299263	0.566684
O11	O	1.230850	-0.409115	0.304130
O12	O	1.076701	-0.408206	0.441483
O13	O	1.207710	-0.525008	0.706147
O14	O	1.070321	-0.510316	0.551961
O15	O	1.318186	-0.434029	0.712494
O16	O	1.332847	-0.646680	0.456346
O17	O	1.216051	-0.645991	0.560417
C18	C	1.040885	-0.457516	0.494839
C19	C	0.940941	-0.452188	0.489090
C20	C	1.274451	-0.674957	0.508388
C21	C	1.274459	-0.764279	0.508396
Zn22	Zn	1.203836	-1.027568	0.428655
Zn23	Zn	1.354104	-0.903674	0.437630
Zn24	Zn	1.345279	-1.042740	0.587884
Zn25	Zn	1.194913	-0.902883	0.579036
O26	O	1.274533	-0.969216	0.508301
O27	O	1.231198	-1.005115	0.304029
O28	O	1.478749	-0.928803	0.465020
O29	O	1.326557	-1.151108	0.566709
O30	O	1.341598	-0.914091	0.310623
O31	O	1.222640	-1.139961	0.449724
O32	O	1.472265	-1.030974	0.575411
O33	O	1.317904	-1.030206	0.712527
O34	O	1.070281	-0.912741	0.551628
O35	O	1.207431	-0.927453	0.706026
O36	O	1.076837	-1.004347	0.441144
O37	O	1.332946	-0.793189	0.456441
O38	O	1.215989	-0.792607	0.560331
C39	C	0.746551	-0.548654	0.593173
C40	C	0.652644	-0.543650	0.587774
C41	C	0.659220	-0.437175	0.472899
C42	C	0.753127	-0.442179	0.478298
C43	C	0.796789	-0.497920	0.538436
C44	C	0.890697	-0.502927	0.543829
C45	C	0.897271	-0.396449	0.428959
C46	C	0.803364	-0.391445	0.423561
C47	C	1.509033	-0.482566	0.521868
C48	C	1.608976	-0.487914	0.527639
C49	C	1.261020	-0.481104	0.742858
C50	C	1.255274	-0.485829	0.842802
C51	C	1.274560	-0.264276	0.508260
C52	C	1.274588	-0.174954	0.508232
C53	C	1.287986	-0.458918	0.274711
C54	C	1.293906	-0.453980	0.174778
C55	C	1.359514	-0.399953	1.037216
C56	C	1.354118	-0.404390	1.131122
C57	C	1.239083	-0.499135	1.124521
C58	C	1.244479	-0.494698	1.030615
C59	C	1.304697	-0.445106	0.986966
C60	C	1.310097	-0.440674	0.893059
C61	C	1.195058	-0.535414	0.886459
C62	C	1.189662	-0.539851	0.980364
C63	C	1.260741	-0.980390	0.741899
C64	C	1.254820	-0.985150	0.841832
C65	C	1.040024	-0.956763	0.494398
C66	C	0.940090	-0.951457	0.488474
C67	C	1.288378	-0.957999	0.273791
C68	C	1.294278	-0.953218	0.173857
C69	C	1.508133	-0.981674	0.522099
C70	C	1.608076	-0.987193	0.527852
C71	C	1.194605	-0.933812	0.885362
C72	C	1.189024	-0.938283	0.979259
C73	C	1.243662	-0.994089	1.029624
C74	C	1.303879	-1.045432	0.986088
C75	C	1.309456	-1.040964	0.892193
C76	C	0.896569	-0.996665	0.428168
C77	C	0.802671	-0.991695	0.422601
C78	C	0.752296	-0.941512	0.477337
C79	C	0.795823	-0.896302	0.537649
C80	C	0.889720	-0.901277	0.543220
C81	C	1.354566	-1.004477	0.130306
C82	C	1.360110	-1.000002	0.036407
C83	C	1.305369	-0.944263	-0.013939
C84	C	1.245073	-0.893002	0.029617
C85	C	1.239526	-0.897482	0.123514
C86	C	1.651870	-0.941719	0.587679
C87	C	1.745776	-0.946905	0.593103
C88	C	1.795888	-0.997561	0.538693
C89	C	1.752088	-1.043040	0.478863
C90	C	1.658182	-1.037858	0.473445
H91	H	0.926245	-0.548316	0.592795
H92	H	0.767244	-1.028510	0.373486
Br93	Br	1.120672	-0.596710	0.818258
Br94	Br	0.964914	-1.064782	0.353879
Br95	Br	0.744101	-0.315795	0.341956
Br96	Br	0.805812	-0.624310	0.674772
Br97	Br	1.120443	-0.858068	0.817030
Br98	Br	1.391188	-1.110641	0.833129
H99	H	1.359131	-0.400295	0.857522
Br100	Br	1.598761	-1.099572	0.392233
Br101	Br	1.805198	-0.885176	0.674304
H102	H	0.925147	-0.864458	0.592325
Br103	Br	0.965456	-0.327601	0.354658
Br104	Br	1.583882	-0.872963	0.661529
Br105	Br	1.170812	-0.817340	-0.038723
H106	H	1.139989	-0.896469	1.014692
H107	H	0.675840	-0.937468	0.472792
Br108	Br	1.236081	-1.000143	1.157055
H109	H	0.754794	-0.855444	0.582213
H110	H	1.399148	-1.049866	0.171287
H111	H	1.872351	-1.001770	0.543110
H112	H	1.398753	-0.367619	1.172033
Br113	Br	1.378026	-1.121165	1.054454
Br114	Br	1.441946	-1.069575	-0.022684
Br115	Br	1.441249	-0.332664	0.977975
H116	H	1.309894	-0.940625	-0.090396
Br117	Br	1.820110	-1.111783	0.405025
Br118	Br	0.584466	-0.612502	0.662068
Br119	Br	0.599948	-0.361518	0.391308
H120	H	1.190056	-0.539510	1.160076
Br121	Br	1.107938	-0.607148	1.039610
Br122	Br	1.157690	-0.827913	0.182605
