data_functionalizedCrystal
_audit_creation_method	'MofGen! by Chris Wilmer'
_symmetry_space_group_name_H-M	'P1'
_symmetry_Int_Tables_number	1
_symmetry_cell_setting	triclinic
loop_
_symmetry_equiv_pos_as_xyz
  x,y,z
_cell_length_a	21.295420
_cell_length_b	21.295420
_cell_length_c	16.120484
_cell_angle_alpha	92.894825
_cell_angle_beta	87.078650
_cell_angle_gamma	90.017013
loop_
_atom_site_label
_atom_site_type_symbol
_atom_site_fract_x
_atom_site_fract_y
_atom_site_fract_z
Zn1	Zn	0.949610	0.368639	0.332224
Zn2	Zn	1.449610	0.868639	0.832224
Zn3	Zn	0.944199	0.268704	0.471586
Zn4	Zn	1.444199	0.768704	0.971586
Zn5	Zn	0.844349	0.263383	0.332178
Zn6	Zn	1.344349	0.763383	0.832178
Zn7	Zn	0.838975	0.373936	0.471590
Zn8	Zn	1.338975	0.873936	0.971590
O9	O	0.894283	0.318665	0.401895
O10	O	1.394283	0.818665	0.901895
O11	O	1.036981	0.355393	0.350728
O12	O	1.536981	0.855393	0.850728
O13	O	0.930938	0.179908	0.453073
O14	O	1.430938	0.679908	0.953073
O15	O	0.862825	0.272902	0.215516
O16	O	1.362825	0.772902	0.715516
O17	O	1.033006	0.281971	0.453117
O18	O	1.533006	0.781971	0.953117
O19	O	0.940160	0.350233	0.215550
O20	O	1.440160	0.850233	0.715550
O21	O	0.857579	0.175998	0.350651
O22	O	1.357579	0.675998	0.850651
O23	O	0.755547	0.278037	0.350654
O24	O	1.255547	0.778037	0.850654
O25	O	0.853667	0.461323	0.453123
O26	O	1.353667	0.961323	0.953123
O27	O	0.751600	0.359260	0.453079
O28	O	1.251600	0.859260	0.953079
O29	O	0.934949	0.457432	0.350731
O30	O	1.434949	0.957432	0.850731
O31	O	0.925728	0.287106	0.588255
O32	O	1.425728	0.787106	1.088255
O33	O	0.848421	0.364420	0.588258
O34	O	1.348421	0.864420	1.088258
C35	C	0.730733	0.318646	0.401863
C36	C	1.230733	0.818646	0.901863
C37	C	0.660765	0.318654	0.401869
C38	C	1.160765	0.818654	0.901869
C39	C	0.163370	0.356976	0.348706
C40	C	0.663370	0.856976	0.848706
C41	C	0.229113	0.356976	0.348700
C42	C	0.729113	0.856976	0.848700
C43	C	0.259923	0.318681	0.401920
C44	C	0.759923	0.818681	0.901920
C45	C	0.224985	0.280396	0.455165
C46	C	0.724985	0.780396	0.955165
C47	C	0.159243	0.280402	0.455176
C48	C	0.659243	0.780402	0.955176
N49	N	0.362881	0.263801	0.408173
N50	N	0.862881	0.763801	0.908173
N51	N	0.425333	0.263797	0.408158
N52	N	0.925333	0.763797	0.908158
C53	C	0.457999	0.318661	0.401892
C54	C	0.957999	0.818661	0.901892
N55	N	0.425854	0.373531	0.395626
N56	N	0.925854	0.873531	0.895626
N57	N	0.363396	0.373534	0.395637
N58	N	0.863396	0.873534	0.895637
C59	C	0.331209	0.318670	0.401915
C60	C	0.831209	0.818670	0.901915
C61	C	0.564215	0.356947	0.348648
C62	C	1.064215	0.856947	0.848648
C63	C	0.629959	0.356948	0.348648
C64	C	1.129959	0.856948	0.848648
C65	C	0.625830	0.280362	0.455108
C66	C	1.125830	0.780362	0.955108
C67	C	0.560087	0.280367	0.455113
C68	C	1.060087	0.780367	0.955113
C69	C	0.529284	0.318659	0.401879
C70	C	1.029284	0.818659	0.901879
C71	C	0.894312	0.482857	0.401933
C72	C	1.394312	0.982857	0.901933
C73	C	0.894325	0.552826	0.401949
C74	C	1.394325	1.052826	0.901949
C75	C	0.936642	0.583668	0.348642
C76	C	1.436642	1.083668	0.848642
C77	C	0.936633	0.649410	0.348629
C78	C	1.436633	1.149410	0.848629
C79	C	0.894313	0.684308	0.401936
C80	C	1.394313	1.184308	0.901936
C81	C	0.851987	0.653458	0.455247
C82	C	1.351987	1.153458	0.955247
C83	C	0.851993	0.587717	0.455253
C84	C	1.351993	1.087717	0.955253
N85	N	0.886653	0.790319	0.474904
N86	N	1.386653	1.290319	0.974904
N87	N	0.886651	0.852770	0.474896
N88	N	1.386651	1.352770	0.974896
C89	C	0.894291	0.882382	0.401919
C90	C	1.394291	1.382382	0.901919
N91	N	0.901945	0.847184	0.328950
N92	N	1.401945	1.347184	0.828950
N93	N	0.901950	0.784727	0.328959
N94	N	1.401950	1.284727	0.828959
C95	C	0.894301	0.755593	0.401935
C96	C	1.394301	1.255593	0.901935
C97	C	0.936601	0.984509	0.348593
C98	C	1.436601	1.484509	0.848593
C99	C	0.936588	1.050252	0.348578
C100	C	1.436588	1.550252	0.848578
C101	C	0.851945	1.054299	0.455203
C102	C	1.351945	1.554299	0.955203
C103	C	0.851955	0.988557	0.455211
C104	C	1.351955	1.488557	0.955211
C105	C	0.894287	0.953666	0.401907
C106	C	1.394287	1.453666	0.901907
C107	C	1.058472	0.318685	0.401927
C108	C	1.558472	0.818685	0.901927
C109	C	1.128440	0.318693	0.401941
C110	C	1.628440	0.818693	0.901941
C111	C	0.885921	0.326929	0.618507
C112	C	1.385921	0.826929	1.118507
C113	C	0.882402	0.330485	0.711175
C114	C	1.382402	0.830485	1.211175
C115	C	0.894256	1.155113	0.401882
C116	C	1.394256	1.655113	0.901882
C117	C	0.894266	1.085145	0.401885
C118	C	1.394266	1.585145	0.901885
C119	C	0.902695	0.310383	0.184436
C120	C	1.402695	0.810383	0.684436
C121	C	0.906280	0.306854	0.091769
C122	C	1.406280	0.806854	0.591769
C123	C	0.875979	0.336991	0.880840
C124	C	1.375979	0.836991	1.380840
C125	C	0.912700	0.300350	0.922109
C126	C	1.412700	0.800350	1.422109
C127	C	0.909127	0.303970	1.016516
C128	C	1.409127	0.803970	1.516516
C129	C	0.879552	0.333372	0.786424
C130	C	1.379552	0.833372	1.286424
H131	H	0.138294	0.388159	0.305362
H132	H	0.638294	0.888159	0.805362
O133	O	0.830778	0.382134	0.927957
O134	O	1.330778	0.882134	1.427957
H135	H	0.842157	0.430926	0.911288
H136	H	1.342157	0.930926	1.411288
O137	O	0.266800	0.398261	0.291273
O138	O	0.766800	0.898261	0.791273
H139	H	0.234336	0.424884	0.254253
H140	H	0.734336	0.924884	0.754253
H141	H	0.971092	0.674526	0.305215
H142	H	1.471092	1.174526	0.805215
O143	O	0.806340	0.554457	0.512750
O144	O	1.306340	1.054457	1.012750
H145	H	0.832866	0.526136	0.555182
H146	H	1.332866	1.026136	1.055182
H147	H	0.971047	1.075362	0.305164
H148	H	1.471047	1.575362	0.805164
H149	H	0.130803	0.249227	0.498528
H150	H	0.630803	0.749227	0.998528
H151	H	0.817481	1.082712	0.498599
H152	H	1.317481	1.582712	0.998599
H153	H	0.250075	0.249218	0.498499
H154	H	0.750075	0.749218	0.998499
H155	H	0.539134	0.388126	0.305301
H156	H	1.039134	0.888126	0.805301
O157	O	0.667639	0.398236	0.291221
O158	O	1.167639	0.898236	0.791221
H159	H	0.635172	0.424855	0.254201
H160	H	1.135172	0.924855	0.754201
O161	O	0.659050	0.239055	0.512510
O162	O	1.159050	0.739055	1.012510
H163	H	0.710634	0.245478	0.503557
H164	H	1.210634	0.745478	1.003557
O165	O	0.957899	0.255195	0.874998
O166	O	1.457899	0.755195	1.374998
H167	H	0.946516	0.206409	0.891688
H168	H	1.446516	0.706409	1.391688
O169	O	0.522406	0.239065	0.512517
O170	O	1.022406	0.739065	1.012517
H171	H	0.554873	0.212430	0.549518
H172	H	1.054873	0.712430	1.049518
H173	H	0.817528	0.681876	0.498648
H174	H	1.317528	1.181876	0.998648
O175	O	0.982295	0.546033	0.291150
O176	O	1.482295	1.046033	0.791150
H177	H	1.011717	0.578529	0.254076
H178	H	1.511717	1.078529	0.754076
H179	H	0.971066	0.956098	0.305185
H180	H	1.471066	1.456098	0.805185
O181	O	0.806297	0.955284	0.512684
O182	O	1.306297	1.455284	1.012684
H183	H	0.776862	0.990593	0.549745
H184	H	1.276862	1.490593	1.049745
