data_functionalizedCrystal
_audit_creation_method	'MofGen! by Chris Wilmer'
_symmetry_space_group_name_H-M	'P1'
_symmetry_Int_Tables_number	1
_symmetry_cell_setting	triclinic
loop_
_symmetry_equiv_pos_as_xyz
  x,y,z
_cell_length_a	12.645331
_cell_length_b	18.101395
_cell_length_c	12.645323
_cell_angle_alpha	89.971733
_cell_angle_beta	89.977324
_cell_angle_gamma	90.030083
loop_
_atom_site_label
_atom_site_type_symbol
_atom_site_fract_x
_atom_site_fract_y
_atom_site_fract_z
Zn1	Zn	1.620632	-0.294844	-0.599421
Zn2	Zn	1.620473	-0.418694	-0.422151
Zn3	Zn	1.443347	-0.294869	-0.422166
Zn4	Zn	1.443287	-0.418646	-0.599366
O5	O	1.531935	-0.356763	-0.510776
O6	O	1.768958	-0.311283	-0.575923
O7	O	1.596935	-0.402299	-0.273805
O8	O	1.466956	-0.191233	-0.445708
O9	O	1.768841	-0.402275	-0.445683
O10	O	1.597207	-0.191214	-0.575937
O11	O	1.466801	-0.311325	-0.273816
O12	O	1.294992	-0.311278	-0.445655
O13	O	1.466854	-0.402193	-0.747721
O14	O	1.294948	-0.402217	-0.575843
O15	O	1.597149	-0.311236	-0.747761
O16	O	1.596877	-0.522321	-0.445630
O17	O	1.466699	-0.522285	-0.575829
C18	C	1.256505	-0.356746	-0.510745
C19	C	1.138675	-0.356756	-0.510757
C20	C	0.971103	-0.299284	-0.429308
C21	C	1.093663	-0.299432	-0.428949
C22	C	1.094129	-0.434770	-0.480236
C23	C	0.971530	-0.434456	-0.479680
C24	C	0.971532	-0.336957	-0.623043
C25	C	1.094139	-0.335215	-0.622419
C26	C	1.531793	-0.549174	-0.510745
C27	C	1.531829	-0.631488	-0.510767
C28	C	1.532062	-0.930579	-0.510824
C29	C	1.450348	-0.899262	-0.592945
C30	C	1.449960	-0.813644	-0.592688
C31	C	1.531946	-0.782196	-0.510797
C32	C	1.501694	-0.813349	-0.399071
C33	C	1.501167	-0.898994	-0.399562
C34	C	1.644207	-0.898924	-0.539445
C35	C	1.643548	-0.813273	-0.541895
C36	C	1.531883	-0.698337	-0.510774
C37	C	1.532123	-1.014438	-0.510839
C38	C	1.808440	-0.356781	-0.510807
C39	C	1.926270	-0.356789	-0.510821
C40	C	1.532013	-0.356706	-0.787281
C41	C	1.532046	-0.356682	-0.905112
C42	C	1.532106	-0.163601	-0.510830
C43	C	1.532179	-0.081287	-0.510854
C44	C	1.449825	-0.413633	-1.072650
C45	C	1.450040	-0.413915	-0.950090
C46	C	1.643739	-0.377863	-0.949630
C47	C	1.643288	-0.378220	-1.072228
C48	C	1.503631	-0.278231	-1.072316
C49	C	1.501139	-0.278701	-0.949710
C50	C	1.531918	-0.356767	-0.235346
C51	C	1.532090	-0.356583	-0.117517
H52	H	0.941871	-0.478752	-0.536461
H53	H	0.940654	-0.281063	-0.650799
H54	H	1.122937	-0.312540	-0.345787
H55	H	1.556682	-0.233948	-0.919092
Br56	Br	1.311360	-0.391750	-1.121762
H57	H	1.123283	-0.478761	-0.537743
H58	H	0.942879	-0.451274	-0.397640
H59	H	1.124778	-0.451877	-0.399076
Br60	Br	1.142697	-0.239535	-0.660796
Br61	Br	1.145207	-0.399935	-0.729066
Br62	Br	0.923211	-0.406767	-0.724272
H63	H	1.468888	-0.792579	-0.675532
Br64	Br	1.603499	-0.207386	-1.120675
H65	H	1.419189	-0.919036	-0.375318
H66	H	0.940251	-0.312246	-0.346636
Br67	Br	1.481575	-0.933509	-0.731477
H68	H	1.706675	-0.337625	-0.920498
Br69	Br	1.597769	-0.779404	-0.294302
Br70	Br	1.312646	-0.935258	-0.561774
Br71	Br	1.684647	-0.472328	-0.898475
H72	H	1.366835	-0.793220	-0.573730
H73	H	1.558102	-0.919713	-0.336289
H74	H	1.420584	-0.791963	-0.374392
Br75	Br	0.922031	-0.202568	-0.460848
H76	H	1.671788	-0.920471	-0.619527
Br77	Br	1.681577	-0.779335	-0.678942
Br78	Br	1.750398	-0.777580	-0.449479
H79	H	1.367216	-0.400660	-0.919989
Br80	Br	1.143871	-0.203011	-0.460835
Br81	Br	1.745684	-0.932692	-0.439773
Br82	Br	1.480755	-0.509831	-1.124096
Br83	Br	1.481412	-0.510719	-0.901213
Br84	Br	1.683498	-0.473685	-1.119913
H85	H	1.706659	-0.338471	-1.101910
H86	H	1.423605	-0.258923	-1.103222
Br87	Br	1.364132	-0.252078	-0.901230
