data_functionalizedCrystal
_audit_creation_method	'MofGen! by Chris Wilmer'
_symmetry_space_group_name_H-M	'P1'
_symmetry_Int_Tables_number	1
_symmetry_cell_setting	triclinic
loop_
_symmetry_equiv_pos_as_xyz
  x,y,z
_cell_length_a	17.038272
_cell_length_b	14.044220
_cell_length_c	13.101039
_cell_angle_alpha	93.659868
_cell_angle_beta	93.604737
_cell_angle_gamma	87.849783
loop_
_atom_site_label
_atom_site_type_symbol
_atom_site_fract_x
_atom_site_fract_y
_atom_site_fract_z
O1	O	0.185592	-1.277881	-0.085106
O2	O	0.685592	-0.777881	0.414894
O3	O	0.178751	-1.001361	-0.085132
O4	O	0.678751	-0.501361	0.414868
O5	O	0.068241	-1.137977	-0.085111
O6	O	0.568241	-0.637977	0.414889
O7	O	0.296101	-1.141265	-0.085127
O8	O	0.796101	-0.641265	0.414873
O9	O	0.076185	-1.128176	0.085317
O10	O	0.576185	-0.628176	0.585317
O11	O	0.186694	-0.991560	0.085296
O12	O	0.686694	-0.491560	0.585296
O13	O	0.193535	-1.268080	0.085322
O14	O	0.693535	-0.768080	0.585322
Zn15	Zn	0.191376	-1.128264	0.112368
Zn16	Zn	0.691376	-0.628264	0.612368
Zn17	Zn	0.180910	-1.141177	-0.112178
Zn18	Zn	0.680910	-0.641177	0.387822
O19	O	0.304045	-1.131464	0.085301
O20	O	0.804045	-0.631464	0.585301
C21	C	0.179728	-0.960905	0.000079
C22	C	0.679728	-0.460905	0.500079
C23	C	0.170796	-0.854960	0.000069
C24	C	0.670796	-0.354960	0.500069
C25	C	0.042876	-1.130087	0.000103
C26	C	0.542876	-0.630087	0.500103
C27	C	-0.044541	-1.121168	0.000101
C28	C	0.455459	-0.621168	0.500101
N29	N	0.198518	-1.119458	0.265616
N30	N	0.698518	-0.619458	0.765616
C31	C	-0.088926	-1.203056	0.000110
C32	C	0.411074	-0.703056	0.500110
C33	C	-0.171064	-1.194670	0.000100
C34	C	0.328936	-0.694670	0.500100
C35	C	-0.208815	-1.104396	0.000088
C36	C	0.291185	-0.604396	0.500088
C37	C	-0.164424	-1.022502	0.000076
C38	C	0.335576	-0.522502	0.500076
C39	C	-0.082288	-1.030889	0.000079
C40	C	0.417712	-0.530889	0.500079
C41	C	-0.456646	-1.074767	0.000071
C42	C	0.043354	-0.574767	0.500071
C43	C	-0.538788	-1.066386	0.000071
C44	C	-0.038788	-0.566386	0.500071
C45	C	-0.545423	-1.238555	0.000093
C46	C	-0.045423	-0.738555	0.500093
C47	C	-0.463285	-1.246934	0.000102
C48	C	0.036715	-0.746934	0.500102
C49	C	-0.418901	-1.165040	0.000085
C50	C	0.081099	-0.665040	0.500085
C51	C	-0.292773	-1.095822	0.000080
C52	C	0.207227	-0.595822	0.500080
C53	C	-0.334945	-1.173615	0.000085
C54	C	0.165055	-0.673615	0.500085
C55	C	0.329410	-1.139354	0.000085
C56	C	0.829410	-0.639354	0.500085
C57	C	0.416827	-1.148273	0.000080
C58	C	0.916827	-0.648273	0.500080
C59	C	0.192558	-1.308536	0.000109
C60	C	0.692558	-0.808536	0.500109
C61	C	0.201490	-1.414482	0.000112
C62	C	0.701490	-0.914482	0.500112
C63	C	0.154468	-0.660980	0.000091
C64	C	0.654468	-0.160980	0.500091
C65	C	0.217813	-0.608455	0.000090
C66	C	0.717813	-0.108455	0.500090
C67	C	0.208729	-0.500518	0.000102
C68	C	0.708729	-0.000518	0.500102
C69	C	0.163552	-0.768927	0.000079
C70	C	0.663552	-0.268927	0.500079
N71	N	0.173762	-1.149990	-0.265426
N72	N	0.673762	-0.649990	0.234574
C73	C	0.208243	-1.107478	0.474656
C74	C	0.708243	-0.607478	0.974656
C75	C	0.164040	-1.161967	0.525540
C76	C	0.664040	-0.661967	1.025540
C77	C	0.169451	-1.155301	0.641858
C78	C	0.669451	-0.655301	1.141858
C79	C	0.202833	-1.114143	0.358328
C80	C	0.702833	-0.614143	0.858328
H81	H	-0.207199	-1.261352	0.000109
H82	H	0.292801	-0.761352	0.500109
H83	H	-0.420519	-1.008083	0.000057
H84	H	0.079481	-0.508083	0.500057
H85	H	0.250148	-1.055826	0.518445
H86	H	0.750148	-0.555826	1.018445
O87	O	-0.298195	-1.261261	-0.000040
O88	O	0.201805	-0.761261	0.499960
C89	C	-0.255008	-1.276349	-0.088317
C90	C	0.244992	-0.776349	0.411683
H91	H	-0.241200	-1.204557	-0.117759
H92	H	0.258800	-0.704557	0.382241
H93	H	-0.291174	-1.319162	-0.150117
H94	H	0.208826	-0.819162	0.349883
C95	C	-0.194590	-1.420149	-0.025334
C96	C	0.305410	-0.920149	0.474666
C97	C	-0.177625	-1.331973	-0.061489
C98	C	0.322375	-0.831973	0.438511
H99	H	-0.146858	-1.454465	-0.008788
H100	H	0.353142	-0.954465	0.491212
H101	H	-0.223688	-1.409987	0.034138
H102	H	0.276312	-0.909987	0.534138
H103	H	-0.224730	-1.455816	-0.076840
H104	H	0.275270	-0.955816	0.423160
H105	H	-0.147494	-1.296304	-0.009979
H106	H	0.352506	-0.796304	0.490021
H107	H	-0.148520	-1.342131	-0.120953
H108	H	0.351480	-0.842131	0.379047
H109	H	0.278868	-0.644550	0.000081
H110	H	0.778868	-0.144550	0.500081
H111	H	0.122133	-1.213624	0.481746
H112	H	0.622133	-0.713624	0.981746
O113	O	-0.052303	-1.290781	-0.000062
O114	O	0.447697	-0.790781	0.499938
C115	C	-0.078517	-1.346181	-0.088313
C116	C	0.421483	-0.846181	0.411687
H117	H	-0.102026	-1.297052	-0.150009
H118	H	0.397974	-0.797052	0.349991
H119	H	-0.127335	-1.393841	-0.068356
H120	H	0.372665	-0.893841	0.431644
C121	C	0.019421	-1.469021	-0.052556
C122	C	0.519421	-0.969021	0.447444
C123	C	-0.009446	-1.408680	-0.128336
C124	C	0.490554	-0.908680	0.371664
H125	H	0.062026	-1.507577	-0.077242
H126	H	0.562026	-1.007577	0.422758
H127	H	0.037081	-1.431699	0.006903
H128	H	0.537081	-0.931699	0.506903
H129	H	-0.021267	-1.508728	-0.035932
H130	H	0.478733	-1.008728	0.464068
H131	H	0.031239	-1.368966	-0.144949
H132	H	0.531239	-0.868966	0.355051
H133	H	-0.027098	-1.445997	-0.187799
H134	H	0.472902	-0.945997	0.312201
O135	O	-0.426743	-1.334702	0.000072
O136	O	0.073257	-0.834702	0.500072
C137	C	-0.483531	-1.405181	0.000107
C138	C	0.016469	-0.905181	0.500107
H139	H	-0.542609	-1.375828	-0.032172
H140	H	-0.042609	-0.875828	0.467828
H141	H	-0.489484	-1.426046	0.081875
H142	H	0.010516	-0.926046	0.581875
C143	C	-0.385157	-1.529685	-0.027060
C144	C	0.114843	-1.029685	0.472940
C145	C	-0.457716	-1.493636	-0.066714
C146	C	0.042284	-0.993636	0.433286
H147	H	-0.369232	-1.584251	-0.068274
H148	H	0.130768	-1.084251	0.431726
H149	H	-0.346897	-1.482203	-0.027080
H150	H	0.153103	-0.982203	0.472920
H151	H	-0.390128	-1.547065	0.041079
H152	H	0.109872	-1.047065	0.541079
H153	H	-0.452742	-1.476246	-0.134847
H154	H	0.047258	-0.976246	0.365153
H155	H	-0.495975	-1.541118	-0.066707
H156	H	0.004025	-1.041118	0.433293
H157	H	-0.195167	-0.948998	0.000060
H158	H	0.304833	-0.448998	0.500060
H159	H	0.093419	-0.624887	0.000100
H160	H	0.593419	-0.124887	0.500100
H161	H	-0.581568	-1.305228	0.000105
H162	H	-0.081568	-0.805228	0.500105
H163	H	-0.046151	-0.964207	0.000072
H164	H	0.453849	-0.464207	0.500072
O165	O	-0.575436	-0.978679	-0.000131
O166	O	-0.075436	-0.478679	0.499869
C167	C	-0.557448	-0.933433	-0.088397
C168	C	-0.057448	-0.433433	0.411603
H169	H	-0.539678	-0.989658	-0.150078
H170	H	-0.039678	-0.489658	0.349922
H171	H	-0.506779	-0.883467	-0.068454
H172	H	-0.006779	-0.383467	0.431546
C173	C	-0.652074	-0.806497	-0.052674
C174	C	-0.152074	-0.306497	0.447326
C175	C	-0.630255	-0.875554	-0.128436
C176	C	-0.130255	-0.375554	0.371564
H177	H	-0.696982	-0.770791	-0.077370
H178	H	-0.196982	-0.270791	0.422630
H179	H	-0.664191	-0.836978	0.006794
H180	H	-0.164191	-0.336978	0.506794
H181	H	-0.609843	-0.764869	-0.036062
H182	H	-0.109843	-0.264869	0.463938
H183	H	-0.672481	-0.917188	-0.145038
H184	H	-0.172481	-0.417188	0.354962
H185	H	-0.618146	-0.845079	-0.187908
H186	H	-0.118146	-0.345079	0.312092
O187	O	-0.329542	-1.008191	-0.000059
O188	O	0.170458	-0.508191	0.499941
C189	C	-0.380948	-1.003260	-0.088341
C190	C	0.119052	-0.503260	0.411659
H191	H	-0.397494	-1.078438	-0.117768
H192	H	0.102506	-0.578438	0.382232
H193	H	-0.350536	-0.967555	-0.150147
H194	H	0.149464	-0.467555	0.349853
C195	C	-0.435507	-0.852217	-0.025392
C196	C	0.064493	-0.352217	0.474608
C197	C	-0.455835	-0.944552	-0.061530
C198	C	0.044165	-0.444552	0.438470
H199	H	-0.481700	-0.816000	-0.008856
H200	H	0.018300	-0.316000	0.491144
H201	H	-0.400872	-0.855537	0.034084
H202	H	0.099128	-0.355537	0.534084
H203	H	-0.410163	-0.822476	-0.076903
H204	H	0.089837	-0.322476	0.423097
H205	H	-0.481170	-0.974296	-0.010014
H206	H	0.018830	-0.474296	0.489986
H207	H	-0.490476	-0.941236	-0.120997
H208	H	0.009524	-0.441236	0.379003
