data_functionalizedCrystal
_audit_creation_method	'MofGen! by Chris Wilmer'
_symmetry_space_group_name_H-M	'P1'
_symmetry_Int_Tables_number	1
_symmetry_cell_setting	triclinic
loop_
_symmetry_equiv_pos_as_xyz
  x,y,z
_cell_length_a	6.817900
_cell_length_b	19.551833
_cell_length_c	19.551786
_cell_angle_alpha	96.338775
_cell_angle_beta	101.662645
_cell_angle_gamma	101.663477
loop_
_atom_site_label
_atom_site_type_symbol
_atom_site_fract_x
_atom_site_fract_y
_atom_site_fract_z
V1	V	-3.997258	-0.218185	-0.097408
O2	O	-3.994610	-0.213698	0.003927
O3	O	-3.940054	-0.217014	-0.192419
O4	O	-3.940060	-0.313196	-0.096240
O5	O	-3.994604	-0.116849	-0.092917
V6	V	-4.483166	-0.206025	-0.085248
O7	O	-4.253283	-0.244858	-0.124082
O8	O	-4.677338	-0.179352	-0.058574
O9	O	-4.317164	-0.207196	0.009763
O10	O	-4.603211	-0.210512	-0.186583
O11	O	-4.603217	-0.307361	-0.089739
O12	O	-4.317157	-0.111014	-0.086416
C13	C	-3.783197	-0.213655	-0.215570
C14	C	-3.817654	-0.213330	-0.293245
C15	C	-4.034553	-0.147052	-0.842778
C16	C	-4.002159	-0.147349	-0.769793
C17	C	-4.017398	-0.211482	-0.743450
C18	C	-4.064983	-0.275321	-0.790098
C19	C	-4.097356	-0.275021	-0.863080
C20	C	-4.107017	-0.263650	-0.637963
C21	C	-4.074656	-0.263947	-0.564982
C22	C	-3.917542	-0.212409	-0.518346
C23	C	-3.792813	-0.160563	-0.544701
C24	C	-3.825186	-0.160263	-0.617683
C25	C	-3.982297	-0.211814	-0.664313
C26	C	-3.834823	-0.148897	-0.392569
C27	C	-3.802417	-0.149197	-0.319583
C28	C	-3.865263	-0.277171	-0.339890
C29	C	-3.897647	-0.276869	-0.412874
C30	C	-3.882433	-0.212730	-0.439209
C31	C	-3.783205	-0.336344	-0.092884
C32	C	-3.817665	-0.414019	-0.092558
C33	C	-4.015303	-0.454077	-0.095912
C34	C	-4.047682	-0.527061	-0.095606
C35	C	-3.882419	-0.559985	-0.091960
C36	C	-3.684751	-0.519916	-0.088601
C37	C	-3.652374	-0.446933	-0.088900
C38	C	-3.816096	-0.679424	-0.129952
C39	C	-3.848482	-0.752407	-0.129658
C40	C	-3.982272	-0.785088	-0.091034
C41	C	-4.083710	-0.744781	-0.052714
C42	C	-4.051332	-0.671798	-0.053013
C43	C	-3.917506	-0.639122	-0.091635
C44	C	-4.215031	-0.904284	-0.094055
C45	C	-4.247401	-0.977268	-0.093744
C46	C	-3.884468	-0.970123	-0.086746
C47	C	-3.852100	-0.897140	-0.087050
C48	C	-4.017391	-0.864225	-0.090708
C49	C	-4.137362	-0.210554	0.032910
C50	C	-4.082143	-0.210882	0.110584
C51	C	-4.137355	-0.087862	-0.089774
C52	C	-4.082134	-0.010187	-0.090097
H53	H	-4.234956	-0.305622	-0.675930
N54	N	-3.706206	-1.005622	-0.082805
H55	H	-3.756702	-1.057936	-0.083122
H56	H	-3.643943	-0.998236	-0.124869
H57	H	-4.077384	-0.327538	-0.768644
N58	N	-3.881682	-0.346341	-0.311482
H59	H	-3.993274	-0.352150	-0.284153
H60	H	-3.916673	-0.386693	-0.352141
N61	N	-4.160710	-0.628326	-0.011675
H62	H	-4.055844	-0.591009	0.024796
H63	H	-4.249189	-0.604789	-0.045012
N64	N	-3.950846	-0.078498	-0.719484
H65	H	-4.059651	-0.078609	-0.691255
H66	H	-3.812345	-0.072975	-0.686293
H67	H	-4.136106	-0.327001	-0.901054
H68	H	-4.022158	-0.094825	-0.864215
H69	H	-4.149897	-0.427283	-0.098888
H70	H	-3.723622	-0.118050	-0.639138
H71	H	-3.664877	-0.118597	-0.506731
H72	H	-3.491428	-0.414316	-0.086164
H73	H	-3.822421	-0.096671	-0.414012
N74	N	-4.260860	-0.570279	-0.099223
H75	H	-4.360655	-0.538353	-0.101585
H76	H	-4.304820	-0.607643	-0.142793
N77	N	-3.948990	-0.345715	-0.463182
H78	H	-3.953730	-0.386390	-0.435421
H79	H	-4.087421	-0.351207	-0.496405
N80	N	-4.393303	-0.868783	-0.097985
H81	H	-4.365309	-0.831732	-0.054727
H82	H	-4.410538	-0.845635	-0.141832
H83	H	-4.408343	-1.009883	-0.096471
N84	N	-4.228029	-0.780018	-0.011055
H85	H	-4.233146	-0.832368	-0.016676
H86	H	-4.177067	-0.758724	0.040576
H87	H	-3.691167	-0.864525	-0.084326
H88	H	-3.763655	-0.097216	-0.281610
N89	N	-3.739092	-0.795879	-0.170989
H90	H	-3.649405	-0.764101	-0.195495
H91	H	-3.650749	-0.819459	-0.137654
H92	H	-3.550194	-0.546727	-0.085630
N93	N	-3.671785	-0.644178	-0.171612
H94	H	-3.612456	-0.680786	-0.195846
H95	H	-3.749902	-0.620933	-0.208295
N96	N	-4.209168	-0.319865	-0.536558
H97	H	-4.357390	-0.316621	-0.551174
H98	H	-4.195238	-0.368179	-0.556223
