data_functionalizedCrystal
_audit_creation_method	'MofGen! by Chris Wilmer'
_symmetry_space_group_name_H-M	'P1'
_symmetry_Int_Tables_number	1
_symmetry_cell_setting	triclinic
loop_
_symmetry_equiv_pos_as_xyz
  x,y,z
_cell_length_a	12.645330
_cell_length_b	17.077404
_cell_length_c	17.077404
_cell_angle_alpha	89.991486
_cell_angle_beta	90.006533
_cell_angle_gamma	89.985240
loop_
_atom_site_label
_atom_site_type_symbol
_atom_site_fract_x
_atom_site_fract_y
_atom_site_fract_z
Zn1	Zn	-0.422306	-1.199996	0.443871
Zn2	Zn	-0.599537	-1.199941	0.312615
Zn3	Zn	-0.422279	-1.068754	0.312618
Zn4	Zn	-0.599519	-1.068708	0.443838
O5	O	-0.510910	-1.134350	0.378235
O6	O	-0.445835	-1.309836	0.426472
O7	O	-0.576020	-1.182535	0.202768
O8	O	-0.273935	-1.086206	0.330044
O9	O	-0.576046	-1.309795	0.330038
O10	O	-0.273955	-1.182629	0.426475
O11	O	-0.445789	-1.086152	0.202771
O12	O	-0.445771	-0.958901	0.330012
O13	O	-0.576014	-1.086128	0.553689
O14	O	-0.575988	-0.958867	0.426419
O15	O	-0.445817	-1.182585	0.553713
O16	O	-0.747882	-1.182490	0.330007
O17	O	-0.747868	-1.086074	0.426416
C18	C	-0.510876	-0.930402	0.378213
C19	C	-0.510887	-0.843152	0.378222
C20	C	-0.443205	-0.802184	0.428510
C21	C	-0.443210	-0.720203	0.428512
C22	C	-0.510903	-0.679193	0.378229
C23	C	-0.578587	-0.720167	0.327935
C24	C	-0.578576	-0.802146	0.327930
C25	C	-0.578607	-0.549297	0.327950
C26	C	-0.578620	-0.467312	0.327956
C27	C	-0.443242	-0.467354	0.428533
C28	C	-0.443231	-0.549333	0.428528
C29	C	-0.510917	-0.590302	0.378235
C30	C	-0.786340	-1.134292	0.378224
C31	C	-0.904170	-1.134340	0.378246
C32	C	-1.071770	-1.073934	0.439084
C33	C	-0.949210	-1.073625	0.438888
C34	C	-0.948727	-1.111964	0.295519
C35	C	-1.071325	-1.111595	0.295888
C36	C	-1.071274	-1.217490	0.399464
C37	C	-0.948668	-1.216980	0.401273
C38	C	-0.234405	-1.134429	0.378264
C39	C	-0.116575	-1.134462	0.378276
C40	C	-0.510917	-1.134357	0.582980
C41	C	-0.510919	-1.134360	0.670229
C42	C	-0.510940	-0.339094	0.378252
C43	C	-0.510939	-0.426344	0.378245
C44	C	-0.443137	-1.184579	0.711233
C45	C	-0.443135	-1.184573	0.793214
C46	C	-0.510923	-1.134351	0.834189
C47	C	-0.578708	-1.084126	0.793179
C48	C	-0.578704	-1.084129	0.711200
C49	C	-0.578715	-1.084124	0.964049
C50	C	-0.578722	-1.084122	1.046034
C51	C	-0.443147	-1.184568	1.046063
C52	C	-0.443142	-1.184571	0.964084
C53	C	-0.510930	-1.134347	0.923080
C54	C	-0.510931	-1.134338	1.174288
C55	C	-0.510939	-1.134341	1.087038
H56	H	-0.633698	-0.686769	0.286990
C57	C	-1.111537	-1.092659	0.522226
H58	H	-1.083602	-1.055464	0.558042
H59	H	-1.186585	-1.090382	0.523158
H60	H	-1.088942	-1.143685	0.536777
C61	C	-0.368747	-0.847292	0.483823
H62	H	-0.378439	-0.901984	0.476625
H63	H	-0.297497	-0.833863	0.472427
H64	H	-0.384385	-0.833864	0.536549
H65	H	-0.633688	-0.835501	0.286979
C66	C	-0.907377	-1.030823	0.270835
H67	H	-0.862973	-1.010474	0.310826
H68	H	-0.868231	-1.035519	0.223595
H69	H	-0.965429	-0.996409	0.262871
C70	C	-1.110306	-1.278393	0.339583
H71	H	-1.154011	-1.253388	0.301857
H72	H	-1.051275	-1.301526	0.314117
H73	H	-1.149706	-1.317824	0.365816
H74	H	-0.387940	-1.225479	0.677877
H75	H	-0.387943	-1.225468	0.826596
H76	H	-0.387950	-1.225471	0.930724
H77	H	-0.919545	-1.233855	0.462155
H78	H	-1.102660	-1.012765	0.425226
H79	H	-0.387951	-1.225460	1.079452
C80	C	-0.908506	-1.092506	0.521759
H81	H	-0.966897	-1.100433	0.555848
H82	H	-0.866560	-1.138632	0.520160
H83	H	-0.866964	-1.050080	0.540404
C84	C	-0.653314	-1.028905	0.918946
H85	H	-0.693705	-0.999007	0.955089
H86	H	-0.612790	-0.994707	0.886950
H87	H	-0.699499	-1.058951	0.886982
C88	C	-1.112968	-1.245069	0.479573
H89	H	-1.158398	-1.206199	0.500848
H90	H	-1.151096	-1.292566	0.473220
H91	H	-1.055127	-1.253436	0.514081
H92	H	-0.633918	-1.043225	1.079393
H93	H	-0.919965	-1.012072	0.424851
C94	C	-0.653290	-1.028908	0.666096
H95	H	-0.693677	-0.999007	0.702239
H96	H	-0.612752	-0.994714	0.634105
H97	H	-0.699480	-1.058944	0.634126
C98	C	-1.110075	-1.029605	0.271649
H99	H	-1.050889	-0.996834	0.261673
H100	H	-1.151930	-1.033637	0.225632
H101	H	-1.151294	-1.007751	0.312700
C102	C	-1.111372	-1.168552	0.232587
H103	H	-1.052711	-1.191809	0.206755
H104	H	-1.153057	-1.208253	0.256351
H105	H	-1.153040	-1.140720	0.195586
H106	H	-0.919551	-1.154653	0.248974
C107	C	-0.907250	-1.281114	0.345803
H108	H	-0.935386	-1.330375	0.361092
H109	H	-0.928563	-1.269657	0.293704
H110	H	-0.832243	-1.282883	0.348400
C111	C	-0.368763	-0.675142	0.483831
H112	H	-0.328457	-0.711307	0.513784
H113	H	-0.322510	-0.643162	0.453866
H114	H	-0.409400	-0.643163	0.517986
C115	C	-0.368787	-0.422293	0.483852
H116	H	-0.378478	-0.367596	0.476649
H117	H	-0.384417	-0.435737	0.536573
H118	H	-0.297529	-0.435736	0.472452
H119	H	-0.633898	-1.043232	0.826548
H120	H	-0.633742	-0.433923	0.287012
H121	H	-0.388116	-0.582722	0.469477
C122	C	-0.653071	-0.594360	0.272637
H123	H	-0.693399	-0.558196	0.242698
H124	H	-0.612453	-0.626343	0.238481
H125	H	-0.699320	-0.626336	0.302618
