data_functionalizedCrystal
_audit_creation_method	'MofGen! by Chris Wilmer'
_symmetry_space_group_name_H-M	'P1'
_symmetry_Int_Tables_number	1
_symmetry_cell_setting	triclinic
loop_
_symmetry_equiv_pos_as_xyz
  x,y,z
_cell_length_a	14.971486
_cell_length_b	10.723024
_cell_length_c	13.448316
_cell_angle_alpha	89.994589
_cell_angle_beta	89.998199
_cell_angle_gamma	84.040999
loop_
_atom_site_label
_atom_site_type_symbol
_atom_site_fract_x
_atom_site_fract_y
_atom_site_fract_z
O1	O	1.187821	0.162617	-0.082575
O2	O	0.927525	0.182090	-0.082602
O3	O	1.063677	-0.009285	-0.082584
O4	O	1.051669	0.353992	-0.082593
O5	O	1.063660	-0.009297	0.082800
O6	O	0.927508	0.182078	0.082782
O7	O	1.187803	0.162605	0.082809
Cu8	Cu	1.057654	0.172341	0.097896
Cu9	Cu	1.057674	0.172355	-0.097689
O10	O	1.051651	0.353981	0.082791
C11	C	0.894187	0.181213	0.000087
C12	C	0.794876	0.178604	0.000077
C13	C	0.738254	0.291032	0.000075
C14	C	0.644941	0.288572	0.000090
C15	C	0.608252	0.173683	0.000099
C16	C	0.664881	0.061246	0.000104
C17	C	0.758192	0.063707	0.000096
C18	C	0.470391	0.056125	0.000117
C19	C	0.377074	0.053663	0.000123
C20	C	0.357141	0.280990	0.000112
C21	C	0.450452	0.283451	0.000104
C22	C	0.507074	0.171013	0.000106
C23	C	1.062794	-0.055782	0.000107
C24	C	1.060180	-0.194309	0.000103
C25	C	1.136363	-0.270088	0.000109
C26	C	1.133663	-0.413263	0.000106
C27	C	1.221141	0.163482	0.000118
C28	C	1.320452	0.166091	0.000122
C29	C	1.052534	0.400477	0.000098
C30	C	1.055148	0.539004	0.000096
N31	N	1.057646	0.172330	0.235461
N32	N	1.057689	0.172355	-0.235253
C33	C	1.117953	0.087624	0.287509
C34	C	1.117959	0.087623	0.391612
C35	C	1.057661	0.172335	0.443665
C36	C	0.997347	0.257045	0.391610
C37	C	0.997338	0.257039	0.287509
C38	C	0.997372	0.257054	0.608590
C39	C	0.997382	0.257062	0.712698
C40	C	1.117993	0.087637	0.712694
C41	C	1.117984	0.087631	0.608592
C42	C	1.057671	0.172343	0.556544
H43	H	0.516492	-0.035434	0.000121
H44	H	0.948247	0.326015	0.433998
H45	H	0.989926	-0.395889	0.000097
H46	H	1.167065	0.018648	0.433989
H47	H	0.992957	-0.235428	0.000090
O48	O	0.302014	0.390098	0.000153
C49	C	0.211788	0.363296	0.000140
H50	H	0.207610	0.265282	0.031465
H51	H	0.169960	0.434957	0.048147
H52	H	0.184833	0.367977	-0.079202
H53	H	1.167058	0.018646	0.245134
H54	H	0.948229	0.326014	0.245132
O55	O	0.813326	-0.045390	0.000137
C56	C	0.903551	-0.018583	0.000105
H57	H	0.907728	0.079433	0.031411
H58	H	0.945382	-0.090239	0.048122
H59	H	0.930501	-0.023269	-0.079239
O60	O	1.211558	-0.490755	0.000155
C61	C	1.285083	-0.418564	0.000136
H62	H	1.263056	-0.321435	0.031447
H63	H	1.341260	-0.466588	0.048155
H64	H	1.310389	-0.409293	-0.079205
O65	O	1.176590	0.005225	0.558180
C66	C	1.229840	-0.069524	0.626439
H67	H	1.193172	-0.071021	0.700654
H68	H	1.242874	-0.169146	0.596365
H69	H	1.296531	-0.028851	0.637493
H70	H	0.768119	0.384588	0.000067
O71	O	0.938711	0.339378	0.763111
C72	C	0.885480	0.414153	0.694852
H73	H	0.884162	0.362995	0.620646
H74	H	0.814168	0.432992	0.724940
H75	H	0.915065	0.506936	0.683773
H76	H	1.203586	-0.228968	0.000122
O77	O	0.938909	0.339395	0.557918
C78	C	0.987276	0.416504	0.497705
H79	H	1.056960	0.366962	0.482107
H80	H	0.950060	0.436155	0.424503
H81	H	0.993920	0.508746	0.537812
H82	H	1.167101	0.018662	0.755077
H83	H	0.480320	0.377003	0.000087
O84	O	0.590068	0.397901	0.000044
C85	C	0.642460	0.499831	0.000053
H86	H	0.711894	0.468262	-0.031266
H87	H	0.608524	0.578616	-0.047963
H88	H	0.649326	0.535039	0.079393
H89	H	0.635002	-0.032298	0.000125
H90	H	0.347205	-0.039889	0.000132
