data_functionalizedCrystal
_audit_creation_method	'MofGen! by Chris Wilmer'
_symmetry_space_group_name_H-M	'P1'
_symmetry_Int_Tables_number	1
_symmetry_cell_setting	triclinic
loop_
_symmetry_equiv_pos_as_xyz
  x,y,z
_cell_length_a	10.540539
_cell_length_b	10.540539
_cell_length_c	9.616153
_cell_angle_alpha	90.000094
_cell_angle_beta	89.995174
_cell_angle_gamma	95.474508
loop_
_atom_site_label
_atom_site_type_symbol
_atom_site_fract_x
_atom_site_fract_y
_atom_site_fract_z
O1	O	1.685892	-0.178895	-0.115573
O2	O	1.316479	-0.195751	-0.115589
O3	O	1.509614	-0.002617	-0.115579
O4	O	1.492758	-0.372030	-0.115583
O5	O	1.509587	-0.002621	0.115712
O6	O	1.316452	-0.195755	0.115702
O7	O	1.685865	-0.178899	0.115718
Zn8	Zn	1.501155	-0.187328	0.152433
Zn9	Zn	1.501190	-0.187323	-0.152304
O10	O	1.492731	-0.372034	0.115708
C11	C	1.269163	-0.194489	0.000054
C12	C	1.128215	-0.190707	0.000048
C13	C	0.944788	-0.045790	0.000589
C14	C	1.091406	-0.049624	0.000054
C15	C	1.066557	-0.258600	-0.132027
C16	C	0.920013	-0.253785	-0.132123
C17	C	0.919494	-0.256660	0.130899
C18	C	1.066476	-0.257959	0.132630
C19	C	1.508336	0.044684	0.000064
C20	C	1.504554	0.185632	0.000056
C21	C	1.733182	-0.180161	0.000072
C22	C	1.874130	-0.183943	0.000069
C23	C	1.494008	-0.419335	0.000062
C24	C	1.497790	-0.560283	0.000060
N25	N	1.501140	-0.187331	0.360407
C26	C	1.359637	0.369059	-0.000469
C27	C	1.363471	0.222441	0.000052
C28	C	1.572435	0.247288	0.132138
C29	C	1.567620	0.393832	0.132249
C30	C	1.570519	0.394355	-0.130772
C31	C	1.571819	0.247373	-0.132518
N32	N	1.501215	-0.187310	-0.360278
C33	C	1.397510	-0.290298	0.580772
C34	C	1.397739	-0.290684	0.419604
C35	C	1.633864	-0.217464	0.418862
C36	C	1.633299	-0.218193	0.580080
C37	C	1.473368	-0.053892	0.580319
C38	C	1.470321	-0.054757	0.419092
H39	H	0.914592	0.009712	-0.093600
H40	H	1.524869	0.425910	-0.230881
H41	H	0.872044	-0.355250	-0.138119
C42	C	1.049467	0.070117	-0.204512
C43	C	1.147787	0.022992	-0.127983
H44	H	1.084275	0.114940	-0.283564
H45	H	1.006435	0.126191	-0.147937
H46	H	0.991021	0.001172	-0.233954
H47	H	1.206228	0.091938	-0.098531
H48	H	1.190839	-0.033086	-0.184568
H49	H	1.525259	0.204686	0.230425
H50	H	1.658761	-0.313702	0.378472
C51	C	1.351583	0.089293	0.290455
C52	C	1.338515	-0.023915	0.367518
H53	H	1.270208	0.108331	0.258617
H54	H	1.405654	0.079438	0.212962
H55	H	1.387730	0.156893	0.347536
H56	H	1.302375	-0.091517	0.310434
H57	H	1.284423	-0.014068	0.445023
H58	H	1.712941	-0.146204	0.619073
H59	H	1.522152	0.206516	-0.230229
H60	H	1.134009	0.003797	0.094731
C61	C	1.231578	-0.398986	0.151531
C62	C	1.099167	-0.396822	0.143386
H63	H	1.251756	-0.484719	0.158152
H64	H	1.262700	-0.352996	0.231398
H65	H	1.270073	-0.360728	0.070550
H66	H	1.060672	-0.435072	0.224372
H67	H	1.068030	-0.442830	0.063511
C68	C	0.991086	-0.150150	-0.344393
C69	C	0.881936	-0.186030	-0.265389
H70	H	0.967581	-0.108311	-0.426662
H71	H	1.031560	-0.223827	-0.368524
H72	H	1.048130	-0.093958	-0.291576
H73	H	0.824896	-0.242229	-0.318203
H74	H	0.841442	-0.112342	-0.241261
C75	C	1.228937	-0.403205	-0.144536
C76	C	1.096736	-0.398465	-0.138684
H77	H	1.247566	-0.489552	-0.148653
H78	H	1.267095	-0.363969	-0.063915
H79	H	1.261801	-0.359323	-0.225025
H80	H	1.063873	-0.442339	-0.058188
H81	H	1.058563	-0.437719	-0.219313
H82	H	1.109157	-0.211434	-0.230318
C83	C	1.164135	0.195326	0.122368
C84	C	1.290849	0.166067	0.128088
H85	H	1.119308	0.160531	0.201425
H86	H	1.125102	0.160070	0.040227
H87	H	1.162063	0.285225	0.121595
H88	H	1.292922	0.076167	0.128850
H89	H	1.329892	0.201317	0.210251
C90	C	1.738528	0.138095	-0.030441
C91	C	1.710684	0.214690	-0.143283
H92	H	1.824265	0.117929	-0.037077
H93	H	1.682865	0.061730	-0.031567
H94	H	1.727358	0.182695	0.053850
H95	H	1.721846	0.170087	-0.227574
H96	H	1.766364	0.291068	-0.142170
H97	H	0.887936	-0.211004	0.231010
H98	H	1.672423	0.441581	-0.131656
H99	H	1.107427	-0.208361	0.230338
H100	H	1.299122	-0.272553	0.380085
H101	H	1.540848	0.025564	0.378801
C102	C	0.783452	-0.414646	0.253598
C103	C	0.855740	-0.394225	0.132092
H104	H	0.744096	-0.499571	0.254320
H105	H	0.719768	-0.356735	0.256500
H106	H	0.837476	-0.401499	0.332379
H107	H	0.801714	-0.407362	0.053310
H108	H	0.919432	-0.452153	0.129177
C109	C	1.639195	0.108076	0.517482
C110	C	1.575430	0.049596	0.631784
H111	H	1.702210	0.171951	0.549264
H112	H	1.579863	0.145878	0.460083
H113	H	1.678777	0.046056	0.465593
H114	H	1.535840	0.111615	0.683668
H115	H	1.634772	0.011794	0.689206
H116	H	1.415178	-0.388722	0.621270
C117	C	1.175710	0.463222	-0.084538
C118	C	1.284396	0.407659	-0.128328
H119	H	1.129255	0.487047	-0.163477
H120	H	1.200560	0.536641	-0.030171
H121	H	1.123595	0.403647	-0.030283
H122	H	1.336516	0.467238	-0.182574
H123	H	1.259547	0.334230	-0.182717
H124	H	0.916192	0.009944	0.095307
C125	C	1.463962	0.322756	0.344509
C126	C	1.499851	0.431907	0.265518
H127	H	1.422115	0.346259	0.426779
H128	H	1.537637	0.282281	0.368639
H129	H	1.407777	0.265712	0.291685
H130	H	1.556044	0.488947	0.318338
H131	H	1.426165	0.472401	0.241391
H132	H	1.712918	-0.144501	0.380514
H133	H	1.310058	0.179839	-0.094630
H134	H	1.378631	-0.025213	0.621052
C135	C	1.235107	-0.145519	0.589542
C136	C	1.263964	-0.266207	0.633173
H137	H	1.152663	-0.130643	0.621910
H138	H	1.236752	-0.141695	0.490867
H139	H	1.296329	-0.082369	0.626283
H140	H	1.202748	-0.329358	0.596424
H141	H	1.262309	-0.270042	0.731868
H142	H	1.415638	-0.389668	0.381024
C143	C	1.686176	-0.426925	0.516016
C144	C	1.666163	-0.349597	0.630834
H145	H	1.706455	-0.508052	0.547348
H146	H	1.754617	-0.388246	0.461811
H147	H	1.611017	-0.436935	0.461035
H148	H	1.741325	-0.339579	0.685811
H149	H	1.597716	-0.388284	0.685063
H150	H	1.304122	0.399265	0.093714
H151	H	1.676042	0.224933	0.137054
H152	H	1.669084	0.441801	0.138246
