data_functionalizedCrystal
_audit_creation_method	'MofGen! by Chris Wilmer'
_symmetry_space_group_name_H-M	'P1'
_symmetry_Int_Tables_number	1
_symmetry_cell_setting	triclinic
loop_
_symmetry_equiv_pos_as_xyz
  x,y,z
_cell_length_a	18.050591
_cell_length_b	18.050582
_cell_length_c	18.050588
_cell_angle_alpha	90.021152
_cell_angle_beta	89.973991
_cell_angle_gamma	89.980240
loop_
_atom_site_label
_atom_site_type_symbol
_atom_site_fract_x
_atom_site_fract_y
_atom_site_fract_z
Zn1	Zn	1.135286	-0.420016	0.295777
Zn2	Zn	1.135193	-0.295829	0.419960
Zn3	Zn	1.011105	-0.295829	0.295781
Zn4	Zn	1.011050	-0.419967	0.419922
O5	O	1.073158	-0.357910	0.357860
O6	O	1.239198	-0.403562	0.312265
O7	O	1.118717	-0.191904	0.403505
O8	O	1.027639	-0.312324	0.191856
O9	O	1.239130	-0.312323	0.403502
O10	O	1.118874	-0.403563	0.191853
O11	O	1.027550	-0.191905	0.312271
O12	O	0.907173	-0.312276	0.312234
O13	O	1.027546	-0.523898	0.403436
O14	O	0.907133	-0.403479	0.403440
O15	O	1.118821	-0.523934	0.312227
O16	O	1.118664	-0.312275	0.523880
O17	O	1.027456	-0.403479	0.523852
C18	C	0.880206	-0.357873	0.357834
C19	C	0.797661	-0.357875	0.357841
C20	C	0.548835	-0.308396	0.308192
C21	C	0.598268	-0.376171	0.290110
C22	C	0.500540	-0.357936	0.357879
C23	C	0.598189	-0.290134	0.375906
C24	C	0.646525	-0.357902	0.357858
C25	C	0.548885	-0.425747	0.339763
C26	C	0.548803	-0.339664	0.425589
C27	C	0.598213	-0.407486	0.407534
C28	C	0.416442	-0.357954	0.357888
C29	C	0.730622	-0.357891	0.357848
C30	C	1.073188	-0.551616	0.357827
C31	C	1.073200	-0.634162	0.357813
C32	C	1.023602	-0.833593	0.407345
C33	C	1.091357	-0.882990	0.425502
C34	C	1.073237	-0.785292	0.357756
C35	C	1.005519	-0.882976	0.339578
C36	C	1.073266	-0.931277	0.357703
C37	C	1.141027	-0.833602	0.375950
C38	C	1.055143	-0.833584	0.289994
C39	C	1.122945	-0.882959	0.308126
C40	C	1.073219	-0.701194	0.357789
C41	C	1.073292	-1.015374	0.357670
C42	C	1.266864	-0.357948	0.357887
C43	C	1.349410	-0.357964	0.357898
C44	C	1.073064	-0.357888	0.550812
C45	C	1.073092	-0.357903	0.633358
C46	C	1.073172	-0.164958	0.357839
C47	C	1.073304	-0.082413	0.357644
C48	C	1.073273	-0.357949	0.164154
C49	C	1.073322	-0.357965	0.081609
C50	C	1.023571	-0.407500	0.882195
C51	C	1.091288	-0.425730	0.832731
C52	C	1.073246	-0.357945	0.930478
C53	C	1.005457	-0.339729	0.832861
C54	C	1.073167	-0.357926	0.784493
C55	C	1.140999	-0.376210	0.882101
C56	C	1.055123	-0.290177	0.882236
C57	C	1.122886	-0.308382	0.832794
C58	C	1.073291	-0.357957	1.014577
C59	C	1.073130	-0.357913	0.700397
H60	H	0.527318	-0.483089	0.324440
O61	O	0.973467	-0.457493	0.907990
C62	C	0.902265	-0.438879	0.881842
H63	H	0.907547	-0.403957	0.829498
H64	H	0.870188	-0.491678	0.868766
H65	H	0.871482	-0.405951	0.926115
H66	H	1.106679	-0.904692	0.482785
O67	O	0.624046	-0.457447	0.457643
C68	C	0.702150	-0.456470	0.457495
H69	H	0.722454	-0.400939	0.435329
H70	H	0.723396	-0.464658	0.516392
H71	H	0.723756	-0.503020	0.420646
H72	H	0.981668	-0.811918	0.449335
O73	O	1.036758	-0.807576	0.221735
C74	C	0.972468	-0.763517	0.227137
H75	H	0.966633	-0.741881	0.286195
H76	H	0.976939	-0.714789	0.187227
H77	H	0.921846	-0.798251	0.212359
H78	H	0.619849	-0.232809	0.391162
H79	H	0.948163	-0.324331	0.811228
O80	O	1.036893	-0.221875	0.908328
C81	C	1.037842	-0.222695	0.986427
H82	H	1.074949	-0.269690	1.006500
H83	H	1.060175	-0.167625	1.007801
H84	H	0.979173	-0.231431	1.008134
O85	O	1.209329	-0.807719	0.394370
C86	C	1.208485	-0.729614	0.394189
H87	H	1.149295	-0.709161	0.402447
H88	H	1.244905	-0.708051	0.441050
H89	H	1.230572	-0.708471	0.338926
H90	H	1.164980	-0.904498	0.266168
O91	O	0.937166	-0.908889	0.321385
C92	C	0.909649	-0.952954	0.379703
H93	H	0.938369	-0.936876	0.433594
H94	H	0.847426	-0.943779	0.385492
H95	H	0.920901	-1.013837	0.367182
O96	O	0.522998	-0.258580	0.257939
C97	C	0.548220	-0.278101	0.186616
H98	H	0.562111	-0.339700	0.185297
H99	H	0.503056	-0.265798	0.144239
H100	H	0.599888	-0.244588	0.172637
O101	O	0.522891	-0.321087	0.493869
C102	C	0.547981	-0.249554	0.512682
H103	H	0.561852	-0.217601	0.460010
H104	H	0.502745	-0.219048	0.544537
H105	H	0.599634	-0.254167	0.548710
H106	H	1.106588	-0.483032	0.810987
O107	O	1.209318	-0.394686	0.907916
C108	C	1.208532	-0.394486	0.986023
H109	H	1.149357	-0.402685	1.006522
H110	H	1.244963	-0.441375	1.007531
H111	H	1.230642	-0.339238	1.007175
O112	O	1.173116	-0.258461	0.807107
C113	C	1.244421	-0.277921	0.832347
H114	H	1.245798	-0.339539	0.846104
H115	H	1.286860	-0.265495	0.787244
H116	H	1.258266	-0.244465	0.884099
H117	H	0.619982	-0.391625	0.232837
