data_functionalizedCrystal
_audit_creation_method	'MofGen! by Chris Wilmer'
_symmetry_space_group_name_H-M	'P1'
_symmetry_Int_Tables_number	1
_symmetry_cell_setting	triclinic
loop_
_symmetry_equiv_pos_as_xyz
  x,y,z
_cell_length_a	12.759401
_cell_length_b	12.594516
_cell_length_c	12.594509
_cell_angle_alpha	90.024652
_cell_angle_beta	90.018119
_cell_angle_gamma	90.016214
loop_
_atom_site_label
_atom_site_type_symbol
_atom_site_fract_x
_atom_site_fract_y
_atom_site_fract_z
Zn1	Zn	1.606242	-0.423722	0.601776
Zn2	Zn	1.606133	-0.601727	0.423803
Zn3	Zn	1.430545	-0.423764	0.423815
Zn4	Zn	1.430528	-0.601659	0.601744
O5	O	1.518362	-0.512718	0.512785
O6	O	1.753248	-0.447346	0.578175
O7	O	1.582802	-0.578166	0.274859
O8	O	1.453904	-0.274812	0.447440
O9	O	1.753168	-0.578125	0.447420
O10	O	1.582987	-0.274782	0.578187
O11	O	1.453798	-0.447417	0.274868
O12	O	1.283521	-0.447351	0.447410
O13	O	1.453875	-0.578009	0.750694
O14	O	1.283509	-0.578050	0.578134
O15	O	1.582971	-0.447280	0.750717
O16	O	1.582786	-0.750664	0.447390
O17	O	1.453770	-0.750614	0.578122
C18	C	1.245394	-0.512698	0.512770
C19	C	1.128618	-0.512716	0.512789
C20	C	1.073777	-0.580880	0.580744
C21	C	0.964053	-0.580893	0.580756
C22	C	0.964020	-0.444576	0.444848
C23	C	1.073742	-0.444558	0.444843
C24	C	1.128652	-0.649038	0.648691
C25	C	1.073811	-0.717208	0.716651
C26	C	0.964087	-0.717221	0.716663
C27	C	0.909204	-0.649064	0.648714
C28	C	1.518293	-0.789259	0.512774
C29	C	1.518360	-0.907564	0.512805
C30	C	1.448181	-0.976829	0.583861
C31	C	1.422582	-1.047692	0.486739
C32	C	1.544054	-1.047500	0.609944
C33	C	1.492710	-0.976869	0.415632
C34	C	1.614227	-0.976671	0.538902
C35	C	1.588664	-1.047502	0.441714
C36	C	1.792395	-0.512738	0.512800
C37	C	1.909172	-0.512747	0.512806
C38	C	1.518434	-0.512632	0.790406
C39	C	1.518464	-0.512596	0.908711
C40	C	1.518460	-0.235097	0.512818
C41	C	1.518501	-0.116792	0.512833
C42	C	1.518351	-0.512726	0.236244
C43	C	1.518524	-0.512463	0.117939
C44	C	1.448293	-0.583611	1.048716
C45	C	1.422606	-0.486546	0.977912
C46	C	1.544103	-0.609651	0.977943
C47	C	1.492788	-0.415346	1.048693
C48	C	1.614330	-0.538516	1.048731
C49	C	1.588679	-0.441385	0.977959
H50	H	0.919326	-0.389086	0.389527
H51	H	1.341560	-0.464559	0.946804
H52	H	0.919439	-0.772721	0.772006
O53	O	1.369618	-0.663159	1.089862
H54	H	1.370860	-0.662949	1.177983
H55	H	1.648046	-0.381205	0.947089
H56	H	1.471035	-0.333187	1.079641
H57	H	0.819860	-0.649072	0.648738
O58	O	1.572809	-0.718443	0.936775
H59	H	1.514420	-0.777293	0.965126
O60	O	1.246997	-0.649026	0.648671
H61	H	1.275944	-0.707867	0.707335
O62	O	1.132905	-0.371049	0.371542
H63	H	1.076315	-0.323672	0.324281
H64	H	1.695353	-0.560532	1.079861
O65	O	1.369437	-0.935701	0.663337
H66	H	1.289977	-0.964146	0.641424
O67	O	1.572775	-1.088595	0.718741
H68	H	1.514336	-1.060289	0.777551
H69	H	1.341575	-1.078911	0.464689
H70	H	1.648073	-1.078338	0.381567
H71	H	1.118504	-0.772692	0.771979
H72	H	1.695215	-0.945456	0.560999
O73	O	1.463867	-0.935957	0.306799
H74	H	1.463991	-0.847832	0.307654
