data_functionalizedCrystal
_audit_creation_method	'MofGen! by Chris Wilmer'
_symmetry_space_group_name_H-M	'P1'
_symmetry_Int_Tables_number	1
_symmetry_cell_setting	triclinic
loop_
_symmetry_equiv_pos_as_xyz
  x,y,z
_cell_length_a	12.759401
_cell_length_b	12.759400
_cell_length_c	12.759393
_cell_angle_alpha	89.970195
_cell_angle_beta	89.979062
_cell_angle_gamma	90.016169
loop_
_atom_site_label
_atom_site_type_symbol
_atom_site_fract_x
_atom_site_fract_y
_atom_site_fract_z
Zn1	Zn	1.606267	-0.418173	-0.594025
Zn2	Zn	1.939600	-0.084839	-0.260692
Zn3	Zn	2.272933	0.248494	0.072641
Zn4	Zn	1.606158	-0.593888	-0.418347
Zn5	Zn	1.939491	-0.260555	-0.085014
Zn6	Zn	2.272825	0.072778	0.248319
Zn7	Zn	1.430565	-0.418229	-0.418360
Zn8	Zn	1.763899	-0.084895	-0.085027
Zn9	Zn	2.097232	0.248438	0.248306
Zn10	Zn	1.430558	-0.593815	-0.593985
Zn11	Zn	1.763891	-0.260482	-0.260651
Zn12	Zn	2.097224	0.072852	0.072682
O13	O	1.518387	-0.506026	-0.506179
O14	O	1.851720	-0.172693	-0.172846
O15	O	2.185054	0.160641	0.160487
O16	O	1.753273	-0.441489	-0.570733
O17	O	2.086607	-0.108156	-0.237399
O18	O	2.419940	0.225178	0.095934
O19	O	1.582823	-0.570641	-0.271328
O20	O	1.916156	-0.237307	0.062005
O21	O	2.249490	0.096026	0.395339
O22	O	1.453921	-0.271200	-0.441685
O23	O	1.787255	0.062133	-0.108352
O24	O	2.120588	0.395467	0.224982
O25	O	1.753193	-0.570587	-0.441663
O26	O	2.086527	-0.237253	-0.108330
O27	O	2.419860	0.096080	0.225004
O28	O	1.583008	-0.271159	-0.570745
O29	O	1.916342	0.062174	-0.237412
O30	O	2.249675	0.395508	0.095921
O31	O	1.453816	-0.441584	-0.271337
O32	O	1.787149	-0.108251	0.061996
O33	O	2.120483	0.225082	0.395329
O34	O	1.283543	-0.441513	-0.441646
O35	O	1.616877	-0.108180	-0.108312
O36	O	1.950210	0.225153	0.225021
O37	O	1.453908	-0.570461	-0.741011
O38	O	1.787241	-0.237128	-0.407678
O39	O	2.120575	0.096205	-0.074344
O40	O	1.283538	-0.570516	-0.570676
O41	O	1.616871	-0.237182	-0.237343
O42	O	1.950204	0.096151	0.095991
O43	O	1.583001	-0.441418	-0.741041
O44	O	1.916334	-0.108085	-0.407708
O45	O	2.249667	0.225249	-0.074374
O46	O	1.582815	-0.740900	-0.441624
O47	O	1.916149	-0.407566	-0.108290
O48	O	2.249482	-0.074233	0.225043
O49	O	1.453803	-0.740846	-0.570664
O50	O	1.787136	-0.407512	-0.237330
O51	O	2.120469	-0.074179	0.096003
C52	C	1.245420	-0.506013	-0.506159
C53	C	1.578753	-0.172680	-0.172825
C54	C	1.912086	0.160653	0.160508
C55	C	1.128643	-0.506033	-0.506175
C56	C	1.461976	-0.172700	-0.172841
C57	C	1.795310	0.160634	0.160492
C58	C	1.518325	-0.778994	-0.506161
C59	C	1.851658	-0.445660	-0.172827
C60	C	2.184991	-0.112327	0.160506
C61	C	1.518394	-0.895770	-0.506188
C62	C	1.851728	-0.562437	-0.172855
C63	C	2.185061	-0.229103	0.160479
C64	C	1.073805	-0.573307	-0.573255
C65	C	1.407139	-0.239974	-0.239922
C66	C	1.740472	0.093360	0.093412
C67	C	0.964081	-0.573311	-0.573276
C68	C	1.297415	-0.239978	-0.239942
C69	C	1.630748	0.093356	0.093391
C70	C	0.964042	-0.438764	-0.439127
C71	C	1.297375	-0.105431	-0.105793
C72	C	1.630709	0.227902	0.227540
C73	C	1.073764	-0.438756	-0.439112
C74	C	1.407097	-0.105423	-0.105779
C75	C	1.740431	0.227911	0.227555
C76	C	1.585581	-0.950521	-0.573447
C77	C	1.918914	-0.617187	-0.240113
C78	C	2.252247	-0.283854	0.093220
C79	C	1.585640	-1.060245	-0.573475
C80	C	1.918973	-0.726911	-0.240142
C81	C	2.252306	-0.393578	0.093191
C82	C	1.451323	-1.060458	-0.438977
C83	C	1.784656	-0.727124	-0.105644
C84	C	2.117990	-0.393791	0.227690
C85	C	1.451260	-0.950736	-0.438955
C86	C	1.784593	-0.617402	-0.105621
C87	C	2.117926	-0.284069	0.227712
C88	C	1.792420	-0.506040	-0.506201
C89	C	2.125754	-0.172706	-0.172868
C90	C	2.459087	0.160627	0.160466
C91	C	1.909197	-0.506046	-0.506210
C92	C	2.242530	-0.172712	-0.172877
C93	C	2.575864	0.160621	0.160457
C94	C	1.518466	-0.505925	-0.780213
C95	C	1.851799	-0.172592	-0.446880
C96	C	2.185132	0.160741	-0.113546
C97	C	1.518499	-0.505882	-0.896990
C98	C	1.851832	-0.172549	-0.563656
C99	C	2.185166	0.160784	-0.230323
C100	C	1.518478	-0.231993	-0.506221
C101	C	1.851811	0.101341	-0.172888
C102	C	2.185145	0.434674	0.160446
C103	C	1.518517	-0.115216	-0.506239
C104	C	1.851850	0.218117	-0.172906
C105	C	2.185183	0.551451	0.160428
C106	C	1.585723	-0.438679	-0.951869
C107	C	1.919056	-0.105345	-0.618535
C108	C	2.252389	0.227988	-0.285202
C109	C	1.585740	-0.438633	-1.061593
C110	C	1.919074	-0.105300	-0.728260
C111	C	2.252407	0.228033	-0.394926
C112	C	1.451308	-0.573004	-1.061549
C113	C	1.784641	-0.239671	-0.728216
C114	C	2.117975	0.093662	-0.394882
C115	C	1.451286	-0.573044	-0.951827
C116	C	1.784619	-0.239710	-0.618494
C117	C	2.117952	0.093623	-0.285160
C118	C	1.518369	-0.506051	-0.233212
C119	C	1.851702	-0.172717	0.100121
C120	C	2.185036	0.160616	0.433455
C121	C	1.518539	-0.505798	-0.116436
C122	C	1.851872	-0.172464	0.216897
C123	C	2.185206	0.160869	0.550231
H124	H	1.118485	-0.628086	-0.627864
H125	H	1.451818	-0.294752	-0.294531
H126	H	1.785151	0.038581	0.038802
H127	H	1.118414	-0.383967	-0.384487
H128	H	1.451747	-0.050634	-0.051154
H129	H	1.785081	0.282700	0.282180
H130	H	0.919346	-0.383991	-0.384525
H131	H	1.252680	-0.050658	-0.051192
H132	H	1.586013	0.282675	0.282141
H133	H	0.919438	-0.628090	-0.627901
H134	H	1.252771	-0.294757	-0.294568
H135	H	1.586104	0.038576	0.038766
O136	O	1.378798	-0.891678	-0.366395
O137	O	1.712132	-0.558345	-0.033062
O138	O	2.045465	-0.225012	0.300272
H139	H	1.296343	-0.912800	-0.384335
H140	H	1.629676	-0.579466	-0.051002
H141	H	1.963010	-0.246133	0.282332
H142	H	1.640244	-0.905770	-0.628194
H143	H	1.973578	-0.572437	-0.294860
H144	H	2.306911	-0.239104	0.038473
O145	O	1.378933	-1.119756	-0.366456
O146	O	1.712267	-0.786422	-0.033123
O147	O	2.045600	-0.453089	0.300210
H148	H	1.296451	-1.098770	-0.384400
H149	H	1.629785	-0.765437	-0.051067
H150	H	1.963118	-0.432104	0.282267
O151	O	1.658251	-0.366156	-1.120788
O152	O	1.991585	-0.032823	-0.787455
O153	O	2.324918	0.300511	-0.454122
H154	H	1.704987	-0.319471	-1.064219
H155	H	2.038321	0.013863	-0.730886
H156	H	2.371654	0.347196	-0.397552
O157	O	1.658107	-1.119302	-0.646015
O158	O	1.991441	-0.785968	-0.312682
O159	O	2.324774	-0.452635	0.020652
H160	H	1.704781	-1.062643	-0.692754
H161	H	2.038114	-0.729310	-0.359421
H162	H	2.371448	-0.395977	-0.026087
O163	O	1.658205	-0.366236	-0.892717
O164	O	1.991538	-0.032903	-0.559384
O165	O	2.324871	0.300430	-0.226051
H166	H	1.704945	-0.319491	-0.949317
H167	H	2.038278	0.013842	-0.615984
H168	H	2.371611	0.347175	-0.282650
H169	H	1.396588	-0.627687	-1.106211
H170	H	1.729921	-0.294354	-0.772878
H171	H	2.063254	0.038980	-0.439544
H172	H	1.396537	-0.627768	-0.907143
H173	H	1.729870	-0.294435	-0.573810
H174	H	2.063203	0.038898	-0.240476
