data_functionalizedCrystal
_audit_creation_method	'MofGen! by Chris Wilmer'
_symmetry_space_group_name_H-M	'P1'
_symmetry_Int_Tables_number	1
_symmetry_cell_setting	triclinic
loop_
_symmetry_equiv_pos_as_xyz
  x,y,z
_cell_length_a	17.000371
_cell_length_b	17.038272
_cell_length_c	9.565339
_cell_angle_alpha	89.999972
_cell_angle_beta	89.996315
_cell_angle_gamma	83.355402
loop_
_atom_site_label
_atom_site_type_symbol
_atom_site_fract_x
_atom_site_fract_y
_atom_site_fract_z
O1	O	1.058001	0.028037	-0.116266
O2	O	0.828180	0.056282	-0.116268
O3	O	0.941725	-0.071562	-0.116256
O4	O	0.944456	0.155881	-0.116278
O5	O	0.941716	-0.071554	0.116264
O6	O	0.828171	0.056290	0.116252
O7	O	1.057992	0.028045	0.116254
Zn8	Zn	0.943080	0.042169	0.153170
Zn9	Zn	0.943092	0.042158	-0.153185
O10	O	0.944447	0.155889	0.116242
C11	C	0.798625	0.057803	-0.000008
C12	C	0.710572	0.062314	-0.000009
C13	C	0.673845	-0.007108	0.000000
C14	C	0.591110	-0.002864	-0.000010
C15	C	0.545102	0.070802	-0.000020
C16	C	0.581834	0.140229	-0.000033
C17	C	0.664568	0.135985	-0.000033
C18	C	0.295066	0.087196	-0.000031
C19	C	0.212327	0.091434	-0.000027
C20	C	0.221608	-0.051659	-0.000007
C21	C	0.304344	-0.055897	0.000002
C22	C	0.341068	0.013530	-0.000018
C23	C	0.460533	0.075141	-0.000026
C24	C	0.425636	0.009190	-0.000022
C25	C	0.939235	-0.100516	0.000004
C26	C	0.931823	-0.186802	0.000003
C27	C	0.999881	-0.241577	0.000005
C28	C	0.992911	-0.322650	-0.000008
C29	C	0.917882	-0.348946	-0.000013
C30	C	0.849819	-0.294164	-0.000020
C31	C	0.856789	-0.213093	-0.000016
C32	C	0.893256	-0.593018	-0.000033
C33	C	0.886291	-0.674096	-0.000032
C34	C	1.029384	-0.702577	-0.000023
C35	C	1.036348	-0.621502	-0.000011
C36	C	0.968285	-0.566727	-0.000025
C37	C	0.910756	-0.431816	-0.000023
C38	C	0.975411	-0.483859	-0.000026
C39	C	1.087547	0.026524	-0.000009
C40	C	1.175600	0.022013	-0.000018
C41	C	0.946936	0.184843	-0.000021
C42	C	0.954349	0.271129	-0.000030
N43	N	0.943078	0.042175	0.362250
N44	N	0.943100	0.042145	-0.362264
C45	C	0.890549	0.101282	0.453447
C46	C	0.963163	0.111461	0.546625
C47	C	0.870494	0.032000	0.546627
C48	C	1.015730	0.052387	0.453376
C49	C	0.923012	-0.027101	0.453370
C50	C	0.995677	-0.016956	0.546506
H51	H	0.463099	-0.050788	-0.000022
H52	H	0.423064	0.135120	-0.000032
H53	H	0.801369	-0.168494	-0.000018
H54	H	1.040160	-0.066960	0.587109
F55	F	1.116204	-0.593523	-0.000041
F56	F	1.079738	-0.213599	0.000024
H57	H	1.077140	0.061051	0.412587
F58	F	1.065349	-0.380944	-0.000003
F59	F	0.552027	-0.076753	-0.000032
H60	H	1.084797	-0.747183	-0.000014
H61	H	0.694469	0.192515	-0.000034
H62	H	0.174868	0.151425	-0.000028
H63	H	1.036500	-0.462446	-0.000052
H64	H	0.825190	-0.695502	-0.000014
H65	H	0.809103	0.023407	0.587592
H66	H	0.837834	-0.548429	-0.000043
H67	H	0.788728	-0.315581	-0.000033
H68	H	0.324957	0.143728	-0.000057
F69	F	0.985368	0.188017	0.600167
H70	H	0.906005	-0.085652	0.412376
H71	H	0.849667	-0.453235	-0.000024
F72	F	0.832547	0.166665	0.400034
F73	F	0.353303	-0.134302	0.000021
H74	H	0.191698	-0.108182	-0.000005
F75	F	0.532867	0.218630	-0.000056
F76	F	0.722803	-0.085514	0.000020
