data_functionalizedCrystal
_audit_creation_method	'MofGen! by Chris Wilmer'
_symmetry_space_group_name_H-M	'P1'
_symmetry_Int_Tables_number	1
_symmetry_cell_setting	triclinic
loop_
_symmetry_equiv_pos_as_xyz
  x,y,z
_cell_length_a	10.723024
_cell_length_b	10.540539
_cell_length_c	9.198806
_cell_angle_alpha	89.998955
_cell_angle_beta	89.996352
_cell_angle_gamma	84.496680
loop_
_atom_site_label
_atom_site_type_symbol
_atom_site_fract_x
_atom_site_fract_y
_atom_site_fract_z
O1	O	1.657276	0.178046	-0.120876
O2	O	1.294132	0.195088	-0.120880
O3	O	1.483989	0.001856	-0.120876
O4	O	1.467419	0.371278	-0.120880
O5	O	1.483974	0.001856	0.120909
O6	O	1.294117	0.195088	0.120905
O7	O	1.657261	0.178045	0.120909
Cu8	Cu	1.475688	0.186567	0.142984
Cu9	Cu	1.475706	0.186567	-0.142955
O10	O	1.467404	0.371277	0.120905
C11	C	1.247624	0.193848	0.000012
C12	C	1.109068	0.190137	0.000010
C13	C	1.482739	-0.045446	0.000014
C14	C	1.479021	-0.186392	0.000006
C15	C	1.034139	0.298260	0.000008
C16	C	0.890934	0.294427	0.000006
C17	C	1.336563	-0.369746	-0.000538
C18	C	1.340332	-0.223130	0.000006
C19	C	1.545756	-0.248085	0.138078
C20	C	1.541023	-0.394627	0.138194
C21	C	1.543861	-0.395146	-0.136760
C22	C	1.545138	-0.248164	-0.138586
C23	C	1.703769	0.179286	0.000014
C24	C	1.842325	0.182997	0.000007
C25	C	1.468654	0.418580	0.000012
C26	C	1.472372	0.559526	0.000011
N27	N	1.475684	0.186565	0.344098
N28	N	1.475719	0.186558	-0.344069
C29	C	1.555399	0.105075	0.416297
C30	C	1.555419	0.105071	0.583709
H31	H	1.076009	0.393665	0.000015
O32	O	1.059278	0.076236	-0.000185
C33	C	1.099410	0.006784	-0.125427
H34	H	1.190055	0.042038	-0.167175
H35	H	1.024233	0.020935	-0.213112
C36	C	1.011019	-0.179121	-0.036115
C37	C	1.122357	-0.135828	-0.087384
H38	H	1.025169	-0.267091	-0.012652
H39	H	0.983977	-0.132329	0.048261
H40	H	0.948382	-0.167317	-0.109195
H41	H	1.184986	-0.147618	-0.014298
H42	H	1.149410	-0.182626	-0.171747
O43	O	1.394330	0.269970	0.418041
C44	C	1.416064	0.395765	0.380981
H45	H	1.464077	0.396017	0.270423
H46	H	1.478729	0.435338	0.466603
C47	C	1.231329	0.479072	0.509974
C48	C	1.290289	0.479382	0.374178
H49	H	1.153747	0.530653	0.505783
H50	H	1.216687	0.394322	0.534947
H51	H	1.283562	0.512046	0.581311
H52	H	1.238063	0.446393	0.302847
H53	H	1.304919	0.564129	0.349192
H54	H	1.287441	-0.181347	0.099145
H55	H	1.491690	-0.422801	0.241405
O56	O	0.814005	0.404774	-0.000192
C57	C	0.737908	0.409588	-0.125436
H58	H	0.730555	0.308748	-0.167184
H59	H	0.781178	0.468001	-0.213120
C60	C	0.615295	0.596012	-0.036129
C61	C	0.606255	0.472157	-0.087397
H62	H	0.534087	0.634613	-0.012669
H63	H	0.666565	0.592773	0.048248
H64	H	0.651359	0.644673	-0.109208
H65	H	0.570207	0.423494	-0.014313
H66	H	0.554975	0.475390	-0.171762
H67	H	1.640766	-0.442646	0.144459
O68	O	1.636851	0.021721	0.342418
C69	C	1.710998	-0.054026	0.442052
H70	H	1.659908	-0.055884	0.550603
H71	H	1.804217	-0.012232	0.458163
C72	C	1.797831	-0.188436	0.249168
C73	C	1.735077	-0.190726	0.382488
H74	H	1.812690	-0.272758	0.212425
H75	H	1.747881	-0.137402	0.182041
H76	H	1.875507	-0.153602	0.262612
H77	H	1.657397	-0.225545	0.369040
H78	H	1.785014	-0.241770	0.449612
H79	H	0.906704	0.090430	-0.000001
H80	H	1.287821	-0.180499	-0.098969
H81	H	1.281784	-0.398318	-0.099552
H82	H	1.281995	-0.399926	0.097920
H83	H	1.647605	-0.225783	0.143213
H84	H	1.499386	-0.205461	0.240826
O85	O	1.486861	-0.199131	-0.260305
C86	C	1.386692	-0.109411	-0.220403
H87	H	1.404086	-0.071625	-0.106810
H88	H	1.295608	-0.157012	-0.220909
C89	C	1.355452	-0.044556	-0.469098
C90	C	1.376821	0.001861	-0.329586
H91	H	1.349358	0.024079	-0.536449
H92	H	1.422935	-0.105005	-0.495982
H93	H	1.279551	-0.084224	-0.469498
H94	H	1.452729	0.041513	-0.329183
H95	H	1.309350	0.062320	-0.302704
O96	O	1.665756	-0.219349	-0.148842
C97	C	1.721364	-0.276621	-0.274544
H98	H	1.645192	-0.295632	-0.355951
H99	H	1.776933	-0.370466	-0.243951
C100	C	1.903496	-0.163379	-0.243226
C101	C	1.809941	-0.186719	-0.343217
H102	H	1.958139	-0.107928	-0.285585
H103	H	1.866034	-0.124797	-0.158535
H104	H	1.949789	-0.241592	-0.217740
H105	H	1.763639	-0.108510	-0.368687
H106	H	1.847397	-0.225286	-0.427914
H107	H	1.498980	-0.426675	-0.241410
H108	H	1.623671	0.035308	0.645797
H109	H	1.407472	0.256334	0.593853
O110	O	1.663345	-0.451599	-0.138142
C111	C	1.683334	-0.524357	-0.266095
H112	H	1.613494	-0.486475	-0.352830
H113	H	1.669889	-0.628258	-0.241973
C114	C	1.903450	-0.561178	-0.214753
C115	C	1.817678	-0.514645	-0.321287
H116	H	1.986321	-0.555193	-0.248796
H117	H	1.889983	-0.512164	-0.128546
H118	H	1.892230	-0.647759	-0.194662
H119	H	1.828887	-0.428062	-0.341363
H120	H	1.831149	-0.563644	-0.407499
