data_functionalizedCrystal
_audit_creation_method	'MofGen! by Chris Wilmer'
_symmetry_space_group_name_H-M	'P1'
_symmetry_Int_Tables_number	1
_symmetry_cell_setting	triclinic
loop_
_symmetry_equiv_pos_as_xyz
  x,y,z
_cell_length_a	19.077236
_cell_length_b	16.625545
_cell_length_c	19.077174
_cell_angle_alpha	92.273408
_cell_angle_beta	85.294282
_cell_angle_gamma	92.318364
loop_
_atom_site_label
_atom_site_type_symbol
_atom_site_fract_x
_atom_site_fract_y
_atom_site_fract_z
Zn1	Zn	1.093734	-0.291123	-0.441975
Zn2	Zn	1.593734	0.208877	0.058025
Zn3	Zn	1.088917	-0.420758	-0.324088
Zn4	Zn	1.588917	0.079242	0.175912
Zn5	Zn	0.971115	-0.291135	-0.319358
Zn6	Zn	1.471115	0.208865	0.180642
Zn7	Zn	0.975807	-0.431113	-0.437192
Zn8	Zn	1.475807	0.068887	0.062808
O9	O	1.032393	-0.358532	-0.380653
O10	O	1.532393	0.141468	0.119347
O11	O	1.191748	-0.303980	-0.430318
O12	O	1.691748	0.196020	0.069682
O13	O	1.069311	-0.399234	-0.224810
O14	O	1.569311	0.100766	0.275190
O15	O	0.987433	-0.178300	-0.335646
O16	O	1.487433	0.321700	0.164354
O17	O	1.188209	-0.399222	-0.343707
O18	O	1.688209	0.100778	0.156293
O19	O	1.077521	-0.178291	-0.425732
O20	O	1.577521	0.321709	0.074268
O21	O	0.982762	-0.304001	-0.221335
O22	O	1.482762	0.195999	0.278665
O23	O	0.873085	-0.314043	-0.331008
O24	O	1.373085	0.185957	0.168992
O25	O	0.995430	-0.416872	-0.536477
O26	O	1.495430	0.083128	-0.036477
O27	O	0.876532	-0.416884	-0.417580
O28	O	1.376532	0.083116	0.082420
O29	O	1.082070	-0.314022	-0.539991
O30	O	1.582070	0.185978	-0.039991
O31	O	1.073860	-0.534965	-0.339069
O32	O	1.573860	-0.034965	0.160931
O33	O	0.990759	-0.542573	-0.422166
O34	O	1.490759	-0.042573	0.077834
C35	C	0.849229	-0.366589	-0.373262
C36	C	1.349229	0.133411	0.126738
C37	C	0.770871	-0.370056	-0.370117
C38	C	1.270871	0.129944	0.129883
C39	C	0.735904	-0.322182	-0.413802
C40	C	1.235904	0.177818	0.086198
C41	C	0.662278	-0.325436	-0.410841
C42	C	1.162278	0.174564	0.089159
C43	C	0.623620	-0.376567	-0.364198
C44	C	1.123620	0.123433	0.135802
C45	C	0.658592	-0.424443	-0.320508
C46	C	1.158592	0.075557	0.179492
C47	C	0.732216	-0.421185	-0.323466
C48	C	1.232216	0.078815	0.176534
C49	C	0.403228	-0.391616	-0.350504
C50	C	0.903228	0.108384	0.149496
C51	C	0.329599	-0.394872	-0.347550
C52	C	0.829599	0.105128	0.152450
C53	C	0.333290	-0.295863	-0.437883
C54	C	0.833290	0.204137	0.062117
C55	C	0.406916	-0.292613	-0.440840
C56	C	0.906916	0.207387	0.059160
C57	C	0.441881	-0.340486	-0.397148
C58	C	0.941881	0.159514	0.102852
N59	N	0.548363	-0.379896	-0.361171
N60	N	1.048363	0.120104	0.138829
N61	N	0.517137	-0.337152	-0.400171
N62	N	1.017137	0.162848	0.099829
C63	C	1.032316	-0.568026	-0.380628
C64	C	1.532316	-0.068026	0.119372
C65	C	1.032348	-0.657646	-0.380643
C66	C	1.532348	-0.157646	0.119357
C67	C	1.032376	-0.730428	-0.380658
C68	C	1.532376	-0.230428	0.119342
C69	C	1.032418	-0.821735	-0.380676
C70	C	1.532418	-0.321735	0.119324
C71	C	1.032455	-0.894510	-0.380686
C72	C	1.532455	-0.394510	0.119314
C73	C	1.032496	-0.985823	-0.380702
C74	C	1.532496	-0.485823	0.119298
C75	C	1.216273	-0.350445	-0.388074
C76	C	1.716273	0.149555	0.111926
C77	C	1.294632	-0.346998	-0.391236
C78	C	1.794632	0.153002	0.108764
C79	C	1.039811	-0.366601	-0.564528
C80	C	1.539811	0.133399	-0.064528
C81	C	1.042972	-0.370039	-0.642884
C82	C	1.542972	0.129961	-0.142884
C83	C	1.032491	-0.148221	-0.380695
C84	C	1.532491	0.351779	0.119305
C85	C	1.032533	-0.058599	-0.380713
C86	C	1.532533	0.441401	0.119287
C87	C	0.999398	-0.322073	-0.677887
C88	C	1.499398	0.177927	-0.177887
C89	C	1.002365	-0.325310	-0.751511
C90	C	1.502365	0.174690	-0.251511
C91	C	1.048910	-0.376510	-0.790132
C92	C	1.548910	0.123490	-0.290132
C93	C	1.092486	-0.424482	-0.755124
C94	C	1.592486	0.075518	-0.255124
C95	C	1.089515	-0.421248	-0.681501
C96	C	1.589515	0.078752	-0.181501
C97	C	1.062625	-0.391502	-1.010515
C98	C	1.562625	0.108498	-0.510515
C99	C	1.065595	-0.394731	-1.084143
C100	C	1.565595	0.105269	-0.584143
C101	C	0.975472	-0.295559	-1.080524
C102	C	1.475472	0.204441	-0.580524
C103	C	0.972508	-0.292326	-1.006900
C104	C	1.472508	0.207674	-0.506900
C105	C	1.016081	-0.340301	-0.971899
C106	C	1.516081	0.159699	-0.471899
N107	N	1.051946	-0.379819	-0.865387
N108	N	1.551946	0.120181	-0.365387
N109	N	1.013042	-0.336997	-0.896645
N110	N	1.513042	0.163003	-0.396645
C111	C	1.025045	-0.350435	-0.197496
C112	C	1.525045	0.149565	0.302504
C113	C	1.022021	-0.346764	-0.119145
C114	C	1.522021	0.153236	0.380855
H115	H	0.961499	-0.280375	-0.646447
H116	H	1.461499	0.219625	-0.146447
H117	H	0.633811	-0.286453	-0.446415
H118	H	1.133811	0.213547	0.053585
H119	H	0.966880	-0.286254	-0.780006
H120	H	1.466880	0.213746	-0.280006
C121	C	0.287590	-0.450492	-0.297019
C122	C	0.787590	0.049508	0.202981
C123	C	0.246939	-0.505876	-0.335159
C124	C	0.746939	-0.005876	0.164841
C125	C	0.208238	-0.557129	-0.288639
C126	C	0.708238	-0.057129	0.211361
H127	H	0.257575	-0.419609	-0.265187
H128	H	0.757575	0.080391	0.234813
H129	H	0.318934	-0.478586	-0.271429
H130	H	0.818934	0.021414	0.228571
H131	H	0.215599	-0.477785	-0.360737
H132	H	0.715599	0.022215	0.139263
H133	H	0.276937	-0.536777	-0.366989
H134	H	0.776937	-0.036777	0.133011
H135	H	0.239582	-0.585223	-0.263049
H136	H	0.739582	-0.085223	0.236951
H137	H	0.178227	-0.526239	-0.256809
H138	H	0.678227	-0.026239	0.243191
H139	H	0.180657	-0.594717	-0.314510
H140	H	0.680657	-0.094717	0.185490
H141	H	0.438386	-0.250979	-0.478825
H142	H	0.938386	0.249021	0.021175
C143	C	0.921902	-0.236713	-0.965096
C144	C	1.421902	0.263287	-0.465096
C145	C	0.884364	-0.195411	-1.011508
C146	C	1.384364	0.304589	-0.511508
C147	C	0.837737	-0.144176	-0.973023
C148	C	1.337737	0.355824	-0.473023
H149	H	0.947653	-0.199068	-0.937468
H150	H	1.447653	0.300932	-0.437468
H151	H	0.889973	-0.267627	-0.935140
H152	H	1.389973	0.232373	-0.435140
H153	H	0.916289	-0.164498	-1.041451
H154	H	1.416289	0.335502	-0.541451
H155	H	0.858599	-0.233036	-1.039137
H156	H	1.358599	0.266964	-0.539137
H157	H	0.805808	-0.175090	-0.943067
H158	H	1.305808	0.324910	-0.443067
H159	H	0.863493	-0.106536	-0.945396
H160	H	1.363493	0.393464	-0.445396
H161	H	0.812257	-0.116152	-1.004507
H162	H	1.312257	0.383848	-0.504507
C163	C	0.777913	-0.266804	-0.464534
C164	C	1.277913	0.233196	0.035466
C165	C	0.821983	-0.312649	-0.511359
C166	C	1.321983	0.187351	-0.011359
C167	C	0.860683	-0.261661	-0.558108
C168	C	1.360683	0.238339	-0.058108
H169	H	0.805614	-0.229158	-0.438860
H170	H	1.305614	0.270842	0.061140
H171	H	0.746565	-0.238772	-0.490168
H172	H	1.246565	0.261228	0.009832
H173	H	0.853327	-0.340668	-0.485727
H174	H	1.353327	0.159332	0.014273
H175	H	0.794300	-0.350293	-0.537049
H176	H	1.294300	0.149707	-0.037049
H177	H	0.829335	-0.233629	-0.583742
H178	H	1.329335	0.266371	-0.083742
H179	H	0.888380	-0.224017	-0.532428
H180	H	1.388380	0.275983	-0.032428
H181	H	0.890584	-0.292760	-0.589888
H182	H	1.390584	0.207240	-0.089888
H183	H	0.760685	-0.460168	-0.287892
H184	H	1.260685	0.039832	0.212108
C185	C	0.295196	-0.243917	-0.485231
C186	C	0.795196	0.256083	0.014769
C187	C	0.222445	-0.257695	-0.472647
C188	C	0.722445	0.242305	0.027353
C189	C	0.187331	-0.209844	-0.516244
C190	C	0.687331	0.290156	-0.016244
H191	H	0.309094	-0.257296	-0.533089
H192	H	0.809094	0.242704	-0.033089
H193	H	0.306822	-0.188724	-0.475471
H194	H	0.806822	0.311276	0.024529
H195	H	0.210824	-0.312875	-0.482412
H196	H	0.710824	0.187125	0.017588
H197	H	0.208526	-0.244311	-0.424797
H198	H	0.708526	0.255689	0.075203
H199	H	0.198957	-0.154651	-0.506485
H200	H	0.698957	0.345349	-0.006485
H201	H	0.201234	-0.223227	-0.564100
H202	H	0.701234	0.276773	-0.064100
H203	H	0.137966	-0.219180	-0.507708
H204	H	0.637966	0.280820	-0.007708
H205	H	0.431688	-0.430598	-0.314927
H206	H	0.931688	0.069402	0.185073
H207	H	0.627111	-0.466072	-0.282526
H208	H	1.127111	0.033928	0.217474
C209	C	0.928193	-0.243574	-1.118655
C210	C	1.428193	0.256426	-0.618655
C211	C	0.940741	-0.257377	-1.191396
C212	C	1.440741	0.242623	-0.691396
C213	C	0.897189	-0.209512	-1.226542
C214	C	1.397189	0.290488	-0.726542
H215	H	0.938005	-0.188387	-1.107101
H216	H	1.438005	0.311613	-0.607101
H217	H	0.880320	-0.256942	-1.104714
H218	H	1.380320	0.243058	-0.604714
H219	H	0.988602	-0.244004	-1.205331
H220	H	1.488602	0.255996	-0.705331
H221	H	0.930924	-0.312555	-1.202970
H222	H	1.430924	0.187445	-0.702970
H223	H	0.849316	-0.222880	-1.212601
H224	H	1.349316	0.277120	-0.712601
H225	H	0.907004	-0.154327	-1.214983
H226	H	1.407004	0.345673	-0.714983
H227	H	0.905692	-0.218876	-1.275900
H228	H	1.405692	0.281124	-0.775900
H229	H	1.103501	-0.436425	-1.115586
H230	H	1.603501	0.063575	-0.615586
H231	H	1.098098	-0.430576	-0.982025
H232	H	1.598098	0.069424	-0.482025
H233	H	1.130381	-0.466175	-0.786575
H234	H	1.630381	0.033825	-0.286575
H235	H	1.125003	-0.460301	-0.653003
H236	H	1.625003	0.039699	-0.153003
