data_functionalizedCrystal
_audit_creation_method	'MofGen! by Chris Wilmer'
_symmetry_space_group_name_H-M	'P1'
_symmetry_Int_Tables_number	1
_symmetry_cell_setting	triclinic
loop_
_symmetry_equiv_pos_as_xyz
  x,y,z
_cell_length_a	12.970454
_cell_length_b	23.196402
_cell_length_c	23.196401
_cell_angle_alpha	60.008520
_cell_angle_beta	90.011641
_cell_angle_gamma	59.997866
loop_
_atom_site_label
_atom_site_type_symbol
_atom_site_fract_x
_atom_site_fract_y
_atom_site_fract_z
Zr1	Zr	0.993161	0.631024	-0.075658
O2	O	0.828493	0.751294	-0.167705
O3	O	1.043643	0.510754	-0.047443
O4	O	1.043587	0.631025	-0.167711
O5	O	0.828589	0.631021	0.047435
O6	O	1.213254	0.631026	-0.167714
O7	O	0.828549	0.631023	-0.047437
O8	O	1.213354	0.415882	0.047423
O9	O	0.828490	0.846165	-0.167703
O10	O	1.191790	0.560223	-0.035410
O11	O	1.065200	0.560221	0.035394
O12	O	1.065134	0.701825	-0.106206
O13	O	0.938544	0.701824	-0.035402
Zr14	Zr	1.263824	0.631022	0.075646
Zr15	Zr	1.263759	0.631025	-0.075663
Zr16	Zr	0.993225	0.631021	0.075651
Zr17	Zr	0.993155	0.782332	-0.075655
Zr18	Zr	1.263829	0.479714	0.075643
O19	O	1.213341	0.751292	0.047430
O20	O	1.213249	0.751295	-0.167711
O21	O	0.828585	0.751291	0.047437
O22	O	1.428491	0.510752	0.167692
O23	O	1.428399	0.510755	-0.047450
O24	O	1.043735	0.510751	0.167699
O25	O	1.428395	0.631025	-0.047447
O26	O	1.213397	0.631021	0.167698
O27	O	1.043731	0.631020	0.167701
O28	O	1.428436	0.631023	0.047424
O29	O	1.043579	0.846165	-0.167706
O30	O	1.213405	0.415881	0.167694
O31	O	1.428495	0.415881	0.167690
O32	O	1.428443	0.415883	0.047420
O33	O	0.828541	0.846163	-0.047432
O34	O	1.043631	0.846164	-0.047436
O35	O	1.191850	0.560221	0.106193
O36	O	1.318440	0.560222	0.035390
O37	O	1.191785	0.701825	-0.035407
O38	O	1.065195	0.701823	0.035397
C39	C	1.128499	0.441760	-0.000010
C40	C	1.128502	0.377526	-0.000012
C41	C	1.194573	-0.085316	-0.036953
C42	C	1.194570	-0.024957	-0.036959
C43	C	1.128494	0.005224	-0.000000
C44	C	1.062389	-0.024944	0.036953
C45	C	1.062383	-0.085296	0.036953
C46	C	1.137963	0.067250	0.061905
C47	C	1.137978	0.127597	0.061907
C48	C	1.128503	0.191372	0.000000
C49	C	1.119039	0.194784	-0.061909
C50	C	1.119033	0.134432	-0.061909
C51	C	1.128491	0.070666	0.000004
C52	C	1.194593	0.286984	-0.036962
C53	C	1.194581	0.347348	-0.036970
C54	C	1.062407	0.347355	0.036949
C55	C	1.062411	0.286998	0.036951
C56	C	1.128511	0.256814	-0.000003
C57	C	0.790015	0.631022	-0.000000
C58	C	0.675138	0.631022	0.000002
C59	C	1.466970	0.631024	-0.000012
C60	C	1.581846	0.631024	-0.000014
C61	C	1.128411	0.631026	-0.189271
C62	C	1.128384	0.631027	-0.253505
C63	C	1.128485	0.820286	-0.000002
C64	C	1.128483	0.884520	-0.000001
C65	C	1.062277	0.704940	-0.320633
C66	C	1.062309	0.704941	-0.380989
C67	C	1.128431	0.631025	-0.374212
C68	C	1.194552	0.557102	-0.307071
C69	C	1.194529	0.557103	-0.246718
C70	C	1.119044	0.574395	-0.441530
C71	C	1.119058	0.574397	-0.501883
C72	C	1.128511	0.631019	-0.560359
C73	C	1.137923	0.687652	-0.558481
C74	C	1.137899	0.687653	-0.498128
C75	C	1.128464	0.631016	-0.439650
C76	C	1.062435	0.704938	-0.692934
C77	C	1.062477	0.704936	-0.753289
C78	C	1.194711	0.557095	-0.679370
C79	C	1.194678	0.557099	-0.619017
C80	C	1.128534	0.631023	-0.625804
C81	C	1.128573	0.631020	0.189258
C82	C	1.128601	0.631019	0.253493
C83	C	1.466977	0.441761	-0.000016
C84	C	1.581855	0.377527	-0.000019
C85	C	1.128580	0.441757	0.189254
C86	C	1.128610	0.377522	0.253487
C87	C	1.467058	0.441758	0.189248
C88	C	1.581964	0.377523	0.253480
C89	C	0.789927	0.820288	-0.189261
C90	C	0.675021	0.884523	-0.253492
C91	C	0.790008	0.820285	0.000004
C92	C	0.675129	0.884519	0.000007
C93	C	1.128404	0.820289	-0.189267
C94	C	1.128374	0.884524	-0.253500
C95	C	1.569693	0.347363	-0.036984
C96	C	1.677623	0.287017	-0.037001
C97	C	1.797715	0.256832	-0.000049
C98	C	1.809874	0.287003	0.036916
C99	C	1.701945	0.347352	0.036929
C100	C	1.194734	0.347356	0.320615
C101	C	1.194757	0.287009	0.380975
C102	C	1.128663	0.256825	0.374205
C103	C	1.062531	0.286996	0.307071
C104	C	1.062501	0.347347	0.246713
C105	C	1.702015	0.347359	0.246685
C106	C	1.809992	0.287012	0.307031
C107	C	1.797914	0.256826	0.374172
C108	C	1.677851	0.286997	0.380965
C109	C	1.569877	0.347347	0.320620
C110	C	0.554970	0.914695	-0.246697
C111	C	0.446993	0.975060	-0.307043
C112	C	0.459070	1.005249	-0.374184
C113	C	0.579134	0.975074	-0.380978
C114	C	0.687108	0.914714	-0.320632
C115	C	0.687291	0.914690	0.036965
C116	C	0.579361	0.975052	0.036966
C117	C	0.459270	1.005239	0.000012
C118	C	0.447110	0.975066	-0.036951
C119	C	0.555039	0.914708	-0.036955
C120	C	1.194482	0.914689	-0.246708
C121	C	1.194478	0.975037	-0.307056
C122	C	1.128360	1.005222	-0.374196
C123	C	1.062250	0.975051	-0.380986
C124	C	1.062262	0.914700	-0.320639
H125	H	1.111325	0.137215	-0.112318
H126	H	1.248391	-0.000393	-0.067051
H127	H	1.145614	0.733761	-0.606095
H128	H	1.008586	-0.000365	0.067044
O129	O	0.991381	0.379768	0.174310
H130	H	0.945512	0.348590	0.179751
H131	H	1.008422	0.765134	-0.326166
H132	H	0.784856	0.890148	-0.326173
H133	H	1.248310	0.999596	-0.301514
H134	H	1.008718	0.262411	0.301570
H135	H	0.371140	1.054398	-0.423316
H136	H	1.248411	0.262410	-0.067054
O137	O	1.440176	0.379920	-0.076853
H138	H	1.387844	0.368332	-0.039548
O139	O	1.664841	0.254421	0.453385
H140	H	1.710883	0.265993	0.482655
O141	O	1.440392	0.379863	0.327952
H142	H	1.450148	0.348720	0.384779
O143	O	0.816807	0.882154	0.076815
H144	H	0.827813	0.854670	0.133616
H145	H	1.907667	0.262417	0.067001
H146	H	1.711865	0.371904	0.067034
O147	O	1.715068	0.379909	0.174275
H148	H	1.619827	0.426939	0.133446
O149	O	1.664482	0.254482	-0.076869
H150	H	1.710444	0.266080	-0.117734
O151	O	1.108807	0.263567	-0.128690
H152	H	1.110382	0.304968	-0.118295
O153	O	0.541928	0.882145	-0.174284
H154	H	0.440301	0.913282	-0.179709
O155	O	1.266076	0.477371	-0.672055
H156	H	1.312061	0.425973	-0.615232
H157	H	1.885844	0.207685	0.423303
O158	O	1.265829	0.477388	-0.174303
H159	H	1.227653	0.441935	-0.168166
O160	O	0.342870	1.070337	0.000025
H161	H	0.257312	1.086268	-0.031883
O162	O	0.592154	1.007632	-0.453396
H163	H	0.496896	1.054665	-0.494210
O164	O	1.914122	0.191735	-0.000059
H165	H	1.885476	0.175829	-0.031967
H166	H	0.589286	0.999609	0.067068
O167	O	1.265806	0.882137	-0.174298
H168	H	1.338860	0.815558	-0.145037
O169	O	0.990939	0.882177	-0.327968
H170	H	0.944953	0.913317	-0.384794
O171	O	1.128333	1.070325	-0.439284
H172	H	1.185400	1.086233	-0.423274
H173	H	0.349243	0.999618	-0.301498
O174	O	0.990934	1.007598	-0.453396
H175	H	0.917862	1.074175	-0.482658
H176	H	1.248394	0.371911	-0.067065
H177	H	1.907743	0.262453	0.301487
O178	O	0.317581	1.007627	-0.076808
H179	H	0.244585	1.054660	-0.070585
O180	O	1.266020	0.379910	0.327925
H181	H	1.311986	0.348794	0.384747
O182	O	0.541916	0.882161	-0.076812
H183	H	0.440274	0.913290	-0.102498
H184	H	1.248392	-0.109889	-0.067044
H185	H	1.008577	0.765131	-0.698461
O186	O	1.266115	0.254463	0.453377
H187	H	1.227946	0.305131	0.459510
O188	O	0.991157	0.379885	0.076826
H189	H	1.002276	0.426912	0.070627
O190	O	0.991086	0.254481	0.076783
H191	H	0.945124	0.285613	0.102475
O192	O	1.148182	0.123919	0.128676
H193	H	1.154743	0.069445	0.171720
H194	H	1.248504	0.496911	-0.564357
O195	O	1.128730	0.191718	0.439313
H196	H	1.087405	0.214881	0.471188
O197	O	1.148190	-0.001539	0.128681
H198	H	1.154794	0.006219	0.171731
H199	H	1.008474	0.765131	-0.435654
O200	O	0.991062	-0.117810	0.076796
H201	H	1.029258	-0.145307	0.133600
O202	O	1.148077	0.748718	-0.496090
H203	H	1.154668	0.788088	-0.546886
H204	H	1.111388	0.528286	-0.503408
O205	O	0.991173	0.784660	-0.825698
H206	H	0.945168	0.836059	-0.820273
H207	H	1.248390	0.496919	-0.301557
O208	O	1.108839	0.513325	-0.378460
H209	H	1.102275	0.473956	-0.389910
