data_functionalizedCrystal
_audit_creation_method	'MofGen! by Chris Wilmer'
_symmetry_space_group_name_H-M	'P1'
_symmetry_Int_Tables_number	1
_symmetry_cell_setting	triclinic
loop_
_symmetry_equiv_pos_as_xyz
  x,y,z
_cell_length_a	12.645324
_cell_length_b	14.908571
_cell_length_c	14.908520
_cell_angle_alpha	89.794039
_cell_angle_beta	93.260870
_cell_angle_gamma	93.314873
loop_
_atom_site_label
_atom_site_type_symbol
_atom_site_fract_x
_atom_site_fract_y
_atom_site_fract_z
Zn1	Zn	-0.720691	-1.353990	-0.437330
Zn2	Zn	-0.553015	-1.345201	-0.587713
Zn3	Zn	-0.532673	-1.203618	-0.428692
Zn4	Zn	-0.719466	-1.194917	-0.578954
O5	O	-0.631461	-1.274431	-0.508172
O6	O	-0.707474	-1.478649	-0.464559
O7	O	-0.401970	-1.326382	-0.566668
O8	O	-0.549613	-1.230885	-0.304017
O9	O	-0.584283	-1.472192	-0.575045
O10	O	-0.687749	-1.341362	-0.310363
O11	O	-0.387025	-1.222362	-0.449837
O12	O	-0.548425	-1.076639	-0.441344
O13	O	-0.867975	-1.216056	-0.560117
O14	O	-0.685661	-1.070246	-0.551741
O15	O	-0.868875	-1.332925	-0.456067
O16	O	-0.583095	-1.317946	-0.712372
O17	O	-0.705386	-1.207533	-0.705937
C18	C	-0.614704	-1.040817	-0.494655
C19	C	-0.607561	-0.940875	-0.488895
C20	C	-0.646340	-1.260866	-0.741780
C21	C	-0.652747	-1.255145	-0.841723
C22	C	-0.907965	-1.274500	-0.508079
C23	C	-1.025794	-1.274530	-0.508039
C24	C	-1.071243	-1.348069	-0.442566
C25	C	-1.193836	-1.348357	-0.442765
C26	C	-1.201540	-1.294460	-0.604307
C27	C	-1.078952	-1.294960	-0.603956
C28	C	-1.062595	-1.180896	-0.478015
C29	C	-1.185106	-1.181553	-0.475932
C30	C	-0.356032	-1.274418	-0.508204
C31	C	-0.238200	-1.274578	-0.508000
C32	C	-0.648285	-1.508957	-0.521742
C33	C	-0.655454	-1.608899	-0.527525
C34	C	-0.736873	-0.746455	-0.593204
C35	C	-0.730166	-0.652550	-0.587794
C36	C	-0.587446	-0.659159	-0.472660
C37	C	-0.594153	-0.753064	-0.478070
C38	C	-0.668868	-0.796708	-0.538345
C39	C	-0.675569	-0.890615	-0.543759
C40	C	-0.532855	-0.897222	-0.428622
C41	C	-0.526148	-0.803317	-0.423212
C42	C	-0.537562	-1.359485	-1.036173
C43	C	-0.543578	-1.354113	-1.130078
C44	C	-0.670801	-1.239033	-1.123442
C45	C	-0.664784	-1.244405	-1.029536
C46	C	-0.598161	-1.304633	-0.985905
C47	C	-0.592140	-1.310000	-0.891997
C48	C	-0.719368	-1.194925	-0.885363
C49	C	-0.725384	-1.189553	-0.979268
C50	C	-0.616549	-1.288074	-0.273654
C51	C	-0.610194	-1.293888	-0.173716
H52	H	-1.036168	-1.336483	-0.371137
H53	H	-0.537889	-1.359037	-0.856474
H54	H	-0.725049	-1.190005	-1.158983
N55	N	-0.781290	-1.138890	-0.834029
N56	N	-0.840768	-1.085124	-0.873000
H57	H	-0.884498	-1.045548	-0.836746
N58	N	-1.224547	-1.333589	-0.353406
N59	N	-1.155377	-1.322998	-0.290457
H60	H	-1.177060	-1.312571	-0.227342
N61	N	-1.040180	-1.434755	-0.467801
N62	N	-0.984717	-1.442610	-0.533794
H63	H	-0.962777	-1.503831	-0.551620
H64	H	-0.526623	-0.623608	-0.423582
N65	N	-0.751888	-0.935213	-0.605313
N66	N	-0.757871	-1.019057	-0.610136
H67	H	-0.811775	-1.050554	-0.653608
H68	H	-1.214781	-1.124313	-0.519667
H69	H	-0.483307	-1.408518	-1.000647
N70	N	-0.813180	-0.791027	-0.654786
N71	N	-0.873885	-0.746146	-0.703772
H72	H	-0.927778	-0.777623	-0.747267
H73	H	-0.785544	-0.611637	-0.632464
H74	H	-0.465320	-0.767769	-0.374135
H75	H	-1.025684	-1.161651	-0.408711
H76	H	-0.477478	-0.938149	-0.383953
N77	N	-0.793444	-1.128033	-1.023824
N78	N	-0.891017	-1.134544	-1.013603
H79	H	-0.939085	-1.091092	-1.045067
N80	N	-1.247902	-1.379151	-0.635749
N81	N	-1.189776	-1.440486	-0.655004
H82	H	-1.222515	-1.500304	-0.677205
H83	H	-1.033071	-1.126176	-0.525631
H84	H	-1.229257	-1.417863	-0.463087
N85	N	-1.041599	-1.230289	-0.667616
N86	N	-1.059581	-1.149305	-0.658924
H87	H	-1.033202	-1.103635	-0.703886
N88	N	-0.481673	-1.410152	-1.181413
N89	N	-0.422197	-1.463920	-1.142441
H90	H	-0.378473	-1.503501	-1.178695
H91	H	-1.056665	-1.363233	-0.628719
H92	H	-1.230525	-1.242314	-0.654649
H93	H	-1.208389	-1.166454	-0.405031
