data_functionalizedCrystal
_audit_creation_method	'MofGen! by Chris Wilmer'
_symmetry_space_group_name_H-M	'P1'
_symmetry_Int_Tables_number	1
_symmetry_cell_setting	triclinic
loop_
_symmetry_equiv_pos_as_xyz
  x,y,z
_cell_length_a	16.625548
_cell_length_b	29.839131
_cell_length_c	16.625539
_cell_angle_alpha	90.032094
_cell_angle_beta	90.020568
_cell_angle_gamma	90.042488
loop_
_atom_site_label
_atom_site_type_symbol
_atom_site_fract_x
_atom_site_fract_y
_atom_site_fract_z
Zn1	Zn	1.232574	-0.178840	0.455888
Zn2	Zn	1.232433	-0.253971	0.321046
Zn3	Zn	1.097736	-0.178857	0.321069
Zn4	Zn	1.097662	-0.253945	0.455836
O5	O	1.165101	-0.216403	0.388460
O6	O	1.345388	-0.188810	0.438013
O7	O	1.214537	-0.244025	0.208217
O8	O	1.115713	-0.115987	0.338984
O9	O	1.345284	-0.244008	0.338946
O10	O	1.214778	-0.115975	0.438035
O11	O	1.115576	-0.188839	0.208233
O12	O	0.984894	-0.188814	0.338933
O13	O	1.115586	-0.243964	0.568676
O14	O	0.984839	-0.243981	0.437947
O15	O	1.214706	-0.188785	0.568714
O16	O	1.214465	-0.316834	0.338896
O17	O	1.115449	-0.316815	0.437925
C18	C	0.955610	-0.216397	0.388437
C19	C	0.865989	-0.216405	0.388447
C20	C	0.537814	-0.216408	0.388481
C21	C	0.629122	-0.216406	0.388469
C22	C	0.701899	-0.216406	0.388463
C23	C	0.793213	-0.216404	0.388452
C24	C	1.164956	-0.333126	0.388420
C25	C	1.164967	-0.383060	0.388430
C26	C	1.216752	-0.692701	0.336971
C27	C	1.216852	-0.880374	0.337002
O28	O	1.260766	-0.904636	0.293219
N29	N	1.165268	-0.903845	0.388521
C30	C	1.113660	-0.880395	0.440039
O31	O	1.069793	-0.904665	0.483866
C32	C	1.113565	-0.692723	0.440011
C33	C	1.165146	-0.669254	0.388483
C34	C	1.268330	-0.669232	0.285447
C35	C	1.268302	-0.622316	0.285437
C36	C	1.216695	-0.598870	0.336950
C37	C	1.165118	-0.622339	0.388473
C38	C	1.061962	-0.669274	0.491533
C39	C	1.061944	-0.622353	0.491523
C40	C	1.113525	-0.598884	0.439995
C41	C	1.113483	-0.551977	0.439975
N42	N	1.165067	-0.528505	0.388456
C43	C	1.216673	-0.551952	0.336944
C44	C	1.113712	-0.978926	0.440049
C45	C	1.113735	-1.025844	0.440055
C46	C	1.216928	-1.025819	0.337019
C47	C	1.216901	-0.978900	0.337009
C48	C	1.165296	-0.955455	0.388530
C49	C	1.216609	-0.453426	0.336925
C50	C	1.216573	-0.406506	0.336917
C51	C	1.113383	-0.406535	0.439956
C52	C	1.113416	-0.453451	0.439962
C53	C	1.165035	-0.476895	0.388443
O54	O	1.069599	-0.527685	0.483742
O55	O	1.260546	-0.527674	0.293136
C56	C	1.216781	-0.739616	0.336981
C57	C	1.165203	-0.763085	0.388504
C58	C	1.113597	-0.739639	0.440017
C59	C	1.165226	-0.810003	0.388510
C60	C	1.216832	-0.833449	0.336997
C61	C	1.268416	-0.809978	0.285479
C62	C	1.268387	-0.763062	0.285468
C63	C	1.062014	-0.763110	0.491536
C64	C	1.062046	-0.810026	0.491541
C65	C	1.113652	-0.833472	0.440028
C66	C	1.375410	-0.216410	0.388483
C67	C	1.465031	-0.216413	0.388493
C68	C	1.165154	-0.216370	0.598769
C69	C	1.165176	-0.216355	0.688390
C70	C	1.165269	-0.099225	0.388518
C71	C	1.165341	-0.049290	0.388542
C72	C	1.165095	-0.216404	0.178969
C73	C	1.165229	-0.216292	0.089348
C74	C	1.165213	-0.216305	1.016566
C75	C	1.165201	-0.216320	0.925257
C76	C	1.165195	-0.216330	0.852481
C77	C	1.165182	-0.216345	0.761167
H78	H	1.258577	-0.387399	0.294954
H79	H	1.258644	-0.472509	0.294976
H80	H	1.310358	-0.688317	0.243499
H81	H	1.310306	-0.603210	0.243481
O82	O	1.012021	-0.832800	0.541715
C83	C	0.972795	-0.847093	0.678843
C84	C	1.029500	-0.821284	0.622109
H85	H	0.986895	-0.837785	0.743852
H86	H	0.981676	-0.884660	0.670082
H87	H	0.907785	-0.837917	0.664585
H88	H	1.094531	-0.830422	0.636332
H89	H	1.020549	-0.783723	0.630880
H90	H	1.258948	-1.044917	0.295075
O91	O	1.063219	-0.476270	0.489895
C92	C	0.954416	-0.529323	0.500668
C93	C	1.011195	-0.503506	0.444019
H94	H	0.912352	-0.551356	0.463601
H95	H	0.917467	-0.504523	0.537465
H96	H	0.991442	-0.551228	0.542888
H97	H	0.974232	-0.481600	0.401750
H98	H	1.048147	-0.528330	0.407279
H99	H	1.071725	-1.044948	0.482007
H100	H	1.019991	-0.744024	0.533485
H101	H	1.019922	-0.603266	0.533480
H102	H	1.258903	-0.959794	0.295051
O103	O	1.318573	-0.740337	0.235391
C104	C	1.420894	-0.745282	0.133162
C105	C	1.364109	-0.771070	0.189848
H106	H	1.457712	-0.770118	0.096313
H107	H	1.463081	-0.723292	0.170173
H108	H	1.383880	-0.723341	0.090993
H109	H	1.401057	-0.793035	0.232028
H110	H	1.321920	-0.793032	0.152786
O111	O	1.063497	-0.956224	0.490119
C112	C	0.961172	-0.961212	0.592341
C113	C	1.017991	-0.986975	0.535669
H114	H	0.924377	-0.986064	0.629195
H115	H	0.918965	-0.939297	0.555318
H116	H	0.998158	-0.939197	0.634506
H117	H	0.981069	-1.009014	0.493493
H118	H	1.060199	-1.008862	0.572742
O119	O	1.011832	-0.691995	0.541667
C120	C	0.909458	-0.687048	0.643843
C121	C	0.966204	-0.661262	0.587115
H122	H	0.872541	-0.662211	0.680590
H123	H	0.946426	-0.708962	0.686098
H124	H	0.867355	-0.709064	0.606788
H125	H	1.008318	-0.639221	0.624105
H126	H	0.929186	-0.639375	0.544858
H127	H	1.310433	-0.829076	0.243533
O128	O	1.063333	-0.383685	0.489969
C129	C	1.017546	-0.311411	0.535582
C130	C	1.074276	-0.337234	0.478910
H131	H	1.026362	-0.273850	0.526648
H132	H	1.031680	-0.320568	0.600630
H133	H	0.952548	-0.320702	0.521382
H134	H	1.139293	-0.327956	0.493037
H135	H	1.060073	-0.328074	0.413878
