data_functionalizedCrystal
_audit_creation_method	'MofGen! by Chris Wilmer'
_symmetry_space_group_name_H-M	'P1'
_symmetry_Int_Tables_number	1
_symmetry_cell_setting	triclinic
loop_
_symmetry_equiv_pos_as_xyz
  x,y,z
_cell_length_a	16.959454
_cell_length_b	14.908780
_cell_length_c	16.959434
_cell_angle_alpha	93.358688
_cell_angle_beta	89.913905
_cell_angle_gamma	86.690567
loop_
_atom_site_label
_atom_site_type_symbol
_atom_site_fract_x
_atom_site_fract_y
_atom_site_fract_z
Zn1	Zn	-0.244505	-1.379677	-0.516836
Zn2	Zn	-0.376845	-1.379469	-0.384654
Zn3	Zn	-0.252301	-1.228694	-0.377023
Zn4	Zn	-0.384269	-1.228773	-0.509158
O5	O	-0.314480	-1.304153	-0.446918
O6	O	-0.255691	-1.505903	-0.505708
O7	O	-0.360480	-1.359349	-0.273025
O8	O	-0.140654	-1.248776	-0.395588
O9	O	-0.352920	-1.505750	-0.408596
O10	O	-0.134926	-1.359703	-0.498308
O11	O	-0.268978	-1.248575	-0.267418
O12	O	-0.276177	-1.102451	-0.388144
O13	O	-0.365573	-1.248911	-0.620793
O14	O	-0.373133	-1.102509	-0.485223
O15	O	-0.262889	-1.359779	-0.626434
O16	O	-0.488444	-1.359425	-0.401151
O17	O	-0.493898	-1.248709	-0.492623
C18	C	-0.326307	-1.069744	-0.435022
C19	C	-0.331385	-0.969463	-0.429952
C20	C	-0.239821	-0.781180	-0.521703
C21	C	-0.244590	-0.686957	-0.516942
C22	C	-0.345688	-0.686791	-0.415665
C23	C	-0.340919	-0.781015	-0.420426
C24	C	-0.287985	-0.828206	-0.473448
C25	C	-0.283220	-0.922431	-0.478213
C26	C	-0.384313	-0.922263	-0.376932
C27	C	-0.389082	-0.828040	-0.372171
C28	C	-0.519850	-1.304078	-0.446900
C29	C	-0.607704	-1.304128	-0.446924
C30	C	-0.982044	-1.246587	-0.494546
C31	C	-0.976300	-1.361971	-0.399382
C32	C	-0.893756	-1.361939	-0.399374
C33	C	-0.855352	-1.304230	-0.446951
C34	C	-0.899493	-1.246552	-0.494537
C35	C	-0.849609	-1.419610	-0.351783
C36	C	-0.767060	-1.419580	-0.351771
C37	C	-0.728655	-1.361874	-0.399353
C38	C	-0.772800	-1.304195	-0.446942
C39	C	-0.734397	-1.246485	-0.494519
C40	C	-0.778541	-1.188810	-0.542112
C41	C	-0.861087	-1.188847	-0.542119
C42	C	-0.646108	-1.361837	-0.399346
C43	C	-0.651845	-1.246450	-0.494510
C44	C	-0.108307	-1.304254	-0.446953
C45	C	-0.020448	-1.304297	-0.446969
C46	C	-0.314190	-1.304377	-0.653098
C47	C	-0.314066	-1.304472	-0.740959
C48	C	-0.302601	-0.539478	-0.458854
C49	C	-0.297522	-0.639759	-0.463926
C50	C	-0.314710	-1.303983	-0.241542
C51	C	-0.314602	-1.304063	-0.153690
C52	C	-0.367927	-1.247126	0.220908
C53	C	-0.260312	-1.361734	0.214625
C54	C	-0.260420	-1.361654	0.132083
C55	C	-0.314280	-1.304309	0.093950
C56	C	-0.368034	-1.247043	0.138359
C57	C	-0.206662	-1.418912	0.087668
C58	C	-0.206766	-1.418834	0.005122
C59	C	-0.260631	-1.361493	-0.033013
C60	C	-0.314388	-1.304226	0.011401
C61	C	-0.368249	-1.246880	-0.026732
C62	C	-0.422009	-1.189617	0.017680
C63	C	-0.421900	-1.189702	0.100224
C64	C	-0.260741	-1.361408	-0.115557
C65	C	-0.368356	-1.246797	-0.109281
H66	H	-0.388775	-0.648352	-0.372489
H67	H	-0.432177	-0.789604	-0.329000
Br68	Br	-0.441463	-1.168974	-0.161027
Br69	Br	-0.187189	-1.439519	0.266379
H70	H	-0.465859	-1.142921	-0.013378
Br71	Br	-0.133522	-1.496675	0.139426
Br72	Br	-0.449690	-0.986088	-0.311447
H73	H	-0.620582	-1.199459	-0.533256
H74	H	-0.747263	-1.141818	-0.580846
Br75	Br	-0.167995	-0.845230	-0.593668
H76	H	-0.162992	-1.465463	-0.031032
Br77	Br	-0.187766	-1.439091	-0.175826
H78	H	-0.465668	-1.143080	0.136391
H79	H	-0.897037	-1.141889	-0.580866
H80	H	-0.205369	-0.648673	-0.556234
H81	H	-0.240119	-0.960853	-0.521386
H82	H	-1.007574	-1.408950	-0.360642
Br83	Br	-1.041949	-1.168324	-0.559140
Br84	Br	-0.901731	-1.497929	-0.287221
H85	H	-0.731123	-1.466543	-0.313019
Br86	Br	-0.586202	-1.440092	-0.334749
Br87	Br	-0.440888	-1.169419	0.281177
