data_functionalizedCrystal
_audit_creation_method	'MofGen! by Chris Wilmer'
_symmetry_space_group_name_H-M	'P1'
_symmetry_Int_Tables_number	1
_symmetry_cell_setting	triclinic
loop_
_symmetry_equiv_pos_as_xyz
  x,y,z
_cell_length_a	11.792254
_cell_length_b	16.109302
_cell_length_c	14.586319
_cell_angle_alpha	89.994552
_cell_angle_beta	89.999358
_cell_angle_gamma	96.169811
loop_
_atom_site_label
_atom_site_type_symbol
_atom_site_fract_x
_atom_site_fract_y
_atom_site_fract_z
O1	O	-0.145888	1.103822	-0.076272
O2	O	0.187445	1.437155	0.257061
O3	O	0.520778	1.770489	0.590394
O4	O	-0.164043	0.861846	-0.076264
O5	O	0.169291	1.195179	0.257069
O6	O	0.502624	1.528513	0.590403
O7	O	0.010256	0.988701	-0.076273
O8	O	0.343589	1.322034	0.257061
O9	O	0.676922	1.655367	0.590394
O10	O	-0.320186	0.976967	-0.076264
O11	O	0.013147	1.310301	0.257069
O12	O	0.346480	1.643634	0.590403
O13	O	0.010258	0.988692	0.076208
O14	O	0.343591	1.322025	0.409541
O15	O	0.676925	1.655358	0.742875
O16	O	-0.164040	0.861837	0.076217
O17	O	0.169293	1.195170	0.409550
O18	O	0.502627	1.528504	0.742883
O19	O	-0.145886	1.103813	0.076208
O20	O	0.187448	1.437146	0.409542
O21	O	0.520781	1.770480	0.742875
Cu22	Cu	-0.154963	0.982824	0.090135
Cu23	Cu	0.178371	1.316158	0.423469
Cu24	Cu	0.511704	1.649491	0.756802
Cu25	Cu	-0.154966	0.982835	-0.090191
Cu26	Cu	0.178368	1.316168	0.243142
Cu27	Cu	0.511701	1.649501	0.576476
O28	O	-0.320184	0.976958	0.076217
O29	O	0.013149	1.310292	0.409550
O30	O	0.346483	1.643625	0.742884
C31	C	-0.163306	0.830863	-0.000023
C32	C	0.170028	1.164197	0.333311
C33	C	0.503361	1.497530	0.666644
C34	C	-0.161101	0.738557	-0.000020
C35	C	0.172233	1.071891	0.333313
C36	C	0.505566	1.405224	0.666647
C37	C	-0.156000	0.526188	0.083088
C38	C	0.177333	0.859521	0.416421
C39	C	0.510666	1.192854	0.749755
C40	C	-0.153916	0.439458	0.083085
C41	C	0.179417	0.772791	0.416418
C42	C	0.512751	1.106124	0.749751
C43	C	-0.153925	0.439478	-0.083158
C44	C	0.179409	0.772811	0.250175
C45	C	0.512742	1.106144	0.583508
C46	C	-0.156001	0.526207	-0.083154
C47	C	0.177333	0.859540	0.250179
C48	C	0.510666	1.192874	0.583513
C49	C	-0.157044	0.569559	-0.000028
C50	C	0.176289	0.902892	0.333305
C51	C	0.509622	1.236226	0.666638
C52	C	-0.152884	0.396100	-0.000036
C53	C	0.180449	0.729433	0.333298
C54	C	0.513783	1.062767	0.666631
C55	C	-0.150624	0.302064	-0.000040
C56	C	0.182709	0.635397	0.333294
C57	C	0.516042	0.968730	0.666627
C58	C	-0.159302	0.663602	-0.000024
C59	C	0.174031	0.996935	0.333310
C60	C	0.507365	1.330268	0.666643
C61	C	-0.362469	0.977702	-0.000022
C62	C	-0.029136	1.311035	0.333311
C63	C	0.304197	1.644369	0.666644
C64	C	-0.488463	0.979914	-0.000020
C65	C	-0.155130	1.313248	0.333314
C66	C	0.178204	1.646581	0.666647
C67	C	-0.590784	0.981712	-0.000025
C68	C	-0.257451	1.315045	0.333309
C69	C	0.075883	1.648378	0.666642
C70	C	-0.719151	0.983959	-0.000035
C71	C	-0.385817	1.317293	0.333298
C72	C	-0.052484	1.650626	0.666631
C73	C	0.052541	0.987957	-0.000035
C74	C	0.385874	1.321290	0.333298
C75	C	0.719208	1.654624	0.666631
C76	C	0.178535	0.985745	-0.000044
C77	C	0.511868	1.319078	0.333289
C78	C	0.845201	1.652411	0.666622
C79	C	-0.146623	1.134796	-0.000035
C80	C	0.186711	1.468129	0.333298
C81	C	0.520044	1.801462	0.666632
C82	C	-0.148828	1.227102	-0.000044
C83	C	0.184506	1.560435	0.333290
C84	C	0.517839	1.893768	0.666623
N85	N	-0.154960	0.982823	0.216967
N86	N	0.178374	1.316156	0.550300
N87	N	0.511707	1.649490	0.883634
N88	N	-0.154960	0.982843	-0.217023
N89	N	0.178374	1.316176	0.116311
N90	N	0.511707	1.649509	0.449644
C91	C	-0.077806	1.039013	0.451970
C92	C	0.255527	1.372346	0.785303
C93	C	0.588860	1.705680	1.118636
C94	C	-0.077804	1.039015	0.547951
C95	C	0.255530	1.372349	0.881284
C96	C	0.588863	1.705682	1.214618
C97	C	-0.232117	0.926647	0.547968
C98	C	0.101217	1.259980	0.881301
C99	C	0.434550	1.593313	1.214635
C100	C	-0.232113	0.926641	0.451988
C101	C	0.101220	1.259974	0.785322
C102	C	0.434554	1.593308	1.118655
C103	C	-0.154959	0.982829	0.403992
C104	C	0.178374	1.316162	0.737325
C105	C	0.511707	1.649495	1.070658
C106	C	-0.154960	0.982837	0.595953
C107	C	0.178373	1.316170	0.929286
C108	C	0.511707	1.649503	1.262619
C109	C	-0.154958	0.982839	0.700020
C110	C	0.178376	1.316172	1.033353
C111	C	0.511709	1.649506	1.366686
C112	C	-0.154960	0.982826	0.299918
C113	C	0.178373	1.316159	0.633251
C114	C	0.511707	1.649492	0.966585
H115	H	-0.156850	0.561482	0.150774
H116	H	0.176483	0.894816	0.484108
H117	H	0.509817	1.228149	0.817441
Cl118	Cl	0.019195	1.109648	0.608263
Cl119	Cl	0.352528	1.442981	0.941597
Cl120	Cl	0.685861	1.776315	1.274930
Cl121	Cl	-0.329110	0.856017	0.608311
Cl122	Cl	0.004223	1.189350	0.941644
Cl123	Cl	0.337557	1.522684	1.274977
Cl124	Cl	-0.152585	0.384975	-0.187653
Cl125	Cl	0.180748	0.718308	0.145680
Cl126	Cl	0.514081	1.051641	0.479013
Cl127	Cl	-0.329107	0.856000	0.391667
Cl128	Cl	0.004226	1.189333	0.725001
Cl129	Cl	0.337559	1.522667	1.058334
H130	H	-0.014982	1.084763	0.412893
H131	H	0.318352	1.418097	0.746226
H132	H	0.651685	1.751430	1.079560
Cl133	Cl	-0.152606	0.384937	0.187579
Cl134	Cl	0.180728	0.718270	0.520912
Cl135	Cl	0.514061	1.051604	0.854245
Cl136	Cl	-0.157304	0.580736	-0.187652
Cl137	Cl	0.176029	0.914069	0.145682
Cl138	Cl	0.509362	1.247403	0.479015
