data_functionalizedCrystal
_audit_creation_method	'MofGen! by Chris Wilmer'
_symmetry_space_group_name_H-M	'P1'
_symmetry_Int_Tables_number	1
_symmetry_cell_setting	triclinic
loop_
_symmetry_equiv_pos_as_xyz
  x,y,z
_cell_length_a	18.101398
_cell_length_b	18.050589
_cell_length_c	18.050583
_cell_angle_alpha	89.972110
_cell_angle_beta	90.023549
_cell_angle_gamma	89.970035
loop_
_atom_site_label
_atom_site_type_symbol
_atom_site_fract_x
_atom_site_fract_y
_atom_site_fract_z
Zn1	Zn	1.132097	0.295728	0.420041
Zn2	Zn	1.131987	0.419933	0.295861
Zn3	Zn	1.008257	0.295751	0.295854
Zn4	Zn	1.008199	0.419870	0.419998
O5	O	1.070135	0.357820	0.357939
O6	O	1.235715	0.312220	0.403590
O7	O	1.115552	0.403495	0.191936
O8	O	1.024756	0.191823	0.312343
O9	O	1.235634	0.403473	0.312355
O10	O	1.115740	0.191806	0.403583
O11	O	1.024649	0.312259	0.191930
O12	O	0.904617	0.312199	0.312301
O13	O	1.024656	0.403367	0.523929
O14	O	0.904574	0.403389	0.403509
O15	O	1.115683	0.312160	0.523960
O16	O	1.115495	0.523849	0.312313
O17	O	1.024549	0.523803	0.403516
C18	C	0.877724	0.357790	0.357900
C19	C	0.795410	0.357795	0.357901
C20	C	0.496319	0.357842	0.357963
C21	C	0.527647	0.300180	0.300858
C22	C	0.613265	0.300335	0.300614
C23	C	0.644702	0.357818	0.357932
C24	C	0.613579	0.436051	0.336554
C25	C	0.527934	0.435730	0.336157
C26	C	0.527934	0.337950	0.436582
C27	C	0.613585	0.336208	0.436153
C28	C	0.728561	0.357809	0.357916
C29	C	0.412460	0.357855	0.357978
C30	C	1.070024	0.550773	0.357927
C31	C	1.070044	0.633318	0.357947
C32	C	1.020613	0.832771	0.407526
C33	C	1.002557	0.882215	0.339758
C34	C	1.070100	0.784449	0.357957
C35	C	1.088176	0.882086	0.425734
C36	C	1.070152	0.930434	0.357973
C37	C	1.052008	0.832806	0.290152
C38	C	1.137658	0.832672	0.376175
C39	C	1.119627	0.882094	0.308359
C40	C	1.070068	0.700350	0.357949
C41	C	1.070184	1.014530	0.357973
C42	C	1.263297	0.357851	0.357978
C43	C	1.345611	0.357864	0.357995
C44	C	1.070175	0.357754	0.551644
C45	C	1.070192	0.357726	0.634190
C46	C	1.070238	1.164115	0.357968
C47	C	1.070210	1.081569	0.357982
C48	C	1.070138	0.357833	0.164987
C49	C	1.070264	0.357652	0.082441
C50	C	1.119739	0.308077	0.883033
C51	C	1.137802	0.375842	0.833626
C52	C	1.070240	0.357679	0.931311
C53	C	1.052188	0.289941	0.833636
C54	C	1.070218	0.357698	0.785326
C55	C	1.088338	0.425479	0.882991
C56	C	1.002693	0.339532	0.883005
C57	C	1.020730	0.407344	0.833620
C58	C	1.070254	0.357666	1.015409
C59	C	1.070204	0.357718	0.701229
H60	H	0.633719	0.313485	0.242358
H61	H	1.103680	0.482784	0.904580
C62	C	1.031436	0.804172	0.213705
C63	C	0.960946	0.829901	0.194700
C64	C	0.941972	0.803546	0.124281
H65	H	1.031459	0.751549	0.214084
H66	H	1.066356	0.821477	0.178443
H67	H	0.926034	0.812592	0.229953
H68	H	0.960904	0.882520	0.194304
H69	H	0.976893	0.820851	0.089019
H70	H	0.941999	0.750924	0.124667
H71	H	0.894146	0.821005	0.111374
C72	C	1.175565	0.910698	0.252469
C73	C	1.245976	0.884474	0.271087
C74	C	1.297518	0.910803	0.219612
H75	H	1.175661	0.963318	0.253024
H76	H	1.162672	0.893712	0.204365
H77	H	1.258865	0.901463	0.319179
H78	H	1.245904	0.831856	0.270527
H79	H	1.284626	0.893818	0.171507
H80	H	1.297608	0.963423	0.220171
H81	H	1.345297	0.893009	0.232233
H82	H	0.945595	0.324150	0.904713
C83	C	1.108589	0.910806	0.502193
C84	C	1.120606	0.850839	0.549936
C85	C	1.139415	0.877264	0.620374
H86	H	1.069475	0.940509	0.520862
H87	H	1.152324	0.939697	0.498919
H88	H	1.076877	0.821961	0.553212
H89	H	1.159723	0.821130	0.531292
H90	H	1.183149	0.906155	0.617100
H91	H	1.100298	0.906967	0.639035
H92	H	1.147577	0.836581	0.652775
H93	H	1.194916	0.391203	0.811934
C94	C	1.213745	0.803485	0.396689
C95	C	1.212859	0.725930	0.395721
C96	C	1.282940	0.699016	0.414613
H97	H	1.226577	0.820246	0.444878
H98	H	1.249056	0.821066	0.361958
H99	H	1.177560	0.708356	0.430451
H100	H	1.200041	0.709148	0.347538
H101	H	1.318250	0.716598	0.379882
H102	H	1.295765	0.715783	0.462802
H103	H	1.282350	0.646393	0.413952
H104	H	0.945450	0.903993	0.324363
C105	C	1.175723	0.252304	0.911929
C106	C	1.246333	0.271664	0.886923
C107	C	1.297925	0.220313	0.913536
H108	H	1.163477	0.204270	0.894322
H109	H	1.175076	0.252381	0.964558
H110	H	1.246978	0.271579	0.834305
H111	H	1.258602	0.319689	0.904527
H112	H	1.297279	0.220390	0.966164
H113	H	1.285673	0.172283	0.895927
H114	H	1.345841	0.233446	0.896578
C115	C	0.965000	0.463464	0.804906
C116	C	0.984232	0.534248	0.830034
C117	C	0.932921	0.585967	0.803587
H118	H	0.917139	0.451077	0.822544
H119	H	0.965020	0.462927	0.752276
H120	H	0.984205	0.534784	0.882653
H121	H	1.032085	0.546659	0.812398
H122	H	0.932941	0.585430	0.750957
H123	H	0.885063	0.573573	0.821227
H124	H	0.945966	0.634001	0.820627
H125	H	0.506098	0.313182	0.242941
C126	C	1.031936	0.213483	0.804831
C127	C	1.083945	0.161774	0.829885
C128	C	1.065314	0.091332	0.803376
H129	H	1.031645	0.214048	0.752210
H130	H	0.984310	0.200205	0.822487
H131	H	1.131559	0.175049	0.812226
H132	H	1.084244	0.161186	0.882503
H133	H	1.017688	0.078054	0.821032
H134	H	1.065023	0.091904	0.750756
H135	H	1.100595	0.056238	0.820377
C136	C	0.641186	0.222915	0.318416
C137	C	0.580941	0.175579	0.329501
C138	C	0.606629	0.104245	0.345874
H139	H	0.670456	0.224398	0.362079
H140	H	0.670200	0.205148	0.278330
H141	H	0.551939	0.193341	0.369583
H142	H	0.551665	0.174073	0.285846
H143	H	0.635643	0.086478	0.305788
H144	H	0.635899	0.105736	0.389536
H145	H	0.565757	0.072117	0.353391
H146	H	0.507080	0.241991	0.314110
C147	C	0.501390	0.458195	0.259465
C148	C	0.562466	0.471933	0.213924
C149	C	0.538047	0.492618	0.143266
H150	H	0.472165	0.501767	0.263057
H151	H	0.472628	0.419324	0.238828
H152	H	0.591216	0.510801	0.234556
H153	H	0.591697	0.428371	0.210310
H154	H	0.509284	0.453747	0.122629
H155	H	0.508822	0.536189	0.146866
H156	H	0.579482	0.501936	0.112356
H157	H	0.633940	0.480164	0.376846
C158	C	0.500438	0.495014	0.389205
C159	C	0.560942	0.530962	0.421472
C160	C	0.535645	0.585582	0.470335
H161	H	0.471326	0.472689	0.426859
H162	H	0.471355	0.530016	0.362802
H163	H	0.590013	0.495965	0.447875
H164	H	0.590060	0.553302	0.383836
H165	H	0.506562	0.620584	0.443932
H166	H	0.506533	0.563251	0.507985
H167	H	0.576693	0.609984	0.492229
C168	C	0.499127	0.263177	0.462358
C169	C	0.452418	0.233573	0.408087
C170	C	0.425874	0.164686	0.431793
H171	H	0.472424	0.269201	0.507244
H172	H	0.539514	0.230497	0.470353
H173	H	0.412038	0.266245	0.400101
H174	H	0.479104	0.227530	0.363197
H175	H	0.466261	0.132007	0.439788
H176	H	0.399175	0.170718	0.476680
H177	H	0.394185	0.144589	0.394971
H178	H	0.634994	0.453212	0.279701
C179	C	0.640596	0.259434	0.457765
C180	C	0.612468	0.240804	0.527572
C181	C	0.637326	0.170079	0.547496
H182	H	0.693044	0.259164	0.459487
H183	H	0.624076	0.224360	0.422208
H184	H	0.628992	0.275868	0.563120
H185	H	0.560023	0.241057	0.525869
H186	H	0.620806	0.135006	0.511939
H187	H	0.689774	0.169816	0.549214
H188	H	0.618240	0.157427	0.594859
H189	H	0.507674	0.379948	0.479131
C190	C	0.642264	0.388115	0.495868
C191	C	0.719490	0.384355	0.498215
C192	C	0.745935	0.432176	0.553204
H193	H	0.622673	0.373821	0.542543
H194	H	0.627418	0.437405	0.484894
H195	H	0.734329	0.335075	0.509193
H196	H	0.739101	0.398656	0.451553
H197	H	0.731089	0.481467	0.542230
H198	H	0.726338	0.417877	0.599875
H199	H	0.798335	0.429636	0.554799
C200	C	0.964627	0.803927	0.463244
C201	C	0.894020	0.829019	0.443827
C202	C	0.842426	0.802453	0.495127
H203	H	0.976879	0.821508	0.511292
H204	H	0.965263	0.751297	0.463155
H205	H	0.893387	0.881637	0.443924
H206	H	0.881745	0.811440	0.395787
H207	H	0.843061	0.749824	0.495038
H208	H	0.854685	0.820036	0.543172
H209	H	0.794513	0.819469	0.481956
