data_functionalizedCrystal
_audit_creation_method	'MofGen! by Chris Wilmer'
_symmetry_space_group_name_H-M	'P1'
_symmetry_Int_Tables_number	1
_symmetry_cell_setting	triclinic
loop_
_symmetry_equiv_pos_as_xyz
  x,y,z
_cell_length_a	21.395362
_cell_length_b	12.759400
_cell_length_c	21.395356
_cell_angle_alpha	89.977601
_cell_angle_beta	89.964122
_cell_angle_gamma	90.029045
loop_
_atom_site_label
_atom_site_type_symbol
_atom_site_fract_x
_atom_site_fract_y
_atom_site_fract_z
Zn1	Zn	0.957886	-0.417842	-0.354611
Zn2	Zn	0.957835	-0.593537	-0.249844
Zn3	Zn	0.853116	-0.417921	-0.249812
Zn4	Zn	0.853102	-0.593529	-0.354549
O5	O	0.905485	-0.505707	-0.302204
O6	O	1.045557	-0.441119	-0.340753
O7	O	0.943928	-0.570277	-0.162162
O8	O	0.867041	-0.270889	-0.263727
O9	O	1.045520	-0.570201	-0.263781
O10	O	0.944015	-0.270832	-0.340722
O11	O	0.866991	-0.441253	-0.162138
O12	O	0.765436	-0.441245	-0.263666
O13	O	0.867018	-0.570187	-0.442235
O14	O	0.765426	-0.570263	-0.340616
O15	O	0.944002	-0.441111	-0.442280
O16	O	0.943915	-0.740557	-0.263721
O17	O	0.866968	-0.740551	-0.340647
C18	C	0.742697	-0.505763	-0.302131
C19	C	0.673056	-0.505812	-0.302115
C20	C	0.640354	-0.573081	-0.342123
C21	C	0.574919	-0.573055	-0.342150
C22	C	0.542188	-0.505771	-0.302160
C23	C	0.574897	-0.438489	-0.262149
C24	C	0.640331	-0.438510	-0.262127
C25	C	0.438469	-0.497323	-0.245754
C26	C	0.373036	-0.497311	-0.245775
C27	C	0.340367	-0.505703	-0.302229
C28	C	0.373138	-0.514130	-0.358663
C29	C	0.438573	-0.514150	-0.358641
C30	C	0.471235	-0.505741	-0.302180
C31	C	0.236712	-0.572947	-0.342270
C32	C	0.171276	-0.572914	-0.342299
C33	C	0.171256	-0.438354	-0.262292
C34	C	0.236691	-0.438382	-0.262269
C35	C	0.269416	-0.505684	-0.302257
C36	C	0.905452	-0.778674	-0.302194
C37	C	0.905495	-0.895451	-0.302211
C38	C	0.945556	-0.950203	-0.342335
C39	C	0.945585	-1.059927	-0.342350
C40	C	0.865491	-1.060137	-0.262112
C41	C	0.865459	-0.950415	-0.262100
C42	C	0.985591	-0.895239	-0.382446
C43	C	1.025656	-0.949992	-0.422573
C44	C	1.025685	-1.059716	-0.422588
C45	C	0.985650	-1.114687	-0.382476
C46	C	1.068908	-0.505652	-0.302277
C47	C	1.138549	-0.505629	-0.302308
C48	C	0.905514	-0.505640	-0.465627
C49	C	0.905526	-0.505611	-0.535268
C50	C	0.905535	-0.231674	-0.302228
C51	C	0.905556	-0.114897	-0.302238
C52	C	0.945671	-0.438234	-1.037090
C53	C	0.945666	-0.438259	-0.971654
C54	C	0.905580	-0.505471	-0.938907
C55	C	0.865507	-0.572682	-0.971601
C56	C	0.865518	-0.572662	-1.037035
C57	C	0.849112	-0.513817	-0.835212
C58	C	0.849101	-0.513830	-0.769779
C59	C	0.905548	-0.505538	-0.737086
C60	C	0.962008	-0.497212	-0.769834
C61	C	0.962019	-0.497192	-0.835268
C62	C	0.905564	-0.505500	-0.867955
C63	C	0.945616	-0.438364	-0.633448
C64	C	0.945612	-0.438397	-0.568011
C65	C	0.865448	-0.572814	-0.567959
C66	C	0.865457	-0.572787	-0.633394
C67	C	0.905540	-0.505556	-0.666135
C68	C	0.905492	-0.505699	-0.139416
C69	C	0.905601	-0.505431	-0.069775
H70	H	0.346540	-0.520962	-0.404633
Br71	Br	0.482800	-0.485934	-0.169131
H72	H	0.144607	-0.383566	-0.229734
Br73	Br	0.985794	-1.263600	-0.382394
H74	H	0.803143	-0.520571	-0.861826
Br75	Br	0.811108	-0.663905	-0.927160
H76	H	1.058302	-1.104292	-0.455266
Br77	Br	0.811092	-0.876101	-0.207644
Br78	Br	0.811161	-1.134741	-0.207678
Br79	Br	0.999999	-0.347103	-0.677885
H80	H	0.978312	-0.383494	-1.063743
H81	H	0.144651	-0.627690	-0.374882
H82	H	0.978295	-0.383535	-0.945036
Br83	Br	1.038639	-0.485907	-0.879710
H84	H	0.985573	-0.805896	-0.382436
Br85	Br	0.811134	-0.663868	-1.081397
Br86	Br	0.811053	-0.664048	-0.523523
Br87	Br	0.530527	-0.664353	-0.396452
H88	H	0.263317	-0.383609	-0.229687
H89	H	0.465253	-0.521009	-0.404591
H90	H	0.978246	-0.383679	-0.541400
H91	H	0.263358	-0.627743	-0.374834
Br92	Br	0.811074	-0.663989	-0.677757
Br93	Br	0.328567	-0.485876	-0.169187
H94	H	0.548243	-0.383705	-0.229589
Br95	Br	0.684716	-0.347207	-0.207828
H96	H	0.666994	-0.627882	-0.374685
Br97	Br	0.772477	-0.525114	-0.725343
H98	H	1.058247	-0.905228	-0.455234
H99	H	1.007972	-0.490456	-0.743217
