data_functionalizedCrystal
_audit_creation_method	'MofGen! by Chris Wilmer'
_symmetry_space_group_name_H-M	'P1'
_symmetry_Int_Tables_number	1
_symmetry_cell_setting	triclinic
loop_
_symmetry_equiv_pos_as_xyz
  x,y,z
_cell_length_a	27.440280
_cell_length_b	21.606444
_cell_length_c	21.606444
_cell_angle_alpha	60.001331
_cell_angle_beta	90.005730
_cell_angle_gamma	59.997380
loop_
_atom_site_label
_atom_site_type_symbol
_atom_site_fract_x
_atom_site_fract_y
_atom_site_fract_z
Zr1	Zr	0.469493	0.677381	-0.081123
O2	O	0.391669	0.806515	-0.179959
O3	O	0.493351	0.548258	-0.050828
O4	O	0.493344	0.677381	-0.179946
O5	O	0.391679	0.677387	0.051014
O6	O	0.573547	0.677369	-0.179933
O7	O	0.391675	0.677391	-0.050841
O8	O	0.573558	0.446390	0.051036
O9	O	0.391668	0.908366	-0.179956
O10	O	0.563379	0.601355	-0.037894
O11	O	0.503528	0.601360	0.038109
O12	O	0.503521	0.753387	-0.113911
O13	O	0.443669	0.753393	-0.037909
Zr14	Zr	0.597413	0.677355	0.081343
Zr15	Zr	0.597407	0.677362	-0.081102
Zr16	Zr	0.469499	0.677374	0.081322
Zr17	Zr	0.469491	0.839821	-0.081118
Zr18	Zr	0.597415	0.514914	0.081338
O19	O	0.573555	0.806478	0.051048
O20	O	0.573546	0.806488	-0.179929
O21	O	0.391678	0.806505	0.051018
O22	O	0.675238	0.548220	0.180179
O23	O	0.675228	0.548230	-0.050798
O24	O	0.493360	0.548248	0.180149
O25	O	0.675227	0.677349	-0.050794
O26	O	0.573562	0.677354	0.180166
O27	O	0.493359	0.677366	0.180153
O28	O	0.675231	0.677344	0.051060
O29	O	0.493343	0.908351	-0.179939
O30	O	0.573564	0.446385	0.180159
O31	O	0.675238	0.446370	0.180175
O32	O	0.675233	0.446375	0.051053
O33	O	0.391673	0.908360	-0.050833
O34	O	0.493348	0.908345	-0.050816
O35	O	0.563386	0.601348	0.114131
O36	O	0.623237	0.601342	0.038128
O37	O	0.563378	0.753375	-0.037889
O38	O	0.503527	0.753381	0.038114
C39	C	0.533455	0.474180	0.000103
C40	C	0.533455	0.405219	0.000101
C41	C	0.564696	0.372819	-0.039573
C42	C	0.564698	0.308019	-0.039568
C43	C	0.533456	0.275625	0.000107
C44	C	0.502214	0.308028	0.039786
C45	C	0.502216	0.372823	0.039785
C46	C	0.502207	0.046719	0.039792
C47	C	0.502206	-0.018078	0.039788
C48	C	0.564689	-0.018085	-0.039560
C49	C	0.564691	0.046710	-0.039561
C50	C	0.533452	0.079104	0.000120
C51	C	0.533451	0.149366	0.000115
C52	C	0.533453	0.205368	0.000108
C53	C	0.373452	0.677392	0.000084
C54	C	0.319149	0.677400	0.000075
C55	C	0.053209	0.756742	-0.039570
C56	C	0.104228	0.756746	-0.039575
O57	O	0.104042	0.824238	-0.073301
N58	N	0.160990	0.677388	0.000100
C59	C	0.166733	0.598019	0.039788
O60	O	0.219699	0.530519	0.073535
C61	C	0.115715	0.598015	0.039797
C62	C	0.058954	0.677379	0.000113
C63	C	-0.003550	0.836099	-0.079250
C64	C	-0.054565	0.836094	-0.079246
C65	C	-0.048820	0.756731	-0.039563
C66	C	0.007939	0.677374	0.000117
C67	C	0.121459	0.518648	0.079490
C68	C	0.070435	0.518651	0.079495
C69	C	0.013673	0.598014	0.039812
C70	C	-0.037331	0.598006	0.039805
N71	N	-0.094094	0.677365	0.000130
C72	C	-0.099838	0.756727	-0.039554
C73	C	0.273872	0.598034	0.039768
C74	C	0.324889	0.598037	0.039755
C75	C	0.262380	0.756764	-0.039607
C76	C	0.211362	0.756760	-0.039598
C77	C	0.217110	0.677392	0.000093
C78	C	-0.206971	0.756710	-0.039543
C79	C	-0.257987	0.756698	-0.039538
C80	C	-0.195474	0.597971	0.039827
C81	C	-0.144461	0.597983	0.039819
C82	C	-0.150214	0.677360	0.000133
O83	O	-0.037192	0.530549	0.073516
O84	O	-0.152806	0.824216	-0.073287
C85	C	0.693454	0.677344	0.000136
C86	C	0.747757	0.677336	0.000145
C87	C	0.533445	0.677376	-0.203085
C88	C	0.533442	0.677379	-0.272047
C89	C	0.533451	0.880556	0.000116
C90	C	0.533451	0.949516	0.000119
C91	C	0.502196	0.756738	-0.344126
C92	C	0.502201	0.756736	-0.408921
C93	C	0.533449	0.677374	-0.401635
C94	C	0.564699	0.598009	-0.329549
C95	C	0.564697	0.598012	-0.264755
C96	C	0.564709	0.597993	-0.590852
C97	C	0.564707	0.597996	-0.655652
C98	C	0.502213	0.756717	-0.735017
C99	C	0.502211	0.756721	-0.670224
C100	C	0.533463	0.677356	-0.598143
C101	C	0.533458	0.677360	-0.527886
C102	C	0.533451	0.677369	-0.471891
C103	C	0.533461	0.677359	0.203304
C104	C	0.533464	0.677356	0.272267
C105	C	0.693456	0.474156	0.000130
C106	C	0.747759	0.405187	0.000136
C107	C	0.533463	0.474171	0.203298
C108	C	0.533466	0.405208	0.272258
C109	C	0.693464	0.474147	0.203324
C110	C	0.747770	0.405176	0.272293
C111	C	0.373442	0.880588	-0.203105
C112	C	0.319136	0.949560	-0.272074
C113	C	0.373450	0.880580	0.000090
C114	C	0.319147	0.949548	0.000083
C115	C	0.533443	0.880564	-0.203078
C116	C	0.533440	0.949528	-0.272038
C117	C	0.742016	0.372806	-0.039550
C118	C	0.793035	0.308011	-0.039559
C119	C	0.849797	0.275596	0.000123
C120	C	0.855539	0.307984	0.039811
C121	C	0.804521	0.372782	0.039815
C122	C	0.564713	0.372816	0.344332
C123	C	0.564714	0.308027	0.409134
C124	C	0.533471	0.275626	0.401860
C125	C	0.502221	0.308025	0.329778
C126	C	0.502217	0.372817	0.264978
C127	C	0.804520	0.372783	0.265009
C128	C	0.855552	0.307986	0.329807
C129	C	0.849832	0.275579	0.401888
C130	C	0.793076	0.307978	0.409170
C131	C	0.742046	0.372778	0.344373
C132	C	0.262386	0.981960	-0.264790
C133	C	0.211354	1.046777	-0.329587
C134	C	0.217074	1.079188	-0.401668
C135	C	0.273830	1.046785	-0.408951
C136	C	0.324860	0.981973	-0.344154
C137	C	0.324890	0.981937	0.039763
C138	C	0.273871	1.046749	0.039754
C139	C	0.217109	1.079166	0.000069
C140	C	0.211367	1.046775	-0.039615
C141	C	0.262385	0.981969	-0.039610
C142	C	0.564689	0.981907	-0.264740
C143	C	0.564697	1.046697	-0.329529
C144	C	0.533453	1.079110	-0.401616
C145	C	0.502204	1.046724	-0.408913
C146	C	0.502199	0.981931	-0.344125
H147	H	0.590128	-0.044470	-0.071868
C148	C	-0.320425	0.843999	-0.083188
H149	H	-0.349989	0.832635	-0.077510
H150	H	-0.324899	0.876605	-0.063594
H151	H	-0.324908	0.876609	-0.135394
C152	C	0.533480	0.204353	0.473141
H153	H	0.510396	0.189695	0.458492
H154	H	0.573290	0.153797	0.502458
H155	H	0.516751	0.225606	0.502447
H156	H	0.257701	0.955600	-0.071920
C157	C	0.533458	1.150387	-0.472876
H158	H	0.556540	1.165031	-0.458199
H159	H	0.550184	1.129158	-0.502194
H160	H	0.493648	1.200957	-0.502192
C161	C	0.599082	0.510694	-0.647635
H162	H	0.617699	0.463427	-0.595427
H163	H	0.572114	0.507397	-0.671266
H164	H	0.628649	0.507396	-0.671260
C165	C	0.467795	1.082435	-0.488209
H166	H	0.449172	1.053887	-0.483284
H167	H	0.438240	1.143611	-0.515091
H168	H	0.494739	1.071840	-0.515169
C169	C	0.905968	0.204294	0.473158
H170	H	0.940584	0.189641	0.458489
H171	H	0.905981	0.225520	0.502478
H172	H	0.905978	0.153729	0.502467
C173	C	0.280118	1.082431	-0.488240
H174	H	0.321224	1.053858	-0.483306
H175	H	0.261503	1.071815	-0.515161
H176	H	0.261511	1.143612	-0.515166
C177	C	0.786792	0.272316	0.488461
H178	H	0.825314	0.229077	0.526003
H179	H	0.765593	0.318821	0.494160
H180	H	0.765600	0.247026	0.494143
C181	C	0.599061	0.408450	-0.083215
H182	H	0.594585	0.451686	-0.077541
H183	H	0.640167	0.361927	-0.063616
H184	H	0.583625	0.433735	-0.135421
C185	C	0.599040	0.510699	-0.511571
H186	H	0.594559	0.522061	-0.474023
H187	H	0.583582	0.478140	-0.505932
H188	H	0.640154	0.478043	-0.505841
H189	H	0.165145	1.073179	-0.071926
C190	C	0.599070	0.510712	-0.321533
H191	H	0.594591	0.522075	-0.370445
H192	H	0.640176	0.478097	-0.294603
H193	H	0.583636	0.478112	-0.294615
C194	C	0.810824	0.408422	0.185729
H195	H	0.851934	0.379850	0.190682
H196	H	0.792222	0.397805	0.158796
H197	H	0.792215	0.469603	0.158803
H198	H	0.809206	0.399139	0.072137
H199	H	0.371067	0.955593	-0.350094
H200	H	-0.211663	0.821346	-0.071851
H201	H	0.476750	0.955575	-0.350078
H202	H	0.590131	0.955526	-0.206049
H203	H	0.476784	0.281635	0.323866
H204	H	0.165146	1.073149	-0.323643
C205	C	0.679623	0.408400	0.352391
H206	H	0.650045	0.451638	0.303481
H207	H	0.675159	0.361873	0.379319
H208	H	0.675150	0.433679	0.379315
C209	C	0.599058	0.272387	-0.083214
H210	H	0.617658	0.300968	-0.106852
H211	H	0.628627	0.211208	-0.048967
H212	H	0.572081	0.283018	-0.120766
C213	C	0.599060	0.082337	-0.083200
H214	H	0.617671	0.053752	-0.106822
H215	H	0.572093	0.143515	-0.120751
H216	H	0.628630	0.071702	-0.048940
C217	C	0.256082	0.946329	-0.185509
H218	H	0.214972	0.974925	-0.190462
H219	H	0.274683	0.885153	-0.158574
H220	H	0.274692	0.956952	-0.158585
H221	H	0.476747	0.821364	-0.350068
C222	C	0.467840	0.844016	-0.678237
H223	H	0.472311	0.832651	-0.629325
H224	H	0.483269	0.876619	-0.705156
H225	H	0.426732	0.876628	-0.705167
H226	H	0.165147	0.821385	-0.071912
H227	H	0.175517	1.131961	-0.454424
C228	C	0.599065	1.082320	-0.321489
H229	H	0.617661	1.053744	-0.269276
H230	H	0.628638	1.071694	-0.345100
H231	H	0.572091	1.143502	-0.345120
H232	H	0.476764	-0.044452	0.072099
C233	C	0.387322	0.946288	0.083421
H234	H	0.383427	0.974873	0.107042
H235	H	0.408526	0.885111	0.120973
H236	H	0.408524	0.956908	0.049173
H237	H	0.371103	0.533411	0.072062
C238	C	0.467840	0.082353	0.083432
H239	H	0.449228	0.053786	0.107052
H240	H	0.494807	0.071728	0.120985
H241	H	0.438270	0.143536	0.049174
H242	H	0.278558	1.073111	0.072073
H243	H	0.175572	1.131936	0.000071
C244	C	0.467848	0.408436	0.185700
H245	H	0.449248	0.379850	0.190656
H246	H	0.438278	0.469615	0.158760
H247	H	0.494819	0.397799	0.158781
H248	H	0.476780	0.281644	0.072094
H249	H	0.901760	0.281614	0.323864
H250	H	0.476775	0.399205	0.072089
C251	C	0.786708	0.272387	-0.083208
H252	H	0.745595	0.300964	-0.106827
H253	H	0.805302	0.283009	-0.120762
H254	H	0.805316	0.211206	-0.048954
C255	C	0.599065	0.510718	-0.185469
H256	H	0.617671	0.463451	-0.190408
H257	H	0.628630	0.507415	-0.158536
H258	H	0.572092	0.507425	-0.158551
H259	H	-0.100779	0.900720	-0.111558
H260	H	0.257710	0.821385	-0.071918
C261	C	-0.009877	0.923402	-0.122736
H262	H	0.028633	0.912054	-0.117011
H263	H	-0.031099	0.956162	-0.174960
H264	H	-0.031063	0.955851	-0.103007
C265	C	0.280201	0.510723	0.083420
H266	H	0.321314	0.463467	0.107039
H267	H	0.261607	0.507410	0.120974
H268	H	0.261594	0.507424	0.049168
H269	H	0.167669	0.454021	0.111798
H270	H	-0.098242	0.533359	0.072141
C271	C	0.076761	0.431344	0.123155
H272	H	0.117874	0.384084	0.146780
H273	H	0.058163	0.428039	0.160704
H274	H	0.058157	0.428041	0.088905
C275	C	0.467828	0.844030	-0.488205
H276	H	0.449212	0.891295	-0.483264
H277	H	0.494795	0.847330	-0.515127
H278	H	0.438261	0.847328	-0.515135
C279	C	-0.189164	0.510679	0.083479
H280	H	-0.227680	0.522050	0.077802
H281	H	-0.167967	0.478063	0.063893
H282	H	-0.167961	0.478077	0.135684
C283	C	0.467842	0.844018	-0.814308
H284	H	0.472322	0.832654	-0.851855
H285	H	0.426736	0.876629	-0.820001
H286	H	0.483273	0.876622	-0.819986
C287	C	0.905912	0.204313	0.000121
H288	H	0.894356	0.189668	-0.029194
H289	H	0.928999	0.225537	-0.021118
H290	H	0.928994	0.153745	0.050678
H291	H	0.695802	0.399198	-0.071874
H292	H	0.901762	0.281582	0.072119
H293	H	0.590154	0.399189	0.350270
C294	C	0.599096	0.272392	0.488414
H295	H	0.617710	0.300960	0.483459
H296	H	0.572136	0.283019	0.515343
H297	H	0.628666	0.211209	0.515344
