data_functionalizedCrystal
_audit_creation_method	'MofGen! by Chris Wilmer'
_symmetry_space_group_name_H-M	'P1'
_symmetry_Int_Tables_number	1
_symmetry_cell_setting	triclinic
loop_
_symmetry_equiv_pos_as_xyz
  x,y,z
_cell_length_a	20.453700
_cell_length_b	9.582860
_cell_length_c	9.652871
_cell_angle_alpha	89.493185
_cell_angle_beta	112.253171
_cell_angle_gamma	111.206767
loop_
_atom_site_label
_atom_site_type_symbol
_atom_site_fract_x
_atom_site_fract_y
_atom_site_fract_z
V1	V	1.389757	0.206410	0.466326
O2	O	1.371012	-0.010584	0.457731
O3	O	1.386428	0.409915	0.462865
O4	O	1.388340	0.202943	0.669830
O5	O	1.369087	0.197821	0.249333
V6	V	1.547401	0.180489	0.440405
O7	O	1.484589	0.263268	0.523186
O8	O	1.602635	0.123630	0.383545
O9	O	1.476329	-0.023017	0.443865
O10	O	1.605279	0.397483	0.448999
O11	O	1.607204	0.189077	0.657397
O12	O	1.474416	0.183956	0.236900
V13	V	1.214063	0.180489	0.440405
O14	O	1.234734	0.189077	0.657397
O15	O	1.215480	0.183956	0.236900
O16	O	1.217393	-0.023017	0.443865
O17	O	1.232808	0.397483	0.448999
V18	V	1.056419	0.206410	0.466326
O19	O	1.119231	0.123630	0.383545
O20	O	1.001185	0.263268	0.523186
O21	O	1.129404	0.202943	0.669830
O22	O	0.996616	0.197821	0.249333
O23	O	0.998541	-0.010584	0.457731
O24	O	1.127492	0.409915	0.462865
V25	V	1.723091	0.206410	0.466326
O26	O	1.704345	-0.010584	0.457731
O27	O	1.719761	0.409915	0.462865
O28	O	1.721673	0.202943	0.669830
O29	O	1.702420	0.197821	0.249333
V30	V	1.880734	0.180489	0.440405
O31	O	1.817922	0.263268	0.523186
O32	O	1.935969	0.123630	0.383545
O33	O	1.809662	-0.023017	0.443865
O34	O	1.938612	0.397483	0.448999
O35	O	1.940537	0.189077	0.657397
O36	O	1.807750	0.183956	0.236900
C37	C	1.337400	0.459535	0.455438
C38	C	1.361871	0.625901	0.453965
C39	C	1.339838	0.195519	0.719441
C40	C	1.365858	0.194031	0.885806
C41	C	1.413137	-0.072628	0.451288
C42	C	1.381746	-0.238993	0.452771
C43	C	1.263981	0.191385	0.187281
C44	C	1.237960	0.192867	0.020916
C45	C	1.413019	0.191377	1.187280
C46	C	1.386993	0.192833	1.020911
C47	C	1.266421	-0.072628	0.451289
C48	C	1.241952	-0.238993	0.452775
C49	C	1.193122	0.195518	0.719441
C50	C	1.226063	0.194028	0.885805
C51	C	1.190683	0.459535	0.455441
C52	C	1.222076	0.625903	0.453974
C53	C	1.670733	0.459535	0.455438
C54	C	1.695204	0.625901	0.453965
C55	C	1.673172	0.195519	0.719441
C56	C	1.699192	0.194031	0.885806
C57	C	1.746471	-0.072628	0.451288
C58	C	1.715080	-0.238993	0.452771
C59	C	1.744032	0.191385	0.187281
C60	C	1.711091	0.192865	0.020915
