data_functionalizedCrystal
_audit_creation_method	'MofGen! by Chris Wilmer'
_symmetry_space_group_name_H-M	'P1'
_symmetry_Int_Tables_number	1
_symmetry_cell_setting	triclinic
loop_
_symmetry_equiv_pos_as_xyz
  x,y,z
_cell_length_a	15.624884
_cell_length_b	14.044220
_cell_length_c	14.185328
_cell_angle_alpha	103.587856
_cell_angle_beta	57.724931
_cell_angle_gamma	91.516313
loop_
_atom_site_label
_atom_site_type_symbol
_atom_site_fract_x
_atom_site_fract_y
_atom_site_fract_z
O1	O	-1.341911	0.255280	0.571739
O2	O	-1.055908	0.246089	0.467667
O3	O	-1.194614	0.112333	0.518130
O4	O	-1.203205	0.389036	0.521276
O5	O	-1.151276	0.070285	0.335515
O6	O	-1.012570	0.204041	0.285051
O7	O	-1.298573	0.213233	0.389124
Cu8	Cu	-1.151615	0.204798	0.320413
Cu9	Cu	-1.202866	0.254524	0.536377
O10	O	-1.159867	0.346989	0.338661
C11	C	-0.997416	0.221315	0.362959
C12	C	-0.887693	0.210131	0.323032
C13	C	-0.645059	0.287920	0.689544
C14	C	-0.541958	0.277391	0.652025
C15	C	-0.494689	0.231550	0.452936
C16	C	-0.597788	0.242070	0.490438
C17	C	-0.672966	0.270256	0.608744
C18	C	-0.625694	0.224407	0.409638
C19	C	-0.728784	0.234931	0.447138
C20	C	-0.803968	0.263119	0.565438
C21	C	-0.776056	0.280781	0.646244
C22	C	-0.550514	0.196228	0.291333
C23	C	-0.578421	0.178565	0.210533
C24	C	-0.681513	0.189082	0.248032
C25	C	-0.756696	0.217270	0.366333
C26	C	-0.709424	0.171421	0.167227
C27	C	-0.812514	0.181945	0.204727
C28	C	-0.859786	0.227794	0.403833
C29	C	-1.169187	0.055676	0.425454
C30	C	-1.157976	-0.050502	0.421374
C31	C	-1.137485	-0.244900	0.413932
C32	C	-1.216994	-0.295783	0.442867
C33	C	-1.205593	-0.403952	0.438726
C34	C	-1.148885	-0.136720	0.418072
C35	C	-0.357064	0.238012	0.493828
C36	C	-0.466784	0.249214	0.533744
C37	C	-1.185295	0.403646	0.431339
C38	C	-1.196507	0.509826	0.435427
N39	N	-1.115574	0.169823	0.168519
C40	C	-1.344724	0.392267	-0.115689
C41	C	-1.317445	0.365761	-0.230644
C42	C	-1.187627	0.239700	-0.277877
C43	C	-1.214891	0.266198	-0.162925
C44	C	-1.293441	0.342481	-0.081839
C45	C	-1.163609	0.216413	-0.129075
C46	C	-1.190875	0.242906	-0.014132
C47	C	-1.269423	0.319184	0.066961
C48	C	-1.320707	0.368974	0.033104
C49	C	-1.085064	0.140126	-0.210161
C50	C	-1.033781	0.090340	-0.176311
C51	C	-1.061042	0.116838	-0.061368
C52	C	-1.139591	0.193116	0.019725
C53	C	-1.009759	0.067047	-0.027511
C54	C	-1.037025	0.093540	0.087433
C55	C	-1.166857	0.219608	0.134669
N56	N	-1.238914	0.289491	0.688275
H57	H	-0.706275	0.310868	0.785880
H58	H	-1.291624	0.340752	0.160555
Cl59	Cl	-0.911021	-0.028855	-0.129456
Cl60	Cl	-1.335309	-0.237620	0.485910
Cl61	Cl	-1.265617	0.315501	0.236618
Cl62	Cl	-0.614904	0.136003	0.018506
H63	H	-0.921002	0.250743	0.500169
Cl64	Cl	-0.847601	0.159742	0.103149
H65	H	-0.517197	0.155619	0.114208
H66	H	-1.384660	0.431101	0.099127
H67	H	-1.062872	0.118552	-0.303752
H68	H	-1.060858	-0.282573	0.386051
Cl69	Cl	-0.506882	0.299604	0.753617
Cl70	Cl	-1.443483	0.488159	-0.013740
H71	H	-1.359211	0.406309	-0.258196
H72	H	-0.433465	0.208604	0.356611
Cl73	Cl	-1.088881	0.143806	-0.379822
H74	H	-0.969828	0.028227	-0.242345
H75	H	-0.995263	0.053001	0.114992
Cl76	Cl	-0.420913	0.183003	0.244191
H77	H	-0.887909	0.271694	0.595969
H78	H	-0.837272	0.303729	0.742580
