data_functionalizedCrystal
_audit_creation_method	'MofGen! by Chris Wilmer'
_symmetry_space_group_name_H-M	'P1'
_symmetry_Int_Tables_number	1
_symmetry_cell_setting	triclinic
loop_
_symmetry_equiv_pos_as_xyz
  x,y,z
_cell_length_a	8.497374
_cell_length_b	19.805407
_cell_length_c	19.805405
_cell_angle_alpha	89.973590
_cell_angle_beta	89.985911
_cell_angle_gamma	90.004504
loop_
_atom_site_label
_atom_site_type_symbol
_atom_site_fract_x
_atom_site_fract_y
_atom_site_fract_z
Zn1	Zn	0.892011	1.034635	0.269581
Zn2	Zn	0.628188	1.034580	0.382739
Zn3	Zn	0.628226	0.921479	0.269569
Zn4	Zn	0.891907	0.921413	0.382733
O5	O	0.760083	0.978027	0.326155
O6	O	0.857043	1.129344	0.284598
O7	O	0.407431	1.019581	0.367724
O8	O	0.663277	0.936541	0.174854
O9	O	0.663213	1.129303	0.367735
O10	O	0.857079	1.019676	0.174862
O11	O	0.407458	0.936487	0.284579
O12	O	0.663176	0.826754	0.284573
O13	O	1.112683	0.936428	0.367725
O14	O	0.856901	0.826705	0.367714
O15	O	1.112760	1.019611	0.284593
O16	O	0.663111	1.019517	0.477455
O17	O	0.856864	0.936374	0.477450
C18	C	0.760032	0.802171	0.326142
C19	C	0.760048	0.726939	0.326153
C20	C	0.860757	0.691587	0.369510
C21	C	0.860779	0.620899	0.369511
C22	C	0.760083	0.585563	0.326158
C23	C	0.659369	0.620920	0.282797
C24	C	0.659356	0.691607	0.282793
C25	C	0.659421	0.335847	0.282812
C26	C	0.659439	0.265155	0.282821
C27	C	0.860844	0.265138	0.369530
C28	C	0.860831	0.335825	0.369526
C29	C	0.760124	0.371176	0.326162
C30	C	0.760103	0.447824	0.326161
C31	C	0.760095	0.508916	0.326163
C32	C	0.760007	0.977951	0.502011
C33	C	0.760027	0.977980	0.577243
C34	C	1.171563	0.978022	0.326156
C35	C	1.350207	0.978023	0.326164
C36	C	0.760135	1.154569	0.326169
C37	C	0.760157	1.229801	0.326175
C38	C	0.760194	0.978122	0.149613
C39	C	0.760241	0.978162	0.074381
C40	C	0.659245	1.021314	0.612567
C41	C	0.659280	1.021343	0.683256
C42	C	0.760090	0.978034	0.718619
C43	C	0.860882	0.934697	0.683290
C44	C	0.860854	0.934672	0.612603
C45	C	0.860999	0.934797	0.968363
C46	C	0.861016	0.934824	1.039055
C47	C	0.659425	1.021468	1.039016
C48	C	0.659397	1.021443	0.968329
C49	C	0.760195	0.978109	0.933006
C50	C	0.760158	0.978080	0.856358
C51	C	0.760120	0.978059	0.795266
H52	H	0.577440	0.236386	0.247514
H53	H	0.942823	0.364592	0.404830
C54	C	0.549747	1.068440	1.077339
C55	C	0.393612	1.053745	1.060206
C56	C	0.292539	1.096993	1.095504
H57	H	0.572721	1.113929	1.065742
H58	H	0.564108	1.062247	1.124508
H59	H	0.379258	1.059944	1.013048
H60	H	0.370589	1.008264	1.071805
H61	H	0.306900	1.090799	1.142673
H62	H	0.315527	1.142479	1.083904
H63	H	0.186590	1.087024	1.083889
C64	C	0.970271	0.226878	0.416677
C65	C	1.058420	0.272954	0.454654
C66	C	1.159221	0.237736	0.498097
H67	H	1.039266	0.199319	0.390907
H68	H	0.909847	0.199298	0.446166
H69	H	1.118839	0.300522	0.425168
H70	H	0.989466	0.300515	0.480437
H71	H	1.098797	0.210157	0.527586
H72	H	1.228206	0.210178	0.472322
H73	H	1.219032	0.268993	0.523874
H74	H	0.577303	1.056707	0.939538
C75	C	0.550289	1.068477	0.721729
C76	C	0.572039	1.059298	0.791203
C77	C	0.471796	1.102766	0.826665
H78	H	0.444113	1.058756	0.710315
H79	H	0.573736	1.113917	0.710079
H80	H	0.548582	1.013869	0.802848
H81	H	0.678195	1.069024	0.802637
H82	H	0.495242	1.148206	0.815015
H83	H	0.365626	1.093041	0.815245
H84	H	0.486550	1.096548	0.873806
H85	H	0.577356	0.720390	0.247484
H86	H	0.577407	0.364621	0.247508
C87	C	0.970160	0.887707	0.929928
C88	C	0.880721	0.844357	0.889384
C89	C	0.981227	0.800973	0.853957
H90	H	1.030234	0.861849	0.961034
H91	H	1.038921	0.913544	0.902281
H92	H	0.811988	0.818522	0.917029
H93	H	0.820650	0.870196	0.858266
H94	H	1.049989	0.826810	0.826310
H95	H	1.041297	0.775119	0.885067
H96	H	0.920559	0.771559	0.826439
H97	H	0.942751	0.720352	0.404815
C98	C	0.970600	0.887759	0.721648
C99	C	1.126716	0.902447	0.704428
C100	C	1.227831	0.859226	0.739755
H101	H	0.947621	0.842262	0.710133
H102	H	0.956287	0.893985	0.768812
H103	H	1.141022	0.896216	0.657275
H104	H	1.149744	0.947937	0.715945
H105	H	1.213518	0.865452	0.786920
H106	H	1.204838	0.813731	0.728238
H107	H	1.333767	0.869190	0.728082
H108	H	0.577387	0.592144	0.247496
C109	C	0.549727	1.068410	0.574298
C110	C	0.461505	1.106379	0.620367
C111	C	0.360616	1.149779	0.585141
H112	H	0.480782	1.042610	0.546755
H113	H	0.610091	1.097906	0.546702
H114	H	0.401146	1.076887	0.647951
H115	H	0.530409	1.132194	0.647912
H116	H	0.420980	1.179275	0.557545
H117	H	0.291681	1.123973	0.557598
H118	H	0.300756	1.175550	0.616393
H119	H	0.943119	0.899556	1.067846
H120	H	0.942923	0.899386	0.583843
H121	H	0.942785	0.592118	0.404817
